
  -OEChem-04052321163D

 80 88  0     1  0  0  0  0  0999 V2000
  -16.9252  -29.9980   20.5745 C   0  0  0  0  0  0  0  0  0  0  0  0
  -18.1928  -30.4729   20.2535 C   0  0  0  0  0  0  0  0  0  0  0  0
  -29.4126  -17.9423   19.4807 C   0  0  0  0  0  0  0  0  0  0  0  0
  -31.4151  -18.2104   20.8055 C   0  0  0  0  0  0  0  0  0  0  0  0
  -16.7861  -28.9262   21.4554 C   0  0  0  0  0  0  0  0  0  0  0  0
  -19.3220  -29.8771   20.8141 C   0  0  0  0  0  0  0  0  0  0  0  0
  -26.1549  -28.3427   19.3061 C   0  0  0  0  0  0  0  0  0  0  0  0
  -29.7344  -16.6024   19.2653 C   0  0  0  0  0  0  0  0  0  0  0  0
  -31.7369  -16.8703   20.5901 C   0  0  0  0  0  0  0  0  0  0  0  0
  -27.4363  -28.5055   19.8305 C   0  0  0  0  0  0  0  0  0  0  0  0
  -29.8429  -13.0185   18.6661 C   0  0  0  0  0  0  0  0  0  0  0  0
  -28.8233  -12.0765   18.8033 C   0  0  0  0  0  0  0  0  0  0  0  0
  -27.0782  -26.6094   21.2782 C   0  0  0  0  0  0  0  0  0  0  0  0
  -28.5157  -12.7446   21.1046 C   0  0  0  0  0  0  0  0  0  0  0  0
  -30.2530  -18.7464   20.2508 C   0  0  0  0  0  0  0  0  0  0  0  0
  -29.1535  -20.6624   21.5266 C   0  0  0  0  0  0  0  0  0  0  0  0
  -17.9146  -28.3107   22.0195 C   0  0  0  0  0  0  0  0  0  0  0  0
  -25.3200  -27.3170   19.7723 C   0  0  0  0  0  0  0  0  0  0  0  0
  -19.1978  -28.7970   21.7044 C   0  0  0  0  0  0  0  0  0  0  0  0
  -25.7875  -26.4342   20.7563 C   0  0  0  0  0  0  0  0  0  0  0  0
  -30.8966  -16.0663   19.8200 C   0  0  0  0  0  0  0  0  0  0  0  0
  -27.8971  -27.6406   20.8188 C   0  0  0  0  0  0  0  0  0  0  0  0
  -30.1989  -13.8235   19.7482 C   0  0  0  0  0  0  0  0  0  0  0  0
  -28.1597  -11.9396   20.0225 C   0  0  0  0  0  0  0  0  0  0  0  0
  -29.5353  -13.6865   20.9674 C   0  0  0  0  0  0  0  0  0  0  0  0
  -29.9214  -20.1308   20.4732 C   0  0  0  0  0  0  0  0  0  0  0  0
  -29.1319  -22.0147   21.2873 C   0  0  0  0  0  0  0  0  0  0  0  0
  -28.5169  -19.9936   22.6235 C   0  0  0  0  0  0  0  0  0  0  0  0
  -22.5025  -27.2108   21.2401 C   0  0  0  0  0  0  0  0  0  0  0  0
  -22.8253  -24.0149   20.7875 C   0  0  0  0  0  0  0  0  0  0  0  0
  -24.9040  -21.3552   20.2860 C   0  0  0  0  0  0  0  0  0  0  0  0
  -32.5612  -26.1455   19.3930 C   0  0  0  0  0  0  0  0  0  0  0  0
  -17.7121  -27.1856   23.0034 C   0  0  0  0  0  0  0  0  0  0  0  0
  -23.9502  -27.1383   19.1773 C   0  0  0  0  0  0  0  0  0  0  0  0
  -24.9379  -25.3045   21.2764 C   0  0  0  0  0  0  0  0  0  0  0  0
  -18.9753  -26.3686   23.2627 C   0  0  0  0  0  0  0  0  0  0  0  0
  -29.8879  -24.8642   17.3171 C   0  0  0  0  0  0  0  0  0  0  0  0
  -20.1670  -27.2900   23.5031 C   0  0  0  0  0  0  0  0  0  0  0  0
  -29.5492  -23.5545   18.0314 C   0  0  0  0  0  0  0  0  0  0  0  0
  -30.7939  -29.1408   22.6693 C   0  0  0  0  0  0  0  0  0  0  0  0
  -31.3891  -25.1361   17.3436 C   0  0  0  0  0  0  0  0  0  0  0  0
  -31.6518  -23.8402   19.4233 C   0  0  0  0  0  0  0  0  0  0  0  0
  -20.4479  -28.1610   22.2727 C   0  0  1  0  0  0  0  0  0  0  0  0
  -22.9961  -26.3765   20.0921 C   0  0  1  0  0  0  0  0  0  0  0  0
  -30.1462  -23.5198   19.4508 C   0  0  2  0  0  0  0  0  0  0  0  0
  -29.4564  -29.0629   21.9868 C   0  0  1  0  0  0  0  0  0  1  0  0
  -30.5634  -29.9060   21.3869 C   0  0  2  0  0  0  0  0  0  0  0  0
  -24.8785  -18.8631   19.9919 C   0  0  0  0  0  0  0  0  0  0  0  0
  -31.7841  -32.1000   21.3748 C   0  0  0  0  0  0  0  0  0  0  0  0
  -29.4823  -31.9386   20.3853 C   0  0  0  0  0  0  0  0  0  0  0  0
  -22.3448  -23.6690   23.7807 C   0  0  0  0  0  0  0  0  0  0  0  0
  -23.2574  -21.3456   23.5879 C   0  0  0  0  0  0  0  0  0  0  0  0
  -21.1945  -21.9812   22.3376 C   0  0  0  0  0  0  0  0  0  0  0  0
  -26.1064  -21.5448   17.5884 C   0  0  0  0  0  0  0  0  0  0  0  0
  -31.2669  -29.4262   20.1449 C   0  0  0  0  0  0  0  0  0  0  0  0
  -32.7081  -29.0159   20.4430 C   0  0  0  0  0  0  0  0  0  0  0  0
  -33.4220  -28.4658   19.2131 C   0  0  0  0  0  0  0  0  0  0  0  0
  -23.4318  -22.8794   21.5759 C   0  0  1  0  0  0  0  0  0  0  0  0
  -24.8538  -20.2115   19.2890 C   0  0  2  0  0  0  0  0  0  0  0  0
  -30.4208  -31.4022   21.4747 C   0  0  0  0  0  0  0  0  0  0  0  0
  -22.5727  -22.4912   22.8123 C   0  0  0  0  0  0  0  0  0  0  0  0
  -30.3559  -21.0689   19.6275 N   0  0  0  0  0  0  0  0  0  0  0  0
  -29.8594  -22.2035   20.1492 N   0  0  0  0  0  0  0  0  0  0  0  0
  -23.6037  -25.1749   20.6677 N   0  0  0  0  0  0  0  0  0  0  0  0
  -31.8910  -25.1074   18.7247 N   0  0  0  0  0  0  0  0  0  0  0  0
  -28.5617  -23.0488   21.9414 N   0  0  0  0  0  0  0  0  0  0  0  0
  -28.6394  -18.6007   22.7187 N   0  0  0  0  0  0  0  0  0  0  0  0
  -21.1328  -27.3928   21.2553 N   0  0  0  0  0  0  0  0  0  0  0  0
  -23.6410  -21.7903   20.6280 N   0  0  0  0  0  0  0  0  0  0  0  0
  -32.7539  -27.3094   18.6588 N   0  0  0  0  0  0  0  0  0  0  0  0
  -26.0195  -20.2802   18.3630 N   0  3  0  0  0  0  0  0  0  0  0  0
  -27.8451  -20.6111   23.4843 O   0  0  0  0  0  0  0  0  0  0  0  0
  -23.3048  -27.6552   22.0528 O   0  0  0  0  0  0  0  0  0  0  0  0
  -21.7052  -23.8752   20.2900 O   0  0  0  0  0  0  0  0  0  0  0  0
  -25.9579  -21.8139   20.7210 O   0  0  0  0  0  0  0  0  0  0  0  0
  -32.9543  -26.0447   20.5602 O   0  0  0  0  0  0  0  0  0  0  0  0
  -31.2108  -14.7587   19.6102 O   0  0  0  0  0  0  0  0  0  0  0  0
  -29.1473  -27.7977   21.3329 O   0  0  0  0  0  0  0  0  0  1  0  0
  -27.1796  -11.0360   20.1536 F   0  0  0  0  0  0  0  0  0  0  0  0
  -29.8721  -14.4579   22.0102 F   0  0  0  0  0  0  0  0  0  0  0  0
  1  2  1  0  0  0  0
  1  5  2  0  0  0  0
  2  6  2  0  0  0  0
  3  8  2  0  0  0  0
  3 15  1  0  0  0  0
  4  9  1  0  0  0  0
  4 15  2  0  0  0  0
  5 17  1  0  0  0  0
  6 19  1  0  0  0  0
  7 10  2  0  0  0  0
  7 18  1  0  0  0  0
  8 21  1  0  0  0  0
  9 21  2  0  0  0  0
 10 22  1  0  0  0  0
 11 12  2  0  0  0  0
 11 23  1  0  0  0  0
 12 24  1  0  0  0  0
 13 20  1  0  0  0  0
 13 22  2  0  0  0  0
 14 24  2  0  0  0  0
 14 25  1  0  0  0  0
 15 26  1  0  0  0  0
 16 26  1  0  0  0  0
 16 27  2  0  0  0  0
 16 28  1  0  0  0  0
 17 19  2  0  0  0  0
 17 33  1  0  0  0  0
 18 20  2  0  0  0  0
 18 34  1  0  0  0  0
 19 43  1  0  0  0  0
 20 35  1  0  0  0  0
 21 77  1  0  0  0  0
 22 78  1  0  0  0  0
 23 25  2  0  0  0  0
 23 77  1  0  0  0  0
 24 79  1  0  0  0  0
 25 80  1  0  0  0  0
 26 62  2  0  0  0  0
 27 63  1  0  0  0  0
 27 66  1  0  0  0  0
 28 67  1  0  0  0  0
 28 72  2  0  0  0  0
 29 44  1  0  0  0  0
 29 68  1  0  0  0  0
 29 73  2  0  0  0  0
 30 58  1  0  0  0  0
 30 64  1  0  0  0  0
 30 74  2  0  0  0  0
 31 59  1  0  0  0  0
 31 69  1  0  0  0  0
 31 75  2  0  0  0  0
 32 65  1  0  0  0  0
 32 70  1  0  0  0  0
 32 76  2  0  0  0  0
 33 36  1  0  0  0  0
 34 44  1  0  0  0  0
 35 64  1  0  0  0  0
 36 38  1  0  0  0  0
 37 39  1  0  0  0  0
 37 41  1  0  0  0  0
 38 43  1  0  0  0  0
 39 45  1  0  0  0  0
 40 46  1  0  0  0  0
 40 47  1  0  0  0  0
 41 65  1  0  0  0  0
 42 45  1  0  0  0  0
 42 65  1  0  0  0  0
 43 68  1  0  0  0  0
 44 64  1  0  0  0  0
 45 63  1  0  0  0  0
 46 47  1  0  0  0  0
 46 78  1  0  0  0  0
 47 55  1  0  0  0  0
 47 60  1  0  0  0  0
 48 59  1  0  0  0  0
 49 60  1  0  0  0  0
 50 60  1  0  0  0  0
 51 61  1  0  0  0  0
 52 61  1  0  0  0  0
 53 61  1  0  0  0  0
 54 71  1  0  0  0  0
 55 56  1  0  0  0  0
 56 57  1  0  0  0  0
 57 70  1  0  0  0  0
 58 61  1  0  0  0  0
 58 69  1  0  0  0  0
 59 71  1  0  0  0  0
 62 63  1  0  0  0  0
M  CHG  1  71   1
M  ISO  4  32 100  46 101  70 100  78 101
M  END
> <Batch ID>
0141

> <Smiles>
CNC(C)C(=O)NC(C(=O)N1Cc2cc([101O:1][101CH:1]3CC3(CCC[100NH:0][100C:0](=O)N3CCCC(n4nc(-c5ccc(Oc6ccc(F)cc6F)cc5)c(C(N)=O)c4N)C3)C(C)C)ccc2CC1C(=O)NC1CCCc2ccccc21)C(C)(C)C

> <Shape>
0.220

> <Color>
0.061

> <Negative vol penalty>
0.000

$$$$

  -OEChem-04052321163D

 85 94  0     1  0  0  0  0  0999 V2000
  -16.8605  -29.0630   24.3418 C   0  0  0  0  0  0  0  0  0  0  0  0
  -17.5092  -28.0517   23.6406 C   0  0  0  0  0  0  0  0  0  0  0  0
  -25.5033   -9.0761   21.5255 C   0  0  0  0  0  0  0  0  0  0  0  0
  -25.1849  -10.5168   23.4386 C   0  0  0  0  0  0  0  0  0  0  0  0
  -17.2605  -30.3889   24.1803 C   0  0  0  0  0  0  0  0  0  0  0  0
  -18.5576  -28.3657   22.7765 C   0  0  0  0  0  0  0  0  0  0  0  0
  -22.5086  -25.2415   23.3000 C   0  0  0  0  0  0  0  0  0  0  0  0
  -25.5694   -7.9684   22.3705 C   0  0  0  0  0  0  0  0  0  0  0  0
  -25.2509   -9.4090   24.2838 C   0  0  0  0  0  0  0  0  0  0  0  0
  -22.4078  -23.9829   22.7088 C   0  0  0  0  0  0  0  0  0  0  0  0
  -24.9748   -6.9179   26.9175 C   0  0  0  0  0  0  0  0  0  0  0  0
  -24.0268   -6.8211   27.9361 C   0  0  0  0  0  0  0  0  0  0  0  0
  -23.8240  -20.3195   20.6333 C   0  0  0  0  0  0  0  0  0  0  0  0
  -23.7377  -24.7561   20.8506 C   0  0  0  0  0  0  0  0  0  0  0  0
  -22.2590   -6.8055   26.2894 C   0  0  0  0  0  0  0  0  0  0  0  0
  -25.8163  -21.0421   22.3518 C   0  0  0  0  0  0  0  0  0  0  0  0
  -25.3112  -10.3503   22.0595 C   0  0  0  0  0  0  0  0  0  0  0  0
  -24.8144  -19.3982   20.9554 C   0  0  0  0  0  0  0  0  0  0  0  0
  -24.0925  -12.0390   20.5862 C   0  0  0  0  0  0  0  0  0  0  0  0
  -18.3207  -30.7183   23.3212 C   0  0  0  0  0  0  0  0  0  0  0  0
  -23.2167  -26.2717   22.6647 C   0  0  0  0  0  0  0  0  0  0  0  0
  -18.9713  -29.6973   22.6024 C   0  0  0  0  0  0  0  0  0  0  0  0
  -23.8481  -26.0261   21.4371 C   0  0  0  0  0  0  0  0  0  0  0  0
  -25.4431   -8.1348   23.7497 C   0  0  0  0  0  0  0  0  0  0  0  0
  -23.0200  -23.7409   21.4825 C   0  0  0  0  0  0  0  0  0  0  0  0
  -24.5648   -6.9587   25.5848 C   0  0  0  0  0  0  0  0  0  0  0  0
  -25.8336  -19.7588   21.8299 C   0  0  0  0  0  0  0  0  0  0  0  0
  -22.6689   -6.7648   27.6221 C   0  0  0  0  0  0  0  0  0  0  0  0
  -23.2070   -6.9024   25.2708 C   0  0  0  0  0  0  0  0  0  0  0  0
  -25.2435  -11.4950   21.1871 C   0  0  0  0  0  0  0  0  0  0  0  0
  -23.8972  -21.5781   21.2080 C   0  0  0  0  0  0  0  0  0  1  0  0
  -24.5571  -13.1080   19.8596 C   0  0  0  0  0  0  0  0  0  0  0  0
  -24.7673  -18.0667   20.3684 C   0  0  0  0  0  0  0  0  0  0  0  0
  -22.7256  -11.6159   20.6767 C   0  0  0  0  0  0  0  0  0  0  0  0
  -22.4606  -29.1399   21.5221 C   0  0  0  0  0  0  0  0  0  0  0  0
  -25.6637  -29.3718   21.0648 C   0  0  0  0  0  0  0  0  0  0  0  0
  -28.6489  -27.7800   20.6162 C   0  0  0  0  0  0  0  0  0  0  0  0
  -29.3975  -16.5944   20.3763 C   0  0  0  0  0  0  0  0  0  0  0  0
  -18.6864  -32.1706   23.1432 C   0  0  0  0  0  0  0  0  0  0  0  0
  -23.3385  -27.6160   23.3285 C   0  0  0  0  0  0  0  0  0  0  0  0
  -24.6371  -27.0925   20.7238 C   0  0  0  0  0  0  0  0  0  0  0  0
  -20.0519  -32.3797   22.4937 C   0  0  0  0  0  0  0  0  0  0  0  0
  -28.4484  -14.6548   17.5453 C   0  0  0  0  0  0  0  0  0  0  0  0
  -20.2082  -31.4741   21.2762 C   0  0  0  0  0  0  0  0  0  0  0  0
  -24.6856  -18.7695   17.9021 C   0  0  0  0  0  0  0  0  0  0  0  0
  -24.9514  -17.2944   17.9297 C   0  0  0  0  0  0  0  0  0  0  0  0
  -27.4156  -13.6742   18.1034 C   0  0  0  0  0  0  0  0  0  0  0  0
  -29.5657  -14.9298   18.5494 C   0  0  0  0  0  0  0  0  0  0  0  0
  -28.0750  -14.3935   20.4372 C   0  0  0  0  0  0  0  0  0  0  0  0
  -20.1292  -29.9954   21.6747 C   0  0  1  0  0  0  0  0  0  0  0  0
  -24.1477  -17.9315   19.0087 C   0  0  0  0  0  0  0  0  0  0  0  0
  -23.6516  -28.7409   22.3467 C   0  0  1  0  0  0  0  0  0  0  0  0
  -26.8988  -14.1282   19.4819 C   0  0  2  0  0  0  0  0  0  0  0  0
  -31.0864  -28.2363   20.2320 C   0  0  0  0  0  0  0  0  0  0  0  0
  -25.0712  -30.0729   18.1549 C   0  0  0  0  0  0  0  0  0  0  0  0
  -27.4679  -29.5833   17.6217 C   0  0  0  0  0  0  0  0  0  0  0  0
  -26.8950  -31.4253   19.2033 C   0  0  0  0  0  0  0  0  0  0  0  0
  -29.4193  -26.4143   23.1263 C   0  0  0  0  0  0  0  0  0  0  0  0
  -29.1133  -18.1683   22.2739 C   0  0  0  0  0  0  0  0  0  0  0  0
  -28.1624  -19.2776   21.8613 C   0  0  0  0  0  0  0  0  0  0  0  0
  -26.6112  -29.0241   19.9422 C   0  0  1  0  0  0  0  0  0  0  0  0
  -30.0047  -27.9790   21.2695 C   0  0  2  0  0  0  0  0  0  0  0  0
  -26.4949  -30.0067   18.7428 C   0  0  0  0  0  0  0  0  0  0  0  0
  -24.8712  -21.9645   22.0623 N   0  0  0  0  0  0  0  0  0  0  0  0
  -26.3556  -12.1632   20.8697 N   0  0  0  0  0  0  0  0  0  0  0  0
  -25.9056  -13.1379   20.0613 N   0  0  0  0  0  0  0  0  0  0  0  0
  -24.7219  -28.3922   21.4102 N   0  0  0  0  0  0  0  0  0  0  0  0
  -29.0087  -15.3579   19.8349 N   0  0  0  0  0  0  0  0  0  0  0  0
  -23.9396  -14.0158   19.0741 N   0  0  0  0  0  0  0  0  0  0  0  0
  -22.4230  -10.4985   21.4668 N   0  0  0  0  0  0  0  0  0  0  0  0
  -21.3771  -29.5643   22.2674 N   0  0  0  0  0  0  0  0  0  0  0  0
  -27.9422  -28.9613   20.5362 N   0  0  0  0  0  0  0  0  0  0  0  0
  -28.8177  -16.9266   21.5945 N   0  0  0  0  0  0  0  0  0  0  0  0
  -30.3841  -26.7701   22.0541 N   0  3  0  0  0  0  0  0  0  0  0  0
  -25.1933  -17.0437   20.9066 O   0  0  0  0  0  0  0  0  0  0  0  0
  -21.8021  -12.2012   20.0617 O   0  0  0  0  0  0  0  0  0  0  0  0
  -22.5208  -29.0695   20.3002 O   0  0  0  0  0  0  0  0  0  0  0  0
  -25.7603  -30.4692   21.6198 O   0  0  0  0  0  0  0  0  0  0  0  0
  -28.2576  -26.6867   20.2136 O   0  0  0  0  0  0  0  0  0  0  0  0
  -30.1976  -17.3489   19.8129 O   0  0  0  0  0  0  0  0  0  0  0  0
  -25.5072   -7.0541   24.5746 O   0  0  0  0  0  0  0  0  0  0  0  0
  -22.9227  -22.5135   20.9028 O   0  0  0  0  0  0  0  0  0  1  0  0
  -26.8223  -18.8945   22.1740 O   0  0  0  0  0  0  0  0  0  0  0  0
  -21.7588   -6.6702   28.6003 F   0  0  0  0  0  0  0  0  0  0  0  0
  -22.8071   -6.9399   23.9923 F   0  0  0  0  0  0  0  0  0  0  0  0
  1  2  1  0  0  0  0
  1  5  2  0  0  0  0
  2  6  2  0  0  0  0
  3  8  2  0  0  0  0
  3 17  1  0  0  0  0
  4  9  1  0  0  0  0
  4 17  2  0  0  0  0
  5 20  1  0  0  0  0
  6 22  1  0  0  0  0
  7 10  2  0  0  0  0
  7 21  1  0  0  0  0
  8 24  1  0  0  0  0
  9 24  2  0  0  0  0
 10 25  1  0  0  0  0
 11 12  2  0  0  0  0
 11 26  1  0  0  0  0
 12 28  1  0  0  0  0
 13 18  2  0  0  0  0
 13 31  1  0  0  0  0
 14 23  1  0  0  0  0
 14 25  2  0  0  0  0
 15 28  2  0  0  0  0
 15 29  1  0  0  0  0
 16 27  2  0  0  0  0
 16 64  1  0  0  0  0
 17 30  1  0  0  0  0
 18 27  1  0  0  0  0
 18 33  1  0  0  0  0
 19 30  1  0  0  0  0
 19 32  2  0  0  0  0
 19 34  1  0  0  0  0
 20 22  2  0  0  0  0
 20 39  1  0  0  0  0
 21 23  2  0  0  0  0
 21 40  1  0  0  0  0
 22 50  1  0  0  0  0
 23 41  1  0  0  0  0
 24 81  1  0  0  0  0
 25 82  1  0  0  0  0
 26 29  2  0  0  0  0
 26 81  1  0  0  0  0
 27 83  1  0  0  0  0
 28 84  1  0  0  0  0
 29 85  1  0  0  0  0
 30 65  2  0  0  0  0
 31 64  2  0  0  0  0
 31 82  1  0  0  0  0
 32 66  1  0  0  0  0
 32 69  1  0  0  0  0
 33 51  1  0  0  0  0
 33 75  2  0  0  0  0
 34 70  1  0  0  0  0
 34 76  2  0  0  0  0
 35 52  1  0  0  0  0
 35 71  1  0  0  0  0
 35 77  2  0  0  0  0
 36 61  1  0  0  0  0
 36 67  1  0  0  0  0
 36 78  2  0  0  0  0
 37 62  1  0  0  0  0
 37 72  1  0  0  0  0
 37 79  2  0  0  0  0
 38 68  1  0  0  0  0
 38 73  1  0  0  0  0
 38 80  2  0  0  0  0
 39 42  1  0  0  0  0
 40 52  1  0  0  0  0
 41 67  1  0  0  0  0
 42 44  1  0  0  0  0
 43 47  1  0  0  0  0
 43 48  1  0  0  0  0
 44 50  1  0  0  0  0
 45 46  1  0  0  0  0
 45 51  1  0  0  0  0
 46 51  1  0  0  0  0
 47 53  1  0  0  0  0
 48 68  1  0  0  0  0
 49 53  1  0  0  0  0
 49 68  1  0  0  0  0
 50 71  1  0  0  0  0
 52 67  1  0  0  0  0
 53 66  1  0  0  0  0
 54 62  1  0  0  0  0
 55 63  1  0  0  0  0
 56 63  1  0  0  0  0
 57 63  1  0  0  0  0
 58 74  1  0  0  0  0
 59 60  1  0  0  0  0
 59 73  1  0  0  0  0
 60 83  1  0  0  0  0
 61 63  1  0  0  0  0
 61 72  1  0  0  0  0
 62 74  1  0  0  0  0
 65 66  1  0  0  0  0
M  CHG  1  74   1
M  ISO  4  31 101  38 100  73 100  82 101
M  END
> <Batch ID>
0141

> <Smiles>
CNC(C)C(=O)NC(C(=O)N1Cc2cc([101O:1][101c:1]3cc(C(=O)C4CC4)c(OCC[100NH:0][100C:0](=O)N4CCCC(n5nc(-c6ccc(Oc7ccc(F)cc7F)cc6)c(C(N)=O)c5N)C4)cn3)ccc2CC1C(=O)NC1CCCc2ccccc21)C(C)(C)C

> <Shape>
0.209

> <Color>
0.103

> <Negative vol penalty>
0.000

$$$$

  -OEChem-04052321163D

 86 95  0     1  0  0  0  0  0999 V2000
  -28.6458  -34.1658   19.2302 C   0  0  0  0  0  0  0  0  0  0  0  0
  -29.0538  -32.8781   18.8973 C   0  0  0  0  0  0  0  0  0  0  0  0
  -23.0774   -9.9819   19.9512 C   0  0  0  0  0  0  0  0  0  0  0  0
  -23.9439   -9.9059   22.2051 C   0  0  0  0  0  0  0  0  0  0  0  0
  -27.9721  -34.3942   20.4293 C   0  0  0  0  0  0  0  0  0  0  0  0
  -28.7891  -31.8182   19.7638 C   0  0  0  0  0  0  0  0  0  0  0  0
  -32.0312  -19.7163   20.4510 C   0  0  0  0  0  0  0  0  0  0  0  0
  -27.4738  -26.0399   18.2185 C   0  0  0  0  0  0  0  0  0  0  0  0
  -31.1788  -20.7958   20.6828 C   0  0  0  0  0  0  0  0  0  0  0  0
  -22.3575   -8.8110   20.1884 C   0  0  0  0  0  0  0  0  0  0  0  0
  -23.2240   -8.7350   22.4424 C   0  0  0  0  0  0  0  0  0  0  0  0
  -28.2537  -24.8863   18.1511 C   0  0  0  0  0  0  0  0  0  0  0  0
  -20.0357   -7.8757   23.1614 C   0  0  0  0  0  0  0  0  0  0  0  0
  -19.3349   -7.7800   24.3636 C   0  0  0  0  0  0  0  0  0  0  0  0
  -27.5212  -24.2690   20.3651 C   0  0  0  0  0  0  0  0  0  0  0  0
  -29.5474  -19.8292   19.1857 C   0  0  0  0  0  0  0  0  0  0  0  0
  -20.6286   -5.8294   24.9624 C   0  0  0  0  0  0  0  0  0  0  0  0
  -23.8706  -10.5293   20.9595 C   0  0  0  0  0  0  0  0  0  0  0  0
  -24.1815  -13.0611   20.9263 C   0  0  0  0  0  0  0  0  0  0  0  0
  -27.6905  -33.3350   21.3065 C   0  0  0  0  0  0  0  0  0  0  0  0
  -26.7189  -26.3227   19.3660 C   0  0  0  0  0  0  0  0  0  0  0  0
  -28.1121  -32.0328   20.9764 C   0  0  0  0  0  0  0  0  0  0  0  0
  -31.6417  -18.6933   19.5865 C   0  0  0  0  0  0  0  0  0  0  0  0
  -26.7305  -25.4256   20.4435 C   0  0  0  0  0  0  0  0  0  0  0  0
  -29.9370  -20.8523   20.0502 C   0  0  0  0  0  0  0  0  0  0  0  0
  -30.3998  -18.7497   18.9539 C   0  0  0  0  0  0  0  0  0  0  0  0
  -22.4307   -8.1875   21.4340 C   0  0  0  0  0  0  0  0  0  0  0  0
  -28.2797  -24.0020   19.2256 C   0  0  0  0  0  0  0  0  0  0  0  0
  -21.0329   -6.9482   22.8596 C   0  0  0  0  0  0  0  0  0  0  0  0
  -19.6314   -6.7569   25.2641 C   0  0  0  0  0  0  0  0  0  0  0  0
  -21.3293   -5.9251   23.7601 C   0  0  0  0  0  0  0  0  0  0  0  0
  -24.6150  -11.7386   20.7148 C   0  0  0  0  0  0  0  0  0  0  0  0
  -25.2479  -13.8374   20.5434 C   0  0  0  0  0  0  0  0  0  0  0  0
  -22.9270  -13.5448   21.4244 C   0  0  0  0  0  0  0  0  0  0  0  0
  -35.0247  -18.1199   18.4725 C   0  0  0  0  0  0  0  0  0  0  0  0
  -26.7001  -28.6616   21.5185 C   0  0  0  0  0  0  0  0  0  0  0  0
  -24.0637  -27.1141   22.6035 C   0  0  0  0  0  0  0  0  0  0  0  0
  -22.2978  -24.2019   22.8209 C   0  0  0  0  0  0  0  0  0  0  0  0
  -30.5982  -14.9457   20.6371 C   0  0  0  0  0  0  0  0  0  0  0  0
  -27.0014  -33.6384   22.6133 C   0  0  0  0  0  0  0  0  0  0  0  0
  -25.8619  -27.5580   19.4124 C   0  0  0  0  0  0  0  0  0  0  0  0
  -25.9223  -25.6730   21.6901 C   0  0  0  0  0  0  0  0  0  0  0  0
  -26.4292  -32.4018   23.3016 C   0  0  0  0  0  0  0  0  0  0  0  0
  -29.5027  -12.6142   18.0966 C   0  0  0  0  0  0  0  0  0  0  0  0
  -27.4540  -31.2719   23.3074 C   0  0  0  0  0  0  0  0  0  0  0  0
  -28.0868  -12.2889   18.5753 C   0  0  0  0  0  0  0  0  0  0  0  0
  -34.1544  -16.2535   20.1165 C   0  0  0  0  0  0  0  0  0  0  0  0
  -30.4626  -12.7716   19.2726 C   0  0  0  0  0  0  0  0  0  0  0  0
  -28.6242  -13.4563   20.7625 C   0  0  0  0  0  0  0  0  0  0  0  0
  -32.6068  -17.5001   19.3427 C   0  0  1  0  0  0  0  0  0  0  0  0
  -27.8216  -30.8532   21.8788 C   0  0  1  0  0  0  0  0  0  0  0  0
  -34.1219  -17.7284   19.6470 C   0  0  2  0  0  0  0  0  0  0  0  0
  -25.5347  -28.0051   20.8338 C   0  0  1  0  0  0  0  0  0  0  0  0
  -27.6014  -13.3094   19.6215 C   0  0  2  0  0  0  0  0  0  0  0  0
  -32.6480  -16.3800   20.4183 C   0  0  1  0  0  0  0  0  0  0  0  0
  -29.9642  -17.6650   18.0250 C   0  0  0  0  0  0  0  0  0  0  0  0
  -35.9191  -19.3130   18.6749 C   0  0  0  0  0  0  0  0  0  0  0  0
  -20.1992  -23.2394   23.8042 C   0  0  0  0  0  0  0  0  0  0  0  0
  -25.3792  -27.0644   25.3561 C   0  0  0  0  0  0  0  0  0  0  0  0
  -23.7278  -25.3100   26.0367 C   0  0  0  0  0  0  0  0  0  0  0  0
  -22.9323  -27.5808   25.3785 C   0  0  0  0  0  0  0  0  0  0  0  0
  -21.2305  -23.5002   20.1512 C   0  0  0  0  0  0  0  0  0  0  0  0
  -29.0204  -22.0137   20.2998 C   0  0  0  0  0  0  0  0  0  1  0  0
  -23.8066  -26.0102   23.6006 C   0  0  1  0  0  0  0  0  0  0  0  0
  -20.8302  -23.8938   22.5851 C   0  0  2  0  0  0  0  0  0  0  0  0
  -23.9783  -26.4874   25.0704 C   0  0  0  0  0  0  0  0  0  0  0  0
  -25.8597  -11.6745   20.2347 N   0  0  0  0  0  0  0  0  0  0  0  0
  -26.2175  -12.9665   20.1412 N   0  0  0  0  0  0  0  0  0  0  0  0
  -25.1051  -26.8976   21.6900 N   0  0  0  0  0  0  0  0  0  0  0  0
  -29.9512  -13.7710   20.2217 N   0  0  0  0  0  0  0  0  0  0  0  0
  -25.4415  -15.1731   20.5147 N   0  0  0  0  0  0  0  0  0  0  0  0
  -21.9411  -12.6109   21.7711 N   0  0  0  0  0  0  0  0  0  0  0  0
  -26.7793  -30.0254   21.3106 N   0  0  0  0  0  0  0  0  0  0  0  0
  -22.4809  -25.4840   23.2942 N   0  0  0  0  0  0  0  0  0  0  0  0
  -31.8513  -15.1821   20.0817 N   0  0  0  0  0  0  0  0  0  0  0  0
  -20.6744  -22.9728   21.4238 N   0  3  0  0  0  0  0  0  0  0  0  0
  -22.6816  -14.7692   21.5425 O   0  0  0  0  0  0  0  0  0  0  0  0
  -35.0200  -17.4887   17.4167 O   0  0  0  0  0  0  0  0  0  0  0  0
  -27.4695  -27.9814   22.1871 O   0  0  0  0  0  0  0  0  0  0  0  0
  -23.3616  -28.1281   22.6294 O   0  0  0  0  0  0  0  0  0  0  0  0
  -23.1921  -23.3855   22.6102 O   0  0  0  0  0  0  0  0  0  0  0  0
  -30.0973  -15.7378   21.4429 O   0  0  0  0  0  0  0  0  0  0  0  0
  -21.7282   -7.0451   21.6660 O   0  0  0  0  0  0  0  0  0  0  0  0
  -29.0407  -22.8756   19.1627 O   0  0  0  0  0  0  0  0  0  1  0  0
  -18.9594   -6.6660   26.4193 F   0  0  0  0  0  0  0  0  0  0  0  0
  -22.2871   -5.0318   23.4762 F   0  0  0  0  0  0  0  0  0  0  0  0
  1  2  1  0  0  0  0
  1  5  2  0  0  0  0
  2  6  2  0  0  0  0
  3 10  2  0  0  0  0
  3 18  1  0  0  0  0
  4 11  1  0  0  0  0
  4 18  2  0  0  0  0
  5 20  1  0  0  0  0
  6 22  1  0  0  0  0
  7  9  2  0  0  0  0
  7 23  1  0  0  0  0
  8 12  2  0  0  0  0
  8 21  1  0  0  0  0
  9 25  1  0  0  0  0
 10 27  1  0  0  0  0
 11 27  2  0  0  0  0
 12 28  1  0  0  0  0
 13 14  2  0  0  0  0
 13 29  1  0  0  0  0
 14 30  1  0  0  0  0
 15 24  1  0  0  0  0
 15 28  2  0  0  0  0
 16 25  2  0  0  0  0
 16 26  1  0  0  0  0
 17 30  2  0  0  0  0
 17 31  1  0  0  0  0
 18 32  1  0  0  0  0
 19 32  1  0  0  0  0
 19 33  2  0  0  0  0
 19 34  1  0  0  0  0
 20 22  2  0  0  0  0
 20 40  1  0  0  0  0
 21 24  2  0  0  0  0
 21 41  1  0  0  0  0
 22 51  1  0  0  0  0
 23 26  2  0  0  0  0
 23 50  1  0  0  0  0
 24 42  1  0  0  0  0
 25 63  1  0  0  0  0
 26 56  1  0  0  0  0
 27 83  1  0  0  0  0
 28 84  1  0  0  0  0
 29 31  2  0  0  0  0
 29 83  1  0  0  0  0
 30 85  1  0  0  0  0
 31 86  1  0  0  0  0
 32 67  2  0  0  0  0
 33 68  1  0  0  0  0
 33 71  1  0  0  0  0
 34 72  1  0  0  0  0
 34 77  2  0  0  0  0
 35 52  1  0  0  0  0
 35 57  1  0  0  0  0
 35 78  2  0  0  0  0
 36 53  1  0  0  0  0
 36 73  1  0  0  0  0
 36 79  2  0  0  0  0
 37 64  1  0  0  0  0
 37 69  1  0  0  0  0
 37 80  2  0  0  0  0
 38 65  1  0  0  0  0
 38 74  1  0  0  0  0
 38 81  2  0  0  0  0
 39 70  1  0  0  0  0
 39 75  1  0  0  0  0
 39 82  2  0  0  0  0
 40 43  1  0  0  0  0
 41 53  1  0  0  0  0
 42 69  1  0  0  0  0
 43 45  1  0  0  0  0
 44 46  1  0  0  0  0
 44 48  1  0  0  0  0
 45 51  1  0  0  0  0
 46 54  1  0  0  0  0
 47 52  1  0  0  0  0
 47 55  1  0  0  0  0
 48 70  1  0  0  0  0
 49 54  1  0  0  0  0
 49 70  1  0  0  0  0
 50 52  1  0  0  0  0
 50 55  1  0  0  0  0
 51 73  1  0  0  0  0
 53 69  1  0  0  0  0
 54 68  1  0  0  0  0
 55 75  1  0  0  0  0
 58 65  1  0  0  0  0
 59 66  1  0  0  0  0
 60 66  1  0  0  0  0
 61 66  1  0  0  0  0
 62 76  1  0  0  0  0
 63 84  1  0  0  0  0
 64 66  1  0  0  0  0
 64 74  1  0  0  0  0
 65 76  1  0  0  0  0
 67 68  1  0  0  0  0
M  CHG  1  76   1
M  ISO  4  39 100  63 101  75 100  84 101
M  END
> <Batch ID>
0141

> <Smiles>
CNC(C)C(=O)NC(C(=O)N1Cc2cc([101O:1][101CH2:1]c3ccc(C4C([100NH:0][100C:0](=O)N5CCCC(n6nc(-c7ccc(Oc8ccc(F)cc8F)cc7)c(C(N)=O)c6N)C5)CC4C(C)=O)c(C)c3)ccc2CC1C(=O)NC1CCCc2ccccc21)C(C)(C)C

> <Shape>
0.270

> <Color>
0.200

> <Negative vol penalty>
0.000

$$$$

  -OEChem-04052321163D

 82 91  0     1  0  0  0  0  0999 V2000
  -18.2329  -32.8012   24.1751 C   0  0  0  0  0  0  0  0  0  0  0  0
  -19.5009  -33.0116   23.6428 C   0  0  0  0  0  0  0  0  0  0  0  0
  -24.3557  -14.6806   19.4314 C   0  0  0  0  0  0  0  0  0  0  0  0
  -26.5917  -14.9808   20.2961 C   0  0  0  0  0  0  0  0  0  0  0  0
  -17.8822  -31.5424   24.6610 C   0  0  0  0  0  0  0  0  0  0  0  0
  -20.4193  -31.9633   23.5972 C   0  0  0  0  0  0  0  0  0  0  0  0
  -25.8037  -29.4280   19.6100 C   0  0  0  0  0  0  0  0  0  0  0  0
  -29.7619  -25.5438   17.3399 C   0  0  0  0  0  0  0  0  0  0  0  0
  -29.3404  -24.3102   16.8068 C   0  0  0  0  0  0  0  0  0  0  0  0
  -24.4395  -13.3125   19.6896 C   0  0  0  0  0  0  0  0  0  0  0  0
  -26.6755  -13.6126   20.5543 C   0  0  0  0  0  0  0  0  0  0  0  0
  -27.1307  -29.0171   19.7282 C   0  0  0  0  0  0  0  0  0  0  0  0
  -24.1652  -11.2606   22.3631 C   0  0  0  0  0  0  0  0  0  0  0  0
  -23.0701  -10.6475   22.9717 C   0  0  0  0  0  0  0  0  0  0  0  0
  -26.3871  -26.8648   20.5243 C   0  0  0  0  0  0  0  0  0  0  0  0
  -22.8317   -9.1816   21.0661 C   0  0  0  0  0  0  0  0  0  0  0  0
  -25.4318  -15.5148   19.7346 C   0  0  0  0  0  0  0  0  0  0  0  0
  -24.8756  -17.9305   20.3370 C   0  0  0  0  0  0  0  0  0  0  0  0
  -18.7934  -30.4757   24.6125 C   0  0  0  0  0  0  0  0  0  0  0  0
  -24.7569  -28.5626   19.9590 C   0  0  0  0  0  0  0  0  0  0  0  0
  -20.0809  -30.6893   24.0842 C   0  0  0  0  0  0  0  0  0  0  0  0
  -25.0476  -27.2662   20.4072 C   0  0  0  0  0  0  0  0  0  0  0  0
  -30.5285  -24.4244   19.2788 C   0  0  0  0  0  0  0  0  0  0  0  0
  -30.1172  -23.2209   18.7587 C   0  0  0  0  0  0  0  0  0  0  0  0
  -30.3671  -25.6078   18.5977 C   0  0  0  0  0  0  0  0  0  0  0  0
  -29.5186  -23.1248   17.5246 C   0  0  0  0  0  0  0  0  0  0  0  0
  -25.5994  -12.7784   20.2510 C   0  0  0  0  0  0  0  0  0  0  0  0
  -27.4227  -27.7363   20.1882 C   0  0  0  0  0  0  0  0  0  0  0  0
  -24.5935  -10.8343   21.1059 C   0  0  0  0  0  0  0  0  0  0  0  0
  -22.4034   -9.6080   22.3233 C   0  0  0  0  0  0  0  0  0  0  0  0
  -23.9268   -9.7947   20.4575 C   0  0  0  0  0  0  0  0  0  0  0  0
  -25.3461  -16.9281   19.4676 C   0  0  0  0  0  0  0  0  0  0  0  0
  -24.9984  -19.0941   19.6178 C   0  0  0  0  0  0  0  0  0  0  0  0
  -24.3725  -17.8196   21.6750 C   0  0  0  0  0  0  0  0  0  0  0  0
  -22.4275  -28.6174   22.1212 C   0  0  0  0  0  0  0  0  0  0  0  0
  -21.4708  -25.9237   20.5879 C   0  0  0  0  0  0  0  0  0  0  0  0
  -22.3011  -23.2534   18.6317 C   0  0  0  0  0  0  0  0  0  0  0  0
  -28.4843  -21.6345   15.7765 C   0  0  0  0  0  0  0  0  0  0  0  0
  -18.3850  -29.1450   25.1932 C   0  0  0  0  0  0  0  0  0  0  0  0
  -23.3302  -29.0117   19.8004 C   0  0  0  0  0  0  0  0  0  0  0  0
  -31.0449  -23.8097   20.5456 C   0  0  0  0  0  0  0  0  0  0  0  0
  -30.5771  -22.4386   19.9528 C   0  0  0  0  0  0  0  0  0  0  0  0
  -23.9597  -26.2919   20.7755 C   0  0  0  0  0  0  0  0  0  0  0  0
  -19.2878  -27.9908   24.7653 C   0  0  0  0  0  0  0  0  0  0  0  0
  -25.3749  -20.1952   14.8085 C   0  0  0  0  0  0  0  0  0  0  0  0
  -20.7558  -28.3824   24.9018 C   0  0  0  0  0  0  0  0  0  0  0  0
  -25.0030  -19.3036   15.9954 C   0  0  0  0  0  0  0  0  0  0  0  0
  -26.8797  -20.1907   14.5454 C   0  0  0  0  0  0  0  0  0  0  0  0
  -27.3426  -19.6203   16.8969 C   0  0  0  0  0  0  0  0  0  0  0  0
  -21.0964  -29.5709   23.9946 C   0  0  1  0  0  0  0  0  0  0  0  0
  -22.3559  -28.2257   20.6723 C   0  0  1  0  0  0  0  0  0  0  0  0
  -25.8444  -19.6437   17.2411 C   0  0  2  0  0  0  0  0  0  0  0  0
  -31.9182  -27.5705   18.3266 C   0  0  0  0  0  0  0  0  0  0  0  0
  -21.3136  -21.2023   17.5757 C   0  0  0  0  0  0  0  0  0  0  0  0
  -21.4736  -24.5283   23.3013 C   0  0  0  0  0  0  0  0  0  0  0  0
  -21.4219  -22.3348   22.0953 C   0  0  0  0  0  0  0  0  0  0  0  0
  -19.5362  -23.9463   21.8310 C   0  0  0  0  0  0  0  0  0  0  0  0
  -22.9556  -24.2006   15.9052 C   0  0  0  0  0  0  0  0  0  0  0  0
  -29.6598  -27.9041   19.3987 C   0  0  0  0  0  0  0  0  0  1  0  0
  -30.8276  -26.9304   19.1901 C   0  0  1  0  0  0  0  0  0  0  0  0
  -21.7590  -24.4493   20.7365 C   0  0  1  0  0  0  0  0  0  0  0  0
  -21.6496  -22.6737   17.3891 C   0  0  2  0  0  0  0  0  0  0  0  0
  -21.0685  -23.8335   21.9860 C   0  0  0  0  0  0  0  0  0  0  0  0
  -25.7384  -17.4126   18.2864 N   0  0  0  0  0  0  0  0  0  0  0  0
  -25.5146  -18.7321   18.4083 N   0  0  0  0  0  0  0  0  0  0  0  0
  -22.5807  -26.7801   20.6093 N   0  0  0  0  0  0  0  0  0  0  0  0
  -27.6121  -20.5255   15.7687 N   0  0  0  0  0  0  0  0  0  0  0  0
  -24.7141  -20.3815   19.9082 N   0  0  0  0  0  0  0  0  0  0  0  0
  -24.3145  -16.5491   22.2639 N   0  0  0  0  0  0  0  0  0  0  0  0
  -29.1002  -21.8749   17.0043 N   0  0  0  0  0  0  0  0  0  0  0  0
  -21.2480  -29.1329   22.6236 N   0  0  0  0  0  0  0  0  0  0  0  0
  -21.3732  -23.8287   19.4738 N   0  0  0  0  0  0  0  0  0  0  0  0
  -22.5619  -22.8026   16.2178 N   0  3  0  0  0  0  0  0  0  0  0  0
  -23.9706  -18.8155   22.3231 O   0  0  0  0  0  0  0  0  0  0  0  0
  -23.4750  -28.4620   22.7380 O   0  0  0  0  0  0  0  0  0  0  0  0
  -20.3044  -26.3010   20.4505 O   0  0  0  0  0  0  0  0  0  0  0  0
  -23.5117  -23.1979   18.8366 O   0  0  0  0  0  0  0  0  0  0  0  0
  -28.6504  -22.3366   14.7758 O   0  0  0  0  0  0  0  0  0  0  0  0
  -25.6814  -11.4434   20.5033 O   0  0  0  0  0  0  0  0  0  0  0  0
  -28.7171  -27.3330   20.3051 O   0  0  0  0  0  0  0  0  0  1  0  0
  -21.3527   -9.0183   22.9085 F   0  0  0  0  0  0  0  0  0  0  0  0
  -24.3344   -9.3800   19.2501 F   0  0  0  0  0  0  0  0  0  0  0  0
  1  2  1  0  0  0  0
  1  5  2  0  0  0  0
  2  6  2  0  0  0  0
  3 10  2  0  0  0  0
  3 17  1  0  0  0  0
  4 11  1  0  0  0  0
  4 17  2  0  0  0  0
  5 19  1  0  0  0  0
  6 21  1  0  0  0  0
  7 12  2  0  0  0  0
  7 20  1  0  0  0  0
  8  9  2  0  0  0  0
  8 25  1  0  0  0  0
  9 26  1  0  0  0  0
 10 27  1  0  0  0  0
 11 27  2  0  0  0  0
 12 28  1  0  0  0  0
 13 14  2  0  0  0  0
 13 29  1  0  0  0  0
 14 30  1  0  0  0  0
 15 22  1  0  0  0  0
 15 28  2  0  0  0  0
 16 30  2  0  0  0  0
 16 31  1  0  0  0  0
 17 32  1  0  0  0  0
 18 32  1  0  0  0  0
 18 33  2  0  0  0  0
 18 34  1  0  0  0  0
 19 21  2  0  0  0  0
 19 39  1  0  0  0  0
 20 22  2  0  0  0  0
 20 40  1  0  0  0  0
 21 50  1  0  0  0  0
 22 43  1  0  0  0  0
 23 24  1  0  0  0  0
 23 25  2  0  0  0  0
 23 41  1  0  0  0  0
 24 26  2  0  0  0  0
 24 42  1  0  0  0  0
 25 60  1  0  0  0  0
 26 70  1  0  0  0  0
 27 79  1  0  0  0  0
 28 80  1  0  0  0  0
 29 31  2  0  0  0  0
 29 79  1  0  0  0  0
 30 81  1  0  0  0  0
 31 82  1  0  0  0  0
 32 64  2  0  0  0  0
 33 65  1  0  0  0  0
 33 68  1  0  0  0  0
 34 69  1  0  0  0  0
 34 74  2  0  0  0  0
 35 51  1  0  0  0  0
 35 71  1  0  0  0  0
 35 75  2  0  0  0  0
 36 61  1  0  0  0  0
 36 66  1  0  0  0  0
 36 76  2  0  0  0  0
 37 62  1  0  0  0  0
 37 72  1  0  0  0  0
 37 77  2  0  0  0  0
 38 67  1  0  0  0  0
 38 70  1  0  0  0  0
 38 78  2  0  0  0  0
 39 44  1  0  0  0  0
 40 51  1  0  0  0  0
 41 42  1  0  0  0  0
 43 66  1  0  0  0  0
 44 46  1  0  0  0  0
 45 47  1  0  0  0  0
 45 48  1  0  0  0  0
 46 50  1  0  0  0  0
 47 52  1  0  0  0  0
 48 67  1  0  0  0  0
 49 52  1  0  0  0  0
 49 67  1  0  0  0  0
 50 71  1  0  0  0  0
 51 66  1  0  0  0  0
 52 65  1  0  0  0  0
 53 60  1  0  0  0  0
 54 62  1  0  0  0  0
 55 63  1  0  0  0  0
 56 63  1  0  0  0  0
 57 63  1  0  0  0  0
 58 73  1  0  0  0  0
 59 60  1  0  0  0  0
 59 80  1  0  0  0  0
 61 63  1  0  0  0  0
 61 72  1  0  0  0  0
 62 73  1  0  0  0  0
 64 65  1  0  0  0  0
M  CHG  1  73   1
M  ISO  4  38 100  59 101  70 100  80 101
M  END
> <Batch ID>
0141

> <Smiles>
CNC(C)C(=O)NC(C(=O)N1Cc2cc([101O:1][101CH2:1]C(C)c3ccc([100NH:0][100C:0](=O)N4CCCC(n5nc(-c6ccc(Oc7ccc(F)cc7F)cc6)c(C(N)=O)c5N)C4)c4c3CC4)ccc2CC1C(=O)NC1CCCc2ccccc21)C(C)(C)C

> <Shape>
0.207

> <Color>
0.083

> <Negative vol penalty>
0.000

$$$$

  -OEChem-04052321163D

 85 94  0     1  0  0  0  0  0999 V2000
  -30.2284  -24.5155   19.4762 C   0  0  0  0  0  0  0  0  0  0  0  0
  -29.1017  -24.9481   20.1683 C   0  0  0  0  0  0  0  0  0  0  0  0
  -22.5286  -10.4234   22.0867 C   0  0  0  0  0  0  0  0  0  0  0  0
  -23.0061   -9.9376   19.7687 C   0  0  0  0  0  0  0  0  0  0  0  0
  -31.4919  -24.9721   19.8488 C   0  0  0  0  0  0  0  0  0  0  0  0
  -29.2382  -25.8368   21.2341 C   0  0  0  0  0  0  0  0  0  0  0  0
  -25.8333  -29.5826   21.0884 C   0  0  0  0  0  0  0  0  0  0  0  0
  -22.1182   -9.1042   22.2787 C   0  0  0  0  0  0  0  0  0  0  0  0
  -22.5958   -8.6184   19.9607 C   0  0  0  0  0  0  0  0  0  0  0  0
  -24.5393  -29.2837   21.5126 C   0  0  0  0  0  0  0  0  0  0  0  0
  -23.5706   -6.0863   22.7434 C   0  0  0  0  0  0  0  0  0  0  0  0
  -24.0257   -5.4254   23.8843 C   0  0  0  0  0  0  0  0  0  0  0  0
  -25.0131  -30.2956   23.6506 C   0  0  0  0  0  0  0  0  0  0  0  0
  -21.0675  -27.9455   22.4534 C   0  0  0  0  0  0  0  0  0  0  0  0
  -23.1595  -26.9756   23.1745 C   0  0  0  0  0  0  0  0  0  0  0  0
  -21.7435   -5.1087   24.6111 C   0  0  0  0  0  0  0  0  0  0  0  0
  -22.9725  -10.8402   20.8317 C   0  0  0  0  0  0  0  0  0  0  0  0
  -24.6951  -12.7212   20.7914 C   0  0  0  0  0  0  0  0  0  0  0  0
  -31.6430  -25.8743   20.9136 C   0  0  0  0  0  0  0  0  0  0  0  0
  -26.7319  -30.2316   21.9473 C   0  0  0  0  0  0  0  0  0  0  0  0
  -30.5051  -26.3049   21.6222 C   0  0  0  0  0  0  0  0  0  0  0  0
  -26.3171  -30.6039   23.2339 C   0  0  0  0  0  0  0  0  0  0  0  0
  -20.5713  -26.6711   22.1789 C   0  0  0  0  0  0  0  0  0  0  0  0
  -22.6633  -25.7012   22.9000 C   0  0  0  0  0  0  0  0  0  0  0  0
  -21.3692  -25.5489   22.4022 C   0  0  0  0  0  0  0  0  0  0  0  0
  -22.1519   -8.2017   21.2157 C   0  0  0  0  0  0  0  0  0  0  0  0
  -24.1299  -29.6376   22.7949 C   0  0  0  0  0  0  0  0  0  0  0  0
  -22.2020   -6.2585   22.5363 C   0  0  0  0  0  0  0  0  0  0  0  0
  -22.3616  -28.0977   22.9512 C   0  0  0  0  0  0  0  0  0  1  0  0
  -23.1121   -4.9366   24.8181 C   0  0  0  0  0  0  0  0  0  0  0  0
  -21.2884   -5.7697   23.4702 C   0  0  0  0  0  0  0  0  0  0  0  0
  -23.3959  -12.2029   20.6326 C   0  0  0  0  0  0  0  0  0  0  0  0
  -24.5726  -14.0547   20.4859 C   0  0  0  0  0  0  0  0  0  0  0  0
  -25.9046  -12.0567   21.1803 C   0  0  0  0  0  0  0  0  0  0  0  0
  -29.5375  -29.4827   23.2402 C   0  0  0  0  0  0  0  0  0  0  0  0
  -29.4363  -32.5525   24.2834 C   0  0  0  0  0  0  0  0  0  0  0  0
  -27.5474  -35.2803   25.0819 C   0  0  0  0  0  0  0  0  0  0  0  0
  -21.6637  -18.7649   21.2887 C   0  0  0  0  0  0  0  0  0  0  0  0
  -33.0336  -26.3033   21.3099 C   0  0  0  0  0  0  0  0  0  0  0  0
  -28.1157  -30.5708   21.4652 C   0  0  0  0  0  0  0  0  0  0  0  0
  -27.2369  -31.3202   24.1875 C   0  0  0  0  0  0  0  0  0  0  0  0
  -33.0574  -27.5351   22.2111 C   0  0  0  0  0  0  0  0  0  0  0  0
  -20.7520  -16.6248   18.4000 C   0  0  0  0  0  0  0  0  0  0  0  0
  -32.0319  -27.3966   23.3318 C   0  0  0  0  0  0  0  0  0  0  0  0
  -21.4407  -15.3106   18.7710 C   0  0  0  0  0  0  0  0  0  0  0  0
  -21.4326  -21.7687   19.1826 C   0  0  0  0  0  0  0  0  0  0  0  0
  -20.3213  -17.3854   19.6474 C   0  0  0  0  0  0  0  0  0  0  0  0
  -21.1596  -20.2707   19.2755 C   0  0  0  0  0  0  0  0  0  0  0  0
  -22.1201  -16.3583   20.9840 C   0  0  0  0  0  0  0  0  0  0  0  0
  -21.2502  -21.2009   21.4904 C   0  0  0  0  0  0  0  0  0  0  0  0
  -30.6100  -27.2878   22.7680 C   0  0  1  0  0  0  0  0  0  0  0  0
  -29.1115  -30.7750   22.6028 C   0  0  1  0  0  0  0  0  0  0  0  0
  -22.5928  -15.5469   19.7646 C   0  0  1  0  0  0  0  0  0  0  0  0
  -20.8471  -22.2720   20.4935 C   0  0  1  0  0  0  0  0  0  0  0  0
  -19.1825  -26.5351   21.6463 C   0  0  0  0  0  0  0  0  0  0  0  0
  -23.5381  -24.5162   23.1482 C   0  0  0  0  0  0  0  0  0  0  0  0
  -27.7445  -37.6297   25.9415 C   0  0  0  0  0  0  0  0  0  0  0  0
  -29.9137  -31.4796   27.0995 C   0  0  0  0  0  0  0  0  0  0  0  0
  -29.1626  -33.6936   27.9952 C   0  0  0  0  0  0  0  0  0  0  0  0
  -31.1881  -33.5588   26.5454 C   0  0  0  0  0  0  0  0  0  0  0  0
  -26.3578  -36.4055   22.6166 C   0  0  0  0  0  0  0  0  0  0  0  0
  -20.8352  -24.1782   22.1074 C   0  0  0  0  0  0  0  0  0  0  0  0
  -28.9017  -33.2469   25.5126 C   0  0  1  0  0  0  0  0  0  0  0  0
  -27.6835  -36.7448   24.7062 C   0  0  2  0  0  0  0  0  0  0  0  0
  -29.7746  -32.9795   26.7711 C   0  0  0  0  0  0  0  0  0  0  0  0
  -22.5129  -13.1314   20.2556 N   0  0  0  0  0  0  0  0  0  0  0  0
  -23.2585  -14.2466   20.1751 N   0  0  0  0  0  0  0  0  0  0  0  0
  -28.5820  -31.6241   23.6718 N   0  0  0  0  0  0  0  0  0  0  0  0
  -21.4499  -17.5895   20.5598 N   0  0  0  0  0  0  0  0  0  0  0  0
  -21.2635  -19.9668   20.7066 N   0  0  0  0  0  0  0  0  0  0  0  0
  -25.4617  -15.0700   20.4555 N   0  0  0  0  0  0  0  0  0  0  0  0
  -25.8531  -10.6840   21.4582 N   0  0  0  0  0  0  0  0  0  0  0  0
  -30.1253  -28.5902   22.3642 N   0  0  0  0  0  0  0  0  0  0  0  0
  -28.7749  -34.6574   25.1620 N   0  0  0  0  0  0  0  0  0  0  0  0
  -21.4014  -23.5858   20.8592 N   0  3  0  0  0  0  0  0  0  0  0  0
  -26.5238  -37.1764   23.8757 N   0  3  0  0  0  0  0  0  0  0  0  0
  -26.9954  -12.6657   21.2944 O   0  0  0  0  0  0  0  0  0  0  0  0
  -29.3483  -29.3088   24.4384 O   0  0  0  0  0  0  0  0  0  0  0  0
  -30.5675  -32.8291   23.8765 O   0  0  0  0  0  0  0  0  0  0  0  0
  -26.4610  -34.7436   25.2878 O   0  0  0  0  0  0  0  0  0  0  0  0
  -22.2310  -18.7468   22.3890 O   0  0  0  0  0  0  0  0  0  0  0  0
  -21.7518   -6.9142   21.4027 O   0  0  0  0  0  0  0  0  0  0  0  0
  -22.8454  -29.3413   23.2191 O   0  0  0  0  0  0  0  0  0  1  0  0
  -23.5492   -4.3006   25.9129 F   0  0  0  0  0  0  0  0  0  0  0  0
  -19.9723   -5.9311   23.2761 F   0  0  0  0  0  0  0  0  0  0  0  0
  1  2  1  0  0  0  0
  1  5  2  0  0  0  0
  2  6  2  0  0  0  0
  3  8  2  0  0  0  0
  3 17  1  0  0  0  0
  4  9  1  0  0  0  0
  4 17  2  0  0  0  0
  5 19  1  0  0  0  0
  6 21  1  0  0  0  0
  7 10  2  0  0  0  0
  7 20  1  0  0  0  0
  8 26  1  0  0  0  0
  9 26  2  0  0  0  0
 10 27  1  0  0  0  0
 11 12  2  0  0  0  0
 11 28  1  0  0  0  0
 12 30  1  0  0  0  0
 13 22  1  0  0  0  0
 13 27  2  0  0  0  0
 14 23  2  0  0  0  0
 14 29  1  0  0  0  0
 15 24  1  0  0  0  0
 15 29  2  0  0  0  0
 16 30  2  0  0  0  0
 16 31  1  0  0  0  0
 17 32  1  0  0  0  0
 18 32  1  0  0  0  0
 18 33  2  0  0  0  0
 18 34  1  0  0  0  0
 19 21  2  0  0  0  0
 19 39  1  0  0  0  0
 20 22  2  0  0  0  0
 20 40  1  0  0  0  0
 21 51  1  0  0  0  0
 22 41  1  0  0  0  0
 23 25  1  0  0  0  0
 23 55  1  0  0  0  0
 24 25  2  0  0  0  0
 24 56  1  0  0  0  0
 25 62  1  0  0  0  0
 26 82  1  0  0  0  0
 27 83  1  0  0  0  0
 28 31  2  0  0  0  0
 28 82  1  0  0  0  0
 29 83  1  0  0  0  0
 30 84  1  0  0  0  0
 31 85  1  0  0  0  0
 32 66  2  0  0  0  0
 33 67  1  0  0  0  0
 33 71  1  0  0  0  0
 34 72  1  0  0  0  0
 34 77  2  0  0  0  0
 35 52  1  0  0  0  0
 35 73  1  0  0  0  0
 35 78  2  0  0  0  0
 36 63  1  0  0  0  0
 36 68  1  0  0  0  0
 36 79  2  0  0  0  0
 37 64  1  0  0  0  0
 37 74  1  0  0  0  0
 37 80  2  0  0  0  0
 38 69  1  0  0  0  0
 38 70  1  0  0  0  0
 38 81  2  0  0  0  0
 39 42  1  0  0  0  0
 40 52  1  0  0  0  0
 41 68  1  0  0  0  0
 42 44  1  0  0  0  0
 43 45  1  0  0  0  0
 43 47  1  0  0  0  0
 44 51  1  0  0  0  0
 45 53  1  0  0  0  0
 46 48  1  0  0  0  0
 46 54  1  0  0  0  0
 47 69  1  0  0  0  0
 48 70  1  0  0  0  0
 49 53  1  0  0  0  0
 49 69  1  0  0  0  0
 50 54  1  0  0  0  0
 50 70  1  0  0  0  0
 51 73  1  0  0  0  0
 52 68  1  0  0  0  0
 53 67  1  0  0  0  0
 54 75  1  0  0  0  0
 57 64  1  0  0  0  0
 58 65  1  0  0  0  0
 59 65  1  0  0  0  0
 60 65  1  0  0  0  0
 61 76  1  0  0  0  0
 62 75  1  0  0  0  0
 63 65  1  0  0  0  0
 63 74  1  0  0  0  0
 64 76  1  0  0  0  0
 66 67  1  0  0  0  0
M  CHG  2  75   1  76   1
M  ISO  4  29 101  38 100  70 100  83 101
M  END
> <Batch ID>
0141

> <Smiles>
CNC(C)C(=O)NC(C(=O)N1Cc2cc([101O:1][101c:1]3cc(C)c(CNC4CC[100N:0]([100C:0](=O)N5CCCC(n6nc(-c7ccc(Oc8ccc(F)cc8F)cc7)c(C(N)=O)c6N)C5)C4)c(C)c3)ccc2CC1C(=O)NC1CCCc2ccccc21)C(C)(C)C

> <Shape>
0.245

> <Color>
0.135

> <Negative vol penalty>
0.000

$$$$

  -OEChem-04052321163D

 92103  0     1  0  0  0  0  0999 V2000
  -26.2313  -34.2565   25.8979 C   0  0  0  0  0  0  0  0  0  0  0  0
  -26.8108  -33.1204   25.3421 C   0  0  0  0  0  0  0  0  0  0  0  0
  -24.6528   -8.8048   21.4349 C   0  0  0  0  0  0  0  0  0  0  0  0
  -23.0803  -10.6276   21.2300 C   0  0  0  0  0  0  0  0  0  0  0  0
  -24.8565  -34.2956   26.1265 C   0  0  0  0  0  0  0  0  0  0  0  0
  -26.0158  -32.0223   25.0155 C   0  0  0  0  0  0  0  0  0  0  0  0
  -26.7858  -28.1927   20.2988 C   0  0  0  0  0  0  0  0  0  0  0  0
  -23.8388   -8.2110   22.3994 C   0  0  0  0  0  0  0  0  0  0  0  0
  -22.2663  -10.0338   22.1945 C   0  0  0  0  0  0  0  0  0  0  0  0
  -27.3664  -26.9289   20.2018 C   0  0  0  0  0  0  0  0  0  0  0  0
  -21.9979   -6.0331   24.6540 C   0  0  0  0  0  0  0  0  0  0  0  0
  -21.7650   -4.6617   24.5510 C   0  0  0  0  0  0  0  0  0  0  0  0
  -31.5642  -19.8314   23.7866 C   0  0  0  0  0  0  0  0  0  0  0  0
  -29.4628  -18.7671   24.3233 C   0  0  0  0  0  0  0  0  0  0  0  0
  -25.1885  -25.9174   20.4323 C   0  0  0  0  0  0  0  0  0  0  0  0
  -30.5369  -20.2042   25.9413 C   0  0  0  0  0  0  0  0  0  0  0  0
  -20.7728   -4.9939   22.3733 C   0  0  0  0  0  0  0  0  0  0  0  0
  -24.2736  -10.0132   20.8502 C   0  0  0  0  0  0  0  0  0  0  0  0
  -25.0658  -10.4292   18.4613 C   0  0  0  0  0  0  0  0  0  0  0  0
  -24.0429  -33.2011   25.7936 C   0  0  0  0  0  0  0  0  0  0  0  0
  -25.4012  -28.3284   20.4745 C   0  0  0  0  0  0  0  0  0  0  0  0
  -24.6290  -32.0463   25.2411 C   0  0  0  0  0  0  0  0  0  0  0  0
  -30.5057  -18.9976   23.4262 C   0  0  0  0  0  0  0  0  0  0  0  0
  -24.5926  -27.1841   20.5287 C   0  0  0  0  0  0  0  0  0  0  0  0
  -31.5798  -20.4347   25.0442 C   0  0  0  0  0  0  0  0  0  0  0  0
  -29.4784  -19.3704   25.5809 C   0  0  0  0  0  0  0  0  0  0  0  0
  -22.6455   -8.8254   22.7792 C   0  0  0  0  0  0  0  0  0  0  0  0
  -26.5681  -25.7909   20.2715 C   0  0  0  0  0  0  0  0  0  0  0  0
  -21.6182   -6.8850   23.6167 C   0  0  0  0  0  0  0  0  0  0  0  0
  -21.1525   -4.1421   23.4106 C   0  0  0  0  0  0  0  0  0  0  0  0
  -21.0057   -6.3653   22.4764 C   0  0  0  0  0  0  0  0  0  0  0  0
  -25.1143  -10.6274   19.8542 C   0  0  0  0  0  0  0  0  0  0  0  0
  -26.0621  -11.2340   17.9651 C   0  0  0  0  0  0  0  0  0  0  0  0
  -24.1978   -9.5926   17.6853 C   0  0  0  0  0  0  0  0  0  0  0  0
  -23.5370  -29.5599   22.7354 C   0  0  0  0  0  0  0  0  0  0  0  0
  -21.1823  -28.9144   20.5997 C   0  0  0  0  0  0  0  0  0  0  0  0
  -20.1153  -27.0718   17.9326 C   0  0  0  0  0  0  0  0  0  0  0  0
  -28.4942  -16.1777   20.1652 C   0  0  0  0  0  0  0  0  0  0  0  0
  -22.5685  -33.2720   26.1030 C   0  0  0  0  0  0  0  0  0  0  0  0
  -24.7872  -29.6994   20.5505 C   0  0  0  0  0  0  0  0  0  0  0  0
  -23.0986  -27.2761   20.6962 C   0  0  0  0  0  0  0  0  0  0  0  0
  -21.7431  -32.2091   25.3822 C   0  0  0  0  0  0  0  0  0  0  0  0
  -30.2674  -13.1525   19.1125 C   0  0  0  0  0  0  0  0  0  0  0  0
  -22.4093  -30.8423   25.5041 C   0  0  0  0  0  0  0  0  0  0  0  0
  -28.3734  -22.4349   17.2558 C   0  0  0  0  0  0  0  0  0  0  0  0
  -29.7523  -22.4783   16.6585 C   0  0  0  0  0  0  0  0  0  0  0  0
  -29.1366  -12.1291   19.1229 C   0  0  0  0  0  0  0  0  0  0  0  0
  -27.0484  -21.0679   21.6153 C   0  0  0  0  0  0  0  0  0  0  0  0
  -30.1045  -14.2117   20.2031 C   0  0  0  0  0  0  0  0  0  0  0  0
  -30.3061  -16.7786   21.9077 C   0  0  0  0  0  0  0  0  0  0  0  0
  -27.6451  -13.8551   20.1899 C   0  0  0  0  0  0  0  0  0  0  0  0
  -30.4888  -18.3111   21.9938 C   0  0  1  0  0  0  0  0  0  0  0  0
  -23.7965  -30.8445   24.8505 C   0  0  1  0  0  0  0  0  0  0  0  0
  -23.4284  -29.7079   21.2441 C   0  0  1  0  0  0  0  0  0  0  0  0
  -29.4283  -21.4735   17.7291 C   0  0  0  0  0  0  0  0  0  0  0  0
  -27.4897  -22.4668   21.2734 C   0  0  1  0  0  0  0  0  0  0  0  0
  -27.8193  -21.3249   20.3471 C   0  0  1  0  0  0  0  0  0  0  0  0
  -27.7735  -12.8334   19.0517 C   0  0  2  0  0  0  0  0  0  0  0  0
  -29.2164  -18.4321   21.1150 C   0  0  1  0  0  0  0  0  0  0  0  0
  -32.7119  -21.3257   25.4296 C   0  0  0  0  0  0  0  0  0  0  0  0
  -28.3634  -19.1234   26.5400 C   0  0  0  0  0  0  0  0  0  0  0  0
  -18.1305  -26.7441   16.4325 C   0  0  0  0  0  0  0  0  0  0  0  0
  -19.7601  -27.3802   22.8208 C   0  0  0  0  0  0  0  0  0  0  0  0
  -18.3269  -26.3103   21.0688 C   0  0  0  0  0  0  0  0  0  0  0  0
  -18.2585  -28.7825   21.3948 C   0  0  0  0  0  0  0  0  0  0  0  0
  -21.6594  -27.8415   15.5280 C   0  0  0  0  0  0  0  0  0  0  0  0
  -30.0279  -21.6168   19.1211 C   0  0  0  0  0  0  0  0  0  0  0  0
  -26.4859  -23.4906   20.8695 C   0  0  0  0  0  0  0  0  0  1  0  0
  -29.3245  -19.3251   19.8955 C   0  0  0  0  0  0  0  0  0  0  0  0
  -20.2896  -27.7300   20.3182 C   0  0  1  0  0  0  0  0  0  0  0  0
  -19.4481  -27.4771   16.6307 C   0  0  2  0  0  0  0  0  0  0  0  0
  -29.2651  -20.8370   20.2127 C   0  0  2  0  0  0  0  0  0  0  0  0
  -19.1871  -27.5486   21.3994 C   0  0  0  0  0  0  0  0  0  0  0  0
  -26.0662  -11.4903   20.2194 N   0  0  0  0  0  0  0  0  0  0  0  0
  -26.6251  -11.8414   19.0488 N   0  0  0  0  0  0  0  0  0  0  0  0
  -22.5462  -28.6387   20.7721 N   0  0  0  0  0  0  0  0  0  0  0  0
  -28.7627  -14.8043   20.1977 N   0  0  0  0  0  0  0  0  0  0  0  0
  -29.4067  -17.0161   20.7814 N   0  0  0  0  0  0  0  0  0  0  0  0
  -26.5028  -11.4743   16.7119 N   0  0  0  0  0  0  0  0  0  0  0  0
  -23.2296   -8.8316   18.3544 N   0  0  0  0  0  0  0  0  0  0  0  0
  -23.6769  -30.7573   23.4108 N   0  0  0  0  0  0  0  0  0  0  0  0
  -19.7752  -27.9189   18.9661 N   0  0  0  0  0  0  0  0  0  0  0  0
  -20.3366  -27.1674   15.4750 N   0  3  0  0  0  0  0  0  0  0  0  0
  -24.2891   -9.5094   16.4370 O   0  0  0  0  0  0  0  0  0  0  0  0
  -23.4954  -28.4423   23.2363 O   0  0  0  0  0  0  0  0  0  0  0  0
  -20.6889  -30.0435   20.6572 O   0  0  0  0  0  0  0  0  0  0  0  0
  -20.8605  -26.0989   18.0245 O   0  0  0  0  0  0  0  0  0  0  0  0
  -27.4740  -16.6367   19.6370 O   0  0  0  0  0  0  0  0  0  0  0  0
  -21.8508   -8.2461   23.7202 O   0  0  0  0  0  0  0  0  0  0  0  0
  -27.1365  -24.5470   20.1770 O   0  0  0  0  0  0  0  0  0  1  0  0
  -20.9303   -2.8250   23.3111 F   0  0  0  0  0  0  0  0  0  0  0  0
  -20.6397   -7.1785   21.4761 F   0  0  0  0  0  0  0  0  0  0  0  0
  1  2  1  0  0  0  0
  1  5  2  0  0  0  0
  2  6  2  0  0  0  0
  3  8  2  0  0  0  0
  3 18  1  0  0  0  0
  4  9  1  0  0  0  0
  4 18  2  0  0  0  0
  5 20  1  0  0  0  0
  6 22  1  0  0  0  0
  7 10  2  0  0  0  0
  7 21  1  0  0  0  0
  8 27  1  0  0  0  0
  9 27  2  0  0  0  0
 10 28  1  0  0  0  0
 11 12  2  0  0  0  0
 11 29  1  0  0  0  0
 12 30  1  0  0  0  0
 13 23  1  0  0  0  0
 13 25  2  0  0  0  0
 14 23  2  0  0  0  0
 14 26  1  0  0  0  0
 15 24  1  0  0  0  0
 15 28  2  0  0  0  0
 16 25  1  0  0  0  0
 16 26  2  0  0  0  0
 17 30  2  0  0  0  0
 17 31  1  0  0  0  0
 18 32  1  0  0  0  0
 19 32  1  0  0  0  0
 19 33  2  0  0  0  0
 19 34  1  0  0  0  0
 20 22  2  0  0  0  0
 20 39  1  0  0  0  0
 21 24  2  0  0  0  0
 21 40  1  0  0  0  0
 22 53  1  0  0  0  0
 23 52  1  0  0  0  0
 24 41  1  0  0  0  0
 25 60  1  0  0  0  0
 26 61  1  0  0  0  0
 27 89  1  0  0  0  0
 28 90  1  0  0  0  0
 29 31  2  0  0  0  0
 29 89  1  0  0  0  0
 30 91  1  0  0  0  0
 31 92  1  0  0  0  0
 32 74  2  0  0  0  0
 33 75  1  0  0  0  0
 33 79  1  0  0  0  0
 34 80  1  0  0  0  0
 34 84  2  0  0  0  0
 35 54  1  0  0  0  0
 35 81  1  0  0  0  0
 35 85  2  0  0  0  0
 36 70  1  0  0  0  0
 36 76  1  0  0  0  0
 36 86  2  0  0  0  0
 37 71  1  0  0  0  0
 37 82  1  0  0  0  0
 37 87  2  0  0  0  0
 38 77  1  0  0  0  0
 38 78  1  0  0  0  0
 38 88  2  0  0  0  0
 39 42  1  0  0  0  0
 40 54  1  0  0  0  0
 41 76  1  0  0  0  0
 42 44  1  0  0  0  0
 43 47  1  0  0  0  0
 43 49  1  0  0  0  0
 44 53  1  0  0  0  0
 45 46  1  0  0  0  0
 45 55  1  0  0  0  0
 46 55  1  0  0  0  0
 47 58  1  0  0  0  0
 48 56  1  0  0  0  0
 48 57  1  0  0  0  0
 49 77  1  0  0  0  0
 50 52  1  0  0  0  0
 50 78  1  0  0  0  0
 51 58  1  0  0  0  0
 51 77  1  0  0  0  0
 52 59  1  0  0  0  0
 53 81  1  0  0  0  0
 54 76  1  0  0  0  0
 55 67  1  0  0  0  0
 56 57  1  0  0  0  0
 56 68  1  0  0  0  0
 57 72  1  0  0  0  0
 58 75  1  0  0  0  0
 59 69  1  0  0  0  0
 59 78  1  0  0  0  0
 62 71  1  0  0  0  0
 63 73  1  0  0  0  0
 64 73  1  0  0  0  0
 65 73  1  0  0  0  0
 66 83  1  0  0  0  0
 67 72  1  0  0  0  0
 68 90  1  0  0  0  0
 69 72  1  0  0  0  0
 70 73  1  0  0  0  0
 70 82  1  0  0  0  0
 71 83  1  0  0  0  0
 74 75  1  0  0  0  0
M  CHG  1  83   1
M  ISO  4  38 100  68 101  78 100  90 101
M  END
> <Batch ID>
0141

> <Smiles>
CNC(C)C(=O)NC(C(=O)N1Cc2cc([101O:1][101CH2:1]C3CC3C(CC3CC3)CC3C(c4cc(C)cc(C)c4)C[100N:0]3[100C:0](=O)N3CCCC(n4nc(-c5ccc(Oc6ccc(F)cc6F)cc5)c(C(N)=O)c4N)C3)ccc2CC1C(=O)NC1CCCc2ccccc21)C(C)(C)C

> <Shape>
0.300

> <Color>
0.080

> <Negative vol penalty>
0.000

$$$$

  -OEChem-04052321163D

 84 93  0     1  0  0  0  0  0999 V2000
  -23.0757   -7.8314   20.4928 C   0  0  0  0  0  0  0  0  0  0  0  0
  -22.3440   -8.7552   19.7533 C   0  0  0  0  0  0  0  0  0  0  0  0
  -28.2914  -25.9761   20.3655 C   0  0  0  0  0  0  0  0  0  0  0  0
  -26.9241  -25.3896   18.4620 C   0  0  0  0  0  0  0  0  0  0  0  0
  -23.7173   -8.2297   21.6648 C   0  0  0  0  0  0  0  0  0  0  0  0
  -22.2526  -10.0776   20.1861 C   0  0  0  0  0  0  0  0  0  0  0  0
  -21.7456  -16.7586   17.6517 C   0  0  0  0  0  0  0  0  0  0  0  0
  -29.1333  -24.8978   20.0931 C   0  0  0  0  0  0  0  0  0  0  0  0
  -27.7660  -24.3113   18.1895 C   0  0  0  0  0  0  0  0  0  0  0  0
  -20.9623  -17.9043   17.7843 C   0  0  0  0  0  0  0  0  0  0  0  0
  -31.8470  -22.5135   19.6860 C   0  0  0  0  0  0  0  0  0  0  0  0
  -33.2230  -22.7356   19.7389 C   0  0  0  0  0  0  0  0  0  0  0  0
  -22.1779  -18.4968   19.7820 C   0  0  0  0  0  0  0  0  0  0  0  0
  -18.6230  -24.5151   19.5769 C   0  0  0  0  0  0  0  0  0  0  0  0
  -33.0214  -24.3997   17.9990 C   0  0  0  0  0  0  0  0  0  0  0  0
  -16.8568  -25.3550   20.9304 C   0  0  0  0  0  0  0  0  0  0  0  0
  -16.9498  -23.1000   20.5011 C   0  0  0  0  0  0  0  0  0  0  0  0
  -27.1868  -26.2219   19.5500 C   0  0  0  0  0  0  0  0  0  0  0  0
  -26.4330  -28.6502   19.3422 C   0  0  0  0  0  0  0  0  0  0  0  0
  -23.6418   -9.5599   22.1070 C   0  0  0  0  0  0  0  0  0  0  0  0
  -22.7453  -16.4672   18.5909 C   0  0  0  0  0  0  0  0  0  0  0  0
  -22.8928  -10.4938   21.3658 C   0  0  0  0  0  0  0  0  0  0  0  0
  -22.9742  -17.3481   19.6576 C   0  0  0  0  0  0  0  0  0  0  0  0
  -17.9980  -25.5990   20.1834 C   0  0  0  0  0  0  0  0  0  0  0  0
  -18.0952  -23.2383   19.7338 C   0  0  0  0  0  0  0  0  0  0  0  0
  -28.8706  -24.0655   19.0051 C   0  0  0  0  0  0  0  0  0  0  0  0
  -21.1765  -18.7721   18.8512 C   0  0  0  0  0  0  0  0  0  0  0  0
  -31.0581  -23.2345   18.7895 C   0  0  0  0  0  0  0  0  0  0  0  0
  -33.8102  -23.6787   18.8954 C   0  0  0  0  0  0  0  0  0  0  0  0
  -31.6453  -24.1776   17.9461 C   0  0  0  0  0  0  0  0  0  0  0  0
  -26.3164  -27.3353   19.8313 C   0  0  0  0  0  0  0  0  0  0  0  0
  -25.3701  -29.3189   19.8985 C   0  0  0  0  0  0  0  0  0  0  0  0
  -27.4143  -29.2164   18.4634 C   0  0  0  0  0  0  0  0  0  0  0  0
  -23.2743  -14.0969   20.6416 C   0  0  0  0  0  0  0  0  0  0  0  0
  -26.0774  -15.6575   21.1205 C   0  0  0  0  0  0  0  0  0  0  0  0
  -27.8242  -18.5859   20.9776 C   0  0  0  0  0  0  0  0  0  0  0  0
  -20.0355  -27.5192   21.9365 C   0  0  0  0  0  0  0  0  0  0  0  0
  -24.3130   -9.9326   23.4051 C   0  0  0  0  0  0  0  0  0  0  0  0
  -23.5995  -15.2412   18.4188 C   0  0  0  0  0  0  0  0  0  0  0  0
  -24.0483  -17.0912   20.6817 C   0  0  0  0  0  0  0  0  0  0  0  0
  -24.4772  -11.4383   23.5956 C   0  0  0  0  0  0  0  0  0  0  0  0
  -22.5323  -29.2947   23.7504 C   0  0  0  0  0  0  0  0  0  0  0  0
  -23.1791  -12.1640   23.2563 C   0  0  0  0  0  0  0  0  0  0  0  0
  -17.3452  -28.0196   17.9515 C   0  0  0  0  0  0  0  0  0  0  0  0
  -18.5372  -28.8866   18.2467 C   0  0  0  0  0  0  0  0  0  0  0  0
  -23.7958  -29.1125   22.9075 C   0  0  0  0  0  0  0  0  0  0  0  0
  -21.6576  -28.0431   23.7339 C   0  0  0  0  0  0  0  0  0  0  0  0
  -22.5695  -27.3686   21.5459 C   0  0  0  0  0  0  0  0  0  0  0  0
  -22.7907  -11.9430   21.7894 C   0  0  1  0  0  0  0  0  0  0  0  0
  -24.2469  -14.7766   19.7197 C   0  0  1  0  0  0  0  0  0  0  0  0
  -18.5696  -27.4227   18.5882 C   0  0  0  0  0  0  0  0  0  0  0  0
  -23.4562  -28.6242   21.4864 C   0  0  2  0  0  0  0  0  0  0  0  0
  -30.0850  -19.5571   21.4707 C   0  0  0  0  0  0  0  0  0  0  0  0
  -25.4272  -15.6515   24.1017 C   0  0  0  0  0  0  0  0  0  0  0  0
  -27.1774  -17.4140   24.4159 C   0  0  0  0  0  0  0  0  0  0  0  0
  -27.8179  -15.1623   23.5544 C   0  0  0  0  0  0  0  0  0  0  0  0
  -28.2463  -19.3391   18.1469 C   0  0  0  0  0  0  0  0  0  0  0  0
  -18.1988  -20.7896   19.2664 C   0  0  0  0  0  0  0  0  0  0  0  0
  -19.0778  -19.8287   18.4834 C   0  0  0  0  0  0  0  0  0  1  0  0
  -18.5370  -26.9770   20.0339 C   0  0  2  0  0  0  0  0  0  0  0  0
  -26.5478  -16.7493   22.0510 C   0  0  1  0  0  0  0  0  0  0  0  0
  -29.1964  -18.9139   20.4173 C   0  0  2  0  0  0  0  0  0  0  0  0
  -26.7210  -16.2484   23.5127 C   0  0  0  0  0  0  0  0  0  0  0  0
  -16.3147  -24.1290   21.1055 N   0  0  0  0  0  0  0  0  0  0  0  0
  -25.2627  -27.1762   20.6365 N   0  0  0  0  0  0  0  0  0  0  0  0
  -24.7075  -28.3999   20.6577 N   0  0  0  0  0  0  0  0  0  0  0  0
  -24.8529  -15.8759   20.4735 N   0  0  0  0  0  0  0  0  0  0  0  0
  -21.3708  -27.6334   22.3570 N   0  0  0  0  0  0  0  0  0  0  0  0
  -24.9471  -30.5977   19.8075 N   0  0  0  0  0  0  0  0  0  0  0  0
  -28.4385  -28.3887   17.9837 N   0  0  0  0  0  0  0  0  0  0  0  0
  -18.6970  -22.1402   19.1418 N   0  0  0  0  0  0  0  0  0  0  0  0
  -23.5909  -12.7816   20.9229 N   0  0  0  0  0  0  0  0  0  0  0  0
  -27.7641  -17.2949   21.4583 N   0  0  0  0  0  0  0  0  0  0  0  0
  -19.8521  -27.1319   20.6147 N   0  0  0  0  0  0  0  0  0  0  0  0
  -29.0752  -19.8538   19.2672 N   0  3  0  0  0  0  0  0  0  0  0  0
  -27.3931  -30.4247   18.1271 O   0  0  0  0  0  0  0  0  0  0  0  0
  -22.3090  -14.7202   21.0675 O   0  0  0  0  0  0  0  0  0  0  0  0
  -26.7744  -14.6513   20.9677 O   0  0  0  0  0  0  0  0  0  0  0  0
  -26.8994  -19.3952   20.9912 O   0  0  0  0  0  0  0  0  0  0  0  0
  -19.0777  -27.7507   22.6821 O   0  0  0  0  0  0  0  0  0  0  0  0
  -29.6920  -23.0134   18.7387 O   0  0  0  0  0  0  0  0  0  0  0  0
  -20.4129  -19.8908   18.9834 O   0  0  0  0  0  0  0  0  0  1  0  0
  -35.1314  -23.8930   18.9474 F   0  0  0  0  0  0  0  0  0  0  0  0
  -30.8924  -24.8741   17.0836 F   0  0  0  0  0  0  0  0  0  0  0  0
  1  2  1  0  0  0  0
  1  5  2  0  0  0  0
  2  6  2  0  0  0  0
  3  8  2  0  0  0  0
  3 18  1  0  0  0  0
  4  9  1  0  0  0  0
  4 18  2  0  0  0  0
  5 20  1  0  0  0  0
  6 22  1  0  0  0  0
  7 10  2  0  0  0  0
  7 21  1  0  0  0  0
  8 26  1  0  0  0  0
  9 26  2  0  0  0  0
 10 27  1  0  0  0  0
 11 12  2  0  0  0  0
 11 28  1  0  0  0  0
 12 29  1  0  0  0  0
 13 23  1  0  0  0  0
 13 27  2  0  0  0  0
 14 24  1  0  0  0  0
 14 25  2  0  0  0  0
 15 29  2  0  0  0  0
 15 30  1  0  0  0  0
 16 24  2  0  0  0  0
 16 64  1  0  0  0  0
 17 25  1  0  0  0  0
 17 64  2  0  0  0  0
 18 31  1  0  0  0  0
 19 31  1  0  0  0  0
 19 32  2  0  0  0  0
 19 33  1  0  0  0  0
 20 22  2  0  0  0  0
 20 38  1  0  0  0  0
 21 23  2  0  0  0  0
 21 39  1  0  0  0  0
 22 49  1  0  0  0  0
 23 40  1  0  0  0  0
 24 60  1  0  0  0  0
 25 71  1  0  0  0  0
 26 81  1  0  0  0  0
 27 82  1  0  0  0  0
 28 30  2  0  0  0  0
 28 81  1  0  0  0  0
 29 83  1  0  0  0  0
 30 84  1  0  0  0  0
 31 65  2  0  0  0  0
 32 66  1  0  0  0  0
 32 69  1  0  0  0  0
 33 70  1  0  0  0  0
 33 76  2  0  0  0  0
 34 50  1  0  0  0  0
 34 72  1  0  0  0  0
 34 77  2  0  0  0  0
 35 61  1  0  0  0  0
 35 67  1  0  0  0  0
 35 78  2  0  0  0  0
 36 62  1  0  0  0  0
 36 73  1  0  0  0  0
 36 79  2  0  0  0  0
 37 68  1  0  0  0  0
 37 74  1  0  0  0  0
 37 80  2  0  0  0  0
 38 41  1  0  0  0  0
 39 50  1  0  0  0  0
 40 67  1  0  0  0  0
 41 43  1  0  0  0  0
 42 46  1  0  0  0  0
 42 47  1  0  0  0  0
 43 49  1  0  0  0  0
 44 45  1  0  0  0  0
 44 51  1  0  0  0  0
 45 51  1  0  0  0  0
 46 52  1  0  0  0  0
 47 68  1  0  0  0  0
 48 52  1  0  0  0  0
 48 68  1  0  0  0  0
 49 72  1  0  0  0  0
 50 67  1  0  0  0  0
 51 60  1  0  0  0  0
 52 66  1  0  0  0  0
 53 62  1  0  0  0  0
 54 63  1  0  0  0  0
 55 63  1  0  0  0  0
 56 63  1  0  0  0  0
 57 75  1  0  0  0  0
 58 59  1  0  0  0  0
 58 71  1  0  0  0  0
 59 82  1  0  0  0  0
 60 74  1  0  0  0  0
 61 63  1  0  0  0  0
 61 73  1  0  0  0  0
 62 75  1  0  0  0  0
 65 66  1  0  0  0  0
M  CHG  1  75   1
M  ISO  4  37 100  59 101  74 100  82 101
M  END
> <Batch ID>
0141

> <Smiles>
CNC(C)C(=O)NC(C(=O)N1Cc2cc([101O:1][101CH2:1]CNc3cncc(C([100NH:0][100C:0](=O)N4CCCC(n5nc(-c6ccc(Oc7ccc(F)cc7F)cc6)c(C(N)=O)c5N)C4)C4CC4)c3)ccc2CC1C(=O)NC1CCCc2ccccc21)C(C)(C)C

> <Shape>
0.217

> <Color>
0.062

> <Negative vol penalty>
0.000

$$$$

  -OEChem-04052321163D

 84 93  0     1  0  0  0  0  0999 V2000
  -32.1791  -27.4874   15.7723 C   0  0  0  0  0  0  0  0  0  0  0  0
  -31.3424  -26.7564   16.6095 C   0  0  0  0  0  0  0  0  0  0  0  0
  -23.9016   -9.3731   19.7718 C   0  0  0  0  0  0  0  0  0  0  0  0
  -24.4084   -9.5129   22.1299 C   0  0  0  0  0  0  0  0  0  0  0  0
  -32.5965  -28.7638   16.1473 C   0  0  0  0  0  0  0  0  0  0  0  0
  -30.9234  -27.3010   17.8229 C   0  0  0  0  0  0  0  0  0  0  0  0
  -25.9796  -26.5971   18.6642 C   0  0  0  0  0  0  0  0  0  0  0  0
  -23.4276   -8.0736   19.9506 C   0  0  0  0  0  0  0  0  0  0  0  0
  -23.9343   -8.2133   22.3088 C   0  0  0  0  0  0  0  0  0  0  0  0
  -25.5816  -25.3345   19.1017 C   0  0  0  0  0  0  0  0  0  0  0  0
  -20.9394   -6.6725   22.5870 C   0  0  0  0  0  0  0  0  0  0  0  0
  -20.1010   -6.4343   23.6760 C   0  0  0  0  0  0  0  0  0  0  0  0
  -26.6065  -20.8560   22.0607 C   0  0  0  0  0  0  0  0  0  0  0  0
  -25.4719  -26.1602   21.3656 C   0  0  0  0  0  0  0  0  0  0  0  0
  -21.6827   -4.8262   24.5419 C   0  0  0  0  0  0  0  0  0  0  0  0
  -24.3921  -10.0928   20.8614 C   0  0  0  0  0  0  0  0  0  0  0  0
  -24.1432  -12.6298   20.7655 C   0  0  0  0  0  0  0  0  0  0  0  0
  -32.1746  -29.3281   17.3615 C   0  0  0  0  0  0  0  0  0  0  0  0
  -26.1375  -27.6496   19.5772 C   0  0  0  0  0  0  0  0  0  0  0  0
  -31.3366  -28.5856   18.2151 C   0  0  0  0  0  0  0  0  0  0  0  0
  -27.9298  -21.2734   21.9703 C   0  0  0  0  0  0  0  0  0  0  0  0
  -25.8695  -27.4358   20.9369 C   0  0  0  0  0  0  0  0  0  0  0  0
  -25.5831  -21.7245   21.6976 C   0  0  0  0  0  0  0  0  0  0  0  0
  -23.4438   -7.4937   21.2191 C   0  0  0  0  0  0  0  0  0  0  0  0
  -25.3305  -25.1152   20.4530 C   0  0  0  0  0  0  0  0  0  0  0  0
  -22.1494   -5.9875   22.4754 C   0  0  0  0  0  0  0  0  0  0  0  0
  -20.4726   -5.5112   24.6535 C   0  0  0  0  0  0  0  0  0  0  0  0
  -22.5210   -5.0644   23.4529 C   0  0  0  0  0  0  0  0  0  0  0  0
  -24.8825  -11.4350   20.6772 C   0  0  0  0  0  0  0  0  0  0  0  0
  -28.1747  -22.5587   21.5143 C   0  0  0  0  0  0  0  0  0  0  0  0
  -25.9330  -22.9895   21.2537 C   0  0  0  0  0  0  0  0  0  1  0  0
  -25.0599  -13.6204   20.5106 C   0  0  0  0  0  0  0  0  0  0  0  0
  -22.7523  -12.8266   21.0523 C   0  0  0  0  0  0  0  0  0  0  0  0
  -28.5745  -29.4669   20.5058 C   0  0  0  0  0  0  0  0  0  0  0  0
  -26.2668  -31.0389   22.1567 C   0  0  0  0  0  0  0  0  0  0  0  0
  -23.1824  -30.9579   23.6149 C   0  0  0  0  0  0  0  0  0  0  0  0
  -30.1063  -15.8875   21.2451 C   0  0  0  0  0  0  0  0  0  0  0  0
  -32.6901  -30.6924   17.7458 C   0  0  0  0  0  0  0  0  0  0  0  0
  -26.5416  -29.0125   19.0856 C   0  0  0  0  0  0  0  0  0  0  0  0
  -26.0047  -28.5378   21.9546 C   0  0  0  0  0  0  0  0  0  0  0  0
  -31.8989  -31.3465   18.8756 C   0  0  0  0  0  0  0  0  0  0  0  0
  -29.8002  -13.3500   18.7664 C   0  0  0  0  0  0  0  0  0  0  0  0
  -28.9957  -19.8582   23.8322 C   0  0  0  0  0  0  0  0  0  0  0  0
  -31.6650  -30.3523   20.0086 C   0  0  0  0  0  0  0  0  0  0  0  0
  -28.4360  -12.7205   19.0538 C   0  0  0  0  0  0  0  0  0  0  0  0
  -28.8458  -18.3405   23.7733 C   0  0  0  0  0  0  0  0  0  0  0  0
  -29.0695  -19.0513   21.5103 C   0  0  0  0  0  0  0  0  0  0  0  0
  -30.5169  -13.7555   20.0524 C   0  0  0  0  0  0  0  0  0  0  0  0
  -28.3695  -13.9954   21.2376 C   0  0  0  0  0  0  0  0  0  0  0  0
  -29.0473  -20.3338   22.3642 C   0  0  1  0  0  0  0  0  0  0  0  0
  -30.8407  -29.1519   19.5279 C   0  0  1  0  0  0  0  0  0  0  0  0
  -27.1681  -29.8788   20.1740 C   0  0  1  0  0  0  0  0  0  0  0  0
  -27.5845  -13.6211   19.9687 C   0  0  2  0  0  0  0  0  0  0  0  0
  -29.5442  -17.9696   22.4731 C   0  0  2  0  0  0  0  0  0  0  0  0
  -24.1619  -21.2884   21.7897 C   0  0  0  0  0  0  0  0  0  0  0  0
  -29.5765  -23.0607   21.3972 C   0  0  0  0  0  0  0  0  0  0  0  0
  -21.5825  -32.3839   24.9204 C   0  0  0  0  0  0  0  0  0  0  0  0
  -27.9716  -30.6573   24.6583 C   0  0  0  0  0  0  0  0  0  0  0  0
  -25.9567  -31.2221   26.0329 C   0  0  0  0  0  0  0  0  0  0  0  0
  -26.9028  -32.9094   24.4578 C   0  0  0  0  0  0  0  0  0  0  0  0
  -21.1085  -30.7589   21.5129 C   0  0  0  0  0  0  0  0  0  0  0  0
  -25.6614  -30.9102   23.5336 C   0  0  1  0  0  0  0  0  0  0  0  0
  -22.0060  -31.9143   23.5373 C   0  0  2  0  0  0  0  0  0  0  0  0
  -26.6224  -31.4033   24.6520 C   0  0  0  0  0  0  0  0  0  0  0  0
  -26.1696  -11.6452   20.3886 N   0  0  0  0  0  0  0  0  0  0  0  0
  -27.2069  -23.4305   21.1525 N   0  0  0  0  0  0  0  0  0  0  0  0
  -26.2462  -12.9835   20.2933 N   0  0  0  0  0  0  0  0  0  0  0  0
  -26.4086  -29.8510   21.4256 N   0  0  0  0  0  0  0  0  0  0  0  0
  -29.6561  -14.6097   20.8741 N   0  0  0  0  0  0  0  0  0  0  0  0
  -24.9588  -14.9654   20.4534 N   0  0  0  0  0  0  0  0  0  0  0  0
  -21.9532  -11.7000   21.2900 N   0  0  0  0  0  0  0  0  0  0  0  0
  -29.4410  -29.5066   19.4301 N   0  0  0  0  0  0  0  0  0  0  0  0
  -24.3863  -31.6176   23.4866 N   0  0  0  0  0  0  0  0  0  0  0  0
  -29.2262  -16.6343   22.0186 N   0  0  0  0  0  0  0  0  0  0  0  0
  -20.8401  -31.2499   22.8891 N   0  3  0  0  0  0  0  0  0  0  0  0
  -22.2300  -13.9667   21.0802 O   0  0  0  0  0  0  0  0  0  0  0  0
  -28.8533  -29.1389   21.6531 O   0  0  0  0  0  0  0  0  0  0  0  0
  -26.5951  -32.1534   21.7422 O   0  0  0  0  0  0  0  0  0  0  0  0
  -23.0469  -29.7471   23.7771 O   0  0  0  0  0  0  0  0  0  0  0  0
  -31.2087  -16.3320   20.9073 O   0  0  0  0  0  0  0  0  0  0  0  0
  -22.9811   -6.2257   21.3940 O   0  0  0  0  0  0  0  0  0  0  0  0
  -24.9426  -23.8837   20.8827 O   0  0  0  0  0  0  0  0  0  1  0  0
  -19.6682   -5.2837   25.7000 F   0  0  0  0  0  0  0  0  0  0  0  0
  -23.6828   -4.4042   23.3517 F   0  0  0  0  0  0  0  0  0  0  0  0
  1  2  1  0  0  0  0
  1  5  2  0  0  0  0
  2  6  2  0  0  0  0
  3  8  2  0  0  0  0
  3 16  1  0  0  0  0
  4  9  1  0  0  0  0
  4 16  2  0  0  0  0
  5 18  1  0  0  0  0
  6 20  1  0  0  0  0
  7 10  2  0  0  0  0
  7 19  1  0  0  0  0
  8 24  1  0  0  0  0
  9 24  2  0  0  0  0
 10 25  1  0  0  0  0
 11 12  2  0  0  0  0
 11 26  1  0  0  0  0
 12 27  1  0  0  0  0
 13 21  2  0  0  0  0
 13 23  1  0  0  0  0
 14 22  1  0  0  0  0
 14 25  2  0  0  0  0
 15 27  2  0  0  0  0
 15 28  1  0  0  0  0
 16 29  1  0  0  0  0
 17 29  1  0  0  0  0
 17 32  2  0  0  0  0
 17 33  1  0  0  0  0
 18 20  2  0  0  0  0
 18 38  1  0  0  0  0
 19 22  2  0  0  0  0
 19 39  1  0  0  0  0
 20 51  1  0  0  0  0
 21 30  1  0  0  0  0
 21 50  1  0  0  0  0
 22 40  1  0  0  0  0
 23 31  2  0  0  0  0
 23 55  1  0  0  0  0
 24 81  1  0  0  0  0
 25 82  1  0  0  0  0
 26 28  2  0  0  0  0
 26 81  1  0  0  0  0
 27 83  1  0  0  0  0
 28 84  1  0  0  0  0
 29 65  2  0  0  0  0
 30 56  1  0  0  0  0
 30 66  2  0  0  0  0
 31 66  1  0  0  0  0
 31 82  1  0  0  0  0
 32 67  1  0  0  0  0
 32 70  1  0  0  0  0
 33 71  1  0  0  0  0
 33 76  2  0  0  0  0
 34 52  1  0  0  0  0
 34 72  1  0  0  0  0
 34 77  2  0  0  0  0
 35 62  1  0  0  0  0
 35 68  1  0  0  0  0
 35 78  2  0  0  0  0
 36 63  1  0  0  0  0
 36 73  1  0  0  0  0
 36 79  2  0  0  0  0
 37 69  1  0  0  0  0
 37 74  1  0  0  0  0
 37 80  2  0  0  0  0
 38 41  1  0  0  0  0
 39 52  1  0  0  0  0
 40 68  1  0  0  0  0
 41 44  1  0  0  0  0
 42 45  1  0  0  0  0
 42 48  1  0  0  0  0
 43 46  1  0  0  0  0
 43 50  1  0  0  0  0
 44 51  1  0  0  0  0
 45 53  1  0  0  0  0
 46 54  1  0  0  0  0
 47 50  1  0  0  0  0
 47 54  1  0  0  0  0
 48 69  1  0  0  0  0
 49 53  1  0  0  0  0
 49 69  1  0  0  0  0
 51 72  1  0  0  0  0
 52 68  1  0  0  0  0
 53 67  1  0  0  0  0
 54 74  1  0  0  0  0
 57 63  1  0  0  0  0
 58 64  1  0  0  0  0
 59 64  1  0  0  0  0
 60 64  1  0  0  0  0
 61 75  1  0  0  0  0
 62 64  1  0  0  0  0
 62 73  1  0  0  0  0
 63 75  1  0  0  0  0
 65 67  1  0  0  0  0
M  CHG  1  75   1
M  ISO  4  31 101  37 100  74 100  82 101
M  END
> <Batch ID>
0141

> <Smiles>
CNC(C)C(=O)NC(C(=O)N1Cc2cc([101O:1][101c:1]3nc(C)c(C4CCC([100NH:0][100C:0](=O)N5CCCC(n6nc(-c7ccc(Oc8ccc(F)cc8F)cc7)c(C(N)=O)c6N)C5)C4)cc3C)ccc2CC1C(=O)NC1CCCc2ccccc21)C(C)(C)C

> <Shape>
0.306

> <Color>
0.156

> <Negative vol penalty>
0.000

$$$$

  -OEChem-04052321163D

 84 92  0     1  0  0  0  0  0999 V2000
  -17.6801  -25.1221   21.4313 C   0  0  0  0  0  0  0  0  0  0  0  0
  -18.9956  -25.0067   20.9938 C   0  0  0  0  0  0  0  0  0  0  0  0
  -23.2053  -10.2140   22.2932 C   0  0  0  0  0  0  0  0  0  0  0  0
  -22.5969  -10.2465   19.9553 C   0  0  0  0  0  0  0  0  0  0  0  0
  -17.3111  -26.1850   22.2546 C   0  0  0  0  0  0  0  0  0  0  0  0
  -19.9428  -25.9550   21.3785 C   0  0  0  0  0  0  0  0  0  0  0  0
  -24.3142  -23.8543   22.8356 C   0  0  0  0  0  0  0  0  0  0  0  0
  -22.7820   -8.8882   22.3850 C   0  0  0  0  0  0  0  0  0  0  0  0
  -22.1736   -8.9206   20.0470 C   0  0  0  0  0  0  0  0  0  0  0  0
  -25.1745  -23.4130   21.8312 C   0  0  0  0  0  0  0  0  0  0  0  0
  -19.8541   -7.2223   22.6622 C   0  0  0  0  0  0  0  0  0  0  0  0
  -19.0739   -6.8666   23.7624 C   0  0  0  0  0  0  0  0  0  0  0  0
  -26.4849  -25.4232   22.0787 C   0  0  0  0  0  0  0  0  0  0  0  0
  -24.8008  -19.3874   17.0844 C   0  0  0  0  0  0  0  0  0  0  0  0
  -20.7444   -5.2517   24.4248 C   0  0  0  0  0  0  0  0  0  0  0  0
  -23.1128  -10.8932   21.0783 C   0  0  0  0  0  0  0  0  0  0  0  0
  -24.8384  -12.7235   20.6538 C   0  0  0  0  0  0  0  0  0  0  0  0
  -18.2564  -27.1415   22.6575 C   0  0  0  0  0  0  0  0  0  0  0  0
  -24.5268  -25.0904   23.4626 C   0  0  0  0  0  0  0  0  0  0  0  0
  -19.5859  -27.0325   22.2069 C   0  0  0  0  0  0  0  0  0  0  0  0
  -25.6272  -25.8767   23.0926 C   0  0  0  0  0  0  0  0  0  0  0  0
  -25.4202  -20.3978   16.3574 C   0  0  0  0  0  0  0  0  0  0  0  0
  -24.9639  -21.7065   16.4685 C   0  0  0  0  0  0  0  0  0  0  0  0
  -22.2661   -8.2414   21.2619 C   0  0  0  0  0  0  0  0  0  0  0  0
  -26.2584  -24.1988   21.4506 C   0  0  0  0  0  0  0  0  0  0  0  0
  -21.0794   -6.5927   22.4433 C   0  0  0  0  0  0  0  0  0  0  0  0
  -19.5191   -5.8813   24.6437 C   0  0  0  0  0  0  0  0  0  0  0  0
  -21.5246   -5.6074   23.3246 C   0  0  0  0  0  0  0  0  0  0  0  0
  -23.5494  -12.2631   20.9830 C   0  0  0  0  0  0  0  0  0  0  0  0
  -23.8933  -21.9505   17.3136 C   0  0  0  0  0  0  0  0  0  0  0  0
  -23.7377  -19.7352   17.9021 C   0  0  0  0  0  0  0  0  0  0  0  0
  -24.7358  -14.0924   20.6987 C   0  0  0  0  0  0  0  0  0  0  0  0
  -26.0225  -11.9802   20.3358 C   0  0  0  0  0  0  0  0  0  0  0  0
  -22.8759  -27.7959   23.7054 C   0  0  0  0  0  0  0  0  0  0  0  0
  -25.2683  -28.6172   25.7363 C   0  0  0  0  0  0  0  0  0  0  0  0
  -28.4980  -28.1654   26.7421 C   0  0  0  0  0  0  0  0  0  0  0  0
  -22.0355  -18.8160   19.5158 C   0  0  0  0  0  0  0  0  0  0  0  0
  -17.7999  -28.2991   23.5096 C   0  0  0  0  0  0  0  0  0  0  0  0
  -23.6050  -25.5399   24.5629 C   0  0  0  0  0  0  0  0  0  0  0  0
  -25.9111  -27.2024   23.7488 C   0  0  0  0  0  0  0  0  0  0  0  0
  -18.9469  -29.0535   24.1773 C   0  0  0  0  0  0  0  0  0  0  0  0
  -21.0281  -17.0624   22.4461 C   0  0  0  0  0  0  0  0  0  0  0  0
  -20.0591  -29.3329   23.1714 C   0  0  0  0  0  0  0  0  0  0  0  0
  -21.7002  -15.6953   22.2997 C   0  0  0  0  0  0  0  0  0  0  0  0
  -20.5517  -17.6072   21.1008 C   0  0  0  0  0  0  0  0  0  0  0  0
  -22.2488  -16.2823   19.9035 C   0  0  0  0  0  0  0  0  0  0  0  0
  -20.6476  -28.0274   22.6229 C   0  0  1  0  0  0  0  0  0  0  0  0
  -23.6212  -27.0504   24.7762 C   0  0  1  0  0  0  0  0  0  0  0  0
  -22.8033  -15.7221   21.2235 C   0  0  2  0  0  0  0  0  0  0  0  0
  -26.5684  -20.0540   15.4671 C   0  0  0  0  0  0  0  0  0  0  0  0
  -23.3590  -23.3367   17.4722 C   0  0  0  0  0  0  0  0  0  0  0  0
  -30.1801  -29.0076   28.4029 C   0  0  0  0  0  0  0  0  0  0  0  0
  -25.6531  -31.1400   24.0637 C   0  0  0  0  0  0  0  0  0  0  0  0
  -27.8854  -31.4403   25.1568 C   0  0  0  0  0  0  0  0  0  0  0  0
  -25.8066  -31.4932   26.5347 C   0  0  0  0  0  0  0  0  0  0  0  0
  -28.7718  -25.4970   27.9926 C   0  0  0  0  0  0  0  0  0  0  0  0
  -25.6133  -22.8186   15.6968 C   0  0  0  0  0  0  0  0  0  0  0  0
  -26.9567  -23.2624   16.2670 C   0  0  0  0  0  0  0  0  0  0  0  0
  -28.0476  -24.2100   18.3043 C   0  0  0  0  0  0  0  0  0  0  0  0
  -27.7356  -24.7722   19.6772 C   0  0  0  0  0  0  0  0  0  1  0  0
  -26.6113  -29.2907   25.5894 C   0  0  1  0  0  0  0  0  0  0  0  0
  -29.1061  -27.9690   28.1191 C   0  0  2  0  0  0  0  0  0  0  0  0
  -26.4829  -30.8170   25.3223 C   0  0  0  0  0  0  0  0  0  0  0  0
  -22.6910  -13.2587   21.2197 N   0  0  0  0  0  0  0  0  0  0  0  0
  -23.2662  -20.9951   18.0358 N   0  0  0  0  0  0  0  0  0  0  0  0
  -23.4421  -14.3583   21.0391 N   0  0  0  0  0  0  0  0  0  0  0  0
  -24.9774  -27.6012   24.8149 N   0  0  0  0  0  0  0  0  0  0  0  0
  -21.6507  -17.6068   20.1328 N   0  0  0  0  0  0  0  0  0  0  0  0
  -25.6270  -15.0825   20.4798 N   0  0  0  0  0  0  0  0  0  0  0  0
  -25.9527  -10.5804   20.3353 N   0  0  0  0  0  0  0  0  0  0  0  0
  -23.1131  -18.6982   18.6386 N   0  0  0  0  0  0  0  0  0  0  0  0
  -21.5476  -27.4338   23.5884 N   0  0  0  0  0  0  0  0  0  0  0  0
  -27.3693  -28.9560   26.7902 N   0  0  0  0  0  0  0  0  0  0  0  0
  -29.7210  -26.6157   28.2256 N   0  3  0  0  0  0  0  0  0  0  0  0
  -26.7823  -23.8057   17.6412 N   0  3  0  0  0  0  0  0  0  0  0  0
  -27.1144  -12.5406   20.0764 O   0  0  0  0  0  0  0  0  0  0  0  0
  -23.4623  -28.6383   23.0360 O   0  0  0  0  0  0  0  0  0  0  0  0
  -24.5083  -28.9744   26.6399 O   0  0  0  0  0  0  0  0  0  0  0  0
  -28.9785  -27.6702   25.7250 O   0  0  0  0  0  0  0  0  0  0  0  0
  -21.4696  -19.8826   19.7691 O   0  0  0  0  0  0  0  0  0  0  0  0
  -21.8532   -6.9476   21.3510 O   0  0  0  0  0  0  0  0  0  0  0  0
  -27.0993  -23.7708   20.4700 O   0  0  0  0  0  0  0  0  0  1  0  0
  -18.7705   -5.5409   25.7010 F   0  0  0  0  0  0  0  0  0  0  0  0
  -22.7014   -4.9999   23.1201 F   0  0  0  0  0  0  0  0  0  0  0  0
  1  2  1  0  0  0  0
  1  5  2  0  0  0  0
  2  6  2  0  0  0  0
  3  8  2  0  0  0  0
  3 16  1  0  0  0  0
  4  9  1  0  0  0  0
  4 16  2  0  0  0  0
  5 18  1  0  0  0  0
  6 20  1  0  0  0  0
  7 10  2  0  0  0  0
  7 19  1  0  0  0  0
  8 24  1  0  0  0  0
  9 24  2  0  0  0  0
 10 25  1  0  0  0  0
 11 12  2  0  0  0  0
 11 26  1  0  0  0  0
 12 27  1  0  0  0  0
 13 21  1  0  0  0  0
 13 25  2  0  0  0  0
 14 22  2  0  0  0  0
 14 31  1  0  0  0  0
 15 27  2  0  0  0  0
 15 28  1  0  0  0  0
 16 29  1  0  0  0  0
 17 29  1  0  0  0  0
 17 32  2  0  0  0  0
 17 33  1  0  0  0  0
 18 20  2  0  0  0  0
 18 38  1  0  0  0  0
 19 21  2  0  0  0  0
 19 39  1  0  0  0  0
 20 47  1  0  0  0  0
 21 40  1  0  0  0  0
 22 23  1  0  0  0  0
 22 50  1  0  0  0  0
 23 30  2  0  0  0  0
 23 57  1  0  0  0  0
 24 81  1  0  0  0  0
 25 82  1  0  0  0  0
 26 28  2  0  0  0  0
 26 81  1  0  0  0  0
 27 83  1  0  0  0  0
 28 84  1  0  0  0  0
 29 64  2  0  0  0  0
 30 51  1  0  0  0  0
 30 65  1  0  0  0  0
 31 65  2  0  0  0  0
 31 71  1  0  0  0  0
 32 66  1  0  0  0  0
 32 69  1  0  0  0  0
 33 70  1  0  0  0  0
 33 76  2  0  0  0  0
 34 48  1  0  0  0  0
 34 72  1  0  0  0  0
 34 77  2  0  0  0  0
 35 61  1  0  0  0  0
 35 67  1  0  0  0  0
 35 78  2  0  0  0  0
 36 62  1  0  0  0  0
 36 73  1  0  0  0  0
 36 79  2  0  0  0  0
 37 68  1  0  0  0  0
 37 71  1  0  0  0  0
 37 80  2  0  0  0  0
 38 41  1  0  0  0  0
 39 48  1  0  0  0  0
 40 67  1  0  0  0  0
 41 43  1  0  0  0  0
 42 44  1  0  0  0  0
 42 45  1  0  0  0  0
 43 47  1  0  0  0  0
 44 49  1  0  0  0  0
 45 68  1  0  0  0  0
 46 49  1  0  0  0  0
 46 68  1  0  0  0  0
 47 72  1  0  0  0  0
 48 67  1  0  0  0  0
 49 66  1  0  0  0  0
 52 62  1  0  0  0  0
 53 63  1  0  0  0  0
 54 63  1  0  0  0  0
 55 63  1  0  0  0  0
 56 74  1  0  0  0  0
 57 58  1  0  0  0  0
 58 75  1  0  0  0  0
 59 60  1  0  0  0  0
 59 75  1  0  0  0  0
 60 82  1  0  0  0  0
 61 63  1  0  0  0  0
 61 73  1  0  0  0  0
 62 74  1  0  0  0  0
 64 66  1  0  0  0  0
M  CHG  2  74   1  75   1
M  ISO  4  37 100  60 101  71 100  82 101
M  END
> <Batch ID>
0141

> <Smiles>
CNC(C)C(=O)NC(C(=O)N1Cc2cc([101O:1][101CH2:1]CNCCc3c(C)cc([100NH:0][100C:0](=O)N4CCCC(n5nc(-c6ccc(Oc7ccc(F)cc7F)cc6)c(C(N)=O)c5N)C4)nc3C)ccc2CC1C(=O)NC1CCCc2ccccc21)C(C)(C)C

> <Shape>
0.206

> <Color>
0.126

> <Negative vol penalty>
0.000

$$$$

  -OEChem-04052321163D

 82 91  0     1  0  0  0  0  0999 V2000
  -29.3765  -23.9696   14.9502 C   0  0  0  0  0  0  0  0  0  0  0  0
  -28.1130  -24.3854   15.3579 C   0  0  0  0  0  0  0  0  0  0  0  0
  -19.1314  -27.0411   20.2426 C   0  0  0  0  0  0  0  0  0  0  0  0
  -27.0540  -14.6113   22.0826 C   0  0  0  0  0  0  0  0  0  0  0  0
  -25.9980  -15.0022   19.9450 C   0  0  0  0  0  0  0  0  0  0  0  0
  -30.3813  -23.7675   15.8955 C   0  0  0  0  0  0  0  0  0  0  0  0
  -27.8533  -24.5982   16.7112 C   0  0  0  0  0  0  0  0  0  0  0  0
  -19.4065  -25.6852   20.0198 C   0  0  0  0  0  0  0  0  0  0  0  0
  -25.2961  -28.8885   17.5473 C   0  0  0  0  0  0  0  0  0  0  0  0
  -19.8863  -28.0553   19.6055 C   0  0  0  0  0  0  0  0  0  0  0  0
  -26.8414  -13.2405   21.9370 C   0  0  0  0  0  0  0  0  0  0  0  0
  -25.7855  -13.6313   19.7994 C   0  0  0  0  0  0  0  0  0  0  0  0
  -23.9251  -28.8723   17.2941 C   0  0  0  0  0  0  0  0  0  0  0  0
  -24.6421  -10.2685   19.0286 C   0  0  0  0  0  0  0  0  0  0  0  0
  -23.3882   -9.8506   18.5830 C   0  0  0  0  0  0  0  0  0  0  0  0
  -23.4991  -28.5938   19.6521 C   0  0  0  0  0  0  0  0  0  0  0  0
  -22.3584  -10.8918   20.5046 C   0  0  0  0  0  0  0  0  0  0  0  0
  -26.6322  -15.4922   21.0866 C   0  0  0  0  0  0  0  0  0  0  0  0
  -27.9749  -17.6443   20.8159 C   0  0  0  0  0  0  0  0  0  0  0  0
  -30.1364  -23.9873   17.2602 C   0  0  0  0  0  0  0  0  0  0  0  0
  -25.7800  -28.7463   18.8557 C   0  0  0  0  0  0  0  0  0  0  0  0
  -28.8553  -24.3976   17.6758 C   0  0  0  0  0  0  0  0  0  0  0  0
  -20.4340  -25.4017   19.1632 C   0  0  0  0  0  0  0  0  0  0  0  0
  -24.8765  -28.6111   19.9195 C   0  0  0  0  0  0  0  0  0  0  0  0
  -21.1465  -26.4021   18.5598 C   0  0  0  0  0  0  0  0  0  0  0  0
  -26.2072  -12.7505   20.7954 C   0  0  0  0  0  0  0  0  0  0  0  0
  -23.0265  -28.7220   18.3462 C   0  0  0  0  0  0  0  0  0  0  0  0
  -20.9299  -27.7344   18.7350 C   0  0  0  0  0  0  0  0  0  1  0  0
  -24.7543  -10.9980   20.2122 C   0  0  0  0  0  0  0  0  0  0  0  0
  -22.2463  -10.1622   19.3210 C   0  0  0  0  0  0  0  0  0  0  0  0
  -23.6124  -11.3096   20.9502 C   0  0  0  0  0  0  0  0  0  0  0  0
  -26.8510  -16.9084   21.2367 C   0  0  0  0  0  0  0  0  0  0  0  0
  -27.6980  -18.9370   21.1881 C   0  0  0  0  0  0  0  0  0  0  0  0
  -29.1630  -17.1991   20.1481 C   0  0  0  0  0  0  0  0  0  0  0  0
  -27.6138  -26.6237   20.3508 C   0  0  0  0  0  0  0  0  0  0  0  0
  -27.3870  -28.7359   22.8023 C   0  0  0  0  0  0  0  0  0  0  0  0
  -25.6450  -31.2591   24.3007 C   0  0  0  0  0  0  0  0  0  0  0  0
  -22.5828  -21.8922   22.1642 C   0  0  0  0  0  0  0  0  0  0  0  0
  -31.2404  -23.7099   18.2496 C   0  0  0  0  0  0  0  0  0  0  0  0
  -27.2608  -28.7927   19.1152 C   0  0  0  0  0  0  0  0  0  0  0  0
  -25.3442  -28.4751   21.3447 C   0  0  0  0  0  0  0  0  0  0  0  0
  -30.9910  -24.3189   19.6271 C   0  0  0  0  0  0  0  0  0  0  0  0
  -25.2734  -21.4553   24.4547 C   0  0  0  0  0  0  0  0  0  0  0  0
  -29.5645  -24.0340   20.0863 C   0  0  0  0  0  0  0  0  0  0  0  0
  -26.0842  -20.3068   23.8518 C   0  0  0  0  0  0  0  0  0  0  0  0
  -23.7738  -21.2598   24.2422 C   0  0  0  0  0  0  0  0  0  0  0  0
  -24.1821  -19.8840   22.2387 C   0  0  0  0  0  0  0  0  0  0  0  0
  -28.5418  -24.6629   19.1323 C   0  0  1  0  0  0  0  0  0  0  0  0
  -21.2752  -24.4072   18.4554 C   0  0  2  0  0  0  0  0  0  0  0  0
  -27.6588  -28.1236   20.4272 C   0  0  1  0  0  0  0  0  0  0  0  0
  -25.7034  -20.0644   22.3789 C   0  0  2  0  0  0  0  0  0  0  0  0
  -25.6880  -32.7583   26.3127 C   0  0  0  0  0  0  0  0  0  0  0  0
  -23.3462  -23.0202   18.4719 C   0  0  0  0  0  0  0  0  0  0  0  0
  -26.4375  -26.4189   24.5459 C   0  0  0  0  0  0  0  0  0  0  0  0
  -25.6077  -28.0995   26.2058 C   0  0  0  0  0  0  0  0  0  0  0  0
  -28.0401  -27.9786   25.6655 C   0  0  0  0  0  0  0  0  0  0  0  0
  -25.8107  -33.6943   22.6270 C   0  0  0  0  0  0  0  0  0  0  0  0
  -21.4739  -22.4091   20.0050 C   0  0  0  0  0  0  0  0  0  0  0  0
  -26.4373  -28.9332   23.9591 C   0  0  1  0  0  0  0  0  0  0  0  0
  -26.0908  -32.6003   24.8548 C   0  0  2  0  0  0  0  0  0  0  0  0
  -22.1997  -23.5810   19.3254 C   0  0  2  0  0  0  0  0  0  0  0  0
  -26.6216  -27.8582   25.0671 C   0  0  0  0  0  0  0  0  0  0  0  0
  -25.9289  -17.6703   21.8310 N   0  0  0  0  0  0  0  0  0  0  0  0
  -26.4729  -18.8984   21.7863 N   0  0  0  0  0  0  0  0  0  0  0  0
  -26.8019  -28.5201   21.5465 N   0  0  0  0  0  0  0  0  0  0  0  0
  -23.4796  -21.0363   22.8247 N   0  0  0  0  0  0  0  0  0  0  0  0
  -28.3853  -20.0917   21.0589 N   0  0  0  0  0  0  0  0  0  0  0  0
  -29.2856  -15.8375   19.8394 N   0  0  0  0  0  0  0  0  0  0  0  0
  -28.4316  -26.0852   19.3758 N   0  0  0  0  0  0  0  0  0  0  0  0
  -26.6326  -30.3042   24.4182 N   0  0  0  0  0  0  0  0  0  0  0  0
  -22.3648  -21.6140   20.8204 N   0  0  0  0  0  0  0  0  0  0  0  0
  -25.4782  -33.7125   24.0748 N   0  3  0  0  0  0  0  0  0  0  0  0
  -30.0957  -17.9828   19.8490 O   0  0  0  0  0  0  0  0  0  0  0  0
  -26.8917  -26.0009   21.1206 O   0  0  0  0  0  0  0  0  0  0  0  0
  -28.6032  -28.7790   23.0041 O   0  0  0  0  0  0  0  0  0  0  0  0
  -24.5306  -31.0760   23.8158 O   0  0  0  0  0  0  0  0  0  0  0  0
  -22.0222  -22.8376   22.7289 O   0  0  0  0  0  0  0  0  0  0  0  0
  -21.9639  -25.5781   17.8965 O   0  0  0  0  0  0  0  0  0  0  0  0
  -25.9998  -11.4128   20.6528 O   0  0  0  0  0  0  0  0  0  0  0  0
  -21.6879  -28.7052   18.1018 O   0  0  0  0  0  0  0  0  0  1  0  0
  -21.0420   -9.7622   18.8922 F   0  0  0  0  0  0  0  0  0  0  0  0
  -23.7137  -12.0112   22.0875 F   0  0  0  0  0  0  0  0  0  0  0  0
  1  2  1  0  0  0  0
  1  6  2  0  0  0  0
  2  7  2  0  0  0  0
  3  8  1  0  0  0  0
  3 10  2  0  0  0  0
  4 11  2  0  0  0  0
  4 18  1  0  0  0  0
  5 12  1  0  0  0  0
  5 18  2  0  0  0  0
  6 20  1  0  0  0  0
  7 22  1  0  0  0  0
  8 23  2  0  0  0  0
  9 13  2  0  0  0  0
  9 21  1  0  0  0  0
 10 28  1  0  0  0  0
 11 26  1  0  0  0  0
 12 26  2  0  0  0  0
 13 27  1  0  0  0  0
 14 15  2  0  0  0  0
 14 29  1  0  0  0  0
 15 30  1  0  0  0  0
 16 24  1  0  0  0  0
 16 27  2  0  0  0  0
 17 30  2  0  0  0  0
 17 31  1  0  0  0  0
 18 32  1  0  0  0  0
 19 32  1  0  0  0  0
 19 33  2  0  0  0  0
 19 34  1  0  0  0  0
 20 22  2  0  0  0  0
 20 39  1  0  0  0  0
 21 24  2  0  0  0  0
 21 40  1  0  0  0  0
 22 48  1  0  0  0  0
 23 25  1  0  0  0  0
 23 49  1  0  0  0  0
 24 41  1  0  0  0  0
 25 28  2  0  0  0  0
 25 78  1  0  0  0  0
 26 79  1  0  0  0  0
 27 80  1  0  0  0  0
 28 80  1  0  0  0  0
 29 31  2  0  0  0  0
 29 79  1  0  0  0  0
 30 81  1  0  0  0  0
 31 82  1  0  0  0  0
 32 63  2  0  0  0  0
 33 64  1  0  0  0  0
 33 67  1  0  0  0  0
 34 68  1  0  0  0  0
 34 73  2  0  0  0  0
 35 50  1  0  0  0  0
 35 69  1  0  0  0  0
 35 74  2  0  0  0  0
 36 59  1  0  0  0  0
 36 65  1  0  0  0  0
 36 75  2  0  0  0  0
 37 60  1  0  0  0  0
 37 70  1  0  0  0  0
 37 76  2  0  0  0  0
 38 66  1  0  0  0  0
 38 71  1  0  0  0  0
 38 77  2  0  0  0  0
 39 42  1  0  0  0  0
 40 50  1  0  0  0  0
 41 65  1  0  0  0  0
 42 44  1  0  0  0  0
 43 45  1  0  0  0  0
 43 46  1  0  0  0  0
 44 48  1  0  0  0  0
 45 51  1  0  0  0  0
 46 66  1  0  0  0  0
 47 51  1  0  0  0  0
 47 66  1  0  0  0  0
 48 69  1  0  0  0  0
 49 61  1  0  0  0  0
 49 78  1  0  0  0  0
 50 65  1  0  0  0  0
 51 64  1  0  0  0  0
 52 60  1  0  0  0  0
 53 61  1  0  0  0  0
 54 62  1  0  0  0  0
 55 62  1  0  0  0  0
 56 62  1  0  0  0  0
 57 72  1  0  0  0  0
 58 61  1  0  0  0  0
 58 71  1  0  0  0  0
 59 62  1  0  0  0  0
 59 70  1  0  0  0  0
 60 72  1  0  0  0  0
 63 64  1  0  0  0  0
M  CHG  1  72   1
M  ISO  4  28 101  38 100  71 100  80 101
M  END
> <Batch ID>
0141

> <Smiles>
CNC(C)C(=O)NC(C(=O)N1Cc2cc([101O:1][101c:1]3cccc4c3OC4C(C)C[100NH:0][100C:0](=O)N3CCCC(n4nc(-c5ccc(Oc6ccc(F)cc6F)cc5)c(C(N)=O)c4N)C3)ccc2CC1C(=O)NC1CCCc2ccccc21)C(C)(C)C

> <Shape>
0.214

> <Color>
0.073

> <Negative vol penalty>
0.000

$$$$

  -OEChem-04052321163D

 91100  0     1  0  0  0  0  0999 V2000
  -32.7373  -24.5205   19.3657 C   0  0  0  0  0  0  0  0  0  0  0  0
  -31.3803  -24.4377   19.0706 C   0  0  0  0  0  0  0  0  0  0  0  0
  -25.1720   -9.4650   21.0324 C   0  0  0  0  0  0  0  0  0  0  0  0
  -22.9182  -10.0697   21.6583 C   0  0  0  0  0  0  0  0  0  0  0  0
  -33.1537  -25.0685   20.5782 C   0  0  0  0  0  0  0  0  0  0  0  0
  -30.4388  -24.9018   19.9885 C   0  0  0  0  0  0  0  0  0  0  0  0
  -25.0820  -27.5891   18.7278 C   0  0  0  0  0  0  0  0  0  0  0  0
  -24.8196   -8.1159   21.0664 C   0  0  0  0  0  0  0  0  0  0  0  0
  -22.5657   -8.7205   21.6923 C   0  0  0  0  0  0  0  0  0  0  0  0
  -23.7767  -27.1018   18.6789 C   0  0  0  0  0  0  0  0  0  0  0  0
  -22.9287   -6.1032   23.8016 C   0  0  0  0  0  0  0  0  0  0  0  0
  -22.1758   -5.6573   24.8878 C   0  0  0  0  0  0  0  0  0  0  0  0
  -25.9597  -21.0426   21.5880 C   0  0  0  0  0  0  0  0  0  0  0  0
  -23.4163  -27.8576   20.9412 C   0  0  0  0  0  0  0  0  0  0  0  0
  -27.2220  -20.3661   19.6423 C   0  0  0  0  0  0  0  0  0  0  0  0
  -20.4118   -4.9744   23.3848 C   0  0  0  0  0  0  0  0  0  0  0  0
  -24.2214  -10.4419   21.3284 C   0  0  0  0  0  0  0  0  0  0  0  0
  -24.5118  -12.7063   20.1901 C   0  0  0  0  0  0  0  0  0  0  0  0
  -32.2172  -25.5485   21.5073 C   0  0  0  0  0  0  0  0  0  0  0  0
  -25.5686  -28.2056   19.8895 C   0  0  0  0  0  0  0  0  0  0  0  0
  -30.8430  -25.4555   21.2152 C   0  0  0  0  0  0  0  0  0  0  0  0
  -24.9039  -20.2235   21.1879 C   0  0  0  0  0  0  0  0  0  0  0  0
  -24.7273  -28.3541   21.0014 C   0  0  0  0  0  0  0  0  0  0  0  0
  -27.1187  -21.1140   20.8152 C   0  0  0  0  0  0  0  0  0  0  0  0
  -26.1663  -19.5469   19.2422 C   0  0  0  0  0  0  0  0  0  0  0  0
  -25.0073  -19.4756   20.0151 C   0  0  0  0  0  0  0  0  0  0  0  0
  -23.5164   -7.7436   21.3964 C   0  0  0  0  0  0  0  0  0  0  0  0
  -22.9445  -27.2334   19.7867 C   0  0  0  0  0  0  0  0  0  0  0  0
  -22.4231   -5.9848   22.5069 C   0  0  0  0  0  0  0  0  0  0  0  0
  -20.9174   -5.0929   24.6795 C   0  0  0  0  0  0  0  0  0  0  0  0
  -21.1646   -5.4203   22.2986 C   0  0  0  0  0  0  0  0  0  0  0  0
  -24.5850  -11.8357   21.2939 C   0  0  0  0  0  0  0  0  0  0  0  0
  -24.9673  -13.9096   20.6710 C   0  0  0  0  0  0  0  0  0  0  0  0
  -24.0714  -12.4503   18.8499 C   0  0  0  0  0  0  0  0  0  0  0  0
  -27.9128  -27.5851   21.9445 C   0  0  0  0  0  0  0  0  0  0  0  0
  -27.0577  -30.4572   23.1865 C   0  0  0  0  0  0  0  0  0  0  0  0
  -24.6462  -32.8387   23.5860 C   0  0  0  0  0  0  0  0  0  0  0  0
  -25.0781  -17.8403   24.6311 C   0  0  0  0  0  0  0  0  0  0  0  0
  -32.7133  -26.0893   22.8249 C   0  0  0  0  0  0  0  0  0  0  0  0
  -26.9705  -28.7499   19.9169 C   0  0  0  0  0  0  0  0  0  0  0  0
  -25.1950  -29.0263   22.2655 C   0  0  0  0  0  0  0  0  0  0  0  0
  -31.6664  -26.9012   23.5831 C   0  0  0  0  0  0  0  0  0  0  0  0
  -27.2618  -15.0567   25.0306 C   0  0  0  0  0  0  0  0  0  0  0  0
  -30.3292  -26.1672   23.5975 C   0  0  0  0  0  0  0  0  0  0  0  0
  -22.2230  -21.4220   23.5329 C   0  0  0  0  0  0  0  0  0  0  0  0
  -26.7502  -14.0407   24.0078 C   0  0  0  0  0  0  0  0  0  0  0  0
  -22.7198  -20.1537   24.2311 C   0  0  0  0  0  0  0  0  0  0  0  0
  -26.1174  -15.8436   25.6654 C   0  0  0  0  0  0  0  0  0  0  0  0
  -24.6982  -15.4838   23.6829 C   0  0  0  0  0  0  0  0  0  0  0  0
  -23.6753  -20.1657   22.0312 C   0  0  2  0  0  0  0  0  0  0  0  0
  -29.7923  -25.9710   22.1746 C   0  0  1  0  0  0  0  0  0  0  0  0
  -27.5255  -28.9004   21.3299 C   0  0  1  0  0  0  0  0  0  0  0  0
  -23.0356  -21.5551   22.2338 C   0  0  1  0  0  0  0  0  0  0  0  0
  -25.8199  -14.7047   22.9749 C   0  0  2  0  0  0  0  0  0  0  0  0
  -23.9805  -19.7432   23.4764 C   0  0  2  0  0  0  0  0  0  0  0  0
  -28.2481  -21.9888   21.2434 C   0  0  0  0  0  0  0  0  0  0  0  0
  -26.3023  -18.7562   17.9822 C   0  0  0  0  0  0  0  0  0  0  0  0
  -23.8753  -18.5973   19.5859 C   0  0  0  0  0  0  0  0  0  0  0  0
  -24.2309  -35.0571   24.6831 C   0  0  0  0  0  0  0  0  0  0  0  0
  -19.1213  -25.0283   21.8821 C   0  0  0  0  0  0  0  0  0  0  0  0
  -26.7877  -29.0672   25.8893 C   0  0  0  0  0  0  0  0  0  0  0  0
  -25.4891  -31.0482   26.7001 C   0  0  0  0  0  0  0  0  0  0  0  0
  -27.8614  -31.3241   25.9796 C   0  0  0  0  0  0  0  0  0  0  0  0
  -24.1306  -34.1581   20.9875 C   0  0  0  0  0  0  0  0  0  0  0  0
  -22.1870  -22.0011   21.0632 C   0  0  0  0  0  0  0  0  0  0  0  0
  -20.7416  -23.8853   20.2889 C   0  0  0  0  0  0  0  0  0  0  0  0
  -21.0997  -26.3122   20.9716 C   0  0  0  0  0  0  0  0  0  1  0  0
  -26.0757  -30.9183   24.2363 C   0  0  1  0  0  0  0  0  0  0  0  0
  -24.6819  -34.3468   23.4163 C   0  0  2  0  0  0  0  0  0  0  0  0
  -20.0751  -25.2047   20.6952 C   0  0  2  0  0  0  0  0  0  0  0  0
  -26.5450  -30.5750   25.6783 C   0  0  0  0  0  0  0  0  0  0  0  0
  -25.0506  -12.4348   22.3932 N   0  0  0  0  0  0  0  0  0  0  0  0
  -25.2741  -13.6948   21.9825 N   0  0  0  0  0  0  0  0  0  0  0  0
  -26.5760  -29.5364   22.2453 N   0  0  0  0  0  0  0  0  0  0  0  0
  -25.2738  -16.4493   24.6322 N   0  0  0  0  0  0  0  0  0  0  0  0
  -25.1315  -15.1197   20.0957 N   0  0  0  0  0  0  0  0  0  0  0  0
  -23.6354  -11.1585   18.5251 N   0  0  0  0  0  0  0  0  0  0  0  0
  -29.2134  -27.2012   21.6788 N   0  0  0  0  0  0  0  0  0  0  0  0
  -25.8642  -32.3423   23.9999 N   0  0  0  0  0  0  0  0  0  0  0  0
  -24.2701  -18.3332   23.6138 N   0  0  0  0  0  0  0  0  0  0  0  0
  -23.7872  -34.7638   22.2998 N   0  3  0  0  0  0  0  0  0  0  0  0
  -21.5532  -23.3089   21.3871 N   0  3  0  0  0  0  0  0  0  0  0  0
  -24.0802  -13.3366   17.9622 O   0  0  0  0  0  0  0  0  0  0  0  0
  -27.0929  -26.9653   22.6118 O   0  0  0  0  0  0  0  0  0  0  0  0
  -28.2078  -30.9031   23.1968 O   0  0  0  0  0  0  0  0  0  0  0  0
  -23.6375  -32.1685   23.3762 O   0  0  0  0  0  0  0  0  0  0  0  0
  -25.5901  -18.5881   25.4711 O   0  0  0  0  0  0  0  0  0  0  0  0
  -23.1720   -6.4272   21.4295 O   0  0  0  0  0  0  0  0  0  0  0  0
  -21.6702  -26.7580   19.7419 O   0  0  0  0  0  0  0  0  0  1  0  0
  -20.1952   -4.6633   25.7226 F   0  0  0  0  0  0  0  0  0  0  0  0
  -20.6741   -5.3028   21.0571 F   0  0  0  0  0  0  0  0  0  0  0  0
  1  2  1  0  0  0  0
  1  5  2  0  0  0  0
  2  6  2  0  0  0  0
  3  8  2  0  0  0  0
  3 17  1  0  0  0  0
  4  9  1  0  0  0  0
  4 17  2  0  0  0  0
  5 19  1  0  0  0  0
  6 21  1  0  0  0  0
  7 10  2  0  0  0  0
  7 20  1  0  0  0  0
  8 27  1  0  0  0  0
  9 27  2  0  0  0  0
 10 28  1  0  0  0  0
 11 12  2  0  0  0  0
 11 29  1  0  0  0  0
 12 30  1  0  0  0  0
 13 22  1  0  0  0  0
 13 24  2  0  0  0  0
 14 23  1  0  0  0  0
 14 28  2  0  0  0  0
 15 24  1  0  0  0  0
 15 25  2  0  0  0  0
 16 30  2  0  0  0  0
 16 31  1  0  0  0  0
 17 32  1  0  0  0  0
 18 32  1  0  0  0  0
 18 33  2  0  0  0  0
 18 34  1  0  0  0  0
 19 21  2  0  0  0  0
 19 39  1  0  0  0  0
 20 23  2  0  0  0  0
 20 40  1  0  0  0  0
 21 51  1  0  0  0  0
 22 26  2  0  0  0  0
 22 50  1  0  0  0  0
 23 41  1  0  0  0  0
 24 56  1  0  0  0  0
 25 26  1  0  0  0  0
 25 57  1  0  0  0  0
 26 58  1  0  0  0  0
 27 88  1  0  0  0  0
 28 89  1  0  0  0  0
 29 31  2  0  0  0  0
 29 88  1  0  0  0  0
 30 90  1  0  0  0  0
 31 91  1  0  0  0  0
 32 72  2  0  0  0  0
 33 73  1  0  0  0  0
 33 76  1  0  0  0  0
 34 77  1  0  0  0  0
 34 83  2  0  0  0  0
 35 52  1  0  0  0  0
 35 78  1  0  0  0  0
 35 84  2  0  0  0  0
 36 68  1  0  0  0  0
 36 74  1  0  0  0  0
 36 85  2  0  0  0  0
 37 69  1  0  0  0  0
 37 79  1  0  0  0  0
 37 86  2  0  0  0  0
 38 75  1  0  0  0  0
 38 80  1  0  0  0  0
 38 87  2  0  0  0  0
 39 42  1  0  0  0  0
 40 52  1  0  0  0  0
 41 74  1  0  0  0  0
 42 44  1  0  0  0  0
 43 46  1  0  0  0  0
 43 48  1  0  0  0  0
 44 51  1  0  0  0  0
 45 47  1  0  0  0  0
 45 53  1  0  0  0  0
 46 54  1  0  0  0  0
 47 55  1  0  0  0  0
 48 75  1  0  0  0  0
 49 54  1  0  0  0  0
 49 75  1  0  0  0  0
 50 53  1  0  0  0  0
 50 55  1  0  0  0  0
 51 78  1  0  0  0  0
 52 74  1  0  0  0  0
 53 65  1  0  0  0  0
 54 73  1  0  0  0  0
 55 80  1  0  0  0  0
 59 69  1  0  0  0  0
 60 70  1  0  0  0  0
 61 71  1  0  0  0  0
 62 71  1  0  0  0  0
 63 71  1  0  0  0  0
 64 81  1  0  0  0  0
 65 82  1  0  0  0  0
 66 70  1  0  0  0  0
 66 82  1  0  0  0  0
 67 70  1  0  0  0  0
 67 89  1  0  0  0  0
 68 71  1  0  0  0  0
 68 79  1  0  0  0  0
 69 81  1  0  0  0  0
 72 73  1  0  0  0  0
M  CHG  2  81   1  82   1
M  ISO  4  38 100  67 101  80 100  89 101
M  END
> <Batch ID>
0141

> <Smiles>
CNC(C)C(=O)NC(C(=O)N1Cc2cc([101O:1][101CH2:1]C(C)CNCC3CCC([100NH:0][100C:0](=O)N4CCCC(n5nc(-c6ccc(Oc7ccc(F)cc7F)cc6)c(C(N)=O)c5N)C4)C3c3cc(C)cc(C)c3C)ccc2CC1C(=O)NC1CCCc2ccccc21)C(C)(C)C

> <Shape>
0.235

> <Color>
0.100

> <Negative vol penalty>
0.000

$$$$

  -OEChem-04052321163D

 84 93  0     1  0  0  0  0  0999 V2000
  -29.4036  -35.3506   19.1517 C   0  0  0  0  0  0  0  0  0  0  0  0
  -30.1002  -34.1720   18.9048 C   0  0  0  0  0  0  0  0  0  0  0  0
  -22.9186  -10.1388   19.8529 C   0  0  0  0  0  0  0  0  0  0  0  0
  -24.0184   -9.5452   21.9205 C   0  0  0  0  0  0  0  0  0  0  0  0
  -28.2671  -35.3312   19.9591 C   0  0  0  0  0  0  0  0  0  0  0  0
  -29.6614  -32.9733   19.4662 C   0  0  0  0  0  0  0  0  0  0  0  0
  -29.3717  -25.9465   18.1036 C   0  0  0  0  0  0  0  0  0  0  0  0
  -22.1650   -8.9669   19.9173 C   0  0  0  0  0  0  0  0  0  0  0  0
  -23.2648   -8.3733   21.9850 C   0  0  0  0  0  0  0  0  0  0  0  0
  -29.7069  -24.7227   18.6813 C   0  0  0  0  0  0  0  0  0  0  0  0
  -20.1304   -7.4751   22.8736 C   0  0  0  0  0  0  0  0  0  0  0  0
  -19.5597   -7.1401   24.1014 C   0  0  0  0  0  0  0  0  0  0  0  0
  -27.6854  -24.7961   19.9955 C   0  0  0  0  0  0  0  0  0  0  0  0
  -28.7671  -19.9777   20.8979 C   0  0  0  0  0  0  0  0  0  0  0  0
  -29.3925  -21.0736   22.9581 C   0  0  0  0  0  0  0  0  0  0  0  0
  -20.8007   -5.0673   24.1127 C   0  0  0  0  0  0  0  0  0  0  0  0
  -23.8454  -10.4280   20.8545 C   0  0  0  0  0  0  0  0  0  0  0  0
  -24.2903  -12.8951   21.3271 C   0  0  0  0  0  0  0  0  0  0  0  0
  -27.8085  -34.1301   20.5228 C   0  0  0  0  0  0  0  0  0  0  0  0
  -28.1942  -26.6107   18.4763 C   0  0  0  0  0  0  0  0  0  0  0  0
  -28.5185  -32.9380   20.2830 C   0  0  0  0  0  0  0  0  0  0  0  0
  -27.3362  -26.0270   19.4192 C   0  0  0  0  0  0  0  0  0  0  0  0
  -29.8383  -18.7180   22.6593 C   0  0  0  0  0  0  0  0  0  0  0  0
  -28.8269  -21.1282   21.6842 C   0  0  0  0  0  0  0  0  0  0  0  0
  -29.2727  -18.7726   21.3854 C   0  0  0  0  0  0  0  0  0  0  0  0
  -29.8982  -19.8685   23.4457 C   0  0  0  0  0  0  0  0  0  0  0  0
  -22.3381   -8.0841   20.9833 C   0  0  0  0  0  0  0  0  0  0  0  0
  -28.8652  -24.1487   19.6294 C   0  0  0  0  0  0  0  0  0  0  0  0
  -21.0363   -6.6062   22.2652 C   0  0  0  0  0  0  0  0  0  0  0  0
  -19.8948   -5.9362   24.7210 C   0  0  0  0  0  0  0  0  0  0  0  0
  -21.3714   -5.4022   22.8848 C   0  0  0  0  0  0  0  0  0  0  0  0
  -24.6246  -11.6382   20.7882 C   0  0  0  0  0  0  0  0  0  0  0  0
  -25.3503  -13.7034   20.9963 C   0  0  0  0  0  0  0  0  0  0  0  0
  -23.1258  -13.2960   22.0611 C   0  0  0  0  0  0  0  0  0  0  0  0
  -27.5299  -29.4059   19.8362 C   0  0  0  0  0  0  0  0  0  0  0  0
  -24.4677  -28.5471   19.1979 C   0  0  0  0  0  0  0  0  0  0  0  0
  -22.2240  -26.0448   18.6051 C   0  0  0  0  0  0  0  0  0  0  0  0
  -30.8334  -14.6052   20.5443 C   0  0  0  0  0  0  0  0  0  0  0  0
  -26.6023  -34.1667   21.4275 C   0  0  0  0  0  0  0  0  0  0  0  0
  -27.8336  -27.9173   17.8242 C   0  0  0  0  0  0  0  0  0  0  0  0
  -26.0504  -26.6898   19.8387 C   0  0  0  0  0  0  0  0  0  0  0  0
  -25.9879  -32.7921   21.6794 C   0  0  0  0  0  0  0  0  0  0  0  0
  -29.2399  -12.9141   17.8587 C   0  0  0  0  0  0  0  0  0  0  0  0
  -31.7126  -17.3820   24.0746 C   0  0  0  0  0  0  0  0  0  0  0  0
  -27.0740  -31.7758   22.0174 C   0  0  0  0  0  0  0  0  0  0  0  0
  -27.8709  -12.5328   18.4248 C   0  0  0  0  0  0  0  0  0  0  0  0
  -32.0736  -16.0132   23.4685 C   0  0  0  0  0  0  0  0  0  0  0  0
  -30.3369  -12.8085   18.9159 C   0  0  0  0  0  0  0  0  0  0  0  0
  -28.7063  -13.1733   20.7253 C   0  0  0  0  0  0  0  0  0  0  0  0
  -30.4134  -17.3467   23.2135 C   0  0  2  0  0  0  0  0  0  0  0  0
  -28.0595  -31.6138   20.8538 C   0  0  1  0  0  0  0  0  0  0  0  0
  -26.8663  -28.7535   18.6565 C   0  0  1  0  0  0  0  0  0  0  0  0
  -27.5574  -13.3184   19.7126 C   0  0  2  0  0  0  0  0  0  0  0  0
  -31.2120  -16.4099   22.2496 C   0  0  2  0  0  0  0  0  0  0  0  0
  -29.1983  -17.5534   20.5265 C   0  0  0  0  0  0  0  0  0  0  0  0
  -30.4982  -19.8334   24.8126 C   0  0  0  0  0  0  0  0  0  0  0  0
  -19.7868  -25.6498   18.1565 C   0  0  0  0  0  0  0  0  0  0  0  0
  -23.8485  -29.0351   22.1456 C   0  0  0  0  0  0  0  0  0  0  0  0
  -21.7242  -27.7456   21.8410 C   0  0  0  0  0  0  0  0  0  0  0  0
  -22.0952  -29.8548   20.5617 C   0  0  0  0  0  0  0  0  0  0  0  0
  -22.7879  -24.8262   15.9677 C   0  0  0  0  0  0  0  0  0  0  0  0
  -28.2821  -22.4241   21.1598 C   0  0  0  0  0  0  0  0  0  1  0  0
  -23.3967  -27.7798   19.9351 C   0  0  1  0  0  0  0  0  0  0  0  0
  -21.1568  -25.8808   17.5380 C   0  0  2  0  0  0  0  0  0  0  0  0
  -22.7913  -28.5920   21.1146 C   0  0  0  0  0  0  0  0  0  0  0  0
  -25.8046  -11.6428   20.1625 N   0  0  0  0  0  0  0  0  0  0  0  0
  -26.2210  -12.9124   20.3060 N   0  0  0  0  0  0  0  0  0  0  0  0
  -25.7449  -27.9691   19.1773 N   0  0  0  0  0  0  0  0  0  0  0  0
  -29.9780  -13.5813   20.1078 N   0  0  0  0  0  0  0  0  0  0  0  0
  -25.6132  -15.0065   21.2314 N   0  0  0  0  0  0  0  0  0  0  0  0
  -22.1330  -12.3395   22.3137 N   0  0  0  0  0  0  0  0  0  0  0  0
  -27.4836  -30.7868   19.8151 N   0  0  0  0  0  0  0  0  0  0  0  0
  -22.4225  -27.3702   18.9294 N   0  0  0  0  0  0  0  0  0  0  0  0
  -30.4222  -15.3006   21.6767 N   0  0  0  0  0  0  0  0  0  0  0  0
  -21.4772  -24.7208   16.6590 N   0  3  0  0  0  0  0  0  0  0  0  0
  -22.9626  -14.4719   22.4664 O   0  0  0  0  0  0  0  0  0  0  0  0
  -28.0445  -28.7081   20.7022 O   0  0  0  0  0  0  0  0  0  0  0  0
  -24.1798  -29.6163   18.6542 O   0  0  0  0  0  0  0  0  0  0  0  0
  -22.8192  -25.0922   19.1039 O   0  0  0  0  0  0  0  0  0  0  0  0
  -31.8875  -14.8908   19.9659 O   0  0  0  0  0  0  0  0  0  0  0  0
  -21.6027   -6.9405   21.0466 O   0  0  0  0  0  0  0  0  0  0  0  0
  -29.1903  -22.9545   20.1953 O   0  0  0  0  0  0  0  0  0  1  0  0
  -19.3478   -5.6154   25.9008 F   0  0  0  0  0  0  0  0  0  0  0  0
  -22.2420   -4.5639   22.3059 F   0  0  0  0  0  0  0  0  0  0  0  0
  1  2  1  0  0  0  0
  1  5  2  0  0  0  0
  2  6  2  0  0  0  0
  3  8  2  0  0  0  0
  3 17  1  0  0  0  0
  4  9  1  0  0  0  0
  4 17  2  0  0  0  0
  5 19  1  0  0  0  0
  6 21  1  0  0  0  0
  7 10  2  0  0  0  0
  7 20  1  0  0  0  0
  8 27  1  0  0  0  0
  9 27  2  0  0  0  0
 10 28  1  0  0  0  0
 11 12  2  0  0  0  0
 11 29  1  0  0  0  0
 12 30  1  0  0  0  0
 13 22  1  0  0  0  0
 13 28  2  0  0  0  0
 14 24  1  0  0  0  0
 14 25  2  0  0  0  0
 15 24  2  0  0  0  0
 15 26  1  0  0  0  0
 16 30  2  0  0  0  0
 16 31  1  0  0  0  0
 17 32  1  0  0  0  0
 18 32  1  0  0  0  0
 18 33  2  0  0  0  0
 18 34  1  0  0  0  0
 19 21  2  0  0  0  0
 19 39  1  0  0  0  0
 20 22  2  0  0  0  0
 20 40  1  0  0  0  0
 21 51  1  0  0  0  0
 22 41  1  0  0  0  0
 23 25  1  0  0  0  0
 23 26  2  0  0  0  0
 23 50  1  0  0  0  0
 24 62  1  0  0  0  0
 25 55  1  0  0  0  0
 26 56  1  0  0  0  0
 27 81  1  0  0  0  0
 28 82  1  0  0  0  0
 29 31  2  0  0  0  0
 29 81  1  0  0  0  0
 30 83  1  0  0  0  0
 31 84  1  0  0  0  0
 32 66  2  0  0  0  0
 33 67  1  0  0  0  0
 33 70  1  0  0  0  0
 34 71  1  0  0  0  0
 34 76  2  0  0  0  0
 35 52  1  0  0  0  0
 35 72  1  0  0  0  0
 35 77  2  0  0  0  0
 36 63  1  0  0  0  0
 36 68  1  0  0  0  0
 36 78  2  0  0  0  0
 37 64  1  0  0  0  0
 37 73  1  0  0  0  0
 37 79  2  0  0  0  0
 38 69  1  0  0  0  0
 38 74  1  0  0  0  0
 38 80  2  0  0  0  0
 39 42  1  0  0  0  0
 40 52  1  0  0  0  0
 41 68  1  0  0  0  0
 42 45  1  0  0  0  0
 43 46  1  0  0  0  0
 43 48  1  0  0  0  0
 44 47  1  0  0  0  0
 44 50  1  0  0  0  0
 45 51  1  0  0  0  0
 46 53  1  0  0  0  0
 47 54  1  0  0  0  0
 48 69  1  0  0  0  0
 49 53  1  0  0  0  0
 49 69  1  0  0  0  0
 50 54  1  0  0  0  0
 51 72  1  0  0  0  0
 52 68  1  0  0  0  0
 53 67  1  0  0  0  0
 54 74  1  0  0  0  0
 57 64  1  0  0  0  0
 58 65  1  0  0  0  0
 59 65  1  0  0  0  0
 60 65  1  0  0  0  0
 61 75  1  0  0  0  0
 62 82  1  0  0  0  0
 63 65  1  0  0  0  0
 63 73  1  0  0  0  0
 64 75  1  0  0  0  0
 66 67  1  0  0  0  0
M  CHG  1  75   1
M  ISO  4  38 100  62 101  74 100  82 101
M  END
> <Batch ID>
0141

> <Smiles>
CNC(C)C(=O)NC(C(=O)N1Cc2cc([101O:1][101CH2:1]c3cc(C)c(C4CCC4[100NH:0][100C:0](=O)N4CCCC(n5nc(-c6ccc(Oc7ccc(F)cc7F)cc6)c(C(N)=O)c5N)C4)c(C)c3)ccc2CC1C(=O)NC1CCCc2ccccc21)C(C)(C)C

> <Shape>
0.319

> <Color>
0.154

> <Negative vol penalty>
0.000

$$$$

  -OEChem-04052321163D

 85 94  0     1  0  0  0  0  0999 V2000
  -23.8364  -33.0055   25.3021 C   0  0  0  0  0  0  0  0  0  0  0  0
  -23.9522  -31.6644   24.9508 C   0  0  0  0  0  0  0  0  0  0  0  0
  -22.9461  -10.0685   19.9423 C   0  0  0  0  0  0  0  0  0  0  0  0
  -24.0067   -9.6297   22.0683 C   0  0  0  0  0  0  0  0  0  0  0  0
  -22.6337  -33.4890   25.8156 C   0  0  0  0  0  0  0  0  0  0  0  0
  -22.8657  -30.8057   25.1139 C   0  0  0  0  0  0  0  0  0  0  0  0
  -26.5999  -21.4861   21.6957 C   0  0  0  0  0  0  0  0  0  0  0  0
  -26.2552  -21.4457   19.3047 C   0  0  0  0  0  0  0  0  0  0  0  0
  -22.1448  -27.8008   21.1020 C   0  0  0  0  0  0  0  0  0  0  0  0
  -25.9177  -22.7002   21.7735 C   0  0  0  0  0  0  0  0  0  0  0  0
  -25.5730  -22.6598   19.3826 C   0  0  0  0  0  0  0  0  0  0  0  0
  -22.2095   -8.8906   20.0667 C   0  0  0  0  0  0  0  0  0  0  0  0
  -23.2700   -8.4518   22.1927 C   0  0  0  0  0  0  0  0  0  0  0  0
  -22.9878  -26.6979   20.9728 C   0  0  0  0  0  0  0  0  0  0  0  0
  -20.1301   -7.5604   23.0685 C   0  0  0  0  0  0  0  0  0  0  0  0
  -19.5362   -7.2965   24.3027 C   0  0  0  0  0  0  0  0  0  0  0  0
  -21.2609  -25.2792   21.8807 C   0  0  0  0  0  0  0  0  0  0  0  0
  -20.8086   -5.2501   24.4775 C   0  0  0  0  0  0  0  0  0  0  0  0
  -23.8448  -10.4380   20.9431 C   0  0  0  0  0  0  0  0  0  0  0  0
  -24.2403  -12.9378   21.2627 C   0  0  0  0  0  0  0  0  0  0  0  0
  -26.7687  -20.8588   20.4613 C   0  0  0  0  0  0  0  0  0  0  0  0
  -21.5289  -32.6380   25.9761 C   0  0  0  0  0  0  0  0  0  0  0  0
  -20.8552  -27.6527   21.6325 C   0  0  0  0  0  0  0  0  0  0  0  0
  -21.6476  -31.2780   25.6314 C   0  0  0  0  0  0  0  0  0  0  0  0
  -20.4025  -26.3814   22.0131 C   0  0  0  0  0  0  0  0  0  0  0  0
  -25.4042  -23.2871   20.6170 C   0  0  0  0  0  0  0  0  0  0  0  0
  -22.3714   -8.0823   21.1919 C   0  0  0  0  0  0  0  0  0  0  0  0
  -22.5470  -25.4374   21.3649 C   0  0  0  0  0  0  0  0  0  0  0  0
  -21.0632   -6.6691   22.5387 C   0  0  0  0  0  0  0  0  0  0  0  0
  -19.8755   -6.1414   25.0072 C   0  0  0  0  0  0  0  0  0  0  0  0
  -21.4025   -5.5140   23.2432 C   0  0  0  0  0  0  0  0  0  0  0  0
  -24.6065  -11.6544   20.8150 C   0  0  0  0  0  0  0  0  0  0  0  0
  -25.2951  -13.7408   20.9032 C   0  0  0  0  0  0  0  0  0  0  0  0
  -23.0530  -13.3660   21.9429 C   0  0  0  0  0  0  0  0  0  0  0  0
  -19.3362  -28.7842   24.1851 C   0  0  0  0  0  0  0  0  0  0  0  0
  -16.7836  -27.3026   22.8394 C   0  0  0  0  0  0  0  0  0  0  0  0
  -15.6152  -24.8698   20.7505 C   0  0  0  0  0  0  0  0  0  0  0  0
  -30.7817  -14.6907   20.5289 C   0  0  0  0  0  0  0  0  0  0  0  0
  -20.2643  -33.1960   26.5794 C   0  0  0  0  0  0  0  0  0  0  0  0
  -19.9485  -28.8480   21.7403 C   0  0  0  0  0  0  0  0  0  0  0  0
  -19.0197  -26.1658   22.5696 C   0  0  0  0  0  0  0  0  0  0  0  0
  -19.0441  -32.3029   26.3704 C   0  0  0  0  0  0  0  0  0  0  0  0
  -29.2658  -12.8159   17.9091 C   0  0  0  0  0  0  0  0  0  0  0  0
  -19.3826  -30.8517   26.6962 C   0  0  0  0  0  0  0  0  0  0  0  0
  -27.8915  -12.4474   18.4708 C   0  0  0  0  0  0  0  0  0  0  0  0
  -28.6674  -19.4390   19.4319 C   0  0  0  0  0  0  0  0  0  0  0  0
  -30.3417  -12.7979   18.9926 C   0  0  0  0  0  0  0  0  0  0  0  0
  -28.6651  -13.2515   20.7410 C   0  0  0  0  0  0  0  0  0  0  0  0
  -27.4980  -19.5618   20.3776 C   0  0  1  0  0  0  0  0  0  0  0  0
  -20.4837  -30.3208   25.7704 C   0  0  1  0  0  0  0  0  0  0  0  0
  -18.8396  -28.6656   22.7720 C   0  0  1  0  0  0  0  0  0  0  0  0
  -27.5371  -13.3105   19.6968 C   0  0  2  0  0  0  0  0  0  0  0  0
  -28.9084  -19.4803   20.9098 C   0  0  1  0  0  0  0  0  0  0  0  0
  -13.4801  -23.8768   19.8830 C   0  0  0  0  0  0  0  0  0  0  0  0
  -30.8838  -16.6720   23.6431 C   0  0  0  0  0  0  0  0  0  0  0  0
  -16.3745  -25.8645   25.4992 C   0  0  0  0  0  0  0  0  0  0  0  0
  -14.8852  -24.2394   24.3119 C   0  0  0  0  0  0  0  0  0  0  0  0
  -14.2687  -26.6547   24.4059 C   0  0  0  0  0  0  0  0  0  0  0  0
  -16.2894  -25.5701   17.9552 C   0  0  0  0  0  0  0  0  0  0  0  0
  -24.6683  -24.5919   20.7006 C   0  0  0  0  0  0  0  0  0  1  0  0
  -30.7401  -17.8494   21.3828 C   0  0  0  0  0  0  0  0  0  0  0  0
  -16.1819  -25.9207   22.9252 C   0  0  1  0  0  0  0  0  0  0  0  0
  -14.5749  -24.9052   19.6455 C   0  0  2  0  0  0  0  0  0  0  0  0
  -31.0751  -16.5611   22.1335 C   0  0  2  0  0  0  0  0  0  0  0  0
  -15.4544  -25.6739   24.2769 C   0  0  0  0  0  0  0  0  0  0  0  0
  -25.8005  -11.6382   20.2166 N   0  0  0  0  0  0  0  0  0  0  0  0
  -26.1938  -12.9214   20.2857 N   0  0  0  0  0  0  0  0  0  0  0  0
  -18.1728  -27.3666   22.6614 N   0  0  0  0  0  0  0  0  0  0  0  0
  -29.9449  -13.6369   20.1260 N   0  0  0  0  0  0  0  0  0  0  0  0
  -25.5323  -15.0607   21.0582 N   0  0  0  0  0  0  0  0  0  0  0  0
  -22.0696  -12.4112   22.2356 N   0  0  0  0  0  0  0  0  0  0  0  0
  -19.9375  -29.9952   24.4703 N   0  0  0  0  0  0  0  0  0  0  0  0
  -15.3280  -25.7737   21.7514 N   0  0  0  0  0  0  0  0  0  0  0  0
  -30.3281  -15.4405   21.6072 N   0  0  0  0  0  0  0  0  0  0  0  0
  -29.3074  -18.2315   21.5712 N   0  3  0  0  0  0  0  0  0  0  0  0
  -15.2095  -24.6204   18.3275 N   0  3  0  0  0  0  0  0  0  0  0  0
  -22.8623  -14.5628   22.2665 O   0  0  0  0  0  0  0  0  0  0  0  0
  -19.1838  -27.8470   24.9598 O   0  0  0  0  0  0  0  0  0  0  0  0
  -16.0471  -28.2888   22.9201 O   0  0  0  0  0  0  0  0  0  0  0  0
  -16.5835  -24.1132   20.7298 O   0  0  0  0  0  0  0  0  0  0  0  0
  -31.8512  -14.9478   19.9658 O   0  0  0  0  0  0  0  0  0  0  0  0
  -21.6525   -6.9329   21.3137 O   0  0  0  0  0  0  0  0  0  0  0  0
  -23.3680  -24.3593   21.2406 O   0  0  0  0  0  0  0  0  0  1  0  0
  -19.3063   -5.8889   26.1931 F   0  0  0  0  0  0  0  0  0  0  0  0
  -22.2991   -4.6547   22.7399 F   0  0  0  0  0  0  0  0  0  0  0  0
  1  2  1  0  0  0  0
  1  5  2  0  0  0  0
  2  6  2  0  0  0  0
  3 12  2  0  0  0  0
  3 19  1  0  0  0  0
  4 13  1  0  0  0  0
  4 19  2  0  0  0  0
  5 22  1  0  0  0  0
  6 24  1  0  0  0  0
  7 10  2  0  0  0  0
  7 21  1  0  0  0  0
  8 11  1  0  0  0  0
  8 21  2  0  0  0  0
  9 14  2  0  0  0  0
  9 23  1  0  0  0  0
 10 26  1  0  0  0  0
 11 26  2  0  0  0  0
 12 27  1  0  0  0  0
 13 27  2  0  0  0  0
 14 28  1  0  0  0  0
 15 16  2  0  0  0  0
 15 29  1  0  0  0  0
 16 30  1  0  0  0  0
 17 25  1  0  0  0  0
 17 28  2  0  0  0  0
 18 30  2  0  0  0  0
 18 31  1  0  0  0  0
 19 32  1  0  0  0  0
 20 32  1  0  0  0  0
 20 33  2  0  0  0  0
 20 34  1  0  0  0  0
 21 49  1  0  0  0  0
 22 24  2  0  0  0  0
 22 39  1  0  0  0  0
 23 25  2  0  0  0  0
 23 40  1  0  0  0  0
 24 50  1  0  0  0  0
 25 41  1  0  0  0  0
 26 60  1  0  0  0  0
 27 82  1  0  0  0  0
 28 83  1  0  0  0  0
 29 31  2  0  0  0  0
 29 82  1  0  0  0  0
 30 84  1  0  0  0  0
 31 85  1  0  0  0  0
 32 66  2  0  0  0  0
 33 67  1  0  0  0  0
 33 70  1  0  0  0  0
 34 71  1  0  0  0  0
 34 77  2  0  0  0  0
 35 51  1  0  0  0  0
 35 72  1  0  0  0  0
 35 78  2  0  0  0  0
 36 62  1  0  0  0  0
 36 68  1  0  0  0  0
 36 79  2  0  0  0  0
 37 63  1  0  0  0  0
 37 73  1  0  0  0  0
 37 80  2  0  0  0  0
 38 69  1  0  0  0  0
 38 74  1  0  0  0  0
 38 81  2  0  0  0  0
 39 42  1  0  0  0  0
 40 51  1  0  0  0  0
 41 68  1  0  0  0  0
 42 44  1  0  0  0  0
 43 45  1  0  0  0  0
 43 47  1  0  0  0  0
 44 50  1  0  0  0  0
 45 52  1  0  0  0  0
 46 49  1  0  0  0  0
 46 53  1  0  0  0  0
 47 69  1  0  0  0  0
 48 52  1  0  0  0  0
 48 69  1  0  0  0  0
 49 53  1  0  0  0  0
 50 72  1  0  0  0  0
 51 68  1  0  0  0  0
 52 67  1  0  0  0  0
 53 75  1  0  0  0  0
 54 63  1  0  0  0  0
 55 64  1  0  0  0  0
 56 65  1  0  0  0  0
 57 65  1  0  0  0  0
 58 65  1  0  0  0  0
 59 76  1  0  0  0  0
 60 83  1  0  0  0  0
 61 64  1  0  0  0  0
 61 75  1  0  0  0  0
 62 65  1  0  0  0  0
 62 73  1  0  0  0  0
 63 76  1  0  0  0  0
 64 74  1  0  0  0  0
 66 67  1  0  0  0  0
M  CHG  2  75   1  76   1
M  ISO  4  38 100  60 101  74 100  83 101
M  END
> <Batch ID>
0141

> <Smiles>
CNC(C)C(=O)NC(C(=O)N1Cc2cc([101O:1][101CH2:1]c3ccc(C4CC4NCC(C)[100NH:0][100C:0](=O)N4CCCC(n5nc(-c6ccc(Oc7ccc(F)cc7F)cc6)c(C(N)=O)c5N)C4)cc3)ccc2CC1C(=O)NC1CCCc2ccccc21)C(C)(C)C

> <Shape>
0.291

> <Color>
0.182

> <Negative vol penalty>
0.000

$$$$

  -OEChem-04052321163D

 89 99  0     1  0  0  0  0  0999 V2000
  -21.6305  -33.3882   19.5522 C   0  0  0  0  0  0  0  0  0  0  0  0
  -22.6030  -32.4050   19.4005 C   0  0  0  0  0  0  0  0  0  0  0  0
  -23.0569   -9.9127   19.9523 C   0  0  0  0  0  0  0  0  0  0  0  0
  -23.7331   -9.9504   22.2715 C   0  0  0  0  0  0  0  0  0  0  0  0
  -20.8570  -33.4290   20.7114 C   0  0  0  0  0  0  0  0  0  0  0  0
  -22.8032  -31.4626   20.4086 C   0  0  0  0  0  0  0  0  0  0  0  0
  -24.3813  -25.5883   19.6961 C   0  0  0  0  0  0  0  0  0  0  0  0
  -28.2007  -20.8347   23.1772 C   0  0  0  0  0  0  0  0  0  0  0  0
  -22.3021   -8.7643   20.1910 C   0  0  0  0  0  0  0  0  0  0  0  0
  -22.9782   -8.8020   22.5102 C   0  0  0  0  0  0  0  0  0  0  0  0
  -25.6062  -24.9285   19.7863 C   0  0  0  0  0  0  0  0  0  0  0  0
  -28.1872  -22.0955   22.5808 C   0  0  0  0  0  0  0  0  0  0  0  0
  -23.2823   -5.4722   22.0099 C   0  0  0  0  0  0  0  0  0  0  0  0
  -23.8692   -4.4560   22.7639 C   0  0  0  0  0  0  0  0  0  0  0  0
  -25.1083  -24.3290   22.0692 C   0  0  0  0  0  0  0  0  0  0  0  0
  -26.2271  -21.4744   21.3122 C   0  0  0  0  0  0  0  0  0  0  0  0
  -22.1073   -4.6560   24.4049 C   0  0  0  0  0  0  0  0  0  0  0  0
  -23.7725  -10.5058   20.9926 C   0  0  0  0  0  0  0  0  0  0  0  0
  -24.1237  -13.0285   20.8501 C   0  0  0  0  0  0  0  0  0  0  0  0
  -21.0412  -32.4808   21.7300 C   0  0  0  0  0  0  0  0  0  0  0  0
  -23.5140  -25.6327   20.7971 C   0  0  0  0  0  0  0  0  0  0  0  0
  -22.0323  -31.4916   21.5832 C   0  0  0  0  0  0  0  0  0  0  0  0
  -23.8718  -24.9878   21.9896 C   0  0  0  0  0  0  0  0  0  0  0  0
  -26.2406  -20.2136   21.9086 C   0  0  0  0  0  0  0  0  0  0  0  0
  -27.2274  -19.8937   22.8411 C   0  0  0  0  0  0  0  0  0  0  0  0
  -22.2627   -8.2090   21.4700 C   0  0  0  0  0  0  0  0  0  0  0  0
  -25.9711  -24.3012   20.9739 C   0  0  0  0  0  0  0  0  0  0  0  0
  -27.2004  -22.4153   21.6483 C   0  0  0  0  0  0  0  0  0  1  0  0
  -22.1079   -6.0803   22.4534 C   0  0  0  0  0  0  0  0  0  0  0  0
  -23.2817   -4.0479   23.9613 C   0  0  0  0  0  0  0  0  0  0  0  0
  -21.5204   -5.6722   23.6509 C   0  0  0  0  0  0  0  0  0  0  0  0
  -24.5529  -11.6917   20.7465 C   0  0  0  0  0  0  0  0  0  0  0  0
  -25.2299  -13.7711   20.5164 C   0  0  0  0  0  0  0  0  0  0  0  0
  -22.8399  -13.5520   21.2154 C   0  0  0  0  0  0  0  0  0  0  0  0
  -22.2956  -27.9492   22.6007 C   0  0  0  0  0  0  0  0  0  0  0  0
  -20.6042  -25.5093   23.9076 C   0  0  0  0  0  0  0  0  0  0  0  0
  -20.3625  -22.1647   24.5415 C   0  0  0  0  0  0  0  0  0  0  0  0
  -30.5907  -14.8621   20.7203 C   0  0  0  0  0  0  0  0  0  0  0  0
  -20.2132  -32.5939   22.9855 C   0  0  0  0  0  0  0  0  0  0  0  0
  -22.1846  -26.3257   20.6751 C   0  0  0  0  0  0  0  0  0  0  0  0
  -22.9676  -24.9890   23.1941 C   0  0  0  0  0  0  0  0  0  0  0  0
  -20.2326  -31.3316   23.8437 C   0  0  0  0  0  0  0  0  0  0  0  0
  -23.0572  -18.6142   21.3987 C   0  0  0  0  0  0  0  0  0  0  0  0
  -29.6478  -12.3933   18.4910 C   0  0  0  0  0  0  0  0  0  0  0  0
  -24.0484  -18.7683   22.5679 C   0  0  0  0  0  0  0  0  0  0  0  0
  -23.9286  -19.6257   20.6294 C   0  0  0  0  0  0  0  0  0  0  0  0
  -21.6592  -30.8153   24.0017 C   0  0  0  0  0  0  0  0  0  0  0  0
  -28.1998  -12.0907   18.8760 C   0  0  0  0  0  0  0  0  0  0  0  0
  -28.9232  -18.0300   21.6742 C   0  0  0  0  0  0  0  0  0  0  0  0
  -28.3916  -16.2740   23.4013 C   0  0  0  0  0  0  0  0  0  0  0  0
  -30.5119  -12.5932   19.7309 C   0  0  0  0  0  0  0  0  0  0  0  0
  -30.1565  -17.2290   21.2663 C   0  0  0  0  0  0  0  0  0  0  0  0
  -29.6370  -15.5094   22.9650 C   0  0  0  0  0  0  0  0  0  0  0  0
  -28.5653  -13.3722   21.0422 C   0  0  0  0  0  0  0  0  0  0  0  0
  -25.1259  -19.1605   21.5122 C   0  0  0  0  0  0  0  0  0  0  0  0
  -22.2625  -30.4368   22.6436 C   0  0  1  0  0  0  0  0  0  0  0  0
  -21.6047  -26.7471   22.0218 C   0  0  1  0  0  0  0  0  0  0  0  0
  -28.5419  -17.7786   23.1389 C   0  0  0  0  0  0  0  0  0  0  0  0
  -27.6431  -13.1683   19.8233 C   0  0  2  0  0  0  0  0  0  0  0  0
  -25.7848  -19.2470   25.4714 C   0  0  0  0  0  0  0  0  0  0  0  0
  -19.3366  -20.0100   25.3177 C   0  0  0  0  0  0  0  0  0  0  0  0
  -21.6291  -26.4239   26.6321 C   0  0  0  0  0  0  0  0  0  0  0  0
  -20.9298  -24.2069   27.5617 C   0  0  0  0  0  0  0  0  0  0  0  0
  -19.2217  -25.7474   26.5965 C   0  0  0  0  0  0  0  0  0  0  0  0
  -19.0668  -21.7029   21.9210 C   0  0  0  0  0  0  0  0  0  0  0  0
  -27.0916  -18.5945   25.0371 C   0  0  0  0  0  0  0  0  0  0  0  0
  -27.2605  -18.5243   23.5033 C   0  0  1  0  0  0  0  0  0  0  0  0
  -20.8235  -24.5484   25.0511 C   0  0  1  0  0  0  0  0  0  0  0  0
  -19.2170  -21.1852   24.3599 C   0  0  2  0  0  0  0  0  0  0  0  0
  -20.6691  -25.2331   26.4384 C   0  0  0  0  0  0  0  0  0  0  0  0
  -25.8319  -11.5881   20.3758 N   0  0  0  0  0  0  0  0  0  0  0  0
  -26.2159  -12.8692   20.2435 N   0  0  0  0  0  0  0  0  0  0  0  0
  -21.6811  -25.6853   23.0272 N   0  0  0  0  0  0  0  0  0  0  0  0
  -29.9477  -13.6203   20.6063 N   0  0  0  0  0  0  0  0  0  0  0  0
  -29.9971  -15.8080   21.5724 N   0  0  0  0  0  0  0  0  0  0  0  0
  -25.4455  -15.1011   20.4326 N   0  0  0  0  0  0  0  0  0  0  0  0
  -21.8145  -12.6492   21.5282 N   0  0  0  0  0  0  0  0  0  0  0  0
  -21.7523  -29.1560   22.2033 N   0  0  0  0  0  0  0  0  0  0  0  0
  -19.9081  -23.4343   24.8294 N   0  0  0  0  0  0  0  0  0  0  0  0
  -19.2035  -20.6565   22.9667 N   0  3  0  0  0  0  0  0  0  0  0  0
  -22.6043  -14.7837   21.2470 O   0  0  0  0  0  0  0  0  0  0  0  0
  -23.2500  -27.7934   23.3534 O   0  0  0  0  0  0  0  0  0  0  0  0
  -19.5149  -26.0772   23.7954 O   0  0  0  0  0  0  0  0  0  0  0  0
  -21.5424  -21.8355   24.4419 O   0  0  0  0  0  0  0  0  0  0  0  0
  -31.6291  -15.1147   20.0966 O   0  0  0  0  0  0  0  0  0  0  0  0
  -21.5260   -7.0885   21.7033 O   0  0  0  0  0  0  0  0  0  0  0  0
  -27.1874  -23.6457   21.0665 O   0  0  0  0  0  0  0  0  0  1  0  0
  -23.8445   -3.0709   24.6845 F   0  0  0  0  0  0  0  0  0  0  0  0
  -20.3915   -6.2519   24.0815 F   0  0  0  0  0  0  0  0  0  0  0  0
  1  2  1  0  0  0  0
  1  5  2  0  0  0  0
  2  6  2  0  0  0  0
  3  9  2  0  0  0  0
  3 18  1  0  0  0  0
  4 10  1  0  0  0  0
  4 18  2  0  0  0  0
  5 20  1  0  0  0  0
  6 22  1  0  0  0  0
  7 11  2  0  0  0  0
  7 21  1  0  0  0  0
  8 12  2  0  0  0  0
  8 25  1  0  0  0  0
  9 26  1  0  0  0  0
 10 26  2  0  0  0  0
 11 27  1  0  0  0  0
 12 28  1  0  0  0  0
 13 14  2  0  0  0  0
 13 29  1  0  0  0  0
 14 30  1  0  0  0  0
 15 23  1  0  0  0  0
 15 27  2  0  0  0  0
 16 24  1  0  0  0  0
 16 28  2  0  0  0  0
 17 30  2  0  0  0  0
 17 31  1  0  0  0  0
 18 32  1  0  0  0  0
 19 32  1  0  0  0  0
 19 33  2  0  0  0  0
 19 34  1  0  0  0  0
 20 22  2  0  0  0  0
 20 39  1  0  0  0  0
 21 23  2  0  0  0  0
 21 40  1  0  0  0  0
 22 56  1  0  0  0  0
 23 41  1  0  0  0  0
 24 25  2  0  0  0  0
 24 55  1  0  0  0  0
 25 67  1  0  0  0  0
 26 86  1  0  0  0  0
 27 87  1  0  0  0  0
 28 87  1  0  0  0  0
 29 31  2  0  0  0  0
 29 86  1  0  0  0  0
 30 88  1  0  0  0  0
 31 89  1  0  0  0  0
 32 71  2  0  0  0  0
 33 72  1  0  0  0  0
 33 76  1  0  0  0  0
 34 77  1  0  0  0  0
 34 81  2  0  0  0  0
 35 57  1  0  0  0  0
 35 78  1  0  0  0  0
 35 82  2  0  0  0  0
 36 68  1  0  0  0  0
 36 73  1  0  0  0  0
 36 83  2  0  0  0  0
 37 69  1  0  0  0  0
 37 79  1  0  0  0  0
 37 84  2  0  0  0  0
 38 74  1  0  0  0  0
 38 75  1  0  0  0  0
 38 85  2  0  0  0  0
 39 42  1  0  0  0  0
 40 57  1  0  0  0  0
 41 73  1  0  0  0  0
 42 47  1  0  0  0  0
 43 45  1  0  0  0  0
 43 46  1  0  0  0  0
 44 48  1  0  0  0  0
 44 51  1  0  0  0  0
 45 55  1  0  0  0  0
 46 55  1  0  0  0  0
 47 56  1  0  0  0  0
 48 59  1  0  0  0  0
 49 52  1  0  0  0  0
 49 58  1  0  0  0  0
 50 53  1  0  0  0  0
 50 58  1  0  0  0  0
 51 74  1  0  0  0  0
 52 75  1  0  0  0  0
 53 75  1  0  0  0  0
 54 59  1  0  0  0  0
 54 74  1  0  0  0  0
 56 78  1  0  0  0  0
 57 73  1  0  0  0  0
 58 67  1  0  0  0  0
 59 72  1  0  0  0  0
 60 66  1  0  0  0  0
 61 69  1  0  0  0  0
 62 70  1  0  0  0  0
 63 70  1  0  0  0  0
 64 70  1  0  0  0  0
 65 80  1  0  0  0  0
 66 67  1  0  0  0  0
 68 70  1  0  0  0  0
 68 79  1  0  0  0  0
 69 80  1  0  0  0  0
 71 72  1  0  0  0  0
M  CHG  1  80   1
M  ISO  4  28 101  38 100  75 100  87 101
M  END
> <Batch ID>
0141

> <Smiles>
CCC(c1cc[101c:1]([101O:1]c2ccc3c(c2)CN(C(=O)C(NC(=O)C(C)NC)C(C)(C)C)C(C(=O)NC2CCCc4ccccc42)C3)cc1C1CCC1)C1CC[100N:0]([100C:0](=O)N2CCCC(n3nc(-c4ccc(Oc5ccc(F)cc5F)cc4)c(C(N)=O)c3N)C2)CC1

> <Shape>
0.235

> <Color>
0.226

> <Negative vol penalty>
0.000

$$$$

  -OEChem-04052321163D

 90 99  0     1  0  0  0  0  0999 V2000
  -25.0736  -33.5810   23.1497 C   0  0  0  0  0  0  0  0  0  0  0  0
  -24.8559  -32.5684   24.0784 C   0  0  0  0  0  0  0  0  0  0  0  0
  -23.2507   -9.7797   19.9392 C   0  0  0  0  0  0  0  0  0  0  0  0
  -23.6531   -9.9809   22.3130 C   0  0  0  0  0  0  0  0  0  0  0  0
  -25.1429  -33.2761   21.7910 C   0  0  0  0  0  0  0  0  0  0  0  0
  -24.7063  -31.2502   23.6488 C   0  0  0  0  0  0  0  0  0  0  0  0
  -28.6908  -16.3655   27.7581 C   0  0  0  0  0  0  0  0  0  0  0  0
  -26.5688  -26.1950   26.5610 C   0  0  0  0  0  0  0  0  0  0  0  0
  -29.3910  -15.5555   26.8641 C   0  0  0  0  0  0  0  0  0  0  0  0
  -22.5169   -8.6147   20.1623 C   0  0  0  0  0  0  0  0  0  0  0  0
  -22.9192   -8.8159   22.5361 C   0  0  0  0  0  0  0  0  0  0  0  0
  -25.8998  -25.2797   27.3725 C   0  0  0  0  0  0  0  0  0  0  0  0
  -23.4034   -5.4794   22.2817 C   0  0  0  0  0  0  0  0  0  0  0  0
  -23.9370   -4.5354   23.1589 C   0  0  0  0  0  0  0  0  0  0  0  0
  -28.0934  -17.8483   25.9466 C   0  0  0  0  0  0  0  0  0  0  0  0
  -25.5692  -23.8398   25.4655 C   0  0  0  0  0  0  0  0  0  0  0  0
  -21.9915   -4.7514   24.5750 C   0  0  0  0  0  0  0  0  0  0  0  0
  -23.8188  -10.4628   21.0146 C   0  0  0  0  0  0  0  0  0  0  0  0
  -24.0894  -12.9862   20.7557 C   0  0  0  0  0  0  0  0  0  0  0  0
  -28.0420  -17.5119   27.2993 C   0  0  0  0  0  0  0  0  0  0  0  0
  -25.0037  -31.9523   21.3453 C   0  0  0  0  0  0  0  0  0  0  0  0
  -26.7337  -25.9442   25.1912 C   0  0  0  0  0  0  0  0  0  0  0  0
  -24.7724  -30.9275   22.2827 C   0  0  0  0  0  0  0  0  0  0  0  0
  -26.2429  -24.7524   24.6393 C   0  0  0  0  0  0  0  0  0  0  0  0
  -28.7936  -17.0383   25.0526 C   0  0  0  0  0  0  0  0  0  0  0  0
  -29.4424  -15.8918   25.5114 C   0  0  0  0  0  0  0  0  0  0  0  0
  -22.3511   -8.1327   21.4608 C   0  0  0  0  0  0  0  0  0  0  0  0
  -25.3974  -24.1032   26.8242 C   0  0  0  0  0  0  0  0  0  0  0  0
  -22.1637   -6.0595   22.5512 C   0  0  0  0  0  0  0  0  0  0  0  0
  -23.2311   -4.1713   24.3056 C   0  0  0  0  0  0  0  0  0  0  0  0
  -21.4578   -5.6955   23.6978 C   0  0  0  0  0  0  0  0  0  0  0  0
  -24.5774  -11.6660   20.7847 C   0  0  0  0  0  0  0  0  0  0  0  0
  -25.1981  -13.7566   20.5033 C   0  0  0  0  0  0  0  0  0  0  0  0
  -22.7534  -13.4726   20.9405 C   0  0  0  0  0  0  0  0  0  0  0  0
  -25.7933  -27.3842   22.5181 C   0  0  0  0  0  0  0  0  0  0  0  0
  -27.6695  -25.1424   21.1121 C   0  0  0  0  0  0  0  0  0  0  0  0
  -29.1520  -22.0742   21.2983 C   0  0  0  0  0  0  0  0  0  0  0  0
  -31.0486  -12.9217   21.4654 C   0  0  0  0  0  0  0  0  0  0  0  0
  -25.0388  -31.6780   19.8626 C   0  0  0  0  0  0  0  0  0  0  0  0
  -27.4811  -26.9292   24.3347 C   0  0  0  0  0  0  0  0  0  0  0  0
  -26.4114  -24.4265   23.1785 C   0  0  0  0  0  0  0  0  0  0  0  0
  -25.2438  -30.2045   19.5205 C   0  0  0  0  0  0  0  0  0  0  0  0
  -29.4652  -13.5848   18.3462 C   0  0  0  0  0  0  0  0  0  0  0  0
  -24.3230  -29.3277   20.3632 C   0  0  0  0  0  0  0  0  0  0  0  0
  -27.9890  -13.2874   18.6148 C   0  0  0  0  0  0  0  0  0  0  0  0
  -27.9001  -19.7911   28.2854 C   0  0  0  0  0  0  0  0  0  0  0  0
  -25.8056  -18.4396   27.8694 C   0  0  0  0  0  0  0  0  0  0  0  0
  -30.3809  -12.6220   19.0988 C   0  0  0  0  0  0  0  0  0  0  0  0
  -28.6576  -12.2421   20.8191 C   0  0  0  0  0  0  0  0  0  0  0  0
  -27.1067  -20.7241   29.1912 C   0  0  0  0  0  0  0  0  0  0  0  0
  -25.0282  -19.3827   28.7788 C   0  0  0  0  0  0  0  0  0  0  0  0
  -27.2918  -18.3797   28.2576 C   0  0  0  0  0  0  0  0  0  0  0  0
  -24.6299  -29.4821   21.8577 C   0  0  1  0  0  0  0  0  0  0  0  0
  -27.1412  -26.8105   22.8522 C   0  0  1  0  0  0  0  0  0  0  0  0
  -27.6960  -13.2224   20.1258 C   0  0  2  0  0  0  0  0  0  0  0  0
  -28.8324  -17.4221   23.6091 C   0  0  0  0  0  0  0  0  0  0  0  0
  -30.5924  -20.4990   19.9787 C   0  0  0  0  0  0  0  0  0  0  0  0
  -32.3225  -11.9448   24.3036 C   0  0  0  0  0  0  0  0  0  0  0  0
  -25.2657  -24.3912   19.3895 C   0  0  0  0  0  0  0  0  0  0  0  0
  -26.4401  -22.2593   18.8033 C   0  0  0  0  0  0  0  0  0  0  0  0
  -27.4468  -24.4513   18.1674 C   0  0  0  0  0  0  0  0  0  0  0  0
  -31.2963  -22.1429   23.3370 C   0  0  0  0  0  0  0  0  0  0  0  0
  -30.8363  -13.8760   25.0430 C   0  0  0  0  0  0  0  0  0  0  0  0
  -24.8618  -21.7552   29.5261 C   0  0  0  0  0  0  0  0  0  0  0  0
  -25.1346  -23.1447   28.9847 C   0  0  0  0  0  0  0  0  0  1  0  0
  -27.4549  -23.7409   20.5938 C   0  0  1  0  0  0  0  0  0  0  0  0
  -30.5709  -21.6215   21.0045 C   0  0  2  0  0  0  0  0  0  0  0  0
  -31.5615  -13.1967   23.8780 C   0  0  2  0  0  0  0  0  0  0  0  0
  -26.6468  -23.7174   19.2657 C   0  0  0  0  0  0  0  0  0  0  0  0
  -25.8936  -11.5980   20.5678 N   0  0  0  0  0  0  0  0  0  0  0  0
  -26.2421  -12.8850   20.4001 N   0  0  0  0  0  0  0  0  0  0  0  0
  -27.1439  -25.4240   22.3810 N   0  0  0  0  0  0  0  0  0  0  0  0
  -30.0521  -12.6086   20.5263 N   0  0  0  0  0  0  0  0  0  0  0  0
  -25.3721  -15.0878   20.3617 N   0  0  0  0  0  0  0  0  0  0  0  0
  -21.7333  -12.5447   21.1913 N   0  0  0  0  0  0  0  0  0  0  0  0
  -30.1560  -15.0600   24.6209 N   0  0  0  0  0  0  0  0  0  0  0  0
  -25.8157  -28.7311   22.2104 N   0  0  0  0  0  0  0  0  0  0  0  0
  -28.7780  -23.1337   20.4990 N   0  0  0  0  0  0  0  0  0  0  0  0
  -30.6513  -12.8918   22.7966 N   0  0  0  0  0  0  0  0  0  0  0  0
  -25.6542  -20.7645   28.7549 N   0  3  0  0  0  0  0  0  0  0  0  0
  -31.2270  -21.1326   22.2500 N   0  3  0  0  0  0  0  0  0  0  0  0
  -22.4698  -14.6924   20.8686 O   0  0  0  0  0  0  0  0  0  0  0  0
  -24.8062  -26.6582   22.5364 O   0  0  0  0  0  0  0  0  0  0  0  0
  -28.2872  -25.9553   20.4197 O   0  0  0  0  0  0  0  0  0  0  0  0
  -28.4447  -21.5388   22.1490 O   0  0  0  0  0  0  0  0  0  0  0  0
  -32.2052  -13.2119   21.1413 O   0  0  0  0  0  0  0  0  0  0  0  0
  -21.6349   -6.9961   21.6789 O   0  0  0  0  0  0  0  0  0  0  0  0
  -24.7435  -23.2084   27.6138 O   0  0  0  0  0  0  0  0  0  1  0  0
  -23.7430   -3.2636   25.1471 F   0  0  0  0  0  0  0  0  0  0  0  0
  -20.2659   -6.2485   23.9614 F   0  0  0  0  0  0  0  0  0  0  0  0
  1  2  1  0  0  0  0
  1  5  2  0  0  0  0
  2  6  2  0  0  0  0
  3 10  2  0  0  0  0
  3 18  1  0  0  0  0
  4 11  1  0  0  0  0
  4 18  2  0  0  0  0
  5 21  1  0  0  0  0
  6 23  1  0  0  0  0
  7  9  2  0  0  0  0
  7 20  1  0  0  0  0
  8 12  2  0  0  0  0
  8 22  1  0  0  0  0
  9 26  1  0  0  0  0
 10 27  1  0  0  0  0
 11 27  2  0  0  0  0
 12 28  1  0  0  0  0
 13 14  2  0  0  0  0
 13 29  1  0  0  0  0
 14 30  1  0  0  0  0
 15 20  2  0  0  0  0
 15 25  1  0  0  0  0
 16 24  1  0  0  0  0
 16 28  2  0  0  0  0
 17 30  2  0  0  0  0
 17 31  1  0  0  0  0
 18 32  1  0  0  0  0
 19 32  1  0  0  0  0
 19 33  2  0  0  0  0
 19 34  1  0  0  0  0
 20 52  1  0  0  0  0
 21 23  2  0  0  0  0
 21 39  1  0  0  0  0
 22 24  2  0  0  0  0
 22 40  1  0  0  0  0
 23 53  1  0  0  0  0
 24 41  1  0  0  0  0
 25 26  2  0  0  0  0
 25 56  1  0  0  0  0
 26 76  1  0  0  0  0
 27 87  1  0  0  0  0
 28 88  1  0  0  0  0
 29 31  2  0  0  0  0
 29 87  1  0  0  0  0
 30 89  1  0  0  0  0
 31 90  1  0  0  0  0
 32 70  2  0  0  0  0
 33 71  1  0  0  0  0
 33 74  1  0  0  0  0
 34 75  1  0  0  0  0
 34 82  2  0  0  0  0
 35 54  1  0  0  0  0
 35 77  1  0  0  0  0
 35 83  2  0  0  0  0
 36 66  1  0  0  0  0
 36 72  1  0  0  0  0
 36 84  2  0  0  0  0
 37 67  1  0  0  0  0
 37 78  1  0  0  0  0
 37 85  2  0  0  0  0
 38 73  1  0  0  0  0
 38 79  1  0  0  0  0
 38 86  2  0  0  0  0
 39 42  1  0  0  0  0
 40 54  1  0  0  0  0
 41 72  1  0  0  0  0
 42 44  1  0  0  0  0
 43 45  1  0  0  0  0
 43 48  1  0  0  0  0
 44 53  1  0  0  0  0
 45 55  1  0  0  0  0
 46 50  1  0  0  0  0
 46 52  1  0  0  0  0
 47 51  1  0  0  0  0
 47 52  1  0  0  0  0
 48 73  1  0  0  0  0
 49 55  1  0  0  0  0
 49 73  1  0  0  0  0
 50 80  1  0  0  0  0
 51 80  1  0  0  0  0
 53 77  1  0  0  0  0
 54 72  1  0  0  0  0
 55 71  1  0  0  0  0
 57 67  1  0  0  0  0
 58 68  1  0  0  0  0
 59 69  1  0  0  0  0
 60 69  1  0  0  0  0
 61 69  1  0  0  0  0
 62 81  1  0  0  0  0
 63 68  1  0  0  0  0
 63 76  1  0  0  0  0
 64 65  1  0  0  0  0
 64 80  1  0  0  0  0
 65 88  1  0  0  0  0
 66 69  1  0  0  0  0
 66 78  1  0  0  0  0
 67 81  1  0  0  0  0
 68 79  1  0  0  0  0
 70 71  1  0  0  0  0
M  CHG  2  80   1  81   1
M  ISO  4  38 100  65 101  79 100  88 101
M  END
> <Batch ID>
0141

> <Smiles>
CNC(C)C(=O)NC(C(=O)N1Cc2cc([101O:1][101CH2:1]CN3CCC(c4ccc(NCC(C)[100NH:0][100C:0](=O)N5CCCC(n6nc(-c7ccc(Oc8ccc(F)cc8F)cc7)c(C(N)=O)c6N)C5)c(C)c4)CC3)ccc2CC1C(=O)NC1CCCc2ccccc21)C(C)(C)C

> <Shape>
0.228

> <Color>
0.203

> <Negative vol penalty>
0.000

$$$$

  -OEChem-04052321163D

 86 95  0     1  0  0  0  0  0999 V2000
  -23.0319  -38.0874   21.7524 C   0  0  0  0  0  0  0  0  0  0  0  0
  -24.1608  -37.3094   21.9884 C   0  0  0  0  0  0  0  0  0  0  0  0
  -23.3974   -9.5437   19.7932 C   0  0  0  0  0  0  0  0  0  0  0  0
  -24.5520   -9.1223   21.8732 C   0  0  0  0  0  0  0  0  0  0  0  0
  -21.7667  -37.5900   22.0618 C   0  0  0  0  0  0  0  0  0  0  0  0
  -24.0251  -36.0337   22.5350 C   0  0  0  0  0  0  0  0  0  0  0  0
  -26.4654  -30.2246   19.0435 C   0  0  0  0  0  0  0  0  0  0  0  0
  -22.2291   -9.0054   20.3327 C   0  0  0  0  0  0  0  0  0  0  0  0
  -23.3837   -8.5841   22.4127 C   0  0  0  0  0  0  0  0  0  0  0  0
  -27.0935  -29.0873   18.5354 C   0  0  0  0  0  0  0  0  0  0  0  0
  -21.6768   -5.6701   22.2505 C   0  0  0  0  0  0  0  0  0  0  0  0
  -21.7824   -4.4756   22.9630 C   0  0  0  0  0  0  0  0  0  0  0  0
  -26.1756  -27.7620   20.3380 C   0  0  0  0  0  0  0  0  0  0  0  0
  -20.9088   -5.5720   24.9306 C   0  0  0  0  0  0  0  0  0  0  0  0
  -24.5589   -9.6021   20.5635 C   0  0  0  0  0  0  0  0  0  0  0  0
  -26.4676   -9.7024   18.8740 C   0  0  0  0  0  0  0  0  0  0  0  0
  -21.6147  -36.3039   22.6035 C   0  0  0  0  0  0  0  0  0  0  0  0
  -25.6764  -30.1317   20.1934 C   0  0  0  0  0  0  0  0  0  0  0  0
  -22.7568  -35.5191   22.8532 C   0  0  0  0  0  0  0  0  0  0  0  0
  -25.5338  -28.8953   20.8444 C   0  0  0  0  0  0  0  0  0  0  0  0
  -22.2223   -8.5257   21.6424 C   0  0  0  0  0  0  0  0  0  0  0  0
  -26.9492  -27.8591   19.1813 C   0  0  0  0  0  0  0  0  0  0  0  0
  -21.1873   -6.8156   22.8781 C   0  0  0  0  0  0  0  0  0  0  0  0
  -21.3983   -4.4265   24.3030 C   0  0  0  0  0  0  0  0  0  0  0  0
  -20.8033   -6.7666   24.2182 C   0  0  0  0  0  0  0  0  0  0  0  0
  -25.7662  -10.1574   20.0066 C   0  0  0  0  0  0  0  0  0  0  0  0
  -27.5346  -10.5602   18.7634 C   0  0  0  0  0  0  0  0  0  0  0  0
  -26.1804   -8.6027   18.0000 C   0  0  0  0  0  0  0  0  0  0  0  0
  -23.4769  -31.8999   22.6656 C   0  0  0  0  0  0  0  0  0  0  0  0
  -22.1828  -29.1743   22.1112 C   0  0  0  0  0  0  0  0  0  0  0  0
  -20.8656  -26.2655   20.9108 C   0  0  0  0  0  0  0  0  0  0  0  0
  -28.2910  -16.1443   20.5245 C   0  0  0  0  0  0  0  0  0  0  0  0
  -20.2303  -35.8276   22.9657 C   0  0  0  0  0  0  0  0  0  0  0  0
  -25.0313  -31.3427   20.8109 C   0  0  0  0  0  0  0  0  0  0  0  0
  -24.7037  -28.8497   22.0981 C   0  0  0  0  0  0  0  0  0  0  0  0
  -20.1448  -34.3207   23.1937 C   0  0  0  0  0  0  0  0  0  0  0  0
  -30.3968  -13.3373   21.4097 C   0  0  0  0  0  0  0  0  0  0  0  0
  -21.2916  -33.8492   24.0822 C   0  0  0  0  0  0  0  0  0  0  0  0
  -30.0931  -20.8099   20.8425 C   0  0  0  0  0  0  0  0  0  0  0  0
  -29.7048  -20.0242   18.4720 C   0  0  0  0  0  0  0  0  0  0  0  0
  -27.4392  -23.3578   19.4800 C   0  0  0  0  0  0  0  0  0  0  0  0
  -29.5006  -12.1551   21.0364 C   0  0  0  0  0  0  0  0  0  0  0  0
  -29.6420  -19.4731   21.4424 C   0  0  0  0  0  0  0  0  0  0  0  0
  -29.8739  -18.6237   19.0722 C   0  0  0  0  0  0  0  0  0  0  0  0
  -26.8245  -24.7237   19.7893 C   0  0  0  0  0  0  0  0  0  0  0  0
  -29.5815  -14.4847   21.9986 C   0  0  0  0  0  0  0  0  0  0  0  0
  -27.5745  -13.7827   20.7526 C   0  0  0  0  0  0  0  0  0  0  0  0
  -22.6487  -34.1209   23.4218 C   0  0  1  0  0  0  0  0  0  0  0  0
  -23.6655  -31.0380   21.4519 C   0  0  1  0  0  0  0  0  0  0  0  0
  -29.3947  -21.1118   19.5150 C   0  0  0  0  0  0  0  0  0  0  0  0
  -28.9395  -23.5634   19.6672 C   0  0  2  0  0  0  0  0  0  0  0  0
  -28.3366  -12.5985   20.1306 C   0  0  2  0  0  0  0  0  0  0  0  0
  -29.1274  -18.4768   20.3950 C   0  0  0  0  0  0  0  0  0  0  0  0
  -27.9521  -25.7455   19.6106 C   0  0  1  0  0  0  0  0  0  1  0  0
  -29.1465  -24.9559   19.0785 C   0  0  1  0  0  0  0  0  0  0  0  0
  -32.2007  -21.7886   18.5008 C   0  0  0  0  0  0  0  0  0  0  0  0
  -18.8864  -24.7446   21.1703 C   0  0  0  0  0  0  0  0  0  0  0  0
  -23.3439  -28.1154   24.7255 C   0  0  0  0  0  0  0  0  0  0  0  0
  -21.9412  -26.0621   24.4344 C   0  0  0  0  0  0  0  0  0  0  0  0
  -20.8495  -28.2909   24.6869 C   0  0  0  0  0  0  0  0  0  0  0  0
  -20.0581  -26.6442   18.0889 C   0  0  0  0  0  0  0  0  0  0  0  0
  -31.2795  -22.7894   19.1838 C   0  0  0  0  0  0  0  0  0  0  0  0
  -22.0424  -27.7324   22.5288 C   0  0  1  0  0  0  0  0  0  0  0  0
  -19.4754  -25.9211   20.4076 C   0  0  2  0  0  0  0  0  0  0  0  0
  -29.7790  -22.4928   18.9880 C   0  0  1  0  0  0  0  0  0  0  0  0
  -22.0627  -27.5581   24.0737 C   0  0  0  0  0  0  0  0  0  0  0  0
  -26.3394  -11.2215   20.5750 N   0  0  0  0  0  0  0  0  0  0  0  0
  -27.4123  -11.4423   19.7964 N   0  0  0  0  0  0  0  0  0  0  0  0
  -23.4845  -29.6544   21.9229 N   0  0  0  0  0  0  0  0  0  0  0  0
  -28.5018  -14.8711   21.0794 N   0  0  0  0  0  0  0  0  0  0  0  0
  -28.5561  -10.6384   17.8843 N   0  0  0  0  0  0  0  0  0  0  0  0
  -26.7189   -7.3460   18.3082 N   0  0  0  0  0  0  0  0  0  0  0  0
  -22.9186  -33.1351   22.3973 N   0  0  0  0  0  0  0  0  0  0  0  0
  -20.8287  -27.2380   21.8876 N   0  0  0  0  0  0  0  0  0  0  0  0
  -29.2098  -17.1206   20.8897 N   0  0  0  0  0  0  0  0  0  0  0  0
  -19.5212  -25.5677   18.9606 N   0  3  0  0  0  0  0  0  0  0  0  0
  -25.4807   -8.7343   16.9672 O   0  0  0  0  0  0  0  0  0  0  0  0
  -23.8114  -31.4759   23.7656 O   0  0  0  0  0  0  0  0  0  0  0  0
  -21.1678  -29.8603   21.9609 O   0  0  0  0  0  0  0  0  0  0  0  0
  -21.8821  -25.7232   20.4831 O   0  0  0  0  0  0  0  0  0  0  0  0
  -27.3558  -16.3918   19.7556 O   0  0  0  0  0  0  0  0  0  0  0  0
  -30.3696  -25.5139   19.5277 O   0  0  0  0  0  0  0  0  0  0  0  0
  -21.0824   -8.0006   22.1692 O   0  0  0  0  0  0  0  0  0  0  0  0
  -27.5615  -26.7519   18.6773 O   0  0  0  0  0  0  0  0  0  1  0  0
  -21.4983   -3.2790   24.9866 F   0  0  0  0  0  0  0  0  0  0  0  0
  -20.3311   -7.8635   24.8262 F   0  0  0  0  0  0  0  0  0  0  0  0
  1  2  1  0  0  0  0
  1  5  2  0  0  0  0
  2  6  2  0  0  0  0
  3  8  2  0  0  0  0
  3 15  1  0  0  0  0
  4  9  1  0  0  0  0
  4 15  2  0  0  0  0
  5 17  1  0  0  0  0
  6 19  1  0  0  0  0
  7 10  2  0  0  0  0
  7 18  1  0  0  0  0
  8 21  1  0  0  0  0
  9 21  2  0  0  0  0
 10 22  1  0  0  0  0
 11 12  2  0  0  0  0
 11 23  1  0  0  0  0
 12 24  1  0  0  0  0
 13 20  1  0  0  0  0
 13 22  2  0  0  0  0
 14 24  2  0  0  0  0
 14 25  1  0  0  0  0
 15 26  1  0  0  0  0
 16 26  1  0  0  0  0
 16 27  2  0  0  0  0
 16 28  1  0  0  0  0
 17 19  2  0  0  0  0
 17 33  1  0  0  0  0
 18 20  2  0  0  0  0
 18 34  1  0  0  0  0
 19 48  1  0  0  0  0
 20 35  1  0  0  0  0
 21 83  1  0  0  0  0
 22 84  1  0  0  0  0
 23 25  2  0  0  0  0
 23 83  1  0  0  0  0
 24 85  1  0  0  0  0
 25 86  1  0  0  0  0
 26 67  2  0  0  0  0
 27 68  1  0  0  0  0
 27 71  1  0  0  0  0
 28 72  1  0  0  0  0
 28 77  2  0  0  0  0
 29 49  1  0  0  0  0
 29 73  1  0  0  0  0
 29 78  2  0  0  0  0
 30 63  1  0  0  0  0
 30 69  1  0  0  0  0
 30 79  2  0  0  0  0
 31 64  1  0  0  0  0
 31 74  1  0  0  0  0
 31 80  2  0  0  0  0
 32 70  1  0  0  0  0
 32 75  1  0  0  0  0
 32 81  2  0  0  0  0
 33 36  1  0  0  0  0
 34 49  1  0  0  0  0
 35 69  1  0  0  0  0
 36 38  1  0  0  0  0
 37 42  1  0  0  0  0
 37 46  1  0  0  0  0
 38 48  1  0  0  0  0
 39 43  1  0  0  0  0
 39 50  1  0  0  0  0
 40 44  1  0  0  0  0
 40 50  1  0  0  0  0
 41 45  1  0  0  0  0
 41 51  1  0  0  0  0
 42 52  1  0  0  0  0
 43 53  1  0  0  0  0
 44 53  1  0  0  0  0
 45 54  1  0  0  0  0
 46 70  1  0  0  0  0
 47 52  1  0  0  0  0
 47 70  1  0  0  0  0
 48 73  1  0  0  0  0
 49 69  1  0  0  0  0
 50 65  1  0  0  0  0
 51 55  1  0  0  0  0
 51 65  1  0  0  0  0
 52 68  1  0  0  0  0
 53 75  1  0  0  0  0
 54 55  1  0  0  0  0
 54 84  1  0  0  0  0
 55 82  1  0  0  0  0
 56 62  1  0  0  0  0
 57 64  1  0  0  0  0
 58 66  1  0  0  0  0
 59 66  1  0  0  0  0
 60 66  1  0  0  0  0
 61 76  1  0  0  0  0
 62 65  1  0  0  0  0
 63 66  1  0  0  0  0
 63 74  1  0  0  0  0
 64 76  1  0  0  0  0
 67 68  1  0  0  0  0
M  CHG  1  76   1
M  ISO  4  32 100  54 101  75 100  84 101
M  END
> <Batch ID>
0141

> <Smiles>
CCC(C1CCC([100NH:0][100C:0](=O)N2CCCC(n3nc(-c4ccc(Oc5ccc(F)cc5F)cc4)c(C(N)=O)c3N)C2)CC1)C1CC[101CH:1]([101O:1]c2ccc3c(c2)CN(C(=O)C(NC(=O)C(C)NC)C(C)(C)C)C(C(=O)NC2CCCc4ccccc42)C3)C1O

> <Shape>
0.316

> <Color>
0.103

> <Negative vol penalty>
0.000

$$$$

  -OEChem-04052321163D

 85 94  0     1  0  0  0  0  0999 V2000
  -28.2966  -36.4622   21.5530 C   0  0  0  0  0  0  0  0  0  0  0  0
  -28.5430  -35.0930   21.5444 C   0  0  0  0  0  0  0  0  0  0  0  0
  -24.0496  -12.5168   21.2259 C   0  0  0  0  0  0  0  0  0  0  0  0
  -26.3315  -12.9227   20.5437 C   0  0  0  0  0  0  0  0  0  0  0  0
  -27.1556  -36.9601   22.1807 C   0  0  0  0  0  0  0  0  0  0  0  0
  -27.6489  -34.2210   22.1645 C   0  0  0  0  0  0  0  0  0  0  0  0
  -26.6335  -30.1446   19.3366 C   0  0  0  0  0  0  0  0  0  0  0  0
  -24.1380  -11.2106   20.7448 C   0  0  0  0  0  0  0  0  0  0  0  0
  -26.4200  -11.6164   20.0626 C   0  0  0  0  0  0  0  0  0  0  0  0
  -27.5920  -29.1324   19.3113 C   0  0  0  0  0  0  0  0  0  0  0  0
  -23.8805   -7.6571   20.0226 C   0  0  0  0  0  0  0  0  0  0  0  0
  -23.3770   -6.6345   20.8264 C   0  0  0  0  0  0  0  0  0  0  0  0
  -26.3028  -27.8798   20.9201 C   0  0  0  0  0  0  0  0  0  0  0  0
  -27.3275  -22.4043   18.5535 C   0  0  0  0  0  0  0  0  0  0  0  0
  -24.9358   -7.2382   22.5709 C   0  0  0  0  0  0  0  0  0  0  0  0
  -25.1463  -13.3729   21.1253 C   0  0  0  0  0  0  0  0  0  0  0  0
  -25.3632  -15.1737   22.9191 C   0  0  0  0  0  0  0  0  0  0  0  0
  -26.2421  -36.0929   22.8005 C   0  0  0  0  0  0  0  0  0  0  0  0
  -25.5060  -30.0368   20.1634 C   0  0  0  0  0  0  0  0  0  0  0  0
  -26.4952  -34.7079   22.8022 C   0  0  0  0  0  0  0  0  0  0  0  0
  -25.3302  -28.8908   20.9521 C   0  0  0  0  0  0  0  0  0  0  0  0
  -28.8145  -20.5227   18.3734 C   0  0  0  0  0  0  0  0  0  0  0  0
  -27.5227  -21.0322   18.4423 C   0  0  0  0  0  0  0  0  0  0  0  0
  -25.3232  -10.7603   20.1632 C   0  0  0  0  0  0  0  0  0  0  0  0
  -27.4281  -28.0011   20.1053 C   0  0  0  0  0  0  0  0  0  0  0  0
  -24.9117   -8.4703   20.4928 C   0  0  0  0  0  0  0  0  0  0  0  0
  -23.9046   -6.4250   22.1006 C   0  0  0  0  0  0  0  0  0  0  0  0
  -25.4393   -8.2609   21.7669 C   0  0  0  0  0  0  0  0  0  0  0  0
  -25.0553  -14.7226   21.6216 C   0  0  0  0  0  0  0  0  0  0  0  0
  -28.4484  -23.2179   18.5915 C   0  0  0  0  0  0  0  0  0  0  0  0
  -29.8689  -21.4205   18.4192 C   0  0  0  0  0  0  0  0  0  0  0  0
  -25.1128  -16.5237   22.8816 C   0  0  0  0  0  0  0  0  0  0  0  0
  -25.8335  -14.4384   24.0565 C   0  0  0  0  0  0  0  0  0  0  0  0
  -24.3505  -31.7052   22.6098 C   0  0  0  0  0  0  0  0  0  0  0  0
  -21.8393  -29.6748   22.3039 C   0  0  0  0  0  0  0  0  0  0  0  0
  -20.6715  -26.6516   21.2348 C   0  0  0  0  0  0  0  0  0  0  0  0
  -25.0515  -20.5429   18.4604 C   0  0  0  0  0  0  0  0  0  0  0  0
  -25.0469  -36.6819   23.5072 C   0  0  0  0  0  0  0  0  0  0  0  0
  -24.4679  -31.1252   20.1591 C   0  0  0  0  0  0  0  0  0  0  0  0
  -24.1273  -28.7174   21.8418 C   0  0  0  0  0  0  0  0  0  0  0  0
  -23.9572  -35.6587   23.8167 C   0  0  0  0  0  0  0  0  0  0  0  0
  -22.3679  -19.7631   20.6666 C   0  0  0  0  0  0  0  0  0  0  0  0
  -28.4724  -18.1284   19.2813 C   0  0  0  0  0  0  0  0  0  0  0  0
  -29.9480  -18.3791   19.2670 C   0  0  0  0  0  0  0  0  0  0  0  0
  -24.5654  -34.3977   24.4225 C   0  0  0  0  0  0  0  0  0  0  0  0
  -22.7834  -18.4260   21.2845 C   0  0  0  0  0  0  0  0  0  0  0  0
  -22.7787  -19.8614   19.1985 C   0  0  0  0  0  0  0  0  0  0  0  0
  -24.6126  -18.2543   19.5491 C   0  0  0  0  0  0  0  0  0  0  0  0
  -29.0641  -19.0554   18.2534 C   0  0  0  0  0  0  0  0  0  0  0  0
  -25.5362  -33.7279   23.4426 C   0  0  1  0  0  0  0  0  0  0  0  0
  -23.6166  -31.1439   21.4249 C   0  0  1  0  0  0  0  0  0  0  0  0
  -24.2778  -18.1347   21.0449 C   0  0  2  0  0  0  0  0  0  0  0  0
  -18.5834  -25.2618   21.1575 C   0  0  0  0  0  0  0  0  0  0  0  0
  -22.1661  -29.0233   25.2668 C   0  0  0  0  0  0  0  0  0  0  0  0
  -20.7382  -26.9984   24.9075 C   0  0  0  0  0  0  0  0  0  0  0  0
  -19.7960  -29.2735   24.5089 C   0  0  0  0  0  0  0  0  0  0  0  0
  -20.6866  -26.5847   18.2760 C   0  0  0  0  0  0  0  0  0  0  0  0
  -32.1901  -21.9381   18.4067 C   0  0  0  0  0  0  0  0  0  0  0  0
  -29.0809  -26.8245   18.8644 C   0  0  0  0  0  0  0  0  0  1  0  0
  -29.4648  -25.3631   18.7356 C   0  0  0  0  0  0  0  0  0  0  0  0
  -21.4792  -28.3257   22.8777 C   0  0  1  0  0  0  0  0  0  0  0  0
  -19.4460  -26.2754   20.4217 C   0  0  2  0  0  0  0  0  0  0  0  0
  -21.0686  -28.4091   24.3750 C   0  0  0  0  0  0  0  0  0  0  0  0
  -24.6408  -15.7060   20.8185 N   0  0  0  0  0  0  0  0  0  0  0  0
  -29.7187  -22.7597   18.5270 N   0  0  0  0  0  0  0  0  0  0  0  0
  -24.6864  -16.7886   21.6135 N   0  0  0  0  0  0  0  0  0  0  0  0
  -23.1434  -29.8120   21.8075 N   0  0  0  0  0  0  0  0  0  0  0  0
  -24.2076  -19.5774   19.0489 N   0  0  0  0  0  0  0  0  0  0  0  0
  -25.2178  -17.4981   23.8101 N   0  0  0  0  0  0  0  0  0  0  0  0
  -26.0380  -13.0584   23.9219 N   0  0  0  0  0  0  0  0  0  0  0  0
  -26.3952  -20.1749   18.4012 N   0  0  0  0  0  0  0  0  0  0  0  0
  -24.8068  -32.9969   22.4287 N   0  0  0  0  0  0  0  0  0  0  0  0
  -20.4486  -27.7730   22.0054 N   0  0  0  0  0  0  0  0  0  0  0  0
  -19.8524  -25.6859   19.1147 N   0  3  0  0  0  0  0  0  0  0  0  0
  -26.0500  -14.9859   25.1641 O   0  0  0  0  0  0  0  0  0  0  0  0
  -24.4911  -31.0178   23.6145 O   0  0  0  0  0  0  0  0  0  0  0  0
  -20.9924  -30.5716   22.2898 O   0  0  0  0  0  0  0  0  0  0  0  0
  -21.7203  -26.0121   21.1935 O   0  0  0  0  0  0  0  0  0  0  0  0
  -24.6187  -21.6283   18.0646 O   0  0  0  0  0  0  0  0  0  0  0  0
  -25.4100   -9.4857   19.6938 O   0  0  0  0  0  0  0  0  0  0  0  0
  -28.3624  -27.0120   20.0830 O   0  0  0  0  0  0  0  0  0  1  0  0
  -31.1585  -20.9602   18.3541 O   0  0  0  0  0  0  0  0  0  0  0  0
  -28.2822  -24.5734   18.7009 O   0  0  0  0  0  0  0  0  0  0  0  0
  -23.4199   -5.4439   22.8730 F   0  0  0  0  0  0  0  0  0  0  0  0
  -26.4292   -9.0396   22.2246 F   0  0  0  0  0  0  0  0  0  0  0  0
  1  2  1  0  0  0  0
  1  5  2  0  0  0  0
  2  6  2  0  0  0  0
  3  8  2  0  0  0  0
  3 16  1  0  0  0  0
  4  9  1  0  0  0  0
  4 16  2  0  0  0  0
  5 18  1  0  0  0  0
  6 20  1  0  0  0  0
  7 10  2  0  0  0  0
  7 19  1  0  0  0  0
  8 24  1  0  0  0  0
  9 24  2  0  0  0  0
 10 25  1  0  0  0  0
 11 12  2  0  0  0  0
 11 26  1  0  0  0  0
 12 27  1  0  0  0  0
 13 21  1  0  0  0  0
 13 25  2  0  0  0  0
 14 23  2  0  0  0  0
 14 30  1  0  0  0  0
 15 27  2  0  0  0  0
 15 28  1  0  0  0  0
 16 29  1  0  0  0  0
 17 29  1  0  0  0  0
 17 32  2  0  0  0  0
 17 33  1  0  0  0  0
 18 20  2  0  0  0  0
 18 38  1  0  0  0  0
 19 21  2  0  0  0  0
 19 39  1  0  0  0  0
 20 50  1  0  0  0  0
 21 40  1  0  0  0  0
 22 23  1  0  0  0  0
 22 31  2  0  0  0  0
 22 49  1  0  0  0  0
 23 71  1  0  0  0  0
 24 80  1  0  0  0  0
 25 81  1  0  0  0  0
 26 28  2  0  0  0  0
 26 80  1  0  0  0  0
 27 84  1  0  0  0  0
 28 85  1  0  0  0  0
 29 64  2  0  0  0  0
 30 65  2  0  0  0  0
 30 83  1  0  0  0  0
 31 65  1  0  0  0  0
 31 82  1  0  0  0  0
 32 66  1  0  0  0  0
 32 69  1  0  0  0  0
 33 70  1  0  0  0  0
 33 75  2  0  0  0  0
 34 51  1  0  0  0  0
 34 72  1  0  0  0  0
 34 76  2  0  0  0  0
 35 61  1  0  0  0  0
 35 67  1  0  0  0  0
 35 77  2  0  0  0  0
 36 62  1  0  0  0  0
 36 73  1  0  0  0  0
 36 78  2  0  0  0  0
 37 68  1  0  0  0  0
 37 71  1  0  0  0  0
 37 79  2  0  0  0  0
 38 41  1  0  0  0  0
 39 51  1  0  0  0  0
 40 67  1  0  0  0  0
 41 45  1  0  0  0  0
 42 46  1  0  0  0  0
 42 47  1  0  0  0  0
 43 44  1  0  0  0  0
 43 49  1  0  0  0  0
 44 49  1  0  0  0  0
 45 50  1  0  0  0  0
 46 52  1  0  0  0  0
 47 68  1  0  0  0  0
 48 52  1  0  0  0  0
 48 68  1  0  0  0  0
 50 72  1  0  0  0  0
 51 67  1  0  0  0  0
 52 66  1  0  0  0  0
 53 62  1  0  0  0  0
 54 63  1  0  0  0  0
 55 63  1  0  0  0  0
 56 63  1  0  0  0  0
 57 74  1  0  0  0  0
 58 82  1  0  0  0  0
 59 60  1  0  0  0  0
 59 81  1  0  0  0  0
 60 83  1  0  0  0  0
 61 63  1  0  0  0  0
 61 73  1  0  0  0  0
 62 74  1  0  0  0  0
 64 66  1  0  0  0  0
M  CHG  1  74   1
M  ISO  4  37 100  59 101  71 100  81 101
M  END
> <Batch ID>
0141

> <Smiles>
CNC(C)C(=O)NC(C(=O)N1Cc2cc([101O:1][101CH2:1]COc3cc([100NH:0][100C:0](=O)N4CCCC(n5nc(-c6ccc(Oc7ccc(F)cc7F)cc6)c(C(N)=O)c5N)C4)c(C4CC4)c(OC)n3)ccc2CC1C(=O)NC1CCCc2ccccc21)C(C)(C)C

> <Shape>
0.267

> <Color>
0.076

> <Negative vol penalty>
0.000

$$$$

  -OEChem-04052321163D

 83 92  0     1  0  0  0  0  0999 V2000
  -30.2101  -29.4927   14.1499 C   0  0  0  0  0  0  0  0  0  0  0  0
  -30.6774  -28.1926   14.3133 C   0  0  0  0  0  0  0  0  0  0  0  0
  -23.0773   -9.8635   19.9430 C   0  0  0  0  0  0  0  0  0  0  0  0
  -23.8396   -9.8745   22.2356 C   0  0  0  0  0  0  0  0  0  0  0  0
  -30.4265  -30.4408   15.1491 C   0  0  0  0  0  0  0  0  0  0  0  0
  -31.3625  -27.8400   15.4756 C   0  0  0  0  0  0  0  0  0  0  0  0
  -31.1960  -22.4355   18.3512 C   0  0  0  0  0  0  0  0  0  0  0  0
  -35.6521  -18.4520   22.0684 C   0  0  0  0  0  0  0  0  0  0  0  0
  -22.3366   -8.7088   20.1949 C   0  0  0  0  0  0  0  0  0  0  0  0
  -23.0988   -8.7198   22.4875 C   0  0  0  0  0  0  0  0  0  0  0  0
  -32.0556  -21.3380   18.3358 C   0  0  0  0  0  0  0  0  0  0  0  0
  -35.4014  -19.1190   20.8683 C   0  0  0  0  0  0  0  0  0  0  0  0
  -19.8733   -7.9146   23.0942 C   0  0  0  0  0  0  0  0  0  0  0  0
  -19.1177   -7.8739   24.2659 C   0  0  0  0  0  0  0  0  0  0  0  0
  -33.1327  -22.1612   20.3311 C   0  0  0  0  0  0  0  0  0  0  0  0
  -33.0165  -19.1710   21.3459 C   0  0  0  0  0  0  0  0  0  0  0  0
  -20.3646   -5.9402   25.0029 C   0  0  0  0  0  0  0  0  0  0  0  0
  -23.8289  -10.4464   20.9634 C   0  0  0  0  0  0  0  0  0  0  0  0
  -24.1644  -12.9723   20.8406 C   0  0  0  0  0  0  0  0  0  0  0  0
  -31.1061  -30.0971   16.3284 C   0  0  0  0  0  0  0  0  0  0  0  0
  -31.3056  -23.4114   19.3521 C   0  0  0  0  0  0  0  0  0  0  0  0
  -34.5804  -18.1638   22.8977 C   0  0  0  0  0  0  0  0  0  0  0  0
  -31.5894  -28.7847   16.4908 C   0  0  0  0  0  0  0  0  0  0  0  0
  -32.2716  -23.2688   20.3584 C   0  0  0  0  0  0  0  0  0  0  0  0
  -33.2699  -18.5150   22.5420 C   0  0  0  0  0  0  0  0  0  0  0  0
  -22.3473   -8.1369   21.4671 C   0  0  0  0  0  0  0  0  0  0  0  0
  -33.0260  -21.2022   19.3242 C   0  0  0  0  0  0  0  0  0  0  0  0
  -34.0930  -19.4763   20.5097 C   0  0  0  0  0  0  0  0  0  1  0  0
  -20.8745   -6.9681   22.8767 C   0  0  0  0  0  0  0  0  0  0  0  0
  -19.3634   -6.8868   25.2203 C   0  0  0  0  0  0  0  0  0  0  0  0
  -21.1202   -5.9809   23.8311 C   0  0  0  0  0  0  0  0  0  0  0  0
  -24.5948  -11.6389   20.7037 C   0  0  0  0  0  0  0  0  0  0  0  0
  -25.2544  -13.7241   20.4755 C   0  0  0  0  0  0  0  0  0  0  0  0
  -22.8931  -13.4853   21.2604 C   0  0  0  0  0  0  0  0  0  0  0  0
  -31.9542  -26.5230   19.3899 C   0  0  0  0  0  0  0  0  0  0  0  0
  -31.2441  -26.2361   22.5420 C   0  0  0  0  0  0  0  0  0  0  0  0
  -31.0124  -24.2232   25.2881 C   0  0  0  0  0  0  0  0  0  0  0  0
  -30.7358  -14.7567   20.6570 C   0  0  0  0  0  0  0  0  0  0  0  0
  -31.3575  -31.1684   17.3598 C   0  0  0  0  0  0  0  0  0  0  0  0
  -34.6097  -17.4320   24.2021 C   0  0  0  0  0  0  0  0  0  0  0  0
  -30.3532  -24.5755   19.3699 C   0  0  0  0  0  0  0  0  0  0  0  0
  -32.4171  -24.2783   21.4667 C   0  0  0  0  0  0  0  0  0  0  0  0
  -31.7645  -30.6171   18.7238 C   0  0  0  0  0  0  0  0  0  0  0  0
  -33.2475  -17.8270   24.7921 C   0  0  0  0  0  0  0  0  0  0  0  0
  -29.6015  -12.3672   18.2737 C   0  0  0  0  0  0  0  0  0  0  0  0
  -32.8372  -29.5439   18.5675 C   0  0  0  0  0  0  0  0  0  0  0  0
  -28.1652  -12.0704   18.7085 C   0  0  0  0  0  0  0  0  0  0  0  0
  -30.5194  -12.5914   19.4734 C   0  0  0  0  0  0  0  0  0  0  0  0
  -28.6173  -13.3191   20.8614 C   0  0  0  0  0  0  0  0  0  0  0  0
  -32.3152  -28.3575   17.7481 C   0  0  1  0  0  0  0  0  0  0  0  0
  -30.8908  -25.7755   20.1435 C   0  0  1  0  0  0  0  0  0  0  0  0
  -27.6423  -13.1410   19.6849 C   0  0  2  0  0  0  0  0  0  0  0  0
  -32.2868  -18.0564   23.5943 C   0  0  1  0  0  0  0  0  0  0  0  0
  -31.2286  -19.1077   23.9385 C   0  0  0  0  0  0  0  0  0  0  0  0
  -30.4417  -24.2820   27.7311 C   0  0  0  0  0  0  0  0  0  0  0  0
  -33.9446  -27.5248   23.1393 C   0  0  0  0  0  0  0  0  0  0  0  0
  -33.7381  -26.7013   25.4946 C   0  0  0  0  0  0  0  0  0  0  0  0
  -32.0671  -28.3170   24.5891 C   0  0  0  0  0  0  0  0  0  0  0  0
  -28.7682  -22.3276   24.9282 C   0  0  0  0  0  0  0  0  0  0  0  0
  -31.6133  -16.7467   23.1634 C   0  0  0  0  0  0  0  0  0  0  0  0
  -30.7977  -16.9086   21.8918 C   0  0  0  0  0  0  0  0  0  0  0  0
  -32.0310  -25.9185   23.7905 C   0  0  1  0  0  0  0  0  0  0  0  0
  -29.9147  -24.0536   26.3229 C   0  0  2  0  0  0  0  0  0  0  0  0
  -32.9440  -27.0972   24.2315 C   0  0  0  0  0  0  0  0  0  0  0  0
  -25.8594  -11.5458   20.2842 N   0  0  0  0  0  0  0  0  0  0  0  0
  -26.2331  -12.8302   20.1542 N   0  0  0  0  0  0  0  0  0  0  0  0
  -31.4666  -25.4022   21.4371 N   0  0  0  0  0  0  0  0  0  0  0  0
  -29.9672  -13.6194   20.3590 N   0  0  0  0  0  0  0  0  0  0  0  0
  -25.4614  -15.0560   20.4010 N   0  0  0  0  0  0  0  0  0  0  0  0
  -21.8838  -12.5740   21.5996 N   0  0  0  0  0  0  0  0  0  0  0  0
  -31.4650  -27.5159   18.5626 N   0  0  0  0  0  0  0  0  0  0  0  0
  -31.0552  -25.5103   24.7952 N   0  0  0  0  0  0  0  0  0  0  0  0
  -30.1352  -15.6849   21.4988 N   0  0  0  0  0  0  0  0  0  0  0  0
  -29.3439  -22.6788   26.2519 N   0  3  0  0  0  0  0  0  0  0  0  0
  -22.6539  -14.7154   21.3169 O   0  0  0  0  0  0  0  0  0  0  0  0
  -33.1315  -26.2222   19.5483 O   0  0  0  0  0  0  0  0  0  0  0  0
  -30.4556  -27.1847   22.5491 O   0  0  0  0  0  0  0  0  0  0  0  0
  -31.7596  -23.3067   24.9533 O   0  0  0  0  0  0  0  0  0  0  0  0
  -31.8708  -14.9346   20.2020 O   0  0  0  0  0  0  0  0  0  0  0  0
  -21.6244   -7.0103   21.7132 O   0  0  0  0  0  0  0  0  0  0  0  0
  -33.8668  -20.1322   19.3112 O   0  0  0  0  0  0  0  0  0  1  0  0
  -18.6387   -6.8488   26.3462 F   0  0  0  0  0  0  0  0  0  0  0  0
  -22.0816   -5.0696   23.6283 F   0  0  0  0  0  0  0  0  0  0  0  0
  1  2  1  0  0  0  0
  1  5  2  0  0  0  0
  2  6  2  0  0  0  0
  3  9  2  0  0  0  0
  3 18  1  0  0  0  0
  4 10  1  0  0  0  0
  4 18  2  0  0  0  0
  5 20  1  0  0  0  0
  6 23  1  0  0  0  0
  7 11  2  0  0  0  0
  7 21  1  0  0  0  0
  8 12  2  0  0  0  0
  8 22  1  0  0  0  0
  9 26  1  0  0  0  0
 10 26  2  0  0  0  0
 11 27  1  0  0  0  0
 12 28  1  0  0  0  0
 13 14  2  0  0  0  0
 13 29  1  0  0  0  0
 14 30  1  0  0  0  0
 15 24  1  0  0  0  0
 15 27  2  0  0  0  0
 16 25  1  0  0  0  0
 16 28  2  0  0  0  0
 17 30  2  0  0  0  0
 17 31  1  0  0  0  0
 18 32  1  0  0  0  0
 19 32  1  0  0  0  0
 19 33  2  0  0  0  0
 19 34  1  0  0  0  0
 20 23  2  0  0  0  0
 20 39  1  0  0  0  0
 21 24  2  0  0  0  0
 21 41  1  0  0  0  0
 22 25  2  0  0  0  0
 22 40  1  0  0  0  0
 23 50  1  0  0  0  0
 24 42  1  0  0  0  0
 25 53  1  0  0  0  0
 26 80  1  0  0  0  0
 27 81  1  0  0  0  0
 28 81  1  0  0  0  0
 29 31  2  0  0  0  0
 29 80  1  0  0  0  0
 30 82  1  0  0  0  0
 31 83  1  0  0  0  0
 32 65  2  0  0  0  0
 33 66  1  0  0  0  0
 33 69  1  0  0  0  0
 34 70  1  0  0  0  0
 34 75  2  0  0  0  0
 35 51  1  0  0  0  0
 35 71  1  0  0  0  0
 35 76  2  0  0  0  0
 36 62  1  0  0  0  0
 36 67  1  0  0  0  0
 36 77  2  0  0  0  0
 37 63  1  0  0  0  0
 37 72  1  0  0  0  0
 37 78  2  0  0  0  0
 38 68  1  0  0  0  0
 38 73  1  0  0  0  0
 38 79  2  0  0  0  0
 39 43  1  0  0  0  0
 40 44  1  0  0  0  0
 41 51  1  0  0  0  0
 42 67  1  0  0  0  0
 43 46  1  0  0  0  0
 44 53  1  0  0  0  0
 45 47  1  0  0  0  0
 45 48  1  0  0  0  0
 46 50  1  0  0  0  0
 47 52  1  0  0  0  0
 48 68  1  0  0  0  0
 49 52  1  0  0  0  0
 49 68  1  0  0  0  0
 50 71  1  0  0  0  0
 51 67  1  0  0  0  0
 52 66  1  0  0  0  0
 53 54  1  0  0  0  0
 53 60  1  0  0  0  0
 55 63  1  0  0  0  0
 56 64  1  0  0  0  0
 57 64  1  0  0  0  0
 58 64  1  0  0  0  0
 59 74  1  0  0  0  0
 60 61  1  0  0  0  0
 61 73  1  0  0  0  0
 62 64  1  0  0  0  0
 62 72  1  0  0  0  0
 63 74  1  0  0  0  0
 65 66  1  0  0  0  0
M  CHG  1  74   1
M  ISO  4  28 101  38 100  73 100  81 101
M  END
> <Batch ID>
0141

> <Smiles>
CNC(C)C(=O)NC(C(=O)N1Cc2cc([101O:1][101c:1]3ccc4c(c3)C(C)(CC[100NH:0][100C:0](=O)N3CCCC(n5nc(-c6ccc(Oc7ccc(F)cc7F)cc6)c(C(N)=O)c5N)C3)CC4)ccc2CC1C(=O)NC1CCCc2ccccc21)C(C)(C)C

> <Shape>
0.199

> <Color>
0.196

> <Negative vol penalty>
0.000

$$$$

  -OEChem-04052321163D

 84 92  0     1  0  0  0  0  0999 V2000
  -18.0865  -30.7417   23.4766 C   0  0  0  0  0  0  0  0  0  0  0  0
  -19.3209  -30.8228   24.1111 C   0  0  0  0  0  0  0  0  0  0  0  0
  -23.7373  -11.0536   23.5749 C   0  0  0  0  0  0  0  0  0  0  0  0
  -24.6001   -9.4405   21.9967 C   0  0  0  0  0  0  0  0  0  0  0  0
  -17.7384  -29.5846   22.7830 C   0  0  0  0  0  0  0  0  0  0  0  0
  -20.2123  -29.7515   24.0423 C   0  0  0  0  0  0  0  0  0  0  0  0
  -26.8751  -25.6280   25.3935 C   0  0  0  0  0  0  0  0  0  0  0  0
  -23.3036  -10.0153   24.3991 C   0  0  0  0  0  0  0  0  0  0  0  0
  -24.1664   -8.4021   22.8210 C   0  0  0  0  0  0  0  0  0  0  0  0
  -27.4070  -24.3393   25.3849 C   0  0  0  0  0  0  0  0  0  0  0  0
  -21.2578   -6.8284   23.5239 C   0  0  0  0  0  0  0  0  0  0  0  0
  -20.5975   -5.7567   22.9231 C   0  0  0  0  0  0  0  0  0  0  0  0
  -26.7258  -24.0799   23.0854 C   0  0  0  0  0  0  0  0  0  0  0  0
  -22.3038   -4.2507   23.7339 C   0  0  0  0  0  0  0  0  0  0  0  0
  -24.3855  -10.7662   22.3736 C   0  0  0  0  0  0  0  0  0  0  0  0
  -24.0411  -12.8376   20.9251 C   0  0  0  0  0  0  0  0  0  0  0  0
  -18.6214  -28.4943   22.7167 C   0  0  0  0  0  0  0  0  0  0  0  0
  -26.2538  -26.1492   24.2495 C   0  0  0  0  0  0  0  0  0  0  0  0
  -19.8890  -28.5843   23.3271 C   0  0  0  0  0  0  0  0  0  0  0  0
  -26.1891  -25.3764   23.0812 C   0  0  0  0  0  0  0  0  0  0  0  0
  -23.5181   -8.6896   24.0222 C   0  0  0  0  0  0  0  0  0  0  0  0
  -27.3299  -23.5639   24.2317 C   0  0  0  0  0  0  0  0  0  0  0  0
  -22.4412   -6.6112   24.2297 C   0  0  0  0  0  0  0  0  0  0  0  0
  -21.1204   -4.4678   23.0281 C   0  0  0  0  0  0  0  0  0  0  0  0
  -22.9642   -5.3224   24.3347 C   0  0  0  0  0  0  0  0  0  0  0  0
  -24.8333  -11.8384   21.5215 C   0  0  0  0  0  0  0  0  0  0  0  0
  -24.9334  -13.6077   20.2199 C   0  0  0  0  0  0  0  0  0  0  0  0
  -22.6254  -13.0507   21.0017 C   0  0  0  0  0  0  0  0  0  0  0  0
  -23.3223  -27.1616   23.5533 C   0  0  0  0  0  0  0  0  0  0  0  0
  -24.7055  -28.0181   20.7470 C   0  0  0  0  0  0  0  0  0  0  0  0
  -27.0912  -26.5951   18.4447 C   0  0  0  0  0  0  0  0  0  0  0  0
  -30.8021  -14.6311   20.8213 C   0  0  0  0  0  0  0  0  0  0  0  0
  -18.1967  -27.2693   21.9458 C   0  0  0  0  0  0  0  0  0  0  0  0
  -25.7087  -27.5510   24.2667 C   0  0  0  0  0  0  0  0  0  0  0  0
  -25.5504  -25.8970   21.8205 C   0  0  0  0  0  0  0  0  0  0  0  0
  -19.0135  -26.0310   22.3005 C   0  0  0  0  0  0  0  0  0  0  0  0
  -29.1374  -13.3383   17.9518 C   0  0  0  0  0  0  0  0  0  0  0  0
  -20.4989  -26.3556   22.2483 C   0  0  0  0  0  0  0  0  0  0  0  0
  -27.7741  -12.8975   18.4875 C   0  0  0  0  0  0  0  0  0  0  0  0
  -29.2804  -17.7519   22.5330 C   0  0  0  0  0  0  0  0  0  0  0  0
  -30.2509  -13.0853   18.9658 C   0  0  0  0  0  0  0  0  0  0  0  0
  -28.6529  -13.2251   20.8368 C   0  0  0  0  0  0  0  0  0  0  0  0
  -28.3142  -18.6706   23.2657 C   0  0  0  0  0  0  0  0  0  0  0  0
  -30.0860  -19.1498   24.9898 C   0  0  0  0  0  0  0  0  0  0  0  0
  -20.8623  -27.4199   23.2915 C   0  0  1  0  0  0  0  0  0  0  0  0
  -24.6414  -27.7901   23.2033 C   0  0  1  0  0  0  0  0  0  0  0  0
  -30.2880  -17.1094   23.4946 C   0  0  2  0  0  0  0  0  0  0  0  0
  -31.0564  -18.1713   24.3135 C   0  0  1  0  0  0  0  0  0  0  0  0
  -27.4900  -13.5118   19.8714 C   0  0  2  0  0  0  0  0  0  0  0  0
  -32.1627  -18.8852   23.5302 C   0  0  0  0  0  0  0  0  0  0  0  0
  -28.6698  -27.7029   16.8390 C   0  0  0  0  0  0  0  0  0  0  0  0
  -33.1586  -14.5131   22.9815 C   0  0  0  0  0  0  0  0  0  0  0  0
  -22.4646  -27.6137   18.7161 C   0  0  0  0  0  0  0  0  0  0  0  0
  -24.2093  -27.0818   17.0011 C   0  0  0  0  0  0  0  0  0  0  0  0
  -24.1598  -29.3351   18.0701 C   0  0  0  0  0  0  0  0  0  0  0  0
  -29.4311  -25.2008   19.6024 C   0  0  0  0  0  0  0  0  0  0  0  0
  -29.5121  -20.8864   23.2216 C   0  0  0  0  0  0  0  0  0  0  0  0
  -28.3412  -21.8170   22.9742 C   0  0  0  0  0  0  0  0  0  1  0  0
  -24.9344  -27.3409   19.4173 C   0  0  1  0  0  0  0  0  0  0  0  0
  -28.5166  -27.0614   18.2093 C   0  0  2  0  0  0  0  0  0  0  0  0
  -31.2086  -16.1449   22.7455 C   0  0  1  0  0  0  0  0  0  0  0  0
  -32.2261  -15.4885   23.6909 C   0  0  1  0  0  0  0  0  0  0  0  0
  -23.9405  -27.8280   18.3253 C   0  0  0  0  0  0  0  0  0  0  0  0
  -26.1291  -11.9600   21.2213 N   0  0  0  0  0  0  0  0  0  0  0  0
  -26.1580  -13.0447   20.4284 N   0  0  0  0  0  0  0  0  0  0  0  0
  -25.0264  -27.2711   21.8893 N   0  0  0  0  0  0  0  0  0  0  0  0
  -29.9204  -13.6950   20.2561 N   0  0  0  0  0  0  0  0  0  0  0  0
  -24.7820  -14.7048   19.4479 N   0  0  0  0  0  0  0  0  0  0  0  0
  -21.8571  -12.1655   21.7703 N   0  0  0  0  0  0  0  0  0  0  0  0
  -22.2254  -27.8504   23.0717 N   0  0  0  0  0  0  0  0  0  0  0  0
  -26.3387  -27.5562   19.0860 N   0  0  0  0  0  0  0  0  0  0  0  0
  -30.4102  -15.1654   22.0426 N   0  0  0  0  0  0  0  0  0  0  0  0
  -29.0527  -19.7211   24.0519 N   0  3  1  0  0  0  0  0  0  0  0  0
  -29.4594  -25.9106   18.2976 N   0  3  0  0  0  0  0  0  0  0  0  0
  -22.0562  -13.9882   20.3929 O   0  0  0  0  0  0  0  0  0  0  0  0
  -23.3012  -26.1274   24.2103 O   0  0  0  0  0  0  0  0  0  0  0  0
  -24.2652  -29.1702   20.7711 O   0  0  0  0  0  0  0  0  0  0  0  0
  -26.6850  -25.4902   18.0915 O   0  0  0  0  0  0  0  0  0  0  0  0
  -31.8576  -14.9698   20.2753 O   0  0  0  0  0  0  0  0  0  0  0  0
  -31.5635  -14.8058   24.7528 O   0  0  0  0  0  0  0  0  0  0  0  0
  -23.0953   -7.6761   24.8263 O   0  0  0  0  0  0  0  0  0  0  0  0
  -27.8477  -22.3055   24.2208 O   0  0  0  0  0  0  0  0  0  1  0  0
  -20.4853   -3.4386   22.4524 F   0  0  0  0  0  0  0  0  0  0  0  0
  -24.1001   -5.1074   25.0125 F   0  0  0  0  0  0  0  0  0  0  0  0
  1  2  1  0  0  0  0
  1  5  2  0  0  0  0
  2  6  2  0  0  0  0
  3  8  2  0  0  0  0
  3 15  1  0  0  0  0
  4  9  1  0  0  0  0
  4 15  2  0  0  0  0
  5 17  1  0  0  0  0
  6 19  1  0  0  0  0
  7 10  2  0  0  0  0
  7 18  1  0  0  0  0
  8 21  1  0  0  0  0
  9 21  2  0  0  0  0
 10 22  1  0  0  0  0
 11 12  2  0  0  0  0
 11 23  1  0  0  0  0
 12 24  1  0  0  0  0
 13 20  1  0  0  0  0
 13 22  2  0  0  0  0
 14 24  2  0  0  0  0
 14 25  1  0  0  0  0
 15 26  1  0  0  0  0
 16 26  1  0  0  0  0
 16 27  2  0  0  0  0
 16 28  1  0  0  0  0
 17 19  2  0  0  0  0
 17 33  1  0  0  0  0
 18 20  2  0  0  0  0
 18 34  1  0  0  0  0
 19 45  1  0  0  0  0
 20 35  1  0  0  0  0
 21 81  1  0  0  0  0
 22 82  1  0  0  0  0
 23 25  2  0  0  0  0
 23 81  1  0  0  0  0
 24 83  1  0  0  0  0
 25 84  1  0  0  0  0
 26 64  2  0  0  0  0
 27 65  1  0  0  0  0
 27 68  1  0  0  0  0
 28 69  1  0  0  0  0
 28 75  2  0  0  0  0
 29 46  1  0  0  0  0
 29 70  1  0  0  0  0
 29 76  2  0  0  0  0
 30 59  1  0  0  0  0
 30 66  1  0  0  0  0
 30 77  2  0  0  0  0
 31 60  1  0  0  0  0
 31 71  1  0  0  0  0
 31 78  2  0  0  0  0
 32 67  1  0  0  0  0
 32 72  1  0  0  0  0
 32 79  2  0  0  0  0
 33 36  1  0  0  0  0
 34 46  1  0  0  0  0
 35 66  1  0  0  0  0
 36 38  1  0  0  0  0
 37 39  1  0  0  0  0
 37 41  1  0  0  0  0
 38 45  1  0  0  0  0
 39 49  1  0  0  0  0
 40 43  1  0  0  0  0
 40 47  1  0  0  0  0
 41 67  1  0  0  0  0
 42 49  1  0  0  0  0
 42 67  1  0  0  0  0
 43 73  1  0  0  0  0
 44 48  1  0  0  0  0
 44 73  1  0  0  0  0
 45 70  1  0  0  0  0
 46 66  1  0  0  0  0
 47 48  1  0  0  0  0
 47 61  1  0  0  0  0
 48 50  1  0  0  0  0
 49 65  1  0  0  0  0
 51 60  1  0  0  0  0
 52 62  1  0  0  0  0
 53 63  1  0  0  0  0
 54 63  1  0  0  0  0
 55 63  1  0  0  0  0
 56 74  1  0  0  0  0
 57 58  1  0  0  0  0
 57 73  1  0  0  0  0
 58 82  1  0  0  0  0
 59 63  1  0  0  0  0
 59 71  1  0  0  0  0
 60 74  1  0  0  0  0
 61 62  1  0  0  0  0
 61 72  1  0  0  0  0
 62 80  1  0  0  0  0
 64 65  1  0  0  0  0
M  CHG  2  73   1  74   1
M  ISO  4  32 100  58 101  72 100  82 101
M  END
> <Batch ID>
0141

> <Smiles>
CNC(C)C(=O)NC(C(=O)N1Cc2cc([101O:1][101CH2:1]CN3CCC(C([100NH:0][100C:0](=O)N4CCCC(n5nc(-c6ccc(Oc7ccc(F)cc7F)cc6)c(C(N)=O)c5N)C4)C(C)O)C(C)C3)ccc2CC1C(=O)NC1CCCc2ccccc21)C(C)(C)C

> <Shape>
0.275

> <Color>
0.133

> <Negative vol penalty>
0.000

$$$$

  -OEChem-04052321163D

 86 94  0     1  0  0  0  0  0999 V2000
  -30.4924  -24.6142   19.0613 C   0  0  0  0  0  0  0  0  0  0  0  0
  -29.1107  -24.7321   18.9497 C   0  0  0  0  0  0  0  0  0  0  0  0
  -26.7273  -20.0643   22.2561 C   0  0  0  0  0  0  0  0  0  0  0  0
  -25.7875  -20.8960   20.1916 C   0  0  0  0  0  0  0  0  0  0  0  0
  -31.1515  -25.1658   20.1591 C   0  0  0  0  0  0  0  0  0  0  0  0
  -28.3872  -25.4008   19.9365 C   0  0  0  0  0  0  0  0  0  0  0  0
  -23.3747  -28.8284   19.1409 C   0  0  0  0  0  0  0  0  0  0  0  0
  -27.9841  -19.9933   21.6554 C   0  0  0  0  0  0  0  0  0  0  0  0
  -27.0444  -20.8251   19.5909 C   0  0  0  0  0  0  0  0  0  0  0  0
  -22.0168  -28.5557   19.3009 C   0  0  0  0  0  0  0  0  0  0  0  0
  -29.9342  -20.5229   17.4074 C   0  0  0  0  0  0  0  0  0  0  0  0
  -30.0110  -19.9737   16.1275 C   0  0  0  0  0  0  0  0  0  0  0  0
  -22.0933  -29.5056   21.5170 C   0  0  0  0  0  0  0  0  0  0  0  0
  -17.8239  -26.6322   20.4399 C   0  0  0  0  0  0  0  0  0  0  0  0
  -29.1101  -17.8945   16.9657 C   0  0  0  0  0  0  0  0  0  0  0  0
  -19.6010  -25.2808   21.2600 C   0  0  0  0  0  0  0  0  0  0  0  0
  -25.6289  -20.5156   21.5242 C   0  0  0  0  0  0  0  0  0  0  0  0
  -23.7788  -21.6835   22.8359 C   0  0  0  0  0  0  0  0  0  0  0  0
  -30.4368  -25.8500   21.1550 C   0  0  0  0  0  0  0  0  0  0  0  0
  -24.1058  -29.4328   20.1737 C   0  0  0  0  0  0  0  0  0  0  0  0
  -29.0372  -25.9609   21.0494 C   0  0  0  0  0  0  0  0  0  0  0  0
  -23.4598  -29.7872   21.3667 C   0  0  0  0  0  0  0  0  0  0  0  0
  -19.0269  -26.5352   21.1304 C   0  0  0  0  0  0  0  0  0  0  0  0
  -17.2400  -25.4880   19.9077 C   0  0  0  0  0  0  0  0  0  0  0  0
  -28.1427  -20.3738   20.3228 C   0  0  0  0  0  0  0  0  0  0  0  0
  -21.3766  -28.8917   20.4901 C   0  0  0  0  0  0  0  0  0  0  0  0
  -29.4454  -19.7579   18.4664 C   0  0  0  0  0  0  0  0  0  0  0  0
  -29.5990  -18.6595   15.9066 C   0  0  0  0  0  0  0  0  0  0  0  0
  -29.0334  -18.4438   18.2456 C   0  0  0  0  0  0  0  0  0  0  0  0
  -24.3302  -20.5886   22.1440 C   0  0  0  0  0  0  0  0  0  0  0  0
  -17.8942  -24.2805   20.0919 C   0  0  0  0  0  0  0  0  0  0  0  0
  -22.5351  -21.2515   23.2271 C   0  0  0  0  0  0  0  0  0  0  0  0
  -24.3406  -22.9757   23.1013 C   0  0  0  0  0  0  0  0  0  0  0  0
  -26.5926  -28.5780   21.9594 C   0  0  0  0  0  0  0  0  0  0  0  0
  -26.3623  -31.6250   23.0477 C   0  0  0  0  0  0  0  0  0  0  0  0
  -24.4174  -34.3850   23.5440 C   0  0  0  0  0  0  0  0  0  0  0  0
  -18.2284  -17.9140   21.2015 C   0  0  0  0  0  0  0  0  0  0  0  0
  -31.1876  -26.3885   22.3471 C   0  0  0  0  0  0  0  0  0  0  0  0
  -25.5638  -29.7446   19.9753 C   0  0  0  0  0  0  0  0  0  0  0  0
  -24.1950  -30.4562   22.4982 C   0  0  0  0  0  0  0  0  0  0  0  0
  -30.3911  -27.4062   23.1596 C   0  0  0  0  0  0  0  0  0  0  0  0
  -20.4051  -16.8469   23.8704 C   0  0  0  0  0  0  0  0  0  0  0  0
  -28.9737  -26.8999   23.4073 C   0  0  0  0  0  0  0  0  0  0  0  0
  -21.6050  -17.7837   23.7355 C   0  0  0  0  0  0  0  0  0  0  0  0
  -19.8023  -16.5112   22.5100 C   0  0  0  0  0  0  0  0  0  0  0  0
  -20.6186  -18.6578   21.5704 C   0  0  0  0  0  0  0  0  0  0  0  0
  -28.2203  -26.7004   22.0867 C   0  0  1  0  0  0  0  0  0  0  0  0
  -26.3265  -29.8955   21.2879 C   0  0  1  0  0  0  0  0  0  0  0  0
  -21.2364  -19.0400   22.9265 C   0  0  2  0  0  0  0  0  0  0  0  0
  -15.9498  -25.5958   19.1684 C   0  0  0  0  0  0  0  0  0  0  0  0
  -18.4273  -27.7198   23.9427 C   0  0  0  0  0  0  0  0  0  0  0  0
  -24.4987  -36.7081   24.4896 C   0  0  0  0  0  0  0  0  0  0  0  0
  -26.2647  -30.4760   25.8726 C   0  0  0  0  0  0  0  0  0  0  0  0
  -25.4058  -32.6890   26.6681 C   0  0  0  0  0  0  0  0  0  0  0  0
  -27.6687  -32.5313   25.6304 C   0  0  0  0  0  0  0  0  0  0  0  0
  -23.7500  -35.5980   20.9282 C   0  0  0  0  0  0  0  0  0  0  0  0
  -18.7963  -28.5283   22.7079 C   0  0  0  0  0  0  0  0  0  0  0  0
  -17.6310  -21.8008   20.0076 C   0  0  0  0  0  0  0  0  0  0  0  0
  -16.8413  -19.3697   19.9306 C   0  0  0  0  0  0  0  0  0  0  0  0
  -19.6870  -27.7588   21.7222 C   0  0  2  0  0  0  0  0  0  1  0  0
  -25.6171  -32.3059   24.1702 C   0  0  1  0  0  0  0  0  0  0  0  0
  -24.6564  -35.8533   23.2417 C   0  0  2  0  0  0  0  0  0  0  0  0
  -16.8891  -20.7207   19.2219 C   0  0  2  0  0  0  0  0  0  0  0  0
  -26.2254  -31.9862   25.5650 C   0  0  0  0  0  0  0  0  0  0  0  0
  -19.0637  -24.1469   20.7567 N   0  0  0  0  0  0  0  0  0  0  0  0
  -23.5046  -19.5397   22.0967 N   0  0  0  0  0  0  0  0  0  0  0  0
  -22.4217  -19.9737   22.7640 N   0  0  0  0  0  0  0  0  0  0  0  0
  -25.6207  -30.7346   22.2585 N   0  0  0  0  0  0  0  0  0  0  0  0
  -19.4999  -17.7245   21.7517 N   0  0  0  0  0  0  0  0  0  0  0  0
  -21.5384  -21.8438   23.9186 N   0  0  0  0  0  0  0  0  0  0  0  0
  -25.6299  -23.2538   22.6273 N   0  0  0  0  0  0  0  0  0  0  0  0
  -17.3027  -23.1115   19.5508 N   0  0  0  0  0  0  0  0  0  0  0  0
  -27.7704  -27.9729   21.5643 N   0  0  0  0  0  0  0  0  0  0  0  0
  -25.5921  -33.7269   23.8407 N   0  0  0  0  0  0  0  0  0  0  0  0
  -17.5550  -20.5388   17.8977 N   0  3  0  0  0  0  0  0  0  0  0  0
  -23.6881  -36.3354   22.2164 N   0  3  0  0  0  0  0  0  0  0  0  0
  -23.7242  -23.8518   23.7540 O   0  0  0  0  0  0  0  0  0  0  0  0
  -25.7895  -28.1432   22.7765 O   0  0  0  0  0  0  0  0  0  0  0  0
  -27.5566  -31.8795   22.8730 O   0  0  0  0  0  0  0  0  0  0  0  0
  -23.2998  -33.8740   23.5229 O   0  0  0  0  0  0  0  0  0  0  0  0
  -17.3019  -17.1121   21.3055 O   0  0  0  0  0  0  0  0  0  0  0  0
  -29.3691  -20.3049   19.7364 O   0  0  0  0  0  0  0  0  0  0  0  0
  -20.0514  -28.6260   20.6491 O   0  0  0  0  0  0  0  0  0  1  0  0
  -18.1161  -19.0997   20.5251 O   0  0  0  0  0  0  0  0  0  0  0  0
  -29.6713  -18.1328   14.6772 F   0  0  0  0  0  0  0  0  0  0  0  0
  -28.5618  -17.7043   19.2588 F   0  0  0  0  0  0  0  0  0  0  0  0
  1  2  1  0  0  0  0
  1  5  2  0  0  0  0
  2  6  2  0  0  0  0
  3  8  2  0  0  0  0
  3 17  1  0  0  0  0
  4  9  1  0  0  0  0
  4 17  2  0  0  0  0
  5 19  1  0  0  0  0
  6 21  1  0  0  0  0
  7 10  2  0  0  0  0
  7 20  1  0  0  0  0
  8 25  1  0  0  0  0
  9 25  2  0  0  0  0
 10 26  1  0  0  0  0
 11 12  2  0  0  0  0
 11 27  1  0  0  0  0
 12 28  1  0  0  0  0
 13 22  1  0  0  0  0
 13 26  2  0  0  0  0
 14 23  2  0  0  0  0
 14 24  1  0  0  0  0
 15 28  2  0  0  0  0
 15 29  1  0  0  0  0
 16 23  1  0  0  0  0
 16 65  2  0  0  0  0
 17 30  1  0  0  0  0
 18 30  1  0  0  0  0
 18 32  2  0  0  0  0
 18 33  1  0  0  0  0
 19 21  2  0  0  0  0
 19 38  1  0  0  0  0
 20 22  2  0  0  0  0
 20 39  1  0  0  0  0
 21 47  1  0  0  0  0
 22 40  1  0  0  0  0
 23 60  1  0  0  0  0
 24 31  2  0  0  0  0
 24 50  1  0  0  0  0
 25 82  1  0  0  0  0
 26 83  1  0  0  0  0
 27 29  2  0  0  0  0
 27 82  1  0  0  0  0
 28 85  1  0  0  0  0
 29 86  1  0  0  0  0
 30 66  2  0  0  0  0
 31 65  1  0  0  0  0
 31 72  1  0  0  0  0
 32 67  1  0  0  0  0
 32 70  1  0  0  0  0
 33 71  1  0  0  0  0
 33 77  2  0  0  0  0
 34 48  1  0  0  0  0
 34 73  1  0  0  0  0
 34 78  2  0  0  0  0
 35 61  1  0  0  0  0
 35 68  1  0  0  0  0
 35 79  2  0  0  0  0
 36 62  1  0  0  0  0
 36 74  1  0  0  0  0
 36 80  2  0  0  0  0
 37 69  1  0  0  0  0
 37 81  2  0  0  0  0
 37 84  1  0  0  0  0
 38 41  1  0  0  0  0
 39 48  1  0  0  0  0
 40 68  1  0  0  0  0
 41 43  1  0  0  0  0
 42 44  1  0  0  0  0
 42 45  1  0  0  0  0
 43 47  1  0  0  0  0
 44 49  1  0  0  0  0
 45 69  1  0  0  0  0
 46 49  1  0  0  0  0
 46 69  1  0  0  0  0
 47 73  1  0  0  0  0
 48 68  1  0  0  0  0
 49 67  1  0  0  0  0
 51 57  1  0  0  0  0
 52 62  1  0  0  0  0
 53 64  1  0  0  0  0
 54 64  1  0  0  0  0
 55 64  1  0  0  0  0
 56 76  1  0  0  0  0
 57 60  1  0  0  0  0
 58 63  1  0  0  0  0
 58 72  1  0  0  0  0
 59 63  1  0  0  0  0
 59 84  1  0  0  0  0
 60 83  1  0  0  0  0
 61 64  1  0  0  0  0
 61 74  1  0  0  0  0
 62 76  1  0  0  0  0
 63 75  1  0  0  0  0
 66 67  1  0  0  0  0
M  CHG  2  75   1  76   1
M  ISO  4  37 100  60 101  83 101  84 100
M  END
> <Batch ID>
0141

> <Smiles>
CC[101CH:1](c1cnc(NCC(N)C[100O:0][100C:0](=O)N2CCCC(n3nc(-c4ccc(Oc5ccc(F)cc5F)cc4)c(C(N)=O)c3N)C2)c(C)c1)[101O:1]c1ccc2c(c1)CN(C(=O)C(NC(=O)C(C)NC)C(C)(C)C)C(C(=O)NC1CCCc3ccccc31)C2

> <Shape>
0.226

> <Color>
0.060

> <Negative vol penalty>
0.000

$$$$

  -OEChem-04052321163D

 88 97  0     1  0  0  0  0  0999 V2000
  -26.9514  -33.6431   25.4801 C   0  0  0  0  0  0  0  0  0  0  0  0
  -27.4006  -32.5789   24.7048 C   0  0  0  0  0  0  0  0  0  0  0  0
  -22.9792  -13.8949   20.2629 C   0  0  0  0  0  0  0  0  0  0  0  0
  -24.9439  -12.7617   21.0954 C   0  0  0  0  0  0  0  0  0  0  0  0
  -25.8235  -33.4902   26.2853 C   0  0  0  0  0  0  0  0  0  0  0  0
  -26.7227  -31.3608   24.7350 C   0  0  0  0  0  0  0  0  0  0  0  0
  -26.0359  -29.4046   20.1147 C   0  0  0  0  0  0  0  0  0  0  0  0
  -30.9949  -22.1154   20.8047 C   0  0  0  0  0  0  0  0  0  0  0  0
  -22.4523  -12.6733   19.8437 C   0  0  0  0  0  0  0  0  0  0  0  0
  -24.4169  -11.5401   20.6762 C   0  0  0  0  0  0  0  0  0  0  0  0
  -27.1285  -28.7736   19.5216 C   0  0  0  0  0  0  0  0  0  0  0  0
  -30.4928  -23.4149   20.8738 C   0  0  0  0  0  0  0  0  0  0  0  0
  -22.1216   -9.3132   21.7684 C   0  0  0  0  0  0  0  0  0  0  0  0
  -22.2002   -8.2375   22.6528 C   0  0  0  0  0  0  0  0  0  0  0  0
  -26.2285  -26.6285   20.1598 C   0  0  0  0  0  0  0  0  0  0  0  0
  -32.1293  -24.1336   19.2483 C   0  0  0  0  0  0  0  0  0  0  0  0
  -23.5067   -7.0047   21.0371 C   0  0  0  0  0  0  0  0  0  0  0  0
  -24.2251  -13.9391   20.8887 C   0  0  0  0  0  0  0  0  0  0  0  0
  -24.5950  -15.8173   22.5748 C   0  0  0  0  0  0  0  0  0  0  0  0
  -25.1257  -32.2725   26.3180 C   0  0  0  0  0  0  0  0  0  0  0  0
  -25.0352  -28.6515   20.7454 C   0  0  0  0  0  0  0  0  0  0  0  0
  -25.5851  -31.1910   25.5423 C   0  0  0  0  0  0  0  0  0  0  0  0
  -25.1229  -27.2522   20.7579 C   0  0  0  0  0  0  0  0  0  0  0  0
  -32.0644  -21.8250   19.9575 C   0  0  0  0  0  0  0  0  0  0  0  0
  -32.6315  -22.8341   19.1793 C   0  0  0  0  0  0  0  0  0  0  0  0
  -23.1711  -11.4960   20.0503 C   0  0  0  0  0  0  0  0  0  0  0  0
  -27.2264  -27.3855   19.5466 C   0  0  0  0  0  0  0  0  0  0  0  0
  -31.0600  -24.4240   20.0955 C   0  0  0  0  0  0  0  0  0  0  0  0
  -22.7354   -9.2346   20.5183 C   0  0  0  0  0  0  0  0  0  0  0  0
  -22.8928   -7.0832   22.2872 C   0  0  0  0  0  0  0  0  0  0  0  0
  -23.4280   -8.0804   20.1527 C   0  0  0  0  0  0  0  0  0  0  0  0
  -24.7702  -15.2007   21.3215 C   0  0  0  0  0  0  0  0  0  0  0  0
  -25.3090  -16.9872   22.4847 C   0  0  0  0  0  0  0  0  0  0  0  0
  -23.8533  -15.3724   23.7183 C   0  0  0  0  0  0  0  0  0  0  0  0
  -23.9139  -28.4500   23.7129 C   0  0  0  0  0  0  0  0  0  0  0  0
  -21.7223  -26.4946   22.3361 C   0  0  0  0  0  0  0  0  0  0  0  0
  -20.9179  -24.4013   19.7636 C   0  0  0  0  0  0  0  0  0  0  0  0
  -29.9673  -18.5085   19.1920 C   0  0  0  0  0  0  0  0  0  0  0  0
  -23.9394  -32.1401   27.2399 C   0  0  0  0  0  0  0  0  0  0  0  0
  -23.8495  -29.3459   21.3572 C   0  0  0  0  0  0  0  0  0  0  0  0
  -24.0649  -26.3970   21.4044 C   0  0  0  0  0  0  0  0  0  0  0  0
  -23.0583  -30.9329   26.9292 C   0  0  0  0  0  0  0  0  0  0  0  0
  -26.7884  -20.2352   19.2957 C   0  0  0  0  0  0  0  0  0  0  0  0
  -23.9137  -29.6871   26.7215 C   0  0  0  0  0  0  0  0  0  0  0  0
  -33.9717  -22.8192   15.6454 C   0  0  0  0  0  0  0  0  0  0  0  0
  -32.5881  -23.2707   16.0216 C   0  0  0  0  0  0  0  0  0  0  0  0
  -25.8924  -19.1837   19.9528 C   0  0  0  0  0  0  0  0  0  0  0  0
  -27.7961  -19.5894   18.3493 C   0  0  0  0  0  0  0  0  0  0  0  0
  -27.7529  -17.4873   19.6350 C   0  0  0  0  0  0  0  0  0  0  0  0
  -24.8621  -29.8616   25.5292 C   0  0  1  0  0  0  0  0  0  0  0  0
  -23.1487  -28.5064   22.4210 C   0  0  1  0  0  0  0  0  0  0  0  0
  -33.7206  -23.4248   16.9985 C   0  0  0  0  0  0  0  0  0  0  0  0
  -26.7269  -18.0750   20.6210 C   0  0  2  0  0  0  0  0  0  0  0  0
  -36.3188  -22.4269   17.9684 C   0  0  0  0  0  0  0  0  0  0  0  0
  -19.0697  -22.9211   18.9326 C   0  0  0  0  0  0  0  0  0  0  0  0
  -22.4663  -24.3975   24.4238 C   0  0  0  0  0  0  0  0  0  0  0  0
  -21.3323  -22.6786   23.0000 C   0  0  0  0  0  0  0  0  0  0  0  0
  -20.0172  -24.5739   23.9492 C   0  0  0  0  0  0  0  0  0  0  0  0
  -20.6195  -25.9750   17.2750 C   0  0  0  0  0  0  0  0  0  0  0  0
  -32.5847  -20.4263   19.9007 C   0  0  0  0  0  0  0  0  0  0  0  0
  -35.1712  -22.6999   18.9332 C   0  0  0  0  0  0  0  0  0  0  0  0
  -32.1099  -19.6460   18.6701 C   0  0  0  0  0  0  0  0  0  0  0  0
  -29.5266  -27.4828   18.9501 C   0  0  0  0  0  0  0  0  0  1  0  0
  -30.6740  -26.4921   18.9866 C   0  0  0  0  0  0  0  0  0  0  0  0
  -33.7777  -22.5471   18.2659 C   0  0  1  0  0  0  0  0  0  0  0  0
  -21.6364  -25.0133   22.0578 C   0  0  1  0  0  0  0  0  0  0  0  0
  -19.6824  -24.3122   18.8861 C   0  0  2  0  0  0  0  0  0  0  0  0
  -21.3841  -24.1817   23.3471 C   0  0  0  0  0  0  0  0  0  0  0  0
  -25.5353  -15.9194   20.4956 N   0  0  0  0  0  0  0  0  0  0  0  0
  -25.8472  -16.9998   21.2315 N   0  0  0  0  0  0  0  0  0  0  0  0
  -22.9282  -27.1231   21.9945 N   0  0  0  0  0  0  0  0  0  0  0  0
  -28.5703  -18.5564   19.0519 N   0  0  0  0  0  0  0  0  0  0  0  0
  -25.5226  -17.9961   23.3559 N   0  0  0  0  0  0  0  0  0  0  0  0
  -23.1781  -14.1467   23.6411 N   0  0  0  0  0  0  0  0  0  0  0  0
  -24.1459  -29.6868   24.2838 N   0  0  0  0  0  0  0  0  0  0  0  0
  -20.6128  -24.8495   21.0313 N   0  0  0  0  0  0  0  0  0  0  0  0
  -30.6682  -19.5548   18.6049 N   0  0  0  0  0  0  0  0  0  0  0  0
  -20.0284  -24.6262   17.4709 N   0  3  0  0  0  0  0  0  0  0  0  0
  -23.7776  -16.0497   24.7714 O   0  0  0  0  0  0  0  0  0  0  0  0
  -24.2664  -27.3646   24.1594 O   0  0  0  0  0  0  0  0  0  0  0  0
  -20.7525  -27.0741   22.8314 O   0  0  0  0  0  0  0  0  0  0  0  0
  -22.0409  -24.0996   19.3654 O   0  0  0  0  0  0  0  0  0  0  0  0
  -30.5472  -17.6025   19.8003 O   0  0  0  0  0  0  0  0  0  0  0  0
  -22.6571  -10.3038   19.6416 O   0  0  0  0  0  0  0  0  0  0  0  0
  -28.2922  -26.7671   18.9689 O   0  0  0  0  0  0  0  0  0  1  0  0
  -30.5671  -25.7005   20.1636 O   0  0  0  0  0  0  0  0  0  0  0  0
  -22.9696   -6.0509   23.1373 F   0  0  0  0  0  0  0  0  0  0  0  0
  -24.0208   -7.9995   18.9536 F   0  0  0  0  0  0  0  0  0  0  0  0
  1  2  1  0  0  0  0
  1  5  2  0  0  0  0
  2  6  2  0  0  0  0
  3  9  2  0  0  0  0
  3 18  1  0  0  0  0
  4 10  1  0  0  0  0
  4 18  2  0  0  0  0
  5 20  1  0  0  0  0
  6 22  1  0  0  0  0
  7 11  2  0  0  0  0
  7 21  1  0  0  0  0
  8 12  2  0  0  0  0
  8 24  1  0  0  0  0
  9 26  1  0  0  0  0
 10 26  2  0  0  0  0
 11 27  1  0  0  0  0
 12 28  1  0  0  0  0
 13 14  2  0  0  0  0
 13 29  1  0  0  0  0
 14 30  1  0  0  0  0
 15 23  1  0  0  0  0
 15 27  2  0  0  0  0
 16 25  1  0  0  0  0
 16 28  2  0  0  0  0
 17 30  2  0  0  0  0
 17 31  1  0  0  0  0
 18 32  1  0  0  0  0
 19 32  1  0  0  0  0
 19 33  2  0  0  0  0
 19 34  1  0  0  0  0
 20 22  2  0  0  0  0
 20 39  1  0  0  0  0
 21 23  2  0  0  0  0
 21 40  1  0  0  0  0
 22 50  1  0  0  0  0
 23 41  1  0  0  0  0
 24 25  2  0  0  0  0
 24 60  1  0  0  0  0
 25 65  1  0  0  0  0
 26 84  1  0  0  0  0
 27 85  1  0  0  0  0
 28 86  1  0  0  0  0
 29 31  2  0  0  0  0
 29 84  1  0  0  0  0
 30 87  1  0  0  0  0
 31 88  1  0  0  0  0
 32 69  2  0  0  0  0
 33 70  1  0  0  0  0
 33 73  1  0  0  0  0
 34 74  1  0  0  0  0
 34 79  2  0  0  0  0
 35 51  1  0  0  0  0
 35 75  1  0  0  0  0
 35 80  2  0  0  0  0
 36 66  1  0  0  0  0
 36 71  1  0  0  0  0
 36 81  2  0  0  0  0
 37 67  1  0  0  0  0
 37 76  1  0  0  0  0
 37 82  2  0  0  0  0
 38 72  1  0  0  0  0
 38 77  1  0  0  0  0
 38 83  2  0  0  0  0
 39 42  1  0  0  0  0
 40 51  1  0  0  0  0
 41 71  1  0  0  0  0
 42 44  1  0  0  0  0
 43 47  1  0  0  0  0
 43 48  1  0  0  0  0
 44 50  1  0  0  0  0
 45 46  1  0  0  0  0
 45 52  1  0  0  0  0
 46 52  1  0  0  0  0
 47 53  1  0  0  0  0
 48 72  1  0  0  0  0
 49 53  1  0  0  0  0
 49 72  1  0  0  0  0
 50 75  1  0  0  0  0
 51 71  1  0  0  0  0
 52 65  1  0  0  0  0
 53 70  1  0  0  0  0
 54 61  1  0  0  0  0
 55 67  1  0  0  0  0
 56 68  1  0  0  0  0
 57 68  1  0  0  0  0
 58 68  1  0  0  0  0
 59 78  1  0  0  0  0
 60 62  1  0  0  0  0
 61 65  1  0  0  0  0
 62 77  1  0  0  0  0
 63 64  1  0  0  0  0
 63 85  1  0  0  0  0
 64 86  1  0  0  0  0
 66 68  1  0  0  0  0
 66 76  1  0  0  0  0
 67 78  1  0  0  0  0
 69 70  1  0  0  0  0
M  CHG  1  78   1
M  ISO  4  38 100  63 101  77 100  85 101
M  END
> <Batch ID>
0141

> <Smiles>
CCC(c1cc(OC[101CH2:1][101O:1]c2ccc3c(c2)CN(C(=O)C(NC(=O)C(C)NC)C(C)(C)C)C(C(=O)NC2CCCc4ccccc42)C3)ccc1CC[100NH:0][100C:0](=O)N1CCCC(n2nc(-c3ccc(Oc4ccc(F)cc4F)cc3)c(C(N)=O)c2N)C1)C1CC1

> <Shape>
0.237

> <Color>
0.070

> <Negative vol penalty>
0.000

$$$$

  -OEChem-04052321163D

 89 98  0     1  0  0  0  0  0999 V2000
  -27.4385  -34.5632   22.9379 C   0  0  0  0  0  0  0  0  0  0  0  0
  -27.6137  -33.1850   22.8667 C   0  0  0  0  0  0  0  0  0  0  0  0
  -23.0091  -10.0725   21.4387 C   0  0  0  0  0  0  0  0  0  0  0  0
  -23.9086  -10.8145   23.5547 C   0  0  0  0  0  0  0  0  0  0  0  0
  -26.1915  -35.0900   23.2717 C   0  0  0  0  0  0  0  0  0  0  0  0
  -26.5421  -32.3325   23.1303 C   0  0  0  0  0  0  0  0  0  0  0  0
  -26.1736  -28.5744   19.7560 C   0  0  0  0  0  0  0  0  0  0  0  0
  -22.2467   -9.1099   22.1003 C   0  0  0  0  0  0  0  0  0  0  0  0
  -23.1462   -9.8519   24.2163 C   0  0  0  0  0  0  0  0  0  0  0  0
  -27.0527  -27.5018   19.8990 C   0  0  0  0  0  0  0  0  0  0  0  0
  -22.7329   -6.0598   23.4731 C   0  0  0  0  0  0  0  0  0  0  0  0
  -22.7100   -4.7720   22.9377 C   0  0  0  0  0  0  0  0  0  0  0  0
  -25.3073  -26.2210   20.9632 C   0  0  0  0  0  0  0  0  0  0  0  0
  -30.3482  -21.6728   21.3416 C   0  0  0  0  0  0  0  0  0  0  0  0
  -29.1080  -22.1548   23.3451 C   0  0  0  0  0  0  0  0  0  0  0  0
  -20.3146   -4.9284   22.6642 C   0  0  0  0  0  0  0  0  0  0  0  0
  -23.8401  -10.9248   22.1659 C   0  0  0  0  0  0  0  0  0  0  0  0
  -24.2518  -13.2411   21.1796 C   0  0  0  0  0  0  0  0  0  0  0  0
  -25.1016  -34.2437   23.5301 C   0  0  0  0  0  0  0  0  0  0  0  0
  -24.8557  -28.4821   20.2261 C   0  0  0  0  0  0  0  0  0  0  0  0
  -25.2797  -32.8484   23.4692 C   0  0  0  0  0  0  0  0  0  0  0  0
  -24.4127  -27.2930   20.8226 C   0  0  0  0  0  0  0  0  0  0  0  0
  -22.3152   -8.9996   23.4891 C   0  0  0  0  0  0  0  0  0  0  0  0
  -26.6204  -26.3259   20.5053 C   0  0  0  0  0  0  0  0  0  0  0  0
  -21.5467   -6.7819   23.6041 C   0  0  0  0  0  0  0  0  0  0  0  0
  -29.6881  -22.5853   22.1570 C   0  0  0  0  0  0  0  0  0  0  0  0
  -21.5008   -4.2063   22.5333 C   0  0  0  0  0  0  0  0  0  0  0  0
  -20.3375   -6.2162   23.1996 C   0  0  0  0  0  0  0  0  0  0  0  0
  -24.6283  -11.9190   21.4829 C   0  0  0  0  0  0  0  0  0  0  0  0
  -30.3999  -20.3517   21.7559 C   0  0  0  0  0  0  0  0  0  0  0  0
  -29.2150  -20.8120   23.6696 C   0  0  0  0  0  0  0  0  0  0  0  0
  -25.3422  -13.7686   20.5320 C   0  0  0  0  0  0  0  0  0  0  0  0
  -23.0261  -13.9308   21.4583 C   0  0  0  0  0  0  0  0  0  0  0  0
  -23.1386  -30.0303   22.4075 C   0  0  0  0  0  0  0  0  0  0  0  0
  -20.7229  -28.2141   21.2292 C   0  0  0  0  0  0  0  0  0  0  0  0
  -19.7634  -25.3753   19.5960 C   0  0  0  0  0  0  0  0  0  0  0  0
  -30.8560  -14.5161   20.1028 C   0  0  0  0  0  0  0  0  0  0  0  0
  -23.7848  -34.8586   23.9332 C   0  0  0  0  0  0  0  0  0  0  0  0
  -23.9120  -29.6386   20.0401 C   0  0  0  0  0  0  0  0  0  0  0  0
  -23.0018  -27.1359   21.3258 C   0  0  0  0  0  0  0  0  0  0  0  0
  -22.6058  -33.8943   23.8315 C   0  0  0  0  0  0  0  0  0  0  0  0
  -29.5004  -11.5264   18.7242 C   0  0  0  0  0  0  0  0  0  0  0  0
  -22.9605  -32.5494   24.4579 C   0  0  0  0  0  0  0  0  0  0  0  0
  -32.2735  -18.6816   21.6646 C   0  0  0  0  0  0  0  0  0  0  0  0
  -28.0839  -11.4681   19.2988 C   0  0  0  0  0  0  0  0  0  0  0  0
  -31.9267  -17.1992   21.7621 C   0  0  0  0  0  0  0  0  0  0  0  0
  -30.4961  -12.0932   19.7338 C   0  0  0  0  0  0  0  0  0  0  0  0
  -28.7069  -13.3431   20.8784 C   0  0  0  0  0  0  0  0  0  0  0  0
  -24.1352  -31.8916   23.7240 C   0  0  1  0  0  0  0  0  0  0  0  0
  -31.1014  -19.3449   20.9069 C   0  0  1  0  0  0  0  0  0  0  0  0
  -22.7415  -29.6178   21.0183 C   0  0  1  0  0  0  0  0  0  0  0  0
  -30.1539  -18.1846   20.5071 C   0  0  2  0  0  0  0  0  0  0  0  0
  -27.6571  -12.8305   19.8777 C   0  0  2  0  0  0  0  0  0  0  0  0
  -31.0644  -16.9517   20.5315 C   0  0  2  0  0  0  0  0  0  0  0  0
  -28.6062  -20.3156   24.9384 C   0  0  0  0  0  0  0  0  0  0  0  0
  -17.7189  -24.1480   18.8142 C   0  0  0  0  0  0  0  0  0  0  0  0
  -28.5907  -17.2223   18.7942 C   0  0  0  0  0  0  0  0  0  0  0  0
  -28.6761  -19.7044   19.1620 C   0  0  0  0  0  0  0  0  0  0  0  0
  -20.1746  -27.3094   24.0911 C   0  0  0  0  0  0  0  0  0  0  0  0
  -18.8127  -25.4258   23.1607 C   0  0  0  0  0  0  0  0  0  0  0  0
  -18.1266  -27.7864   22.7374 C   0  0  0  0  0  0  0  0  0  0  0  0
  -20.6052  -25.5411   16.7635 C   0  0  0  0  0  0  0  0  0  0  0  0
  -28.8035  -25.4514   20.1513 C   0  0  0  0  0  0  0  0  0  1  0  0
  -29.5938  -24.1804   20.3956 C   0  0  0  0  0  0  0  0  0  0  0  0
  -20.1542  -26.8530   21.5500 C   0  0  1  0  0  0  0  0  0  0  0  0
  -18.7993  -25.1526   18.4448 C   0  0  2  0  0  0  0  0  0  0  0  0
  -29.4846  -18.4077   19.1565 C   0  0  0  0  0  0  0  0  0  0  0  0
  -19.3442  -26.8470   22.8772 C   0  0  0  0  0  0  0  0  0  0  0  0
  -25.8614  -11.6246   21.0625 N   0  0  0  0  0  0  0  0  0  0  0  0
  -29.8484  -19.8961   22.9030 N   0  0  0  0  0  0  0  0  0  0  0  0
  -26.2693  -12.7692   20.4883 N   0  0  0  0  0  0  0  0  0  0  0  0
  -22.1188  -28.2970   21.1266 N   0  0  0  0  0  0  0  0  0  0  0  0
  -30.0333  -13.3864   20.2430 N   0  0  0  0  0  0  0  0  0  0  0  0
  -25.5888  -14.9852   20.0014 N   0  0  0  0  0  0  0  0  0  0  0  0
  -22.0092  -13.2404   22.1318 N   0  0  0  0  0  0  0  0  0  0  0  0
  -23.6866  -31.2966   22.4833 N   0  0  0  0  0  0  0  0  0  0  0  0
  -19.3854  -26.4455   20.3790 N   0  0  0  0  0  0  0  0  0  0  0  0
  -30.3389  -15.7032   20.6069 N   0  0  0  0  0  0  0  0  0  0  0  0
  -19.5285  -24.6406   17.2502 N   0  3  0  0  0  0  0  0  0  0  0  0
  -22.8320  -15.1188   21.1055 O   0  0  0  0  0  0  0  0  0  0  0  0
  -22.9596  -29.2576   23.3416 O   0  0  0  0  0  0  0  0  0  0  0  0
  -19.9565  -29.1672   21.0682 O   0  0  0  0  0  0  0  0  0  0  0  0
  -20.7509  -24.6682   19.7842 O   0  0  0  0  0  0  0  0  0  0  0  0
  -31.9668  -14.4714   19.5632 O   0  0  0  0  0  0  0  0  0  0  0  0
  -21.5712   -8.0606   24.1351 O   0  0  0  0  0  0  0  0  0  0  0  0
  -27.4766  -25.2777   20.6468 O   0  0  0  0  0  0  0  0  0  1  0  0
  -29.6079  -23.9030   21.7907 O   0  0  0  0  0  0  0  0  0  0  0  0
  -21.4791   -2.9702   22.0177 F   0  0  0  0  0  0  0  0  0  0  0  0
  -19.1949   -6.9055   23.3219 F   0  0  0  0  0  0  0  0  0  0  0  0
  1  2  1  0  0  0  0
  1  5  2  0  0  0  0
  2  6  2  0  0  0  0
  3  8  2  0  0  0  0
  3 17  1  0  0  0  0
  4  9  1  0  0  0  0
  4 17  2  0  0  0  0
  5 19  1  0  0  0  0
  6 21  1  0  0  0  0
  7 10  2  0  0  0  0
  7 20  1  0  0  0  0
  8 23  1  0  0  0  0
  9 23  2  0  0  0  0
 10 24  1  0  0  0  0
 11 12  2  0  0  0  0
 11 25  1  0  0  0  0
 12 27  1  0  0  0  0
 13 22  1  0  0  0  0
 13 24  2  0  0  0  0
 14 26  2  0  0  0  0
 14 30  1  0  0  0  0
 15 26  1  0  0  0  0
 15 31  2  0  0  0  0
 16 27  2  0  0  0  0
 16 28  1  0  0  0  0
 17 29  1  0  0  0  0
 18 29  1  0  0  0  0
 18 32  2  0  0  0  0
 18 33  1  0  0  0  0
 19 21  2  0  0  0  0
 19 38  1  0  0  0  0
 20 22  2  0  0  0  0
 20 39  1  0  0  0  0
 21 49  1  0  0  0  0
 22 40  1  0  0  0  0
 23 85  1  0  0  0  0
 24 86  1  0  0  0  0
 25 28  2  0  0  0  0
 25 85  1  0  0  0  0
 26 87  1  0  0  0  0
 27 88  1  0  0  0  0
 28 89  1  0  0  0  0
 29 69  2  0  0  0  0
 30 50  1  0  0  0  0
 30 70  2  0  0  0  0
 31 55  1  0  0  0  0
 31 70  1  0  0  0  0
 32 71  1  0  0  0  0
 32 74  1  0  0  0  0
 33 75  1  0  0  0  0
 33 80  2  0  0  0  0
 34 51  1  0  0  0  0
 34 76  1  0  0  0  0
 34 81  2  0  0  0  0
 35 65  1  0  0  0  0
 35 72  1  0  0  0  0
 35 82  2  0  0  0  0
 36 66  1  0  0  0  0
 36 77  1  0  0  0  0
 36 83  2  0  0  0  0
 37 73  1  0  0  0  0
 37 78  1  0  0  0  0
 37 84  2  0  0  0  0
 38 41  1  0  0  0  0
 39 51  1  0  0  0  0
 40 72  1  0  0  0  0
 41 43  1  0  0  0  0
 42 45  1  0  0  0  0
 42 47  1  0  0  0  0
 43 49  1  0  0  0  0
 44 46  1  0  0  0  0
 44 50  1  0  0  0  0
 45 53  1  0  0  0  0
 46 54  1  0  0  0  0
 47 73  1  0  0  0  0
 48 53  1  0  0  0  0
 48 73  1  0  0  0  0
 49 76  1  0  0  0  0
 50 52  1  0  0  0  0
 51 72  1  0  0  0  0
 52 54  1  0  0  0  0
 52 67  1  0  0  0  0
 53 71  1  0  0  0  0
 54 78  1  0  0  0  0
 56 66  1  0  0  0  0
 57 67  1  0  0  0  0
 58 67  1  0  0  0  0
 59 68  1  0  0  0  0
 60 68  1  0  0  0  0
 61 68  1  0  0  0  0
 62 79  1  0  0  0  0
 63 64  1  0  0  0  0
 63 86  1  0  0  0  0
 64 87  1  0  0  0  0
 65 68  1  0  0  0  0
 65 77  1  0  0  0  0
 66 79  1  0  0  0  0
 69 71  1  0  0  0  0
M  CHG  1  79   1
M  ISO  4  37 100  63 101  78 100  86 101
M  END
> <Batch ID>
0141

> <Smiles>
CNC(C)C(=O)NC(C(=O)N1Cc2cc([101O:1][101CH2:1]COc3cc(C)nc(C4CCC([100NH:0][100C:0](=O)N5CCCC(n6nc(-c7ccc(Oc8ccc(F)cc8F)cc7)c(C(N)=O)c6N)C5)C4C(C)C)c3)ccc2CC1C(=O)NC1CCCc2ccccc21)C(C)(C)C

> <Shape>
0.364

> <Color>
0.160

> <Negative vol penalty>
0.000

$$$$

  -OEChem-04052321163D

 83 92  0     1  0  0  0  0  0999 V2000
  -27.6341  -37.9385   22.0346 C   0  0  0  0  0  0  0  0  0  0  0  0
  -28.0888  -36.8843   21.2489 C   0  0  0  0  0  0  0  0  0  0  0  0
  -23.5273   -9.9778   22.1532 C   0  0  0  0  0  0  0  0  0  0  0  0
  -24.2407   -8.6904   20.2373 C   0  0  0  0  0  0  0  0  0  0  0  0
  -26.9523  -37.6775   23.2224 C   0  0  0  0  0  0  0  0  0  0  0  0
  -27.8628  -35.5684   21.6512 C   0  0  0  0  0  0  0  0  0  0  0  0
  -26.6110  -29.0463   18.9656 C   0  0  0  0  0  0  0  0  0  0  0  0
  -22.2435   -9.4461   22.0325 C   0  0  0  0  0  0  0  0  0  0  0  0
  -22.9568   -8.1586   20.1166 C   0  0  0  0  0  0  0  0  0  0  0  0
  -27.0890  -27.7390   19.0447 C   0  0  0  0  0  0  0  0  0  0  0  0
  -21.1085   -5.7535   21.6065 C   0  0  0  0  0  0  0  0  0  0  0  0
  -20.9954   -4.3810   21.3854 C   0  0  0  0  0  0  0  0  0  0  0  0
  -25.8304  -27.4081   21.0759 C   0  0  0  0  0  0  0  0  0  0  0  0
  -29.3396  -23.4615   20.4015 C   0  0  0  0  0  0  0  0  0  0  0  0
  -27.8613  -22.7642   18.6223 C   0  0  0  0  0  0  0  0  0  0  0  0
  -19.8488   -4.8110   19.3027 C   0  0  0  0  0  0  0  0  0  0  0  0
  -24.5260   -9.6000   21.2555 C   0  0  0  0  0  0  0  0  0  0  0  0
  -26.9225   -9.6260   22.1293 C   0  0  0  0  0  0  0  0  0  0  0  0
  -26.7094  -36.3577   23.6346 C   0  0  0  0  0  0  0  0  0  0  0  0
  -25.7463  -29.5487   19.9486 C   0  0  0  0  0  0  0  0  0  0  0  0
  -27.1783  -35.2895   22.8463 C   0  0  0  0  0  0  0  0  0  0  0  0
  -25.3408  -28.7213   21.0056 C   0  0  0  0  0  0  0  0  0  0  0  0
  -29.1251  -21.1172   19.8580 C   0  0  0  0  0  0  0  0  0  0  0  0
  -28.4256  -23.7781   19.3965 C   0  0  0  0  0  0  0  0  0  0  0  0
  -29.6894  -22.1310   20.6322 C   0  0  0  0  0  0  0  0  0  0  0  0
  -28.2111  -21.4338   18.8531 C   0  0  0  0  0  0  0  0  0  0  0  0
  -21.9582   -8.5365   21.0142 C   0  0  0  0  0  0  0  0  0  0  0  0
  -26.7010  -26.9206   20.1015 C   0  0  0  0  0  0  0  0  0  0  0  0
  -20.5918   -6.6549   20.6757 C   0  0  0  0  0  0  0  0  0  0  0  0
  -20.3655   -3.9097   20.2335 C   0  0  0  0  0  0  0  0  0  0  0  0
  -19.9619   -6.1836   19.5239 C   0  0  0  0  0  0  0  0  0  0  0  0
  -25.8522  -10.1494   21.3794 C   0  0  0  0  0  0  0  0  0  0  0  0
  -27.9533  -10.5090   21.9187 C   0  0  0  0  0  0  0  0  0  0  0  0
  -26.9799   -8.4472   22.9433 C   0  0  0  0  0  0  0  0  0  0  0  0
  -25.8901  -31.9155   22.0655 C   0  0  0  0  0  0  0  0  0  0  0  0
  -22.8044  -31.0842   22.6217 C   0  0  0  0  0  0  0  0  0  0  0  0
  -20.3811  -28.6848   22.4882 C   0  0  0  0  0  0  0  0  0  0  0  0
  -27.8293  -16.2856   20.4644 C   0  0  0  0  0  0  0  0  0  0  0  0
  -26.0095  -36.1253   24.9502 C   0  0  0  0  0  0  0  0  0  0  0  0
  -25.2184  -30.9525   19.8345 C   0  0  0  0  0  0  0  0  0  0  0  0
  -24.3982  -29.2062   22.0756 C   0  0  0  0  0  0  0  0  0  0  0  0
  -25.4827  -34.7022   25.1167 C   0  0  0  0  0  0  0  0  0  0  0  0
  -29.6536  -13.6000   18.7116 C   0  0  0  0  0  0  0  0  0  0  0  0
  -26.5480  -33.6879   24.7127 C   0  0  0  0  0  0  0  0  0  0  0  0
  -28.9321  -12.3630   19.2385 C   0  0  0  0  0  0  0  0  0  0  0  0
  -29.3436  -19.1265   21.4897 C   0  0  0  0  0  0  0  0  0  0  0  0
  -28.7130  -14.7961   18.5709 C   0  0  0  0  0  0  0  0  0  0  0  0
  -27.2504  -13.8823   20.3514 C   0  0  0  0  0  0  0  0  0  0  0  0
  -29.5001  -19.6906   20.1055 C   0  0  1  0  0  0  0  0  0  0  0  0
  -26.9309  -33.8485   23.2365 C   0  0  1  0  0  0  0  0  0  0  0  0
  -24.7496  -31.5249   21.1686 C   0  0  1  0  0  0  0  0  0  0  0  0
  -28.1907  -12.6830   20.5455 C   0  0  1  0  0  0  0  0  0  0  0  0
  -28.4073  -18.6926   20.4010 C   0  0  1  0  0  0  0  0  0  0  0  0
  -30.6708  -21.8207   21.7150 C   0  0  0  0  0  0  0  0  0  0  0  0
  -27.5913  -20.3683   18.0089 C   0  0  0  0  0  0  0  0  0  0  0  0
  -17.9673  -28.2895   23.0492 C   0  0  0  0  0  0  0  0  0  0  0  0
  -23.5328  -30.8424   25.5748 C   0  0  0  0  0  0  0  0  0  0  0  0
  -21.4109  -29.5597   25.9215 C   0  0  0  0  0  0  0  0  0  0  0  0
  -21.3220  -31.9239   25.1308 C   0  0  0  0  0  0  0  0  0  0  0  0
  -19.6928  -28.1421   19.6614 C   0  0  0  0  0  0  0  0  0  0  0  0
  -28.0494  -25.2092   19.1482 C   0  0  0  0  0  0  0  0  0  1  0  0
  -22.1082  -30.1162   23.5477 C   0  0  1  0  0  0  0  0  0  0  0  0
  -18.9529  -28.7231   21.9752 C   0  0  2  0  0  0  0  0  0  0  0  0
  -22.1128  -30.6017   25.0248 C   0  0  0  0  0  0  0  0  0  0  0  0
  -26.1733  -11.2774   20.7403 N   0  0  0  0  0  0  0  0  0  0  0  0
  -27.4570  -11.4702   21.0882 N   0  0  0  0  0  0  0  0  0  0  0  0
  -23.9144  -30.5883   21.9233 N   0  0  0  0  0  0  0  0  0  0  0  0
  -27.9658  -15.0461   19.8135 N   0  0  0  0  0  0  0  0  0  0  0  0
  -29.2268  -10.5492   22.3650 N   0  0  0  0  0  0  0  0  0  0  0  0
  -25.8303   -7.6525   23.0502 N   0  0  0  0  0  0  0  0  0  0  0  0
  -25.9196  -33.2596   22.3851 N   0  0  0  0  0  0  0  0  0  0  0  0
  -20.7758  -29.9062   22.9919 N   0  0  0  0  0  0  0  0  0  0  0  0
  -28.4633  -17.3626   19.8555 N   0  0  0  0  0  0  0  0  0  0  0  0
  -18.7992  -27.8163   20.8026 N   0  3  0  0  0  0  0  0  0  0  0  0
  -28.0147   -8.1174   23.5708 O   0  0  0  0  0  0  0  0  0  0  0  0
  -26.6837  -31.0606   22.4409 O   0  0  0  0  0  0  0  0  0  0  0  0
  -22.3746  -32.2356   22.5163 O   0  0  0  0  0  0  0  0  0  0  0  0
  -21.0758  -27.6717   22.4495 O   0  0  0  0  0  0  0  0  0  0  0  0
  -27.1846  -16.4258   21.5097 O   0  0  0  0  0  0  0  0  0  0  0  0
  -20.7056   -8.0172   20.8963 O   0  0  0  0  0  0  0  0  0  0  0  0
  -27.1666  -25.6444   20.1814 O   0  0  0  0  0  0  0  0  0  1  0  0
  -20.2583   -2.5917   20.0206 F   0  0  0  0  0  0  0  0  0  0  0  0
  -19.4646   -7.0446   18.6255 F   0  0  0  0  0  0  0  0  0  0  0  0
  1  2  1  0  0  0  0
  1  5  2  0  0  0  0
  2  6  2  0  0  0  0
  3  8  2  0  0  0  0
  3 17  1  0  0  0  0
  4  9  1  0  0  0  0
  4 17  2  0  0  0  0
  5 19  1  0  0  0  0
  6 21  1  0  0  0  0
  7 10  2  0  0  0  0
  7 20  1  0  0  0  0
  8 27  1  0  0  0  0
  9 27  2  0  0  0  0
 10 28  1  0  0  0  0
 11 12  2  0  0  0  0
 11 29  1  0  0  0  0
 12 30  1  0  0  0  0
 13 22  1  0  0  0  0
 13 28  2  0  0  0  0
 14 24  1  0  0  0  0
 14 25  2  0  0  0  0
 15 24  2  0  0  0  0
 15 26  1  0  0  0  0
 16 30  2  0  0  0  0
 16 31  1  0  0  0  0
 17 32  1  0  0  0  0
 18 32  1  0  0  0  0
 18 33  2  0  0  0  0
 18 34  1  0  0  0  0
 19 21  2  0  0  0  0
 19 39  1  0  0  0  0
 20 22  2  0  0  0  0
 20 40  1  0  0  0  0
 21 50  1  0  0  0  0
 22 41  1  0  0  0  0
 23 25  1  0  0  0  0
 23 26  2  0  0  0  0
 23 49  1  0  0  0  0
 24 61  1  0  0  0  0
 25 54  1  0  0  0  0
 26 55  1  0  0  0  0
 27 80  1  0  0  0  0
 28 81  1  0  0  0  0
 29 31  2  0  0  0  0
 29 80  1  0  0  0  0
 30 82  1  0  0  0  0
 31 83  1  0  0  0  0
 32 65  2  0  0  0  0
 33 66  1  0  0  0  0
 33 69  1  0  0  0  0
 34 70  1  0  0  0  0
 34 75  2  0  0  0  0
 35 51  1  0  0  0  0
 35 71  1  0  0  0  0
 35 76  2  0  0  0  0
 36 62  1  0  0  0  0
 36 67  1  0  0  0  0
 36 77  2  0  0  0  0
 37 63  1  0  0  0  0
 37 72  1  0  0  0  0
 37 78  2  0  0  0  0
 38 68  1  0  0  0  0
 38 73  1  0  0  0  0
 38 79  2  0  0  0  0
 39 42  1  0  0  0  0
 40 51  1  0  0  0  0
 41 67  1  0  0  0  0
 42 44  1  0  0  0  0
 43 45  1  0  0  0  0
 43 47  1  0  0  0  0
 44 50  1  0  0  0  0
 45 52  1  0  0  0  0
 46 49  1  0  0  0  0
 46 53  1  0  0  0  0
 47 68  1  0  0  0  0
 48 52  1  0  0  0  0
 48 68  1  0  0  0  0
 49 53  1  0  0  0  0
 50 71  1  0  0  0  0
 51 67  1  0  0  0  0
 52 66  1  0  0  0  0
 53 73  1  0  0  0  0
 56 63  1  0  0  0  0
 57 64  1  0  0  0  0
 58 64  1  0  0  0  0
 59 64  1  0  0  0  0
 60 74  1  0  0  0  0
 61 81  1  0  0  0  0
 62 64  1  0  0  0  0
 62 72  1  0  0  0  0
 63 74  1  0  0  0  0
 65 66  1  0  0  0  0
M  CHG  1  74   1
M  ISO  4  38 100  61 101  73 100  81 101
M  END
> <Batch ID>
0141

> <Smiles>
CNC(C)C(=O)NC(C(=O)N1Cc2cc([101O:1][101CH2:1]c3cc(C)c(C4CC4[100NH:0][100C:0](=O)N4CCCC(n5nc(-c6ccc(Oc7ccc(F)cc7F)cc6)c(C(N)=O)c5N)C4)c(C)c3)ccc2CC1C(=O)NC1CCCc2ccccc21)C(C)(C)C

> <Shape>
0.303

> <Color>
0.091

> <Negative vol penalty>
0.000

$$$$

  -OEChem-04052321163D

 86 95  0     1  0  0  0  0  0999 V2000
  -27.2349  -37.1452   24.4093 C   0  0  0  0  0  0  0  0  0  0  0  0
  -27.9388  -36.0482   23.9230 C   0  0  0  0  0  0  0  0  0  0  0  0
  -22.7980  -11.4659   20.9489 C   0  0  0  0  0  0  0  0  0  0  0  0
  -23.6728   -9.2291   21.2106 C   0  0  0  0  0  0  0  0  0  0  0  0
  -25.9310  -36.9842   24.8761 C   0  0  0  0  0  0  0  0  0  0  0  0
  -27.3397  -34.7893   23.9043 C   0  0  0  0  0  0  0  0  0  0  0  0
  -27.2121  -28.7232   20.0959 C   0  0  0  0  0  0  0  0  0  0  0  0
  -21.5640  -10.9387   20.5682 C   0  0  0  0  0  0  0  0  0  0  0  0
  -22.4388   -8.7019   20.8299 C   0  0  0  0  0  0  0  0  0  0  0  0
  -27.3567  -27.3461   20.2586 C   0  0  0  0  0  0  0  0  0  0  0  0
  -19.4120   -6.7656   20.2753 C   0  0  0  0  0  0  0  0  0  0  0  0
  -18.8980   -5.7086   21.0264 C   0  0  0  0  0  0  0  0  0  0  0  0
  -25.0712  -27.2019   21.0168 C   0  0  0  0  0  0  0  0  0  0  0  0
  -26.7423  -22.4409   20.0296 C   0  0  0  0  0  0  0  0  0  0  0  0
  -18.9011   -7.1072   22.9965 C   0  0  0  0  0  0  0  0  0  0  0  0
  -23.8524  -10.6111   21.2700 C   0  0  0  0  0  0  0  0  0  0  0  0
  -25.5507  -11.4729   22.9672 C   0  0  0  0  0  0  0  0  0  0  0  0
  -25.3121  -35.7244   24.8541 C   0  0  0  0  0  0  0  0  0  0  0  0
  -25.9973  -29.3526   20.4034 C   0  0  0  0  0  0  0  0  0  0  0  0
  -26.0267  -34.6109   24.3725 C   0  0  0  0  0  0  0  0  0  0  0  0
  -24.9130  -28.5867   20.8548 C   0  0  0  0  0  0  0  0  0  0  0  0
  -26.7267  -21.0663   20.2383 C   0  0  0  0  0  0  0  0  0  0  0  0
  -27.6066  -20.4975   21.1524 C   0  0  0  0  0  0  0  0  0  0  0  0
  -21.3843   -9.5567   20.5087 C   0  0  0  0  0  0  0  0  0  0  0  0
  -26.2871  -26.5856   20.7218 C   0  0  0  0  0  0  0  0  0  0  0  0
  -19.6707   -7.9934   20.8848 C   0  0  0  0  0  0  0  0  0  0  0  0
  -18.6425   -5.8794   22.3870 C   0  0  0  0  0  0  0  0  0  0  0  0
  -19.4152   -8.1641   22.2454 C   0  0  0  0  0  0  0  0  0  0  0  0
  -25.1276  -11.1550   21.6628 C   0  0  0  0  0  0  0  0  0  0  0  0
  -27.6498  -23.1967   20.7542 C   0  0  0  0  0  0  0  0  0  0  0  0
  -28.4755  -21.3403   21.8267 C   0  0  0  0  0  0  0  0  0  0  0  0
  -26.8277  -11.9527   22.8066 C   0  0  0  0  0  0  0  0  0  0  0  0
  -24.8521  -11.3459   24.2128 C   0  0  0  0  0  0  0  0  0  0  0  0
  -25.0872  -31.5781   22.4825 C   0  0  0  0  0  0  0  0  0  0  0  0
  -22.2638  -31.3449   20.9026 C   0  0  0  0  0  0  0  0  0  0  0  0
  -20.1756  -29.4676   18.9630 C   0  0  0  0  0  0  0  0  0  0  0  0
  -30.4955  -15.1343   20.0733 C   0  0  0  0  0  0  0  0  0  0  0  0
  -23.9177  -35.5907   25.4131 C   0  0  0  0  0  0  0  0  0  0  0  0
  -25.8492  -30.8352   20.1970 C   0  0  0  0  0  0  0  0  0  0  0  0
  -23.5815  -29.2113   21.1796 C   0  0  0  0  0  0  0  0  0  0  0  0
  -23.2222  -34.2926   25.0113 C   0  0  0  0  0  0  0  0  0  0  0  0
  -29.9082  -11.8896   18.8169 C   0  0  0  0  0  0  0  0  0  0  0  0
  -24.1592  -33.1040   25.2014 C   0  0  0  0  0  0  0  0  0  0  0  0
  -28.6316  -11.4383   19.5213 C   0  0  0  0  0  0  0  0  0  0  0  0
  -30.0937  -18.5121   21.5347 C   0  0  0  0  0  0  0  0  0  0  0  0
  -29.8407  -13.3714   18.4725 C   0  0  0  0  0  0  0  0  0  0  0  0
  -30.9607  -17.3435   21.0873 C   0  0  0  0  0  0  0  0  0  0  0  0
  -28.3495  -13.8120   20.4038 C   0  0  0  0  0  0  0  0  0  0  0  0
  -28.6520  -16.8147   20.6815 C   0  0  0  0  0  0  0  0  0  0  0  0
  -25.4022  -33.2338   24.3129 C   0  0  1  0  0  0  0  0  0  0  0  0
  -24.7261  -31.4451   21.0301 C   0  0  1  0  0  0  0  0  0  0  0  0
  -28.3569  -12.3103   20.7565 C   0  0  1  0  0  0  0  0  0  0  0  0
  -28.8015  -18.3447   20.7162 C   0  0  2  0  0  0  0  0  0  0  0  0
  -25.7612  -20.2264   19.4693 C   0  0  0  0  0  0  0  0  0  0  0  0
  -29.4429  -20.7880   22.8220 C   0  0  0  0  0  0  0  0  0  0  0  0
  -28.9628  -18.9113   19.2963 C   0  0  0  0  0  0  0  0  0  0  0  0
  -17.9213  -29.5313   17.8624 C   0  0  0  0  0  0  0  0  0  0  0  0
  -20.9326  -30.8727   23.6072 C   0  0  0  0  0  0  0  0  0  0  0  0
  -18.9200  -30.0163   22.3888 C   0  0  0  0  0  0  0  0  0  0  0  0
  -19.6602  -32.3766   22.0667 C   0  0  0  0  0  0  0  0  0  0  0  0
  -21.3549  -29.1588   16.2662 C   0  0  0  0  0  0  0  0  0  0  0  0
  -27.6108  -19.0179   21.4002 C   0  0  0  0  0  0  0  0  0  0  0  0
  -27.6938  -24.6752   20.5571 C   0  0  0  0  0  0  0  0  0  1  0  0
  -21.0206  -30.5018   21.0537 C   0  0  1  0  0  0  0  0  0  0  0  0
  -19.4090  -29.7989   17.6954 C   0  0  2  0  0  0  0  0  0  0  0  0
  -20.1589  -30.9301   22.2749 C   0  0  0  0  0  0  0  0  0  0  0  0
  -26.0599  -11.4113   20.7414 N   0  0  0  0  0  0  0  0  0  0  0  0
  -28.5198  -22.6799   21.6506 N   0  0  0  0  0  0  0  0  0  0  0  0
  -27.0817  -11.8955   21.4678 N   0  0  0  0  0  0  0  0  0  0  0  0
  -23.4884  -30.6652   20.9675 N   0  0  0  0  0  0  0  0  0  0  0  0
  -29.5527  -14.1905   19.6513 N   0  0  0  0  0  0  0  0  0  0  0  0
  -30.0262  -16.3030   20.6720 N   0  0  0  0  0  0  0  0  0  0  0  0
  -27.7467  -12.4137   23.6814 N   0  0  0  0  0  0  0  0  0  0  0  0
  -23.5472  -10.8346   24.1978 N   0  0  0  0  0  0  0  0  0  0  0  0
  -25.0855  -32.8799   22.9458 N   0  0  0  0  0  0  0  0  0  0  0  0
  -20.3217  -30.5724   19.7750 N   0  0  0  0  0  0  0  0  0  0  0  0
  -19.9095  -28.9769   16.5575 N   0  3  0  0  0  0  0  0  0  0  0  0
  -25.3636  -11.6913   25.3048 O   0  0  0  0  0  0  0  0  0  0  0  0
  -25.3467  -30.5738   23.1350 O   0  0  0  0  0  0  0  0  0  0  0  0
  -22.1522  -32.5607   20.7262 O   0  0  0  0  0  0  0  0  0  0  0  0
  -20.5989  -28.3405   19.2101 O   0  0  0  0  0  0  0  0  0  0  0  0
  -31.7072  -14.9604   19.8849 O   0  0  0  0  0  0  0  0  0  0  0  0
  -20.1803   -9.0420   20.1376 O   0  0  0  0  0  0  0  0  0  0  0  0
  -26.4267  -25.2320   20.8833 O   0  0  0  0  0  0  0  0  0  1  0  0
  -18.1474   -4.8648   23.1079 F   0  0  0  0  0  0  0  0  0  0  0  0
  -19.6605   -9.3417   22.8362 F   0  0  0  0  0  0  0  0  0  0  0  0
  1  2  1  0  0  0  0
  1  5  2  0  0  0  0
  2  6  2  0  0  0  0
  3  8  2  0  0  0  0
  3 16  1  0  0  0  0
  4  9  1  0  0  0  0
  4 16  2  0  0  0  0
  5 18  1  0  0  0  0
  6 20  1  0  0  0  0
  7 10  2  0  0  0  0
  7 19  1  0  0  0  0
  8 24  1  0  0  0  0
  9 24  2  0  0  0  0
 10 25  1  0  0  0  0
 11 12  2  0  0  0  0
 11 26  1  0  0  0  0
 12 27  1  0  0  0  0
 13 21  1  0  0  0  0
 13 25  2  0  0  0  0
 14 22  2  0  0  0  0
 14 30  1  0  0  0  0
 15 27  2  0  0  0  0
 15 28  1  0  0  0  0
 16 29  1  0  0  0  0
 17 29  1  0  0  0  0
 17 32  2  0  0  0  0
 17 33  1  0  0  0  0
 18 20  2  0  0  0  0
 18 38  1  0  0  0  0
 19 21  2  0  0  0  0
 19 39  1  0  0  0  0
 20 50  1  0  0  0  0
 21 40  1  0  0  0  0
 22 23  1  0  0  0  0
 22 54  1  0  0  0  0
 23 31  2  0  0  0  0
 23 62  1  0  0  0  0
 24 83  1  0  0  0  0
 25 84  1  0  0  0  0
 26 28  2  0  0  0  0
 26 83  1  0  0  0  0
 27 85  1  0  0  0  0
 28 86  1  0  0  0  0
 29 67  2  0  0  0  0
 30 63  1  0  0  0  0
 30 68  2  0  0  0  0
 31 55  1  0  0  0  0
 31 68  1  0  0  0  0
 32 69  1  0  0  0  0
 32 73  1  0  0  0  0
 33 74  1  0  0  0  0
 33 78  2  0  0  0  0
 34 51  1  0  0  0  0
 34 75  1  0  0  0  0
 34 79  2  0  0  0  0
 35 64  1  0  0  0  0
 35 70  1  0  0  0  0
 35 80  2  0  0  0  0
 36 65  1  0  0  0  0
 36 76  1  0  0  0  0
 36 81  2  0  0  0  0
 37 71  1  0  0  0  0
 37 72  1  0  0  0  0
 37 82  2  0  0  0  0
 38 41  1  0  0  0  0
 39 51  1  0  0  0  0
 40 70  1  0  0  0  0
 41 43  1  0  0  0  0
 42 44  1  0  0  0  0
 42 46  1  0  0  0  0
 43 50  1  0  0  0  0
 44 52  1  0  0  0  0
 45 47  1  0  0  0  0
 45 53  1  0  0  0  0
 46 71  1  0  0  0  0
 47 72  1  0  0  0  0
 48 52  1  0  0  0  0
 48 71  1  0  0  0  0
 49 53  1  0  0  0  0
 49 72  1  0  0  0  0
 50 75  1  0  0  0  0
 51 70  1  0  0  0  0
 52 69  1  0  0  0  0
 53 56  1  0  0  0  0
 53 62  1  0  0  0  0
 57 65  1  0  0  0  0
 58 66  1  0  0  0  0
 59 66  1  0  0  0  0
 60 66  1  0  0  0  0
 61 77  1  0  0  0  0
 63 84  1  0  0  0  0
 64 66  1  0  0  0  0
 64 76  1  0  0  0  0
 65 77  1  0  0  0  0
 67 69  1  0  0  0  0
M  CHG  1  77   1
M  ISO  4  37 100  63 101  72 100  84 101
M  END
> <Batch ID>
0141

> <Smiles>
CNC(C)C(=O)NC(C(=O)N1Cc2cc([101O:1][101CH2:1]c3cc(C)c(CC4(C)CC[100N:0]([100C:0](=O)N5CCCC(n6nc(-c7ccc(Oc8ccc(F)cc8F)cc7)c(C(N)=O)c6N)C5)C4)c(C)n3)ccc2CC1C(=O)NC1CCCc2ccccc21)C(C)(C)C

> <Shape>
0.288

> <Color>
0.098

> <Negative vol penalty>
0.000

$$$$

  -OEChem-04052321163D

 84 93  0     1  0  0  0  0  0999 V2000
  -26.8366  -37.6650   23.1292 C   0  0  0  0  0  0  0  0  0  0  0  0
  -27.4337  -36.7405   22.2782 C   0  0  0  0  0  0  0  0  0  0  0  0
  -24.1792   -9.2004   20.4549 C   0  0  0  0  0  0  0  0  0  0  0  0
  -22.7226  -10.8079   21.5185 C   0  0  0  0  0  0  0  0  0  0  0  0
  -26.0932  -37.2247   24.2235 C   0  0  0  0  0  0  0  0  0  0  0  0
  -27.2886  -35.3752   22.5215 C   0  0  0  0  0  0  0  0  0  0  0  0
  -26.7827  -29.1135   19.0789 C   0  0  0  0  0  0  0  0  0  0  0  0
  -23.3099   -8.1720   20.8187 C   0  0  0  0  0  0  0  0  0  0  0  0
  -21.8533   -9.7795   21.8822 C   0  0  0  0  0  0  0  0  0  0  0  0
  -27.3603  -27.8447   19.0606 C   0  0  0  0  0  0  0  0  0  0  0  0
  -22.6049   -6.3706   23.5904 C   0  0  0  0  0  0  0  0  0  0  0  0
  -23.1633   -5.2101   24.1262 C   0  0  0  0  0  0  0  0  0  0  0  0
  -27.3378  -20.9638   20.2629 C   0  0  0  0  0  0  0  0  0  0  0  0
  -25.9874  -27.1993   20.9362 C   0  0  0  0  0  0  0  0  0  0  0  0
  -27.6379  -21.0355   22.6591 C   0  0  0  0  0  0  0  0  0  0  0  0
  -22.2148   -3.9188   22.3178 C   0  0  0  0  0  0  0  0  0  0  0  0
  -23.8856  -10.5183   20.8048 C   0  0  0  0  0  0  0  0  0  0  0  0
  -24.7547  -12.3396   19.2443 C   0  0  0  0  0  0  0  0  0  0  0  0
  -25.9309  -35.8532   24.4749 C   0  0  0  0  0  0  0  0  0  0  0  0
  -25.8093  -29.4387   20.0345 C   0  0  0  0  0  0  0  0  0  0  0  0
  -26.5434  -34.9162   23.6210 C   0  0  0  0  0  0  0  0  0  0  0  0
  -27.5553  -19.5861   20.2769 C   0  0  0  0  0  0  0  0  0  0  0  0
  -25.3972  -28.4721   20.9628 C   0  0  0  0  0  0  0  0  0  0  0  0
  -27.3791  -21.6886   21.4541 C   0  0  0  0  0  0  0  0  0  0  0  0
  -27.8141  -18.9331   21.4819 C   0  0  0  0  0  0  0  0  0  0  0  0
  -22.1470   -8.4615   21.5323 C   0  0  0  0  0  0  0  0  0  0  0  0
  -26.9648  -26.8883   19.9911 C   0  0  0  0  0  0  0  0  0  0  0  0
  -21.8514   -6.3052   22.4183 C   0  0  0  0  0  0  0  0  0  0  0  0
  -22.9683   -3.9842   23.4899 C   0  0  0  0  0  0  0  0  0  0  0  0
  -21.6564   -5.0793   21.7821 C   0  0  0  0  0  0  0  0  0  0  0  0
  -27.8554  -19.6578   22.6731 C   0  0  0  0  0  0  0  0  0  0  0  0
  -24.7835  -11.5810   20.4299 C   0  0  0  0  0  0  0  0  0  0  0  0
  -25.8079  -13.2124   19.3695 C   0  0  0  0  0  0  0  0  0  0  0  0
  -23.8562  -12.2623   18.1296 C   0  0  0  0  0  0  0  0  0  0  0  0
  -25.6003  -31.5622   22.3905 C   0  0  0  0  0  0  0  0  0  0  0  0
  -22.5615  -30.4470   22.6022 C   0  0  0  0  0  0  0  0  0  0  0  0
  -20.3619  -27.9031   22.0215 C   0  0  0  0  0  0  0  0  0  0  0  0
  -28.8281  -16.8035   22.3669 C   0  0  0  0  0  0  0  0  0  0  0  0
  -25.1577  -35.4258   25.6973 C   0  0  0  0  0  0  0  0  0  0  0  0
  -25.1767  -30.8033   20.0240 C   0  0  0  0  0  0  0  0  0  0  0  0
  -24.3414  -28.7646   21.9965 C   0  0  0  0  0  0  0  0  0  0  0  0
  -24.7398  -33.9578   25.6712 C   0  0  0  0  0  0  0  0  0  0  0  0
  -29.5948  -13.3451   22.7255 C   0  0  0  0  0  0  0  0  0  0  0  0
  -28.6880  -18.0005   18.5808 C   0  0  0  0  0  0  0  0  0  0  0  0
  -28.3932  -19.2743   17.8522 C   0  0  0  0  0  0  0  0  0  0  0  0
  -25.9124  -33.0763   25.2527 C   0  0  0  0  0  0  0  0  0  0  0  0
  -28.4091  -12.6403   22.0627 C   0  0  0  0  0  0  0  0  0  0  0  0
  -29.1602  -14.6038   23.4741 C   0  0  0  0  0  0  0  0  0  0  0  0
  -27.1884  -14.8527   22.0182 C   0  0  0  0  0  0  0  0  0  0  0  0
  -27.5043  -18.8370   18.9848 C   0  0  0  0  0  0  0  0  0  0  0  0
  -26.3883  -33.4265   23.8377 C   0  0  1  0  0  0  0  0  0  0  0  0
  -24.5652  -31.1888   21.3674 C   0  0  1  0  0  0  0  0  0  0  0  0
  -27.5859  -13.6148   21.1977 C   0  0  2  0  0  0  0  0  0  0  0  0
  -17.9545  -27.2697   22.3384 C   0  0  0  0  0  0  0  0  0  0  0  0
  -23.0882  -29.9365   25.5639 C   0  0  0  0  0  0  0  0  0  0  0  0
  -21.0602  -28.4688   25.6001 C   0  0  0  0  0  0  0  0  0  0  0  0
  -20.8341  -30.8925   25.0548 C   0  0  0  0  0  0  0  0  0  0  0  0
  -19.9309  -27.6252   19.1067 C   0  0  0  0  0  0  0  0  0  0  0  0
  -27.1441  -23.1780   21.4383 C   0  0  0  0  0  0  0  0  0  0  0  0
  -28.4501  -23.9498   21.2514 C   0  0  0  0  0  0  0  0  0  0  0  0
  -21.8818  -29.3338   23.3622 C   0  0  1  0  0  0  0  0  0  0  0  0
  -18.9771  -27.8911   21.3998 C   0  0  2  0  0  0  0  0  0  0  0  0
  -21.7374  -29.6527   24.8771 C   0  0  0  0  0  0  0  0  0  0  0  0
  -25.7764  -11.9402   21.2479 N   0  0  0  0  0  0  0  0  0  0  0  0
  -26.3813  -12.9341   20.5752 N   0  0  0  0  0  0  0  0  0  0  0  0
  -23.7573  -30.1152   21.9495 N   0  0  0  0  0  0  0  0  0  0  0  0
  -28.3891  -15.4815   22.5909 N   0  0  0  0  0  0  0  0  0  0  0  0
  -26.2901  -14.1829   18.5646 N   0  0  0  0  0  0  0  0  0  0  0  0
  -22.8298  -11.3086   18.1637 N   0  0  0  0  0  0  0  0  0  0  0  0
  -28.0331  -17.5332   21.4836 N   0  0  0  0  0  0  0  0  0  0  0  0
  -25.4947  -32.8613   22.8495 N   0  0  0  0  0  0  0  0  0  0  0  0
  -20.6159  -29.0876   22.6802 N   0  0  0  0  0  0  0  0  0  0  0  0
  -28.1928  -25.3828   21.2509 N   0  0  0  0  0  0  0  0  0  1  0  0
  -18.9858  -27.1101   20.1306 N   0  3  0  0  0  0  0  0  0  0  0  0
  -23.9706  -13.0057   17.1257 O   0  0  0  0  0  0  0  0  0  0  0  0
  -26.4322  -30.7326   22.7389 O   0  0  0  0  0  0  0  0  0  0  0  0
  -22.0468  -31.5678   22.5821 O   0  0  0  0  0  0  0  0  0  0  0  0
  -21.1392  -26.9550   21.9349 O   0  0  0  0  0  0  0  0  0  0  0  0
  -29.8503  -17.2465   22.8968 O   0  0  0  0  0  0  0  0  0  0  0  0
  -21.2983   -7.4583   21.8872 O   0  0  0  0  0  0  0  0  0  0  0  0
  -27.5274  -25.6493   19.9759 O   0  0  0  0  0  0  0  0  0  1  0  0
  -23.5058   -2.8701   24.0037 F   0  0  0  0  0  0  0  0  0  0  0  0
  -20.9344   -5.0104   20.6552 F   0  0  0  0  0  0  0  0  0  0  0  0
  -28.1714  -18.8919   24.1899 Cl  0  0  0  0  0  0  0  0  0  0  0  0
  1  2  1  0  0  0  0
  1  5  2  0  0  0  0
  2  6  2  0  0  0  0
  3  8  2  0  0  0  0
  3 17  1  0  0  0  0
  4  9  1  0  0  0  0
  4 17  2  0  0  0  0
  5 19  1  0  0  0  0
  6 21  1  0  0  0  0
  7 10  2  0  0  0  0
  7 20  1  0  0  0  0
  8 26  1  0  0  0  0
  9 26  2  0  0  0  0
 10 27  1  0  0  0  0
 11 12  2  0  0  0  0
 11 28  1  0  0  0  0
 12 29  1  0  0  0  0
 13 22  1  0  0  0  0
 13 24  2  0  0  0  0
 14 23  1  0  0  0  0
 14 27  2  0  0  0  0
 15 24  1  0  0  0  0
 15 31  2  0  0  0  0
 16 29  2  0  0  0  0
 16 30  1  0  0  0  0
 17 32  1  0  0  0  0
 18 32  1  0  0  0  0
 18 33  2  0  0  0  0
 18 34  1  0  0  0  0
 19 21  2  0  0  0  0
 19 39  1  0  0  0  0
 20 23  2  0  0  0  0
 20 40  1  0  0  0  0
 21 51  1  0  0  0  0
 22 25  2  0  0  0  0
 22 50  1  0  0  0  0
 23 41  1  0  0  0  0
 24 59  1  0  0  0  0
 25 31  1  0  0  0  0
 25 70  1  0  0  0  0
 26 80  1  0  0  0  0
 27 81  1  0  0  0  0
 28 30  2  0  0  0  0
 28 80  1  0  0  0  0
 29 82  1  0  0  0  0
 30 83  1  0  0  0  0
 31 84  1  0  0  0  0
 32 64  2  0  0  0  0
 33 65  1  0  0  0  0
 33 68  1  0  0  0  0
 34 69  1  0  0  0  0
 34 75  2  0  0  0  0
 35 52  1  0  0  0  0
 35 71  1  0  0  0  0
 35 76  2  0  0  0  0
 36 61  1  0  0  0  0
 36 66  1  0  0  0  0
 36 77  2  0  0  0  0
 37 62  1  0  0  0  0
 37 72  1  0  0  0  0
 37 78  2  0  0  0  0
 38 67  1  0  0  0  0
 38 70  1  0  0  0  0
 38 79  2  0  0  0  0
 39 42  1  0  0  0  0
 40 52  1  0  0  0  0
 41 66  1  0  0  0  0
 42 46  1  0  0  0  0
 43 47  1  0  0  0  0
 43 48  1  0  0  0  0
 44 45  1  0  0  0  0
 44 50  1  0  0  0  0
 45 50  1  0  0  0  0
 46 51  1  0  0  0  0
 47 53  1  0  0  0  0
 48 67  1  0  0  0  0
 49 53  1  0  0  0  0
 49 67  1  0  0  0  0
 51 71  1  0  0  0  0
 52 66  1  0  0  0  0
 53 65  1  0  0  0  0
 54 62  1  0  0  0  0
 55 63  1  0  0  0  0
 56 63  1  0  0  0  0
 57 63  1  0  0  0  0
 58 74  1  0  0  0  0
 59 60  1  0  0  0  0
 60 73  1  0  0  0  0
 61 63  1  0  0  0  0
 61 72  1  0  0  0  0
 62 74  1  0  0  0  0
 64 65  1  0  0  0  0
 73 81  1  0  0  0  0
M  CHG  1  74   1
M  ISO  4  38 100  70 100  73 101  81 101
M  END
> <Batch ID>
0141

> <Smiles>
CNC(C)C(=O)NC(C(=O)N1Cc2cc([101O:1][101NH:1]CCc3cc(Cl)c([100NH:0][100C:0](=O)N4CCCC(n5nc(-c6ccc(Oc7ccc(F)cc7F)cc6)c(C(N)=O)c5N)C4)c(C4CC4)c3)ccc2CC1C(=O)NC1CCCc2ccccc21)C(C)(C)C

> <Shape>
0.334

> <Color>
0.113

> <Negative vol penalty>
0.000

$$$$

  -OEChem-04052321163D

 86 95  0     1  0  0  0  0  0999 V2000
  -14.9512  -30.1675   20.5282 C   0  0  0  0  0  0  0  0  0  0  0  0
  -15.7247  -29.1155   20.0482 C   0  0  0  0  0  0  0  0  0  0  0  0
  -23.0669  -10.0081   19.9222 C   0  0  0  0  0  0  0  0  0  0  0  0
  -23.9389   -9.7133   22.1560 C   0  0  0  0  0  0  0  0  0  0  0  0
  -15.2727  -30.7696   21.7439 C   0  0  0  0  0  0  0  0  0  0  0  0
  -16.8209  -28.6656   20.7833 C   0  0  0  0  0  0  0  0  0  0  0  0
  -18.8449  -22.9022   21.2215 C   0  0  0  0  0  0  0  0  0  0  0  0
  -22.3003   -8.8521   20.0688 C   0  0  0  0  0  0  0  0  0  0  0  0
  -23.1722   -8.5573   22.3027 C   0  0  0  0  0  0  0  0  0  0  0  0
  -19.8719  -22.2169   20.5738 C   0  0  0  0  0  0  0  0  0  0  0  0
  -19.9542   -7.7730   22.9733 C   0  0  0  0  0  0  0  0  0  0  0  0
  -19.2550   -7.6083   24.1689 C   0  0  0  0  0  0  0  0  0  0  0  0
  -24.7076  -18.4257   18.9533 C   0  0  0  0  0  0  0  0  0  0  0  0
  -21.3434  -22.6821   22.4278 C   0  0  0  0  0  0  0  0  0  0  0  0
  -23.5951  -20.5590   17.5412 C   0  0  0  0  0  0  0  0  0  0  0  0
  -20.4696   -5.5641   24.5974 C   0  0  0  0  0  0  0  0  0  0  0  0
  -23.8862  -10.4387   20.9657 C   0  0  0  0  0  0  0  0  0  0  0  0
  -24.3011  -12.9500   21.1361 C   0  0  0  0  0  0  0  0  0  0  0  0
  -16.3677  -30.3205   22.4989 C   0  0  0  0  0  0  0  0  0  0  0  0
  -19.0630  -23.4929   22.4744 C   0  0  0  0  0  0  0  0  0  0  0  0
  -17.1582  -29.2632   22.0097 C   0  0  0  0  0  0  0  0  0  0  0  0
  -25.2713  -18.8308   17.7434 C   0  0  0  0  0  0  0  0  0  0  0  0
  -20.3168  -23.3722   23.0905 C   0  0  0  0  0  0  0  0  0  0  0  0
  -23.5876  -19.0872   19.4571 C   0  0  0  0  0  0  0  0  0  0  0  0
  -23.0314  -20.1539   18.7510 C   0  0  0  0  0  0  0  0  0  0  0  0
  -22.3529   -8.1267   21.2591 C   0  0  0  0  0  0  0  0  0  0  0  0
  -21.1222  -22.1093   21.1757 C   0  0  0  0  0  0  0  0  0  0  0  0
  -20.9110   -6.8333   22.5896 C   0  0  0  0  0  0  0  0  0  0  0  0
  -24.7151  -19.8975   17.0374 C   0  0  0  0  0  0  0  0  0  0  0  0
  -19.5128   -6.5038   24.9810 C   0  0  0  0  0  0  0  0  0  0  0  0
  -21.1687   -5.7289   23.4017 C   0  0  0  0  0  0  0  0  0  0  0  0
  -24.6788  -11.6325   20.8146 C   0  0  0  0  0  0  0  0  0  0  0  0
  -25.3971  -13.7107   20.8096 C   0  0  0  0  0  0  0  0  0  0  0  0
  -23.0698  -13.4421   21.6813 C   0  0  0  0  0  0  0  0  0  0  0  0
  -18.9725  -26.4644   23.5997 C   0  0  0  0  0  0  0  0  0  0  0  0
  -19.4463  -24.9851   26.4474 C   0  0  0  0  0  0  0  0  0  0  0  0
  -20.6077  -22.2570   28.1372 C   0  0  0  0  0  0  0  0  0  0  0  0
  -29.5497  -15.0889   17.5277 C   0  0  0  0  0  0  0  0  0  0  0  0
  -16.7044  -31.0338   23.7845 C   0  0  0  0  0  0  0  0  0  0  0  0
  -17.9371  -24.2058   23.1720 C   0  0  0  0  0  0  0  0  0  0  0  0
  -20.5964  -23.9711   24.4438 C   0  0  0  0  0  0  0  0  0  0  0  0
  -17.6585  -30.2514   24.6832 C   0  0  0  0  0  0  0  0  0  0  0  0
  -30.1098  -12.3670   19.5842 C   0  0  0  0  0  0  0  0  0  0  0  0
  -18.8276  -29.7028   23.8713 C   0  0  0  0  0  0  0  0  0  0  0  0
  -28.7198  -12.0290   20.1233 C   0  0  0  0  0  0  0  0  0  0  0  0
  -27.6979  -18.2308   18.1560 C   0  0  0  0  0  0  0  0  0  0  0  0
  -26.1914  -16.6204   16.9159 C   0  0  0  0  0  0  0  0  0  0  0  0
  -30.0484  -12.7324   18.1054 C   0  0  0  0  0  0  0  0  0  0  0  0
  -28.9103  -17.4710   17.6230 C   0  0  0  0  0  0  0  0  0  0  0  0
  -27.4368  -15.8985   16.4097 C   0  0  0  0  0  0  0  0  0  0  0  0
  -27.7196  -13.5317   18.3329 C   0  0  0  0  0  0  0  0  0  0  0  0
  -26.4904  -18.1007   17.2117 C   0  0  0  0  0  0  0  0  0  0  0  0
  -18.3403  -28.7306   22.7901 C   0  0  1  0  0  0  0  0  0  0  0  0
  -18.4202  -25.2095   24.2144 C   0  0  1  0  0  0  0  0  0  0  0  0
  -27.7230  -13.1642   19.8303 C   0  0  1  0  0  0  0  0  0  0  0  0
  -23.0004  -18.6338   20.7533 C   0  0  0  0  0  0  0  0  0  0  0  0
  -20.8934  -21.3538   30.4610 C   0  0  0  0  0  0  0  0  0  0  0  0
  -21.8290  -26.8427   26.8739 C   0  0  0  0  0  0  0  0  0  0  0  0
  -22.6160  -25.3034   28.6849 C   0  0  0  0  0  0  0  0  0  0  0  0
  -20.4213  -26.4682   28.9067 C   0  0  0  0  0  0  0  0  0  0  0  0
  -18.8581  -19.9371   27.5753 C   0  0  0  0  0  0  0  0  0  0  0  0
  -24.6209  -21.4035   15.1993 C   0  0  0  0  0  0  0  0  0  0  0  0
  -21.8313  -20.8754   19.2702 C   0  0  0  0  0  0  0  0  0  1  0  0
  -20.6568  -24.5732   27.2498 C   0  0  1  0  0  0  0  0  0  0  0  0
  -19.9892  -21.4166   29.2398 C   0  0  2  0  0  0  0  0  0  0  0  0
  -21.3764  -25.7871   27.9024 C   0  0  0  0  0  0  0  0  0  0  0  0
  -25.9178  -11.5570   20.3215 N   0  0  0  0  0  0  0  0  0  0  0  0
  -26.3282  -12.8367   20.3307 N   0  0  0  0  0  0  0  0  0  0  0  0
  -19.4653  -24.6637   25.0828 N   0  0  0  0  0  0  0  0  0  0  0  0
  -29.0868  -13.8087   17.8679 N   0  0  0  0  0  0  0  0  0  0  0  0
  -28.5766  -16.0800   17.3189 N   0  0  0  0  0  0  0  0  0  0  0  0
  -25.6455  -15.0353   20.8882 N   0  0  0  0  0  0  0  0  0  0  0  0
  -22.0476  -12.5242   21.9583 N   0  0  0  0  0  0  0  0  0  0  0  0
  -18.0246  -27.4439   23.3725 N   0  0  0  0  0  0  0  0  0  0  0  0
  -20.1931  -23.5704   28.2026 N   0  0  0  0  0  0  0  0  0  0  0  0
  -19.7509  -20.0261   28.7594 N   0  3  0  0  0  0  0  0  0  0  0  0
  -22.8755  -14.6619   21.9004 O   0  0  0  0  0  0  0  0  0  0  0  0
  -20.1701  -26.5390   23.3512 O   0  0  0  0  0  0  0  0  0  0  0  0
  -18.5149  -25.5642   27.0121 O   0  0  0  0  0  0  0  0  0  0  0  0
  -21.3841  -21.7954   27.3037 O   0  0  0  0  0  0  0  0  0  0  0  0
  -30.7576  -15.3354   17.4220 O   0  0  0  0  0  0  0  0  0  0  0  0
  -21.6048   -6.9987   21.4026 O   0  0  0  0  0  0  0  0  0  0  0  0
  -25.2529  -20.3054   15.8539 O   0  0  0  0  0  0  0  0  0  0  0  0
  -22.1337  -21.4367   20.5409 O   0  0  0  0  0  0  0  0  0  1  0  0
  -18.8424   -6.3465   26.1300 F   0  0  0  0  0  0  0  0  0  0  0  0
  -22.0876   -4.8234   23.0389 F   0  0  0  0  0  0  0  0  0  0  0  0
  1  2  1  0  0  0  0
  1  5  2  0  0  0  0
  2  6  2  0  0  0  0
  3  8  2  0  0  0  0
  3 17  1  0  0  0  0
  4  9  1  0  0  0  0
  4 17  2  0  0  0  0
  5 19  1  0  0  0  0
  6 21  1  0  0  0  0
  7 10  2  0  0  0  0
  7 20  1  0  0  0  0
  8 26  1  0  0  0  0
  9 26  2  0  0  0  0
 10 27  1  0  0  0  0
 11 12  2  0  0  0  0
 11 28  1  0  0  0  0
 12 30  1  0  0  0  0
 13 22  2  0  0  0  0
 13 24  1  0  0  0  0
 14 23  1  0  0  0  0
 14 27  2  0  0  0  0
 15 25  1  0  0  0  0
 15 29  2  0  0  0  0
 16 30  2  0  0  0  0
 16 31  1  0  0  0  0
 17 32  1  0  0  0  0
 18 32  1  0  0  0  0
 18 33  2  0  0  0  0
 18 34  1  0  0  0  0
 19 21  2  0  0  0  0
 19 39  1  0  0  0  0
 20 23  2  0  0  0  0
 20 40  1  0  0  0  0
 21 53  1  0  0  0  0
 22 29  1  0  0  0  0
 22 52  1  0  0  0  0
 23 41  1  0  0  0  0
 24 25  2  0  0  0  0
 24 56  1  0  0  0  0
 25 63  1  0  0  0  0
 26 82  1  0  0  0  0
 27 84  1  0  0  0  0
 28 31  2  0  0  0  0
 28 82  1  0  0  0  0
 29 83  1  0  0  0  0
 30 85  1  0  0  0  0
 31 86  1  0  0  0  0
 32 67  2  0  0  0  0
 33 68  1  0  0  0  0
 33 72  1  0  0  0  0
 34 73  1  0  0  0  0
 34 77  2  0  0  0  0
 35 54  1  0  0  0  0
 35 74  1  0  0  0  0
 35 78  2  0  0  0  0
 36 64  1  0  0  0  0
 36 69  1  0  0  0  0
 36 79  2  0  0  0  0
 37 65  1  0  0  0  0
 37 75  1  0  0  0  0
 37 80  2  0  0  0  0
 38 70  1  0  0  0  0
 38 71  1  0  0  0  0
 38 81  2  0  0  0  0
 39 42  1  0  0  0  0
 40 54  1  0  0  0  0
 41 69  1  0  0  0  0
 42 44  1  0  0  0  0
 43 45  1  0  0  0  0
 43 48  1  0  0  0  0
 44 53  1  0  0  0  0
 45 55  1  0  0  0  0
 46 49  1  0  0  0  0
 46 52  1  0  0  0  0
 47 50  1  0  0  0  0
 47 52  1  0  0  0  0
 48 70  1  0  0  0  0
 49 71  1  0  0  0  0
 50 71  1  0  0  0  0
 51 55  1  0  0  0  0
 51 70  1  0  0  0  0
 53 74  1  0  0  0  0
 54 69  1  0  0  0  0
 55 68  1  0  0  0  0
 57 65  1  0  0  0  0
 58 66  1  0  0  0  0
 59 66  1  0  0  0  0
 60 66  1  0  0  0  0
 61 76  1  0  0  0  0
 62 83  1  0  0  0  0
 63 84  1  0  0  0  0
 64 66  1  0  0  0  0
 64 75  1  0  0  0  0
 65 76  1  0  0  0  0
 67 68  1  0  0  0  0
M  CHG  1  76   1
M  ISO  4  38 100  63 101  71 100  84 101
M  END
> <Batch ID>
0141

> <Smiles>
CNC(C)C(=O)NC(C(=O)N1Cc2cc([101O:1][101CH2:1]c3cc(OC)c(C4CC[100N:0]([100C:0](=O)N5CCCC(n6nc(-c7ccc(Oc8ccc(F)cc8F)cc7)c(C(N)=O)c6N)C5)CC4)cc3C)ccc2CC1C(=O)NC1CCCc2ccccc21)C(C)(C)C

> <Shape>
0.188

> <Color>
0.165

> <Negative vol penalty>
0.000

$$$$

  -OEChem-04052321163D

 81 90  0     1  0  0  0  0  0999 V2000
  -20.1120  -27.5438   25.5238 C   0  0  0  0  0  0  0  0  0  0  0  0
  -21.1676  -26.7231   25.1397 C   0  0  0  0  0  0  0  0  0  0  0  0
  -24.2756   -9.5363   21.2589 C   0  0  0  0  0  0  0  0  0  0  0  0
  -24.9150  -10.4837   23.3874 C   0  0  0  0  0  0  0  0  0  0  0  0
  -19.4876  -28.3610   24.5824 C   0  0  0  0  0  0  0  0  0  0  0  0
  -21.5988  -26.7185   23.8136 C   0  0  0  0  0  0  0  0  0  0  0  0
  -27.4830  -20.7973   20.3282 C   0  0  0  0  0  0  0  0  0  0  0  0
  -27.3426  -26.0039   21.8126 C   0  0  0  0  0  0  0  0  0  0  0  0
  -27.7706  -19.4913   20.7282 C   0  0  0  0  0  0  0  0  0  0  0  0
  -23.9246   -8.3453   21.8944 C   0  0  0  0  0  0  0  0  0  0  0  0
  -24.5640   -9.2927   24.0230 C   0  0  0  0  0  0  0  0  0  0  0  0
  -28.0331  -24.8980   21.3186 C   0  0  0  0  0  0  0  0  0  0  0  0
  -21.3291   -7.1615   23.7095 C   0  0  0  0  0  0  0  0  0  0  0  0
  -20.1208   -6.5656   23.3482 C   0  0  0  0  0  0  0  0  0  0  0  0
  -29.4561  -19.2822   18.9855 C   0  0  0  0  0  0  0  0  0  0  0  0
  -27.5283  -25.5968   19.0656 C   0  0  0  0  0  0  0  0  0  0  0  0
  -21.3093   -4.5842   22.6418 C   0  0  0  0  0  0  0  0  0  0  0  0
  -24.7708  -10.6055   22.0054 C   0  0  0  0  0  0  0  0  0  0  0  0
  -24.3039  -12.9462   21.1048 C   0  0  0  0  0  0  0  0  0  0  0  0
  -19.9177  -28.3735   23.2462 C   0  0  0  0  0  0  0  0  0  0  0  0
  -26.7295  -26.9102   20.9356 C   0  0  0  0  0  0  0  0  0  0  0  0
  -20.9788  -27.5357   22.8532 C   0  0  0  0  0  0  0  0  0  0  0  0
  -28.1811  -21.3250   19.2538 C   0  0  0  0  0  0  0  0  0  0  0  0
  -29.1579  -20.5748   18.5830 C   0  0  0  0  0  0  0  0  0  0  0  0
  -26.8329  -26.7148   19.5510 C   0  0  0  0  0  0  0  0  0  0  0  0
  -28.7503  -18.7396   20.0621 C   0  0  0  0  0  0  0  0  0  0  0  0
  -24.0688   -8.2235   23.2764 C   0  0  0  0  0  0  0  0  0  0  0  0
  -28.1235  -24.6927   19.9450 C   0  0  0  0  0  0  0  0  0  0  0  0
  -22.5275   -6.4688   23.5370 C   0  0  0  0  0  0  0  0  0  0  0  0
  -20.1109   -5.2769   22.8143 C   0  0  0  0  0  0  0  0  0  0  0  0
  -22.5176   -5.1802   23.0032 C   0  0  0  0  0  0  0  0  0  0  0  0
  -25.1341  -11.8359   21.3494 C   0  0  0  0  0  0  0  0  0  0  0  0
  -25.1163  -13.8471   20.4608 C   0  0  0  0  0  0  0  0  0  0  0  0
  -22.9219  -13.1453   21.4308 C   0  0  0  0  0  0  0  0  0  0  0  0
  -23.7400  -27.8588   20.4193 C   0  0  0  0  0  0  0  0  0  0  0  0
  -25.1682  -29.9617   18.4042 C   0  0  0  0  0  0  0  0  0  0  0  0
  -27.8608  -30.7341   16.4547 C   0  0  0  0  0  0  0  0  0  0  0  0
  -29.9655  -16.5356   19.9506 C   0  0  0  0  0  0  0  0  0  0  0  0
  -19.1809  -29.2387   22.2545 C   0  0  0  0  0  0  0  0  0  0  0  0
  -26.0112  -28.1127   21.4837 C   0  0  0  0  0  0  0  0  0  0  0  0
  -26.2096  -27.6694   18.5667 C   0  0  0  0  0  0  0  0  0  0  0  0
  -19.9426  -29.4528   20.9491 C   0  0  0  0  0  0  0  0  0  0  0  0
  -29.7505  -13.2901   18.5023 C   0  0  0  0  0  0  0  0  0  0  0  0
  -20.4983  -28.1297   20.4320 C   0  0  0  0  0  0  0  0  0  0  0  0
  -28.4620  -12.7138   19.0938 C   0  0  0  0  0  0  0  0  0  0  0  0
  -28.7269  -22.4961   17.2970 C   0  0  0  0  0  0  0  0  0  0  0  0
  -30.5049  -14.1493   19.5154 C   0  0  0  0  0  0  0  0  0  0  0  0
  -28.4203  -14.6350   20.7352 C   0  0  0  0  0  0  0  0  0  0  0  0
  -29.7940  -21.3940   17.4936 C   0  0  2  0  0  0  0  0  0  0  0  0
  -21.4914  -27.5210   21.4294 C   0  0  1  0  0  0  0  0  0  0  0  0
  -28.0604  -22.6972   18.6679 C   0  0  2  0  0  0  0  0  0  1  0  0
  -24.9874  -28.6914   20.5121 C   0  0  1  0  0  0  0  0  0  0  0  0
  -27.5929  -13.8152   19.7318 C   0  0  2  0  0  0  0  0  0  0  0  0
  -30.0863  -20.6415   16.2045 C   0  0  0  0  0  0  0  0  0  0  0  0
  -28.7230  -32.5036   14.8981 C   0  0  0  0  0  0  0  0  0  0  0  0
  -23.2904  -28.9528   16.2211 C   0  0  0  0  0  0  0  0  0  0  0  0
  -24.7944  -30.0232   14.5298 C   0  0  0  0  0  0  0  0  0  0  0  0
  -23.6383  -31.4293   16.2354 C   0  0  0  0  0  0  0  0  0  0  0  0
  -30.1996  -31.2798   18.1841 C   0  0  0  0  0  0  0  0  0  0  0  0
  -25.5598  -29.9479   16.9463 C   0  0  1  0  0  0  0  0  0  0  0  0
  -28.6859  -32.0026   16.3335 C   0  0  2  0  0  0  0  0  0  0  0  0
  -24.3309  -30.0691   16.0014 C   0  0  0  0  0  0  0  0  0  0  0  0
  -26.3784  -12.0130   20.8974 N   0  0  0  0  0  0  0  0  0  0  0  0
  -26.3361  -13.2450   20.3622 N   0  0  0  0  0  0  0  0  0  0  0  0
  -25.5126  -28.8267   19.1519 N   0  0  0  0  0  0  0  0  0  0  0  0
  -29.6198  -15.1733   20.0747 N   0  0  0  0  0  0  0  0  0  0  0  0
  -24.8990  -15.0877   19.9747 N   0  0  0  0  0  0  0  0  0  0  0  0
  -22.2369  -12.1176   22.0932 N   0  0  0  0  0  0  0  0  0  0  0  0
  -29.0318  -17.4190   20.4916 N   0  0  0  0  0  0  0  0  0  0  0  0
  -22.7698  -28.1940   21.3443 N   0  0  0  0  0  0  0  0  0  0  0  0
  -26.5488  -31.0073   16.7792 N   0  0  0  0  0  0  0  0  0  0  0  0
  -30.0856  -31.7548   16.7812 N   0  3  0  0  0  0  0  0  0  0  0  0
  -22.3083  -14.1968   21.1286 O   0  0  0  0  0  0  0  0  0  0  0  0
  -23.6629  -26.9785   19.5702 O   0  0  0  0  0  0  0  0  0  0  0  0
  -24.5849  -30.9464   18.8644 O   0  0  0  0  0  0  0  0  0  0  0  0
  -28.3321  -29.6132   16.2756 O   0  0  0  0  0  0  0  0  0  0  0  0
  -30.9994  -16.8935   19.3806 O   0  0  0  0  0  0  0  0  0  0  0  0
  -23.7262   -7.0616   23.8969 O   0  0  0  0  0  0  0  0  0  0  0  0
  -28.7962  -23.6137   19.4602 O   0  0  0  0  0  0  0  0  0  1  0  0
  -18.9505   -4.7042   22.4688 F   0  0  0  0  0  0  0  0  0  0  0  0
  -23.6656   -4.5093   22.8362 F   0  0  0  0  0  0  0  0  0  0  0  0
  1  2  1  0  0  0  0
  1  5  2  0  0  0  0
  2  6  2  0  0  0  0
  3 10  2  0  0  0  0
  3 18  1  0  0  0  0
  4 11  1  0  0  0  0
  4 18  2  0  0  0  0
  5 20  1  0  0  0  0
  6 22  1  0  0  0  0
  7  9  2  0  0  0  0
  7 23  1  0  0  0  0
  8 12  2  0  0  0  0
  8 21  1  0  0  0  0
  9 26  1  0  0  0  0
 10 27  1  0  0  0  0
 11 27  2  0  0  0  0
 12 28  1  0  0  0  0
 13 14  2  0  0  0  0
 13 29  1  0  0  0  0
 14 30  1  0  0  0  0
 15 24  1  0  0  0  0
 15 26  2  0  0  0  0
 16 25  1  0  0  0  0
 16 28  2  0  0  0  0
 17 30  2  0  0  0  0
 17 31  1  0  0  0  0
 18 32  1  0  0  0  0
 19 32  1  0  0  0  0
 19 33  2  0  0  0  0
 19 34  1  0  0  0  0
 20 22  2  0  0  0  0
 20 39  1  0  0  0  0
 21 25  2  0  0  0  0
 21 40  1  0  0  0  0
 22 50  1  0  0  0  0
 23 24  2  0  0  0  0
 23 51  1  0  0  0  0
 24 49  1  0  0  0  0
 25 41  1  0  0  0  0
 26 69  1  0  0  0  0
 27 78  1  0  0  0  0
 28 79  1  0  0  0  0
 29 31  2  0  0  0  0
 29 78  1  0  0  0  0
 30 80  1  0  0  0  0
 31 81  1  0  0  0  0
 32 63  2  0  0  0  0
 33 64  1  0  0  0  0
 33 67  1  0  0  0  0
 34 68  1  0  0  0  0
 34 73  2  0  0  0  0
 35 52  1  0  0  0  0
 35 70  1  0  0  0  0
 35 74  2  0  0  0  0
 36 60  1  0  0  0  0
 36 65  1  0  0  0  0
 36 75  2  0  0  0  0
 37 61  1  0  0  0  0
 37 71  1  0  0  0  0
 37 76  2  0  0  0  0
 38 66  1  0  0  0  0
 38 69  1  0  0  0  0
 38 77  2  0  0  0  0
 39 42  1  0  0  0  0
 40 52  1  0  0  0  0
 41 65  1  0  0  0  0
 42 44  1  0  0  0  0
 43 45  1  0  0  0  0
 43 47  1  0  0  0  0
 44 50  1  0  0  0  0
 45 53  1  0  0  0  0
 46 49  1  0  0  0  0
 46 51  1  0  0  0  0
 47 66  1  0  0  0  0
 48 53  1  0  0  0  0
 48 66  1  0  0  0  0
 49 54  1  0  0  0  0
 50 70  1  0  0  0  0
 51 79  1  0  0  0  0
 52 65  1  0  0  0  0
 53 64  1  0  0  0  0
 55 61  1  0  0  0  0
 56 62  1  0  0  0  0
 57 62  1  0  0  0  0
 58 62  1  0  0  0  0
 59 72  1  0  0  0  0
 60 62  1  0  0  0  0
 60 71  1  0  0  0  0
 61 72  1  0  0  0  0
 63 64  1  0  0  0  0
M  CHG  1  72   1
M  ISO  4  38 100  51 101  69 100  79 101
M  END
> <Batch ID>
0141

> <Smiles>
CNC(C)C(=O)NC(C(=O)N1Cc2cc([101O:1][101CH:1]3CC(C)c4cc([100NH:0][100C:0](=O)N5CCCC(n6nc(-c7ccc(Oc8ccc(F)cc8F)cc7)c(C(N)=O)c6N)C5)ccc43)ccc2CC1C(=O)NC1CCCc2ccccc21)C(C)(C)C

> <Shape>
0.273

> <Color>
0.136

> <Negative vol penalty>
0.000

$$$$

  -OEChem-04052321163D

 80 88  0     1  0  0  0  0  0999 V2000
  -16.7473  -28.5918   22.9153 C   0  0  0  0  0  0  0  0  0  0  0  0
  -17.6326  -27.5212   22.8417 C   0  0  0  0  0  0  0  0  0  0  0  0
  -23.5062   -9.6719   20.3116 C   0  0  0  0  0  0  0  0  0  0  0  0
  -23.9869  -10.1843   22.6232 C   0  0  0  0  0  0  0  0  0  0  0  0
  -17.2363  -29.8941   23.0084 C   0  0  0  0  0  0  0  0  0  0  0  0
  -19.0076  -27.7524   22.8601 C   0  0  0  0  0  0  0  0  0  0  0  0
  -23.3043  -24.2018   25.3973 C   0  0  0  0  0  0  0  0  0  0  0  0
  -27.5370  -19.5665   24.0928 C   0  0  0  0  0  0  0  0  0  0  0  0
  -22.9039   -8.4759   20.7020 C   0  0  0  0  0  0  0  0  0  0  0  0
  -23.3844   -8.9883   23.0136 C   0  0  0  0  0  0  0  0  0  0  0  0
  -24.1686  -23.2476   24.8623 C   0  0  0  0  0  0  0  0  0  0  0  0
  -20.2485   -7.8108   23.4609 C   0  0  0  0  0  0  0  0  0  0  0  0
  -19.3736   -7.8517   24.5464 C   0  0  0  0  0  0  0  0  0  0  0  0
  -28.5404  -18.7580   23.5704 C   0  0  0  0  0  0  0  0  0  0  0  0
  -25.9021  -24.9173   24.7006 C   0  0  0  0  0  0  0  0  0  0  0  0
  -20.7755   -6.2839   25.7354 C   0  0  0  0  0  0  0  0  0  0  0  0
  -24.0478  -10.5261   21.2723 C   0  0  0  0  0  0  0  0  0  0  0  0
  -24.0512  -13.0167   20.7203 C   0  0  0  0  0  0  0  0  0  0  0  0
  -18.6180  -30.1408   23.0377 C   0  0  0  0  0  0  0  0  0  0  0  0
  -23.7297  -25.5257   25.5781 C   0  0  0  0  0  0  0  0  0  0  0  0
  -19.5156  -29.0594   22.9523 C   0  0  0  0  0  0  0  0  0  0  0  0
  -25.0421  -25.8858   25.2404 C   0  0  0  0  0  0  0  0  0  0  0  0
  -26.8859  -20.4773   23.2682 C   0  0  0  0  0  0  0  0  0  0  0  0
  -22.8429   -8.1341   22.0530 C   0  0  0  0  0  0  0  0  0  0  0  0
  -25.4668  -23.6059   24.5112 C   0  0  0  0  0  0  0  0  0  0  0  0
  -21.3869   -7.0063   23.5125 C   0  0  0  0  0  0  0  0  0  0  0  0
  -19.6371   -7.0883   25.6837 C   0  0  0  0  0  0  0  0  0  0  0  0
  -21.6504   -6.2429   24.6498 C   0  0  0  0  0  0  0  0  0  0  0  0
  -24.6707  -11.7614   20.8696 C   0  0  0  0  0  0  0  0  0  0  0  0
  -28.8528  -18.8979   22.2277 C   0  0  0  0  0  0  0  0  0  0  0  0
  -27.2725  -20.5404   21.9392 C   0  0  0  0  0  0  0  0  0  0  0  0
  -25.0648  -13.8549   20.3247 C   0  0  0  0  0  0  0  0  0  0  0  0
  -22.6820  -13.3915   20.9214 C   0  0  0  0  0  0  0  0  0  0  0  0
  -22.8276  -28.3485   24.4283 C   0  0  0  0  0  0  0  0  0  0  0  0
  -24.9939  -29.4737   26.5644 C   0  0  0  0  0  0  0  0  0  0  0  0
  -27.7883  -28.8936   28.4356 C   0  0  0  0  0  0  0  0  0  0  0  0
  -30.2974  -15.7327   20.8130 C   0  0  0  0  0  0  0  0  0  0  0  0
  -19.0995  -31.5690   23.0916 C   0  0  0  0  0  0  0  0  0  0  0  0
  -22.7936  -26.5369   26.1812 C   0  0  0  0  0  0  0  0  0  0  0  0
  -25.5540  -27.2891   25.4335 C   0  0  0  0  0  0  0  0  0  0  0  0
  -20.5690  -31.7021   23.4827 C   0  0  0  0  0  0  0  0  0  0  0  0
  -29.7826  -12.8317   18.8141 C   0  0  0  0  0  0  0  0  0  0  0  0
  -21.4230  -30.7149   22.6935 C   0  0  0  0  0  0  0  0  0  0  0  0
  -28.3587  -12.3950   19.1630 C   0  0  0  0  0  0  0  0  0  0  0  0
  -30.5152  -13.3923   20.0311 C   0  0  0  0  0  0  0  0  0  0  0  0
  -28.3832  -14.0417   21.0831 C   0  0  0  0  0  0  0  0  0  0  0  0
  -21.0139  -29.2679   22.9944 C   0  0  1  0  0  0  0  0  0  0  0  0
  -23.1702  -27.9760   25.8430 C   0  0  1  0  0  0  0  0  0  0  0  0
  -27.5855  -13.5212   19.8752 C   0  0  2  0  0  0  0  0  0  0  0  0
  -26.6060  -21.4976   21.0063 C   0  0  0  0  0  0  0  0  0  0  0  0
  -29.3435  -30.0161   30.0539 C   0  0  0  0  0  0  0  0  0  0  0  0
  -26.2884  -30.9976   24.2596 C   0  0  0  0  0  0  0  0  0  0  0  0
  -28.3164  -31.3067   25.6948 C   0  0  0  0  0  0  0  0  0  0  0  0
  -26.1310  -32.2806   26.4005 C   0  0  0  0  0  0  0  0  0  0  0  0
  -27.1501  -26.9512   30.5755 C   0  0  0  0  0  0  0  0  0  0  0  0
  -25.8033  -21.3534   23.8265 C   0  0  0  0  0  0  0  0  0  1  0  0
  -29.9235  -18.0448   21.6335 C   0  0  0  0  0  0  0  0  0  0  0  0
  -26.4720  -29.7787   26.5282 C   0  0  1  0  0  0  0  0  0  0  0  0
  -28.0950  -29.1619   29.8979 C   0  0  2  0  0  0  0  0  0  0  0  0
  -26.7920  -31.0648   25.7152 C   0  0  0  0  0  0  0  0  0  0  0  0
  -25.9766  -11.7945   20.5913 N   0  0  0  0  0  0  0  0  0  0  0  0
  -28.2425  -19.7713   21.3957 N   0  0  0  0  0  0  0  0  0  0  0  0
  -26.1860  -13.0808   20.2630 N   0  0  0  0  0  0  0  0  0  0  0  0
  -24.5989  -28.2431   26.0208 N   0  0  0  0  0  0  0  0  0  0  0  0
  -29.7296  -14.4571   20.6595 N   0  0  0  0  0  0  0  0  0  0  0  0
  -25.0974  -15.1712   20.0268 N   0  0  0  0  0  0  0  0  0  0  0  0
  -21.7723  -12.4060   21.3283 N   0  0  0  0  0  0  0  0  0  0  0  0
  -21.5483  -28.8469   24.2717 N   0  0  0  0  0  0  0  0  0  0  0  0
  -26.9133  -29.8251   27.9180 N   0  0  0  0  0  0  0  0  0  0  0  0
  -29.4828  -16.6855   21.4124 N   0  0  0  0  0  0  0  0  0  0  0  0
  -28.3090  -27.8793   30.6261 N   0  3  0  0  0  0  0  0  0  0  0  0
  -22.2739  -14.5621   20.7297 O   0  0  0  0  0  0  0  0  0  0  0  0
  -23.6626  -28.1964   23.5443 O   0  0  0  0  0  0  0  0  0  0  0  0
  -24.2192  -30.2939   27.0632 O   0  0  0  0  0  0  0  0  0  0  0  0
  -28.2790  -27.9539   27.8136 O   0  0  0  0  0  0  0  0  0  0  0  0
  -31.4434  -16.0038   20.4386 O   0  0  0  0  0  0  0  0  0  0  0  0
  -22.2550   -6.9673   22.4343 O   0  0  0  0  0  0  0  0  0  0  0  0
  -26.3123  -22.6767   23.9882 O   0  0  0  0  0  0  0  0  0  1  0  0
  -18.7976   -7.1289   26.7267 F   0  0  0  0  0  0  0  0  0  0  0  0
  -22.7430   -5.4690   24.7057 F   0  0  0  0  0  0  0  0  0  0  0  0
  1  2  1  0  0  0  0
  1  5  2  0  0  0  0
  2  6  2  0  0  0  0
  3  9  2  0  0  0  0
  3 17  1  0  0  0  0
  4 10  1  0  0  0  0
  4 17  2  0  0  0  0
  5 19  1  0  0  0  0
  6 21  1  0  0  0  0
  7 11  2  0  0  0  0
  7 20  1  0  0  0  0
  8 14  2  0  0  0  0
  8 23  1  0  0  0  0
  9 24  1  0  0  0  0
 10 24  2  0  0  0  0
 11 25  1  0  0  0  0
 12 13  2  0  0  0  0
 12 26  1  0  0  0  0
 13 27  1  0  0  0  0
 14 30  1  0  0  0  0
 15 22  1  0  0  0  0
 15 25  2  0  0  0  0
 16 27  2  0  0  0  0
 16 28  1  0  0  0  0
 17 29  1  0  0  0  0
 18 29  1  0  0  0  0
 18 32  2  0  0  0  0
 18 33  1  0  0  0  0
 19 21  2  0  0  0  0
 19 38  1  0  0  0  0
 20 22  2  0  0  0  0
 20 39  1  0  0  0  0
 21 47  1  0  0  0  0
 22 40  1  0  0  0  0
 23 31  2  0  0  0  0
 23 56  1  0  0  0  0
 24 77  1  0  0  0  0
 25 78  1  0  0  0  0
 26 28  2  0  0  0  0
 26 77  1  0  0  0  0
 27 79  1  0  0  0  0
 28 80  1  0  0  0  0
 29 61  2  0  0  0  0
 30 57  1  0  0  0  0
 30 62  2  0  0  0  0
 31 50  1  0  0  0  0
 31 62  1  0  0  0  0
 32 63  1  0  0  0  0
 32 66  1  0  0  0  0
 33 67  1  0  0  0  0
 33 72  2  0  0  0  0
 34 48  1  0  0  0  0
 34 68  1  0  0  0  0
 34 73  2  0  0  0  0
 35 58  1  0  0  0  0
 35 64  1  0  0  0  0
 35 74  2  0  0  0  0
 36 59  1  0  0  0  0
 36 69  1  0  0  0  0
 36 75  2  0  0  0  0
 37 65  1  0  0  0  0
 37 70  1  0  0  0  0
 37 76  2  0  0  0  0
 38 41  1  0  0  0  0
 39 48  1  0  0  0  0
 40 64  1  0  0  0  0
 41 43  1  0  0  0  0
 42 44  1  0  0  0  0
 42 45  1  0  0  0  0
 43 47  1  0  0  0  0
 44 49  1  0  0  0  0
 45 65  1  0  0  0  0
 46 49  1  0  0  0  0
 46 65  1  0  0  0  0
 47 68  1  0  0  0  0
 48 64  1  0  0  0  0
 49 63  1  0  0  0  0
 51 59  1  0  0  0  0
 52 60  1  0  0  0  0
 53 60  1  0  0  0  0
 54 60  1  0  0  0  0
 55 71  1  0  0  0  0
 56 78  1  0  0  0  0
 57 70  1  0  0  0  0
 58 60  1  0  0  0  0
 58 69  1  0  0  0  0
 59 71  1  0  0  0  0
 61 63  1  0  0  0  0
M  CHG  1  71   1
M  ISO  4  37 100  56 101  70 100  78 101
M  END
> <Batch ID>
0141

> <Smiles>
CNC(C)C(=O)NC(C(=O)N1Cc2cc([101O:1][101CH2:1]c3ccc(C[100NH:0][100C:0](=O)N4CCCC(n5nc(-c6ccc(Oc7ccc(F)cc7F)cc6)c(C(N)=O)c5N)C4)nc3C)ccc2CC1C(=O)NC1CCCc2ccccc21)C(C)(C)C

> <Shape>
0.271

> <Color>
0.191

> <Negative vol penalty>
0.000

$$$$

  -OEChem-04052321163D

 84 93  0     1  0  0  0  0  0999 V2000
  -23.0787  -28.0170   20.6088 C   0  0  0  0  0  0  0  0  0  0  0  0
  -23.4806  -26.7025   20.8232 C   0  0  0  0  0  0  0  0  0  0  0  0
  -25.3442  -11.7181   21.7222 C   0  0  0  0  0  0  0  0  0  0  0  0
  -28.5460  -23.9188   21.8011 C   0  0  0  0  0  0  0  0  0  0  0  0
  -28.0436  -23.4135   19.4926 C   0  0  0  0  0  0  0  0  0  0  0  0
  -21.7428  -28.3742   20.7869 C   0  0  0  0  0  0  0  0  0  0  0  0
  -22.5469  -25.7445   21.2169 C   0  0  0  0  0  0  0  0  0  0  0  0
  -26.3991  -11.9943   20.8525 C   0  0  0  0  0  0  0  0  0  0  0  0
  -22.4675  -19.8225   19.6582 C   0  0  0  0  0  0  0  0  0  0  0  0
  -24.1746  -12.4759   21.6629 C   0  0  0  0  0  0  0  0  0  0  0  0
  -28.5886  -25.2788   21.4942 C   0  0  0  0  0  0  0  0  0  0  0  0
  -28.0861  -24.7735   19.1856 C   0  0  0  0  0  0  0  0  0  0  0  0
  -22.8993  -18.6730   20.3184 C   0  0  0  0  0  0  0  0  0  0  0  0
  -30.7629  -27.4456   20.0792 C   0  0  0  0  0  0  0  0  0  0  0  0
  -31.8190  -28.1938   20.5992 C   0  0  0  0  0  0  0  0  0  0  0  0
  -25.1150  -13.7864   19.8642 C   0  0  0  0  0  0  0  0  0  0  0  0
  -20.6571  -18.3028   21.1276 C   0  0  0  0  0  0  0  0  0  0  0  0
  -30.2440  -29.6057   21.7667 C   0  0  0  0  0  0  0  0  0  0  0  0
  -28.2736  -22.9861   20.8003 C   0  0  0  0  0  0  0  0  0  0  0  0
  -27.1073  -20.8358   21.5239 C   0  0  0  0  0  0  0  0  0  0  0  0
  -26.2845  -13.0285   19.9235 C   0  0  0  0  0  0  0  0  0  0  0  0
  -20.7904  -27.4180   21.1737 C   0  0  0  0  0  0  0  0  0  0  0  0
  -21.1272  -20.2275   19.7369 C   0  0  0  0  0  0  0  0  0  0  0  0
  -21.1972  -26.0895   21.4016 C   0  0  0  0  0  0  0  0  0  0  0  0
  -20.2103  -19.4564   20.4654 C   0  0  0  0  0  0  0  0  0  0  0  0
  -28.3586  -25.7062   20.1864 C   0  0  0  0  0  0  0  0  0  0  0  0
  -24.0600  -13.5101   20.7340 C   0  0  0  0  0  0  0  0  0  0  0  0
  -21.9947  -17.9145   21.0556 C   0  0  0  0  0  0  0  0  0  0  0  0
  -29.4473  -27.7774   20.4030 C   0  0  0  0  0  0  0  0  0  0  0  0
  -31.5596  -29.2738   21.4429 C   0  0  0  0  0  0  0  0  0  0  0  0
  -29.1878  -28.8574   21.2467 C   0  0  0  0  0  0  0  0  0  0  0  0
  -28.2300  -21.5811   21.1166 C   0  0  0  0  0  0  0  0  0  0  0  0
  -27.5865  -19.5604   21.6979 C   0  0  0  0  0  0  0  0  0  0  0  0
  -25.7524  -21.2586   21.7267 C   0  0  0  0  0  0  0  0  0  0  0  0
  -19.6210  -22.7921   20.8585 C   0  0  0  0  0  0  0  0  0  0  0  0
  -17.0240  -21.3607   19.5434 C   0  0  0  0  0  0  0  0  0  0  0  0
  -15.5259  -18.4811   18.4898 C   0  0  0  0  0  0  0  0  0  0  0  0
  -30.6749  -15.2426   19.9953 C   0  0  0  0  0  0  0  0  0  0  0  0
  -19.3667  -27.8616   21.3995 C   0  0  0  0  0  0  0  0  0  0  0  0
  -20.6717  -21.4553   18.9970 C   0  0  0  0  0  0  0  0  0  0  0  0
  -18.7564  -19.8370   20.5645 C   0  0  0  0  0  0  0  0  0  0  0  0
  -18.3703  -26.7064   21.4545 C   0  0  0  0  0  0  0  0  0  0  0  0
  -32.3327  -17.8116   21.8019 C   0  0  0  0  0  0  0  0  0  0  0  0
  -28.0745  -12.1725   18.0893 C   0  0  0  0  0  0  0  0  0  0  0  0
  -18.8962  -25.5901   22.3511 C   0  0  0  0  0  0  0  0  0  0  0  0
  -31.3231  -18.9606   21.8172 C   0  0  0  0  0  0  0  0  0  0  0  0
  -29.4440  -12.8674   18.2034 C   0  0  0  0  0  0  0  0  0  0  0  0
  -32.2978  -17.0475   20.4801 C   0  0  0  0  0  0  0  0  0  0  0  0
  -29.9568  -17.7088   20.0949 C   0  0  0  0  0  0  0  0  0  0  0  0
  -27.4844  -13.3428   18.9336 C   0  0  2  0  0  0  0  0  0  0  0  0
  -20.2094  -25.0165   21.8053 C   0  0  1  0  0  0  0  0  0  0  0  0
  -19.3914  -22.0567   19.5684 C   0  0  1  0  0  0  0  0  0  0  0  0
  -29.9137  -18.4747   21.4283 C   0  0  2  0  0  0  0  0  0  0  0  0
  -28.9278  -13.5041   19.5124 C   0  0  2  0  0  0  0  0  0  0  0  0
  -13.3874  -17.6226   17.4960 C   0  0  0  0  0  0  0  0  0  0  0  0
  -15.6583  -21.6262   22.2590 C   0  0  0  0  0  0  0  0  0  0  0  0
  -13.9641  -19.9495   21.4928 C   0  0  0  0  0  0  0  0  0  0  0  0
  -14.1887  -22.1281   20.2986 C   0  0  0  0  0  0  0  0  0  0  0  0
  -16.9142  -17.4795   16.0756 C   0  0  0  0  0  0  0  0  0  0  0  0
  -22.1885  -14.4126   21.8909 C   0  0  0  0  0  0  0  0  0  0  0  0
  -21.4607  -15.7427   21.8645 C   0  0  0  0  0  0  0  0  0  1  0  0
  -15.9885  -20.3736   20.0256 C   0  0  1  0  0  0  0  0  0  0  0  0
  -14.7880  -18.1403   17.2077 C   0  0  2  0  0  0  0  0  0  0  0  0
  -14.9776  -21.0130   21.0189 C   0  0  0  0  0  0  0  0  0  0  0  0
  -29.3389  -20.8409   21.0367 N   0  0  0  0  0  0  0  0  0  0  0  0
  -28.9154  -19.6172   21.3963 N   0  0  0  0  0  0  0  0  0  0  0  0
  -18.3610  -21.0493   19.8287 N   0  0  0  0  0  0  0  0  0  0  0  0
  -30.9330  -16.6107   20.1749 N   0  0  0  0  0  0  0  0  0  0  0  0
  -26.9966  -18.4072   22.0780 N   0  0  0  0  0  0  0  0  0  0  0  0
  -25.4317  -22.6044   21.5027 N   0  0  0  0  0  0  0  0  0  0  0  0
  -19.9489  -24.1245   20.6958 N   0  0  0  0  0  0  0  0  0  0  0  0
  -15.3744  -19.8090   18.8287 N   0  0  0  0  0  0  0  0  0  0  0  0
  -29.3549  -14.9034   19.7173 N   0  0  0  0  0  0  0  0  0  0  0  0
  -15.5281  -17.0944   16.4464 N   0  3  0  0  0  0  0  0  0  0  0  0
  -24.8561  -20.4698   22.1115 O   0  0  0  0  0  0  0  0  0  0  0  0
  -19.5075  -22.1952   21.9226 O   0  0  0  0  0  0  0  0  0  0  0  0
  -16.6606  -22.3672   18.9298 O   0  0  0  0  0  0  0  0  0  0  0  0
  -16.1690  -17.6513   19.1289 O   0  0  0  0  0  0  0  0  0  0  0  0
  -31.5529  -14.3773   20.0829 O   0  0  0  0  0  0  0  0  0  0  0  0
  -28.3998  -27.0332   19.8866 O   0  0  0  0  0  0  0  0  0  0  0  0
  -22.9113  -14.2544   20.6759 O   0  0  0  0  0  0  0  0  0  0  0  0
  -22.4136  -16.7923   21.7015 O   0  0  0  0  0  0  0  0  0  1  0  0
  -32.5740  -29.9913   21.9434 F   0  0  0  0  0  0  0  0  0  0  0  0
  -27.9261  -29.1803   21.5623 F   0  0  0  0  0  0  0  0  0  0  0  0
  1  2  1  0  0  0  0
  1  6  2  0  0  0  0
  2  7  2  0  0  0  0
  3  8  1  0  0  0  0
  3 10  2  0  0  0  0
  4 11  2  0  0  0  0
  4 19  1  0  0  0  0
  5 12  1  0  0  0  0
  5 19  2  0  0  0  0
  6 22  1  0  0  0  0
  7 24  1  0  0  0  0
  8 21  2  0  0  0  0
  9 13  2  0  0  0  0
  9 23  1  0  0  0  0
 10 27  1  0  0  0  0
 11 26  1  0  0  0  0
 12 26  2  0  0  0  0
 13 28  1  0  0  0  0
 14 15  2  0  0  0  0
 14 29  1  0  0  0  0
 15 30  1  0  0  0  0
 16 21  1  0  0  0  0
 16 27  2  0  0  0  0
 17 25  1  0  0  0  0
 17 28  2  0  0  0  0
 18 30  2  0  0  0  0
 18 31  1  0  0  0  0
 19 32  1  0  0  0  0
 20 32  1  0  0  0  0
 20 33  2  0  0  0  0
 20 34  1  0  0  0  0
 21 50  1  0  0  0  0
 22 24  2  0  0  0  0
 22 39  1  0  0  0  0
 23 25  2  0  0  0  0
 23 40  1  0  0  0  0
 24 51  1  0  0  0  0
 25 41  1  0  0  0  0
 26 80  1  0  0  0  0
 27 81  1  0  0  0  0
 28 82  1  0  0  0  0
 29 31  2  0  0  0  0
 29 80  1  0  0  0  0
 30 83  1  0  0  0  0
 31 84  1  0  0  0  0
 32 65  2  0  0  0  0
 33 66  1  0  0  0  0
 33 69  1  0  0  0  0
 34 70  1  0  0  0  0
 34 75  2  0  0  0  0
 35 52  1  0  0  0  0
 35 71  1  0  0  0  0
 35 76  2  0  0  0  0
 36 62  1  0  0  0  0
 36 67  1  0  0  0  0
 36 77  2  0  0  0  0
 37 63  1  0  0  0  0
 37 72  1  0  0  0  0
 37 78  2  0  0  0  0
 38 68  1  0  0  0  0
 38 73  1  0  0  0  0
 38 79  2  0  0  0  0
 39 42  1  0  0  0  0
 40 52  1  0  0  0  0
 41 67  1  0  0  0  0
 42 45  1  0  0  0  0
 43 46  1  0  0  0  0
 43 48  1  0  0  0  0
 44 47  1  0  0  0  0
 44 50  1  0  0  0  0
 45 51  1  0  0  0  0
 46 53  1  0  0  0  0
 47 54  1  0  0  0  0
 48 68  1  0  0  0  0
 49 53  1  0  0  0  0
 49 68  1  0  0  0  0
 50 54  1  0  0  0  0
 51 71  1  0  0  0  0
 52 67  1  0  0  0  0
 53 66  1  0  0  0  0
 54 73  1  0  0  0  0
 55 63  1  0  0  0  0
 56 64  1  0  0  0  0
 57 64  1  0  0  0  0
 58 64  1  0  0  0  0
 59 74  1  0  0  0  0
 60 61  1  0  0  0  0
 60 81  1  0  0  0  0
 61 82  1  0  0  0  0
 62 64  1  0  0  0  0
 62 72  1  0  0  0  0
 63 74  1  0  0  0  0
 65 66  1  0  0  0  0
M  CHG  1  74   1
M  ISO  4  38 100  61 101  73 100  82 101
M  END
> <Batch ID>
0141

> <Smiles>
CNC(C)C(=O)NC(C(=O)N1Cc2cc([101O:1][101CH2:1]COc3cccc(C4CCC4[100NH:0][100C:0](=O)N4CCCC(n5nc(-c6ccc(Oc7ccc(F)cc7F)cc6)c(C(N)=O)c5N)C4)c3)ccc2CC1C(=O)NC1CCCc2ccccc21)C(C)(C)C

> <Shape>
0.195

> <Color>
0.078

> <Negative vol penalty>
0.000

$$$$

  -OEChem-04052321163D

 83 92  0     1  0  0  0  0  0999 V2000
  -31.3431  -34.1944   25.2408 C   0  0  0  0  0  0  0  0  0  0  0  0
  -31.3813  -33.0515   24.4485 C   0  0  0  0  0  0  0  0  0  0  0  0
  -24.0634   -9.0240   20.2902 C   0  0  0  0  0  0  0  0  0  0  0  0
  -22.8634  -10.9154   21.1955 C   0  0  0  0  0  0  0  0  0  0  0  0
  -30.2878  -34.3890   26.1310 C   0  0  0  0  0  0  0  0  0  0  0  0
  -30.3649  -32.1020   24.5468 C   0  0  0  0  0  0  0  0  0  0  0  0
  -28.0771  -28.6755   20.0156 C   0  0  0  0  0  0  0  0  0  0  0  0
  -23.1539   -8.1570   20.8958 C   0  0  0  0  0  0  0  0  0  0  0  0
  -21.9538  -10.0484   21.8011 C   0  0  0  0  0  0  0  0  0  0  0  0
  -28.3227  -27.3624   19.6169 C   0  0  0  0  0  0  0  0  0  0  0  0
  -22.5920   -6.8945   23.9804 C   0  0  0  0  0  0  0  0  0  0  0  0
  -23.1043   -5.7837   24.6506 C   0  0  0  0  0  0  0  0  0  0  0  0
  -26.4142  -26.6239   20.8941 C   0  0  0  0  0  0  0  0  0  0  0  0
  -27.6600  -20.3040   18.2290 C   0  0  0  0  0  0  0  0  0  0  0  0
  -21.8697   -4.3234   23.1740 C   0  0  0  0  0  0  0  0  0  0  0  0
  -29.3514  -19.2659   20.1018 C   0  0  0  0  0  0  0  0  0  0  0  0
  -23.9182  -10.4032   20.4401 C   0  0  0  0  0  0  0  0  0  0  0  0
  -24.7697  -11.8602   18.5271 C   0  0  0  0  0  0  0  0  0  0  0  0
  -29.2529  -33.4461   26.2333 C   0  0  0  0  0  0  0  0  0  0  0  0
  -27.0028  -28.9718   20.8669 C   0  0  0  0  0  0  0  0  0  0  0  0
  -29.2955  -32.2835   25.4402 C   0  0  0  0  0  0  0  0  0  0  0  0
  -26.1556  -27.9419   21.3002 C   0  0  0  0  0  0  0  0  0  0  0  0
  -27.7226  -18.9258   18.4023 C   0  0  0  0  0  0  0  0  0  0  0  0
  -28.5819  -18.3889   19.3545 C   0  0  0  0  0  0  0  0  0  0  0  0
  -22.0991   -8.6692   21.6512 C   0  0  0  0  0  0  0  0  0  0  0  0
  -27.4930  -26.3359   20.0584 C   0  0  0  0  0  0  0  0  0  0  0  0
  -21.7184   -6.7198   22.9070 C   0  0  0  0  0  0  0  0  0  0  0  0
  -22.7432   -4.4981   24.2474 C   0  0  0  0  0  0  0  0  0  0  0  0
  -21.3573   -5.4342   22.5038 C   0  0  0  0  0  0  0  0  0  0  0  0
  -24.8577  -11.2992   19.8152 C   0  0  0  0  0  0  0  0  0  0  0  0
  -28.4707  -21.0954   19.0268 C   0  0  0  0  0  0  0  0  0  0  0  0
  -25.8991  -12.6332   18.4113 C   0  0  0  0  0  0  0  0  0  0  0  0
  -23.7575  -11.6972   17.5248 C   0  0  0  0  0  0  0  0  0  0  0  0
  -26.7254  -30.2115   23.7806 C   0  0  0  0  0  0  0  0  0  0  0  0
  -23.5544  -30.0842   23.1093 C   0  0  0  0  0  0  0  0  0  0  0  0
  -21.0289  -28.6598   21.3093 C   0  0  0  0  0  0  0  0  0  0  0  0
  -29.5013  -16.3360   20.4889 C   0  0  0  0  0  0  0  0  0  0  0  0
  -28.1576  -33.6772   27.2441 C   0  0  0  0  0  0  0  0  0  0  0  0
  -26.7354  -30.3970   21.2663 C   0  0  0  0  0  0  0  0  0  0  0  0
  -24.9768  -28.2100   22.1986 C   0  0  0  0  0  0  0  0  0  0  0  0
  -26.9259  -32.8042   27.0178 C   0  0  0  0  0  0  0  0  0  0  0  0
  -30.0107  -12.9189   21.3498 C   0  0  0  0  0  0  0  0  0  0  0  0
  -27.5048  -16.9566   16.7444 C   0  0  0  0  0  0  0  0  0  0  0  0
  -26.9453  -18.1636   16.0586 C   0  0  0  0  0  0  0  0  0  0  0  0
  -27.3365  -31.3574   26.7632 C   0  0  0  0  0  0  0  0  0  0  0  0
  -28.7083  -12.2391   20.9213 C   0  0  0  0  0  0  0  0  0  0  0  0
  -29.7620  -14.3168   21.9136 C   0  0  0  0  0  0  0  0  0  0  0  0
  -27.6778  -14.5265   20.6168 C   0  0  0  0  0  0  0  0  0  0  0  0
  -26.8603  -18.0475   17.5571 C   0  0  0  0  0  0  0  0  0  0  0  0
  -28.1987  -31.2426   25.5002 C   0  0  1  0  0  0  0  0  0  0  0  0
  -25.9189  -30.5147   22.5496 C   0  0  1  0  0  0  0  0  0  0  0  0
  -27.8840  -13.1414   19.9822 C   0  0  2  0  0  0  0  0  0  0  0  0
  -18.5390  -28.7372   21.0067 C   0  0  0  0  0  0  0  0  0  0  0  0
  -23.1920  -28.5409   25.7165 C   0  0  0  0  0  0  0  0  0  0  0  0
  -20.9300  -27.8387   24.9051 C   0  0  0  0  0  0  0  0  0  0  0  0
  -21.4286  -30.2561   25.2657 C   0  0  0  0  0  0  0  0  0  0  0  0
  -21.2822  -29.4503   18.4686 C   0  0  0  0  0  0  0  0  0  0  0  0
  -29.0871  -24.6948   19.4091 C   0  0  0  0  0  0  0  0  0  1  0  0
  -29.2788  -23.2226   19.7179 C   0  0  0  0  0  0  0  0  0  0  0  0
  -22.4628  -29.0579   23.2942 C   0  0  1  0  0  0  0  0  0  0  0  0
  -19.8800  -29.2711   20.5278 C   0  0  2  0  0  0  0  0  0  0  0  0
  -22.0266  -28.9178   24.7800 C   0  0  0  0  0  0  0  0  0  0  0  0
  -29.3178  -20.6101   19.9619 N   0  0  0  0  0  0  0  0  0  0  0  0
  -25.9563  -11.6831   20.4708 N   0  0  0  0  0  0  0  0  0  0  0  0
  -26.5690  -12.4935   19.5910 N   0  0  0  0  0  0  0  0  0  0  0  0
  -24.7606  -29.6190   22.5668 N   0  0  0  0  0  0  0  0  0  0  0  0
  -28.9794  -15.1159   20.9681 N   0  0  0  0  0  0  0  0  0  0  0  0
  -26.3746  -13.4120   17.4164 N   0  0  0  0  0  0  0  0  0  0  0  0
  -22.6643  -10.8671   17.8080 N   0  0  0  0  0  0  0  0  0  0  0  0
  -28.6827  -16.9920   19.5701 N   0  0  0  0  0  0  0  0  0  0  0  0
  -27.3707  -31.3103   24.3152 N   0  0  0  0  0  0  0  0  0  0  0  0
  -21.3850  -29.4406   22.3886 N   0  0  0  0  0  0  0  0  0  0  0  0
  -20.0180  -28.9614   19.0766 N   0  3  0  0  0  0  0  0  0  0  0  0
  -23.8288  -12.2576   16.4048 O   0  0  0  0  0  0  0  0  0  0  0  0
  -26.7586  -29.0658   24.2142 O   0  0  0  0  0  0  0  0  0  0  0  0
  -23.3421  -31.2568   23.4277 O   0  0  0  0  0  0  0  0  0  0  0  0
  -21.5552  -27.5942   20.9961 O   0  0  0  0  0  0  0  0  0  0  0  0
  -30.6061  -16.7537   20.8450 O   0  0  0  0  0  0  0  0  0  0  0  0
  -21.2112   -7.8236   22.2421 O   0  0  0  0  0  0  0  0  0  0  0  0
  -27.7309  -25.0532   19.6712 O   0  0  0  0  0  0  0  0  0  1  0  0
  -28.4272  -22.4563   18.8748 O   0  0  0  0  0  0  0  0  0  0  0  0
  -23.2365   -3.4315   24.8901 F   0  0  0  0  0  0  0  0  0  0  0  0
  -20.5195   -5.2600   21.4725 F   0  0  0  0  0  0  0  0  0  0  0  0
  1  2  1  0  0  0  0
  1  5  2  0  0  0  0
  2  6  2  0  0  0  0
  3  8  2  0  0  0  0
  3 17  1  0  0  0  0
  4  9  1  0  0  0  0
  4 17  2  0  0  0  0
  5 19  1  0  0  0  0
  6 21  1  0  0  0  0
  7 10  2  0  0  0  0
  7 20  1  0  0  0  0
  8 25  1  0  0  0  0
  9 25  2  0  0  0  0
 10 26  1  0  0  0  0
 11 12  2  0  0  0  0
 11 27  1  0  0  0  0
 12 28  1  0  0  0  0
 13 22  1  0  0  0  0
 13 26  2  0  0  0  0
 14 23  2  0  0  0  0
 14 31  1  0  0  0  0
 15 28  2  0  0  0  0
 15 29  1  0  0  0  0
 16 24  2  0  0  0  0
 16 63  1  0  0  0  0
 17 30  1  0  0  0  0
 18 30  1  0  0  0  0
 18 32  2  0  0  0  0
 18 33  1  0  0  0  0
 19 21  2  0  0  0  0
 19 38  1  0  0  0  0
 20 22  2  0  0  0  0
 20 39  1  0  0  0  0
 21 50  1  0  0  0  0
 22 40  1  0  0  0  0
 23 24  1  0  0  0  0
 23 49  1  0  0  0  0
 24 70  1  0  0  0  0
 25 79  1  0  0  0  0
 26 80  1  0  0  0  0
 27 29  2  0  0  0  0
 27 79  1  0  0  0  0
 28 82  1  0  0  0  0
 29 83  1  0  0  0  0
 30 64  2  0  0  0  0
 31 63  2  0  0  0  0
 31 81  1  0  0  0  0
 32 65  1  0  0  0  0
 32 68  1  0  0  0  0
 33 69  1  0  0  0  0
 33 74  2  0  0  0  0
 34 51  1  0  0  0  0
 34 71  1  0  0  0  0
 34 75  2  0  0  0  0
 35 60  1  0  0  0  0
 35 66  1  0  0  0  0
 35 76  2  0  0  0  0
 36 61  1  0  0  0  0
 36 72  1  0  0  0  0
 36 77  2  0  0  0  0
 37 67  1  0  0  0  0
 37 70  1  0  0  0  0
 37 78  2  0  0  0  0
 38 41  1  0  0  0  0
 39 51  1  0  0  0  0
 40 66  1  0  0  0  0
 41 45  1  0  0  0  0
 42 46  1  0  0  0  0
 42 47  1  0  0  0  0
 43 44  1  0  0  0  0
 43 49  1  0  0  0  0
 44 49  1  0  0  0  0
 45 50  1  0  0  0  0
 46 52  1  0  0  0  0
 47 67  1  0  0  0  0
 48 52  1  0  0  0  0
 48 67  1  0  0  0  0
 50 71  1  0  0  0  0
 51 66  1  0  0  0  0
 52 65  1  0  0  0  0
 53 61  1  0  0  0  0
 54 62  1  0  0  0  0
 55 62  1  0  0  0  0
 56 62  1  0  0  0  0
 57 73  1  0  0  0  0
 58 59  1  0  0  0  0
 58 80  1  0  0  0  0
 59 81  1  0  0  0  0
 60 62  1  0  0  0  0
 60 72  1  0  0  0  0
 61 73  1  0  0  0  0
 64 65  1  0  0  0  0
M  CHG  1  73   1
M  ISO  4  37 100  58 101  70 100  80 101
M  END
> <Batch ID>
0141

> <Smiles>
CNC(C)C(=O)NC(C(=O)N1Cc2cc([101O:1][101CH2:1]COc3cc(C4CC4)c([100NH:0][100C:0](=O)N4CCCC(n5nc(-c6ccc(Oc7ccc(F)cc7F)cc6)c(C(N)=O)c5N)C4)cn3)ccc2CC1C(=O)NC1CCCc2ccccc21)C(C)(C)C

> <Shape>
0.304

> <Color>
0.123

> <Negative vol penalty>
0.000

$$$$

  -OEChem-04052321163D

 88 97  0     1  0  0  0  0  0999 V2000
  -17.2782  -13.9207   22.9952 C   0  0  0  0  0  0  0  0  0  0  0  0
  -18.2818  -14.8825   22.9406 C   0  0  0  0  0  0  0  0  0  0  0  0
  -25.6263  -27.9120   26.6143 C   0  0  0  0  0  0  0  0  0  0  0  0
  -27.6480  -29.1015   26.0357 C   0  0  0  0  0  0  0  0  0  0  0  0
  -17.6075  -12.5824   23.2058 C   0  0  0  0  0  0  0  0  0  0  0  0
  -19.6154  -14.5067   23.0976 C   0  0  0  0  0  0  0  0  0  0  0  0
  -22.6647  -16.7001   19.7012 C   0  0  0  0  0  0  0  0  0  0  0  0
  -26.3647  -27.0527   27.4279 C   0  0  0  0  0  0  0  0  0  0  0  0
  -28.3864  -28.2422   26.8493 C   0  0  0  0  0  0  0  0  0  0  0  0
  -23.0199  -18.0289   19.9289 C   0  0  0  0  0  0  0  0  0  0  0  0
  -28.3697  -24.3603   27.0341 C   0  0  0  0  0  0  0  0  0  0  0  0
  -28.1041  -22.9941   26.9421 C   0  0  0  0  0  0  0  0  0  0  0  0
  -25.1423  -17.3032   20.8164 C   0  0  0  0  0  0  0  0  0  0  0  0
  -28.5189  -25.0495   19.4953 C   0  0  0  0  0  0  0  0  0  0  0  0
  -27.5029  -22.9535   29.2818 C   0  0  0  0  0  0  0  0  0  0  0  0
  -26.2679  -28.9364   25.9181 C   0  0  0  0  0  0  0  0  0  0  0  0
  -24.4505  -30.6692   25.4690 C   0  0  0  0  0  0  0  0  0  0  0  0
  -18.9466  -12.1886   23.3558 C   0  0  0  0  0  0  0  0  0  0  0  0
  -23.5428  -15.6605   20.0401 C   0  0  0  0  0  0  0  0  0  0  0  0
  -19.9629  -13.1620   23.3118 C   0  0  0  0  0  0  0  0  0  0  0  0
  -24.7970  -15.9622   20.5897 C   0  0  0  0  0  0  0  0  0  0  0  0
  -28.9782  -24.1343   18.5163 C   0  0  0  0  0  0  0  0  0  0  0  0
  -27.7447  -27.2178   27.5455 C   0  0  0  0  0  0  0  0  0  0  0  0
  -24.2577  -18.3305   20.4892 C   0  0  0  0  0  0  0  0  0  0  0  0
  -28.2021  -25.0231   28.2500 C   0  0  0  0  0  0  0  0  0  0  0  0
  -27.6706  -22.2907   28.0659 C   0  0  0  0  0  0  0  0  0  0  0  0
  -27.7687  -24.3197   29.3738 C   0  0  0  0  0  0  0  0  0  0  0  0
  -25.5058  -29.8240   25.0770 C   0  0  0  0  0  0  0  0  0  0  0  0
  -29.3644  -26.1366   19.4710 C   0  0  0  0  0  0  0  0  0  0  0  0
  -30.0906  -24.6898   17.9236 C   0  0  0  0  0  0  0  0  0  0  0  0
  -24.0659  -31.2983   24.3102 C   0  0  0  0  0  0  0  0  0  0  0  0
  -23.8697  -30.8680   26.7647 C   0  0  0  0  0  0  0  0  0  0  0  0
  -23.4334  -13.1956   22.0441 C   0  0  0  0  0  0  0  0  0  0  0  0
  -26.2514  -12.4251   20.6341 C   0  0  0  0  0  0  0  0  0  0  0  0
  -29.2107  -14.1722   19.5354 C   0  0  0  0  0  0  0  0  0  0  0  0
  -27.8581  -29.2757   20.8637 C   0  0  0  0  0  0  0  0  0  0  0  0
  -19.2501  -10.7367   23.6287 C   0  0  0  0  0  0  0  0  0  0  0  0
  -23.1555  -14.2337   19.7635 C   0  0  0  0  0  0  0  0  0  0  0  0
  -25.7839  -14.8838   20.9524 C   0  0  0  0  0  0  0  0  0  0  0  0
  -20.7158  -10.3696   23.4115 C   0  0  0  0  0  0  0  0  0  0  0  0
  -24.3096  -30.1017   19.6381 C   0  0  0  0  0  0  0  0  0  0  0  0
  -21.6275  -11.4009   24.0688 C   0  0  0  0  0  0  0  0  0  0  0  0
  -23.8510  -30.3386   21.0716 C   0  0  0  0  0  0  0  0  0  0  0  0
  -27.6319  -21.8067   20.2404 C   0  0  0  0  0  0  0  0  0  0  0  0
  -26.5811  -21.3259   17.9893 C   0  0  0  0  0  0  0  0  0  0  0  0
  -26.4339  -21.1626   20.9338 C   0  0  0  0  0  0  0  0  0  0  0  0
  -25.3860  -20.6819   18.6878 C   0  0  0  0  0  0  0  0  0  0  0  0
  -25.6433  -29.3600   19.6256 C   0  0  0  0  0  0  0  0  0  0  0  0
  -26.2857  -31.1575   21.2362 C   0  0  0  0  0  0  0  0  0  0  0  0
  -21.4230  -12.7902   23.4528 C   0  0  1  0  0  0  0  0  0  0  0  0
  -23.9187  -13.2302   20.6224 C   0  0  1  0  0  0  0  0  0  0  0  0
  -24.8746  -31.1806   21.8592 C   0  0  2  0  0  0  0  0  0  0  0  0
  -27.2383  -22.3843   18.8783 C   0  0  0  0  0  0  0  0  0  0  0  0
  -25.7708  -20.1079   20.0505 C   0  0  0  0  0  0  0  0  0  1  0  0
  -30.9605  -24.1682   16.8470 C   0  0  0  0  0  0  0  0  0  0  0  0
  -30.8666  -13.6056   17.7370 C   0  0  0  0  0  0  0  0  0  0  0  0
  -32.3502  -27.0288   19.3475 C   0  0  0  0  0  0  0  0  0  0  0  0
  -30.8742  -28.1386   17.6167 C   0  0  0  0  0  0  0  0  0  0  0  0
  -27.8284  -11.1238   22.8990 C   0  0  0  0  0  0  0  0  0  0  0  0
  -29.9280  -11.9710   21.8303 C   0  0  0  0  0  0  0  0  0  0  0  0
  -28.4707  -10.3581   20.6065 C   0  0  0  0  0  0  0  0  0  0  0  0
  -28.8281  -16.7848   18.1987 C   0  0  0  0  0  0  0  0  0  0  0  0
  -29.3421  -27.3714   20.2818 C   0  0  0  0  0  0  0  0  0  0  0  0
  -27.7022  -12.7492   20.8969 C   0  0  1  0  0  0  0  0  0  0  0  0
  -29.6373  -14.4238   18.1004 C   0  0  2  0  0  0  0  0  0  0  0  0
  -31.3943  -26.8117   18.1729 C   0  0  0  0  0  0  0  0  0  0  0  0
  -28.4615  -11.5685   21.5654 C   0  0  0  0  0  0  0  0  0  0  0  0
  -25.7744  -29.9061   23.7712 N   0  0  0  0  0  0  0  0  0  0  0  0
  -30.3162  -25.9068   18.5121 N   0  0  0  0  0  0  0  0  0  0  0  0
  -24.8823  -30.8104   23.3326 N   0  0  0  0  0  0  0  0  0  0  0  0
  -25.3565  -13.5039   20.6686 N   0  0  0  0  0  0  0  0  0  0  0  0
  -26.6143  -29.8817   20.5971 N   0  0  0  0  0  0  0  0  0  0  0  0
  -23.1125  -32.2157   24.0422 N   0  0  0  0  0  0  0  0  0  0  0  0
  -24.3852  -30.1411   27.8465 N   0  0  0  0  0  0  0  0  0  0  0  0
  -28.4118  -22.9090   18.2138 N   0  0  0  0  0  0  0  0  0  0  0  0
  -22.0945  -12.8799   22.1739 N   0  0  0  0  0  0  0  0  0  0  0  0
  -28.2636  -13.1736   19.6190 N   0  0  0  0  0  0  0  0  0  0  0  0
  -28.1151  -28.1198   20.1310 N   0  0  0  0  0  0  0  0  0  0  0  0
  -29.9565  -15.8657   17.9002 N   0  3  0  0  0  0  0  0  0  0  0  0
  -22.9110  -31.6543   26.9545 O   0  0  0  0  0  0  0  0  0  0  0  0
  -24.2162  -13.4361   22.9557 O   0  0  0  0  0  0  0  0  0  0  0  0
  -25.9251  -11.2588   20.3996 O   0  0  0  0  0  0  0  0  0  0  0  0
  -29.6742  -14.7964   20.4873 O   0  0  0  0  0  0  0  0  0  0  0  0
  -28.6656  -29.7244   21.6830 O   0  0  0  0  0  0  0  0  0  0  0  0
  -28.4655  -26.3797   28.3395 O   0  0  0  0  0  0  0  0  0  0  0  0
  -24.6066  -19.6267   20.7131 O   0  0  0  0  0  0  0  0  0  1  0  0
  -27.4140  -20.9790   27.9771 F   0  0  0  0  0  0  0  0  0  0  0  0
  -27.6046  -24.9513   30.5443 F   0  0  0  0  0  0  0  0  0  0  0  0
  1  2  1  0  0  0  0
  1  5  2  0  0  0  0
  2  6  2  0  0  0  0
  3  8  2  0  0  0  0
  3 16  1  0  0  0  0
  4  9  1  0  0  0  0
  4 16  2  0  0  0  0
  5 18  1  0  0  0  0
  6 20  1  0  0  0  0
  7 10  2  0  0  0  0
  7 19  1  0  0  0  0
  8 23  1  0  0  0  0
  9 23  2  0  0  0  0
 10 24  1  0  0  0  0
 11 12  2  0  0  0  0
 11 25  1  0  0  0  0
 12 26  1  0  0  0  0
 13 21  1  0  0  0  0
 13 24  2  0  0  0  0
 14 22  1  0  0  0  0
 14 29  2  0  0  0  0
 15 26  2  0  0  0  0
 15 27  1  0  0  0  0
 16 28  1  0  0  0  0
 17 28  1  0  0  0  0
 17 31  2  0  0  0  0
 17 32  1  0  0  0  0
 18 20  2  0  0  0  0
 18 37  1  0  0  0  0
 19 21  2  0  0  0  0
 19 38  1  0  0  0  0
 20 50  1  0  0  0  0
 21 39  1  0  0  0  0
 22 30  2  0  0  0  0
 22 75  1  0  0  0  0
 23 85  1  0  0  0  0
 24 86  1  0  0  0  0
 25 27  2  0  0  0  0
 25 85  1  0  0  0  0
 26 87  1  0  0  0  0
 27 88  1  0  0  0  0
 28 68  2  0  0  0  0
 29 63  1  0  0  0  0
 29 69  1  0  0  0  0
 30 55  1  0  0  0  0
 30 69  1  0  0  0  0
 31 70  1  0  0  0  0
 31 73  1  0  0  0  0
 32 74  1  0  0  0  0
 32 80  2  0  0  0  0
 33 51  1  0  0  0  0
 33 76  1  0  0  0  0
 33 81  2  0  0  0  0
 34 64  1  0  0  0  0
 34 71  1  0  0  0  0
 34 82  2  0  0  0  0
 35 65  1  0  0  0  0
 35 77  1  0  0  0  0
 35 83  2  0  0  0  0
 36 72  1  0  0  0  0
 36 78  1  0  0  0  0
 36 84  2  0  0  0  0
 37 40  1  0  0  0  0
 38 51  1  0  0  0  0
 39 71  1  0  0  0  0
 40 42  1  0  0  0  0
 41 43  1  0  0  0  0
 41 48  1  0  0  0  0
 42 50  1  0  0  0  0
 43 52  1  0  0  0  0
 44 46  1  0  0  0  0
 44 53  1  0  0  0  0
 45 47  1  0  0  0  0
 45 53  1  0  0  0  0
 46 54  1  0  0  0  0
 47 54  1  0  0  0  0
 48 72  1  0  0  0  0
 49 52  1  0  0  0  0
 49 72  1  0  0  0  0
 50 76  1  0  0  0  0
 51 71  1  0  0  0  0
 52 70  1  0  0  0  0
 53 75  1  0  0  0  0
 54 86  1  0  0  0  0
 56 65  1  0  0  0  0
 57 66  1  0  0  0  0
 58 66  1  0  0  0  0
 59 67  1  0  0  0  0
 60 67  1  0  0  0  0
 61 67  1  0  0  0  0
 62 79  1  0  0  0  0
 63 78  1  0  0  0  0
 64 67  1  0  0  0  0
 64 77  1  0  0  0  0
 65 79  1  0  0  0  0
 66 69  1  0  0  0  0
 68 70  1  0  0  0  0
M  CHG  1  79   1
M  ISO  4  36 100  54 101  78 100  86 101
M  END
> <Batch ID>
0141

> <Smiles>
CNC(C)C(=O)NC(C(=O)N1Cc2cc([101O:1][101CH:1]3CCC(Nc4cc(C[100NH:0][100C:0](=O)N5CCCC(n6nc(-c7ccc(Oc8ccc(F)cc8F)cc7)c(C(N)=O)c6N)C5)n(C(C)C)c4C)CC3)ccc2CC1C(=O)NC1CCCc2ccccc21)C(C)(C)C

> <Shape>
0.228

> <Color>
0.060

> <Negative vol penalty>
0.000

$$$$

  -OEChem-04052321163D

 85 94  0     1  0  0  0  0  0999 V2000
  -21.5168  -30.3458   14.1478 C   0  0  0  0  0  0  0  0  0  0  0  0
  -22.6891  -29.8771   14.7322 C   0  0  0  0  0  0  0  0  0  0  0  0
  -28.3502  -10.4623   23.6820 C   0  0  0  0  0  0  0  0  0  0  0  0
  -27.9342  -10.9769   21.3583 C   0  0  0  0  0  0  0  0  0  0  0  0
  -20.9850  -31.5729   14.5418 C   0  0  0  0  0  0  0  0  0  0  0  0
  -23.3310  -30.6360   15.7102 C   0  0  0  0  0  0  0  0  0  0  0  0
  -24.8109  -27.8490   19.6710 C   0  0  0  0  0  0  0  0  0  0  0  0
  -27.3564   -9.4844   23.6433 C   0  0  0  0  0  0  0  0  0  0  0  0
  -26.9404   -9.9989   21.3196 C   0  0  0  0  0  0  0  0  0  0  0  0
  -25.9667  -27.0849   19.5155 C   0  0  0  0  0  0  0  0  0  0  0  0
  -23.7176   -9.6821   22.2913 C   0  0  0  0  0  0  0  0  0  0  0  0
  -22.5108  -10.0087   21.6728 C   0  0  0  0  0  0  0  0  0  0  0  0
  -27.2298  -28.7661   20.6977 C   0  0  0  0  0  0  0  0  0  0  0  0
  -28.7879  -20.8992   17.5260 C   0  0  0  0  0  0  0  0  0  0  0  0
  -22.8372   -8.2140   20.0885 C   0  0  0  0  0  0  0  0  0  0  0  0
  -28.6391  -11.2087   22.5395 C   0  0  0  0  0  0  0  0  0  0  0  0
  -31.0342  -12.0525   22.2967 C   0  0  0  0  0  0  0  0  0  0  0  0
  -21.6154  -32.3426   15.5322 C   0  0  0  0  0  0  0  0  0  0  0  0
  -24.8581  -29.0845   20.3325 C   0  0  0  0  0  0  0  0  0  0  0  0
  -22.8078  -31.8752   16.1170 C   0  0  0  0  0  0  0  0  0  0  0  0
  -26.0727  -29.5427   20.8624 C   0  0  0  0  0  0  0  0  0  0  0  0
  -28.8030  -18.6845   18.4637 C   0  0  0  0  0  0  0  0  0  0  0  0
  -28.6976  -19.5218   17.3587 C   0  0  0  0  0  0  0  0  0  0  0  0
  -26.6515   -9.2526   22.4622 C   0  0  0  0  0  0  0  0  0  0  0  0
  -27.1770  -27.5448   20.0264 C   0  0  0  0  0  0  0  0  0  0  0  0
  -24.4843   -8.6216   21.8084 C   0  0  0  0  0  0  0  0  0  0  0  0
  -22.0706   -9.2746   20.5714 C   0  0  0  0  0  0  0  0  0  0  0  0
  -24.0441   -7.8875   20.7070 C   0  0  0  0  0  0  0  0  0  0  0  0
  -29.6652  -12.2195   22.5790 C   0  0  0  0  0  0  0  0  0  0  0  0
  -28.9967  -19.2696   19.7046 C   0  0  0  0  0  0  0  0  0  0  0  0
  -28.9821  -21.3852   18.8089 C   0  0  0  0  0  0  0  0  0  0  0  0
  -31.5764  -13.3017   22.4754 C   0  0  0  0  0  0  0  0  0  0  0  0
  -31.7516  -10.8737   21.9077 C   0  0  0  0  0  0  0  0  0  0  0  0
  -24.2647  -32.0958   19.5055 C   0  0  0  0  0  0  0  0  0  0  0  0
  -24.7582  -32.6504   22.6632 C   0  0  0  0  0  0  0  0  0  0  0  0
  -26.1878  -31.6414   25.5932 C   0  0  0  0  0  0  0  0  0  0  0  0
  -29.3059  -18.8201   22.1641 C   0  0  0  0  0  0  0  0  0  0  0  0
  -21.0286  -33.6847   15.8915 C   0  0  0  0  0  0  0  0  0  0  0  0
  -23.5973  -29.8842   20.5152 C   0  0  0  0  0  0  0  0  0  0  0  0
  -26.1728  -30.8529   21.5985 C   0  0  0  0  0  0  0  0  0  0  0  0
  -21.5664  -34.2534   17.2021 C   0  0  0  0  0  0  0  0  0  0  0  0
  -30.9334  -17.3421   24.9647 C   0  0  0  0  0  0  0  0  0  0  0  0
  -29.8297  -16.3412   18.8225 C   0  0  0  0  0  0  0  0  0  0  0  0
  -29.6421  -16.5101   17.3472 C   0  0  0  0  0  0  0  0  0  0  0  0
  -23.0857  -34.1275   17.2551 C   0  0  0  0  0  0  0  0  0  0  0  0
  -30.9229  -15.8461   24.6422 C   0  0  0  0  0  0  0  0  0  0  0  0
  -29.6542  -18.0325   24.4950 C   0  0  0  0  0  0  0  0  0  0  0  0
  -29.3028  -16.3183   22.7609 C   0  0  0  0  0  0  0  0  0  0  0  0
  -28.7093  -17.2017   18.3044 C   0  0  0  0  0  0  0  0  0  0  0  0
  -23.5197  -32.6579   17.1990 C   0  0  1  0  0  0  0  0  0  0  0  0
  -23.8603  -31.3676   20.7560 C   0  0  1  0  0  0  0  0  0  0  0  0
  -30.5987  -15.5920   23.1570 C   0  0  2  0  0  0  0  0  0  0  0  0
  -28.4875  -18.9708   15.9869 C   0  0  0  0  0  0  0  0  0  0  0  0
  -26.4469  -32.3205   27.9951 C   0  0  0  0  0  0  0  0  0  0  0  0
  -26.8139  -34.7515   21.8447 C   0  0  0  0  0  0  0  0  0  0  0  0
  -27.6938  -34.7026   24.1882 C   0  0  0  0  0  0  0  0  0  0  0  0
  -25.3439  -35.4188   23.7548 C   0  0  0  0  0  0  0  0  0  0  0  0
  -24.8330  -29.1913   26.5529 C   0  0  0  0  0  0  0  0  0  0  0  0
  -29.3965  -24.7028   20.3556 C   0  0  0  0  0  0  0  0  0  0  0  0
  -28.1486  -25.3843   19.8163 C   0  0  0  0  0  0  0  0  0  1  0  0
  -29.2718  -23.1875   20.3332 C   0  0  0  0  0  0  0  0  0  0  0  0
  -25.9600  -32.9784   23.5160 C   0  0  1  0  0  0  0  0  0  0  0  0
  -25.6259  -31.5177   26.9980 C   0  0  2  0  0  0  0  0  0  0  0  0
  -26.4517  -34.4390   23.3104 C   0  0  0  0  0  0  0  0  0  0  0  0
  -29.3568  -13.4757   22.9118 N   0  0  0  0  0  0  0  0  0  0  0  0
  -29.0893  -20.6031   19.9064 N   0  0  0  0  0  0  0  0  0  0  0  0
  -30.5397  -14.1094   22.8400 N   0  0  0  0  0  0  0  0  0  0  0  0
  -24.9136  -31.6015   21.7459 N   0  0  0  0  0  0  0  0  0  0  0  0
  -29.4137  -17.7507   23.0781 N   0  0  0  0  0  0  0  0  0  0  0  0
  -32.8342  -13.7770   22.3548 N   0  0  0  0  0  0  0  0  0  0  0  0
  -31.0406   -9.6738   21.7701 N   0  0  0  0  0  0  0  0  0  0  0  0
  -29.1100  -18.4293   20.8399 N   0  0  0  0  0  0  0  0  0  0  0  0
  -23.3328  -32.0261   18.4875 N   0  0  0  0  0  0  0  0  0  0  0  0
  -25.5842  -32.6622   24.8897 N   0  0  0  0  0  0  0  0  0  0  0  0
  -25.6234  -30.0918   27.4312 N   0  3  0  0  0  0  0  0  0  0  0  0
  -32.9894  -10.8805   21.7047 O   0  0  0  0  0  0  0  0  0  0  0  0
  -25.3417  -32.6790   19.4675 O   0  0  0  0  0  0  0  0  0  0  0  0
  -23.7177  -33.2963   22.8106 O   0  0  0  0  0  0  0  0  0  0  0  0
  -27.0761  -30.9083   25.1642 O   0  0  0  0  0  0  0  0  0  0  0  0
  -29.4090  -19.9953   22.5251 O   0  0  0  0  0  0  0  0  0  0  0  0
  -25.6819   -8.2982   22.4240 O   0  0  0  0  0  0  0  0  0  0  0  0
  -28.3067  -26.8013   19.8755 O   0  0  0  0  0  0  0  0  0  1  0  0
  -29.0726  -22.7395   18.9993 O   0  0  0  0  0  0  0  0  0  0  0  0
  -20.9109   -9.5873   19.9785 F   0  0  0  0  0  0  0  0  0  0  0  0
  -24.7757   -6.8669   20.2393 F   0  0  0  0  0  0  0  0  0  0  0  0
  1  2  1  0  0  0  0
  1  5  2  0  0  0  0
  2  6  2  0  0  0  0
  3  8  2  0  0  0  0
  3 16  1  0  0  0  0
  4  9  1  0  0  0  0
  4 16  2  0  0  0  0
  5 18  1  0  0  0  0
  6 20  1  0  0  0  0
  7 10  2  0  0  0  0
  7 19  1  0  0  0  0
  8 24  1  0  0  0  0
  9 24  2  0  0  0  0
 10 25  1  0  0  0  0
 11 12  2  0  0  0  0
 11 26  1  0  0  0  0
 12 27  1  0  0  0  0
 13 21  1  0  0  0  0
 13 25  2  0  0  0  0
 14 23  2  0  0  0  0
 14 31  1  0  0  0  0
 15 27  2  0  0  0  0
 15 28  1  0  0  0  0
 16 29  1  0  0  0  0
 17 29  1  0  0  0  0
 17 32  2  0  0  0  0
 17 33  1  0  0  0  0
 18 20  2  0  0  0  0
 18 38  1  0  0  0  0
 19 21  2  0  0  0  0
 19 39  1  0  0  0  0
 20 50  1  0  0  0  0
 21 40  1  0  0  0  0
 22 23  1  0  0  0  0
 22 30  2  0  0  0  0
 22 49  1  0  0  0  0
 23 53  1  0  0  0  0
 24 81  1  0  0  0  0
 25 82  1  0  0  0  0
 26 28  2  0  0  0  0
 26 81  1  0  0  0  0
 27 84  1  0  0  0  0
 28 85  1  0  0  0  0
 29 65  2  0  0  0  0
 30 66  1  0  0  0  0
 30 72  1  0  0  0  0
 31 66  2  0  0  0  0
 31 83  1  0  0  0  0
 32 67  1  0  0  0  0
 32 70  1  0  0  0  0
 33 71  1  0  0  0  0
 33 76  2  0  0  0  0
 34 51  1  0  0  0  0
 34 73  1  0  0  0  0
 34 77  2  0  0  0  0
 35 62  1  0  0  0  0
 35 68  1  0  0  0  0
 35 78  2  0  0  0  0
 36 63  1  0  0  0  0
 36 74  1  0  0  0  0
 36 79  2  0  0  0  0
 37 69  1  0  0  0  0
 37 72  1  0  0  0  0
 37 80  2  0  0  0  0
 38 41  1  0  0  0  0
 39 51  1  0  0  0  0
 40 68  1  0  0  0  0
 41 45  1  0  0  0  0
 42 46  1  0  0  0  0
 42 47  1  0  0  0  0
 43 44  1  0  0  0  0
 43 49  1  0  0  0  0
 44 49  1  0  0  0  0
 45 50  1  0  0  0  0
 46 52  1  0  0  0  0
 47 69  1  0  0  0  0
 48 52  1  0  0  0  0
 48 69  1  0  0  0  0
 50 73  1  0  0  0  0
 51 68  1  0  0  0  0
 52 67  1  0  0  0  0
 54 63  1  0  0  0  0
 55 64  1  0  0  0  0
 56 64  1  0  0  0  0
 57 64  1  0  0  0  0
 58 75  1  0  0  0  0
 59 60  1  0  0  0  0
 59 61  1  0  0  0  0
 60 82  1  0  0  0  0
 61 83  1  0  0  0  0
 62 64  1  0  0  0  0
 62 74  1  0  0  0  0
 63 75  1  0  0  0  0
 65 67  1  0  0  0  0
M  CHG  1  75   1
M  ISO  4  37 100  60 101  72 100  82 101
M  END
> <Batch ID>
0141

> <Smiles>
CNC(C)C(=O)NC(C(=O)N1Cc2cc([101O:1][101CH2:1]CCOc3cc(C)c(C4CC4)c([100NH:0][100C:0](=O)N4CCCC(n5nc(-c6ccc(Oc7ccc(F)cc7F)cc6)c(C(N)=O)c5N)C4)n3)ccc2CC1C(=O)NC1CCCc2ccccc21)C(C)(C)C

> <Shape>
0.250

> <Color>
0.116

> <Negative vol penalty>
0.000

$$$$

  -OEChem-04052321163D

 80 88  0     1  0  0  0  0  0999 V2000
  -22.6766  -30.6660   13.6409 C   0  0  0  0  0  0  0  0  0  0  0  0
  -23.6649  -30.0158   14.3729 C   0  0  0  0  0  0  0  0  0  0  0  0
  -26.5266  -12.7670   21.4474 C   0  0  0  0  0  0  0  0  0  0  0  0
  -25.9563  -14.4836   19.8457 C   0  0  0  0  0  0  0  0  0  0  0  0
  -22.3004  -31.9650   13.9799 C   0  0  0  0  0  0  0  0  0  0  0  0
  -24.2785  -30.6647   15.4438 C   0  0  0  0  0  0  0  0  0  0  0  0
  -24.7230  -27.6925   19.5197 C   0  0  0  0  0  0  0  0  0  0  0  0
  -29.5044  -23.2119   19.5950 C   0  0  0  0  0  0  0  0  0  0  0  0
  -25.2233  -12.2743   21.3833 C   0  0  0  0  0  0  0  0  0  0  0  0
  -24.6530  -13.9908   19.7816 C   0  0  0  0  0  0  0  0  0  0  0  0
  -25.7504  -26.7500   19.5115 C   0  0  0  0  0  0  0  0  0  0  0  0
  -22.1929  -13.0758   22.6477 C   0  0  0  0  0  0  0  0  0  0  0  0
  -21.5607  -12.7590   23.8501 C   0  0  0  0  0  0  0  0  0  0  0  0
  -29.4607  -21.9477   20.1721 C   0  0  0  0  0  0  0  0  0  0  0  0
  -27.0915  -28.2090   20.8869 C   0  0  0  0  0  0  0  0  0  0  0  0
  -21.3155  -10.4697   23.1180 C   0  0  0  0  0  0  0  0  0  0  0  0
  -26.8931  -13.8717   20.6786 C   0  0  0  0  0  0  0  0  0  0  0  0
  -29.3331  -13.9995   19.9454 C   0  0  0  0  0  0  0  0  0  0  0  0
  -22.9029  -32.6266   15.0616 C   0  0  0  0  0  0  0  0  0  0  0  0
  -24.8766  -28.9070   20.2037 C   0  0  0  0  0  0  0  0  0  0  0  0
  -23.9110  -31.9743   15.7968 C   0  0  0  0  0  0  0  0  0  0  0  0
  -26.0636  -29.1641   20.9044 C   0  0  0  0  0  0  0  0  0  0  0  0
  -30.1880  -24.2393   20.2357 C   0  0  0  0  0  0  0  0  0  0  0  0
  -24.2865  -12.8861   20.5505 C   0  0  0  0  0  0  0  0  0  0  0  0
  -26.9360  -27.0095   20.1928 C   0  0  0  0  0  0  0  0  0  0  0  0
  -22.3862  -12.0895   21.6804 C   0  0  0  0  0  0  0  0  0  0  0  0
  -21.1221  -11.4560   24.0852 C   0  0  0  0  0  0  0  0  0  0  0  0
  -21.9476  -10.7864   21.9156 C   0  0  0  0  0  0  0  0  0  0  0  0
  -28.2391  -14.3816   20.7447 C   0  0  0  0  0  0  0  0  0  0  0  0
  -30.8064  -23.9531   21.4421 C   0  0  0  0  0  0  0  0  0  0  0  0
  -30.1119  -21.7641   21.3813 C   0  0  0  0  0  0  0  0  0  0  0  0
  -30.3756  -14.7703   20.3990 C   0  0  0  0  0  0  0  0  0  0  0  0
  -29.4010  -13.0342   18.8874 C   0  0  0  0  0  0  0  0  0  0  0  0
  -24.8985  -31.9708   19.3574 C   0  0  0  0  0  0  0  0  0  0  0  0
  -25.0309  -32.4524   22.5625 C   0  0  0  0  0  0  0  0  0  0  0  0
  -25.8568  -31.2379   25.6431 C   0  0  0  0  0  0  0  0  0  0  0  0
  -30.6394  -20.0619   23.1620 C   0  0  0  0  0  0  0  0  0  0  0  0
  -22.4965  -34.0479   15.3607 C   0  0  0  0  0  0  0  0  0  0  0  0
  -23.7486  -29.9018   20.2251 C   0  0  0  0  0  0  0  0  0  0  0  0
  -26.2706  -30.4440   21.6709 C   0  0  0  0  0  0  0  0  0  0  0  0
  -22.9314  -34.5277   16.7431 C   0  0  0  0  0  0  0  0  0  0  0  0
  -31.9635  -16.9749   24.3426 C   0  0  0  0  0  0  0  0  0  0  0  0
  -24.3880  -34.1568   17.0030 C   0  0  0  0  0  0  0  0  0  0  0  0
  -31.2628  -15.9251   23.4771 C   0  0  0  0  0  0  0  0  0  0  0  0
  -31.0353  -18.1389   24.6852 C   0  0  0  0  0  0  0  0  0  0  0  0
  -29.6851  -17.7253   22.6665 C   0  0  0  0  0  0  0  0  0  0  0  0
  -24.5824  -32.6359   16.9807 C   0  0  1  0  0  0  0  0  0  0  0  0
  -24.2117  -31.3237   20.5267 C   0  0  1  0  0  0  0  0  0  0  0  0
  -30.5997  -16.5649   22.2416 C   0  0  2  0  0  0  0  0  0  0  0  0
  -31.5538  -25.0189   22.1748 C   0  0  0  0  0  0  0  0  0  0  0  0
  -25.8855  -31.8769   28.0696 C   0  0  0  0  0  0  0  0  0  0  0  0
  -27.4927  -34.1876   22.0739 C   0  0  0  0  0  0  0  0  0  0  0  0
  -28.0183  -34.0072   24.5151 C   0  0  0  0  0  0  0  0  0  0  0  0
  -25.8985  -35.0937   23.7745 C   0  0  0  0  0  0  0  0  0  0  0  0
  -24.0038  -29.0450   26.3620 C   0  0  0  0  0  0  0  0  0  0  0  0
  -30.2383  -25.6145   19.6155 C   0  0  0  0  0  0  0  0  0  0  0  0
  -29.2747  -26.5881   20.2853 C   0  0  0  0  0  0  0  0  0  1  0  0
  -26.1393  -32.5846   23.5788 C   0  0  1  0  0  0  0  0  0  0  0  0
  -25.0924  -31.2137   26.9544 C   0  0  2  0  0  0  0  0  0  0  0  0
  -26.8844  -33.9449   23.4696 C   0  0  0  0  0  0  0  0  0  0  0  0
  -28.5570  -15.3219   21.6385 N   0  0  0  0  0  0  0  0  0  0  0  0
  -30.7859  -22.7377   22.0336 N   0  0  0  0  0  0  0  0  0  0  0  0
  -29.8626  -15.5370   21.4036 N   0  0  0  0  0  0  0  0  0  0  0  0
  -25.1409  -31.3879   21.6566 N   0  0  0  0  0  0  0  0  0  0  0  0
  -30.4471  -18.6975   23.4658 N   0  0  0  0  0  0  0  0  0  0  0  0
  -31.6718  -14.8601   20.0326 N   0  0  0  0  0  0  0  0  0  0  0  0
  -28.2369  -12.3308   18.5491 N   0  0  0  0  0  0  0  0  0  0  0  0
  -30.0613  -20.4721   21.9610 N   0  0  0  0  0  0  0  0  0  0  0  0
  -24.1184  -32.0488   18.2194 N   0  0  0  0  0  0  0  0  0  0  0  0
  -25.5299  -32.3400   24.8816 N   0  0  0  0  0  0  0  0  0  0  0  0
  -24.7993  -29.8091   27.3572 N   0  3  0  0  0  0  0  0  0  0  0  0
  -30.4663  -12.7906   18.2716 O   0  0  0  0  0  0  0  0  0  0  0  0
  -26.0503  -32.3711   19.4790 O   0  0  0  0  0  0  0  0  0  0  0  0
  -24.0982  -33.2595   22.5766 O   0  0  0  0  0  0  0  0  0  0  0  0
  -26.6659  -30.3682   25.3275 O   0  0  0  0  0  0  0  0  0  0  0  0
  -31.2934  -20.8049   23.8983 O   0  0  0  0  0  0  0  0  0  0  0  0
  -23.0147  -12.4054   20.4875 O   0  0  0  0  0  0  0  0  0  0  0  0
  -27.9406  -26.0916   20.1859 O   0  0  0  0  0  0  0  0  0  1  0  0
  -20.5165  -11.1516   25.2406 F   0  0  0  0  0  0  0  0  0  0  0  0
  -22.1316   -9.8344   20.9906 F   0  0  0  0  0  0  0  0  0  0  0  0
  1  2  1  0  0  0  0
  1  5  2  0  0  0  0
  2  6  2  0  0  0  0
  3  9  2  0  0  0  0
  3 17  1  0  0  0  0
  4 10  1  0  0  0  0
  4 17  2  0  0  0  0
  5 19  1  0  0  0  0
  6 21  1  0  0  0  0
  7 11  2  0  0  0  0
  7 20  1  0  0  0  0
  8 14  2  0  0  0  0
  8 23  1  0  0  0  0
  9 24  1  0  0  0  0
 10 24  2  0  0  0  0
 11 25  1  0  0  0  0
 12 13  2  0  0  0  0
 12 26  1  0  0  0  0
 13 27  1  0  0  0  0
 14 31  1  0  0  0  0
 15 22  1  0  0  0  0
 15 25  2  0  0  0  0
 16 27  2  0  0  0  0
 16 28  1  0  0  0  0
 17 29  1  0  0  0  0
 18 29  1  0  0  0  0
 18 32  2  0  0  0  0
 18 33  1  0  0  0  0
 19 21  2  0  0  0  0
 19 38  1  0  0  0  0
 20 22  2  0  0  0  0
 20 39  1  0  0  0  0
 21 47  1  0  0  0  0
 22 40  1  0  0  0  0
 23 30  2  0  0  0  0
 23 56  1  0  0  0  0
 24 77  1  0  0  0  0
 25 78  1  0  0  0  0
 26 28  2  0  0  0  0
 26 77  1  0  0  0  0
 27 79  1  0  0  0  0
 28 80  1  0  0  0  0
 29 61  2  0  0  0  0
 30 50  1  0  0  0  0
 30 62  1  0  0  0  0
 31 62  2  0  0  0  0
 31 68  1  0  0  0  0
 32 63  1  0  0  0  0
 32 66  1  0  0  0  0
 33 67  1  0  0  0  0
 33 72  2  0  0  0  0
 34 48  1  0  0  0  0
 34 69  1  0  0  0  0
 34 73  2  0  0  0  0
 35 58  1  0  0  0  0
 35 64  1  0  0  0  0
 35 74  2  0  0  0  0
 36 59  1  0  0  0  0
 36 70  1  0  0  0  0
 36 75  2  0  0  0  0
 37 65  1  0  0  0  0
 37 68  1  0  0  0  0
 37 76  2  0  0  0  0
 38 41  1  0  0  0  0
 39 48  1  0  0  0  0
 40 64  1  0  0  0  0
 41 43  1  0  0  0  0
 42 44  1  0  0  0  0
 42 45  1  0  0  0  0
 43 47  1  0  0  0  0
 44 49  1  0  0  0  0
 45 65  1  0  0  0  0
 46 49  1  0  0  0  0
 46 65  1  0  0  0  0
 47 69  1  0  0  0  0
 48 64  1  0  0  0  0
 49 63  1  0  0  0  0
 51 59  1  0  0  0  0
 52 60  1  0  0  0  0
 53 60  1  0  0  0  0
 54 60  1  0  0  0  0
 55 71  1  0  0  0  0
 56 57  1  0  0  0  0
 57 78  1  0  0  0  0
 58 60  1  0  0  0  0
 58 70  1  0  0  0  0
 59 71  1  0  0  0  0
 61 63  1  0  0  0  0
M  CHG  1  71   1
M  ISO  4  37 100  57 101  68 100  78 101
M  END
> <Batch ID>
0141

> <Smiles>
CNC(C)C(=O)NC(C(=O)N1Cc2cc([101O:1][101CH2:1]Cc3ccc([100NH:0][100C:0](=O)N4CCCC(n5nc(-c6ccc(Oc7ccc(F)cc7F)cc6)c(C(N)=O)c5N)C4)nc3C)ccc2CC1C(=O)NC1CCCc2ccccc21)C(C)(C)C

> <Shape>
0.297

> <Color>
0.076

> <Negative vol penalty>
0.000

$$$$

  -OEChem-04052321163D

 86 95  0     1  0  0  0  0  0999 V2000
  -27.1803  -33.9524   18.0020 C   0  0  0  0  0  0  0  0  0  0  0  0
  -27.7418  -32.8454   17.3738 C   0  0  0  0  0  0  0  0  0  0  0  0
  -23.1180   -9.8323   19.9340 C   0  0  0  0  0  0  0  0  0  0  0  0
  -23.8033   -9.8835   22.2502 C   0  0  0  0  0  0  0  0  0  0  0  0
  -26.8323  -33.8852   19.3505 C   0  0  0  0  0  0  0  0  0  0  0  0
  -27.9567  -31.6708   18.0941 C   0  0  0  0  0  0  0  0  0  0  0  0
  -28.0054  -24.5537   17.2818 C   0  0  0  0  0  0  0  0  0  0  0  0
  -31.1818  -17.8638   19.9682 C   0  0  0  0  0  0  0  0  0  0  0  0
  -22.3734   -8.6788   20.1798 C   0  0  0  0  0  0  0  0  0  0  0  0
  -23.0586   -8.7299   22.4960 C   0  0  0  0  0  0  0  0  0  0  0  0
  -28.8213  -23.4482   17.5183 C   0  0  0  0  0  0  0  0  0  0  0  0
  -19.8174   -7.9215   23.0079 C   0  0  0  0  0  0  0  0  0  0  0  0
  -19.0232   -7.8967   24.1542 C   0  0  0  0  0  0  0  0  0  0  0  0
  -30.2727  -18.9118   19.8759 C   0  0  0  0  0  0  0  0  0  0  0  0
  -28.1078  -23.4221   19.8225 C   0  0  0  0  0  0  0  0  0  0  0  0
  -20.2517   -5.9803   24.9638 C   0  0  0  0  0  0  0  0  0  0  0  0
  -23.8331  -10.4346   20.9692 C   0  0  0  0  0  0  0  0  0  0  0  0
  -24.1635  -12.9595   20.8166 C   0  0  0  0  0  0  0  0  0  0  0  0
  -27.0341  -32.7062   20.0852 C   0  0  0  0  0  0  0  0  0  0  0  0
  -27.2416  -25.1093   18.3183 C   0  0  0  0  0  0  0  0  0  0  0  0
  -27.6123  -31.5883   19.4540 C   0  0  0  0  0  0  0  0  0  0  0  0
  -32.4038  -18.0645   20.6005 C   0  0  0  0  0  0  0  0  0  0  0  0
  -27.2810  -24.5331   19.5960 C   0  0  0  0  0  0  0  0  0  0  0  0
  -22.3436   -8.1276   21.4608 C   0  0  0  0  0  0  0  0  0  0  0  0
  -28.8748  -22.8840   18.7895 C   0  0  0  0  0  0  0  0  0  0  0  0
  -20.8287   -6.9757   22.8393 C   0  0  0  0  0  0  0  0  0  0  0  0
  -19.2404   -6.9261   25.1322 C   0  0  0  0  0  0  0  0  0  0  0  0
  -21.0459   -6.0051   23.8173 C   0  0  0  0  0  0  0  0  0  0  0  0
  -24.6030  -11.6259   20.7158 C   0  0  0  0  0  0  0  0  0  0  0  0
  -30.6306  -20.1313   20.4277 C   0  0  0  0  0  0  0  0  0  0  0  0
  -32.6664  -19.3221   21.1196 C   0  0  0  0  0  0  0  0  0  0  0  0
  -25.2624  -13.7098   20.4758 C   0  0  0  0  0  0  0  0  0  0  0  0
  -22.8771  -13.4741   21.1853 C   0  0  0  0  0  0  0  0  0  0  0  0
  -27.1482  -27.9361   19.7688 C   0  0  0  0  0  0  0  0  0  0  0  0
  -24.5615  -26.6548   21.2485 C   0  0  0  0  0  0  0  0  0  0  0  0
  -22.8882  -23.8538   22.2492 C   0  0  0  0  0  0  0  0  0  0  0  0
  -30.7775  -14.4400   21.3498 C   0  0  0  0  0  0  0  0  0  0  0  0
  -26.6856  -32.6966   21.5525 C   0  0  0  0  0  0  0  0  0  0  0  0
  -26.3460  -26.2854   18.0404 C   0  0  0  0  0  0  0  0  0  0  0  0
  -26.4649  -25.0794   20.7378 C   0  0  0  0  0  0  0  0  0  0  0  0
  -26.6000  -31.2941   22.1491 C   0  0  0  0  0  0  0  0  0  0  0  0
  -29.6787  -12.3651   18.4321 C   0  0  0  0  0  0  0  0  0  0  0  0
  -27.8004  -30.4568   21.7189 C   0  0  0  0  0  0  0  0  0  0  0  0
  -28.2381  -12.0469   18.8303 C   0  0  0  0  0  0  0  0  0  0  0  0
  -33.0107  -15.4521   18.6389 C   0  0  0  0  0  0  0  0  0  0  0  0
  -30.5535  -12.5901   19.6595 C   0  0  0  0  0  0  0  0  0  0  0  0
  -32.5678  -14.3116   19.5502 C   0  0  0  0  0  0  0  0  0  0  0  0
  -28.6033  -13.3349   20.9839 C   0  0  0  0  0  0  0  0  0  0  0  0
  -33.4074  -16.9173   20.7038 C   0  0  2  0  0  0  0  0  0  0  0  0
  -27.8380  -30.2884   20.1952 C   0  0  1  0  0  0  0  0  0  0  0  0
  -26.0044  -27.0855   19.2936 C   0  0  1  0  0  0  0  0  0  0  0  0
  -33.9688  -16.4116   19.3487 C   0  0  2  0  0  0  0  0  0  0  0  0
  -27.6774  -13.1238   19.7749 C   0  0  2  0  0  0  0  0  0  0  0  0
  -32.8770  -15.7521   21.5858 C   0  0  2  0  0  0  0  0  0  0  0  0
  -33.9613  -19.5947   21.8122 C   0  0  0  0  0  0  0  0  0  0  0  0
  -34.4081  -17.5379   18.4099 C   0  0  0  0  0  0  0  0  0  0  0  0
  -34.0213  -15.0001   22.2813 C   0  0  0  0  0  0  0  0  0  0  0  0
  -20.8206  -23.1252   23.4705 C   0  0  0  0  0  0  0  0  0  0  0  0
  -25.8768  -27.3816   23.9040 C   0  0  0  0  0  0  0  0  0  0  0  0
  -24.2812  -25.8230   25.0412 C   0  0  0  0  0  0  0  0  0  0  0  0
  -23.4149  -27.8105   23.8074 C   0  0  0  0  0  0  0  0  0  0  0  0
  -21.8445  -22.4329   19.8721 C   0  0  0  0  0  0  0  0  0  0  0  0
  -29.6781  -21.2775   20.3483 C   0  0  0  0  0  0  0  0  0  1  0  0
  -24.3390  -25.8497   22.5061 C   0  0  1  0  0  0  0  0  0  0  0  0
  -21.4311  -23.4494   22.1159 C   0  0  2  0  0  0  0  0  0  0  0  0
  -24.4950  -26.7069   23.7938 C   0  0  0  0  0  0  0  0  0  0  0  0
  -25.8812  -11.5312   20.3403 N   0  0  0  0  0  0  0  0  0  0  0  0
  -31.8082  -20.3643   21.0494 N   0  0  0  0  0  0  0  0  0  0  0  0
  -26.2544  -12.8148   20.2019 N   0  0  0  0  0  0  0  0  0  0  0  0
  -25.6096  -26.2342   20.4176 N   0  0  0  0  0  0  0  0  0  0  0  0
  -29.9787  -13.5996   20.5578 N   0  0  0  0  0  0  0  0  0  0  0  0
  -32.0419  -14.7896   20.8373 N   0  0  0  0  0  0  0  0  0  0  0  0
  -25.4671  -15.0412   20.3865 N   0  0  0  0  0  0  0  0  0  0  0  0
  -21.8602  -12.5643   21.5055 N   0  0  0  0  0  0  0  0  0  0  0  0
  -26.8778  -29.2912   19.7731 N   0  0  0  0  0  0  0  0  0  0  0  0
  -23.0306  -25.2207   22.3618 N   0  0  0  0  0  0  0  0  0  0  0  0
  -21.3048  -22.2476   21.2437 N   0  3  0  0  0  0  0  0  0  0  0  0
  -22.6318  -14.7040   21.2137 O   0  0  0  0  0  0  0  0  0  0  0  0
  -28.1978  -27.4024   20.1081 O   0  0  0  0  0  0  0  0  0  0  0  0
  -23.8278  -27.6170   21.0087 O   0  0  0  0  0  0  0  0  0  0  0  0
  -23.8078  -23.0385   22.2567 O   0  0  0  0  0  0  0  0  0  0  0  0
  -30.3731  -14.8654   22.4392 O   0  0  0  0  0  0  0  0  0  0  0  0
  -21.6168   -7.0021   21.7010 O   0  0  0  0  0  0  0  0  0  0  0  0
  -29.6764  -21.7978   19.0249 O   0  0  0  0  0  0  0  0  0  1  0  0
  -18.4787   -6.9033   26.2338 F   0  0  0  0  0  0  0  0  0  0  0  0
  -22.0167   -5.0945   23.6616 F   0  0  0  0  0  0  0  0  0  0  0  0
  1  2  1  0  0  0  0
  1  5  2  0  0  0  0
  2  6  2  0  0  0  0
  3  9  2  0  0  0  0
  3 17  1  0  0  0  0
  4 10  1  0  0  0  0
  4 17  2  0  0  0  0
  5 19  1  0  0  0  0
  6 21  1  0  0  0  0
  7 11  2  0  0  0  0
  7 20  1  0  0  0  0
  8 14  2  0  0  0  0
  8 22  1  0  0  0  0
  9 24  1  0  0  0  0
 10 24  2  0  0  0  0
 11 25  1  0  0  0  0
 12 13  2  0  0  0  0
 12 26  1  0  0  0  0
 13 27  1  0  0  0  0
 14 30  1  0  0  0  0
 15 23  1  0  0  0  0
 15 25  2  0  0  0  0
 16 27  2  0  0  0  0
 16 28  1  0  0  0  0
 17 29  1  0  0  0  0
 18 29  1  0  0  0  0
 18 32  2  0  0  0  0
 18 33  1  0  0  0  0
 19 21  2  0  0  0  0
 19 38  1  0  0  0  0
 20 23  2  0  0  0  0
 20 39  1  0  0  0  0
 21 50  1  0  0  0  0
 22 31  2  0  0  0  0
 22 49  1  0  0  0  0
 23 40  1  0  0  0  0
 24 83  1  0  0  0  0
 25 84  1  0  0  0  0
 26 28  2  0  0  0  0
 26 83  1  0  0  0  0
 27 85  1  0  0  0  0
 28 86  1  0  0  0  0
 29 67  2  0  0  0  0
 30 63  1  0  0  0  0
 30 68  2  0  0  0  0
 31 55  1  0  0  0  0
 31 68  1  0  0  0  0
 32 69  1  0  0  0  0
 32 73  1  0  0  0  0
 33 74  1  0  0  0  0
 33 78  2  0  0  0  0
 34 51  1  0  0  0  0
 34 75  1  0  0  0  0
 34 79  2  0  0  0  0
 35 64  1  0  0  0  0
 35 70  1  0  0  0  0
 35 80  2  0  0  0  0
 36 65  1  0  0  0  0
 36 76  1  0  0  0  0
 36 81  2  0  0  0  0
 37 71  1  0  0  0  0
 37 72  1  0  0  0  0
 37 82  2  0  0  0  0
 38 41  1  0  0  0  0
 39 51  1  0  0  0  0
 40 70  1  0  0  0  0
 41 43  1  0  0  0  0
 42 44  1  0  0  0  0
 42 46  1  0  0  0  0
 43 50  1  0  0  0  0
 44 53  1  0  0  0  0
 45 47  1  0  0  0  0
 45 52  1  0  0  0  0
 46 71  1  0  0  0  0
 47 72  1  0  0  0  0
 48 53  1  0  0  0  0
 48 71  1  0  0  0  0
 49 52  1  0  0  0  0
 49 54  1  0  0  0  0
 50 75  1  0  0  0  0
 51 70  1  0  0  0  0
 52 56  1  0  0  0  0
 53 69  1  0  0  0  0
 54 57  1  0  0  0  0
 54 72  1  0  0  0  0
 58 65  1  0  0  0  0
 59 66  1  0  0  0  0
 60 66  1  0  0  0  0
 61 66  1  0  0  0  0
 62 77  1  0  0  0  0
 63 84  1  0  0  0  0
 64 66  1  0  0  0  0
 64 76  1  0  0  0  0
 65 77  1  0  0  0  0
 67 69  1  0  0  0  0
M  CHG  1  77   1
M  ISO  4  37 100  63 101  72 100  84 101
M  END
> <Batch ID>
0141

> <Smiles>
CNC(C)C(=O)NC(C(=O)N1Cc2cc([101O:1][101CH2:1]c3ccc(C4C(C)CC[100N:0]([100C:0](=O)N5CCCC(n6nc(-c7ccc(Oc8ccc(F)cc8F)cc7)c(C(N)=O)c6N)C5)C4C)c(C)n3)ccc2CC1C(=O)NC1CCCc2ccccc21)C(C)(C)C

> <Shape>
0.253

> <Color>
0.194

> <Negative vol penalty>
0.000

$$$$

  -OEChem-04052321163D

 83 91  0     1  0  0  0  0  0999 V2000
  -39.9074  -24.9210   14.0541 C   0  0  0  0  0  0  0  0  0  0  0  0
  -38.6482  -24.8248   14.6376 C   0  0  0  0  0  0  0  0  0  0  0  0
  -23.0805   -9.8406   19.9106 C   0  0  0  0  0  0  0  0  0  0  0  0
  -23.8466   -9.8121   22.2018 C   0  0  0  0  0  0  0  0  0  0  0  0
  -40.0460  -24.7922   12.6727 C   0  0  0  0  0  0  0  0  0  0  0  0
  -37.5266  -24.6009   13.8399 C   0  0  0  0  0  0  0  0  0  0  0  0
  -34.4383  -21.0840   15.7736 C   0  0  0  0  0  0  0  0  0  0  0  0
  -22.3574   -8.6697   20.1378 C   0  0  0  0  0  0  0  0  0  0  0  0
  -23.1234   -8.6412   22.4290 C   0  0  0  0  0  0  0  0  0  0  0  0
  -33.6059  -21.4744   16.8217 C   0  0  0  0  0  0  0  0  0  0  0  0
  -19.9112   -7.7750   23.0223 C   0  0  0  0  0  0  0  0  0  0  0  0
  -19.1583   -7.6971   24.1939 C   0  0  0  0  0  0  0  0  0  0  0  0
  -31.7715  -21.7027   15.2719 C   0  0  0  0  0  0  0  0  0  0  0  0
  -20.4351   -5.7663   24.8860 C   0  0  0  0  0  0  0  0  0  0  0  0
  -23.8252  -10.4118   20.9426 C   0  0  0  0  0  0  0  0  0  0  0  0
  -24.1230  -12.9445   20.8754 C   0  0  0  0  0  0  0  0  0  0  0  0
  -38.9268  -24.5569   11.8587 C   0  0  0  0  0  0  0  0  0  0  0  0
  -33.9454  -21.0105   14.4628 C   0  0  0  0  0  0  0  0  0  0  0  0
  -37.6502  -24.4701   12.4462 C   0  0  0  0  0  0  0  0  0  0  0  0
  -32.5989  -21.3087   14.2093 C   0  0  0  0  0  0  0  0  0  0  0  0
  -22.3788   -8.0700   21.3970 C   0  0  0  0  0  0  0  0  0  0  0  0
  -32.2731  -21.7866   16.5705 C   0  0  0  0  0  0  0  0  0  0  0  0
  -20.9260   -6.8485   22.7824 C   0  0  0  0  0  0  0  0  0  0  0  0
  -19.4203   -6.6928   25.1258 C   0  0  0  0  0  0  0  0  0  0  0  0
  -21.1879   -5.8442   23.7143 C   0  0  0  0  0  0  0  0  0  0  0  0
  -24.5729  -11.6210   20.7084 C   0  0  0  0  0  0  0  0  0  0  0  0
  -25.2010  -13.7203   20.5255 C   0  0  0  0  0  0  0  0  0  0  0  0
  -22.8450  -13.4292   21.3083 C   0  0  0  0  0  0  0  0  0  0  0  0
  -34.6219  -22.4792   11.7262 C   0  0  0  0  0  0  0  0  0  0  0  0
  -32.5021  -20.3469   10.5088 C   0  0  0  0  0  0  0  0  0  0  0  0
  -29.8431  -18.2762   11.0459 C   0  0  0  0  0  0  0  0  0  0  0  0
  -30.6669  -14.8300   20.7222 C   0  0  0  0  0  0  0  0  0  0  0  0
  -39.1203  -24.4718   10.3654 C   0  0  0  0  0  0  0  0  0  0  0  0
  -34.8493  -20.5619   13.3474 C   0  0  0  0  0  0  0  0  0  0  0  0
  -32.0157  -21.2258   12.8232 C   0  0  0  0  0  0  0  0  0  0  0  0
  -37.9291  -23.8622    9.6307 C   0  0  0  0  0  0  0  0  0  0  0  0
  -29.5640  -12.4773   18.2881 C   0  0  0  0  0  0  0  0  0  0  0  0
  -36.6246  -24.4801   10.1238 C   0  0  0  0  0  0  0  0  0  0  0  0
  -28.1330  -12.1496   18.7182 C   0  0  0  0  0  0  0  0  0  0  0  0
  -30.4805  -12.6885   19.4912 C   0  0  0  0  0  0  0  0  0  0  0  0
  -28.5703  -13.3569   20.8976 C   0  0  0  0  0  0  0  0  0  0  0  0
  -28.4198  -19.5256   20.7012 C   0  0  0  0  0  0  0  0  0  0  0  0
  -36.4128  -24.2031   11.6171 C   0  0  1  0  0  0  0  0  0  0  0  0
  -34.3726  -21.0180   11.9719 C   0  0  1  0  0  0  0  0  0  0  0  0
  -30.6106  -19.4946   21.6563 C   0  0  1  0  0  0  0  0  0  0  0  0
  -27.5960  -13.1905   19.7189 C   0  0  2  0  0  0  0  0  0  0  0  0
  -29.6793  -20.3688   20.8152 C   0  0  1  0  0  0  0  0  0  0  0  0
  -30.3851  -18.1026   21.0631 C   0  0  1  0  0  0  0  0  0  0  0  0
  -28.3071  -16.6920    9.8508 C   0  0  0  0  0  0  0  0  0  0  0  0
  -32.2298  -21.3537   22.1313 C   0  0  0  0  0  0  0  0  0  0  0  0
  -32.9256  -18.9654   22.4710 C   0  0  0  0  0  0  0  0  0  0  0  0
  -31.0074  -22.7146    9.2965 C   0  0  0  0  0  0  0  0  0  0  0  0
  -29.0387  -21.2065    8.9532 C   0  0  0  0  0  0  0  0  0  0  0  0
  -31.1955  -20.7216    7.7976 C   0  0  0  0  0  0  0  0  0  0  0  0
  -30.6998  -15.9951   12.7257 C   0  0  0  0  0  0  0  0  0  0  0  0
  -30.6990  -16.9547   22.0044 C   0  0  0  0  0  0  0  0  0  0  0  0
  -30.0727  -21.8507   17.4708 C   0  0  0  0  0  0  0  0  0  1  0  0
  -29.4877  -21.6516   18.8556 C   0  0  0  0  0  0  0  0  0  0  0  0
  -31.0088  -20.3309   10.2885 C   0  0  1  0  0  0  0  0  0  0  0  0
  -29.5943  -16.8324   10.6483 C   0  0  2  0  0  0  0  0  0  0  0  0
  -32.0725  -19.9171   21.6322 C   0  0  0  0  0  0  0  0  0  0  0  0
  -30.5738  -21.2469    9.1099 C   0  0  0  0  0  0  0  0  0  0  0  0
  -25.8380  -11.5560   20.2851 N   0  0  0  0  0  0  0  0  0  0  0  0
  -26.1923  -12.8484   20.1831 N   0  0  0  0  0  0  0  0  0  0  0  0
  -32.9412  -20.7884   11.7650 N   0  0  0  0  0  0  0  0  0  0  0  0
  -29.9147  -13.6883   20.4001 N   0  0  0  0  0  0  0  0  0  0  0  0
  -25.3882  -15.0565   20.4803 N   0  0  0  0  0  0  0  0  0  0  0  0
  -21.8499  -12.4957   21.6286 N   0  0  0  0  0  0  0  0  0  0  0  0
  -35.9508  -22.8465   11.8189 N   0  0  0  0  0  0  0  0  0  0  0  0
  -30.6351  -18.9301   10.1259 N   0  0  0  0  0  0  0  0  0  0  0  0
  -30.0541  -15.7303   21.5853 N   0  0  0  0  0  0  0  0  0  0  0  0
  -28.9133  -18.1011   20.7329 N   0  3  0  0  0  0  0  0  0  0  0  0
  -29.4924  -15.9715   11.8605 N   0  3  0  0  0  0  0  0  0  0  0  0
  -22.5877  -14.6541   21.3923 O   0  0  0  0  0  0  0  0  0  0  0  0
  -33.6787  -23.2183   11.4700 O   0  0  0  0  0  0  0  0  0  0  0  0
  -33.2512  -19.9744    9.6023 O   0  0  0  0  0  0  0  0  0  0  0  0
  -29.3781  -18.7751   12.0684 O   0  0  0  0  0  0  0  0  0  0  0  0
  -31.7983  -15.0347   20.2697 O   0  0  0  0  0  0  0  0  0  0  0  0
  -21.6731   -6.9276   21.6191 O   0  0  0  0  0  0  0  0  0  0  0  0
  -31.4586  -22.1686   17.5917 O   0  0  0  0  0  0  0  0  0  1  0  0
  -30.1910  -20.6031   19.5108 O   0  0  0  0  0  0  0  0  0  0  0  0
  -18.6982   -6.6191   26.2515 F   0  0  0  0  0  0  0  0  0  0  0  0
  -22.1623   -4.9519   23.4900 F   0  0  0  0  0  0  0  0  0  0  0  0
  1  2  1  0  0  0  0
  1  5  2  0  0  0  0
  2  6  2  0  0  0  0
  3  8  2  0  0  0  0
  3 15  1  0  0  0  0
  4  9  1  0  0  0  0
  4 15  2  0  0  0  0
  5 17  1  0  0  0  0
  6 19  1  0  0  0  0
  7 10  2  0  0  0  0
  7 18  1  0  0  0  0
  8 21  1  0  0  0  0
  9 21  2  0  0  0  0
 10 22  1  0  0  0  0
 11 12  2  0  0  0  0
 11 23  1  0  0  0  0
 12 24  1  0  0  0  0
 13 20  1  0  0  0  0
 13 22  2  0  0  0  0
 14 24  2  0  0  0  0
 14 25  1  0  0  0  0
 15 26  1  0  0  0  0
 16 26  1  0  0  0  0
 16 27  2  0  0  0  0
 16 28  1  0  0  0  0
 17 19  2  0  0  0  0
 17 33  1  0  0  0  0
 18 20  2  0  0  0  0
 18 34  1  0  0  0  0
 19 43  1  0  0  0  0
 20 35  1  0  0  0  0
 21 79  1  0  0  0  0
 22 80  1  0  0  0  0
 23 25  2  0  0  0  0
 23 79  1  0  0  0  0
 24 82  1  0  0  0  0
 25 83  1  0  0  0  0
 26 63  2  0  0  0  0
 27 64  1  0  0  0  0
 27 67  1  0  0  0  0
 28 68  1  0  0  0  0
 28 74  2  0  0  0  0
 29 44  1  0  0  0  0
 29 69  1  0  0  0  0
 29 75  2  0  0  0  0
 30 59  1  0  0  0  0
 30 65  1  0  0  0  0
 30 76  2  0  0  0  0
 31 60  1  0  0  0  0
 31 70  1  0  0  0  0
 31 77  2  0  0  0  0
 32 66  1  0  0  0  0
 32 71  1  0  0  0  0
 32 78  2  0  0  0  0
 33 36  1  0  0  0  0
 34 44  1  0  0  0  0
 35 65  1  0  0  0  0
 36 38  1  0  0  0  0
 37 39  1  0  0  0  0
 37 40  1  0  0  0  0
 38 43  1  0  0  0  0
 39 46  1  0  0  0  0
 40 66  1  0  0  0  0
 41 46  1  0  0  0  0
 41 66  1  0  0  0  0
 42 47  1  0  0  0  0
 42 72  1  0  0  0  0
 43 69  1  0  0  0  0
 44 65  1  0  0  0  0
 45 47  1  0  0  0  0
 45 48  1  0  0  0  0
 45 61  1  0  0  0  0
 46 64  1  0  0  0  0
 47 81  1  0  0  0  0
 48 56  1  0  0  0  0
 48 72  1  0  0  0  0
 49 60  1  0  0  0  0
 50 61  1  0  0  0  0
 51 61  1  0  0  0  0
 52 62  1  0  0  0  0
 53 62  1  0  0  0  0
 54 62  1  0  0  0  0
 55 73  1  0  0  0  0
 56 71  1  0  0  0  0
 57 58  1  0  0  0  0
 57 80  1  0  0  0  0
 58 81  1  0  0  0  0
 59 62  1  0  0  0  0
 59 70  1  0  0  0  0
 60 73  1  0  0  0  0
 63 64  1  0  0  0  0
M  CHG  2  72   1  73   1
M  ISO  4  32 100  57 101  71 100  80 101
M  END
> <Batch ID>
0141

> <Smiles>
CNC(C)C(=O)NC(C(=O)N1Cc2cc([101O:1][101CH2:1]COC3CNC(C[100NH:0][100C:0](=O)N4CCCC(n5nc(-c6ccc(Oc7ccc(F)cc7F)cc6)c(C(N)=O)c5N)C4)C3C(C)C)ccc2CC1C(=O)NC1CCCc2ccccc21)C(C)(C)C

> <Shape>
0.201

> <Color>
0.191

> <Negative vol penalty>
0.000

$$$$

  -OEChem-04052321163D

 84 93  0     1  0  0  0  0  0999 V2000
  -35.9564  -34.0424   19.6968 C   0  0  0  0  0  0  0  0  0  0  0  0
  -35.6097  -32.8727   20.3654 C   0  0  0  0  0  0  0  0  0  0  0  0
  -23.0786   -9.8611   19.9433 C   0  0  0  0  0  0  0  0  0  0  0  0
  -23.8355   -9.8753   22.2376 C   0  0  0  0  0  0  0  0  0  0  0  0
  -35.1610  -34.5078   18.6505 C   0  0  0  0  0  0  0  0  0  0  0  0
  -34.4667  -32.1684   19.9889 C   0  0  0  0  0  0  0  0  0  0  0  0
  -33.6965  -26.0932   20.0573 C   0  0  0  0  0  0  0  0  0  0  0  0
  -22.3362   -8.7074   20.1954 C   0  0  0  0  0  0  0  0  0  0  0  0
  -23.0931   -8.7217   22.4897 C   0  0  0  0  0  0  0  0  0  0  0  0
  -33.0861  -25.2353   20.9711 C   0  0  0  0  0  0  0  0  0  0  0  0
  -21.1107   -5.9850   23.8310 C   0  0  0  0  0  0  0  0  0  0  0  0
  -20.3530   -5.9434   25.0014 C   0  0  0  0  0  0  0  0  0  0  0  0
  -31.1451  -17.6872   20.5822 C   0  0  0  0  0  0  0  0  0  0  0  0
  -31.0594  -25.2949   19.6641 C   0  0  0  0  0  0  0  0  0  0  0  0
  -29.6956  -19.2958   22.3412 C   0  0  0  0  0  0  0  0  0  0  0  0
  -19.1064   -7.8768   24.2631 C   0  0  0  0  0  0  0  0  0  0  0  0
  -23.8283  -10.4450   20.9644 C   0  0  0  0  0  0  0  0  0  0  0  0
  -24.1664  -12.9704   20.8381 C   0  0  0  0  0  0  0  0  0  0  0  0
  -34.0129  -33.8037   18.2547 C   0  0  0  0  0  0  0  0  0  0  0  0
  -32.9883  -26.5679   18.9439 C   0  0  0  0  0  0  0  0  0  0  0  0
  -33.6544  -32.6256   18.9373 C   0  0  0  0  0  0  0  0  0  0  0  0
  -31.3247  -19.0704   20.5714 C   0  0  0  0  0  0  0  0  0  0  0  0
  -31.6640  -26.1567   18.7362 C   0  0  0  0  0  0  0  0  0  0  0  0
  -29.5159  -17.9126   22.3520 C   0  0  0  0  0  0  0  0  0  0  0  0
  -30.2407  -17.1083   21.4725 C   0  0  0  0  0  0  0  0  0  0  0  0
  -22.3434   -8.1378   21.4686 C   0  0  0  0  0  0  0  0  0  0  0  0
  -31.7664  -24.8383   20.7762 C   0  0  0  0  0  0  0  0  0  0  0  0
  -20.8663   -6.9726   22.8767 C   0  0  0  0  0  0  0  0  0  0  0  0
  -30.6000  -19.8747   21.4509 C   0  0  0  0  0  0  0  0  0  0  0  0
  -19.3508   -6.8892   25.2174 C   0  0  0  0  0  0  0  0  0  0  0  0
  -19.8641   -7.9184   23.0927 C   0  0  0  0  0  0  0  0  0  0  0  0
  -24.5959  -11.6364   20.7045 C   0  0  0  0  0  0  0  0  0  0  0  0
  -25.2579  -13.7206   20.4743 C   0  0  0  0  0  0  0  0  0  0  0  0
  -22.8946  -13.4853   21.2541 C   0  0  0  0  0  0  0  0  0  0  0  0
  -32.0924  -29.4378   17.9121 C   0  0  0  0  0  0  0  0  0  0  0  0
  -31.1112  -27.7663   15.3110 C   0  0  0  0  0  0  0  0  0  0  0  0
  -30.1101  -24.7815   13.9936 C   0  0  0  0  0  0  0  0  0  0  0  0
  -30.7222  -14.7752   20.6533 C   0  0  0  0  0  0  0  0  0  0  0  0
  -33.1584  -34.3713   17.1492 C   0  0  0  0  0  0  0  0  0  0  0  0
  -33.6697  -27.4714   17.9531 C   0  0  0  0  0  0  0  0  0  0  0  0
  -30.8666  -26.6218   17.5461 C   0  0  0  0  0  0  0  0  0  0  0  0
  -32.1695  -33.3651   16.5661 C   0  0  0  0  0  0  0  0  0  0  0  0
  -29.6146  -12.3533   18.2900 C   0  0  0  0  0  0  0  0  0  0  0  0
  -31.8179  -20.7487   18.6703 C   0  0  0  0  0  0  0  0  0  0  0  0
  -32.1456  -19.3873   18.1416 C   0  0  0  0  0  0  0  0  0  0  0  0
  -31.4472  -32.6179   17.6827 C   0  0  0  0  0  0  0  0  0  0  0  0
  -28.1749  -12.0607   18.7185 C   0  0  0  0  0  0  0  0  0  0  0  0
  -30.5278  -12.5868   19.4922 C   0  0  0  0  0  0  0  0  0  0  0  0
  -28.6179  -13.3119   20.8691 C   0  0  0  0  0  0  0  0  0  0  0  0
  -32.2948  -19.6750   19.6121 C   0  0  0  0  0  0  0  0  0  0  0  0
  -32.4357  -31.8203   18.5419 C   0  0  1  0  0  0  0  0  0  0  0  0
  -32.6900  -28.3024   17.1302 C   0  0  1  0  0  0  0  0  0  0  0  0
  -27.6469  -13.1340   19.6905 C   0  0  2  0  0  0  0  0  0  0  0  0
  -28.5397  -17.3202   23.3158 C   0  0  0  0  0  0  0  0  0  0  0  0
  -29.3377  -23.7355   11.8473 C   0  0  0  0  0  0  0  0  0  0  0  0
  -28.3694  -29.0556   15.6723 C   0  0  0  0  0  0  0  0  0  0  0  0
  -27.4234  -27.3053   14.1524 C   0  0  0  0  0  0  0  0  0  0  0  0
  -29.1435  -28.8979   13.2995 C   0  0  0  0  0  0  0  0  0  0  0  0
  -32.4044  -22.9126   13.9436 C   0  0  0  0  0  0  0  0  0  0  0  0
  -32.0080  -23.0727   22.3510 C   0  0  0  0  0  0  0  0  0  1  0  0
  -31.2089  -21.8239   22.6697 C   0  0  0  0  0  0  0  0  0  0  0  0
  -29.8334  -27.0717   14.9061 C   0  0  1  0  0  0  0  0  0  0  0  0
  -30.5325  -24.0430   12.7364 C   0  0  2  0  0  0  0  0  0  0  0  0
  -28.7066  -28.0752   14.5312 C   0  0  0  0  0  0  0  0  0  0  0  0
  -25.8615  -11.5414   20.2881 N   0  0  0  0  0  0  0  0  0  0  0  0
  -26.2365  -12.8252   20.1569 N   0  0  0  0  0  0  0  0  0  0  0  0
  -31.5749  -27.5093   16.6090 N   0  0  0  0  0  0  0  0  0  0  0  0
  -29.9661  -13.6190   20.3661 N   0  0  0  0  0  0  0  0  0  0  0  0
  -25.4663  -15.0522   20.3980 N   0  0  0  0  0  0  0  0  0  0  0  0
  -21.8836  -12.5755   21.5924 N   0  0  0  0  0  0  0  0  0  0  0  0
  -30.0723  -15.7014   21.4684 N   0  0  0  0  0  0  0  0  0  0  0  0
  -32.8301  -30.6051   17.8621 N   0  0  0  0  0  0  0  0  0  0  0  0
  -30.1924  -26.1487   13.8349 N   0  0  0  0  0  0  0  0  0  0  0  0
  -31.1985  -22.7575   13.0898 N   0  3  0  0  0  0  0  0  0  0  0  0
  -22.6563  -14.7157   21.3078 O   0  0  0  0  0  0  0  0  0  0  0  0
  -31.0391  -29.2678   18.5150 O   0  0  0  0  0  0  0  0  0  0  0  0
  -31.6808  -28.5039   14.5029 O   0  0  0  0  0  0  0  0  0  0  0  0
  -29.7403  -24.2034   15.0132 O   0  0  0  0  0  0  0  0  0  0  0  0
  -31.8516  -14.9444   20.1867 O   0  0  0  0  0  0  0  0  0  0  0  0
  -21.6189   -7.0122   21.7149 O   0  0  0  0  0  0  0  0  0  0  0  0
  -31.1680  -24.0016   21.6670 O   0  0  0  0  0  0  0  0  0  1  0  0
  -30.7627  -21.2351   21.4542 O   0  0  0  0  0  0  0  0  0  0  0  0
  -18.6222   -6.8481   26.3406 F   0  0  0  0  0  0  0  0  0  0  0  0
  -19.6239   -8.8688   22.1790 F   0  0  0  0  0  0  0  0  0  0  0  0
  1  2  1  0  0  0  0
  1  5  2  0  0  0  0
  2  6  2  0  0  0  0
  3  8  2  0  0  0  0
  3 17  1  0  0  0  0
  4  9  1  0  0  0  0
  4 17  2  0  0  0  0
  5 19  1  0  0  0  0
  6 21  1  0  0  0  0
  7 10  2  0  0  0  0
  7 20  1  0  0  0  0
  8 26  1  0  0  0  0
  9 26  2  0  0  0  0
 10 27  1  0  0  0  0
 11 12  2  0  0  0  0
 11 28  1  0  0  0  0
 12 30  1  0  0  0  0
 13 22  1  0  0  0  0
 13 25  2  0  0  0  0
 14 23  1  0  0  0  0
 14 27  2  0  0  0  0
 15 24  2  0  0  0  0
 15 29  1  0  0  0  0
 16 30  2  0  0  0  0
 16 31  1  0  0  0  0
 17 32  1  0  0  0  0
 18 32  1  0  0  0  0
 18 33  2  0  0  0  0
 18 34  1  0  0  0  0
 19 21  2  0  0  0  0
 19 39  1  0  0  0  0
 20 23  2  0  0  0  0
 20 40  1  0  0  0  0
 21 51  1  0  0  0  0
 22 29  2  0  0  0  0
 22 50  1  0  0  0  0
 23 41  1  0  0  0  0
 24 25  1  0  0  0  0
 24 54  1  0  0  0  0
 25 71  1  0  0  0  0
 26 80  1  0  0  0  0
 27 81  1  0  0  0  0
 28 31  2  0  0  0  0
 28 80  1  0  0  0  0
 29 82  1  0  0  0  0
 30 83  1  0  0  0  0
 31 84  1  0  0  0  0
 32 65  2  0  0  0  0
 33 66  1  0  0  0  0
 33 69  1  0  0  0  0
 34 70  1  0  0  0  0
 34 75  2  0  0  0  0
 35 52  1  0  0  0  0
 35 72  1  0  0  0  0
 35 76  2  0  0  0  0
 36 62  1  0  0  0  0
 36 67  1  0  0  0  0
 36 77  2  0  0  0  0
 37 63  1  0  0  0  0
 37 73  1  0  0  0  0
 37 78  2  0  0  0  0
 38 68  1  0  0  0  0
 38 71  1  0  0  0  0
 38 79  2  0  0  0  0
 39 42  1  0  0  0  0
 40 52  1  0  0  0  0
 41 67  1  0  0  0  0
 42 46  1  0  0  0  0
 43 47  1  0  0  0  0
 43 48  1  0  0  0  0
 44 45  1  0  0  0  0
 44 50  1  0  0  0  0
 45 50  1  0  0  0  0
 46 51  1  0  0  0  0
 47 53  1  0  0  0  0
 48 68  1  0  0  0  0
 49 53  1  0  0  0  0
 49 68  1  0  0  0  0
 51 72  1  0  0  0  0
 52 67  1  0  0  0  0
 53 66  1  0  0  0  0
 55 63  1  0  0  0  0
 56 64  1  0  0  0  0
 57 64  1  0  0  0  0
 58 64  1  0  0  0  0
 59 74  1  0  0  0  0
 60 61  1  0  0  0  0
 60 81  1  0  0  0  0
 61 82  1  0  0  0  0
 62 64  1  0  0  0  0
 62 73  1  0  0  0  0
 63 74  1  0  0  0  0
 65 66  1  0  0  0  0
M  CHG  1  74   1
M  ISO  4  38 100  60 101  71 100  81 101
M  END
> <Batch ID>
0141

> <Smiles>
CNC(C)C(=O)NC(C(=O)N1Cc2cc([101O:1][101CH2:1]COc3cc(C)c([100NH:0][100C:0](=O)N4CCCC(n5nc(-c6ccc(Oc7ccc(F)cc7F)cc6)c(C(N)=O)c5N)C4)cc3C3CC3)ccc2CC1C(=O)NC1CCCc2ccccc21)C(C)(C)C

> <Shape>
0.194

> <Color>
0.196

> <Negative vol penalty>
0.000

$$$$

  -OEChem-04052321163D

 86 95  0     1  0  0  0  0  0999 V2000
  -27.3242  -33.3878   19.9776 C   0  0  0  0  0  0  0  0  0  0  0  0
  -28.0330  -32.3297   20.5375 C   0  0  0  0  0  0  0  0  0  0  0  0
  -23.1945   -9.8619   19.8720 C   0  0  0  0  0  0  0  0  0  0  0  0
  -23.7681   -9.8267   22.2187 C   0  0  0  0  0  0  0  0  0  0  0  0
  -25.9391  -33.3034   19.8424 C   0  0  0  0  0  0  0  0  0  0  0  0
  -27.3569  -31.1870   20.9636 C   0  0  0  0  0  0  0  0  0  0  0  0
  -29.3818  -25.4117   20.7362 C   0  0  0  0  0  0  0  0  0  0  0  0
  -22.4414   -8.6997   20.0386 C   0  0  0  0  0  0  0  0  0  0  0  0
  -23.0150   -8.6645   22.3853 C   0  0  0  0  0  0  0  0  0  0  0  0
  -29.9667  -24.5844   21.6939 C   0  0  0  0  0  0  0  0  0  0  0  0
  -31.6482  -16.8816   24.1661 C   0  0  0  0  0  0  0  0  0  0  0  0
  -31.1930  -18.1990   24.2179 C   0  0  0  0  0  0  0  0  0  0  0  0
  -20.9495   -5.8896   23.5040 C   0  0  0  0  0  0  0  0  0  0  0  0
  -20.1021   -5.8179   24.6096 C   0  0  0  0  0  0  0  0  0  0  0  0
  -27.8083  -23.6169   22.1677 C   0  0  0  0  0  0  0  0  0  0  0  0
  -31.5549  -16.9442   21.7527 C   0  0  0  0  0  0  0  0  0  0  0  0
  -18.9060   -7.7625   23.8189 C   0  0  0  0  0  0  0  0  0  0  0  0
  -23.8579  -10.4254   20.9620 C   0  0  0  0  0  0  0  0  0  0  0  0
  -24.1897  -12.9544   20.9197 C   0  0  0  0  0  0  0  0  0  0  0  0
  -25.2468  -32.1551   20.2582 C   0  0  0  0  0  0  0  0  0  0  0  0
  -28.0016  -25.3554   20.4943 C   0  0  0  0  0  0  0  0  0  0  0  0
  -25.9611  -31.0877   20.8351 C   0  0  0  0  0  0  0  0  0  0  0  0
  -27.2087  -24.4427   21.2045 C   0  0  0  0  0  0  0  0  0  0  0  0
  -31.0996  -18.2617   21.8045 C   0  0  0  0  0  0  0  0  0  0  0  0
  -22.3517   -8.1010   21.2953 C   0  0  0  0  0  0  0  0  0  0  0  0
  -29.1795  -23.6889   22.4119 C   0  0  0  0  0  0  0  0  0  0  0  0
  -31.8293  -16.2542   22.9334 C   0  0  0  0  0  0  0  0  0  0  0  0
  -30.9186  -18.8891   23.0371 C   0  0  0  0  0  0  0  0  0  0  0  0
  -20.7752   -6.8977   22.5558 C   0  0  0  0  0  0  0  0  0  0  0  0
  -19.0804   -6.7543   24.7671 C   0  0  0  0  0  0  0  0  0  0  0  0
  -19.7534   -7.8341   22.7133 C   0  0  0  0  0  0  0  0  0  0  0  0
  -24.6364  -11.6256   20.7904 C   0  0  0  0  0  0  0  0  0  0  0  0
  -25.3019  -13.7173   20.6602 C   0  0  0  0  0  0  0  0  0  0  0  0
  -22.8860  -13.4543   21.2455 C   0  0  0  0  0  0  0  0  0  0  0  0
  -25.5924  -27.4120   20.7580 C   0  0  0  0  0  0  0  0  0  0  0  0
  -23.9082  -25.0182   19.3596 C   0  0  0  0  0  0  0  0  0  0  0  0
  -23.6075  -21.6805   18.7148 C   0  0  0  0  0  0  0  0  0  0  0  0
  -31.1759  -12.6486   21.1132 C   0  0  0  0  0  0  0  0  0  0  0  0
  -23.7438  -32.1292   20.1351 C   0  0  0  0  0  0  0  0  0  0  0  0
  -27.3902  -26.2357   19.4390 C   0  0  0  0  0  0  0  0  0  0  0  0
  -25.7256  -24.3291   20.9682 C   0  0  0  0  0  0  0  0  0  0  0  0
  -23.1458  -30.7310   20.2677 C   0  0  0  0  0  0  0  0  0  0  0  0
  -29.4001  -13.6443   18.1922 C   0  0  0  0  0  0  0  0  0  0  0  0
  -29.4481  -19.5924   20.3294 C   0  0  0  0  0  0  0  0  0  0  0  0
  -29.8463  -18.3797   19.5475 C   0  0  0  0  0  0  0  0  0  0  0  0
  -23.7535  -30.0015   21.4616 C   0  0  0  0  0  0  0  0  0  0  0  0
  -27.9375  -13.3597   18.5386 C   0  0  0  0  0  0  0  0  0  0  0  0
  -30.3352  -12.5917   18.7837 C   0  0  0  0  0  0  0  0  0  0  0  0
  -28.7252  -12.0935   20.5819 C   0  0  0  0  0  0  0  0  0  0  0  0
  -30.8113  -18.9858   20.5318 C   0  0  0  0  0  0  0  0  0  0  0  0
  -25.2663  -29.8214   21.2865 C   0  0  1  0  0  0  0  0  0  0  0  0
  -25.8939  -26.4564   19.6384 C   0  0  1  0  0  0  0  0  0  0  0  0
  -27.7490  -13.1589   20.0543 C   0  0  2  0  0  0  0  0  0  0  0  0
  -22.1061  -20.0209   17.5794 C   0  0  0  0  0  0  0  0  0  0  0  0
  -21.9347  -25.2213   21.6778 C   0  0  0  0  0  0  0  0  0  0  0  0
  -21.0327  -22.9819   21.0148 C   0  0  0  0  0  0  0  0  0  0  0  0
  -20.8783  -24.9048   19.4332 C   0  0  0  0  0  0  0  0  0  0  0  0
  -25.7481  -20.8450   16.8497 C   0  0  0  0  0  0  0  0  0  0  0  0
  -31.8647  -12.6804   23.4972 C   0  0  0  0  0  0  0  0  0  0  0  0
  -31.9281  -14.1195   23.9770 C   0  0  0  0  0  0  0  0  0  0  0  0
  -31.1037  -22.4914   23.1326 C   0  0  0  0  0  0  0  0  0  1  0  0
  -31.3288  -21.1223   23.7445 C   0  0  0  0  0  0  0  0  0  0  0  0
  -23.1257  -23.8279   19.8596 C   0  0  1  0  0  0  0  0  0  0  0  0
  -23.3200  -20.9246   17.4300 C   0  0  2  0  0  0  0  0  0  0  0  0
  -21.7704  -24.2373   20.5024 C   0  0  0  0  0  0  0  0  0  0  0  0
  -25.9313  -11.5456   20.4732 N   0  0  0  0  0  0  0  0  0  0  0  0
  -26.3079  -12.8336   20.4009 N   0  0  0  0  0  0  0  0  0  0  0  0
  -25.1735  -25.2155   19.9304 N   0  0  0  0  0  0  0  0  0  0  0  0
  -30.1067  -12.4511   20.2238 N   0  0  0  0  0  0  0  0  0  0  0  0
  -25.5077  -15.0512   20.6306 N   0  0  0  0  0  0  0  0  0  0  0  0
  -21.8570  -12.5327   21.4824 N   0  0  0  0  0  0  0  0  0  0  0  0
  -25.5432  -28.7370   20.3690 N   0  0  0  0  0  0  0  0  0  0  0  0
  -22.9989  -22.9177   18.7266 N   0  0  0  0  0  0  0  0  0  0  0  0
  -30.8719  -12.5025   22.4611 N   0  0  0  0  0  0  0  0  0  0  0  0
  -24.4896  -20.0819   17.0521 N   0  3  0  0  0  0  0  0  0  0  0  0
  -22.6369  -14.6822   21.3079 O   0  0  0  0  0  0  0  0  0  0  0  0
  -25.4158  -26.9791   21.8908 O   0  0  0  0  0  0  0  0  0  0  0  0
  -23.4178  -25.7420   18.4894 O   0  0  0  0  0  0  0  0  0  0  0  0
  -24.2994  -21.2180   19.6191 O   0  0  0  0  0  0  0  0  0  0  0  0
  -32.3156  -12.9392   20.7343 O   0  0  0  0  0  0  0  0  0  0  0  0
  -21.6167   -6.9670   21.4583 O   0  0  0  0  0  0  0  0  0  0  0  0
  -32.2737  -14.9687   22.8838 O   0  0  0  0  0  0  0  0  0  0  0  0
  -29.7478  -22.8807   23.3477 O   0  0  0  0  0  0  0  0  0  1  0  0
  -30.4717  -20.1823   23.1080 O   0  0  0  0  0  0  0  0  0  0  0  0
  -18.2658   -6.6845   25.8281 F   0  0  0  0  0  0  0  0  0  0  0  0
  -19.5803   -8.8042   21.8051 F   0  0  0  0  0  0  0  0  0  0  0  0
  1  2  1  0  0  0  0
  1  5  2  0  0  0  0
  2  6  2  0  0  0  0
  3  8  2  0  0  0  0
  3 18  1  0  0  0  0
  4  9  1  0  0  0  0
  4 18  2  0  0  0  0
  5 20  1  0  0  0  0
  6 22  1  0  0  0  0
  7 10  2  0  0  0  0
  7 21  1  0  0  0  0
  8 25  1  0  0  0  0
  9 25  2  0  0  0  0
 10 26  1  0  0  0  0
 11 12  2  0  0  0  0
 11 27  1  0  0  0  0
 12 28  1  0  0  0  0
 13 14  2  0  0  0  0
 13 29  1  0  0  0  0
 14 30  1  0  0  0  0
 15 23  1  0  0  0  0
 15 26  2  0  0  0  0
 16 24  1  0  0  0  0
 16 27  2  0  0  0  0
 17 30  2  0  0  0  0
 17 31  1  0  0  0  0
 18 32  1  0  0  0  0
 19 32  1  0  0  0  0
 19 33  2  0  0  0  0
 19 34  1  0  0  0  0
 20 22  2  0  0  0  0
 20 39  1  0  0  0  0
 21 23  2  0  0  0  0
 21 40  1  0  0  0  0
 22 51  1  0  0  0  0
 23 41  1  0  0  0  0
 24 28  2  0  0  0  0
 24 50  1  0  0  0  0
 25 81  1  0  0  0  0
 26 83  1  0  0  0  0
 27 82  1  0  0  0  0
 28 84  1  0  0  0  0
 29 31  2  0  0  0  0
 29 81  1  0  0  0  0
 30 85  1  0  0  0  0
 31 86  1  0  0  0  0
 32 66  2  0  0  0  0
 33 67  1  0  0  0  0
 33 70  1  0  0  0  0
 34 71  1  0  0  0  0
 34 76  2  0  0  0  0
 35 52  1  0  0  0  0
 35 72  1  0  0  0  0
 35 77  2  0  0  0  0
 36 63  1  0  0  0  0
 36 68  1  0  0  0  0
 36 78  2  0  0  0  0
 37 64  1  0  0  0  0
 37 73  1  0  0  0  0
 37 79  2  0  0  0  0
 38 69  1  0  0  0  0
 38 74  1  0  0  0  0
 38 80  2  0  0  0  0
 39 42  1  0  0  0  0
 40 52  1  0  0  0  0
 41 68  1  0  0  0  0
 42 46  1  0  0  0  0
 43 47  1  0  0  0  0
 43 48  1  0  0  0  0
 44 45  1  0  0  0  0
 44 50  1  0  0  0  0
 45 50  1  0  0  0  0
 46 51  1  0  0  0  0
 47 53  1  0  0  0  0
 48 69  1  0  0  0  0
 49 53  1  0  0  0  0
 49 69  1  0  0  0  0
 51 72  1  0  0  0  0
 52 68  1  0  0  0  0
 53 67  1  0  0  0  0
 54 64  1  0  0  0  0
 55 65  1  0  0  0  0
 56 65  1  0  0  0  0
 57 65  1  0  0  0  0
 58 75  1  0  0  0  0
 59 60  1  0  0  0  0
 59 74  1  0  0  0  0
 60 82  1  0  0  0  0
 61 62  1  0  0  0  0
 61 83  1  0  0  0  0
 62 84  1  0  0  0  0
 63 65  1  0  0  0  0
 63 73  1  0  0  0  0
 64 75  1  0  0  0  0
 66 67  1  0  0  0  0
M  CHG  1  75   1
M  ISO  4  38 100  61 101  74 100  83 101
M  END
> <Batch ID>
0141

> <Smiles>
CNC(C)C(=O)NC(C(=O)N1Cc2cc([101O:1][101CH2:1]COc3ccc(OCC[100NH:0][100C:0](=O)N4CCCC(n5nc(-c6ccc(Oc7ccc(F)cc7F)cc6)c(C(N)=O)c5N)C4)cc3C3CC3)ccc2CC1C(=O)NC1CCCc2ccccc21)C(C)(C)C

> <Shape>
0.242

> <Color>
0.178

> <Negative vol penalty>
0.000

$$$$

  -OEChem-04052321163D

 86 95  0     1  0  0  0  0  0999 V2000
  -30.4692  -24.2381   16.6652 C   0  0  0  0  0  0  0  0  0  0  0  0
  -29.8055  -23.7610   17.7909 C   0  0  0  0  0  0  0  0  0  0  0  0
  -24.9133  -19.3556   27.2346 C   0  0  0  0  0  0  0  0  0  0  0  0
  -27.7964  -15.5880   19.0486 C   0  0  0  0  0  0  0  0  0  0  0  0
  -28.0948  -15.5694   21.4461 C   0  0  0  0  0  0  0  0  0  0  0  0
  -30.5290  -25.6096   16.4216 C   0  0  0  0  0  0  0  0  0  0  0  0
  -29.2019  -24.6553   18.6743 C   0  0  0  0  0  0  0  0  0  0  0  0
  -23.8202  -18.4861   27.2432 C   0  0  0  0  0  0  0  0  0  0  0  0
  -24.5643  -23.1757   20.0702 C   0  0  0  0  0  0  0  0  0  0  0  0
  -24.9310  -20.4757   26.3889 C   0  0  0  0  0  0  0  0  0  0  0  0
  -28.8028  -16.5466   18.9308 C   0  0  0  0  0  0  0  0  0  0  0  0
  -29.1012  -16.5280   21.3282 C   0  0  0  0  0  0  0  0  0  0  0  0
  -24.4794  -22.1747   21.0369 C   0  0  0  0  0  0  0  0  0  0  0  0
  -31.5007  -19.2334   21.6932 C   0  0  0  0  0  0  0  0  0  0  0  0
  -31.4825  -20.3056   22.5852 C   0  0  0  0  0  0  0  0  0  0  0  0
  -24.0509  -23.8468   22.7220 C   0  0  0  0  0  0  0  0  0  0  0  0
  -29.2993  -20.9452   21.7719 C   0  0  0  0  0  0  0  0  0  0  0  0
  -27.4424  -15.0995   20.3063 C   0  0  0  0  0  0  0  0  0  0  0  0
  -26.5531  -12.7103   20.3993 C   0  0  0  0  0  0  0  0  0  0  0  0
  -29.9176  -26.5206   17.2973 C   0  0  0  0  0  0  0  0  0  0  0  0
  -24.4037  -24.5229   20.4246 C   0  0  0  0  0  0  0  0  0  0  0  0
  -29.2547  -26.0403   18.4429 C   0  0  0  0  0  0  0  0  0  0  0  0
  -22.7629  -18.7489   26.3874 C   0  0  0  0  0  0  0  0  0  0  0  0
  -24.1317  -24.8628   21.7575 C   0  0  0  0  0  0  0  0  0  0  0  0
  -22.7819  -19.8688   25.5451 C   0  0  0  0  0  0  0  0  0  0  0  0
  -23.8557  -20.7431   25.5395 C   0  0  0  0  0  0  0  0  0  0  0  0
  -29.4552  -17.0166   20.0706 C   0  0  0  0  0  0  0  0  0  0  0  0
  -24.2255  -22.5103   22.3635 C   0  0  0  0  0  0  0  0  0  0  0  0
  -30.4182  -19.0172   20.8404 C   0  0  0  0  0  0  0  0  0  0  0  0
  -30.3818  -21.1615   22.6246 C   0  0  0  0  0  0  0  0  0  0  0  0
  -29.3175  -19.8730   20.8798 C   0  0  0  0  0  0  0  0  0  0  0  0
  -26.4025  -14.1097   20.4287 C   0  0  0  0  0  0  0  0  0  0  0  0
  -25.2779  -12.2243   20.5551 C   0  0  0  0  0  0  0  0  0  0  0  0
  -27.7396  -11.9203   20.2451 C   0  0  0  0  0  0  0  0  0  0  0  0
  -26.2489  -27.1085   20.3076 C   0  0  0  0  0  0  0  0  0  0  0  0
  -23.5381  -28.6092   21.2675 C   0  0  0  0  0  0  0  0  0  0  0  0
  -20.5072  -28.4021   22.8224 C   0  0  0  0  0  0  0  0  0  0  0  0
  -20.3291  -14.4871   23.0530 C   0  0  0  0  0  0  0  0  0  0  0  0
  -30.0493  -27.9967   17.0174 C   0  0  0  0  0  0  0  0  0  0  0  0
  -24.4717  -25.5887   19.3654 C   0  0  0  0  0  0  0  0  0  0  0  0
  -21.5124  -19.9684   24.7575 C   0  0  0  0  0  0  0  0  0  0  0  0
  -23.9313  -26.2926   22.1863 C   0  0  0  0  0  0  0  0  0  0  0  0
  -29.0626  -28.8562   17.8034 C   0  0  0  0  0  0  0  0  0  0  0  0
  -20.9746  -18.5338   24.8790 C   0  0  0  0  0  0  0  0  0  0  0  0
  -20.7089  -13.3561   19.6985 C   0  0  0  0  0  0  0  0  0  0  0  0
  -29.0332  -28.4311   19.2681 C   0  0  0  0  0  0  0  0  0  0  0  0
  -22.2247  -13.2947   19.5026 C   0  0  0  0  0  0  0  0  0  0  0  0
  -20.3007  -14.5369   20.5765 C   0  0  0  0  0  0  0  0  0  0  0  0
  -22.5019  -14.5436   21.6848 C   0  0  0  0  0  0  0  0  0  0  0  0
  -28.5664  -26.9775   19.4114 C   0  0  1  0  0  0  0  0  0  0  0  0
  -21.4717  -18.0058   26.2361 C   0  0  1  0  0  0  0  0  0  0  0  0
  -24.8023  -26.9684   19.9264 C   0  0  1  0  0  0  0  0  0  0  0  0
  -22.9667  -13.3366   20.8520 C   0  0  2  0  0  0  0  0  0  0  0  0
  -18.2437  -15.1236   27.4791 C   0  0  0  0  0  0  0  0  0  0  0  0
  -18.5343  -29.8033   23.4870 C   0  0  0  0  0  0  0  0  0  0  0  0
  -25.1573  -29.7946   23.5660 C   0  0  0  0  0  0  0  0  0  0  0  0
  -22.9993  -30.3773   24.6937 C   0  0  0  0  0  0  0  0  0  0  0  0
  -23.5621  -31.3876   22.4834 C   0  0  0  0  0  0  0  0  0  0  0  0
  -18.6593  -26.7962   21.1595 C   0  0  0  0  0  0  0  0  0  0  0  0
  -23.8802  -21.9505   24.6489 C   0  0  0  0  0  0  0  0  0  1  0  0
  -19.6283  -15.7575   27.4800 C   0  0  0  0  0  0  0  0  0  0  0  0
  -20.5203  -14.4250   25.5267 C   0  0  0  0  0  0  0  0  0  0  0  0
  -22.9176  -28.9458   22.6020 C   0  0  1  0  0  0  0  0  0  0  0  0
  -19.1316  -28.9011   22.4184 C   0  0  2  0  0  0  0  0  0  0  0  0
  -20.2748  -15.8232   26.0921 C   0  0  2  0  0  0  0  0  0  0  0  0
  -23.6648  -30.0994   23.3289 C   0  0  0  0  0  0  0  0  0  0  0  0
  -25.1318  -14.4882   20.5903 N   0  0  0  0  0  0  0  0  0  0  0  0
  -24.4724  -13.3195   20.6637 N   0  0  0  0  0  0  0  0  0  0  0  0
  -24.0136  -27.2991   21.1149 N   0  0  0  0  0  0  0  0  0  0  0  0
  -21.0392  -14.5173   21.8415 N   0  0  0  0  0  0  0  0  0  0  0  0
  -24.7784  -10.9714   20.6083 N   0  0  0  0  0  0  0  0  0  0  0  0
  -28.9671  -12.5803   20.0967 N   0  0  0  0  0  0  0  0  0  0  0  0
  -27.1292  -26.8914   19.2648 N   0  0  0  0  0  0  0  0  0  0  0  0
  -21.5085  -29.2181   22.3400 N   0  0  0  0  0  0  0  0  0  0  0  0
  -21.1056  -14.4636   24.2050 N   0  0  0  0  0  0  0  0  0  0  0  0
  -21.5802  -16.5302   26.1856 N   0  3  0  0  0  0  0  0  0  0  0  0
  -18.2068  -27.7527   22.2022 N   0  3  0  0  0  0  0  0  0  0  0  0
  -27.7101  -10.6665   20.2226 O   0  0  0  0  0  0  0  0  0  0  0  0
  -26.5446  -27.3940   21.4621 O   0  0  0  0  0  0  0  0  0  0  0  0
  -23.5922  -29.4748   20.3903 O   0  0  0  0  0  0  0  0  0  0  0  0
  -20.6763  -27.3917   23.5014 O   0  0  0  0  0  0  0  0  0  0  0  0
  -19.0945  -14.4760   23.1042 O   0  0  0  0  0  0  0  0  0  0  0  0
  -30.4375  -17.9518   19.9559 O   0  0  0  0  0  0  0  0  0  0  0  0
  -24.1427  -21.5353   23.3092 O   0  0  0  0  0  0  0  0  0  1  0  0
  -30.3638  -22.1901   23.4823 F   0  0  0  0  0  0  0  0  0  0  0  0
  -28.2741  -19.6696   20.0639 F   0  0  0  0  0  0  0  0  0  0  0  0
  1  2  1  0  0  0  0
  1  6  2  0  0  0  0
  2  7  2  0  0  0  0
  3  8  1  0  0  0  0
  3 10  2  0  0  0  0
  4 11  2  0  0  0  0
  4 18  1  0  0  0  0
  5 12  1  0  0  0  0
  5 18  2  0  0  0  0
  6 20  1  0  0  0  0
  7 22  1  0  0  0  0
  8 23  2  0  0  0  0
  9 13  2  0  0  0  0
  9 21  1  0  0  0  0
 10 26  1  0  0  0  0
 11 27  1  0  0  0  0
 12 27  2  0  0  0  0
 13 28  1  0  0  0  0
 14 15  2  0  0  0  0
 14 29  1  0  0  0  0
 15 30  1  0  0  0  0
 16 24  1  0  0  0  0
 16 28  2  0  0  0  0
 17 30  2  0  0  0  0
 17 31  1  0  0  0  0
 18 32  1  0  0  0  0
 19 32  1  0  0  0  0
 19 33  2  0  0  0  0
 19 34  1  0  0  0  0
 20 22  2  0  0  0  0
 20 39  1  0  0  0  0
 21 24  2  0  0  0  0
 21 40  1  0  0  0  0
 22 50  1  0  0  0  0
 23 25  1  0  0  0  0
 23 51  1  0  0  0  0
 24 42  1  0  0  0  0
 25 26  2  0  0  0  0
 25 41  1  0  0  0  0
 26 60  1  0  0  0  0
 27 83  1  0  0  0  0
 28 84  1  0  0  0  0
 29 31  2  0  0  0  0
 29 83  1  0  0  0  0
 30 85  1  0  0  0  0
 31 86  1  0  0  0  0
 32 67  2  0  0  0  0
 33 68  1  0  0  0  0
 33 71  1  0  0  0  0
 34 72  1  0  0  0  0
 34 78  2  0  0  0  0
 35 52  1  0  0  0  0
 35 73  1  0  0  0  0
 35 79  2  0  0  0  0
 36 63  1  0  0  0  0
 36 69  1  0  0  0  0
 36 80  2  0  0  0  0
 37 64  1  0  0  0  0
 37 74  1  0  0  0  0
 37 81  2  0  0  0  0
 38 70  1  0  0  0  0
 38 75  1  0  0  0  0
 38 82  2  0  0  0  0
 39 43  1  0  0  0  0
 40 52  1  0  0  0  0
 41 44  1  0  0  0  0
 42 69  1  0  0  0  0
 43 46  1  0  0  0  0
 44 51  1  0  0  0  0
 45 47  1  0  0  0  0
 45 48  1  0  0  0  0
 46 50  1  0  0  0  0
 47 53  1  0  0  0  0
 48 70  1  0  0  0  0
 49 53  1  0  0  0  0
 49 70  1  0  0  0  0
 50 73  1  0  0  0  0
 51 76  1  0  0  0  0
 52 69  1  0  0  0  0
 53 68  1  0  0  0  0
 54 61  1  0  0  0  0
 55 64  1  0  0  0  0
 56 66  1  0  0  0  0
 57 66  1  0  0  0  0
 58 66  1  0  0  0  0
 59 77  1  0  0  0  0
 60 84  1  0  0  0  0
 61 65  1  0  0  0  0
 62 65  1  0  0  0  0
 62 75  1  0  0  0  0
 63 66  1  0  0  0  0
 63 74  1  0  0  0  0
 64 77  1  0  0  0  0
 65 76  1  0  0  0  0
 67 68  1  0  0  0  0
M  CHG  2  76   1  77   1
M  ISO  4  38 100  60 101  75 100  84 101
M  END
> <Batch ID>
0141

> <Smiles>
CCC(C[100NH:0][100C:0](=O)N1CCCC(n2nc(-c3ccc(Oc4ccc(F)cc4F)cc3)c(C(N)=O)c2N)C1)NC1CCc2c1cccc2[101CH2:1][101O:1]c1ccc2c(c1)CN(C(=O)C(NC(=O)C(C)NC)C(C)(C)C)C(C(=O)NC1CCCc3ccccc31)C2

> <Shape>
0.237

> <Color>
0.058

> <Negative vol penalty>
0.000

$$$$

  -OEChem-04052321163D

 83 91  0     1  0  0  0  0  0999 V2000
  -16.9838  -28.9821   24.4006 C   0  0  0  0  0  0  0  0  0  0  0  0
  -17.4379  -27.9237   23.6202 C   0  0  0  0  0  0  0  0  0  0  0  0
  -24.9689  -13.8303   21.6718 C   0  0  0  0  0  0  0  0  0  0  0  0
  -26.7020  -13.5100   20.0193 C   0  0  0  0  0  0  0  0  0  0  0  0
  -17.5787  -30.2377   24.2845 C   0  0  0  0  0  0  0  0  0  0  0  0
  -18.4864  -28.1206   22.7223 C   0  0  0  0  0  0  0  0  0  0  0  0
  -22.8473  -24.0938   21.2146 C   0  0  0  0  0  0  0  0  0  0  0  0
  -24.2507  -12.7671   21.1248 C   0  0  0  0  0  0  0  0  0  0  0  0
  -25.9838  -12.4467   19.4722 C   0  0  0  0  0  0  0  0  0  0  0  0
  -22.9930  -23.2315   20.1287 C   0  0  0  0  0  0  0  0  0  0  0  0
  -24.3421   -9.3884   21.2205 C   0  0  0  0  0  0  0  0  0  0  0  0
  -23.7936   -8.4557   22.1007 C   0  0  0  0  0  0  0  0  0  0  0  0
  -24.3765  -24.8687   19.0220 C   0  0  0  0  0  0  0  0  0  0  0  0
  -31.5863  -20.4690   15.6948 C   0  0  0  0  0  0  0  0  0  0  0  0
  -29.6148  -21.7263   15.0872 C   0  0  0  0  0  0  0  0  0  0  0  0
  -21.5842   -8.9706   21.2697 C   0  0  0  0  0  0  0  0  0  0  0  0
  -26.1945  -14.2019   21.1190 C   0  0  0  0  0  0  0  0  0  0  0  0
  -27.9012  -15.2382   22.7067 C   0  0  0  0  0  0  0  0  0  0  0  0
  -18.6415  -30.4477   23.3917 C   0  0  0  0  0  0  0  0  0  0  0  0
  -23.4572  -25.3565   21.2076 C   0  0  0  0  0  0  0  0  0  0  0  0
  -19.0952  -29.3805   22.5931 C   0  0  0  0  0  0  0  0  0  0  0  0
  -24.2391  -25.7441   20.1101 C   0  0  0  0  0  0  0  0  0  0  0  0
  -30.8725  -21.2194   14.7604 C   0  0  0  0  0  0  0  0  0  0  0  0
  -31.0423  -20.2254   16.9559 C   0  0  0  0  0  0  0  0  0  0  0  0
  -29.7845  -20.7323   17.2827 C   0  0  0  0  0  0  0  0  0  0  0  0
  -24.7582  -12.0752   20.0250 C   0  0  0  0  0  0  0  0  0  0  0  0
  -23.7552  -23.6201   19.0310 C   0  0  0  0  0  0  0  0  0  0  0  0
  -23.5116  -10.1124   20.3649 C   0  0  0  0  0  0  0  0  0  0  0  0
  -29.0707  -21.4827   16.3483 C   0  0  0  0  0  0  0  0  0  0  0  0
  -22.4147   -8.2467   22.1253 C   0  0  0  0  0  0  0  0  0  0  0  0
  -22.1327   -9.9034   20.3895 C   0  0  0  0  0  0  0  0  0  0  0  0
  -26.9366  -15.3005   21.6833 C   0  0  0  0  0  0  0  0  0  0  0  0
  -28.3055  -16.5397   22.8772 C   0  0  0  0  0  0  0  0  0  0  0  0
  -28.3883  -14.1051   23.4378 C   0  0  0  0  0  0  0  0  0  0  0  0
  -22.4081  -28.3549   21.3180 C   0  0  0  0  0  0  0  0  0  0  0  0
  -25.5720  -29.0432   21.5128 C   0  0  0  0  0  0  0  0  0  0  0  0
  -28.7886  -28.0871   20.8912 C   0  0  0  0  0  0  0  0  0  0  0  0
  -28.3507  -21.3056   19.2731 C   0  0  0  0  0  0  0  0  0  0  0  0
  -19.2215  -31.8343   23.2669 C   0  0  0  0  0  0  0  0  0  0  0  0
  -23.3124  -26.2642   22.3982 C   0  0  0  0  0  0  0  0  0  0  0  0
  -24.9312  -27.0809   20.0622 C   0  0  0  0  0  0  0  0  0  0  0  0
  -20.5754  -31.8670   22.5623 C   0  0  0  0  0  0  0  0  0  0  0  0
  -26.7288  -21.0397   22.4316 C   0  0  0  0  0  0  0  0  0  0  0  0
  -20.5389  -31.0173   21.2961 C   0  0  0  0  0  0  0  0  0  0  0  0
  -26.6913  -19.5324   22.6941 C   0  0  0  0  0  0  0  0  0  0  0  0
  -26.5206  -21.3632   20.9531 C   0  0  0  0  0  0  0  0  0  0  0  0
  -27.3831  -19.1519   20.2933 C   0  0  0  0  0  0  0  0  0  0  0  0
  -20.2466  -29.5484   21.6256 C   0  0  1  0  0  0  0  0  0  0  0  0
  -23.5549  -27.7326   22.0631 C   0  0  1  0  0  0  0  0  0  0  0  0
  -27.6529  -18.7734   21.7588 C   0  0  2  0  0  0  0  0  0  0  0  0
  -31.4526  -21.4792   13.4113 C   0  0  0  0  0  0  0  0  0  0  0  0
  -31.8302  -19.4172   17.9354 C   0  0  0  0  0  0  0  0  0  0  0  0
  -31.1590  -28.8760   21.1285 C   0  0  0  0  0  0  0  0  0  0  0  0
  -25.1813  -30.9227   19.1411 C   0  0  0  0  0  0  0  0  0  0  0  0
  -27.6656  -30.9339   18.8300 C   0  0  0  0  0  0  0  0  0  0  0  0
  -26.6710  -31.8119   20.9425 C   0  0  0  0  0  0  0  0  0  0  0  0
  -29.4925  -25.8117   22.6478 C   0  0  0  0  0  0  0  0  0  0  0  0
  -25.4719  -21.5146   16.6492 C   0  0  0  0  0  0  0  0  0  0  0  0
  -25.1130  -22.8749   17.2262 C   0  0  0  0  0  0  0  0  0  1  0  0
  -26.7514  -21.5642   15.8289 C   0  0  0  0  0  0  0  0  0  0  0  0
  -26.6693  -29.3202   20.5137 C   0  0  1  0  0  0  0  0  0  0  0  0
  -30.0271  -28.0877   21.7690 C   0  0  2  0  0  0  0  0  0  0  0  0
  -26.5323  -30.7227   19.8566 C   0  0  0  0  0  0  0  0  0  0  0  0
  -26.7398  -16.5433   21.2352 N   0  0  0  0  0  0  0  0  0  0  0  0
  -27.5862  -17.2739   21.9807 N   0  0  0  0  0  0  0  0  0  0  0  0
  -24.7542  -27.9356   21.2478 N   0  0  0  0  0  0  0  0  0  0  0  0
  -27.4690  -20.6114   20.1284 N   0  0  0  0  0  0  0  0  0  0  0  0
  -29.2025  -17.1163   23.7051 N   0  0  0  0  0  0  0  0  0  0  0  0
  -27.8657  -12.8402   23.1360 N   0  0  0  0  0  0  0  0  0  0  0  0
  -29.2285  -20.4874   18.5628 N   0  0  0  0  0  0  0  0  0  0  0  0
  -21.4352  -28.8985   22.1350 N   0  0  0  0  0  0  0  0  0  0  0  0
  -27.9279  -29.1125   21.2216 N   0  0  0  0  0  0  0  0  0  0  0  0
  -30.4983  -26.6931   22.0009 N   0  3  0  0  0  0  0  0  0  0  0  0
  -29.2493  -14.2134   24.3437 O   0  0  0  0  0  0  0  0  0  0  0  0
  -22.4067  -28.3441   20.0926 O   0  0  0  0  0  0  0  0  0  0  0  0
  -25.4497  -29.7781   22.4959 O   0  0  0  0  0  0  0  0  0  0  0  0
  -28.6049  -27.2620   19.9990 O   0  0  0  0  0  0  0  0  0  0  0  0
  -28.3470  -22.5370   19.1982 O   0  0  0  0  0  0  0  0  0  0  0  0
  -24.0578  -11.0375   19.4911 O   0  0  0  0  0  0  0  0  0  0  0  0
  -23.8985  -22.7807   17.9695 O   0  0  0  0  0  0  0  0  0  1  0  0
  -27.8328  -21.9894   16.6472 O   0  0  0  0  0  0  0  0  0  0  0  0
  -21.8883   -7.3499   22.9695 F   0  0  0  0  0  0  0  0  0  0  0  0
  -21.3300  -10.5950   19.5691 F   0  0  0  0  0  0  0  0  0  0  0  0
  1  2  1  0  0  0  0
  1  5  2  0  0  0  0
  2  6  2  0  0  0  0
  3  8  2  0  0  0  0
  3 17  1  0  0  0  0
  4  9  1  0  0  0  0
  4 17  2  0  0  0  0
  5 19  1  0  0  0  0
  6 21  1  0  0  0  0
  7 10  2  0  0  0  0
  7 20  1  0  0  0  0
  8 26  1  0  0  0  0
  9 26  2  0  0  0  0
 10 27  1  0  0  0  0
 11 12  2  0  0  0  0
 11 28  1  0  0  0  0
 12 30  1  0  0  0  0
 13 22  1  0  0  0  0
 13 27  2  0  0  0  0
 14 23  1  0  0  0  0
 14 24  2  0  0  0  0
 15 23  2  0  0  0  0
 15 29  1  0  0  0  0
 16 30  2  0  0  0  0
 16 31  1  0  0  0  0
 17 32  1  0  0  0  0
 18 32  1  0  0  0  0
 18 33  2  0  0  0  0
 18 34  1  0  0  0  0
 19 21  2  0  0  0  0
 19 39  1  0  0  0  0
 20 22  2  0  0  0  0
 20 40  1  0  0  0  0
 21 48  1  0  0  0  0
 22 41  1  0  0  0  0
 23 51  1  0  0  0  0
 24 25  1  0  0  0  0
 24 52  1  0  0  0  0
 25 29  2  0  0  0  0
 25 70  1  0  0  0  0
 26 79  1  0  0  0  0
 27 80  1  0  0  0  0
 28 31  2  0  0  0  0
 28 79  1  0  0  0  0
 29 81  1  0  0  0  0
 30 82  1  0  0  0  0
 31 83  1  0  0  0  0
 32 64  2  0  0  0  0
 33 65  1  0  0  0  0
 33 68  1  0  0  0  0
 34 69  1  0  0  0  0
 34 74  2  0  0  0  0
 35 49  1  0  0  0  0
 35 71  1  0  0  0  0
 35 75  2  0  0  0  0
 36 61  1  0  0  0  0
 36 66  1  0  0  0  0
 36 76  2  0  0  0  0
 37 62  1  0  0  0  0
 37 72  1  0  0  0  0
 37 77  2  0  0  0  0
 38 67  1  0  0  0  0
 38 70  1  0  0  0  0
 38 78  2  0  0  0  0
 39 42  1  0  0  0  0
 40 49  1  0  0  0  0
 41 66  1  0  0  0  0
 42 44  1  0  0  0  0
 43 45  1  0  0  0  0
 43 46  1  0  0  0  0
 44 48  1  0  0  0  0
 45 50  1  0  0  0  0
 46 67  1  0  0  0  0
 47 50  1  0  0  0  0
 47 67  1  0  0  0  0
 48 71  1  0  0  0  0
 49 66  1  0  0  0  0
 50 65  1  0  0  0  0
 53 62  1  0  0  0  0
 54 63  1  0  0  0  0
 55 63  1  0  0  0  0
 56 63  1  0  0  0  0
 57 73  1  0  0  0  0
 58 59  1  0  0  0  0
 58 60  1  0  0  0  0
 59 80  1  0  0  0  0
 60 81  1  0  0  0  0
 61 63  1  0  0  0  0
 61 72  1  0  0  0  0
 62 73  1  0  0  0  0
 64 65  1  0  0  0  0
M  CHG  1  73   1
M  ISO  4  38 100  59 101  70 100  80 101
M  END
> <Batch ID>
0141

> <Smiles>
CNC(C)C(=O)NC(C(=O)N1Cc2cc([101O:1][101CH2:1]CCOc3cc(C)cc(C)c3[100NH:0][100C:0](=O)N3CCCC(n4nc(-c5ccc(Oc6ccc(F)cc6F)cc5)c(C(N)=O)c4N)C3)ccc2CC1C(=O)NC1CCCc2ccccc21)C(C)(C)C

> <Shape>
0.223

> <Color>
0.092

> <Negative vol penalty>
0.000

$$$$

  -OEChem-04052321163D

 89 99  0     1  0  0  0  0  0999 V2000
  -26.1287  -37.2008   27.5877 C   0  0  0  0  0  0  0  0  0  0  0  0
  -25.6639  -35.9301   27.9112 C   0  0  0  0  0  0  0  0  0  0  0  0
  -23.2314  -10.6872   22.0331 C   0  0  0  0  0  0  0  0  0  0  0  0
  -24.6679   -8.8630   21.3651 C   0  0  0  0  0  0  0  0  0  0  0  0
  -26.0325  -37.6640   26.2762 C   0  0  0  0  0  0  0  0  0  0  0  0
  -25.1014  -35.1223   26.9235 C   0  0  0  0  0  0  0  0  0  0  0  0
  -27.8699  -28.6470   25.4077 C   0  0  0  0  0  0  0  0  0  0  0  0
  -29.3168  -20.9100   20.3818 C   0  0  0  0  0  0  0  0  0  0  0  0
  -22.1510   -9.8084   22.1096 C   0  0  0  0  0  0  0  0  0  0  0  0
  -23.5874   -7.9842   21.4417 C   0  0  0  0  0  0  0  0  0  0  0  0
  -28.2124  -27.3100   25.2047 C   0  0  0  0  0  0  0  0  0  0  0  0
  -29.6330  -21.8880   21.3248 C   0  0  0  0  0  0  0  0  0  0  0  0
  -21.8777   -6.3454   23.8524 C   0  0  0  0  0  0  0  0  0  0  0  0
  -22.0846   -5.1199   24.4856 C   0  0  0  0  0  0  0  0  0  0  0  0
  -26.5539  -27.1399   23.4530 C   0  0  0  0  0  0  0  0  0  0  0  0
  -28.5304  -23.5542   19.9665 C   0  0  0  0  0  0  0  0  0  0  0  0
  -21.4948   -3.9666   22.4462 C   0  0  0  0  0  0  0  0  0  0  0  0
  -24.4899  -10.2145   21.6608 C   0  0  0  0  0  0  0  0  0  0  0  0
  -26.5071  -11.4540   22.6106 C   0  0  0  0  0  0  0  0  0  0  0  0
  -25.4774  -36.8578   25.2700 C   0  0  0  0  0  0  0  0  0  0  0  0
  -26.8776  -29.2406   24.6226 C   0  0  0  0  0  0  0  0  0  0  0  0
  -24.9965  -35.5757   25.5976 C   0  0  0  0  0  0  0  0  0  0  0  0
  -28.6074  -21.2542   19.2311 C   0  0  0  0  0  0  0  0  0  0  0  0
  -26.2153  -28.4823   23.6432 C   0  0  0  0  0  0  0  0  0  0  0  0
  -28.2142  -22.5763   19.0235 C   0  0  0  0  0  0  0  0  0  0  0  0
  -22.3289   -8.4569   21.8139 C   0  0  0  0  0  0  0  0  0  0  0  0
  -27.5558  -26.5583   24.2300 C   0  0  0  0  0  0  0  0  0  0  0  0
  -29.2398  -23.2101   21.1171 C   0  0  0  0  0  0  0  0  0  0  0  0
  -21.4792   -6.3815   22.5161 C   0  0  0  0  0  0  0  0  0  0  0  0
  -21.8932   -3.9305   23.7825 C   0  0  0  0  0  0  0  0  0  0  0  0
  -21.2878   -5.1921   21.8130 C   0  0  0  0  0  0  0  0  0  0  0  0
  -25.6063  -11.1219   21.5810 C   0  0  0  0  0  0  0  0  0  0  0  0
  -27.3749  -12.3480   22.0325 C   0  0  0  0  0  0  0  0  0  0  0  0
  -26.5552  -10.9954   23.9682 C   0  0  0  0  0  0  0  0  0  0  0  0
  -24.9111  -32.3347   23.8252 C   0  0  0  0  0  0  0  0  0  0  0  0
  -25.5827  -30.9916   21.1502 C   0  0  0  0  0  0  0  0  0  0  0  0
  -26.8863  -29.4296   18.4120 C   0  0  0  0  0  0  0  0  0  0  0  0
  -28.1297  -16.8857   19.0007 C   0  0  0  0  0  0  0  0  0  0  0  0
  -25.3515  -37.4201   23.8762 C   0  0  0  0  0  0  0  0  0  0  0  0
  -26.4335  -30.6604   24.8479 C   0  0  0  0  0  0  0  0  0  0  0  0
  -25.1303  -29.1530   22.8458 C   0  0  0  0  0  0  0  0  0  0  0  0
  -25.0843  -36.3579   22.8128 C   0  0  0  0  0  0  0  0  0  0  0  0
  -23.8620  -23.9956   18.3919 C   0  0  0  0  0  0  0  0  0  0  0  0
  -23.7439  -23.1823   17.1017 C   0  0  0  0  0  0  0  0  0  0  0  0
  -28.0434  -13.6600   17.2117 C   0  0  0  0  0  0  0  0  0  0  0  0
  -23.9867  -35.4046   23.2745 C   0  0  0  0  0  0  0  0  0  0  0  0
  -25.3530  -24.0823   18.7035 C   0  0  0  0  0  0  0  0  0  0  0  0
  -25.1705  -22.8348   16.6894 C   0  0  0  0  0  0  0  0  0  0  0  0
  -27.4215  -12.7540   18.2703 C   0  0  0  0  0  0  0  0  0  0  0  0
  -29.1895  -19.9899   17.0550 C   0  0  0  0  0  0  0  0  0  0  0  0
  -27.4978  -15.0855   17.2845 C   0  0  0  0  0  0  0  0  0  0  0  0
  -27.0025  -14.7954   19.6959 C   0  0  0  0  0  0  0  0  0  0  0  0
  -28.2798  -20.1908   18.2361 C   0  0  1  0  0  0  0  0  0  0  0  0
  -24.4027  -34.6603   24.5490 C   0  0  1  0  0  0  0  0  0  0  0  0
  -26.0369  -31.3823   23.5476 C   0  0  1  0  0  0  0  0  0  0  0  0
  -25.9504  -22.8677   17.9999 C   0  0  0  0  0  0  0  0  0  0  0  0
  -27.5749  -13.3699   19.6694 C   0  0  1  0  0  0  0  0  0  0  0  0
  -29.1654  -18.9698   18.1546 C   0  0  1  0  0  0  0  0  0  0  0  0
  -26.9277  -29.5552   15.9060 C   0  0  0  0  0  0  0  0  0  0  0  0
  -22.7633  -29.8319   21.0492 C   0  0  0  0  0  0  0  0  0  0  0  0
  -23.2217  -29.1083   18.6967 C   0  0  0  0  0  0  0  0  0  0  0  0
  -23.2560  -31.5326   19.2831 C   0  0  0  0  0  0  0  0  0  0  0  0
  -29.8199  -29.8175   18.3641 C   0  0  0  0  0  0  0  0  0  0  0  0
  -27.4524  -22.9700   17.8004 C   0  0  0  0  0  0  0  0  0  0  0  0
  -29.2509  -24.8914   24.3074 C   0  0  0  0  0  0  0  0  0  1  0  0
  -29.6492  -23.7453   23.3979 C   0  0  0  0  0  0  0  0  0  0  0  0
  -25.1414  -30.0413   20.0660 C   0  0  1  0  0  0  0  0  0  0  0  0
  -27.6173  -29.9703   17.1964 C   0  0  2  0  0  0  0  0  0  0  0  0
  -23.6125  -30.1200   19.7950 C   0  0  0  0  0  0  0  0  0  0  0  0
  -25.8767  -11.7536   20.4357 N   0  0  0  0  0  0  0  0  0  0  0  0
  -26.9572  -12.4917   20.7421 N   0  0  0  0  0  0  0  0  0  0  0  0
  -25.5526  -30.5097   22.4645 N   0  0  0  0  0  0  0  0  0  0  0  0
  -27.5956  -15.6335   18.6466 N   0  0  0  0  0  0  0  0  0  0  0  0
  -28.4469  -13.0173   22.5071 N   0  0  0  0  0  0  0  0  0  0  0  0
  -25.5875  -10.0770   24.3978 N   0  0  0  0  0  0  0  0  0  0  0  0
  -25.3231  -33.5896   24.2315 N   0  0  0  0  0  0  0  0  0  0  0  0
  -25.9705  -30.3363   18.9024 N   0  0  0  0  0  0  0  0  0  0  0  0
  -28.5979  -17.6641   17.9482 N   0  0  0  0  0  0  0  0  0  0  0  0
  -29.0177  -29.4617   17.1654 N   0  3  0  0  0  0  0  0  0  0  0  0
  -27.4205  -11.4008   24.7809 O   0  0  0  0  0  0  0  0  0  0  0  0
  -23.7533  -31.9603   23.6803 O   0  0  0  0  0  0  0  0  0  0  0  0
  -25.9393  -32.1327   20.8436 O   0  0  0  0  0  0  0  0  0  0  0  0
  -27.1032  -28.3130   18.8776 O   0  0  0  0  0  0  0  0  0  0  0  0
  -28.1815  -17.2856   20.1690 O   0  0  0  0  0  0  0  0  0  0  0  0
  -21.2749   -7.5990   21.8887 O   0  0  0  0  0  0  0  0  0  0  0  0
  -27.8982  -25.2548   24.0341 O   0  0  0  0  0  0  0  0  0  1  0  0
  -29.5495  -24.1703   22.0441 O   0  0  0  0  0  0  0  0  0  0  0  0
  -22.0935   -2.7537   24.3902 F   0  0  0  0  0  0  0  0  0  0  0  0
  -20.9062   -5.2205   20.5288 F   0  0  0  0  0  0  0  0  0  0  0  0
  1  2  1  0  0  0  0
  1  5  2  0  0  0  0
  2  6  2  0  0  0  0
  3  9  2  0  0  0  0
  3 18  1  0  0  0  0
  4 10  1  0  0  0  0
  4 18  2  0  0  0  0
  5 20  1  0  0  0  0
  6 22  1  0  0  0  0
  7 11  2  0  0  0  0
  7 21  1  0  0  0  0
  8 12  2  0  0  0  0
  8 23  1  0  0  0  0
  9 26  1  0  0  0  0
 10 26  2  0  0  0  0
 11 27  1  0  0  0  0
 12 28  1  0  0  0  0
 13 14  2  0  0  0  0
 13 29  1  0  0  0  0
 14 30  1  0  0  0  0
 15 24  1  0  0  0  0
 15 27  2  0  0  0  0
 16 25  1  0  0  0  0
 16 28  2  0  0  0  0
 17 30  2  0  0  0  0
 17 31  1  0  0  0  0
 18 32  1  0  0  0  0
 19 32  1  0  0  0  0
 19 33  2  0  0  0  0
 19 34  1  0  0  0  0
 20 22  2  0  0  0  0
 20 39  1  0  0  0  0
 21 24  2  0  0  0  0
 21 40  1  0  0  0  0
 22 54  1  0  0  0  0
 23 25  2  0  0  0  0
 23 53  1  0  0  0  0
 24 41  1  0  0  0  0
 25 64  1  0  0  0  0
 26 85  1  0  0  0  0
 27 86  1  0  0  0  0
 28 87  1  0  0  0  0
 29 31  2  0  0  0  0
 29 85  1  0  0  0  0
 30 88  1  0  0  0  0
 31 89  1  0  0  0  0
 32 70  2  0  0  0  0
 33 71  1  0  0  0  0
 33 74  1  0  0  0  0
 34 75  1  0  0  0  0
 34 80  2  0  0  0  0
 35 55  1  0  0  0  0
 35 76  1  0  0  0  0
 35 81  2  0  0  0  0
 36 67  1  0  0  0  0
 36 72  1  0  0  0  0
 36 82  2  0  0  0  0
 37 68  1  0  0  0  0
 37 77  1  0  0  0  0
 37 83  2  0  0  0  0
 38 73  1  0  0  0  0
 38 78  1  0  0  0  0
 38 84  2  0  0  0  0
 39 42  1  0  0  0  0
 40 55  1  0  0  0  0
 41 72  1  0  0  0  0
 42 46  1  0  0  0  0
 43 44  1  0  0  0  0
 43 47  1  0  0  0  0
 44 48  1  0  0  0  0
 45 49  1  0  0  0  0
 45 51  1  0  0  0  0
 46 54  1  0  0  0  0
 47 56  1  0  0  0  0
 48 56  1  0  0  0  0
 49 57  1  0  0  0  0
 50 53  1  0  0  0  0
 50 58  1  0  0  0  0
 51 73  1  0  0  0  0
 52 57  1  0  0  0  0
 52 73  1  0  0  0  0
 53 58  1  0  0  0  0
 54 76  1  0  0  0  0
 55 72  1  0  0  0  0
 56 64  1  0  0  0  0
 57 71  1  0  0  0  0
 58 78  1  0  0  0  0
 59 68  1  0  0  0  0
 60 69  1  0  0  0  0
 61 69  1  0  0  0  0
 62 69  1  0  0  0  0
 63 79  1  0  0  0  0
 65 66  1  0  0  0  0
 65 86  1  0  0  0  0
 66 87  1  0  0  0  0
 67 69  1  0  0  0  0
 67 77  1  0  0  0  0
 68 79  1  0  0  0  0
 70 71  1  0  0  0  0
M  CHG  1  79   1
M  ISO  4  38 100  65 101  78 100  86 101
M  END
> <Batch ID>
0141

> <Smiles>
CNC(C)C(=O)NC(C(=O)N1Cc2cc([101O:1][101CH2:1]COc3ccc(C4CC4[100NH:0][100C:0](=O)N4CCCC(n5nc(-c6ccc(Oc7ccc(F)cc7F)cc6)c(C(N)=O)c5N)C4)c(CC4CCCC4)c3)ccc2CC1C(=O)NC1CCCc2ccccc21)C(C)(C)C

> <Shape>
0.286

> <Color>
0.093

> <Negative vol penalty>
0.000

$$$$

  -OEChem-04052321163D

 88 97  0     1  0  0  0  0  0999 V2000
  -16.8002  -29.0273   24.3308 C   0  0  0  0  0  0  0  0  0  0  0  0
  -17.3870  -28.1069   23.4683 C   0  0  0  0  0  0  0  0  0  0  0  0
  -23.0249  -11.4147   21.0747 C   0  0  0  0  0  0  0  0  0  0  0  0
  -22.7656  -12.7231   19.0603 C   0  0  0  0  0  0  0  0  0  0  0  0
  -17.2926  -30.3300   24.3982 C   0  0  0  0  0  0  0  0  0  0  0  0
  -18.4659  -28.4891   22.6718 C   0  0  0  0  0  0  0  0  0  0  0  0
  -22.1855  -25.0525   22.6604 C   0  0  0  0  0  0  0  0  0  0  0  0
  -25.8708  -21.5143   19.3128 C   0  0  0  0  0  0  0  0  0  0  0  0
  -21.6516  -11.4964   21.3046 C   0  0  0  0  0  0  0  0  0  0  0  0
  -21.3922  -12.8048   19.2902 C   0  0  0  0  0  0  0  0  0  0  0  0
  -22.0062  -23.9229   21.8631 C   0  0  0  0  0  0  0  0  0  0  0  0
  -24.7445  -22.0524   19.9352 C   0  0  0  0  0  0  0  0  0  0  0  0
  -18.8414  -10.0046   20.1601 C   0  0  0  0  0  0  0  0  0  0  0  0
  -18.1759   -8.8368   20.5328 C   0  0  0  0  0  0  0  0  0  0  0  0
  -23.4106  -24.9056   20.1656 C   0  0  0  0  0  0  0  0  0  0  0  0
  -23.5036  -21.8401   17.8733 C   0  0  0  0  0  0  0  0  0  0  0  0
  -17.4968   -9.8840   22.6015 C   0  0  0  0  0  0  0  0  0  0  0  0
  -23.5820  -12.0281   19.9526 C   0  0  0  0  0  0  0  0  0  0  0  0
  -25.6832  -10.9541   18.9835 C   0  0  0  0  0  0  0  0  0  0  0  0
  -18.3842  -30.7256   23.6093 C   0  0  0  0  0  0  0  0  0  0  0  0
  -22.9711  -26.1236   22.2109 C   0  0  0  0  0  0  0  0  0  0  0  0
  -18.9725  -29.7986   22.7278 C   0  0  0  0  0  0  0  0  0  0  0  0
  -25.8135  -21.1390   17.9706 C   0  0  0  0  0  0  0  0  0  0  0  0
  -23.6003  -26.0465   20.9602 C   0  0  0  0  0  0  0  0  0  0  0  0
  -24.6299  -21.3020   17.2508 C   0  0  0  0  0  0  0  0  0  0  0  0
  -20.8353  -12.1914   20.4124 C   0  0  0  0  0  0  0  0  0  0  0  0
  -22.6165  -23.8505   20.6143 C   0  0  0  0  0  0  0  0  0  0  0  0
  -23.5608  -22.2154   19.2154 C   0  0  0  0  0  0  0  0  0  1  0  0
  -18.8346  -11.1121   21.0081 C   0  0  0  0  0  0  0  0  0  0  0  0
  -17.5036   -8.7764   21.7535 C   0  0  0  0  0  0  0  0  0  0  0  0
  -18.1623  -11.0518   22.2287 C   0  0  0  0  0  0  0  0  0  0  0  0
  -25.0006  -11.9446   19.7149 C   0  0  0  0  0  0  0  0  0  0  0  0
  -27.0039  -11.3247   19.0531 C   0  0  0  0  0  0  0  0  0  0  0  0
  -25.1693   -9.8021   18.3019 C   0  0  0  0  0  0  0  0  0  0  0  0
  -22.4292  -29.1900   21.5730 C   0  0  0  0  0  0  0  0  0  0  0  0
  -25.6464  -29.2713   21.1661 C   0  0  0  0  0  0  0  0  0  0  0  0
  -28.5208  -27.5739   20.4567 C   0  0  0  0  0  0  0  0  0  0  0  0
  -29.7213  -16.5917   19.9054 C   0  0  0  0  0  0  0  0  0  0  0  0
  -18.8512  -32.1578   23.6819 C   0  0  0  0  0  0  0  0  0  0  0  0
  -23.1763  -27.3236   23.0943 C   0  0  0  0  0  0  0  0  0  0  0  0
  -24.4701  -27.1607   20.4402 C   0  0  0  0  0  0  0  0  0  0  0  0
  -20.2364  -32.3781   23.0793 C   0  0  0  0  0  0  0  0  0  0  0  0
  -30.0980  -13.6458   21.8692 C   0  0  0  0  0  0  0  0  0  0  0  0
  -20.3462  -31.6839   21.7255 C   0  0  0  0  0  0  0  0  0  0  0  0
  -28.8959  -12.7864   21.4737 C   0  0  0  0  0  0  0  0  0  0  0  0
  -29.7427  -15.1305   21.9056 C   0  0  0  0  0  0  0  0  0  0  0  0
  -27.9268  -14.7915   20.2742 C   0  0  0  0  0  0  0  0  0  0  0  0
  -20.1603  -30.1683   21.8660 C   0  0  1  0  0  0  0  0  0  0  0  0
  -27.0321  -20.5652   17.3255 C   0  0  1  0  0  0  0  0  0  0  0  0
  -23.5790  -28.5743   22.3191 C   0  0  1  0  0  0  0  0  0  0  0  0
  -28.2674  -21.4721   17.4564 C   0  0  1  0  0  0  0  0  0  0  0  0
  -29.4236  -20.4725   17.3130 C   0  0  2  0  0  0  0  0  0  0  0  0
  -28.2505  -13.2913   20.1693 C   0  0  2  0  0  0  0  0  0  0  0  0
  -28.9590  -19.3109   18.1936 C   0  0  2  0  0  0  0  0  0  0  0  0
  -24.5446  -20.9080   15.8128 C   0  0  0  0  0  0  0  0  0  0  0  0
  -30.7718  -21.0329   17.7471 C   0  0  0  0  0  0  0  0  0  0  0  0
  -30.9888  -27.9170   20.1591 C   0  0  0  0  0  0  0  0  0  0  0  0
  -27.8513  -22.0467   15.0480 C   0  0  0  0  0  0  0  0  0  0  0  0
  -27.4013  -23.7465   16.8401 C   0  0  0  0  0  0  0  0  0  0  0  0
  -25.1421  -30.4966   18.4176 C   0  0  0  0  0  0  0  0  0  0  0  0
  -27.5063  -29.9381   17.8119 C   0  0  0  0  0  0  0  0  0  0  0  0
  -27.0406  -31.5200   19.6836 C   0  0  0  0  0  0  0  0  0  0  0  0
  -29.1621  -25.7509   22.6983 C   0  0  0  0  0  0  0  0  0  0  0  0
  -29.5737  -17.9679   17.8455 C   0  0  0  0  0  0  0  0  0  0  0  0
  -26.5826  -29.0541   20.0019 C   0  0  1  0  0  0  0  0  0  0  0  0
  -29.8783  -27.5635   21.1361 C   0  0  2  0  0  0  0  0  0  0  0  0
  -28.2908  -22.5809   16.4104 C   0  0  0  0  0  0  0  0  0  0  0  0
  -26.5500  -30.2318   18.9874 C   0  0  0  0  0  0  0  0  0  0  0  0
  -25.8201  -12.8744   20.2128 N   0  0  0  0  0  0  0  0  0  0  0  0
  -27.0311  -12.4698   19.7935 N   0  0  0  0  0  0  0  0  0  0  0  0
  -24.6350  -28.3157   21.3382 N   0  0  0  0  0  0  0  0  0  0  0  0
  -29.1363  -15.5460   20.6385 N   0  0  0  0  0  0  0  0  0  0  0  0
  -28.1329  -10.7795   18.5528 N   0  0  0  0  0  0  0  0  0  0  0  0
  -23.7873   -9.5704   18.3301 N   0  0  0  0  0  0  0  0  0  0  0  0
  -21.3677  -29.5564   22.3782 N   0  0  0  0  0  0  0  0  0  0  0  0
  -27.8982  -28.7981   20.5783 N   0  0  0  0  0  0  0  0  0  0  0  0
  -29.0872  -16.9183   18.7129 N   0  0  0  0  0  0  0  0  0  0  0  0
  -27.4694  -19.2600   17.9641 N   0  3  0  0  0  0  0  0  0  0  0  0
  -30.1632  -26.2153   21.7037 N   0  3  0  0  0  0  0  0  0  0  0  0
  -25.9153   -8.9931   17.6999 O   0  0  0  0  0  0  0  0  0  0  0  0
  -22.5006  -29.3242   20.3570 O   0  0  0  0  0  0  0  0  0  0  0  0
  -25.8109  -30.2490   21.9001 O   0  0  0  0  0  0  0  0  0  0  0  0
  -28.0606  -26.5951   19.8731 O   0  0  0  0  0  0  0  0  0  0  0  0
  -30.7366  -17.1863   20.2828 O   0  0  0  0  0  0  0  0  0  0  0  0
  -19.4951  -12.2711   20.6363 O   0  0  0  0  0  0  0  0  0  0  0  0
  -22.4426  -22.7494   19.8338 O   0  0  0  0  0  0  0  0  0  1  0  0
  -16.8633   -7.6554   22.1106 F   0  0  0  0  0  0  0  0  0  0  0  0
  -18.1513  -12.1130   23.0470 F   0  0  0  0  0  0  0  0  0  0  0  0
  1  2  1  0  0  0  0
  1  5  2  0  0  0  0
  2  6  2  0  0  0  0
  3  9  2  0  0  0  0
  3 18  1  0  0  0  0
  4 10  1  0  0  0  0
  4 18  2  0  0  0  0
  5 20  1  0  0  0  0
  6 22  1  0  0  0  0
  7 11  2  0  0  0  0
  7 21  1  0  0  0  0
  8 12  2  0  0  0  0
  8 23  1  0  0  0  0
  9 26  1  0  0  0  0
 10 26  2  0  0  0  0
 11 27  1  0  0  0  0
 12 28  1  0  0  0  0
 13 14  2  0  0  0  0
 13 29  1  0  0  0  0
 14 30  1  0  0  0  0
 15 24  1  0  0  0  0
 15 27  2  0  0  0  0
 16 25  1  0  0  0  0
 16 28  2  0  0  0  0
 17 30  2  0  0  0  0
 17 31  1  0  0  0  0
 18 32  1  0  0  0  0
 19 32  1  0  0  0  0
 19 33  2  0  0  0  0
 19 34  1  0  0  0  0
 20 22  2  0  0  0  0
 20 39  1  0  0  0  0
 21 24  2  0  0  0  0
 21 40  1  0  0  0  0
 22 48  1  0  0  0  0
 23 25  2  0  0  0  0
 23 49  1  0  0  0  0
 24 41  1  0  0  0  0
 25 55  1  0  0  0  0
 26 85  1  0  0  0  0
 27 86  1  0  0  0  0
 28 86  1  0  0  0  0
 29 31  2  0  0  0  0
 29 85  1  0  0  0  0
 30 87  1  0  0  0  0
 31 88  1  0  0  0  0
 32 69  2  0  0  0  0
 33 70  1  0  0  0  0
 33 73  1  0  0  0  0
 34 74  1  0  0  0  0
 34 80  2  0  0  0  0
 35 50  1  0  0  0  0
 35 75  1  0  0  0  0
 35 81  2  0  0  0  0
 36 65  1  0  0  0  0
 36 71  1  0  0  0  0
 36 82  2  0  0  0  0
 37 66  1  0  0  0  0
 37 76  1  0  0  0  0
 37 83  2  0  0  0  0
 38 72  1  0  0  0  0
 38 77  1  0  0  0  0
 38 84  2  0  0  0  0
 39 42  1  0  0  0  0
 40 50  1  0  0  0  0
 41 71  1  0  0  0  0
 42 44  1  0  0  0  0
 43 45  1  0  0  0  0
 43 46  1  0  0  0  0
 44 48  1  0  0  0  0
 45 53  1  0  0  0  0
 46 72  1  0  0  0  0
 47 53  1  0  0  0  0
 47 72  1  0  0  0  0
 48 75  1  0  0  0  0
 49 51  1  0  0  0  0
 49 78  1  0  0  0  0
 50 71  1  0  0  0  0
 51 52  1  0  0  0  0
 51 67  1  0  0  0  0
 52 54  1  0  0  0  0
 52 56  1  0  0  0  0
 53 70  1  0  0  0  0
 54 64  1  0  0  0  0
 54 78  1  0  0  0  0
 57 66  1  0  0  0  0
 58 67  1  0  0  0  0
 59 67  1  0  0  0  0
 60 68  1  0  0  0  0
 61 68  1  0  0  0  0
 62 68  1  0  0  0  0
 63 79  1  0  0  0  0
 64 77  1  0  0  0  0
 65 68  1  0  0  0  0
 65 76  1  0  0  0  0
 66 79  1  0  0  0  0
 69 70  1  0  0  0  0
M  CHG  2  78   1  79   1
M  ISO  4  28 101  38 100  77 100  86 101
M  END
> <Batch ID>
0141

> <Smiles>
CNC(C)C(=O)NC(C(=O)N1Cc2cc([101O:1][101c:1]3ccc(C4NC(C[100NH:0][100C:0](=O)N5CCCC(n6nc(-c7ccc(Oc8ccc(F)cc8F)cc7)c(C(N)=O)c6N)C5)C(C)C4C(C)C)c(C)c3)ccc2CC1C(=O)NC1CCCc2ccccc21)C(C)(C)C

> <Shape>
0.214

> <Color>
0.068

> <Negative vol penalty>
0.000

$$$$

  -OEChem-04052321163D

 83 91  0     1  0  0  0  0  0999 V2000
  -15.4340  -27.1715   25.6353 C   0  0  0  0  0  0  0  0  0  0  0  0
  -16.0425  -26.0484   25.0841 C   0  0  0  0  0  0  0  0  0  0  0  0
  -22.4276  -10.2950   20.0971 C   0  0  0  0  0  0  0  0  0  0  0  0
  -24.3096   -9.5523   21.4175 C   0  0  0  0  0  0  0  0  0  0  0  0
  -15.8213  -28.4458   25.2230 C   0  0  0  0  0  0  0  0  0  0  0  0
  -17.0380  -26.1990   24.1194 C   0  0  0  0  0  0  0  0  0  0  0  0
  -21.9673  -22.6513   23.3309 C   0  0  0  0  0  0  0  0  0  0  0  0
  -21.7853   -9.0786   20.3283 C   0  0  0  0  0  0  0  0  0  0  0  0
  -23.6673   -8.3359   21.6488 C   0  0  0  0  0  0  0  0  0  0  0  0
  -22.2374  -21.6025   22.4528 C   0  0  0  0  0  0  0  0  0  0  0  0
  -21.2198   -7.1560   23.6583 C   0  0  0  0  0  0  0  0  0  0  0  0
  -21.2301   -6.6569   24.9607 C   0  0  0  0  0  0  0  0  0  0  0  0
  -23.3334  -23.1452   20.9569 C   0  0  0  0  0  0  0  0  0  0  0  0
  -22.3788   -4.6753   24.1921 C   0  0  0  0  0  0  0  0  0  0  0  0
  -23.6898  -10.5318   20.6416 C   0  0  0  0  0  0  0  0  0  0  0  0
  -24.2684  -12.9568   21.1825 C   0  0  0  0  0  0  0  0  0  0  0  0
  -16.8288  -28.6123   24.2598 C   0  0  0  0  0  0  0  0  0  0  0  0
  -22.3693  -23.9589   23.0228 C   0  0  0  0  0  0  0  0  0  0  0  0
  -17.4383  -27.4767   23.6928 C   0  0  0  0  0  0  0  0  0  0  0  0
  -23.0695  -24.2084   21.8339 C   0  0  0  0  0  0  0  0  0  0  0  0
  -22.4052   -8.0991   21.1042 C   0  0  0  0  0  0  0  0  0  0  0  0
  -22.9180  -21.8499   21.2643 C   0  0  0  0  0  0  0  0  0  0  0  0
  -21.7889   -6.4148   22.6227 C   0  0  0  0  0  0  0  0  0  0  0  0
  -21.8096   -5.4165   25.2276 C   0  0  0  0  0  0  0  0  0  0  0  0
  -22.3685   -5.1744   22.8896 C   0  0  0  0  0  0  0  0  0  0  0  0
  -24.3540  -11.7879   20.4026 C   0  0  0  0  0  0  0  0  0  0  0  0
  -25.0780  -13.8597   20.5378 C   0  0  0  0  0  0  0  0  0  0  0  0
  -23.5236  -13.2041   22.3824 C   0  0  0  0  0  0  0  0  0  0  0  0
  -20.8595  -26.7115   22.5256 C   0  0  0  0  0  0  0  0  0  0  0  0
  -23.8762  -27.8999   22.4261 C   0  0  0  0  0  0  0  0  0  0  0  0
  -27.1975  -27.3316   21.8853 C   0  0  0  0  0  0  0  0  0  0  0  0
  -29.8503  -15.1262   17.9365 C   0  0  0  0  0  0  0  0  0  0  0  0
  -17.1807  -30.0086   23.8113 C   0  0  0  0  0  0  0  0  0  0  0  0
  -22.0939  -25.0748   23.9931 C   0  0  0  0  0  0  0  0  0  0  0  0
  -23.5406  -25.5909   21.4662 C   0  0  0  0  0  0  0  0  0  0  0  0
  -18.5055  -30.0905   23.0573 C   0  0  0  0  0  0  0  0  0  0  0  0
  -27.2646  -13.6539   15.9812 C   0  0  0  0  0  0  0  0  0  0  0  0
  -18.5921  -28.9861   22.0087 C   0  0  0  0  0  0  0  0  0  0  0  0
  -26.2736  -13.1285   17.0213 C   0  0  0  0  0  0  0  0  0  0  0  0
  -27.6736  -19.6946   18.6402 C   0  0  0  0  0  0  0  0  0  0  0  0
  -27.6808  -20.0757   21.1416 C   0  0  0  0  0  0  0  0  0  0  0  0
  -28.7095  -13.5040   16.4521 C   0  0  0  0  0  0  0  0  0  0  0  0
  -28.0041  -13.5704   18.8126 C   0  0  0  0  0  0  0  0  0  0  0  0
  -26.3867  -18.8892   18.7767 C   0  0  0  0  0  0  0  0  0  0  0  0
  -26.3937  -19.2675   21.2583 C   0  0  0  0  0  0  0  0  0  0  0  0
  -18.5393  -27.5998   22.6620 C   0  0  1  0  0  0  0  0  0  0  0  0
  -22.0975  -26.4519   23.3366 C   0  0  1  0  0  0  0  0  0  0  0  0
  -26.5315  -13.7515   18.4064 C   0  0  2  0  0  0  0  0  0  0  0  0
  -28.5142  -19.7067   19.9157 C   0  0  0  0  0  0  0  0  0  0  0  0
  -29.4152  -28.5053   21.8405 C   0  0  0  0  0  0  0  0  0  0  0  0
  -31.3951  -16.5499   20.9731 C   0  0  0  0  0  0  0  0  0  0  0  0
  -23.1702  -29.1254   19.7225 C   0  0  0  0  0  0  0  0  0  0  0  0
  -25.6182  -29.4459   19.3068 C   0  0  0  0  0  0  0  0  0  0  0  0
  -24.5172  -30.6078   21.2200 C   0  0  0  0  0  0  0  0  0  0  0  0
  -28.2697  -25.6362   24.0614 C   0  0  0  0  0  0  0  0  0  0  0  0
  -24.2691  -18.7078   20.0800 C   0  0  0  0  0  0  0  0  0  0  0  0
  -30.2977  -18.0872   19.2560 C   0  0  0  0  0  0  0  0  0  0  0  0
  -23.3634  -19.5319   20.9737 C   0  0  0  0  0  0  0  0  0  1  0  0
  -24.9062  -28.1127   21.3431 C   0  0  1  0  0  0  0  0  0  0  0  0
  -28.4286  -27.7153   22.6864 C   0  0  2  0  0  0  0  0  0  0  0  0
  -30.8896  -16.7076   19.5422 C   0  0  2  0  0  0  0  0  0  0  0  0
  -24.5425  -29.2971   20.4038 C   0  0  0  0  0  0  0  0  0  0  0  0
  -25.1548  -11.9323   19.3434 N   0  0  0  0  0  0  0  0  0  0  0  0
  -25.5796  -13.2026   19.4531 N   0  0  0  0  0  0  0  0  0  0  0  0
  -23.2417  -26.6497   22.4445 N   0  0  0  0  0  0  0  0  0  0  0  0
  -28.8875  -14.1170   17.7706 N   0  0  0  0  0  0  0  0  0  0  0  0
  -25.4027  -15.1439   20.7987 N   0  0  0  0  0  0  0  0  0  0  0  0
  -22.7429  -12.1666   22.9101 N   0  0  0  0  0  0  0  0  0  0  0  0
  -19.8206  -27.2677   23.2473 N   0  0  0  0  0  0  0  0  0  0  0  0
  -26.1885  -28.2612   22.0229 N   0  0  0  0  0  0  0  0  0  0  0  0
  -29.9499  -15.6581   19.2164 N   0  0  0  0  0  0  0  0  0  0  0  0
  -25.6090  -19.3829   19.9732 N   0  3  0  0  0  0  0  0  0  0  0  0
  -29.1201  -18.3594   20.1193 N   0  3  0  0  0  0  0  0  0  0  0  0
  -29.1170  -26.4952   23.1947 N   0  3  0  0  0  0  0  0  0  0  0  0
  -23.5366  -14.3175   22.9601 O   0  0  0  0  0  0  0  0  0  0  0  0
  -20.8482  -26.4296   21.3331 O   0  0  0  0  0  0  0  0  0  0  0  0
  -23.6483  -28.8068   23.2306 O   0  0  0  0  0  0  0  0  0  0  0  0
  -27.1384  -26.3113   21.2027 O   0  0  0  0  0  0  0  0  0  0  0  0
  -30.5644  -15.5275   17.0113 O   0  0  0  0  0  0  0  0  0  0  0  0
  -21.7786   -6.9121   21.3303 O   0  0  0  0  0  0  0  0  0  0  0  0
  -23.1823  -20.8281   20.4052 O   0  0  0  0  0  0  0  0  0  1  0  0
  -21.8208   -4.9380   26.4786 F   0  0  0  0  0  0  0  0  0  0  0  0
  -22.9179   -4.4583   21.8991 F   0  0  0  0  0  0  0  0  0  0  0  0
  1  2  1  0  0  0  0
  1  5  2  0  0  0  0
  2  6  2  0  0  0  0
  3  8  2  0  0  0  0
  3 15  1  0  0  0  0
  4  9  1  0  0  0  0
  4 15  2  0  0  0  0
  5 17  1  0  0  0  0
  6 19  1  0  0  0  0
  7 10  2  0  0  0  0
  7 18  1  0  0  0  0
  8 21  1  0  0  0  0
  9 21  2  0  0  0  0
 10 22  1  0  0  0  0
 11 12  2  0  0  0  0
 11 23  1  0  0  0  0
 12 24  1  0  0  0  0
 13 20  1  0  0  0  0
 13 22  2  0  0  0  0
 14 24  2  0  0  0  0
 14 25  1  0  0  0  0
 15 26  1  0  0  0  0
 16 26  1  0  0  0  0
 16 27  2  0  0  0  0
 16 28  1  0  0  0  0
 17 19  2  0  0  0  0
 17 33  1  0  0  0  0
 18 20  2  0  0  0  0
 18 34  1  0  0  0  0
 19 46  1  0  0  0  0
 20 35  1  0  0  0  0
 21 80  1  0  0  0  0
 22 81  1  0  0  0  0
 23 25  2  0  0  0  0
 23 80  1  0  0  0  0
 24 82  1  0  0  0  0
 25 83  1  0  0  0  0
 26 63  2  0  0  0  0
 27 64  1  0  0  0  0
 27 67  1  0  0  0  0
 28 68  1  0  0  0  0
 28 75  2  0  0  0  0
 29 47  1  0  0  0  0
 29 69  1  0  0  0  0
 29 76  2  0  0  0  0
 30 59  1  0  0  0  0
 30 65  1  0  0  0  0
 30 77  2  0  0  0  0
 31 60  1  0  0  0  0
 31 70  1  0  0  0  0
 31 78  2  0  0  0  0
 32 66  1  0  0  0  0
 32 71  1  0  0  0  0
 32 79  2  0  0  0  0
 33 36  1  0  0  0  0
 34 47  1  0  0  0  0
 35 65  1  0  0  0  0
 36 38  1  0  0  0  0
 37 39  1  0  0  0  0
 37 42  1  0  0  0  0
 38 46  1  0  0  0  0
 39 48  1  0  0  0  0
 40 44  1  0  0  0  0
 40 49  1  0  0  0  0
 41 45  1  0  0  0  0
 41 49  1  0  0  0  0
 42 66  1  0  0  0  0
 43 48  1  0  0  0  0
 43 66  1  0  0  0  0
 44 72  1  0  0  0  0
 45 72  1  0  0  0  0
 46 69  1  0  0  0  0
 47 65  1  0  0  0  0
 48 64  1  0  0  0  0
 49 73  1  0  0  0  0
 50 60  1  0  0  0  0
 51 61  1  0  0  0  0
 52 62  1  0  0  0  0
 53 62  1  0  0  0  0
 54 62  1  0  0  0  0
 55 74  1  0  0  0  0
 56 58  1  0  0  0  0
 56 72  1  0  0  0  0
 57 61  1  0  0  0  0
 57 73  1  0  0  0  0
 58 81  1  0  0  0  0
 59 62  1  0  0  0  0
 59 70  1  0  0  0  0
 60 74  1  0  0  0  0
 61 71  1  0  0  0  0
 63 64  1  0  0  0  0
M  CHG  3  72   1  73   1  74   1
M  ISO  4  32 100  58 101  71 100  81 101
M  END
> <Batch ID>
0141

> <Smiles>
CNC(C)C(=O)NC(C(=O)N1Cc2cc([101O:1][101CH2:1]CN3CCC(NCC(C)[100NH:0][100C:0](=O)N4CCCC(n5nc(-c6ccc(Oc7ccc(F)cc7F)cc6)c(C(N)=O)c5N)C4)CC3)ccc2CC1C(=O)NC1CCCc2ccccc21)C(C)(C)C

> <Shape>
0.271

> <Color>
0.132

> <Negative vol penalty>
0.000

$$$$

  -OEChem-04052321163D

 83 91  0     1  0  0  0  0  0999 V2000
  -18.5961  -26.8037   19.2186 C   0  0  0  0  0  0  0  0  0  0  0  0
  -18.8511  -25.6151   18.5421 C   0  0  0  0  0  0  0  0  0  0  0  0
  -27.4748  -23.3732   20.8225 C   0  0  0  0  0  0  0  0  0  0  0  0
  -28.4454  -23.1899   18.6176 C   0  0  0  0  0  0  0  0  0  0  0  0
  -19.1049  -26.9968   20.5022 C   0  0  0  0  0  0  0  0  0  0  0  0
  -19.6161  -24.6193   19.1485 C   0  0  0  0  0  0  0  0  0  0  0  0
  -20.2588  -17.4920   19.4719 C   0  0  0  0  0  0  0  0  0  0  0  0
  -27.6029  -24.7609   20.7636 C   0  0  0  0  0  0  0  0  0  0  0  0
  -28.5735  -24.5776   18.5587 C   0  0  0  0  0  0  0  0  0  0  0  0
  -21.2168  -16.4894   19.3281 C   0  0  0  0  0  0  0  0  0  0  0  0
  -25.9689  -27.3550   19.3376 C   0  0  0  0  0  0  0  0  0  0  0  0
  -24.8812  -28.1246   19.7501 C   0  0  0  0  0  0  0  0  0  0  0  0
  -21.9775  -16.9016   21.5799 C   0  0  0  0  0  0  0  0  0  0  0  0
  -24.8668  -12.7031   21.7438 C   0  0  0  0  0  0  0  0  0  0  0  0
  -25.7188  -14.0634   19.9381 C   0  0  0  0  0  0  0  0  0  0  0  0
  -26.6534  -11.8730   20.3452 C   0  0  0  0  0  0  0  0  0  0  0  0
  -26.2517  -29.1469   21.4570 C   0  0  0  0  0  0  0  0  0  0  0  0
  -27.8960  -22.5877   19.7495 C   0  0  0  0  0  0  0  0  0  0  0  0
  -26.6643  -20.3829   19.3896 C   0  0  0  0  0  0  0  0  0  0  0  0
  -19.8684  -25.9991   21.1284 C   0  0  0  0  0  0  0  0  0  0  0  0
  -20.1600  -18.2157   20.6690 C   0  0  0  0  0  0  0  0  0  0  0  0
  -20.1368  -24.7999   20.4412 C   0  0  0  0  0  0  0  0  0  0  0  0
  -21.0158  -17.9112   21.7373 C   0  0  0  0  0  0  0  0  0  0  0  0
  -24.8393  -13.8867   21.0062 C   0  0  0  0  0  0  0  0  0  0  0  0
  -28.1523  -25.3631   19.6317 C   0  0  0  0  0  0  0  0  0  0  0  0
  -22.0782  -16.1960   20.3811 C   0  0  0  0  0  0  0  0  0  0  0  0
  -27.1981  -27.4814   19.9849 C   0  0  0  0  0  0  0  0  0  0  0  0
  -25.7739  -11.6963   21.4133 C   0  0  0  0  0  0  0  0  0  0  0  0
  -26.6259  -13.0565   19.6076 C   0  0  0  0  0  0  0  0  0  0  0  0
  -25.0225  -29.0206   20.8098 C   0  0  0  0  0  0  0  0  0  0  0  0
  -27.3395  -28.3773   21.0445 C   0  0  0  0  0  0  0  0  0  0  0  0
  -27.7644  -21.1541   19.8100 C   0  0  0  0  0  0  0  0  0  0  0  0
  -27.0310  -19.0868   19.6579 C   0  0  0  0  0  0  0  0  0  0  0  0
  -25.4220  -20.8009   18.8085 C   0  0  0  0  0  0  0  0  0  0  0  0
  -20.4962  -21.2714   21.4772 C   0  0  0  0  0  0  0  0  0  0  0  0
  -19.4668  -20.2165   24.3668 C   0  0  0  0  0  0  0  0  0  0  0  0
  -19.1230  -17.6129   26.5463 C   0  0  0  0  0  0  0  0  0  0  0  0
  -30.8107  -14.9817   19.5740 C   0  0  0  0  0  0  0  0  0  0  0  0
  -20.4369  -26.2725   22.4984 C   0  0  0  0  0  0  0  0  0  0  0  0
  -19.1036  -19.2760   20.8176 C   0  0  0  0  0  0  0  0  0  0  0  0
  -20.9373  -18.6451   23.0502 C   0  0  0  0  0  0  0  0  0  0  0  0
  -20.9237  -25.0171   23.2175 C   0  0  0  0  0  0  0  0  0  0  0  0
  -30.9221  -17.2492   22.3167 C   0  0  0  0  0  0  0  0  0  0  0  0
  -21.7652  -24.1572   22.2799 C   0  0  0  0  0  0  0  0  0  0  0  0
  -30.0252  -18.4058   21.8717 C   0  0  0  0  0  0  0  0  0  0  0  0
  -31.7144  -16.6676   21.1479 C   0  0  0  0  0  0  0  0  0  0  0  0
  -30.0022  -17.4192   19.5426 C   0  0  0  0  0  0  0  0  0  0  0  0
  -20.9415  -23.6861   21.0752 C   0  0  1  0  0  0  0  0  0  0  0  0
  -19.4320  -20.2989   21.9008 C   0  0  1  0  0  0  0  0  0  0  0  0
  -29.1413  -18.0021   20.6763 C   0  0  2  0  0  0  0  0  0  0  0  0
  -18.2779  -17.0668   28.8451 C   0  0  0  0  0  0  0  0  0  0  0  0
  -21.9454  -21.5147   25.5839 C   0  0  0  0  0  0  0  0  0  0  0  0
  -21.5556  -20.1575   27.6513 C   0  0  0  0  0  0  0  0  0  0  0  0
  -19.8488  -21.8200   26.9126 C   0  0  0  0  0  0  0  0  0  0  0  0
  -17.1277  -15.7022   25.4849 C   0  0  0  0  0  0  0  0  0  0  0  0
  -26.7541   -9.5543   21.7399 C   0  0  0  0  0  0  0  0  0  0  0  0
  -23.8644  -14.9702   21.3624 C   0  0  0  0  0  0  0  0  0  1  0  0
  -29.8004  -13.4062   17.9441 C   0  0  0  0  0  0  0  0  0  0  0  0
  -28.7471  -12.5700   18.6487 C   0  0  0  0  0  0  0  0  0  0  0  0
  -20.1351  -19.6740   25.6070 C   0  0  1  0  0  0  0  0  0  0  0  0
  -17.9374  -17.1340   27.3645 C   0  0  2  0  0  0  0  0  0  0  0  0
  -20.8742  -20.7789   26.4134 C   0  0  0  0  0  0  0  0  0  0  0  0
  -28.7557  -20.4100   20.3077 N   0  0  0  0  0  0  0  0  0  0  0  0
  -28.2797  -19.1576   20.2018 N   0  0  0  0  0  0  0  0  0  0  0  0
  -19.8919  -19.6775   23.1443 N   0  0  0  0  0  0  0  0  0  0  0  0
  -30.8175  -16.3038   20.0483 N   0  0  0  0  0  0  0  0  0  0  0  0
  -26.4038  -17.9047   19.4793 N   0  0  0  0  0  0  0  0  0  0  0  0
  -25.2085  -22.1705   18.6015 N   0  0  0  0  0  0  0  0  0  0  0  0
  -20.0775  -22.5880   21.4520 N   0  0  0  0  0  0  0  0  0  0  0  0
  -19.0964  -18.9788   26.3595 N   0  0  0  0  0  0  0  0  0  0  0  0
  -29.9267  -14.7202   18.5343 N   0  0  0  0  0  0  0  0  0  0  0  0
  -17.5139  -15.7769   26.9175 N   0  3  0  0  0  0  0  0  0  0  0  0
  -24.5211  -19.9852   18.4976 O   0  0  0  0  0  0  0  0  0  0  0  0
  -21.6149  -20.8580   21.1957 O   0  0  0  0  0  0  0  0  0  0  0  0
  -18.5945  -21.0814   24.4791 O   0  0  0  0  0  0  0  0  0  0  0  0
  -19.9884  -16.8519   26.1189 O   0  0  0  0  0  0  0  0  0  0  0  0
  -31.5346  -14.0984   20.0459 O   0  0  0  0  0  0  0  0  0  0  0  0
  -28.2773  -26.7172   19.5737 O   0  0  0  0  0  0  0  0  0  0  0  0
  -25.8015  -10.5410   22.1328 O   0  0  0  0  0  0  0  0  0  0  0  0
  -23.0146  -15.2182   20.2432 O   0  0  0  0  0  0  0  0  0  1  0  0
  -27.4848  -13.2297   18.5659 O   0  0  0  0  0  0  0  0  0  0  0  0
  -23.9783  -29.7606   21.2047 F   0  0  0  0  0  0  0  0  0  0  0  0
  -28.5181  -28.5039   21.6695 F   0  0  0  0  0  0  0  0  0  0  0  0
  1  2  1  0  0  0  0
  1  5  2  0  0  0  0
  2  6  2  0  0  0  0
  3  8  2  0  0  0  0
  3 18  1  0  0  0  0
  4  9  1  0  0  0  0
  4 18  2  0  0  0  0
  5 20  1  0  0  0  0
  6 22  1  0  0  0  0
  7 10  2  0  0  0  0
  7 21  1  0  0  0  0
  8 25  1  0  0  0  0
  9 25  2  0  0  0  0
 10 26  1  0  0  0  0
 11 12  2  0  0  0  0
 11 27  1  0  0  0  0
 12 30  1  0  0  0  0
 13 23  1  0  0  0  0
 13 26  2  0  0  0  0
 14 24  1  0  0  0  0
 14 28  2  0  0  0  0
 15 24  2  0  0  0  0
 15 29  1  0  0  0  0
 16 28  1  0  0  0  0
 16 29  2  0  0  0  0
 17 30  2  0  0  0  0
 17 31  1  0  0  0  0
 18 32  1  0  0  0  0
 19 32  1  0  0  0  0
 19 33  2  0  0  0  0
 19 34  1  0  0  0  0
 20 22  2  0  0  0  0
 20 39  1  0  0  0  0
 21 23  2  0  0  0  0
 21 40  1  0  0  0  0
 22 48  1  0  0  0  0
 23 41  1  0  0  0  0
 24 57  1  0  0  0  0
 25 78  1  0  0  0  0
 26 80  1  0  0  0  0
 27 31  2  0  0  0  0
 27 78  1  0  0  0  0
 28 79  1  0  0  0  0
 29 81  1  0  0  0  0
 30 82  1  0  0  0  0
 31 83  1  0  0  0  0
 32 63  2  0  0  0  0
 33 64  1  0  0  0  0
 33 67  1  0  0  0  0
 34 68  1  0  0  0  0
 34 73  2  0  0  0  0
 35 49  1  0  0  0  0
 35 69  1  0  0  0  0
 35 74  2  0  0  0  0
 36 60  1  0  0  0  0
 36 65  1  0  0  0  0
 36 75  2  0  0  0  0
 37 61  1  0  0  0  0
 37 70  1  0  0  0  0
 37 76  2  0  0  0  0
 38 66  1  0  0  0  0
 38 71  1  0  0  0  0
 38 77  2  0  0  0  0
 39 42  1  0  0  0  0
 40 49  1  0  0  0  0
 41 65  1  0  0  0  0
 42 44  1  0  0  0  0
 43 45  1  0  0  0  0
 43 46  1  0  0  0  0
 44 48  1  0  0  0  0
 45 50  1  0  0  0  0
 46 66  1  0  0  0  0
 47 50  1  0  0  0  0
 47 66  1  0  0  0  0
 48 69  1  0  0  0  0
 49 65  1  0  0  0  0
 50 64  1  0  0  0  0
 51 61  1  0  0  0  0
 52 62  1  0  0  0  0
 53 62  1  0  0  0  0
 54 62  1  0  0  0  0
 55 72  1  0  0  0  0
 56 79  1  0  0  0  0
 57 80  1  0  0  0  0
 58 59  1  0  0  0  0
 58 71  1  0  0  0  0
 59 81  1  0  0  0  0
 60 62  1  0  0  0  0
 60 70  1  0  0  0  0
 61 72  1  0  0  0  0
 63 64  1  0  0  0  0
M  CHG  1  72   1
M  ISO  4  38 100  57 101  71 100  80 101
M  END
> <Batch ID>
0141

> <Smiles>
CNC(C)C(=O)NC(C(=O)N1Cc2cc([101O:1][101CH2:1]c3cc(OC)cc(OCC[100NH:0][100C:0](=O)N4CCCC(n5nc(-c6ccc(Oc7ccc(F)cc7F)cc6)c(C(N)=O)c5N)C4)c3)ccc2CC1C(=O)NC1CCCc2ccccc21)C(C)(C)C

> <Shape>
0.207

> <Color>
0.080

> <Negative vol penalty>
0.000

$$$$

  -OEChem-04052321163D

 84 93  0     1  0  0  0  0  0999 V2000
  -24.0145  -35.5298   21.4769 C   0  0  0  0  0  0  0  0  0  0  0  0
  -24.8771  -34.4449   21.5968 C   0  0  0  0  0  0  0  0  0  0  0  0
  -26.4172  -12.6019   21.4653 C   0  0  0  0  0  0  0  0  0  0  0  0
  -25.5680  -13.6617   19.4671 C   0  0  0  0  0  0  0  0  0  0  0  0
  -22.6785  -35.4017   21.8544 C   0  0  0  0  0  0  0  0  0  0  0  0
  -24.4043  -33.2315   22.0953 C   0  0  0  0  0  0  0  0  0  0  0  0
  -25.9993  -29.2634   19.3832 C   0  0  0  0  0  0  0  0  0  0  0  0
  -27.8082  -22.3351   16.4232 C   0  0  0  0  0  0  0  0  0  0  0  0
  -25.1992  -11.9434   21.6337 C   0  0  0  0  0  0  0  0  0  0  0  0
  -24.3500  -13.0032   19.6355 C   0  0  0  0  0  0  0  0  0  0  0  0
  -27.3081  -28.8322   19.5949 C   0  0  0  0  0  0  0  0  0  0  0  0
  -23.6231   -9.2496   20.3329 C   0  0  0  0  0  0  0  0  0  0  0  0
  -23.6587   -7.8922   20.6519 C   0  0  0  0  0  0  0  0  0  0  0  0
  -28.3558  -23.5814   16.7066 C   0  0  0  0  0  0  0  0  0  0  0  0
  -26.4888  -27.0623   21.0146 C   0  0  0  0  0  0  0  0  0  0  0  0
  -22.4722   -8.3441   22.7074 C   0  0  0  0  0  0  0  0  0  0  0  0
  -26.6016  -13.4611   20.3820 C   0  0  0  0  0  0  0  0  0  0  0  0
  -28.9807  -13.6859   19.4891 C   0  0  0  0  0  0  0  0  0  0  0  0
  -22.1868  -34.1833   22.3487 C   0  0  0  0  0  0  0  0  0  0  0  0
  -24.9244  -28.6029   19.9953 C   0  0  0  0  0  0  0  0  0  0  0  0
  -23.0608  -33.0874   22.4810 C   0  0  0  0  0  0  0  0  0  0  0  0
  -27.9499  -21.2959   17.3360 C   0  0  0  0  0  0  0  0  0  0  0  0
  -25.1672  -27.4856   20.8070 C   0  0  0  0  0  0  0  0  0  0  0  0
  -24.1655  -12.1441   20.7188 C   0  0  0  0  0  0  0  0  0  0  0  0
  -27.5532  -27.7333   20.4130 C   0  0  0  0  0  0  0  0  0  0  0  0
  -23.0121  -10.1543   21.2012 C   0  0  0  0  0  0  0  0  0  0  0  0
  -23.0832   -7.4394   21.8391 C   0  0  0  0  0  0  0  0  0  0  0  0
  -22.4366   -9.7016   22.3884 C   0  0  0  0  0  0  0  0  0  0  0  0
  -27.8594  -14.1421   20.2078 C   0  0  0  0  0  0  0  0  0  0  0  0
  -28.6425  -21.5523   18.5083 C   0  0  0  0  0  0  0  0  0  0  0  0
  -29.0301  -23.7355   17.9071 C   0  0  0  0  0  0  0  0  0  0  0  0
  -29.9081  -14.6896   19.6264 C   0  0  0  0  0  0  0  0  0  0  0  0
  -29.1672  -12.4641   18.7624 C   0  0  0  0  0  0  0  0  0  0  0  0
  -22.6767  -29.4339   22.0836 C   0  0  0  0  0  0  0  0  0  0  0  0
  -21.5378  -26.4637   21.4488 C   0  0  0  0  0  0  0  0  0  0  0  0
  -22.1694  -23.2879   20.3707 C   0  0  0  0  0  0  0  0  0  0  0  0
  -29.4510  -20.5544   20.6755 C   0  0  0  0  0  0  0  0  0  0  0  0
  -20.7461  -34.1066   22.7882 C   0  0  0  0  0  0  0  0  0  0  0  0
  -23.5165  -29.0641   19.7354 C   0  0  0  0  0  0  0  0  0  0  0  0
  -24.0466  -26.7294   21.4712 C   0  0  0  0  0  0  0  0  0  0  0  0
  -20.2355  -32.6778   22.9555 C   0  0  0  0  0  0  0  0  0  0  0  0
  -31.2379  -18.1745   22.6300 C   0  0  0  0  0  0  0  0  0  0  0  0
  -25.8936  -19.8634   16.7085 C   0  0  0  0  0  0  0  0  0  0  0  0
  -26.4050  -19.3381   18.0134 C   0  0  0  0  0  0  0  0  0  0  0  0
  -21.2416  -31.8395   23.7377 C   0  0  0  0  0  0  0  0  0  0  0  0
  -30.6807  -16.8285   22.1609 C   0  0  0  0  0  0  0  0  0  0  0  0
  -30.1564  -19.2527   22.6712 C   0  0  0  0  0  0  0  0  0  0  0  0
  -28.8395  -18.0719   20.9564 C   0  0  0  0  0  0  0  0  0  0  0  0
  -27.3618  -19.9598   17.0303 C   0  0  0  0  0  0  0  0  0  0  0  0
  -22.5796  -31.7475   22.9941 C   0  0  1  0  0  0  0  0  0  0  0  0
  -22.5360  -28.6314   20.8211 C   0  0  1  0  0  0  0  0  0  0  0  0
  -29.9053  -16.9703   20.8365 C   0  0  2  0  0  0  0  0  0  0  0  0
  -21.0474  -21.0743   19.9985 C   0  0  0  0  0  0  0  0  0  0  0  0
  -21.5668  -25.9461   24.4557 C   0  0  0  0  0  0  0  0  0  0  0  0
  -21.3670  -23.4989   23.9659 C   0  0  0  0  0  0  0  0  0  0  0  0
  -19.5537  -25.0617   23.2643 C   0  0  0  0  0  0  0  0  0  0  0  0
  -22.7742  -23.3374   17.4741 C   0  0  0  0  0  0  0  0  0  0  0  0
  -30.8436  -26.4566   19.6035 C   0  0  0  0  0  0  0  0  0  0  0  0
  -29.7672  -27.5302   19.5685 C   0  0  0  0  0  0  0  0  0  1  0  0
  -30.2599  -25.0606   19.4523 C   0  0  0  0  0  0  0  0  0  0  0  0
  -21.7591  -25.0874   22.0284 C   0  0  1  0  0  0  0  0  0  0  0  0
  -21.4478  -22.4010   19.3721 C   0  0  2  0  0  0  0  0  0  0  0  0
  -21.0831  -24.9137   23.4177 C   0  0  0  0  0  0  0  0  0  0  0  0
  -28.0547  -15.3421   20.7608 N   0  0  0  0  0  0  0  0  0  0  0  0
  -29.1882  -22.7496   18.8185 N   0  0  0  0  0  0  0  0  0  0  0  0
  -29.3095  -15.6485   20.3895 N   0  0  0  0  0  0  0  0  0  0  0  0
  -22.6881  -27.2229   21.1913 N   0  0  0  0  0  0  0  0  0  0  0  0
  -29.4673  -19.3329   21.3815 N   0  0  0  0  0  0  0  0  0  0  0  0
  -31.1692  -14.8367   19.1676 N   0  0  0  0  0  0  0  0  0  0  0  0
  -28.1120  -11.5425   18.7229 N   0  0  0  0  0  0  0  0  0  0  0  0
  -28.7941  -20.5014   19.4466 N   0  0  0  0  0  0  0  0  0  0  0  0
  -22.4909  -30.7922   21.9105 N   0  0  0  0  0  0  0  0  0  0  0  0
  -21.3001  -24.1404   21.0180 N   0  0  0  0  0  0  0  0  0  0  0  0
  -22.3243  -22.1216   18.1996 N   0  3  0  0  0  0  0  0  0  0  0  0
  -30.2436  -12.1903   18.1794 O   0  0  0  0  0  0  0  0  0  0  0  0
  -22.9333  -28.8629   23.1371 O   0  0  0  0  0  0  0  0  0  0  0  0
  -20.3871  -26.8481   21.2259 O   0  0  0  0  0  0  0  0  0  0  0  0
  -23.3822  -23.2277   20.5605 O   0  0  0  0  0  0  0  0  0  0  0  0
  -30.0043  -21.5655   21.1153 O   0  0  0  0  0  0  0  0  0  0  0  0
  -22.9769  -11.5015   20.8827 O   0  0  0  0  0  0  0  0  0  0  0  0
  -28.8298  -27.3107   20.6219 O   0  0  0  0  0  0  0  0  0  1  0  0
  -29.5790  -24.9546   18.2093 O   0  0  0  0  0  0  0  0  0  0  0  0
  -23.1161   -6.1357   22.1446 F   0  0  0  0  0  0  0  0  0  0  0  0
  -21.8472  -10.5658   23.2259 F   0  0  0  0  0  0  0  0  0  0  0  0
  1  2  1  0  0  0  0
  1  5  2  0  0  0  0
  2  6  2  0  0  0  0
  3  9  2  0  0  0  0
  3 17  1  0  0  0  0
  4 10  1  0  0  0  0
  4 17  2  0  0  0  0
  5 19  1  0  0  0  0
  6 21  1  0  0  0  0
  7 11  2  0  0  0  0
  7 20  1  0  0  0  0
  8 14  2  0  0  0  0
  8 22  1  0  0  0  0
  9 24  1  0  0  0  0
 10 24  2  0  0  0  0
 11 25  1  0  0  0  0
 12 13  2  0  0  0  0
 12 26  1  0  0  0  0
 13 27  1  0  0  0  0
 14 31  1  0  0  0  0
 15 23  1  0  0  0  0
 15 25  2  0  0  0  0
 16 27  2  0  0  0  0
 16 28  1  0  0  0  0
 17 29  1  0  0  0  0
 18 29  1  0  0  0  0
 18 32  2  0  0  0  0
 18 33  1  0  0  0  0
 19 21  2  0  0  0  0
 19 38  1  0  0  0  0
 20 23  2  0  0  0  0
 20 39  1  0  0  0  0
 21 50  1  0  0  0  0
 22 30  2  0  0  0  0
 22 49  1  0  0  0  0
 23 40  1  0  0  0  0
 24 80  1  0  0  0  0
 25 81  1  0  0  0  0
 26 28  2  0  0  0  0
 26 80  1  0  0  0  0
 27 83  1  0  0  0  0
 28 84  1  0  0  0  0
 29 64  2  0  0  0  0
 30 65  1  0  0  0  0
 30 71  1  0  0  0  0
 31 65  2  0  0  0  0
 31 82  1  0  0  0  0
 32 66  1  0  0  0  0
 32 69  1  0  0  0  0
 33 70  1  0  0  0  0
 33 75  2  0  0  0  0
 34 51  1  0  0  0  0
 34 72  1  0  0  0  0
 34 76  2  0  0  0  0
 35 61  1  0  0  0  0
 35 67  1  0  0  0  0
 35 77  2  0  0  0  0
 36 62  1  0  0  0  0
 36 73  1  0  0  0  0
 36 78  2  0  0  0  0
 37 68  1  0  0  0  0
 37 71  1  0  0  0  0
 37 79  2  0  0  0  0
 38 41  1  0  0  0  0
 39 51  1  0  0  0  0
 40 67  1  0  0  0  0
 41 45  1  0  0  0  0
 42 46  1  0  0  0  0
 42 47  1  0  0  0  0
 43 44  1  0  0  0  0
 43 49  1  0  0  0  0
 44 49  1  0  0  0  0
 45 50  1  0  0  0  0
 46 52  1  0  0  0  0
 47 68  1  0  0  0  0
 48 52  1  0  0  0  0
 48 68  1  0  0  0  0
 50 72  1  0  0  0  0
 51 67  1  0  0  0  0
 52 66  1  0  0  0  0
 53 62  1  0  0  0  0
 54 63  1  0  0  0  0
 55 63  1  0  0  0  0
 56 63  1  0  0  0  0
 57 74  1  0  0  0  0
 58 59  1  0  0  0  0
 58 60  1  0  0  0  0
 59 81  1  0  0  0  0
 60 82  1  0  0  0  0
 61 63  1  0  0  0  0
 61 73  1  0  0  0  0
 62 74  1  0  0  0  0
 64 66  1  0  0  0  0
M  CHG  1  74   1
M  ISO  4  37 100  59 101  71 100  81 101
M  END
> <Batch ID>
0141

> <Smiles>
CNC(C)C(=O)NC(C(=O)N1Cc2cc([101O:1][101CH2:1]CCOc3ccc(C4CC4)c([100NH:0][100C:0](=O)N4CCCC(n5nc(-c6ccc(Oc7ccc(F)cc7F)cc6)c(C(N)=O)c5N)C4)n3)ccc2CC1C(=O)NC1CCCc2ccccc21)C(C)(C)C

> <Shape>
0.291

> <Color>
0.102

> <Negative vol penalty>
0.000

$$$$

  -OEChem-04052321163D

 87 95  0     1  0  0  0  0  0999 V2000
  -18.9447  -23.6119   24.0482 C   0  0  0  0  0  0  0  0  0  0  0  0
  -20.3059  -23.6053   23.7610 C   0  0  0  0  0  0  0  0  0  0  0  0
  -23.7369  -10.0426   21.9656 C   0  0  0  0  0  0  0  0  0  0  0  0
  -24.2965  -11.3417   23.9243 C   0  0  0  0  0  0  0  0  0  0  0  0
  -18.1840  -24.7509   23.7879 C   0  0  0  0  0  0  0  0  0  0  0  0
  -20.9070  -24.7375   23.2123 C   0  0  0  0  0  0  0  0  0  0  0  0
  -25.3156  -25.8663   25.4339 C   0  0  0  0  0  0  0  0  0  0  0  0
  -30.6862  -19.7760   22.0145 C   0  0  0  0  0  0  0  0  0  0  0  0
  -23.1970   -9.0472   22.7799 C   0  0  0  0  0  0  0  0  0  0  0  0
  -23.7565  -10.3462   24.7387 C   0  0  0  0  0  0  0  0  0  0  0  0
  -26.4262  -25.1076   25.0668 C   0  0  0  0  0  0  0  0  0  0  0  0
  -30.2602  -21.0856   21.7930 C   0  0  0  0  0  0  0  0  0  0  0  0
  -20.3355   -8.5172   24.5016 C   0  0  0  0  0  0  0  0  0  0  0  0
  -19.1019   -7.9787   24.1358 C   0  0  0  0  0  0  0  0  0  0  0  0
  -27.1399  -26.8775   23.5912 C   0  0  0  0  0  0  0  0  0  0  0  0
  -28.1107  -20.5495   22.7569 C   0  0  0  0  0  0  0  0  0  0  0  0
  -20.1092   -5.7895   23.9619 C   0  0  0  0  0  0  0  0  0  0  0  0
  -24.2867  -11.1899   22.5377 C   0  0  0  0  0  0  0  0  0  0  0  0
  -24.1731  -13.3290   21.1525 C   0  0  0  0  0  0  0  0  0  0  0  0
  -18.7779  -25.9010   23.2447 C   0  0  0  0  0  0  0  0  0  0  0  0
  -25.1026  -27.1339   24.8732 C   0  0  0  0  0  0  0  0  0  0  0  0
  -20.1532  -25.8926   22.9432 C   0  0  0  0  0  0  0  0  0  0  0  0
  -26.0271  -27.6513   23.9547 C   0  0  0  0  0  0  0  0  0  0  0  0
  -28.5366  -19.2398   22.9785 C   0  0  0  0  0  0  0  0  0  0  0  0
  -29.8244  -18.8531   22.6073 C   0  0  0  0  0  0  0  0  0  0  0  0
  -23.2068   -9.1990   24.1665 C   0  0  0  0  0  0  0  0  0  0  0  0
  -27.3370  -25.6120   24.1431 C   0  0  0  0  0  0  0  0  0  0  0  0
  -28.9725  -21.4723   22.1642 C   0  0  0  0  0  0  0  0  0  0  0  0
  -21.4560   -7.6919   24.5975 C   0  0  0  0  0  0  0  0  0  0  0  0
  -18.9887   -6.6149   23.8660 C   0  0  0  0  0  0  0  0  0  0  0  0
  -21.3428   -6.3281   24.3277 C   0  0  0  0  0  0  0  0  0  0  0  0
  -24.8450  -12.2182   21.6970 C   0  0  0  0  0  0  0  0  0  0  0  0
  -25.1366  -13.9959   20.4360 C   0  0  0  0  0  0  0  0  0  0  0  0
  -22.8007  -13.7229   21.2829 C   0  0  0  0  0  0  0  0  0  0  0  0
  -22.8273  -28.4390   23.0778 C   0  0  0  0  0  0  0  0  0  0  0  0
  -24.5348  -31.1521   23.5737 C   0  0  0  0  0  0  0  0  0  0  0  0
  -27.5372  -32.5887   24.3277 C   0  0  0  0  0  0  0  0  0  0  0  0
  -31.1047  -14.2262   20.8603 C   0  0  0  0  0  0  0  0  0  0  0  0
  -17.9056  -27.0922   22.9367 C   0  0  0  0  0  0  0  0  0  0  0  0
  -23.9139  -27.9508   25.2997 C   0  0  0  0  0  0  0  0  0  0  0  0
  -25.8549  -29.0150   23.3390 C   0  0  0  0  0  0  0  0  0  0  0  0
  -18.6924  -28.3792   22.7027 C   0  0  0  0  0  0  0  0  0  0  0  0
  -29.1968  -13.2445   18.0191 C   0  0  0  0  0  0  0  0  0  0  0  0
  -19.8679  -28.1232   21.7648 C   0  0  0  0  0  0  0  0  0  0  0  0
  -27.8045  -12.9704   18.5904 C   0  0  0  0  0  0  0  0  0  0  0  0
  -30.2980  -12.8193   18.9878 C   0  0  0  0  0  0  0  0  0  0  0  0
  -28.7908  -13.1131   20.9154 C   0  0  0  0  0  0  0  0  0  0  0  0
  -20.8464  -27.1098   22.3705 C   0  0  1  0  0  0  0  0  0  0  0  0
  -23.5228  -29.0148   24.2788 C   0  0  1  0  0  0  0  0  0  0  0  0
  -27.6465  -13.5768   19.9977 C   0  0  2  0  0  0  0  0  0  0  0  0
  -28.6307  -34.8280   24.6226 C   0  0  0  0  0  0  0  0  0  0  0  0
  -25.7688  -16.5150   23.3290 C   0  0  0  0  0  0  0  0  0  0  0  0
  -25.8972  -18.4548   21.7527 C   0  0  0  0  0  0  0  0  0  0  0  0
  -24.5933  -31.5197   20.5452 C   0  0  0  0  0  0  0  0  0  0  0  0
  -26.4466  -33.1748   20.8519 C   0  0  0  0  0  0  0  0  0  0  0  0
  -24.2017  -33.6209   21.8438 C   0  0  0  0  0  0  0  0  0  0  0  0
  -28.2185  -32.0138   27.1497 C   0  0  0  0  0  0  0  0  0  0  0  0
  -27.5931  -18.2724   23.6158 C   0  0  0  0  0  0  0  0  0  0  0  0
  -31.5824  -17.0885   22.4613 C   0  0  0  0  0  0  0  0  0  0  0  0
  -31.7659  -15.6183   22.8056 C   0  0  0  0  0  0  0  0  0  0  0  0
  -28.9290  -25.0659   22.4629 C   0  0  0  0  0  0  0  0  0  1  0  0
  -29.5522  -23.7713   21.9781 C   0  0  0  0  0  0  0  0  0  0  0  0
  -25.6771  -31.8407   22.8666 C   0  0  1  0  0  0  0  0  0  0  0  0
  -27.9123  -33.6798   25.3142 C   0  0  2  0  0  0  0  0  0  0  0  0
  -26.7115  -17.4873   22.6153 C   0  0  0  0  0  0  0  0  0  0  0  0
  -25.2322  -32.5125   21.5368 C   0  0  0  0  0  0  0  0  0  0  0  0
  -26.1357  -12.1781   21.3555 N   0  0  0  0  0  0  0  0  0  0  0  0
  -26.2824  -13.2720   20.5887 N   0  0  0  0  0  0  0  0  0  0  0  0
  -24.6735  -29.7728   23.7833 N   0  0  0  0  0  0  0  0  0  0  0  0
  -30.0906  -13.4299   20.3031 N   0  0  0  0  0  0  0  0  0  0  0  0
  -25.1071  -15.1249   19.6966 N   0  0  0  0  0  0  0  0  0  0  0  0
  -21.9468  -12.9241   22.0556 N   0  0  0  0  0  0  0  0  0  0  0  0
  -30.2729  -17.5318   22.8240 N   0  0  0  0  0  0  0  0  0  0  0  0
  -21.6715  -27.7432   23.3768 N   0  0  0  0  0  0  0  0  0  0  0  0
  -26.2609  -32.7620   23.8354 N   0  0  0  0  0  0  0  0  0  0  0  0
  -30.8243  -14.7721   22.1070 N   0  0  0  0  0  0  0  0  0  0  0  0
  -28.8079  -33.1349   26.3734 N   0  3  0  0  0  0  0  0  0  0  0  0
  -22.3412  -14.7438   20.7170 O   0  0  0  0  0  0  0  0  0  0  0  0
  -23.3033  -28.6143   21.9623 O   0  0  0  0  0  0  0  0  0  0  0  0
  -23.5586  -31.8150   23.9333 O   0  0  0  0  0  0  0  0  0  0  0  0
  -28.3014  -31.6762   24.0214 O   0  0  0  0  0  0  0  0  0  0  0  0
  -32.1782  -14.4396   20.2867 O   0  0  0  0  0  0  0  0  0  0  0  0
  -22.6799   -8.2280   24.9615 O   0  0  0  0  0  0  0  0  0  0  0  0
  -28.4215  -24.8733   23.7826 O   0  0  0  0  0  0  0  0  0  1  0  0
  -28.5539  -22.7585   21.9459 O   0  0  0  0  0  0  0  0  0  0  0  0
  -17.8037   -6.0976   23.5163 F   0  0  0  0  0  0  0  0  0  0  0  0
  -22.4154   -5.5301   24.4193 F   0  0  0  0  0  0  0  0  0  0  0  0
  1  2  1  0  0  0  0
  1  5  2  0  0  0  0
  2  6  2  0  0  0  0
  3  9  2  0  0  0  0
  3 18  1  0  0  0  0
  4 10  1  0  0  0  0
  4 18  2  0  0  0  0
  5 20  1  0  0  0  0
  6 22  1  0  0  0  0
  7 11  2  0  0  0  0
  7 21  1  0  0  0  0
  8 12  2  0  0  0  0
  8 25  1  0  0  0  0
  9 26  1  0  0  0  0
 10 26  2  0  0  0  0
 11 27  1  0  0  0  0
 12 28  1  0  0  0  0
 13 14  2  0  0  0  0
 13 29  1  0  0  0  0
 14 30  1  0  0  0  0
 15 23  1  0  0  0  0
 15 27  2  0  0  0  0
 16 24  1  0  0  0  0
 16 28  2  0  0  0  0
 17 30  2  0  0  0  0
 17 31  1  0  0  0  0
 18 32  1  0  0  0  0
 19 32  1  0  0  0  0
 19 33  2  0  0  0  0
 19 34  1  0  0  0  0
 20 22  2  0  0  0  0
 20 39  1  0  0  0  0
 21 23  2  0  0  0  0
 21 40  1  0  0  0  0
 22 48  1  0  0  0  0
 23 41  1  0  0  0  0
 24 25  2  0  0  0  0
 24 58  1  0  0  0  0
 25 73  1  0  0  0  0
 26 83  1  0  0  0  0
 27 84  1  0  0  0  0
 28 85  1  0  0  0  0
 29 31  2  0  0  0  0
 29 83  1  0  0  0  0
 30 86  1  0  0  0  0
 31 87  1  0  0  0  0
 32 67  2  0  0  0  0
 33 68  1  0  0  0  0
 33 71  1  0  0  0  0
 34 72  1  0  0  0  0
 34 78  2  0  0  0  0
 35 49  1  0  0  0  0
 35 74  1  0  0  0  0
 35 79  2  0  0  0  0
 36 63  1  0  0  0  0
 36 69  1  0  0  0  0
 36 80  2  0  0  0  0
 37 64  1  0  0  0  0
 37 75  1  0  0  0  0
 37 81  2  0  0  0  0
 38 70  1  0  0  0  0
 38 76  1  0  0  0  0
 38 82  2  0  0  0  0
 39 42  1  0  0  0  0
 40 49  1  0  0  0  0
 41 69  1  0  0  0  0
 42 44  1  0  0  0  0
 43 45  1  0  0  0  0
 43 46  1  0  0  0  0
 44 48  1  0  0  0  0
 45 50  1  0  0  0  0
 46 70  1  0  0  0  0
 47 50  1  0  0  0  0
 47 70  1  0  0  0  0
 48 74  1  0  0  0  0
 49 69  1  0  0  0  0
 50 68  1  0  0  0  0
 51 64  1  0  0  0  0
 52 65  1  0  0  0  0
 53 65  1  0  0  0  0
 54 66  1  0  0  0  0
 55 66  1  0  0  0  0
 56 66  1  0  0  0  0
 57 77  1  0  0  0  0
 58 65  1  0  0  0  0
 59 60  1  0  0  0  0
 59 73  1  0  0  0  0
 60 76  1  0  0  0  0
 61 62  1  0  0  0  0
 61 84  1  0  0  0  0
 62 85  1  0  0  0  0
 63 66  1  0  0  0  0
 63 75  1  0  0  0  0
 64 77  1  0  0  0  0
 67 68  1  0  0  0  0
M  CHG  1  77   1
M  ISO  4  38 100  61 101  76 100  84 101
M  END
> <Batch ID>
0141

> <Smiles>
CNC(C)C(=O)NC(C(=O)N1Cc2cc([101O:1][101CH2:1]COc3ccc(NCC[100NH:0][100C:0](=O)N4CCCC(n5nc(-c6ccc(Oc7ccc(F)cc7F)cc6)c(C(N)=O)c5N)C4)c(CC(C)C)c3)ccc2CC1C(=O)NC1CCCc2ccccc21)C(C)(C)C

> <Shape>
0.277

> <Color>
0.157

> <Negative vol penalty>
0.000

$$$$

  -OEChem-04052321163D

 77 85  0     1  0  0  0  0  0999 V2000
  -29.9327  -11.8227   19.1893 C   0  0  0  0  0  0  0  0  0  0  0  0
  -30.0754  -13.1313   18.7392 C   0  0  0  0  0  0  0  0  0  0  0  0
  -20.0197  -28.5947   23.7495 C   0  0  0  0  0  0  0  0  0  0  0  0
  -20.3293  -26.9586   21.9990 C   0  0  0  0  0  0  0  0  0  0  0  0
  -28.8940  -11.4956   20.0599 C   0  0  0  0  0  0  0  0  0  0  0  0
  -29.1787  -14.1134   19.1586 C   0  0  0  0  0  0  0  0  0  0  0  0
  -30.4172  -20.0150   20.2275 C   0  0  0  0  0  0  0  0  0  0  0  0
  -18.7247  -28.8389   23.2924 C   0  0  0  0  0  0  0  0  0  0  0  0
  -19.0342  -27.2027   21.5418 C   0  0  0  0  0  0  0  0  0  0  0  0
  -30.2464  -21.1639   19.4563 C   0  0  0  0  0  0  0  0  0  0  0  0
  -15.8843  -26.3380   22.4081 C   0  0  0  0  0  0  0  0  0  0  0  0
  -15.0908  -25.2347   22.0937 C   0  0  0  0  0  0  0  0  0  0  0  0
  -28.1485  -21.5908   20.5679 C   0  0  0  0  0  0  0  0  0  0  0  0
  -14.8886  -26.0280   19.8206 C   0  0  0  0  0  0  0  0  0  0  0  0
  -20.8220  -27.6546   23.1028 C   0  0  0  0  0  0  0  0  0  0  0  0
  -22.5584  -26.4516   24.5331 C   0  0  0  0  0  0  0  0  0  0  0  0
  -27.9899  -12.4761   20.4979 C   0  0  0  0  0  0  0  0  0  0  0  0
  -29.4480  -19.6389   21.1686 C   0  0  0  0  0  0  0  0  0  0  0  0
  -28.1261  -13.7988   20.0349 C   0  0  0  0  0  0  0  0  0  0  0  0
  -28.3106  -20.4381   21.3515 C   0  0  0  0  0  0  0  0  0  0  0  0
  -18.2320  -28.1429   22.1885 C   0  0  0  0  0  0  0  0  0  0  0  0
  -29.1105  -21.9504   19.6244 C   0  0  0  0  0  0  0  0  0  0  0  0
  -16.1798  -27.2863   21.4288 C   0  0  0  0  0  0  0  0  0  0  0  0
  -14.5930  -25.0797   20.8000 C   0  0  0  0  0  0  0  0  0  0  0  0
  -15.6820  -27.1313   20.1350 C   0  0  0  0  0  0  0  0  0  0  0  0
  -22.1600  -27.4023   23.5743 C   0  0  0  0  0  0  0  0  0  0  0  0
  -23.9197  -26.6080   24.6265 C   0  0  0  0  0  0  0  0  0  0  0  0
  -21.7685  -25.5112   25.2729 C   0  0  0  0  0  0  0  0  0  0  0  0
  -27.5451  -17.1208   21.5447 C   0  0  0  0  0  0  0  0  0  0  0  0
  -26.8045  -18.5883   24.3412 C   0  0  0  0  0  0  0  0  0  0  0  0
  -26.6437  -21.4843   26.1395 C   0  0  0  0  0  0  0  0  0  0  0  0
  -28.0521  -28.7110   20.8382 C   0  0  0  0  0  0  0  0  0  0  0  0
  -26.8548  -12.0650   21.4019 C   0  0  0  0  0  0  0  0  0  0  0  0
  -29.6600  -18.4112   22.0114 C   0  0  0  0  0  0  0  0  0  0  0  0
  -27.2503  -20.0890   22.3627 C   0  0  0  0  0  0  0  0  0  0  0  0
  -26.1710  -13.2411   22.0943 C   0  0  0  0  0  0  0  0  0  0  0  0
  -27.3542  -29.9003   24.1207 C   0  0  0  0  0  0  0  0  0  0  0  0
  -25.8879  -14.3580   21.0947 C   0  0  0  0  0  0  0  0  0  0  0  0
  -25.9798  -29.3092   24.4394 C   0  0  0  0  0  0  0  0  0  0  0  0
  -29.3223  -25.8972   19.5848 C   0  0  0  0  0  0  0  0  0  0  0  0
  -27.4710  -30.2966   22.6506 C   0  0  0  0  0  0  0  0  0  0  0  0
  -25.7685  -28.6334   22.0110 C   0  0  0  0  0  0  0  0  0  0  0  0
  -27.7036  -26.4174   17.9231 C   0  0  0  0  0  0  0  0  0  0  0  0
  -27.1884  -14.8972   20.4869 C   0  0  1  0  0  0  0  0  0  0  0  0
  -28.3620  -17.8439   22.5778 C   0  0  1  0  0  0  0  0  0  0  0  0
  -25.6220  -28.1670   23.4695 C   0  0  2  0  0  0  0  0  0  0  0  0
  -28.4849  -27.0520   19.0587 C   0  0  1  0  0  0  0  0  0  0  0  0
  -29.8098  -25.2313   18.3033 C   0  0  1  0  0  0  0  0  0  0  0  0
  -25.9604  -22.3738   28.3844 C   0  0  0  0  0  0  0  0  0  0  0  0
  -23.8712  -18.3863   23.5258 C   0  0  0  0  0  0  0  0  0  0  0  0
  -23.3376  -20.0875   25.2835 C   0  0  0  0  0  0  0  0  0  0  0  0
  -24.3207  -17.8895   25.9352 C   0  0  0  0  0  0  0  0  0  0  0  0
  -29.3866  -22.4255   26.7306 C   0  0  0  0  0  0  0  0  0  0  0  0
  -30.1205  -23.7554   18.4505 C   0  0  0  0  0  0  0  0  0  1  0  0
  -25.7746  -19.6027   24.7762 C   0  0  1  0  0  0  0  0  0  0  0  0
  -27.1036  -21.8236   27.5458 C   0  0  2  0  0  0  0  0  0  0  0  0
  -24.3449  -18.9973   24.8597 C   0  0  0  0  0  0  0  0  0  0  0  0
  -23.1853  -28.1103   23.0932 N   0  0  0  0  0  0  0  0  0  0  0  0
  -24.2414  -27.6042   23.7524 N   0  0  0  0  0  0  0  0  0  0  0  0
  -27.5001  -18.8756   23.1582 N   0  0  0  0  0  0  0  0  0  0  0  0
  -27.1200  -29.1689   21.7840 N   0  0  0  0  0  0  0  0  0  0  0  0
  -24.8610  -25.9891   25.3704 N   0  0  0  0  0  0  0  0  0  0  0  0
  -20.3843  -25.4837   25.0549 N   0  0  0  0  0  0  0  0  0  0  0  0
  -27.8546  -15.7798   21.4204 N   0  0  0  0  0  0  0  0  0  0  0  0
  -26.2599  -20.1643   26.0322 N   0  0  0  0  0  0  0  0  0  0  0  0
  -27.6418  -27.6342   20.0618 N   0  0  0  0  0  0  0  0  0  0  0  0
  -28.6713  -25.4280   17.3328 N   0  3  0  0  0  0  0  0  0  0  0  0
  -28.1890  -22.8439   27.5038 N   0  3  0  0  0  0  0  0  0  0  0  0
  -22.2731  -24.7301   26.1148 O   0  0  0  0  0  0  0  0  0  0  0  0
  -26.6957  -17.7336   20.9086 O   0  0  0  0  0  0  0  0  0  0  0  0
  -26.9902  -17.5816   25.0296 O   0  0  0  0  0  0  0  0  0  0  0  0
  -26.6230  -22.3088   25.2283 O   0  0  0  0  0  0  0  0  0  0  0  0
  -29.1693  -29.2206   20.6998 O   0  0  0  0  0  0  0  0  0  0  0  0
  -16.9683  -28.3807   21.7423 O   0  0  0  0  0  0  0  0  0  0  0  0
  -28.9410  -23.0720   18.8725 O   0  0  0  0  0  0  0  0  0  1  0  0
  -13.8324  -24.0193   20.4978 F   0  0  0  0  0  0  0  0  0  0  0  0
  -15.9636  -28.0384   19.1897 F   0  0  0  0  0  0  0  0  0  0  0  0
  1  2  1  0  0  0  0
  1  5  2  0  0  0  0
  2  6  2  0  0  0  0
  3  8  2  0  0  0  0
  3 15  1  0  0  0  0
  4  9  1  0  0  0  0
  4 15  2  0  0  0  0
  5 17  1  0  0  0  0
  6 19  1  0  0  0  0
  7 10  2  0  0  0  0
  7 18  1  0  0  0  0
  8 21  1  0  0  0  0
  9 21  2  0  0  0  0
 10 22  1  0  0  0  0
 11 12  2  0  0  0  0
 11 23  1  0  0  0  0
 12 24  1  0  0  0  0
 13 20  1  0  0  0  0
 13 22  2  0  0  0  0
 14 24  2  0  0  0  0
 14 25  1  0  0  0  0
 15 26  1  0  0  0  0
 16 26  1  0  0  0  0
 16 27  2  0  0  0  0
 16 28  1  0  0  0  0
 17 19  2  0  0  0  0
 17 33  1  0  0  0  0
 18 20  2  0  0  0  0
 18 34  1  0  0  0  0
 19 44  1  0  0  0  0
 20 35  1  0  0  0  0
 21 74  1  0  0  0  0
 22 75  1  0  0  0  0
 23 25  2  0  0  0  0
 23 74  1  0  0  0  0
 24 76  1  0  0  0  0
 25 77  1  0  0  0  0
 26 58  2  0  0  0  0
 27 59  1  0  0  0  0
 27 62  1  0  0  0  0
 28 63  1  0  0  0  0
 28 69  2  0  0  0  0
 29 45  1  0  0  0  0
 29 64  1  0  0  0  0
 29 70  2  0  0  0  0
 30 55  1  0  0  0  0
 30 60  1  0  0  0  0
 30 71  2  0  0  0  0
 31 56  1  0  0  0  0
 31 65  1  0  0  0  0
 31 72  2  0  0  0  0
 32 61  1  0  0  0  0
 32 66  1  0  0  0  0
 32 73  2  0  0  0  0
 33 36  1  0  0  0  0
 34 45  1  0  0  0  0
 35 60  1  0  0  0  0
 36 38  1  0  0  0  0
 37 39  1  0  0  0  0
 37 41  1  0  0  0  0
 38 44  1  0  0  0  0
 39 46  1  0  0  0  0
 40 47  1  0  0  0  0
 40 48  1  0  0  0  0
 41 61  1  0  0  0  0
 42 46  1  0  0  0  0
 42 61  1  0  0  0  0
 43 47  1  0  0  0  0
 43 67  1  0  0  0  0
 44 64  1  0  0  0  0
 45 60  1  0  0  0  0
 46 59  1  0  0  0  0
 47 66  1  0  0  0  0
 48 54  1  0  0  0  0
 48 67  1  0  0  0  0
 49 56  1  0  0  0  0
 50 57  1  0  0  0  0
 51 57  1  0  0  0  0
 52 57  1  0  0  0  0
 53 68  1  0  0  0  0
 54 75  1  0  0  0  0
 55 57  1  0  0  0  0
 55 65  1  0  0  0  0
 56 68  1  0  0  0  0
 58 59  1  0  0  0  0
M  CHG  2  67   1  68   1
M  ISO  4  32 100  54 101  66 100  75 101
M  END
> <Batch ID>
0141

> <Smiles>
CNC(C)C(=O)NC(C(=O)N1Cc2cc([101O:1][101CH2:1]C3CC([100NH:0][100C:0](=O)N4CCCC(n5nc(-c6ccc(Oc7ccc(F)cc7F)cc6)c(C(N)=O)c5N)C4)CN3)ccc2CC1C(=O)NC1CCCc2ccccc21)C(C)(C)C

> <Shape>
0.215

> <Color>
0.066

> <Negative vol penalty>
0.000

$$$$

  -OEChem-04052321163D

 88 98  0     1  0  0  0  0  0999 V2000
  -22.3099  -11.0124   19.9081 C   0  0  0  0  0  0  0  0  0  0  0  0
  -21.8662  -12.2254   20.4248 C   0  0  0  0  0  0  0  0  0  0  0  0
  -26.4190  -30.7366   24.0469 C   0  0  0  0  0  0  0  0  0  0  0  0
  -25.9237  -32.8493   22.9848 C   0  0  0  0  0  0  0  0  0  0  0  0
  -23.6767  -10.7505   19.8228 C   0  0  0  0  0  0  0  0  0  0  0  0
  -22.7891  -13.1769   20.8577 C   0  0  0  0  0  0  0  0  0  0  0  0
  -22.2583  -19.2654   20.4654 C   0  0  0  0  0  0  0  0  0  0  0  0
  -14.8357  -24.3844   25.2950 C   0  0  0  0  0  0  0  0  0  0  0  0
  -16.4070  -25.3620   26.8482 C   0  0  0  0  0  0  0  0  0  0  0  0
  -15.7402  -24.5865   24.2527 C   0  0  0  0  0  0  0  0  0  0  0  0
  -17.3116  -25.5640   25.8058 C   0  0  0  0  0  0  0  0  0  0  0  0
  -26.9733  -31.4128   25.1337 C   0  0  0  0  0  0  0  0  0  0  0  0
  -26.4781  -33.5256   24.0716 C   0  0  0  0  0  0  0  0  0  0  0  0
  -21.8651  -20.2341   21.3879 C   0  0  0  0  0  0  0  0  0  0  0  0
  -29.8762  -32.9771   25.8760 C   0  0  0  0  0  0  0  0  0  0  0  0
  -31.0945  -32.5144   26.3733 C   0  0  0  0  0  0  0  0  0  0  0  0
  -24.1791  -20.6526   21.9257 C   0  0  0  0  0  0  0  0  0  0  0  0
  -30.0654  -32.1147   28.5223 C   0  0  0  0  0  0  0  0  0  0  0  0
  -25.8942  -31.4548   22.9725 C   0  0  0  0  0  0  0  0  0  0  0  0
  -25.9687  -29.8400   20.9990 C   0  0  0  0  0  0  0  0  0  0  0  0
  -24.6170  -11.7031   20.2458 C   0  0  0  0  0  0  0  0  0  0  0  0
  -23.6167  -18.9750   20.2738 C   0  0  0  0  0  0  0  0  0  0  0  0
  -24.1697  -12.9270   20.7792 C   0  0  0  0  0  0  0  0  0  0  0  0
  -24.5871  -19.6817   20.9984 C   0  0  0  0  0  0  0  0  0  0  0  0
  -15.1691  -24.7722   26.5928 C   0  0  0  0  0  0  0  0  0  0  0  0
  -16.9782  -25.1762   24.5081 C   0  0  0  0  0  0  0  0  0  0  0  0
  -27.0029  -32.8073   25.1460 C   0  0  0  0  0  0  0  0  0  0  0  0
  -22.8254  -20.9258   22.1203 C   0  0  0  0  0  0  0  0  0  0  0  0
  -28.7525  -33.0086   26.7018 C   0  0  0  0  0  0  0  0  0  0  0  0
  -31.1891  -32.0832   27.6964 C   0  0  0  0  0  0  0  0  0  0  0  0
  -28.8471  -32.5774   28.0250 C   0  0  0  0  0  0  0  0  0  0  0  0
  -25.3220  -30.7568   21.8493 C   0  0  0  0  0  0  0  0  0  0  0  0
  -25.0009  -29.4642   20.0997 C   0  0  0  0  0  0  0  0  0  0  0  0
  -27.3231  -29.3701   21.0202 C   0  0  0  0  0  0  0  0  0  0  0  0
  -25.4352  -16.3964   20.6583 C   0  0  0  0  0  0  0  0  0  0  0  0
  -27.7011  -18.2683   19.2857 C   0  0  0  0  0  0  0  0  0  0  0  0
  -28.8355  -21.4131   18.6003 C   0  0  0  0  0  0  0  0  0  0  0  0
  -19.0197  -29.3562   20.3540 C   0  0  0  0  0  0  0  0  0  0  0  0
  -26.0831  -11.3559   20.1779 C   0  0  0  0  0  0  0  0  0  0  0  0
  -24.0257  -17.9461   19.2556 C   0  0  0  0  0  0  0  0  0  0  0  0
  -26.0592  -19.4217   20.8152 C   0  0  0  0  0  0  0  0  0  0  0  0
  -27.0027  -12.5671   20.3106 C   0  0  0  0  0  0  0  0  0  0  0  0
  -21.0306  -31.0832   17.9769 C   0  0  0  0  0  0  0  0  0  0  0  0
  -26.5557  -13.4522   21.4697 C   0  0  0  0  0  0  0  0  0  0  0  0
  -18.9660  -23.1096   23.7193 C   0  0  0  0  0  0  0  0  0  0  0  0
  -20.2508  -24.8813   22.4519 C   0  0  0  0  0  0  0  0  0  0  0  0
  -22.4168  -31.1127   18.6231 C   0  0  0  0  0  0  0  0  0  0  0  0
  -20.2495  -22.3011   23.8828 C   0  0  0  0  0  0  0  0  0  0  0  0
  -21.5307  -24.0675   22.6184 C   0  0  0  0  0  0  0  0  0  0  0  0
  -17.1543  -27.8129   22.7278 C   0  0  0  0  0  0  0  0  0  0  0  0
  -19.9207  -31.2353   19.0148 C   0  0  0  0  0  0  0  0  0  0  0  0
  -21.3685  -30.3045   20.7787 C   0  0  0  0  0  0  0  0  0  0  0  0
  -25.1404  -13.9943   21.2360 C   0  0  1  0  0  0  0  0  0  0  0  0
  -25.4143  -17.3693   19.5135 C   0  0  1  0  0  0  0  0  0  0  0  0
  -19.2567  -24.6113   23.5899 C   0  0  0  0  0  0  0  0  0  0  0  0
  -18.2526  -26.8834   23.1606 C   0  0  2  0  0  0  0  0  0  0  0  0
  -22.5186  -30.0985   19.7782 C   0  0  2  0  0  0  0  0  0  0  0  0
  -18.2627  -27.4630   21.7689 C   0  0  2  0  0  0  0  0  0  0  0  0
  -21.2367  -22.5748   22.7514 C   0  0  0  0  0  0  0  0  0  1  0  0
  -14.2025  -24.5565   27.7078 C   0  0  0  0  0  0  0  0  0  0  0  0
  -30.7350  -22.6248   17.4953 C   0  0  0  0  0  0  0  0  0  0  0  0
  -29.4887  -17.6426   21.6780 C   0  0  0  0  0  0  0  0  0  0  0  0
  -30.9354  -19.5750   21.0138 C   0  0  0  0  0  0  0  0  0  0  0  0
  -30.6615  -17.6354   19.4692 C   0  0  0  0  0  0  0  0  0  0  0  0
  -27.0274  -22.7036   16.6447 C   0  0  0  0  0  0  0  0  0  0  0  0
  -17.9631  -25.3942   23.3730 C   0  0  2  0  0  0  0  0  0  0  0  0
  -28.7364  -19.2415   19.7955 C   0  0  1  0  0  0  0  0  0  0  0  0
  -29.3412  -22.0438   17.3154 C   0  0  2  0  0  0  0  0  0  0  0  0
  -29.9278  -18.5274   20.4942 C   0  0  0  0  0  0  0  0  0  0  0  0
  -24.0424  -30.9518   21.5197 N   0  0  0  0  0  0  0  0  0  0  0  0
  -23.8772  -30.1523   20.4521 N   0  0  0  0  0  0  0  0  0  0  0  0
  -26.4086  -18.4019   19.8125 N   0  0  0  0  0  0  0  0  0  0  0  0
  -20.0742  -30.2433   20.0817 N   0  0  0  0  0  0  0  0  0  0  0  0
  -25.0100  -28.6158   19.0498 N   0  0  0  0  0  0  0  0  0  0  0  0
  -28.1844  -29.8586   22.0121 N   0  0  0  0  0  0  0  0  0  0  0  0
  -25.1687  -15.0909   20.2921 N   0  0  0  0  0  0  0  0  0  0  0  0
  -29.1197  -20.0650   18.6539 N   0  0  0  0  0  0  0  0  0  0  0  0
  -19.2500  -28.4438   21.3764 N   0  0  0  0  0  0  0  0  0  0  0  0
  -28.4280  -23.1386   16.8814 N   0  3  0  0  0  0  0  0  0  0  0  0
  -27.7611  -28.5539   20.1743 O   0  0  0  0  0  0  0  0  0  0  0  0
  -25.6768  -16.8000   21.7899 O   0  0  0  0  0  0  0  0  0  0  0  0
  -28.0255  -17.4253   18.4456 O   0  0  0  0  0  0  0  0  0  0  0  0
  -28.2504  -22.0533   19.4712 O   0  0  0  0  0  0  0  0  0  0  0  0
  -17.9542  -29.3723   19.7285 O   0  0  0  0  0  0  0  0  0  0  0  0
  -27.5435  -33.4675   26.2064 O   0  0  0  0  0  0  0  0  0  0  0  0
  -22.4442  -21.8713   23.0218 O   0  0  0  0  0  0  0  0  0  1  0  0
  -32.3587  -31.6375   28.1734 F   0  0  0  0  0  0  0  0  0  0  0  0
  -27.7708  -32.6042   28.8228 F   0  0  0  0  0  0  0  0  0  0  0  0
  1  2  1  0  0  0  0
  1  5  2  0  0  0  0
  2  6  2  0  0  0  0
  3 12  2  0  0  0  0
  3 19  1  0  0  0  0
  4 13  1  0  0  0  0
  4 19  2  0  0  0  0
  5 21  1  0  0  0  0
  6 23  1  0  0  0  0
  7 14  2  0  0  0  0
  7 22  1  0  0  0  0
  8 10  2  0  0  0  0
  8 25  1  0  0  0  0
  9 11  1  0  0  0  0
  9 25  2  0  0  0  0
 10 26  1  0  0  0  0
 11 26  2  0  0  0  0
 12 27  1  0  0  0  0
 13 27  2  0  0  0  0
 14 28  1  0  0  0  0
 15 16  2  0  0  0  0
 15 29  1  0  0  0  0
 16 30  1  0  0  0  0
 17 24  1  0  0  0  0
 17 28  2  0  0  0  0
 18 30  2  0  0  0  0
 18 31  1  0  0  0  0
 19 32  1  0  0  0  0
 20 32  1  0  0  0  0
 20 33  2  0  0  0  0
 20 34  1  0  0  0  0
 21 23  2  0  0  0  0
 21 39  1  0  0  0  0
 22 24  2  0  0  0  0
 22 40  1  0  0  0  0
 23 53  1  0  0  0  0
 24 41  1  0  0  0  0
 25 60  1  0  0  0  0
 26 66  1  0  0  0  0
 27 85  1  0  0  0  0
 28 86  1  0  0  0  0
 29 31  2  0  0  0  0
 29 85  1  0  0  0  0
 30 87  1  0  0  0  0
 31 88  1  0  0  0  0
 32 70  2  0  0  0  0
 33 71  1  0  0  0  0
 33 74  1  0  0  0  0
 34 75  1  0  0  0  0
 34 80  2  0  0  0  0
 35 54  1  0  0  0  0
 35 76  1  0  0  0  0
 35 81  2  0  0  0  0
 36 67  1  0  0  0  0
 36 72  1  0  0  0  0
 36 82  2  0  0  0  0
 37 68  1  0  0  0  0
 37 77  1  0  0  0  0
 37 83  2  0  0  0  0
 38 73  1  0  0  0  0
 38 78  1  0  0  0  0
 38 84  2  0  0  0  0
 39 42  1  0  0  0  0
 40 54  1  0  0  0  0
 41 72  1  0  0  0  0
 42 44  1  0  0  0  0
 43 47  1  0  0  0  0
 43 51  1  0  0  0  0
 44 53  1  0  0  0  0
 45 48  1  0  0  0  0
 45 55  1  0  0  0  0
 46 49  1  0  0  0  0
 46 55  1  0  0  0  0
 47 57  1  0  0  0  0
 48 59  1  0  0  0  0
 49 59  1  0  0  0  0
 50 56  1  0  0  0  0
 50 58  1  0  0  0  0
 51 73  1  0  0  0  0
 52 57  1  0  0  0  0
 52 73  1  0  0  0  0
 53 76  1  0  0  0  0
 54 72  1  0  0  0  0
 55 66  1  0  0  0  0
 56 58  1  0  0  0  0
 56 66  1  0  0  0  0
 57 71  1  0  0  0  0
 58 78  1  0  0  0  0
 59 86  1  0  0  0  0
 61 68  1  0  0  0  0
 62 69  1  0  0  0  0
 63 69  1  0  0  0  0
 64 69  1  0  0  0  0
 65 79  1  0  0  0  0
 67 69  1  0  0  0  0
 67 77  1  0  0  0  0
 68 79  1  0  0  0  0
 70 71  1  0  0  0  0
M  CHG  1  79   1
M  ISO  4  38 100  59 101  78 100  86 101
M  END
> <Batch ID>
0141

> <Smiles>
CNC(C)C(=O)NC(C(=O)N1Cc2cc([101O:1][101CH:1]3CCC(C(c4ccc(C)cc4)C4CC4[100NH:0][100C:0](=O)N4CCCC(n5nc(-c6ccc(Oc7ccc(F)cc7F)cc6)c(C(N)=O)c5N)C4)CC3)ccc2CC1C(=O)NC1CCCc2ccccc21)C(C)(C)C

> <Shape>
0.250

> <Color>
0.058

> <Negative vol penalty>
0.000

$$$$

  -OEChem-04052321163D

 88 98  0     1  0  0  0  0  0999 V2000
  -28.3911  -17.4324   24.1189 C   0  0  0  0  0  0  0  0  0  0  0  0
  -29.4600  -18.0877   23.5181 C   0  0  0  0  0  0  0  0  0  0  0  0
  -26.7587  -12.4742   19.4674 C   0  0  0  0  0  0  0  0  0  0  0  0
  -25.8715  -14.5082   20.4226 C   0  0  0  0  0  0  0  0  0  0  0  0
  -27.0856  -17.7683   23.7665 C   0  0  0  0  0  0  0  0  0  0  0  0
  -29.2238  -19.0872   22.5736 C   0  0  0  0  0  0  0  0  0  0  0  0
  -33.1270  -21.6203   20.9762 C   0  0  0  0  0  0  0  0  0  0  0  0
  -25.5129  -11.8634   19.6107 C   0  0  0  0  0  0  0  0  0  0  0  0
  -24.6256  -13.8975   20.5659 C   0  0  0  0  0  0  0  0  0  0  0  0
  -34.0851  -21.0711   20.1252 C   0  0  0  0  0  0  0  0  0  0  0  0
  -23.7064  -10.4421   22.0887 C   0  0  0  0  0  0  0  0  0  0  0  0
  -23.6757   -9.1480   22.6081 C   0  0  0  0  0  0  0  0  0  0  0  0
  -33.1271  -22.2843   18.2733 C   0  0  0  0  0  0  0  0  0  0  0  0
  -22.6298   -8.3581   20.5785 C   0  0  0  0  0  0  0  0  0  0  0  0
  -26.9381  -13.7966   19.8735 C   0  0  0  0  0  0  0  0  0  0  0  0
  -29.4423  -14.0214   20.3048 C   0  0  0  0  0  0  0  0  0  0  0  0
  -26.8343  -18.7638   22.8080 C   0  0  0  0  0  0  0  0  0  0  0  0
  -32.1533  -22.4986   20.4792 C   0  0  0  0  0  0  0  0  0  0  0  0
  -27.9130  -19.4572   22.2221 C   0  0  0  0  0  0  0  0  0  0  0  0
  -32.1593  -22.8453   19.1205 C   0  0  0  0  0  0  0  0  0  0  0  0
  -24.4464  -12.5751   20.1599 C   0  0  0  0  0  0  0  0  0  0  0  0
  -34.0835  -21.4008   18.7730 C   0  0  0  0  0  0  0  0  0  0  0  0
  -23.1986  -10.6943   20.8142 C   0  0  0  0  0  0  0  0  0  0  0  0
  -23.1375   -8.1060   21.8531 C   0  0  0  0  0  0  0  0  0  0  0  0
  -22.6604   -9.6523   20.0591 C   0  0  0  0  0  0  0  0  0  0  0  0
  -28.2249  -14.4278   19.7263 C   0  0  0  0  0  0  0  0  0  0  0  0
  -30.3581  -14.9440   19.8613 C   0  0  0  0  0  0  0  0  0  0  0  0
  -29.7204  -12.9093   21.1660 C   0  0  0  0  0  0  0  0  0  0  0  0
  -28.9805  -22.4569   20.2922 C   0  0  0  0  0  0  0  0  0  0  0  0
  -29.3936  -25.4857   19.2069 C   0  0  0  0  0  0  0  0  0  0  0  0
  -31.4399  -27.7766   17.7198 C   0  0  0  0  0  0  0  0  0  0  0  0
  -30.5785  -18.4990   15.0576 C   0  0  0  0  0  0  0  0  0  0  0  0
  -25.4016  -19.0929   22.4698 C   0  0  0  0  0  0  0  0  0  0  0  0
  -31.1431  -23.1033   21.4152 C   0  0  0  0  0  0  0  0  0  0  0  0
  -31.1480  -23.7993   18.5411 C   0  0  0  0  0  0  0  0  0  0  0  0
  -25.2597  -19.8427   21.1492 C   0  0  0  0  0  0  0  0  0  0  0  0
  -33.8381  -17.3653   11.2707 C   0  0  0  0  0  0  0  0  0  0  0  0
  -30.6979  -19.5077   18.4605 C   0  0  0  0  0  0  0  0  0  0  0  0
  -26.2280  -21.0154   21.1106 C   0  0  0  0  0  0  0  0  0  0  0  0
  -28.8952  -17.6230    8.2904 C   0  0  0  0  0  0  0  0  0  0  0  0
  -30.1936  -16.8800    8.1894 C   0  0  0  0  0  0  0  0  0  0  0  0
  -33.0262  -16.1208   11.6288 C   0  0  0  0  0  0  0  0  0  0  0  0
  -30.1923  -18.2831   19.2250 C   0  0  0  0  0  0  0  0  0  0  0  0
  -34.8603  -17.7025   12.3535 C   0  0  0  0  0  0  0  0  0  0  0  0
  -33.3952  -16.5813   14.0888 C   0  0  0  0  0  0  0  0  0  0  0  0
  -29.9592  -19.6909   17.1365 C   0  0  0  0  0  0  0  0  0  0  0  0
  -29.4512  -17.2837   17.0222 C   0  0  0  0  0  0  0  0  0  0  0  0
  -27.6807  -20.5263   21.1699 C   0  0  1  0  0  0  0  0  0  0  0  0
  -29.8829  -23.5857   20.7035 C   0  0  1  0  0  0  0  0  0  0  0  0
  -29.4020  -16.8353    9.4721 C   0  0  0  0  0  0  0  0  0  0  0  0
  -32.3635  -16.2074   13.0125 C   0  0  1  0  0  0  0  0  0  0  0  0
  -30.2043  -17.0233   18.3381 C   0  0  2  0  0  0  0  0  0  0  0  0
  -29.8796  -17.4956   10.7503 C   0  0  2  0  0  0  0  0  0  0  0  0
  -34.1942  -17.8316   13.7207 C   0  0  1  0  0  0  0  0  0  0  0  0
  -30.1133  -16.7323   12.0467 C   0  0  1  0  0  0  0  0  0  0  0  0
  -32.1992  -30.0080   16.8585 C   0  0  0  0  0  0  0  0  0  0  0  0
  -27.7243  -24.7082   16.7740 C   0  0  0  0  0  0  0  0  0  0  0  0
  -28.5875  -26.7528   15.6153 C   0  0  0  0  0  0  0  0  0  0  0  0
  -27.2298  -26.9798   17.6957 C   0  0  0  0  0  0  0  0  0  0  0  0
  -32.6051  -28.5203   20.3368 C   0  0  0  0  0  0  0  0  0  0  0  0
  -35.9157  -18.8585   16.9824 C   0  0  0  0  0  0  0  0  0  0  0  0
  -34.7739  -18.6976   15.9901 C   0  0  0  0  0  0  0  0  0  0  0  0
  -35.5142  -19.5690   18.2691 C   0  0  0  0  0  0  0  0  0  1  0  0
  -29.6010  -26.1166   17.8512 C   0  0  1  0  0  0  0  0  0  0  0  0
  -31.7780  -29.2112   18.0835 C   0  0  2  0  0  0  0  0  0  0  0  0
  -31.1741  -17.1718   13.0101 C   0  0  1  0  0  0  0  0  0  0  0  0
  -28.3036  -26.1199   16.9943 C   0  0  0  0  0  0  0  0  0  0  0  0
  -28.3524  -15.5233   18.9729 N   0  0  0  0  0  0  0  0  0  0  0  0
  -29.6607  -15.8132   19.0750 N   0  0  0  0  0  0  0  0  0  0  0  0
  -30.1769  -24.3592   19.4955 N   0  0  0  0  0  0  0  0  0  0  0  0
  -30.0147  -18.4608   16.3426 N   0  0  0  0  0  0  0  0  0  0  0  0
  -31.6838  -15.0884   20.0712 N   0  0  0  0  0  0  0  0  0  0  0  0
  -29.6174  -13.0950   22.5513 N   0  0  0  0  0  0  0  0  0  0  0  0
  -28.5556  -21.6651   21.3419 N   0  0  0  0  0  0  0  0  0  0  0  0
  -30.1569  -27.4426   18.0987 N   0  0  0  0  0  0  0  0  0  0  0  0
  -30.6044  -17.2913   14.3679 N   0  0  0  0  0  0  0  0  0  0  0  0
  -28.9349  -17.5500   11.8573 N   0  3  0  0  0  0  0  0  0  0  0  0
  -35.2498  -18.0440   14.7484 N   0  3  0  0  0  0  0  0  0  0  0  0
  -32.8921  -29.2460   19.0727 N   0  3  0  0  0  0  0  0  0  0  0  0
  -30.0665  -11.7888   20.7208 O   0  0  0  0  0  0  0  0  0  0  0  0
  -28.6900  -22.3157   19.1101 O   0  0  0  0  0  0  0  0  0  0  0  0
  -28.5722  -25.9786   19.9840 O   0  0  0  0  0  0  0  0  0  0  0  0
  -32.2332  -27.0285   17.1528 O   0  0  0  0  0  0  0  0  0  0  0  0
  -31.0363  -19.5318   14.5564 O   0  0  0  0  0  0  0  0  0  0  0  0
  -23.2305  -11.9796   20.2996 O   0  0  0  0  0  0  0  0  0  0  0  0
  -35.0172  -20.8656   17.9401 O   0  0  0  0  0  0  0  0  0  1  0  0
  -23.1096   -6.8630   22.3514 F   0  0  0  0  0  0  0  0  0  0  0  0
  -22.1722   -9.8882   18.8336 F   0  0  0  0  0  0  0  0  0  0  0  0
  1  2  1  0  0  0  0
  1  5  2  0  0  0  0
  2  6  2  0  0  0  0
  3  8  2  0  0  0  0
  3 15  1  0  0  0  0
  4  9  1  0  0  0  0
  4 15  2  0  0  0  0
  5 17  1  0  0  0  0
  6 19  1  0  0  0  0
  7 10  2  0  0  0  0
  7 18  1  0  0  0  0
  8 21  1  0  0  0  0
  9 21  2  0  0  0  0
 10 22  1  0  0  0  0
 11 12  2  0  0  0  0
 11 23  1  0  0  0  0
 12 24  1  0  0  0  0
 13 20  1  0  0  0  0
 13 22  2  0  0  0  0
 14 24  2  0  0  0  0
 14 25  1  0  0  0  0
 15 26  1  0  0  0  0
 16 26  1  0  0  0  0
 16 27  2  0  0  0  0
 16 28  1  0  0  0  0
 17 19  2  0  0  0  0
 17 33  1  0  0  0  0
 18 20  2  0  0  0  0
 18 34  1  0  0  0  0
 19 48  1  0  0  0  0
 20 35  1  0  0  0  0
 21 85  1  0  0  0  0
 22 86  1  0  0  0  0
 23 25  2  0  0  0  0
 23 85  1  0  0  0  0
 24 87  1  0  0  0  0
 25 88  1  0  0  0  0
 26 68  2  0  0  0  0
 27 69  1  0  0  0  0
 27 72  1  0  0  0  0
 28 73  1  0  0  0  0
 28 80  2  0  0  0  0
 29 49  1  0  0  0  0
 29 74  1  0  0  0  0
 29 81  2  0  0  0  0
 30 64  1  0  0  0  0
 30 70  1  0  0  0  0
 30 82  2  0  0  0  0
 31 65  1  0  0  0  0
 31 75  1  0  0  0  0
 31 83  2  0  0  0  0
 32 71  1  0  0  0  0
 32 76  1  0  0  0  0
 32 84  2  0  0  0  0
 33 36  1  0  0  0  0
 34 49  1  0  0  0  0
 35 70  1  0  0  0  0
 36 39  1  0  0  0  0
 37 42  1  0  0  0  0
 37 44  1  0  0  0  0
 38 43  1  0  0  0  0
 38 46  1  0  0  0  0
 39 48  1  0  0  0  0
 40 41  1  0  0  0  0
 40 50  1  0  0  0  0
 41 50  1  0  0  0  0
 42 51  1  0  0  0  0
 43 52  1  0  0  0  0
 44 54  1  0  0  0  0
 45 51  1  0  0  0  0
 45 54  1  0  0  0  0
 46 71  1  0  0  0  0
 47 52  1  0  0  0  0
 47 71  1  0  0  0  0
 48 74  1  0  0  0  0
 49 70  1  0  0  0  0
 50 53  1  0  0  0  0
 51 66  1  0  0  0  0
 52 69  1  0  0  0  0
 53 55  1  0  0  0  0
 53 77  1  0  0  0  0
 54 78  1  0  0  0  0
 55 66  1  0  0  0  0
 55 77  1  0  0  0  0
 56 65  1  0  0  0  0
 57 67  1  0  0  0  0
 58 67  1  0  0  0  0
 59 67  1  0  0  0  0
 60 79  1  0  0  0  0
 61 62  1  0  0  0  0
 61 63  1  0  0  0  0
 62 78  1  0  0  0  0
 63 86  1  0  0  0  0
 64 67  1  0  0  0  0
 64 75  1  0  0  0  0
 65 79  1  0  0  0  0
 66 76  1  0  0  0  0
 68 69  1  0  0  0  0
M  CHG  3  77   1  78   1  79   1
M  ISO  4  32 100  63 101  76 100  86 101
M  END
> <Batch ID>
0141

> <Smiles>
CNC(C)C(=O)NC(C(=O)N1Cc2cc([101O:1][101CH2:1]CCNC3CCCC(C([100NH:0][100C:0](=O)N4CCCC(n5nc(-c6ccc(Oc7ccc(F)cc7F)cc6)c(C(N)=O)c5N)C4)C4NC4C4CC4)C3)ccc2CC1C(=O)NC1CCCc2ccccc21)C(C)(C)C

> <Shape>
0.182

> <Color>
0.060

> <Negative vol penalty>
0.000

$$$$

  -OEChem-04052321163D

 83 91  0     1  0  0  0  0  0999 V2000
  -41.6819  -22.6522   26.5600 C   0  0  0  0  0  0  0  0  0  0  0  0
  -40.6149  -22.1570   25.8172 C   0  0  0  0  0  0  0  0  0  0  0  0
  -23.0011   -9.8917   19.9819 C   0  0  0  0  0  0  0  0  0  0  0  0
  -23.7264   -9.9454   22.2858 C   0  0  0  0  0  0  0  0  0  0  0  0
  -41.8223  -24.0269   26.7455 C   0  0  0  0  0  0  0  0  0  0  0  0
  -39.6870  -23.0364   25.2603 C   0  0  0  0  0  0  0  0  0  0  0  0
  -38.5447  -21.8750   20.4654 C   0  0  0  0  0  0  0  0  0  0  0  0
  -22.2355   -8.7568   20.2493 C   0  0  0  0  0  0  0  0  0  0  0  0
  -22.9607   -8.8106   22.5533 C   0  0  0  0  0  0  0  0  0  0  0  0
  -37.6571  -20.8197   20.2600 C   0  0  0  0  0  0  0  0  0  0  0  0
  -23.2077   -5.4714   22.0846 C   0  0  0  0  0  0  0  0  0  0  0  0
  -23.7961   -4.4554   22.8377 C   0  0  0  0  0  0  0  0  0  0  0  0
  -35.8675  -22.4000   19.9144 C   0  0  0  0  0  0  0  0  0  0  0  0
  -29.7585  -17.7002   22.6661 C   0  0  0  0  0  0  0  0  0  0  0  0
  -31.5215  -19.3360   22.6865 C   0  0  0  0  0  0  0  0  0  0  0  0
  -22.0721   -4.6986   24.5128 C   0  0  0  0  0  0  0  0  0  0  0  0
  -23.7466  -10.4860   21.0001 C   0  0  0  0  0  0  0  0  0  0  0  0
  -24.1299  -13.0017   20.8216 C   0  0  0  0  0  0  0  0  0  0  0  0
  -40.9010  -24.9240   26.1825 C   0  0  0  0  0  0  0  0  0  0  0  0
  -38.0973  -23.2028   20.4075 C   0  0  0  0  0  0  0  0  0  0  0  0
  -39.8144  -24.4243   25.4395 C   0  0  0  0  0  0  0  0  0  0  0  0
  -36.7519  -23.4704   20.1169 C   0  0  0  0  0  0  0  0  0  0  0  0
  -30.2463  -18.9374   23.0717 C   0  0  0  0  0  0  0  0  0  0  0  0
  -22.2153   -8.2163   21.5350 C   0  0  0  0  0  0  0  0  0  0  0  0
  -36.3177  -21.0820   19.9873 C   0  0  0  0  0  0  0  0  0  0  0  0
  -22.0515   -6.1011   22.5456 C   0  0  0  0  0  0  0  0  0  0  0  0
  -23.2283   -4.0690   24.0517 C   0  0  0  0  0  0  0  0  0  0  0  0
  -21.4837   -5.7146   23.7597 C   0  0  0  0  0  0  0  0  0  0  0  0
  -24.5381  -11.6579   20.7243 C   0  0  0  0  0  0  0  0  0  0  0  0
  -30.5787  -16.9049   21.8823 C   0  0  0  0  0  0  0  0  0  0  0  0
  -32.2629  -18.4674   21.9019 C   0  0  0  0  0  0  0  0  0  0  0  0
  -25.2391  -13.7248   20.4565 C   0  0  0  0  0  0  0  0  0  0  0  0
  -22.8615  -13.5475   21.2077 C   0  0  0  0  0  0  0  0  0  0  0  0
  -37.9682  -25.6182   22.4698 C   0  0  0  0  0  0  0  0  0  0  0  0
  -36.9834  -27.2797   19.8637 C   0  0  0  0  0  0  0  0  0  0  0  0
  -35.5405  -27.2304   16.7714 C   0  0  0  0  0  0  0  0  0  0  0  0
  -30.7178  -14.6905   20.6892 C   0  0  0  0  0  0  0  0  0  0  0  0
  -41.0677  -26.3990   26.4499 C   0  0  0  0  0  0  0  0  0  0  0  0
  -39.0729  -24.3305   20.6050 C   0  0  0  0  0  0  0  0  0  0  0  0
  -36.2257  -24.8785   20.0238 C   0  0  0  0  0  0  0  0  0  0  0  0
  -40.2510  -27.2842   25.5121 C   0  0  0  0  0  0  0  0  0  0  0  0
  -29.6013  -12.2344   18.3657 C   0  0  0  0  0  0  0  0  0  0  0  0
  -38.8230  -26.7611   25.3930 C   0  0  0  0  0  0  0  0  0  0  0  0
  -28.1510  -11.9760   18.7802 C   0  0  0  0  0  0  0  0  0  0  0  0
  -30.5017  -12.4797   19.5752 C   0  0  0  0  0  0  0  0  0  0  0  0
  -28.5858  -13.2684   20.9081 C   0  0  0  0  0  0  0  0  0  0  0  0
  -38.8010  -25.3477   24.7988 C   0  0  1  0  0  0  0  0  0  0  0  0
  -38.4024  -25.6328   21.0314 C   0  0  1  0  0  0  0  0  0  0  0  0
  -27.6282  -13.0801   19.7201 C   0  0  2  0  0  0  0  0  0  0  0  0
  -29.0672  -19.2080   25.2831 C   0  0  0  0  0  0  0  0  0  0  0  0
  -28.1090  -20.2672   23.2058 C   0  0  0  0  0  0  0  0  0  0  0  0
  -34.8350  -28.7491   14.9024 C   0  0  0  0  0  0  0  0  0  0  0  0
  -34.5561  -28.1533   21.4931 C   0  0  0  0  0  0  0  0  0  0  0  0
  -33.4546  -28.8423   19.3530 C   0  0  0  0  0  0  0  0  0  0  0  0
  -35.5667  -29.9526   20.0804 C   0  0  0  0  0  0  0  0  0  0  0  0
  -37.3721  -25.9142   14.8552 C   0  0  0  0  0  0  0  0  0  0  0  0
  -34.4215  -18.0836   20.7106 C   0  0  0  0  0  0  0  0  0  0  0  0
  -35.7226  -18.8303   20.4689 C   0  0  0  0  0  0  0  0  0  1  0  0
  -29.4054  -19.8332   23.9162 C   0  0  0  0  0  0  0  0  0  0  0  0
  -35.6472  -27.5745   19.2259 C   0  0  1  0  0  0  0  0  0  0  0  0
  -35.9483  -27.8755   15.4592 C   0  0  2  0  0  0  0  0  0  0  0  0
  -34.8154  -28.6040   20.0417 C   0  0  0  0  0  0  0  0  0  0  0  0
  -25.8075  -11.5321   20.3282 N   0  0  0  0  0  0  0  0  0  0  0  0
  -31.8228  -17.2578   21.4882 N   0  0  0  0  0  0  0  0  0  0  0  0
  -26.2064  -12.8060   20.1733 N   0  0  0  0  0  0  0  0  0  0  0  0
  -37.2172  -25.9469   20.2308 N   0  0  0  0  0  0  0  0  0  0  0  0
  -29.9459  -13.5411   20.4175 N   0  0  0  0  0  0  0  0  0  0  0  0
  -25.4715  -15.0506   20.3531 N   0  0  0  0  0  0  0  0  0  0  0  0
  -21.8305  -12.6628   21.5521 N   0  0  0  0  0  0  0  0  0  0  0  0
  -30.0728  -15.6459   21.4739 N   0  0  0  0  0  0  0  0  0  0  0  0
  -33.5312  -18.8778   21.5260 N   0  0  0  0  0  0  0  0  0  0  0  0
  -38.9970  -25.3987   23.3658 N   0  0  0  0  0  0  0  0  0  0  0  0
  -35.9312  -27.9873   17.8557 N   0  0  0  0  0  0  0  0  0  0  0  0
  -36.2761  -26.8308   14.4482 N   0  3  0  0  0  0  0  0  0  0  0  0
  -22.6438  -14.7826   21.2302 O   0  0  0  0  0  0  0  0  0  0  0  0
  -36.7875  -25.7945   22.7463 O   0  0  0  0  0  0  0  0  0  0  0  0
  -37.7927  -28.1968   20.0236 O   0  0  0  0  0  0  0  0  0  0  0  0
  -34.9327  -26.1638   16.8287 O   0  0  0  0  0  0  0  0  0  0  0  0
  -31.8563  -14.8299   20.2350 O   0  0  0  0  0  0  0  0  0  0  0  0
  -21.4681   -7.1091   21.7965 O   0  0  0  0  0  0  0  0  0  0  0  0
  -35.4491  -20.0537   19.7871 O   0  0  0  0  0  0  0  0  0  1  0  0
  -23.7925   -3.0922   24.7740 F   0  0  0  0  0  0  0  0  0  0  0  0
  -20.3724   -6.3150   24.2072 F   0  0  0  0  0  0  0  0  0  0  0  0
  1  2  1  0  0  0  0
  1  5  2  0  0  0  0
  2  6  2  0  0  0  0
  3  8  2  0  0  0  0
  3 17  1  0  0  0  0
  4  9  1  0  0  0  0
  4 17  2  0  0  0  0
  5 19  1  0  0  0  0
  6 21  1  0  0  0  0
  7 10  2  0  0  0  0
  7 20  1  0  0  0  0
  8 24  1  0  0  0  0
  9 24  2  0  0  0  0
 10 25  1  0  0  0  0
 11 12  2  0  0  0  0
 11 26  1  0  0  0  0
 12 27  1  0  0  0  0
 13 22  1  0  0  0  0
 13 25  2  0  0  0  0
 14 23  1  0  0  0  0
 14 30  2  0  0  0  0
 15 23  2  0  0  0  0
 15 31  1  0  0  0  0
 16 27  2  0  0  0  0
 16 28  1  0  0  0  0
 17 29  1  0  0  0  0
 18 29  1  0  0  0  0
 18 32  2  0  0  0  0
 18 33  1  0  0  0  0
 19 21  2  0  0  0  0
 19 38  1  0  0  0  0
 20 22  2  0  0  0  0
 20 39  1  0  0  0  0
 21 47  1  0  0  0  0
 22 40  1  0  0  0  0
 23 59  1  0  0  0  0
 24 80  1  0  0  0  0
 25 81  1  0  0  0  0
 26 28  2  0  0  0  0
 26 80  1  0  0  0  0
 27 82  1  0  0  0  0
 28 83  1  0  0  0  0
 29 63  2  0  0  0  0
 30 64  1  0  0  0  0
 30 70  1  0  0  0  0
 31 64  2  0  0  0  0
 31 71  1  0  0  0  0
 32 65  1  0  0  0  0
 32 68  1  0  0  0  0
 33 69  1  0  0  0  0
 33 75  2  0  0  0  0
 34 48  1  0  0  0  0
 34 72  1  0  0  0  0
 34 76  2  0  0  0  0
 35 60  1  0  0  0  0
 35 66  1  0  0  0  0
 35 77  2  0  0  0  0
 36 61  1  0  0  0  0
 36 73  1  0  0  0  0
 36 78  2  0  0  0  0
 37 67  1  0  0  0  0
 37 70  1  0  0  0  0
 37 79  2  0  0  0  0
 38 41  1  0  0  0  0
 39 48  1  0  0  0  0
 40 66  1  0  0  0  0
 41 43  1  0  0  0  0
 42 44  1  0  0  0  0
 42 45  1  0  0  0  0
 43 47  1  0  0  0  0
 44 49  1  0  0  0  0
 45 67  1  0  0  0  0
 46 49  1  0  0  0  0
 46 67  1  0  0  0  0
 47 72  1  0  0  0  0
 48 66  1  0  0  0  0
 49 65  1  0  0  0  0
 50 59  1  0  0  0  0
 51 59  1  0  0  0  0
 52 61  1  0  0  0  0
 53 62  1  0  0  0  0
 54 62  1  0  0  0  0
 55 62  1  0  0  0  0
 56 74  1  0  0  0  0
 57 58  1  0  0  0  0
 57 71  1  0  0  0  0
 58 81  1  0  0  0  0
 60 62  1  0  0  0  0
 60 73  1  0  0  0  0
 61 74  1  0  0  0  0
 63 65  1  0  0  0  0
M  CHG  1  74   1
M  ISO  4  37 100  58 101  70 100  81 101
M  END
> <Batch ID>
0141

> <Smiles>
CNC(C)C(=O)NC(C(=O)N1Cc2cc([101O:1][101CH2:1]CNc3cc(C(C)C)cc([100NH:0][100C:0](=O)N4CCCC(n5nc(-c6ccc(Oc7ccc(F)cc7F)cc6)c(C(N)=O)c5N)C4)n3)ccc2CC1C(=O)NC1CCCc2ccccc21)C(C)(C)C

> <Shape>
0.177

> <Color>
0.194

> <Negative vol penalty>
0.000

$$$$

  -OEChem-04052321163D

 83 92  0     1  0  0  0  0  0999 V2000
  -40.9149  -25.3123   18.2474 C   0  0  0  0  0  0  0  0  0  0  0  0
  -40.0945  -24.6185   19.1311 C   0  0  0  0  0  0  0  0  0  0  0  0
  -23.0180   -9.8486   20.0564 C   0  0  0  0  0  0  0  0  0  0  0  0
  -23.6978  -10.0582   22.3653 C   0  0  0  0  0  0  0  0  0  0  0  0
  -40.4344  -26.4486   17.5979 C   0  0  0  0  0  0  0  0  0  0  0  0
  -38.7934  -25.0613   19.3667 C   0  0  0  0  0  0  0  0  0  0  0  0
  -35.4195  -21.2850   19.3301 C   0  0  0  0  0  0  0  0  0  0  0  0
  -22.2519   -8.7298   20.3835 C   0  0  0  0  0  0  0  0  0  0  0  0
  -22.9317   -8.9394   22.6924 C   0  0  0  0  0  0  0  0  0  0  0  0
  -35.3462  -20.4856   20.4700 C   0  0  0  0  0  0  0  0  0  0  0  0
  -23.2013   -5.5779   22.4502 C   0  0  0  0  0  0  0  0  0  0  0  0
  -23.7789   -4.6169   23.2799 C   0  0  0  0  0  0  0  0  0  0  0  0
  -33.4059  -21.7180   21.2020 C   0  0  0  0  0  0  0  0  0  0  0  0
  -31.9883  -16.7016   22.3458 C   0  0  0  0  0  0  0  0  0  0  0  0
  -22.0215   -4.9609   24.9018 C   0  0  0  0  0  0  0  0  0  0  0  0
  -23.7410  -10.5128   21.0473 C   0  0  0  0  0  0  0  0  0  0  0  0
  -24.1175  -13.0133   20.7104 C   0  0  0  0  0  0  0  0  0  0  0  0
  -39.1236  -26.9000   17.8184 C   0  0  0  0  0  0  0  0  0  0  0  0
  -34.4916  -22.3157   19.1226 C   0  0  0  0  0  0  0  0  0  0  0  0
  -38.2954  -26.2055   18.7206 C   0  0  0  0  0  0  0  0  0  0  0  0
  -33.4681  -22.5274   20.0574 C   0  0  0  0  0  0  0  0  0  0  0  0
  -30.6110  -16.6995   22.1553 C   0  0  0  0  0  0  0  0  0  0  0  0
  -29.8239  -17.6458   22.8021 C   0  0  0  0  0  0  0  0  0  0  0  0
  -22.2087   -8.2752   21.7015 C   0  0  0  0  0  0  0  0  0  0  0  0
  -34.3410  -20.7039   21.4076 C   0  0  0  0  0  0  0  0  0  0  0  0
  -22.0338   -6.2304   22.8463 C   0  0  0  0  0  0  0  0  0  0  0  0
  -23.1891   -4.3084   24.5057 C   0  0  0  0  0  0  0  0  0  0  0  0
  -21.4439   -5.9219   24.0720 C   0  0  0  0  0  0  0  0  0  0  0  0
  -24.5330  -11.6682   20.7100 C   0  0  0  0  0  0  0  0  0  0  0  0
  -30.4576  -18.5652   23.6224 C   0  0  0  0  0  0  0  0  0  0  0  0
  -32.5252  -17.6634   23.1863 C   0  0  0  0  0  0  0  0  0  0  0  0
  -25.2307  -13.7166   20.3197 C   0  0  0  0  0  0  0  0  0  0  0  0
  -22.8396  -13.5765   21.0351 C   0  0  0  0  0  0  0  0  0  0  0  0
  -34.6751  -25.4768   18.8440 C   0  0  0  0  0  0  0  0  0  0  0  0
  -31.5176  -25.2086   18.1509 C   0  0  0  0  0  0  0  0  0  0  0  0
  -28.6340  -23.4041   18.4262 C   0  0  0  0  0  0  0  0  0  0  0  0
  -30.6998  -14.7248   20.5936 C   0  0  0  0  0  0  0  0  0  0  0  0
  -38.6644  -28.1606   17.1293 C   0  0  0  0  0  0  0  0  0  0  0  0
  -34.5683  -23.1519   17.8747 C   0  0  0  0  0  0  0  0  0  0  0  0
  -32.4352  -23.6077   19.8714 C   0  0  0  0  0  0  0  0  0  0  0  0
  -37.1496  -28.3482   17.1488 C   0  0  0  0  0  0  0  0  0  0  0  0
  -29.6390  -12.1149   18.4164 C   0  0  0  0  0  0  0  0  0  0  0  0
  -36.5969  -28.0844   18.5458 C   0  0  0  0  0  0  0  0  0  0  0  0
  -29.3169  -20.8831   23.6271 C   0  0  0  0  0  0  0  0  0  0  0  0
  -30.3220  -20.8932   24.7361 C   0  0  0  0  0  0  0  0  0  0  0  0
  -28.1819  -11.8767   18.8191 C   0  0  0  0  0  0  0  0  0  0  0  0
  -30.5146  -12.4442   19.6242 C   0  0  0  0  0  0  0  0  0  0  0  0
  -28.5698  -13.3089   20.8649 C   0  0  0  0  0  0  0  0  0  0  0  0
  -36.8700  -26.6403   18.9836 C   0  0  1  0  0  0  0  0  0  0  0  0
  -29.6562  -19.6037   24.3413 C   0  0  0  0  0  0  0  0  0  0  0  0
  -33.8792  -24.5053   18.0190 C   0  0  1  0  0  0  0  0  0  0  0  0
  -27.6364  -13.0375   19.6737 C   0  0  2  0  0  0  0  0  0  0  0  0
  -26.2076  -23.4587   17.7885 C   0  0  0  0  0  0  0  0  0  0  0  0
  -30.9896  -27.2623   20.3448 C   0  0  0  0  0  0  0  0  0  0  0  0
  -28.5826  -26.5745   20.3130 C   0  0  0  0  0  0  0  0  0  0  0  0
  -29.6201  -27.5713   18.2752 C   0  0  0  0  0  0  0  0  0  0  0  0
  -28.8763  -20.9193   16.8369 C   0  0  0  0  0  0  0  0  0  0  0  0
  -34.0166  -17.6965   23.4163 C   0  0  0  0  0  0  0  0  0  0  0  0
  -34.7391  -18.5834   22.4081 C   0  0  0  0  0  0  0  0  0  1  0  0
  -30.2415  -25.2175   18.9574 C   0  0  1  0  0  0  0  0  0  0  0  0
  -27.6004  -22.9933   17.3932 C   0  0  2  0  0  0  0  0  0  0  0  0
  -29.8789  -26.6372   19.4774 C   0  0  0  0  0  0  0  0  0  0  0  0
  -25.8104  -11.5232   20.3475 N   0  0  0  0  0  0  0  0  0  0  0  0
  -31.7928  -18.5985   23.8319 N   0  0  0  0  0  0  0  0  0  0  0  0
  -26.2071  -12.7863   20.1166 N   0  0  0  0  0  0  0  0  0  0  0  0
  -32.5563  -24.4028   18.6383 N   0  0  0  0  0  0  0  0  0  0  0  0
  -29.9381  -13.5558   20.3837 N   0  0  0  0  0  0  0  0  0  0  0  0
  -28.4255  -17.6674   22.6278 N   0  0  0  0  0  0  0  0  0  0  0  0
  -25.4597  -15.0339   20.1335 N   0  0  0  0  0  0  0  0  0  0  0  0
  -21.8056  -12.7111   21.4173 N   0  0  0  0  0  0  0  0  0  0  0  0
  -30.0357  -15.7264   21.3009 N   0  0  0  0  0  0  0  0  0  0  0  0
  -35.9383  -25.7344   18.3466 N   0  0  0  0  0  0  0  0  0  0  0  0
  -29.2192  -24.6121   18.1107 N   0  0  0  0  0  0  0  0  0  0  0  0
  -27.5762  -21.5105   17.2459 N   0  3  0  0  0  0  0  0  0  0  0  0
  -22.6165  -14.8093   20.9718 O   0  0  0  0  0  0  0  0  0  0  0  0
  -34.1793  -25.9581   19.8559 O   0  0  0  0  0  0  0  0  0  0  0  0
  -31.5876  -25.8859   17.1223 O   0  0  0  0  0  0  0  0  0  0  0  0
  -28.8935  -22.7235   19.4161 O   0  0  0  0  0  0  0  0  0  0  0  0
  -31.8464  -14.8400   20.1532 O   0  0  0  0  0  0  0  0  0  0  0  0
  -21.4611   -7.1837   22.0210 O   0  0  0  0  0  0  0  0  0  0  0  0
  -34.2675  -19.9255   22.5214 O   0  0  0  0  0  0  0  0  0  1  0  0
  -23.7431   -3.3845   25.3017 F   0  0  0  0  0  0  0  0  0  0  0  0
  -20.3216   -6.5446   24.4574 F   0  0  0  0  0  0  0  0  0  0  0  0
  1  2  1  0  0  0  0
  1  5  2  0  0  0  0
  2  6  2  0  0  0  0
  3  8  2  0  0  0  0
  3 16  1  0  0  0  0
  4  9  1  0  0  0  0
  4 16  2  0  0  0  0
  5 18  1  0  0  0  0
  6 20  1  0  0  0  0
  7 10  2  0  0  0  0
  7 19  1  0  0  0  0
  8 24  1  0  0  0  0
  9 24  2  0  0  0  0
 10 25  1  0  0  0  0
 11 12  2  0  0  0  0
 11 26  1  0  0  0  0
 12 27  1  0  0  0  0
 13 21  1  0  0  0  0
 13 25  2  0  0  0  0
 14 22  2  0  0  0  0
 14 31  1  0  0  0  0
 15 27  2  0  0  0  0
 15 28  1  0  0  0  0
 16 29  1  0  0  0  0
 17 29  1  0  0  0  0
 17 32  2  0  0  0  0
 17 33  1  0  0  0  0
 18 20  2  0  0  0  0
 18 38  1  0  0  0  0
 19 21  2  0  0  0  0
 19 39  1  0  0  0  0
 20 49  1  0  0  0  0
 21 40  1  0  0  0  0
 22 23  1  0  0  0  0
 22 71  1  0  0  0  0
 23 30  2  0  0  0  0
 23 68  1  0  0  0  0
 24 80  1  0  0  0  0
 25 81  1  0  0  0  0
 26 28  2  0  0  0  0
 26 80  1  0  0  0  0
 27 82  1  0  0  0  0
 28 83  1  0  0  0  0
 29 63  2  0  0  0  0
 30 50  1  0  0  0  0
 30 64  1  0  0  0  0
 31 58  1  0  0  0  0
 31 64  2  0  0  0  0
 32 65  1  0  0  0  0
 32 69  1  0  0  0  0
 33 70  1  0  0  0  0
 33 75  2  0  0  0  0
 34 51  1  0  0  0  0
 34 72  1  0  0  0  0
 34 76  2  0  0  0  0
 35 60  1  0  0  0  0
 35 66  1  0  0  0  0
 35 77  2  0  0  0  0
 36 61  1  0  0  0  0
 36 73  1  0  0  0  0
 36 78  2  0  0  0  0
 37 67  1  0  0  0  0
 37 71  1  0  0  0  0
 37 79  2  0  0  0  0
 38 41  1  0  0  0  0
 39 51  1  0  0  0  0
 40 66  1  0  0  0  0
 41 43  1  0  0  0  0
 42 46  1  0  0  0  0
 42 47  1  0  0  0  0
 43 49  1  0  0  0  0
 44 45  1  0  0  0  0
 44 50  1  0  0  0  0
 45 50  1  0  0  0  0
 46 52  1  0  0  0  0
 47 67  1  0  0  0  0
 48 52  1  0  0  0  0
 48 67  1  0  0  0  0
 49 72  1  0  0  0  0
 51 66  1  0  0  0  0
 52 65  1  0  0  0  0
 53 61  1  0  0  0  0
 54 62  1  0  0  0  0
 55 62  1  0  0  0  0
 56 62  1  0  0  0  0
 57 74  1  0  0  0  0
 58 59  1  0  0  0  0
 59 81  1  0  0  0  0
 60 62  1  0  0  0  0
 60 73  1  0  0  0  0
 61 74  1  0  0  0  0
 63 65  1  0  0  0  0
M  CHG  1  74   1
M  ISO  4  37 100  59 101  71 100  81 101
M  END
> <Batch ID>
0141

> <Smiles>
CNC(C)C(=O)NC(C(=O)N1Cc2cc([101O:1][101CH2:1]Cc3cc([100NH:0][100C:0](=O)N4CCCC(n5nc(-c6ccc(Oc7ccc(F)cc7F)cc6)c(C(N)=O)c5N)C4)c(N)c(C4CC4)n3)ccc2CC1C(=O)NC1CCCc2ccccc21)C(C)(C)C

> <Shape>
0.236

> <Color>
0.205

> <Negative vol penalty>
0.000

$$$$

  -OEChem-04052321163D

 82 90  0     1  0  0  0  0  0999 V2000
  -26.9646  -35.1523   23.4495 C   0  0  0  0  0  0  0  0  0  0  0  0
  -27.3437  -33.8377   23.1978 C   0  0  0  0  0  0  0  0  0  0  0  0
  -25.2940   -9.7071   20.9187 C   0  0  0  0  0  0  0  0  0  0  0  0
  -26.3906  -10.8264   22.7577 C   0  0  0  0  0  0  0  0  0  0  0  0
  -25.6779  -35.4296   23.9095 C   0  0  0  0  0  0  0  0  0  0  0  0
  -26.4367  -32.7994   23.4069 C   0  0  0  0  0  0  0  0  0  0  0  0
  -26.4139  -29.4458   19.6125 C   0  0  0  0  0  0  0  0  0  0  0  0
  -25.6764   -8.4721   21.4424 C   0  0  0  0  0  0  0  0  0  0  0  0
  -26.7729   -9.5914   23.2814 C   0  0  0  0  0  0  0  0  0  0  0  0
  -27.4550  -28.5192   19.5754 C   0  0  0  0  0  0  0  0  0  0  0  0
  -24.6616   -6.3884   23.9044 C   0  0  0  0  0  0  0  0  0  0  0  0
  -23.7019   -5.3771   23.9469 C   0  0  0  0  0  0  0  0  0  0  0  0
  -26.0055  -26.8603   20.5585 C   0  0  0  0  0  0  0  0  0  0  0  0
  -25.0925   -3.9982   22.5319 C   0  0  0  0  0  0  0  0  0  0  0  0
  -25.6511  -10.8843   21.5763 C   0  0  0  0  0  0  0  0  0  0  0  0
  -23.9456  -12.6165   20.8030 C   0  0  0  0  0  0  0  0  0  0  0  0
  -24.7516  -34.3951   24.1152 C   0  0  0  0  0  0  0  0  0  0  0  0
  -25.1619  -29.0892   20.1338 C   0  0  0  0  0  0  0  0  0  0  0  0
  -25.1369  -33.0630   23.8714 C   0  0  0  0  0  0  0  0  0  0  0  0
  -24.9494  -27.7835   20.5987 C   0  0  0  0  0  0  0  0  0  0  0  0
  -26.4158   -8.4143   22.6237 C   0  0  0  0  0  0  0  0  0  0  0  0
  -27.2517  -27.2271   20.0512 C   0  0  0  0  0  0  0  0  0  0  0  0
  -25.8368   -6.2047   23.1756 C   0  0  0  0  0  0  0  0  0  0  0  0
  -23.9174   -4.1820   23.2607 C   0  0  0  0  0  0  0  0  0  0  0  0
  -26.0522   -5.0095   22.4894 C   0  0  0  0  0  0  0  0  0  0  0  0
  -25.2569  -12.1603   21.0356 C   0  0  0  0  0  0  0  0  0  0  0  0
  -24.1077  -13.8789   20.2868 C   0  0  0  0  0  0  0  0  0  0  0  0
  -22.6929  -11.9581   21.0332 C   0  0  0  0  0  0  0  0  0  0  0  0
  -23.3845  -30.0790   22.5761 C   0  0  0  0  0  0  0  0  0  0  0  0
  -21.1996  -28.0464   21.3045 C   0  0  0  0  0  0  0  0  0  0  0  0
  -20.5751  -25.2979   19.3802 C   0  0  0  0  0  0  0  0  0  0  0  0
  -28.7322  -17.6946   20.8417 C   0  0  0  0  0  0  0  0  0  0  0  0
  -23.3875  -34.7396   24.6585 C   0  0  0  0  0  0  0  0  0  0  0  0
  -24.0413  -30.0925   20.1421 C   0  0  0  0  0  0  0  0  0  0  0  0
  -23.6181  -27.3447   21.1495 C   0  0  0  0  0  0  0  0  0  0  0  0
  -22.3662  -33.6166   24.4972 C   0  0  0  0  0  0  0  0  0  0  0  0
  -27.9140  -15.3775   17.8853 C   0  0  0  0  0  0  0  0  0  0  0  0
  -22.9659  -32.2830   24.9317 C   0  0  0  0  0  0  0  0  0  0  0  0
  -32.1034  -21.3233   21.0474 C   0  0  0  0  0  0  0  0  0  0  0  0
  -29.7858  -22.1490   21.6257 C   0  0  0  0  0  0  0  0  0  0  0  0
  -26.4293  -15.3069   18.2295 C   0  0  0  0  0  0  0  0  0  0  0  0
  -31.4973  -20.1113   20.3392 C   0  0  0  0  0  0  0  0  0  0  0  0
  -29.1756  -20.9380   20.9192 C   0  0  0  0  0  0  0  0  0  0  0  0
  -28.5783  -16.5656   18.5741 C   0  0  0  0  0  0  0  0  0  0  0  0
  -27.4490  -15.5871   20.5715 C   0  0  0  0  0  0  0  0  0  0  0  0
  -24.1734  -31.9118   24.0625 C   0  0  1  0  0  0  0  0  0  0  0  0
  -22.9592  -29.7712   21.1683 C   0  0  1  0  0  0  0  0  0  0  0  0
  -31.1646  -22.5380   21.0734 C   0  0  0  0  0  0  0  0  0  0  0  0
  -26.1703  -15.3400   19.7516 C   0  0  2  0  0  0  0  0  0  0  0  0
  -30.1326  -19.7447   20.9264 C   0  0  0  0  0  0  0  0  0  0  0  0
  -18.6935  -23.8564   18.5561 C   0  0  0  0  0  0  0  0  0  0  0  0
  -32.4087  -23.3367   19.0156 C   0  0  0  0  0  0  0  0  0  0  0  0
  -20.9982  -26.7411   24.0551 C   0  0  0  0  0  0  0  0  0  0  0  0
  -19.8797  -24.7832   22.9670 C   0  0  0  0  0  0  0  0  0  0  0  0
  -18.8116  -27.0357   22.8775 C   0  0  0  0  0  0  0  0  0  0  0  0
  -21.1812  -25.9226   16.5516 C   0  0  0  0  0  0  0  0  0  0  0  0
  -29.8290  -25.1065   18.6508 C   0  0  0  0  0  0  0  0  0  0  0  0
  -29.2266  -26.4604   18.9704 C   0  0  0  0  0  0  0  0  0  1  0  0
  -20.8703  -26.5837   21.4812 C   0  0  1  0  0  0  0  0  0  0  0  0
  -19.5784  -25.0574   18.2607 C   0  0  2  0  0  0  0  0  0  0  0  0
  -31.0564  -23.1989   19.6965 C   0  0  2  0  0  0  0  0  0  0  0  0
  -20.1657  -26.2945   22.8367 C   0  0  0  0  0  0  0  0  0  0  0  0
  -26.1838  -13.0596   20.6949 N   0  0  0  0  0  0  0  0  0  0  0  0
  -25.4539  -14.0936   20.2428 N   0  0  0  0  0  0  0  0  0  0  0  0
  -22.5556  -28.3638   21.1422 N   0  0  0  0  0  0  0  0  0  0  0  0
  -28.2552  -16.6688   20.0028 N   0  0  0  0  0  0  0  0  0  0  0  0
  -23.2287  -14.8151   19.8705 N   0  0  0  0  0  0  0  0  0  0  0  0
  -22.0710  -12.1217   22.2785 N   0  0  0  0  0  0  0  0  0  0  0  0
  -23.7357  -31.3995   22.7817 N   0  0  0  0  0  0  0  0  0  0  0  0
  -20.0931  -26.1959   20.3090 N   0  0  0  0  0  0  0  0  0  0  0  0
  -29.5537  -18.6281   20.2147 N   0  0  0  0  0  0  0  0  0  0  0  0
  -20.2921  -24.8107   16.9759 N   0  3  0  0  0  0  0  0  0  0  0  0
  -30.4748  -24.5574   19.8697 N   0  3  0  0  0  0  0  0  0  0  0  0
  -22.1495  -11.2325   20.1662 O   0  0  0  0  0  0  0  0  0  0  0  0
  -23.3920  -29.1850   23.4142 O   0  0  0  0  0  0  0  0  0  0  0  0
  -20.2867  -28.8760   21.3031 O   0  0  0  0  0  0  0  0  0  0  0  0
  -21.6701  -24.7418   19.4281 O   0  0  0  0  0  0  0  0  0  0  0  0
  -28.4528  -17.7697   22.0420 O   0  0  0  0  0  0  0  0  0  0  0  0
  -26.7889   -7.2094   23.1351 O   0  0  0  0  0  0  0  0  0  0  0  0
  -28.2664  -26.3209   20.0168 O   0  0  0  0  0  0  0  0  0  1  0  0
  -22.9964   -3.2103   23.3028 F   0  0  0  0  0  0  0  0  0  0  0  0
  -27.1797   -4.8267   21.7886 F   0  0  0  0  0  0  0  0  0  0  0  0
  1  2  1  0  0  0  0
  1  5  2  0  0  0  0
  2  6  2  0  0  0  0
  3  8  2  0  0  0  0
  3 15  1  0  0  0  0
  4  9  1  0  0  0  0
  4 15  2  0  0  0  0
  5 17  1  0  0  0  0
  6 19  1  0  0  0  0
  7 10  2  0  0  0  0
  7 18  1  0  0  0  0
  8 21  1  0  0  0  0
  9 21  2  0  0  0  0
 10 22  1  0  0  0  0
 11 12  2  0  0  0  0
 11 23  1  0  0  0  0
 12 24  1  0  0  0  0
 13 20  1  0  0  0  0
 13 22  2  0  0  0  0
 14 24  2  0  0  0  0
 14 25  1  0  0  0  0
 15 26  1  0  0  0  0
 16 26  1  0  0  0  0
 16 27  2  0  0  0  0
 16 28  1  0  0  0  0
 17 19  2  0  0  0  0
 17 33  1  0  0  0  0
 18 20  2  0  0  0  0
 18 34  1  0  0  0  0
 19 46  1  0  0  0  0
 20 35  1  0  0  0  0
 21 79  1  0  0  0  0
 22 80  1  0  0  0  0
 23 25  2  0  0  0  0
 23 79  1  0  0  0  0
 24 81  1  0  0  0  0
 25 82  1  0  0  0  0
 26 63  2  0  0  0  0
 27 64  1  0  0  0  0
 27 67  1  0  0  0  0
 28 68  1  0  0  0  0
 28 74  2  0  0  0  0
 29 47  1  0  0  0  0
 29 69  1  0  0  0  0
 29 75  2  0  0  0  0
 30 59  1  0  0  0  0
 30 65  1  0  0  0  0
 30 76  2  0  0  0  0
 31 60  1  0  0  0  0
 31 70  1  0  0  0  0
 31 77  2  0  0  0  0
 32 66  1  0  0  0  0
 32 71  1  0  0  0  0
 32 78  2  0  0  0  0
 33 36  1  0  0  0  0
 34 47  1  0  0  0  0
 35 65  1  0  0  0  0
 36 38  1  0  0  0  0
 37 41  1  0  0  0  0
 37 44  1  0  0  0  0
 38 46  1  0  0  0  0
 39 42  1  0  0  0  0
 39 48  1  0  0  0  0
 40 43  1  0  0  0  0
 40 48  1  0  0  0  0
 41 49  1  0  0  0  0
 42 50  1  0  0  0  0
 43 50  1  0  0  0  0
 44 66  1  0  0  0  0
 45 49  1  0  0  0  0
 45 66  1  0  0  0  0
 46 69  1  0  0  0  0
 47 65  1  0  0  0  0
 48 61  1  0  0  0  0
 49 64  1  0  0  0  0
 50 71  1  0  0  0  0
 51 60  1  0  0  0  0
 52 61  1  0  0  0  0
 53 62  1  0  0  0  0
 54 62  1  0  0  0  0
 55 62  1  0  0  0  0
 56 72  1  0  0  0  0
 57 58  1  0  0  0  0
 57 73  1  0  0  0  0
 58 80  1  0  0  0  0
 59 62  1  0  0  0  0
 59 70  1  0  0  0  0
 60 72  1  0  0  0  0
 61 73  1  0  0  0  0
 63 64  1  0  0  0  0
M  CHG  2  72   1  73   1
M  ISO  4  32 100  58 101  71 100  80 101
M  END
> <Batch ID>
0141

> <Smiles>
CNC(C)C(=O)NC(C(=O)N1Cc2cc([101O:1][101CH2:1]CNC(C)C3CCC([100NH:0][100C:0](=O)N4CCCC(n5nc(-c6ccc(Oc7ccc(F)cc7F)cc6)c(C(N)=O)c5N)C4)CC3)ccc2CC1C(=O)NC1CCCc2ccccc21)C(C)(C)C

> <Shape>
0.283

> <Color>
0.086

> <Negative vol penalty>
0.000

$$$$

  -OEChem-04052321163D

 87 96  0     1  0  0  0  0  0999 V2000
  -17.0765  -29.1279   24.5724 C   0  0  0  0  0  0  0  0  0  0  0  0
  -17.1651  -28.4775   23.3458 C   0  0  0  0  0  0  0  0  0  0  0  0
  -26.4928  -11.9761   21.2891 C   0  0  0  0  0  0  0  0  0  0  0  0
  -25.6417  -13.7046   19.8315 C   0  0  0  0  0  0  0  0  0  0  0  0
  -18.0401  -30.0689   24.9324 C   0  0  0  0  0  0  0  0  0  0  0  0
  -18.2169  -28.7688   22.4779 C   0  0  0  0  0  0  0  0  0  0  0  0
  -22.7445  -23.6158   20.2781 C   0  0  0  0  0  0  0  0  0  0  0  0
  -25.3226  -11.2408   21.1005 C   0  0  0  0  0  0  0  0  0  0  0  0
  -24.4714  -12.9694   19.6429 C   0  0  0  0  0  0  0  0  0  0  0  0
  -23.5252  -22.6477   19.6460 C   0  0  0  0  0  0  0  0  0  0  0  0
  -28.8730  -18.8595   17.2052 C   0  0  0  0  0  0  0  0  0  0  0  0
  -29.1309  -19.8740   18.1404 C   0  0  0  0  0  0  0  0  0  0  0  0
  -22.4072   -9.0754   21.2877 C   0  0  0  0  0  0  0  0  0  0  0  0
  -21.8079   -8.5076   22.4120 C   0  0  0  0  0  0  0  0  0  0  0  0
  -24.7409  -24.3785   18.4736 C   0  0  0  0  0  0  0  0  0  0  0  0
  -21.5452  -10.7049   23.3815 C   0  0  0  0  0  0  0  0  0  0  0  0
  -26.6523  -13.2080   20.6546 C   0  0  0  0  0  0  0  0  0  0  0  0
  -29.0395  -13.9023   20.0826 C   0  0  0  0  0  0  0  0  0  0  0  0
  -19.1097  -30.3648   24.0727 C   0  0  0  0  0  0  0  0  0  0  0  0
  -22.9696  -24.9711   20.0217 C   0  0  0  0  0  0  0  0  0  0  0  0
  -19.1951  -29.7156   22.8262 C   0  0  0  0  0  0  0  0  0  0  0  0
  -23.9704  -25.3531   19.1132 C   0  0  0  0  0  0  0  0  0  0  0  0
  -26.5253  -19.2311   17.4474 C   0  0  0  0  0  0  0  0  0  0  0  0
  -26.7845  -20.2479   18.3776 C   0  0  0  0  0  0  0  0  0  0  0  0
  -24.3119  -11.7374   20.2774 C   0  0  0  0  0  0  0  0  0  0  0  0
  -24.5207  -23.0282   18.7457 C   0  0  0  0  0  0  0  0  0  0  0  0
  -27.5623  -18.5359   16.8471 C   0  0  0  0  0  0  0  0  0  0  0  0
  -28.0818  -20.5811   18.7308 C   0  0  0  0  0  0  0  0  0  0  0  0
  -22.5755  -10.4579   21.2103 C   0  0  0  0  0  0  0  0  0  0  0  0
  -21.3769   -9.3224   23.4589 C   0  0  0  0  0  0  0  0  0  0  0  0
  -22.1445  -11.2727   22.2572 C   0  0  0  0  0  0  0  0  0  0  0  0
  -27.8607  -13.9683   20.8494 C   0  0  0  0  0  0  0  0  0  0  0  0
  -29.8825  -14.8138   20.6699 C   0  0  0  0  0  0  0  0  0  0  0  0
  -29.3450  -13.0899   18.9414 C   0  0  0  0  0  0  0  0  0  0  0  0
  -22.0011  -28.5242   20.7382 C   0  0  0  0  0  0  0  0  0  0  0  0
  -25.0631  -28.4527   20.5660 C   0  0  0  0  0  0  0  0  0  0  0  0
  -28.4211  -27.8707   20.7152 C   0  0  0  0  0  0  0  0  0  0  0  0
  -28.9251  -19.7146   23.9740 C   0  0  0  0  0  0  0  0  0  0  0  0
  -20.1011  -31.4239   24.4851 C   0  0  0  0  0  0  0  0  0  0  0  0
  -22.1121  -26.0457   20.6331 C   0  0  0  0  0  0  0  0  0  0  0  0
  -24.1540  -26.8213   18.8419 C   0  0  0  0  0  0  0  0  0  0  0  0
  -21.3909  -31.4017   23.6690 C   0  0  0  0  0  0  0  0  0  0  0  0
  -30.8366  -16.8541   24.8910 C   0  0  0  0  0  0  0  0  0  0  0  0
  -21.0787  -31.2905   22.1800 C   0  0  0  0  0  0  0  0  0  0  0  0
  -30.3970  -15.7842   23.8900 C   0  0  0  0  0  0  0  0  0  0  0  0
  -24.4813  -19.7996   18.4638 C   0  0  0  0  0  0  0  0  0  0  0  0
  -29.6750  -17.7588   25.2965 C   0  0  0  0  0  0  0  0  0  0  0  0
  -28.5125  -17.3104   23.1702 C   0  0  0  0  0  0  0  0  0  0  0  0
  -20.3349  -29.9863   21.8682 C   0  0  1  0  0  0  0  0  0  0  0  0
  -25.0521  -19.1104   17.2085 C   0  0  2  0  0  0  0  0  0  0  0  0
  -25.5103  -20.8769   18.8526 C   0  0  2  0  0  0  0  0  0  1  0  0
  -22.8922  -27.3350   20.9463 C   0  0  1  0  0  0  0  0  0  0  0  0
  -29.6618  -16.4085   22.6887 C   0  0  2  0  0  0  0  0  0  0  0  0
  -30.6110  -29.0478   21.0561 C   0  0  0  0  0  0  0  0  0  0  0  0
  -24.9078  -29.5561   17.7266 C   0  0  0  0  0  0  0  0  0  0  0  0
  -27.3915  -29.8651   17.7867 C   0  0  0  0  0  0  0  0  0  0  0  0
  -25.9427  -31.1067   19.3936 C   0  0  0  0  0  0  0  0  0  0  0  0
  -29.0348  -26.2757   23.1315 C   0  0  0  0  0  0  0  0  0  0  0  0
  -28.4683  -16.9127   15.3639 C   0  0  0  0  0  0  0  0  0  0  0  0
  -29.2983  -22.1472   21.7484 C   0  0  0  0  0  0  0  0  0  0  0  0
  -28.1271  -21.5700   22.5319 C   0  0  0  0  0  0  0  0  0  0  0  0
  -29.5222  -21.4459   20.4141 C   0  0  0  0  0  0  0  0  0  0  0  0
  -26.2855  -28.6206   19.6996 C   0  0  1  0  0  0  0  0  0  0  0  0
  -29.4729  -28.2929   21.7251 C   0  0  2  0  0  0  0  0  0  0  0  0
  -26.1204  -29.7615   18.6563 C   0  0  0  0  0  0  0  0  0  0  0  0
  -27.9438  -14.8517   21.8477 N   0  0  0  0  0  0  0  0  0  0  0  0
  -29.1848  -15.3492   21.7123 N   0  0  0  0  0  0  0  0  0  0  0  0
  -24.0731  -27.5787   20.1007 N   0  0  0  0  0  0  0  0  0  0  0  0
  -29.0217  -18.3200   24.1116 N   0  0  0  0  0  0  0  0  0  0  0  0
  -31.1452  -15.2015   20.3911 N   0  0  0  0  0  0  0  0  0  0  0  0
  -28.3648  -12.2070   18.4681 N   0  0  0  0  0  0  0  0  0  0  0  0
  -21.2567  -28.8708   21.8496 N   0  0  0  0  0  0  0  0  0  0  0  0
  -27.4101  -28.8025   20.6110 N   0  0  0  0  0  0  0  0  0  0  0  0
  -28.2969  -20.1630   22.8186 N   0  0  0  0  0  0  0  0  0  0  0  0
  -24.5205  -17.7323   17.1131 N   0  3  0  0  0  0  0  0  0  0  0  0
  -30.0409  -27.0982   22.4116 N   0  3  0  0  0  0  0  0  0  0  0  0
  -30.4602  -13.1333   18.3688 O   0  0  0  0  0  0  0  0  0  0  0  0
  -21.9900  -29.0878   19.6501 O   0  0  0  0  0  0  0  0  0  0  0  0
  -24.9829  -29.0825   21.6244 O   0  0  0  0  0  0  0  0  0  0  0  0
  -28.4914  -26.8212   20.0795 O   0  0  0  0  0  0  0  0  0  0  0  0
  -29.3708  -20.5018   24.8158 O   0  0  0  0  0  0  0  0  0  0  0  0
  -23.1699  -11.0201   20.0930 O   0  0  0  0  0  0  0  0  0  0  0  0
  -25.2822  -22.0782   18.1355 O   0  0  0  0  0  0  0  0  0  1  0  0
  -27.3295  -17.5694   15.9224 O   0  0  0  0  0  0  0  0  0  0  0  0
  -28.3379  -21.5698   19.6252 O   0  0  0  0  0  0  0  0  0  0  0  0
  -20.8001   -8.7772   24.5379 F   0  0  0  0  0  0  0  0  0  0  0  0
  -22.3025  -12.6016   22.1880 F   0  0  0  0  0  0  0  0  0  0  0  0
  1  2  1  0  0  0  0
  1  5  2  0  0  0  0
  2  6  2  0  0  0  0
  3  8  2  0  0  0  0
  3 17  1  0  0  0  0
  4  9  1  0  0  0  0
  4 17  2  0  0  0  0
  5 19  1  0  0  0  0
  6 21  1  0  0  0  0
  7 10  2  0  0  0  0
  7 20  1  0  0  0  0
  8 25  1  0  0  0  0
  9 25  2  0  0  0  0
 10 26  1  0  0  0  0
 11 12  1  0  0  0  0
 11 27  2  0  0  0  0
 12 28  2  0  0  0  0
 13 14  2  0  0  0  0
 13 29  1  0  0  0  0
 14 30  1  0  0  0  0
 15 22  1  0  0  0  0
 15 26  2  0  0  0  0
 16 30  2  0  0  0  0
 16 31  1  0  0  0  0
 17 32  1  0  0  0  0
 18 32  1  0  0  0  0
 18 33  2  0  0  0  0
 18 34  1  0  0  0  0
 19 21  2  0  0  0  0
 19 39  1  0  0  0  0
 20 22  2  0  0  0  0
 20 40  1  0  0  0  0
 21 49  1  0  0  0  0
 22 41  1  0  0  0  0
 23 24  2  0  0  0  0
 23 27  1  0  0  0  0
 23 50  1  0  0  0  0
 24 28  1  0  0  0  0
 24 51  1  0  0  0  0
 25 82  1  0  0  0  0
 26 83  1  0  0  0  0
 27 84  1  0  0  0  0
 28 85  1  0  0  0  0
 29 31  2  0  0  0  0
 29 82  1  0  0  0  0
 30 86  1  0  0  0  0
 31 87  1  0  0  0  0
 32 66  2  0  0  0  0
 33 67  1  0  0  0  0
 33 70  1  0  0  0  0
 34 71  1  0  0  0  0
 34 77  2  0  0  0  0
 35 52  1  0  0  0  0
 35 72  1  0  0  0  0
 35 78  2  0  0  0  0
 36 63  1  0  0  0  0
 36 68  1  0  0  0  0
 36 79  2  0  0  0  0
 37 64  1  0  0  0  0
 37 73  1  0  0  0  0
 37 80  2  0  0  0  0
 38 69  1  0  0  0  0
 38 74  1  0  0  0  0
 38 81  2  0  0  0  0
 39 42  1  0  0  0  0
 40 52  1  0  0  0  0
 41 68  1  0  0  0  0
 42 44  1  0  0  0  0
 43 45  1  0  0  0  0
 43 47  1  0  0  0  0
 44 49  1  0  0  0  0
 45 53  1  0  0  0  0
 46 50  1  0  0  0  0
 46 51  1  0  0  0  0
 47 69  1  0  0  0  0
 48 53  1  0  0  0  0
 48 69  1  0  0  0  0
 49 72  1  0  0  0  0
 50 75  1  0  0  0  0
 51 83  1  0  0  0  0
 52 68  1  0  0  0  0
 53 67  1  0  0  0  0
 54 64  1  0  0  0  0
 55 65  1  0  0  0  0
 56 65  1  0  0  0  0
 57 65  1  0  0  0  0
 58 76  1  0  0  0  0
 59 84  1  0  0  0  0
 60 61  1  0  0  0  0
 60 62  1  0  0  0  0
 61 74  1  0  0  0  0
 62 85  1  0  0  0  0
 63 65  1  0  0  0  0
 63 73  1  0  0  0  0
 64 76  1  0  0  0  0
 66 67  1  0  0  0  0
M  CHG  2  75   1  76   1
M  ISO  4  38 100  51 101  74 100  83 101
M  END
> <Batch ID>
0141

> <Smiles>
CNC(C)C(=O)NC(C(=O)N1Cc2cc([101O:1][101CH:1]3CC(N)c4c(OC)ccc(OCCC[100NH:0][100C:0](=O)N5CCCC(n6nc(-c7ccc(Oc8ccc(F)cc8F)cc7)c(C(N)=O)c6N)C5)c43)ccc2CC1C(=O)NC1CCCc2ccccc21)C(C)(C)C

> <Shape>
0.251

> <Color>
0.072

> <Negative vol penalty>
0.000

$$$$

  -OEChem-04052321163D

 80 88  0     1  0  0  0  0  0999 V2000
  -32.6544  -25.3068   17.7593 C   0  0  0  0  0  0  0  0  0  0  0  0
  -31.3778  -25.6107   17.2976 C   0  0  0  0  0  0  0  0  0  0  0  0
  -27.6495  -15.2459   21.1773 C   0  0  0  0  0  0  0  0  0  0  0  0
  -25.8720  -15.4974   19.5605 C   0  0  0  0  0  0  0  0  0  0  0  0
  -32.8835  -25.1607   19.1269 C   0  0  0  0  0  0  0  0  0  0  0  0
  -30.3291  -25.7677   18.2032 C   0  0  0  0  0  0  0  0  0  0  0  0
  -25.6099  -29.6428   17.7356 C   0  0  0  0  0  0  0  0  0  0  0  0
  -27.3639  -13.8844   21.2795 C   0  0  0  0  0  0  0  0  0  0  0  0
  -25.5864  -14.1359   19.6626 C   0  0  0  0  0  0  0  0  0  0  0  0
  -24.2960  -29.4727   17.3014 C   0  0  0  0  0  0  0  0  0  0  0  0
  -23.9583  -12.0855   21.8017 C   0  0  0  0  0  0  0  0  0  0  0  0
  -22.6193  -11.7107   21.9122 C   0  0  0  0  0  0  0  0  0  0  0  0
  -23.5862  -29.1704   19.5871 C   0  0  0  0  0  0  0  0  0  0  0  0
  -22.8122  -10.4217   19.8779 C   0  0  0  0  0  0  0  0  0  0  0  0
  -26.9035  -16.0524   20.3178 C   0  0  0  0  0  0  0  0  0  0  0  0
  -28.4115  -18.0456   19.8071 C   0  0  0  0  0  0  0  0  0  0  0  0
  -31.8391  -25.3254   20.0503 C   0  0  0  0  0  0  0  0  0  0  0  0
  -25.9241  -29.5670   19.1002 C   0  0  0  0  0  0  0  0  0  0  0  0
  -30.5441  -25.6223   19.5843 C   0  0  0  0  0  0  0  0  0  0  0  0
  -24.9045  -29.3424   20.0362 C   0  0  0  0  0  0  0  0  0  0  0  0
  -26.3324  -13.3294   20.5221 C   0  0  0  0  0  0  0  0  0  0  0  0
  -23.2844  -29.2335   18.2269 C   0  0  0  0  0  0  0  0  0  0  0  0
  -24.7242  -11.6285   20.7292 C   0  0  0  0  0  0  0  0  0  0  0  0
  -22.0462  -10.8788   20.9504 C   0  0  0  0  0  0  0  0  0  0  0  0
  -24.1512  -10.7966   19.7674 C   0  0  0  0  0  0  0  0  0  0  0  0
  -27.1976  -17.4590   20.2123 C   0  0  0  0  0  0  0  0  0  0  0  0
  -28.1793  -19.3976   19.8759 C   0  0  0  0  0  0  0  0  0  0  0  0
  -29.6391  -17.4239   19.4043 C   0  0  0  0  0  0  0  0  0  0  0  0
  -27.7568  -27.6740   20.8782 C   0  0  0  0  0  0  0  0  0  0  0  0
  -26.9716  -29.7707   23.2256 C   0  0  0  0  0  0  0  0  0  0  0  0
  -24.7791  -32.0994   24.4158 C   0  0  0  0  0  0  0  0  0  0  0  0
  -23.2124  -22.5618   19.4603 C   0  0  0  0  0  0  0  0  0  0  0  0
  -32.1252  -25.1111   21.5156 C   0  0  0  0  0  0  0  0  0  0  0  0
  -27.3421  -29.7793   19.5546 C   0  0  0  0  0  0  0  0  0  0  0  0
  -25.1862  -29.2721   21.5141 C   0  0  0  0  0  0  0  0  0  0  0  0
  -31.0390  -25.6629   22.4353 C   0  0  0  0  0  0  0  0  0  0  0  0
  -25.5457  -22.6301   22.2259 C   0  0  0  0  0  0  0  0  0  0  0  0
  -29.6572  -25.2544   21.9346 C   0  0  0  0  0  0  0  0  0  0  0  0
  -19.8313  -26.0625   18.5331 C   0  0  0  0  0  0  0  0  0  0  0  0
  -21.8825  -26.3169   17.0785 C   0  0  0  0  0  0  0  0  0  0  0  0
  -26.3520  -21.3545   21.9751 C   0  0  0  0  0  0  0  0  0  0  0  0
  -20.6362  -25.2220   19.5249 C   0  0  0  0  0  0  0  0  0  0  0  0
  -22.6908  -25.4761   18.0673 C   0  0  0  0  0  0  0  0  0  0  0  0
  -24.0740  -22.4316   21.8756 C   0  0  0  0  0  0  0  0  0  0  0  0
  -24.6351  -20.6843   20.2307 C   0  0  0  0  0  0  0  0  0  0  0  0
  -29.3860  -25.8246   20.5372 C   0  0  1  0  0  0  0  0  0  0  0  0
  -27.6282  -29.1704   20.9238 C   0  0  1  0  0  0  0  0  0  0  0  0
  -20.6986  -27.0441   17.7320 C   0  0  0  0  0  0  0  0  0  0  0  0
  -26.1356  -20.8269   20.5444 C   0  0  2  0  0  0  0  0  0  0  0  0
  -21.7963  -24.5011   18.8350 C   0  0  0  0  0  0  0  0  0  0  0  0
  -20.4121  -30.2347   19.9387 C   0  0  0  0  0  0  0  0  0  0  0  0
  -24.3856  -33.6125   26.3787 C   0  0  0  0  0  0  0  0  0  0  0  0
  -26.0507  -27.3790   24.8815 C   0  0  0  0  0  0  0  0  0  0  0  0
  -24.8259  -28.9727   26.3742 C   0  0  0  0  0  0  0  0  0  0  0  0
  -27.3077  -29.1167   26.1679 C   0  0  0  0  0  0  0  0  0  0  0  0
  -24.9059  -34.5224   22.7212 C   0  0  0  0  0  0  0  0  0  0  0  0
  -19.9745  -29.0337   19.1103 C   0  0  0  0  0  0  0  0  0  0  0  0
  -25.8578  -29.8724   24.2395 C   0  0  1  0  0  0  0  0  0  0  0  0
  -24.9975  -33.4867   24.9922 C   0  0  2  0  0  0  0  0  0  0  0  0
  -21.1639  -28.2212   18.5936 C   0  0  2  0  0  0  0  0  0  1  0  0
  -26.0052  -28.8345   25.3878 C   0  0  0  0  0  0  0  0  0  0  0  0
  -26.2636  -18.3642   20.5162 N   0  0  0  0  0  0  0  0  0  0  0  0
  -26.8908  -19.5333   20.3019 N   0  0  0  0  0  0  0  0  0  0  0  0
  -26.5894  -29.4799   21.9083 N   0  0  0  0  0  0  0  0  0  0  0  0
  -23.9364  -21.9466   20.4950 N   0  0  0  0  0  0  0  0  0  0  0  0
  -28.9538  -20.4716   19.6131 N   0  0  0  0  0  0  0  0  0  0  0  0
  -29.8240  -17.1274   18.0471 N   0  0  0  0  0  0  0  0  0  0  0  0
  -29.0391  -27.2271   20.6222 N   0  0  0  0  0  0  0  0  0  0  0  0
  -25.8392  -31.2606   24.6876 N   0  0  0  0  0  0  0  0  0  0  0  0
  -22.5742  -23.7498   19.7950 N   0  0  0  0  0  0  0  0  0  0  0  0
  -24.3797  -34.5171   24.1105 N   0  3  0  0  0  0  0  0  0  0  0  0
  -30.5384  -17.1249   20.2261 O   0  0  0  0  0  0  0  0  0  0  0  0
  -26.7663  -26.9766   21.0632 O   0  0  0  0  0  0  0  0  0  0  0  0
  -28.1371  -29.9499   23.5875 O   0  0  0  0  0  0  0  0  0  0  0  0
  -23.7674  -31.7896   23.7905 O   0  0  0  0  0  0  0  0  0  0  0  0
  -23.1440  -22.0899   18.3202 O   0  0  0  0  0  0  0  0  0  0  0  0
  -26.0536  -12.0009   20.6213 O   0  0  0  0  0  0  0  0  0  0  0  0
  -22.0012  -29.0665   17.8058 O   0  0  0  0  0  0  0  0  0  1  0  0
  -20.7608  -10.5177   21.0575 F   0  0  0  0  0  0  0  0  0  0  0  0
  -24.8823  -10.3534   18.7355 F   0  0  0  0  0  0  0  0  0  0  0  0
  1  2  1  0  0  0  0
  1  5  2  0  0  0  0
  2  6  2  0  0  0  0
  3  8  2  0  0  0  0
  3 15  1  0  0  0  0
  4  9  1  0  0  0  0
  4 15  2  0  0  0  0
  5 17  1  0  0  0  0
  6 19  1  0  0  0  0
  7 10  2  0  0  0  0
  7 18  1  0  0  0  0
  8 21  1  0  0  0  0
  9 21  2  0  0  0  0
 10 22  1  0  0  0  0
 11 12  2  0  0  0  0
 11 23  1  0  0  0  0
 12 24  1  0  0  0  0
 13 20  1  0  0  0  0
 13 22  2  0  0  0  0
 14 24  2  0  0  0  0
 14 25  1  0  0  0  0
 15 26  1  0  0  0  0
 16 26  1  0  0  0  0
 16 27  2  0  0  0  0
 16 28  1  0  0  0  0
 17 19  2  0  0  0  0
 17 33  1  0  0  0  0
 18 20  2  0  0  0  0
 18 34  1  0  0  0  0
 19 46  1  0  0  0  0
 20 35  1  0  0  0  0
 21 77  1  0  0  0  0
 22 78  1  0  0  0  0
 23 25  2  0  0  0  0
 23 77  1  0  0  0  0
 24 79  1  0  0  0  0
 25 80  1  0  0  0  0
 26 62  2  0  0  0  0
 27 63  1  0  0  0  0
 27 66  1  0  0  0  0
 28 67  1  0  0  0  0
 28 72  2  0  0  0  0
 29 47  1  0  0  0  0
 29 68  1  0  0  0  0
 29 73  2  0  0  0  0
 30 58  1  0  0  0  0
 30 64  1  0  0  0  0
 30 74  2  0  0  0  0
 31 59  1  0  0  0  0
 31 69  1  0  0  0  0
 31 75  2  0  0  0  0
 32 65  1  0  0  0  0
 32 70  1  0  0  0  0
 32 76  2  0  0  0  0
 33 36  1  0  0  0  0
 34 47  1  0  0  0  0
 35 64  1  0  0  0  0
 36 38  1  0  0  0  0
 37 41  1  0  0  0  0
 37 44  1  0  0  0  0
 38 46  1  0  0  0  0
 39 42  1  0  0  0  0
 39 48  1  0  0  0  0
 40 43  1  0  0  0  0
 40 48  1  0  0  0  0
 41 49  1  0  0  0  0
 42 50  1  0  0  0  0
 43 50  1  0  0  0  0
 44 65  1  0  0  0  0
 45 49  1  0  0  0  0
 45 65  1  0  0  0  0
 46 68  1  0  0  0  0
 47 64  1  0  0  0  0
 48 60  1  0  0  0  0
 49 63  1  0  0  0  0
 50 70  1  0  0  0  0
 51 57  1  0  0  0  0
 52 59  1  0  0  0  0
 53 61  1  0  0  0  0
 54 61  1  0  0  0  0
 55 61  1  0  0  0  0
 56 71  1  0  0  0  0
 57 60  1  0  0  0  0
 58 61  1  0  0  0  0
 58 69  1  0  0  0  0
 59 71  1  0  0  0  0
 60 78  1  0  0  0  0
 62 63  1  0  0  0  0
M  CHG  1  71   1
M  ISO  4  32 100  60 101  70 100  78 101
M  END
> <Batch ID>
0141

> <Smiles>
CC[101CH:1](C1CCC([100NH:0][100C:0](=O)N2CCCC(n3nc(-c4ccc(Oc5ccc(F)cc5F)cc4)c(C(N)=O)c3N)C2)CC1)[101O:1]c1ccc2c(c1)CN(C(=O)C(NC(=O)C(C)NC)C(C)(C)C)C(C(=O)NC1CCCc3ccccc31)C2

> <Shape>
0.235

> <Color>
0.070

> <Negative vol penalty>
0.000

$$$$

  -OEChem-04052321163D

 91100  0     1  0  0  0  0  0999 V2000
  -38.1773  -26.1285   15.1767 C   0  0  0  0  0  0  0  0  0  0  0  0
  -37.6199  -25.5732   16.3240 C   0  0  0  0  0  0  0  0  0  0  0  0
  -23.1265   -9.8402   19.9140 C   0  0  0  0  0  0  0  0  0  0  0  0
  -23.6333   -9.9644   22.2730 C   0  0  0  0  0  0  0  0  0  0  0  0
  -37.7910  -27.4023   14.7617 C   0  0  0  0  0  0  0  0  0  0  0  0
  -36.6766  -26.2919   17.0577 C   0  0  0  0  0  0  0  0  0  0  0  0
  -32.7096  -23.4574   18.4264 C   0  0  0  0  0  0  0  0  0  0  0  0
  -29.9086  -18.7982   22.4950 C   0  0  0  0  0  0  0  0  0  0  0  0
  -22.3523   -8.7022   20.1402 C   0  0  0  0  0  0  0  0  0  0  0  0
  -22.8590   -8.8264   22.4992 C   0  0  0  0  0  0  0  0  0  0  0  0
  -32.8853  -22.5967   19.5091 C   0  0  0  0  0  0  0  0  0  0  0  0
  -29.3991  -19.9947   21.9908 C   0  0  0  0  0  0  0  0  0  0  0  0
  -23.1866   -5.4799   22.1471 C   0  0  0  0  0  0  0  0  0  0  0  0
  -23.7138   -4.4922   22.9791 C   0  0  0  0  0  0  0  0  0  0  0  0
  -31.7749  -24.1858   20.9447 C   0  0  0  0  0  0  0  0  0  0  0  0
  -30.2114  -19.4137   19.7909 C   0  0  0  0  0  0  0  0  0  0  0  0
  -21.8386   -4.7552   24.4796 C   0  0  0  0  0  0  0  0  0  0  0  0
  -23.7671  -10.4713   20.9804 C   0  0  0  0  0  0  0  0  0  0  0  0
  -24.1367  -12.9865   20.7695 C   0  0  0  0  0  0  0  0  0  0  0  0
  -36.8354  -28.1330   15.4852 C   0  0  0  0  0  0  0  0  0  0  0  0
  -32.0739  -24.6955   18.5972 C   0  0  0  0  0  0  0  0  0  0  0  0
  -36.2782  -27.5772   16.6527 C   0  0  0  0  0  0  0  0  0  0  0  0
  -30.5697  -17.9094   21.6472 C   0  0  0  0  0  0  0  0  0  0  0  0
  -31.5901  -25.0592   19.8621 C   0  0  0  0  0  0  0  0  0  0  0  0
  -30.7210  -18.2171   20.2951 C   0  0  0  0  0  0  0  0  0  0  0  0
  -22.2185   -8.1954   21.4328 C   0  0  0  0  0  0  0  0  0  0  0  0
  -32.4205  -22.9621   20.7690 C   0  0  0  0  0  0  0  0  0  0  0  0
  -29.5504  -20.3025   20.6387 C   0  0  0  0  0  0  0  0  0  0  0  0
  -21.9854   -6.1053   22.4814 C   0  0  0  0  0  0  0  0  0  0  0  0
  -23.0398   -4.1299   24.1453 C   0  0  0  0  0  0  0  0  0  0  0  0
  -21.3114   -5.7429   23.6476 C   0  0  0  0  0  0  0  0  0  0  0  0
  -24.5675  -11.6465   20.7473 C   0  0  0  0  0  0  0  0  0  0  0  0
  -25.2667  -13.7152   20.4892 C   0  0  0  0  0  0  0  0  0  0  0  0
  -22.8317  -13.5246   21.0210 C   0  0  0  0  0  0  0  0  0  0  0  0
  -32.9405  -27.7316   18.2303 C   0  0  0  0  0  0  0  0  0  0  0  0
  -29.8106  -28.2957   18.8689 C   0  0  0  0  0  0  0  0  0  0  0  0
  -26.9064  -27.2196   20.3023 C   0  0  0  0  0  0  0  0  0  0  0  0
  -30.9631  -13.1776   21.8065 C   0  0  0  0  0  0  0  0  0  0  0  0
  -36.4844  -29.5254   15.0239 C   0  0  0  0  0  0  0  0  0  0  0  0
  -31.8683  -25.6009   17.4139 C   0  0  0  0  0  0  0  0  0  0  0  0
  -30.8828  -26.3685   20.0942 C   0  0  0  0  0  0  0  0  0  0  0  0
  -35.2020  -30.0689   15.6487 C   0  0  0  0  0  0  0  0  0  0  0  0
  -29.6035  -12.7588   18.3433 C   0  0  0  0  0  0  0  0  0  0  0  0
  -35.1928  -29.8171   17.1531 C   0  0  0  0  0  0  0  0  0  0  0  0
  -28.1310  -12.4813   18.6415 C   0  0  0  0  0  0  0  0  0  0  0  0
  -32.0357  -15.4222   24.2618 C   0  0  0  0  0  0  0  0  0  0  0  0
  -30.4963  -12.2963   19.4887 C   0  0  0  0  0  0  0  0  0  0  0  0
  -31.0011  -14.3164   24.0687 C   0  0  0  0  0  0  0  0  0  0  0  0
  -30.0873  -15.4766   22.0895 C   0  0  0  0  0  0  0  0  0  0  0  0
  -28.6603  -12.6126   21.1181 C   0  0  0  0  0  0  0  0  0  0  0  0
  -31.1166  -16.6110   22.2205 C   0  0  2  0  0  0  0  0  0  0  0  0
  -35.2337  -28.3155   17.4614 C   0  0  1  0  0  0  0  0  0  0  0  0
  -31.6644  -27.0609   17.8068 C   0  0  1  0  0  0  0  0  0  0  0  0
  -27.7216  -13.0847   19.9957 C   0  0  2  0  0  0  0  0  0  0  0  0
  -31.5695  -16.7634   23.6876 C   0  0  2  0  0  0  0  0  0  0  0  0
  -31.4260  -17.2815   19.3688 C   0  0  0  0  0  0  0  0  0  0  0  0
  -24.5271  -27.9147   20.6936 C   0  0  0  0  0  0  0  0  0  0  0  0
  -30.7316  -30.2033   21.0650 C   0  0  0  0  0  0  0  0  0  0  0  0
  -28.4155  -30.1201   22.0121 C   0  0  0  0  0  0  0  0  0  0  0  0
  -28.7910  -31.0232   19.7173 C   0  0  0  0  0  0  0  0  0  0  0  0
  -25.8588  -24.9080   18.7798 C   0  0  0  0  0  0  0  0  0  0  0  0
  -28.3897  -22.3331   21.0687 C   0  0  0  0  0  0  0  0  0  0  0  0
  -33.5475  -21.8206   24.0171 C   0  0  0  0  0  0  0  0  0  0  0  0
  -33.5975  -19.5166   24.9803 C   0  0  0  0  0  0  0  0  0  0  0  0
  -32.7275  -22.7217   23.1151 C   0  0  0  0  0  0  0  0  0  1  0  0
  -32.7961  -18.2317   25.0519 C   0  0  0  0  0  0  0  0  0  0  0  0
  -29.0012  -28.5361   20.1203 C   0  0  1  0  0  0  0  0  0  0  0  0
  -25.4831  -27.1670   19.7772 C   0  0  2  0  0  0  0  0  0  0  0  0
  -29.2498  -29.9468   20.7250 C   0  0  0  0  0  0  0  0  0  0  0  0
  -25.8696  -11.5279   20.4743 N   0  0  0  0  0  0  0  0  0  0  0  0
  -26.2667  -12.8028   20.3223 N   0  0  0  0  0  0  0  0  0  0  0  0
  -30.7117  -27.2223   18.9071 N   0  0  0  0  0  0  0  0  0  0  0  0
  -30.0634  -12.8565   20.7764 N   0  0  0  0  0  0  0  0  0  0  0  0
  -30.6002  -14.2305   22.6593 N   0  0  0  0  0  0  0  0  0  0  0  0
  -25.4927  -15.0409   20.3716 N   0  0  0  0  0  0  0  0  0  0  0  0
  -21.7832  -12.6350   21.2923 N   0  0  0  0  0  0  0  0  0  0  0  0
  -33.9281  -27.7232   17.2638 N   0  0  0  0  0  0  0  0  0  0  0  0
  -27.6108  -28.2755   19.7636 N   0  0  0  0  0  0  0  0  0  0  0  0
  -25.0225  -25.7537   19.6700 N   0  3  0  0  0  0  0  0  0  0  0  0
  -32.8707  -20.5013   24.1397 N   0  3  0  0  0  0  0  0  0  0  0  0
  -22.5988  -14.7568   20.9894 O   0  0  0  0  0  0  0  0  0  0  0  0
  -33.0225  -28.2219   19.3504 O   0  0  0  0  0  0  0  0  0  0  0  0
  -29.6441  -29.0289   17.8909 O   0  0  0  0  0  0  0  0  0  0  0  0
  -27.3480  -26.4076   21.1124 O   0  0  0  0  0  0  0  0  0  0  0  0
  -32.0241  -12.5587   21.9556 O   0  0  0  0  0  0  0  0  0  0  0  0
  -21.4629   -7.0851   21.6540 O   0  0  0  0  0  0  0  0  0  0  0  0
  -29.0537  -21.4702   20.1467 O   0  0  0  0  0  0  0  0  0  0  0  0
  -32.5925  -22.1182   21.8352 O   0  0  0  0  0  0  0  0  0  1  0  0
  -32.6557  -17.6861   23.7494 O   0  0  0  0  0  0  0  0  0  0  0  0
  -23.5454   -3.1803   24.9433 F   0  0  0  0  0  0  0  0  0  0  0  0
  -20.1564   -6.3394   23.9734 F   0  0  0  0  0  0  0  0  0  0  0  0
  1  2  1  0  0  0  0
  1  5  2  0  0  0  0
  2  6  2  0  0  0  0
  3  9  2  0  0  0  0
  3 18  1  0  0  0  0
  4 10  1  0  0  0  0
  4 18  2  0  0  0  0
  5 20  1  0  0  0  0
  6 22  1  0  0  0  0
  7 11  2  0  0  0  0
  7 21  1  0  0  0  0
  8 12  2  0  0  0  0
  8 23  1  0  0  0  0
  9 26  1  0  0  0  0
 10 26  2  0  0  0  0
 11 27  1  0  0  0  0
 12 28  1  0  0  0  0
 13 14  2  0  0  0  0
 13 29  1  0  0  0  0
 14 30  1  0  0  0  0
 15 24  1  0  0  0  0
 15 27  2  0  0  0  0
 16 25  1  0  0  0  0
 16 28  2  0  0  0  0
 17 30  2  0  0  0  0
 17 31  1  0  0  0  0
 18 32  1  0  0  0  0
 19 32  1  0  0  0  0
 19 33  2  0  0  0  0
 19 34  1  0  0  0  0
 20 22  2  0  0  0  0
 20 39  1  0  0  0  0
 21 24  2  0  0  0  0
 21 40  1  0  0  0  0
 22 52  1  0  0  0  0
 23 25  2  0  0  0  0
 23 51  1  0  0  0  0
 24 41  1  0  0  0  0
 25 56  1  0  0  0  0
 26 86  1  0  0  0  0
 27 88  1  0  0  0  0
 28 87  1  0  0  0  0
 29 31  2  0  0  0  0
 29 86  1  0  0  0  0
 30 90  1  0  0  0  0
 31 91  1  0  0  0  0
 32 70  2  0  0  0  0
 33 71  1  0  0  0  0
 33 75  1  0  0  0  0
 34 76  1  0  0  0  0
 34 81  2  0  0  0  0
 35 53  1  0  0  0  0
 35 77  1  0  0  0  0
 35 82  2  0  0  0  0
 36 67  1  0  0  0  0
 36 72  1  0  0  0  0
 36 83  2  0  0  0  0
 37 68  1  0  0  0  0
 37 78  1  0  0  0  0
 37 84  2  0  0  0  0
 38 73  1  0  0  0  0
 38 74  1  0  0  0  0
 38 85  2  0  0  0  0
 39 42  1  0  0  0  0
 40 53  1  0  0  0  0
 41 72  1  0  0  0  0
 42 44  1  0  0  0  0
 43 45  1  0  0  0  0
 43 47  1  0  0  0  0
 44 52  1  0  0  0  0
 45 54  1  0  0  0  0
 46 48  1  0  0  0  0
 46 55  1  0  0  0  0
 47 73  1  0  0  0  0
 48 74  1  0  0  0  0
 49 51  1  0  0  0  0
 49 74  1  0  0  0  0
 50 54  1  0  0  0  0
 50 73  1  0  0  0  0
 51 55  1  0  0  0  0
 52 77  1  0  0  0  0
 53 72  1  0  0  0  0
 54 71  1  0  0  0  0
 55 89  1  0  0  0  0
 57 68  1  0  0  0  0
 58 69  1  0  0  0  0
 59 69  1  0  0  0  0
 60 69  1  0  0  0  0
 61 79  1  0  0  0  0
 62 87  1  0  0  0  0
 63 65  1  0  0  0  0
 63 80  1  0  0  0  0
 64 66  1  0  0  0  0
 64 80  1  0  0  0  0
 65 88  1  0  0  0  0
 66 89  1  0  0  0  0
 67 69  1  0  0  0  0
 67 78  1  0  0  0  0
 68 79  1  0  0  0  0
 70 71  1  0  0  0  0
M  CHG  2  79   1  80   1
M  ISO  4  38 100  65 101  74 100  88 101
M  END
> <Batch ID>
0141

> <Smiles>
CNC(C)C(=O)NC(C(=O)N1Cc2cc([101O:1][101CH2:1]CNCCOC3CC[100N:0]([100C:0](=O)N4CCCC(n5nc(-c6ccc(Oc7ccc(F)cc7F)cc6)c(C(N)=O)c5N)C4)CC3c3ccc(OC)cc3C)ccc2CC1C(=O)NC1CCCc2ccccc21)C(C)(C)C

> <Shape>
0.274

> <Color>
0.181

> <Negative vol penalty>
0.000

$$$$

  -OEChem-04052321163D

 81 90  0     1  0  0  0  0  0999 V2000
  -25.8674  -29.8492   19.2326 C   0  0  0  0  0  0  0  0  0  0  0  0
  -26.6988  -28.7543   19.0196 C   0  0  0  0  0  0  0  0  0  0  0  0
  -23.7956   -9.8032   22.1184 C   0  0  0  0  0  0  0  0  0  0  0  0
  -24.3772  -11.2311   23.9785 C   0  0  0  0  0  0  0  0  0  0  0  0
  -25.2560  -30.0279   20.4729 C   0  0  0  0  0  0  0  0  0  0  0  0
  -26.9201  -27.8380   20.0472 C   0  0  0  0  0  0  0  0  0  0  0  0
  -34.7071  -18.2248   19.4237 C   0  0  0  0  0  0  0  0  0  0  0  0
  -27.7397  -21.7956   19.4783 C   0  0  0  0  0  0  0  0  0  0  0  0
  -33.5913  -19.0470   19.2562 C   0  0  0  0  0  0  0  0  0  0  0  0
  -23.2718   -8.8620   23.0046 C   0  0  0  0  0  0  0  0  0  0  0  0
  -23.8534  -10.2899   24.8647 C   0  0  0  0  0  0  0  0  0  0  0  0
  -28.8862  -21.0025   19.4564 C   0  0  0  0  0  0  0  0  0  0  0  0
  -24.8164   -7.3538   26.2368 C   0  0  0  0  0  0  0  0  0  0  0  0
  -25.5658   -7.0454   27.3720 C   0  0  0  0  0  0  0  0  0  0  0  0
  -32.1088  -17.2589   19.9820 C   0  0  0  0  0  0  0  0  0  0  0  0
  -28.6182  -20.5607   21.8127 C   0  0  0  0  0  0  0  0  0  0  0  0
  -23.7473   -7.7938   28.7757 C   0  0  0  0  0  0  0  0  0  0  0  0
  -24.3483  -10.9878   22.6053 C   0  0  0  0  0  0  0  0  0  0  0  0
  -24.2054  -13.0300   21.0834 C   0  0  0  0  0  0  0  0  0  0  0  0
  -25.4623  -29.1081   21.5131 C   0  0  0  0  0  0  0  0  0  0  0  0
  -34.5058  -16.9245   19.8561 C   0  0  0  0  0  0  0  0  0  0  0  0
  -27.0289  -21.9864   20.6719 C   0  0  0  0  0  0  0  0  0  0  0  0
  -26.3120  -28.0053   21.3029 C   0  0  0  0  0  0  0  0  0  0  0  0
  -33.2188  -16.4421   20.1307 C   0  0  0  0  0  0  0  0  0  0  0  0
  -27.4617  -21.3546   21.8465 C   0  0  0  0  0  0  0  0  0  0  0  0
  -32.3016  -18.5677   19.5338 C   0  0  0  0  0  0  0  0  0  0  0  0
  -23.3007   -9.1054   24.3778 C   0  0  0  0  0  0  0  0  0  0  0  0
  -29.3272  -20.3872   20.6243 C   0  0  0  0  0  0  0  0  0  0  0  0
  -23.5325   -7.8823   26.3709 C   0  0  0  0  0  0  0  0  0  0  0  0
  -25.0313   -7.2653   28.6415 C   0  0  0  0  0  0  0  0  0  0  0  0
  -22.9980   -8.1023   27.6404 C   0  0  0  0  0  0  0  0  0  0  0  0
  -24.8900  -11.9602   21.6904 C   0  0  0  0  0  0  0  0  0  0  0  0
  -25.1557  -13.6513   20.3104 C   0  0  0  0  0  0  0  0  0  0  0  0
  -22.8332  -13.4268   21.2072 C   0  0  0  0  0  0  0  0  0  0  0  0
  -26.3107  -24.5019   22.4774 C   0  0  0  0  0  0  0  0  0  0  0  0
  -24.5403  -22.3315   24.1136 C   0  0  0  0  0  0  0  0  0  0  0  0
  -24.0144  -19.0670   24.9579 C   0  0  0  0  0  0  0  0  0  0  0  0
  -31.0265  -13.9428   20.7757 C   0  0  0  0  0  0  0  0  0  0  0  0
  -24.8173  -29.3689   22.8512 C   0  0  0  0  0  0  0  0  0  0  0  0
  -35.5417  -15.8833   20.1450 C   0  0  0  0  0  0  0  0  0  0  0  0
  -25.7791  -22.8232   20.6731 C   0  0  0  0  0  0  0  0  0  0  0  0
  -26.7227  -21.5112   23.1496 C   0  0  0  0  0  0  0  0  0  0  0  0
  -24.8062  -28.1499   23.7700 C   0  0  0  0  0  0  0  0  0  0  0  0
  -34.6856  -14.6073   20.1525 C   0  0  0  0  0  0  0  0  0  0  0  0
  -29.1885  -12.7555   17.8944 C   0  0  0  0  0  0  0  0  0  0  0  0
  -26.1758  -27.4785   23.7827 C   0  0  0  0  0  0  0  0  0  0  0  0
  -27.8020  -12.5204   18.4962 C   0  0  0  0  0  0  0  0  0  0  0  0
  -30.2912  -12.3732   18.8776 C   0  0  0  0  0  0  0  0  0  0  0  0
  -28.8187  -12.8222   20.8007 C   0  0  0  0  0  0  0  0  0  0  0  0
  -26.5570  -26.9761   22.3850 C   0  0  1  0  0  0  0  0  0  0  0  0
  -33.2858  -15.0301   20.6335 C   0  0  2  0  0  0  0  0  0  0  0  0
  -25.4241  -23.3650   22.0544 C   0  0  1  0  0  0  0  0  0  0  0  0
  -27.6609  -13.2130   19.8645 C   0  0  2  0  0  0  0  0  0  0  0  0
  -22.5141  -17.6073   26.3421 C   0  0  0  0  0  0  0  0  0  0  0  0
  -25.9960  -23.2340   26.6387 C   0  0  0  0  0  0  0  0  0  0  0  0
  -25.1805  -21.1539   27.7684 C   0  0  0  0  0  0  0  0  0  0  0  0
  -23.5438  -22.8406   26.9325 C   0  0  0  0  0  0  0  0  0  0  0  0
  -23.0755  -17.5775   22.5791 C   0  0  0  0  0  0  0  0  0  0  0  0
  -31.1195  -19.4744   19.3553 C   0  0  0  0  0  0  0  0  0  1  0  0
  -24.7956  -21.4003   25.2740 C   0  0  1  0  0  0  0  0  0  0  0  0
  -22.7544  -18.2204   24.9713 C   0  0  2  0  0  0  0  0  0  0  0  0
  -24.8942  -22.1556   26.6294 C   0  0  0  0  0  0  0  0  0  0  0  0
  -26.1759  -11.9020   21.3336 N   0  0  0  0  0  0  0  0  0  0  0  0
  -26.3068  -12.9432   20.4940 N   0  0  0  0  0  0  0  0  0  0  0  0
  -25.5099  -22.3444   23.1010 N   0  0  0  0  0  0  0  0  0  0  0  0
  -30.1093  -13.0814   20.1529 N   0  0  0  0  0  0  0  0  0  0  0  0
  -25.1106  -14.7288   19.4983 N   0  0  0  0  0  0  0  0  0  0  0  0
  -21.9941  -12.6780   22.0435 N   0  0  0  0  0  0  0  0  0  0  0  0
  -25.8575  -25.7460   22.0818 N   0  0  0  0  0  0  0  0  0  0  0  0
  -23.7425  -20.3916   25.2273 N   0  0  0  0  0  0  0  0  0  0  0  0
  -32.2275  -14.1452   20.1042 N   0  0  0  0  0  0  0  0  0  0  0  0
  -22.8612  -17.1170   23.9752 N   0  3  0  0  0  0  0  0  0  0  0  0
  -22.3612  -14.4063   20.5817 O   0  0  0  0  0  0  0  0  0  0  0  0
  -27.3297  -24.2680   23.1166 O   0  0  0  0  0  0  0  0  0  0  0  0
  -23.5147  -23.0168   24.1025 O   0  0  0  0  0  0  0  0  0  0  0  0
  -25.1289  -18.5992   24.7349 O   0  0  0  0  0  0  0  0  0  0  0  0
  -30.7956  -14.5019   21.8536 O   0  0  0  0  0  0  0  0  0  0  0  0
  -22.7895   -8.1873   25.2428 O   0  0  0  0  0  0  0  0  0  0  0  0
  -30.4462  -19.6131   20.6058 O   0  0  0  0  0  0  0  0  0  1  0  0
  -25.7504   -6.9676   29.7316 F   0  0  0  0  0  0  0  0  0  0  0  0
  -21.7646   -8.6087   27.7756 F   0  0  0  0  0  0  0  0  0  0  0  0
  1  2  1  0  0  0  0
  1  5  2  0  0  0  0
  2  6  2  0  0  0  0
  3 10  2  0  0  0  0
  3 18  1  0  0  0  0
  4 11  1  0  0  0  0
  4 18  2  0  0  0  0
  5 20  1  0  0  0  0
  6 23  1  0  0  0  0
  7  9  2  0  0  0  0
  7 21  1  0  0  0  0
  8 12  2  0  0  0  0
  8 22  1  0  0  0  0
  9 26  1  0  0  0  0
 10 27  1  0  0  0  0
 11 27  2  0  0  0  0
 12 28  1  0  0  0  0
 13 14  2  0  0  0  0
 13 29  1  0  0  0  0
 14 30  1  0  0  0  0
 15 24  1  0  0  0  0
 15 26  2  0  0  0  0
 16 25  1  0  0  0  0
 16 28  2  0  0  0  0
 17 30  2  0  0  0  0
 17 31  1  0  0  0  0
 18 32  1  0  0  0  0
 19 32  1  0  0  0  0
 19 33  2  0  0  0  0
 19 34  1  0  0  0  0
 20 23  2  0  0  0  0
 20 39  1  0  0  0  0
 21 24  2  0  0  0  0
 21 40  1  0  0  0  0
 22 25  2  0  0  0  0
 22 41  1  0  0  0  0
 23 50  1  0  0  0  0
 24 51  1  0  0  0  0
 25 42  1  0  0  0  0
 26 59  1  0  0  0  0
 27 78  1  0  0  0  0
 28 79  1  0  0  0  0
 29 31  2  0  0  0  0
 29 78  1  0  0  0  0
 30 80  1  0  0  0  0
 31 81  1  0  0  0  0
 32 63  2  0  0  0  0
 33 64  1  0  0  0  0
 33 67  1  0  0  0  0
 34 68  1  0  0  0  0
 34 73  2  0  0  0  0
 35 52  1  0  0  0  0
 35 69  1  0  0  0  0
 35 74  2  0  0  0  0
 36 60  1  0  0  0  0
 36 65  1  0  0  0  0
 36 75  2  0  0  0  0
 37 61  1  0  0  0  0
 37 70  1  0  0  0  0
 37 76  2  0  0  0  0
 38 66  1  0  0  0  0
 38 71  1  0  0  0  0
 38 77  2  0  0  0  0
 39 43  1  0  0  0  0
 40 44  1  0  0  0  0
 41 52  1  0  0  0  0
 42 65  1  0  0  0  0
 43 46  1  0  0  0  0
 44 51  1  0  0  0  0
 45 47  1  0  0  0  0
 45 48  1  0  0  0  0
 46 50  1  0  0  0  0
 47 53  1  0  0  0  0
 48 66  1  0  0  0  0
 49 53  1  0  0  0  0
 49 66  1  0  0  0  0
 50 69  1  0  0  0  0
 51 71  1  0  0  0  0
 52 65  1  0  0  0  0
 53 64  1  0  0  0  0
 54 61  1  0  0  0  0
 55 62  1  0  0  0  0
 56 62  1  0  0  0  0
 57 62  1  0  0  0  0
 58 72  1  0  0  0  0
 59 79  1  0  0  0  0
 60 62  1  0  0  0  0
 60 70  1  0  0  0  0
 61 72  1  0  0  0  0
 63 64  1  0  0  0  0
M  CHG  1  72   1
M  ISO  4  38 100  59 101  71 100  79 101
M  END
> <Batch ID>
0141

> <Smiles>
CNC(C)C(=O)NC(C(=O)N1Cc2cc([101O:1][101CH2:1]c3ccc4c(c3)C([100NH:0][100C:0](=O)N3CCCC(n5nc(-c6ccc(Oc7ccc(F)cc7F)cc6)c(C(N)=O)c5N)C3)CC4)ccc2CC1C(=O)NC1CCCc2ccccc21)C(C)(C)C

> <Shape>
0.168

> <Color>
0.116

> <Negative vol penalty>
0.000

$$$$

  -OEChem-04052321163D

 88 97  0     1  0  0  0  0  0999 V2000
  -16.7979  -29.8517   24.0735 C   0  0  0  0  0  0  0  0  0  0  0  0
  -17.3265  -29.0709   23.0505 C   0  0  0  0  0  0  0  0  0  0  0  0
  -24.6852   -9.2966   20.9125 C   0  0  0  0  0  0  0  0  0  0  0  0
  -25.2144  -10.1457   23.1116 C   0  0  0  0  0  0  0  0  0  0  0  0
  -17.4548  -31.0153   24.4712 C   0  0  0  0  0  0  0  0  0  0  0  0
  -18.5118  -29.4540   22.4239 C   0  0  0  0  0  0  0  0  0  0  0  0
  -21.7176  -25.5839   21.7989 C   0  0  0  0  0  0  0  0  0  0  0  0
  -24.4816   -8.0264   21.4519 C   0  0  0  0  0  0  0  0  0  0  0  0
  -25.0108   -8.8756   23.6510 C   0  0  0  0  0  0  0  0  0  0  0  0
  -21.4561  -24.7035   20.7499 C   0  0  0  0  0  0  0  0  0  0  0  0
  -22.0532   -6.4035   23.1552 C   0  0  0  0  0  0  0  0  0  0  0  0
  -20.9236   -5.6971   22.7420 C   0  0  0  0  0  0  0  0  0  0  0  0
  -26.8845  -19.6667   20.0639 C   0  0  0  0  0  0  0  0  0  0  0  0
  -27.8702  -21.8591   19.9863 C   0  0  0  0  0  0  0  0  0  0  0  0
  -23.1218  -25.8180   19.4073 C   0  0  0  0  0  0  0  0  0  0  0  0
  -22.3381   -3.9329   21.8911 C   0  0  0  0  0  0  0  0  0  0  0  0
  -25.0516  -10.3562   21.7424 C   0  0  0  0  0  0  0  0  0  0  0  0
  -26.7407  -21.0486   20.0097 C   0  0  0  0  0  0  0  0  0  0  0  0
  -24.3045  -12.6869   21.0232 C   0  0  0  0  0  0  0  0  0  0  0  0
  -18.6539  -31.4078   23.8557 C   0  0  0  0  0  0  0  0  0  0  0  0
  -22.6771  -26.5965   21.6559 C   0  0  0  0  0  0  0  0  0  0  0  0
  -19.1847  -30.6247   22.8129 C   0  0  0  0  0  0  0  0  0  0  0  0
  -23.3954  -26.7084   20.4569 C   0  0  0  0  0  0  0  0  0  0  0  0
  -24.6444   -7.8159   22.8211 C   0  0  0  0  0  0  0  0  0  0  0  0
  -22.1561  -24.8223   19.5529 C   0  0  0  0  0  0  0  0  0  0  0  0
  -23.3252   -5.8746   22.9363 C   0  0  0  0  0  0  0  0  0  0  0  0
  -21.0661   -4.4618   22.1100 C   0  0  0  0  0  0  0  0  0  0  0  0
  -23.4677   -4.6393   22.3043 C   0  0  0  0  0  0  0  0  0  0  0  0
  -25.2626  -11.6683   21.1857 C   0  0  0  0  0  0  0  0  0  0  0  0
  -28.1694  -19.1490   20.0927 C   0  0  0  0  0  0  0  0  0  0  0  0
  -29.1110  -21.2433   20.0188 C   0  0  0  0  0  0  0  0  0  0  0  0
  -25.0008  -13.7258   20.4554 C   0  0  0  0  0  0  0  0  0  0  0  0
  -24.5438  -21.3555   18.9714 C   0  0  0  0  0  0  0  0  0  0  0  0
  -25.3861  -21.6568   19.9799 C   0  0  0  0  0  0  0  0  0  0  0  0
  -22.9099  -12.6935   21.3558 C   0  0  0  0  0  0  0  0  0  0  0  0
  -22.6134  -29.7736   21.7299 C   0  0  0  0  0  0  0  0  0  0  0  0
  -25.8348  -29.4546   21.5226 C   0  0  0  0  0  0  0  0  0  0  0  0
  -28.5026  -27.5438   20.5852 C   0  0  0  0  0  0  0  0  0  0  0  0
  -29.4915  -17.0064   20.1823 C   0  0  0  0  0  0  0  0  0  0  0  0
  -19.3030  -32.6988   24.2877 C   0  0  0  0  0  0  0  0  0  0  0  0
  -22.9663  -27.5213   22.8063 C   0  0  0  0  0  0  0  0  0  0  0  0
  -24.4499  -27.7655   20.2598 C   0  0  0  0  0  0  0  0  0  0  0  0
  -20.7519  -32.8360   23.8272 C   0  0  0  0  0  0  0  0  0  0  0  0
  -29.6612  -13.8807   18.4858 C   0  0  0  0  0  0  0  0  0  0  0  0
  -20.8827  -32.4560   22.3557 C   0  0  0  0  0  0  0  0  0  0  0  0
  -28.4531  -13.1103   19.0236 C   0  0  0  0  0  0  0  0  0  0  0  0
  -22.6166  -21.8785   17.3857 C   0  0  0  0  0  0  0  0  0  0  0  0
  -30.3111  -14.7427   19.5667 C   0  0  0  0  0  0  0  0  0  0  0  0
  -28.1879  -14.8795   20.8087 C   0  0  0  0  0  0  0  0  0  0  0  0
  -20.4815  -30.9940   22.1257 C   0  0  1  0  0  0  0  0  0  0  0  0
  -23.1899  -21.8504   18.7769 C   0  0  2  0  0  0  0  0  0  0  0  0
  -23.6003  -28.8384   22.3693 C   0  0  1  0  0  0  0  0  0  0  0  0
  -27.4608  -14.0470   19.7401 C   0  0  2  0  0  0  0  0  0  0  0  0
  -22.9897  -23.1639   18.0661 C   0  0  2  0  0  0  0  0  0  1  0  0
  -25.0588  -22.6000   21.1055 C   0  0  0  0  0  0  0  0  0  0  0  0
  -31.0107  -27.5660   20.5063 C   0  0  0  0  0  0  0  0  0  0  0  0
  -33.9961  -21.6502   20.0526 C   0  0  0  0  0  0  0  0  0  0  0  0
  -32.5359  -23.2511   18.7865 C   0  0  0  0  0  0  0  0  0  0  0  0
  -25.7401  -31.3292   19.1170 C   0  0  0  0  0  0  0  0  0  0  0  0
  -28.0500  -30.5688   18.5215 C   0  0  0  0  0  0  0  0  0  0  0  0
  -27.6438  -31.7406   20.6859 C   0  0  0  0  0  0  0  0  0  0  0  0
  -28.6951  -25.1873   22.3653 C   0  0  0  0  0  0  0  0  0  0  0  0
  -31.4872  -21.3378   20.0306 C   0  0  0  0  0  0  0  0  0  0  0  0
  -26.8296  -29.3653   20.3906 C   0  0  1  0  0  0  0  0  0  0  0  0
  -29.7825  -27.1746   21.3132 C   0  0  2  0  0  0  0  0  0  0  0  0
  -32.6359  -22.3501   20.0155 C   0  0  0  0  0  0  0  0  0  0  0  0
  -27.0447  -30.7322   19.6815 C   0  0  0  0  0  0  0  0  0  0  0  0
  -26.4751  -12.0275   20.7557 N   0  0  0  0  0  0  0  0  0  0  0  0
  -29.2903  -19.9044   20.0715 N   0  0  0  0  0  0  0  0  0  0  0  0
  -26.2836  -13.2834   20.3174 N   0  0  0  0  0  0  0  0  0  0  0  0
  -24.6920  -28.6498   21.4118 N   0  0  0  0  0  0  0  0  0  0  0  0
  -29.3118  -15.6071   20.1985 N   0  0  0  0  0  0  0  0  0  0  0  0
  -24.6349  -14.9654   20.0656 N   0  0  0  0  0  0  0  0  0  0  0  0
  -22.3552  -11.5429   21.9327 N   0  0  0  0  0  0  0  0  0  0  0  0
  -28.3058  -17.7396   20.1462 N   0  0  0  0  0  0  0  0  0  0  0  0
  -21.5460  -30.1063   22.5420 N   0  0  0  0  0  0  0  0  0  0  0  0
  -28.0437  -28.7893   20.9587 N   0  0  0  0  0  0  0  0  0  0  0  0
  -29.8318  -25.7060   21.5617 N   0  3  0  0  0  0  0  0  0  0  0  0
  -22.1737  -13.6842   21.1324 O   0  0  0  0  0  0  0  0  0  0  0  0
  -22.8067  -30.1657   20.5851 O   0  0  0  0  0  0  0  0  0  0  0  0
  -26.0666  -30.2052   22.4736 O   0  0  0  0  0  0  0  0  0  0  0  0
  -27.9657  -26.8032   19.7644 O   0  0  0  0  0  0  0  0  0  0  0  0
  -30.6148  -17.5164   20.1716 O   0  0  0  0  0  0  0  0  0  0  0  0
  -24.4456   -6.5767   23.3479 O   0  0  0  0  0  0  0  0  0  0  0  0
  -21.9024  -23.9648   18.5272 O   0  0  0  0  0  0  0  0  0  1  0  0
  -30.2395  -22.0202   19.9955 O   0  0  0  0  0  0  0  0  0  0  0  0
  -19.9812   -3.7829   21.7146 F   0  0  0  0  0  0  0  0  0  0  0  0
  -24.6871   -4.1256   22.0923 F   0  0  0  0  0  0  0  0  0  0  0  0
  1  2  1  0  0  0  0
  1  5  2  0  0  0  0
  2  6  2  0  0  0  0
  3  8  2  0  0  0  0
  3 17  1  0  0  0  0
  4  9  1  0  0  0  0
  4 17  2  0  0  0  0
  5 20  1  0  0  0  0
  6 22  1  0  0  0  0
  7 10  2  0  0  0  0
  7 21  1  0  0  0  0
  8 24  1  0  0  0  0
  9 24  2  0  0  0  0
 10 25  1  0  0  0  0
 11 12  2  0  0  0  0
 11 26  1  0  0  0  0
 12 27  1  0  0  0  0
 13 18  1  0  0  0  0
 13 30  2  0  0  0  0
 14 18  2  0  0  0  0
 14 31  1  0  0  0  0
 15 23  1  0  0  0  0
 15 25  2  0  0  0  0
 16 27  2  0  0  0  0
 16 28  1  0  0  0  0
 17 29  1  0  0  0  0
 18 34  1  0  0  0  0
 19 29  1  0  0  0  0
 19 32  2  0  0  0  0
 19 35  1  0  0  0  0
 20 22  2  0  0  0  0
 20 40  1  0  0  0  0
 21 23  2  0  0  0  0
 21 41  1  0  0  0  0
 22 50  1  0  0  0  0
 23 42  1  0  0  0  0
 24 84  1  0  0  0  0
 25 85  1  0  0  0  0
 26 28  2  0  0  0  0
 26 84  1  0  0  0  0
 27 87  1  0  0  0  0
 28 88  1  0  0  0  0
 29 68  2  0  0  0  0
 30 69  1  0  0  0  0
 30 75  1  0  0  0  0
 31 69  2  0  0  0  0
 31 86  1  0  0  0  0
 32 70  1  0  0  0  0
 32 73  1  0  0  0  0
 33 34  2  0  0  0  0
 33 51  1  0  0  0  0
 34 55  1  0  0  0  0
 35 74  1  0  0  0  0
 35 79  2  0  0  0  0
 36 52  1  0  0  0  0
 36 76  1  0  0  0  0
 36 80  2  0  0  0  0
 37 64  1  0  0  0  0
 37 71  1  0  0  0  0
 37 81  2  0  0  0  0
 38 65  1  0  0  0  0
 38 77  1  0  0  0  0
 38 82  2  0  0  0  0
 39 72  1  0  0  0  0
 39 75  1  0  0  0  0
 39 83  2  0  0  0  0
 40 43  1  0  0  0  0
 41 52  1  0  0  0  0
 42 71  1  0  0  0  0
 43 45  1  0  0  0  0
 44 46  1  0  0  0  0
 44 48  1  0  0  0  0
 45 50  1  0  0  0  0
 46 53  1  0  0  0  0
 47 51  1  0  0  0  0
 47 54  1  0  0  0  0
 48 72  1  0  0  0  0
 49 53  1  0  0  0  0
 49 72  1  0  0  0  0
 50 76  1  0  0  0  0
 51 54  1  0  0  0  0
 52 71  1  0  0  0  0
 53 70  1  0  0  0  0
 54 85  1  0  0  0  0
 56 65  1  0  0  0  0
 57 66  1  0  0  0  0
 58 66  1  0  0  0  0
 59 67  1  0  0  0  0
 60 67  1  0  0  0  0
 61 67  1  0  0  0  0
 62 78  1  0  0  0  0
 63 66  1  0  0  0  0
 63 86  1  0  0  0  0
 64 67  1  0  0  0  0
 64 77  1  0  0  0  0
 65 78  1  0  0  0  0
 68 70  1  0  0  0  0
M  CHG  1  78   1
M  ISO  4  39 100  54 101  75 100  85 101
M  END
> <Batch ID>
0141

> <Smiles>
CNC(C)C(=O)NC(C(=O)N1Cc2cc([101O:1][101CH:1]3CC3C=C(C)c3cc([100NH:0][100C:0](=O)N4CCCC(n5nc(-c6ccc(Oc7ccc(F)cc7F)cc6)c(C(N)=O)c5N)C4)nc(OCC(C)C)c3)ccc2CC1C(=O)NC1CCCc2ccccc21)C(C)(C)C

> <Shape>
0.309

> <Color>
0.133

> <Negative vol penalty>
0.000

$$$$

  -OEChem-04052321163D

 88 98  0     1  0  0  0  0  0999 V2000
  -24.6886  -34.8841   20.6741 C   0  0  0  0  0  0  0  0  0  0  0  0
  -25.5597  -34.0000   20.0457 C   0  0  0  0  0  0  0  0  0  0  0  0
  -23.1739   -9.8676   19.9205 C   0  0  0  0  0  0  0  0  0  0  0  0
  -23.5220  -10.0238   22.3062 C   0  0  0  0  0  0  0  0  0  0  0  0
  -24.1063  -34.5391   21.8931 C   0  0  0  0  0  0  0  0  0  0  0  0
  -25.8500  -32.7708   20.6365 C   0  0  0  0  0  0  0  0  0  0  0  0
  -26.9119  -27.4660   17.7664 C   0  0  0  0  0  0  0  0  0  0  0  0
  -22.3853   -8.7328   20.1098 C   0  0  0  0  0  0  0  0  0  0  0  0
  -22.7333   -8.8890   22.4955 C   0  0  0  0  0  0  0  0  0  0  0  0
  -28.0902  -26.8022   17.4278 C   0  0  0  0  0  0  0  0  0  0  0  0
  -23.0806   -5.5380   22.2115 C   0  0  0  0  0  0  0  0  0  0  0  0
  -23.5501   -4.5617   23.0902 C   0  0  0  0  0  0  0  0  0  0  0  0
  -30.7017  -21.7815   19.0351 C   0  0  0  0  0  0  0  0  0  0  0  0
  -27.9101  -25.4725   19.4325 C   0  0  0  0  0  0  0  0  0  0  0  0
  -28.8762  -23.0219   17.3289 C   0  0  0  0  0  0  0  0  0  0  0  0
  -21.5790   -4.8451   24.4582 C   0  0  0  0  0  0  0  0  0  0  0  0
  -23.7423  -10.5131   21.0186 C   0  0  0  0  0  0  0  0  0  0  0  0
  -24.1275  -13.0252   20.7988 C   0  0  0  0  0  0  0  0  0  0  0  0
  -24.3821  -33.3010   22.4944 C   0  0  0  0  0  0  0  0  0  0  0  0
  -26.2285  -27.1450   18.9481 C   0  0  0  0  0  0  0  0  0  0  0  0
  -25.2719  -32.4094   21.8654 C   0  0  0  0  0  0  0  0  0  0  0  0
  -29.7965  -21.0123   18.3040 C   0  0  0  0  0  0  0  0  0  0  0  0
  -26.7219  -26.1319   19.7825 C   0  0  0  0  0  0  0  0  0  0  0  0
  -30.6942  -23.1709   18.9131 C   0  0  0  0  0  0  0  0  0  0  0  0
  -28.8837  -21.6325   17.4509 C   0  0  0  0  0  0  0  0  0  0  0  0
  -22.1649   -8.2435   21.3973 C   0  0  0  0  0  0  0  0  0  0  0  0
  -28.5911  -25.8073   18.2623 C   0  0  0  0  0  0  0  0  0  0  0  0
  -21.8603   -6.1679   22.4562 C   0  0  0  0  0  0  0  0  0  0  0  0
  -29.7814  -23.7912   18.0600 C   0  0  0  0  0  0  0  0  0  1  0  0
  -22.7993   -4.2153   24.2135 C   0  0  0  0  0  0  0  0  0  0  0  0
  -21.1095   -5.8214   23.5796 C   0  0  0  0  0  0  0  0  0  0  0  0
  -24.5576  -11.6850   20.8236 C   0  0  0  0  0  0  0  0  0  0  0  0
  -25.2744  -13.7500   20.5849 C   0  0  0  0  0  0  0  0  0  0  0  0
  -22.8091  -13.5666   20.9552 C   0  0  0  0  0  0  0  0  0  0  0  0
  -29.2586  -17.4153   17.1086 C   0  0  0  0  0  0  0  0  0  0  0  0
  -25.4555  -28.7291   21.5933 C   0  0  0  0  0  0  0  0  0  0  0  0
  -23.8283  -26.0083   22.2805 C   0  0  0  0  0  0  0  0  0  0  0  0
  -23.4681  -22.6486   21.8017 C   0  0  0  0  0  0  0  0  0  0  0  0
  -30.0932  -14.5442   17.9586 C   0  0  0  0  0  0  0  0  0  0  0  0
  -23.7656  -32.9921   23.8358 C   0  0  0  0  0  0  0  0  0  0  0  0
  -24.9444  -27.8518   19.2857 C   0  0  0  0  0  0  0  0  0  0  0  0
  -26.0151  -25.7357   21.0521 C   0  0  0  0  0  0  0  0  0  0  0  0
  -23.8336  -31.5141   24.2115 C   0  0  0  0  0  0  0  0  0  0  0  0
  -29.0600  -14.8933   14.5212 C   0  0  0  0  0  0  0  0  0  0  0  0
  -30.1265  -12.3755   20.7160 C   0  0  0  0  0  0  0  0  0  0  0  0
  -25.2307  -30.9604   23.9497 C   0  0  0  0  0  0  0  0  0  0  0  0
  -29.2899  -16.3653   14.8396 C   0  0  0  0  0  0  0  0  0  0  0  0
  -28.6507  -12.0898   20.9845 C   0  0  0  0  0  0  0  0  0  0  0  0
  -31.1130  -18.7910   18.2184 C   0  0  0  0  0  0  0  0  0  0  0  0
  -30.4031  -12.4398   19.2194 C   0  0  0  0  0  0  0  0  0  0  0  0
  -28.6600  -14.3077   15.8653 C   0  0  0  0  0  0  0  0  0  0  0  0
  -28.0905  -13.1995   18.7617 C   0  0  0  0  0  0  0  0  0  0  0  0
  -29.8214  -19.5368   18.4492 C   0  0  2  0  0  0  0  0  0  0  0  0
  -25.5924  -31.0564   22.4626 C   0  0  1  0  0  0  0  0  0  0  0  0
  -30.0224  -18.7073   17.2168 C   0  0  2  0  0  0  0  0  0  0  0  0
  -29.8626  -16.3462   16.2540 C   0  0  2  0  0  0  0  0  0  0  0  0
  -24.6067  -27.7998   20.7725 C   0  0  1  0  0  0  0  0  0  0  0  0
  -27.7565  -13.1129   20.2651 C   0  0  1  0  0  0  0  0  0  0  0  0
  -31.6706  -23.9787   19.7028 C   0  0  0  0  0  0  0  0  0  0  0  0
  -27.9040  -20.8314   16.6575 C   0  0  0  0  0  0  0  0  0  0  0  0
  -22.0728  -20.6936   22.5288 C   0  0  0  0  0  0  0  0  0  0  0  0
  -25.3166  -25.9394   24.9433 C   0  0  0  0  0  0  0  0  0  0  0  0
  -24.6245  -23.5459   25.1887 C   0  0  0  0  0  0  0  0  0  0  0  0
  -22.8932  -25.3389   25.0869 C   0  0  0  0  0  0  0  0  0  0  0  0
  -22.5254  -22.1466   19.0416 C   0  0  0  0  0  0  0  0  0  0  0  0
  -24.1570  -24.7157   22.9878 C   0  0  1  0  0  0  0  0  0  0  0  0
  -22.2466  -21.7995   21.4994 C   0  0  2  0  0  0  0  0  0  0  0  0
  -24.2624  -24.8936   24.5288 C   0  0  0  0  0  0  0  0  0  0  0  0
  -25.8749  -11.5627   20.6400 N   0  0  0  0  0  0  0  0  0  0  0  0
  -26.2825  -12.8354   20.4976 N   0  0  0  0  0  0  0  0  0  0  0  0
  -24.7667  -26.4603   21.3419 N   0  0  0  0  0  0  0  0  0  0  0  0
  -29.5302  -13.4073   18.5529 N   0  0  0  0  0  0  0  0  0  0  0  0
  -29.4519  -15.0677   16.8323 N   0  0  0  0  0  0  0  0  0  0  0  0
  -25.5089  -15.0740   20.4647 N   0  0  0  0  0  0  0  0  0  0  0  0
  -21.7440  -12.6809   21.1679 N   0  0  0  0  0  0  0  0  0  0  0  0
  -24.9379  -30.0046   21.7144 N   0  0  0  0  0  0  0  0  0  0  0  0
  -23.1474  -23.7511   22.5652 N   0  0  0  0  0  0  0  0  0  0  0  0
  -22.3717  -21.1729   20.1530 N   0  3  0  0  0  0  0  0  0  0  0  0
  -22.5800  -14.7983   20.8915 O   0  0  0  0  0  0  0  0  0  0  0  0
  -28.1911  -17.2457   17.6957 O   0  0  0  0  0  0  0  0  0  0  0  0
  -26.5017  -28.3188   22.0819 O   0  0  0  0  0  0  0  0  0  0  0  0
  -22.7743  -26.5917   22.5458 O   0  0  0  0  0  0  0  0  0  0  0  0
  -24.5947  -22.3605   21.4038 O   0  0  0  0  0  0  0  0  0  0  0  0
  -31.1311  -15.0549   18.3995 O   0  0  0  0  0  0  0  0  0  0  0  0
  -21.3952   -7.1364   21.5825 O   0  0  0  0  0  0  0  0  0  0  0  0
  -29.7611  -25.1471   17.9289 O   0  0  0  0  0  0  0  0  0  1  0  0
  -23.2495   -3.2766   25.0564 F   0  0  0  0  0  0  0  0  0  0  0  0
  -19.9359   -6.4222   23.8193 F   0  0  0  0  0  0  0  0  0  0  0  0
  1  2  1  0  0  0  0
  1  5  2  0  0  0  0
  2  6  2  0  0  0  0
  3  8  2  0  0  0  0
  3 17  1  0  0  0  0
  4  9  1  0  0  0  0
  4 17  2  0  0  0  0
  5 19  1  0  0  0  0
  6 21  1  0  0  0  0
  7 10  2  0  0  0  0
  7 20  1  0  0  0  0
  8 26  1  0  0  0  0
  9 26  2  0  0  0  0
 10 27  1  0  0  0  0
 11 12  2  0  0  0  0
 11 28  1  0  0  0  0
 12 30  1  0  0  0  0
 13 22  2  0  0  0  0
 13 24  1  0  0  0  0
 14 23  1  0  0  0  0
 14 27  2  0  0  0  0
 15 25  2  0  0  0  0
 15 29  1  0  0  0  0
 16 30  2  0  0  0  0
 16 31  1  0  0  0  0
 17 32  1  0  0  0  0
 18 32  1  0  0  0  0
 18 33  2  0  0  0  0
 18 34  1  0  0  0  0
 19 21  2  0  0  0  0
 19 40  1  0  0  0  0
 20 23  2  0  0  0  0
 20 41  1  0  0  0  0
 21 54  1  0  0  0  0
 22 25  1  0  0  0  0
 22 53  1  0  0  0  0
 23 42  1  0  0  0  0
 24 29  2  0  0  0  0
 24 59  1  0  0  0  0
 25 60  1  0  0  0  0
 26 85  1  0  0  0  0
 27 86  1  0  0  0  0
 28 31  2  0  0  0  0
 28 85  1  0  0  0  0
 29 86  1  0  0  0  0
 30 87  1  0  0  0  0
 31 88  1  0  0  0  0
 32 69  2  0  0  0  0
 33 70  1  0  0  0  0
 33 74  1  0  0  0  0
 34 75  1  0  0  0  0
 34 79  2  0  0  0  0
 35 55  1  0  0  0  0
 35 56  1  0  0  0  0
 35 80  2  0  0  0  0
 36 57  1  0  0  0  0
 36 76  1  0  0  0  0
 36 81  2  0  0  0  0
 37 66  1  0  0  0  0
 37 71  1  0  0  0  0
 37 82  2  0  0  0  0
 38 67  1  0  0  0  0
 38 77  1  0  0  0  0
 38 83  2  0  0  0  0
 39 72  1  0  0  0  0
 39 73  1  0  0  0  0
 39 84  2  0  0  0  0
 40 43  1  0  0  0  0
 41 57  1  0  0  0  0
 42 71  1  0  0  0  0
 43 46  1  0  0  0  0
 44 47  1  0  0  0  0
 44 51  1  0  0  0  0
 45 48  1  0  0  0  0
 45 50  1  0  0  0  0
 46 54  1  0  0  0  0
 47 56  1  0  0  0  0
 48 58  1  0  0  0  0
 49 53  1  0  0  0  0
 49 55  1  0  0  0  0
 50 72  1  0  0  0  0
 51 73  1  0  0  0  0
 52 58  1  0  0  0  0
 52 72  1  0  0  0  0
 53 55  1  0  0  0  0
 54 76  1  0  0  0  0
 56 73  1  0  0  0  0
 57 71  1  0  0  0  0
 58 70  1  0  0  0  0
 61 67  1  0  0  0  0
 62 68  1  0  0  0  0
 63 68  1  0  0  0  0
 64 68  1  0  0  0  0
 65 78  1  0  0  0  0
 66 68  1  0  0  0  0
 66 77  1  0  0  0  0
 67 78  1  0  0  0  0
 69 70  1  0  0  0  0
M  CHG  1  78   1
M  ISO  4  29 101  39 100  73 100  86 101
M  END
> <Batch ID>
0141

> <Smiles>
CNC(C)C(=O)NC(C(=O)N1Cc2cc([101O:1][101c:1]3cc(C)c(C4CC4C(=O)C4CCC[100N:0]4[100C:0](=O)N4CCCC(n5nc(-c6ccc(Oc7ccc(F)cc7F)cc6)c(C(N)=O)c5N)C4)cc3C)ccc2CC1C(=O)NC1CCCc2ccccc21)C(C)(C)C

> <Shape>
0.270

> <Color>
0.189

> <Negative vol penalty>
0.000

$$$$

  -OEChem-04052321163D

 84 92  0     1  0  0  0  0  0999 V2000
  -25.3951  -20.2001   14.6747 C   0  0  0  0  0  0  0  0  0  0  0  0
  -26.2561  -20.5407   15.7130 C   0  0  0  0  0  0  0  0  0  0  0  0
  -22.9997   -9.8934   19.9809 C   0  0  0  0  0  0  0  0  0  0  0  0
  -23.7268   -9.9437   22.2844 C   0  0  0  0  0  0  0  0  0  0  0  0
  -25.3620  -20.9743   13.5156 C   0  0  0  0  0  0  0  0  0  0  0  0
  -27.0854  -21.6552   15.5923 C   0  0  0  0  0  0  0  0  0  0  0  0
  -27.1306  -24.5055   19.7778 C   0  0  0  0  0  0  0  0  0  0  0  0
  -22.2336   -8.7586   20.2475 C   0  0  0  0  0  0  0  0  0  0  0  0
  -22.9607   -8.8090   22.5510 C   0  0  0  0  0  0  0  0  0  0  0  0
  -27.9040  -24.0548   20.8468 C   0  0  0  0  0  0  0  0  0  0  0  0
  -23.2053   -5.4703   22.0778 C   0  0  0  0  0  0  0  0  0  0  0  0
  -23.7937   -4.4529   22.8290 C   0  0  0  0  0  0  0  0  0  0  0  0
  -29.6521  -25.5961   20.2241 C   0  0  0  0  0  0  0  0  0  0  0  0
  -29.7626  -17.6933   22.6701 C   0  0  0  0  0  0  0  0  0  0  0  0
  -22.0711   -4.6949   24.5058 C   0  0  0  0  0  0  0  0  0  0  0  0
  -23.7463  -10.4859   20.9993 C   0  0  0  0  0  0  0  0  0  0  0  0
  -24.1310  -13.0016   20.8238 C   0  0  0  0  0  0  0  0  0  0  0  0
  -26.1843  -22.1044   13.3846 C   0  0  0  0  0  0  0  0  0  0  0  0
  -27.6175  -25.4989   18.9161 C   0  0  0  0  0  0  0  0  0  0  0  0
  -27.0643  -22.4445   14.4298 C   0  0  0  0  0  0  0  0  0  0  0  0
  -28.8819  -26.0595   19.1465 C   0  0  0  0  0  0  0  0  0  0  0  0
  -30.2502  -18.9299   23.0779 C   0  0  0  0  0  0  0  0  0  0  0  0
  -31.5252  -19.3295   22.6932 C   0  0  0  0  0  0  0  0  0  0  0  0
  -22.2141   -8.2165   21.5325 C   0  0  0  0  0  0  0  0  0  0  0  0
  -29.1661  -24.5981   21.0683 C   0  0  0  0  0  0  0  0  0  0  0  0
  -22.0499   -6.1000   22.5405 C   0  0  0  0  0  0  0  0  0  0  0  0
  -23.2266   -4.0652   24.0430 C   0  0  0  0  0  0  0  0  0  0  0  0
  -21.4828   -5.7123   23.7545 C   0  0  0  0  0  0  0  0  0  0  0  0
  -24.5383  -11.6578   20.7244 C   0  0  0  0  0  0  0  0  0  0  0  0
  -30.5829  -16.8996   21.8846 C   0  0  0  0  0  0  0  0  0  0  0  0
  -32.2667  -18.4625   21.9069 C   0  0  0  0  0  0  0  0  0  0  0  0
  -25.2403  -13.7246   20.4588 C   0  0  0  0  0  0  0  0  0  0  0  0
  -22.8632  -13.5477   21.2116 C   0  0  0  0  0  0  0  0  0  0  0  0
  -28.2938  -25.6424   15.8135 C   0  0  0  0  0  0  0  0  0  0  0  0
  -28.7815  -28.7829   16.4629 C   0  0  0  0  0  0  0  0  0  0  0  0
  -29.5329  -31.1813   18.7715 C   0  0  0  0  0  0  0  0  0  0  0  0
  -30.7198  -14.6867   20.6886 C   0  0  0  0  0  0  0  0  0  0  0  0
  -26.1476  -22.8832   12.0936 C   0  0  0  0  0  0  0  0  0  0  0  0
  -26.7600  -25.9931   17.7834 C   0  0  0  0  0  0  0  0  0  0  0  0
  -29.4422  -27.1426   18.2624 C   0  0  0  0  0  0  0  0  0  0  0  0
  -26.7880  -24.2650   12.1973 C   0  0  0  0  0  0  0  0  0  0  0  0
  -29.6001  -12.2344   18.3627 C   0  0  0  0  0  0  0  0  0  0  0  0
  -28.1321  -24.1781   12.9132 C   0  0  0  0  0  0  0  0  0  0  0  0
  -28.1499  -11.9763   18.7780 C   0  0  0  0  0  0  0  0  0  0  0  0
  -30.5015  -12.4776   19.5719 C   0  0  0  0  0  0  0  0  0  0  0  0
  -28.5871  -13.2656   20.9072 C   0  0  0  0  0  0  0  0  0  0  0  0
  -27.9613  -23.6604   14.3465 C   0  0  1  0  0  0  0  0  0  0  0  0
  -27.5661  -26.6447   16.6641 C   0  0  1  0  0  0  0  0  0  0  0  0
  -27.6285  -13.0794   19.7197 C   0  0  2  0  0  0  0  0  0  0  0  0
  -29.3899  -19.8076   23.9256 C   0  0  0  0  0  0  0  0  0  0  0  0
  -29.8974  -33.6540   18.9960 C   0  0  0  0  0  0  0  0  0  0  0  0
  -31.5371  -28.4903   15.1859 C   0  0  0  0  0  0  0  0  0  0  0  0
  -32.1916  -30.6506   16.2688 C   0  0  0  0  0  0  0  0  0  0  0  0
  -30.3361  -30.6048   14.6022 C   0  0  0  0  0  0  0  0  0  0  0  0
  -27.2773  -31.4590   20.6673 C   0  0  0  0  0  0  0  0  0  0  0  0
  -34.2328  -17.8813   20.7016 C   0  0  0  0  0  0  0  0  0  0  0  0
  -32.0828  -20.6567   23.1156 C   0  0  0  0  0  0  0  0  0  0  0  0
  -31.9844  -23.1329   22.8034 C   0  0  0  0  0  0  0  0  0  0  0  0
  -31.3403  -24.2068   21.9490 C   0  0  0  0  0  0  0  0  0  1  0  0
  -29.9647  -29.6134   16.8981 C   0  0  1  0  0  0  0  0  0  0  0  0
  -28.8873  -32.5202   19.0797 C   0  0  2  0  0  0  0  0  0  0  0  0
  -30.9979  -29.8180   15.7544 C   0  0  0  0  0  0  0  0  0  0  0  0
  -25.8073  -11.5317   20.3272 N   0  0  0  0  0  0  0  0  0  0  0  0
  -31.8269  -17.2537   21.4911 N   0  0  0  0  0  0  0  0  0  0  0  0
  -26.2069  -12.8056   20.1737 N   0  0  0  0  0  0  0  0  0  0  0  0
  -28.5683  -27.5878   17.1645 N   0  0  0  0  0  0  0  0  0  0  0  0
  -29.9470  -13.5381   20.4160 N   0  0  0  0  0  0  0  0  0  0  0  0
  -25.4734  -15.0504   20.3570 N   0  0  0  0  0  0  0  0  0  0  0  0
  -21.8319  -12.6632   21.5557 N   0  0  0  0  0  0  0  0  0  0  0  0
  -30.0759  -15.6415   21.4750 N   0  0  0  0  0  0  0  0  0  0  0  0
  -27.4689  -24.7132   15.2088 N   0  0  0  0  0  0  0  0  0  0  0  0
  -29.4168  -30.8534   17.4373 N   0  0  0  0  0  0  0  0  0  0  0  0
  -28.3041  -32.5106   20.4511 N   0  3  0  0  0  0  0  0  0  0  0  0
  -31.4962  -21.8006   22.3665 N   0  3  0  0  0  0  0  0  0  0  0  0
  -22.6463  -14.7829   21.2360 O   0  0  0  0  0  0  0  0  0  0  0  0
  -29.5133  -25.7081   15.7122 O   0  0  0  0  0  0  0  0  0  0  0  0
  -28.0685  -29.1833   15.5394 O   0  0  0  0  0  0  0  0  0  0  0  0
  -30.0883  -30.4968   19.6279 O   0  0  0  0  0  0  0  0  0  0  0  0
  -31.8580  -14.8260   20.2337 O   0  0  0  0  0  0  0  0  0  0  0  0
  -21.4665   -7.1093   21.7931 O   0  0  0  0  0  0  0  0  0  0  0  0
  -29.9232  -24.1595   22.1105 O   0  0  0  0  0  0  0  0  0  1  0  0
  -33.5286  -18.8188   21.5068 O   0  0  0  0  0  0  0  0  0  0  0  0
  -23.7908   -3.0872   24.7636 F   0  0  0  0  0  0  0  0  0  0  0  0
  -20.3721   -6.3128   24.2036 F   0  0  0  0  0  0  0  0  0  0  0  0
  1  2  1  0  0  0  0
  1  5  2  0  0  0  0
  2  6  2  0  0  0  0
  3  8  2  0  0  0  0
  3 16  1  0  0  0  0
  4  9  1  0  0  0  0
  4 16  2  0  0  0  0
  5 18  1  0  0  0  0
  6 20  1  0  0  0  0
  7 10  2  0  0  0  0
  7 19  1  0  0  0  0
  8 24  1  0  0  0  0
  9 24  2  0  0  0  0
 10 25  1  0  0  0  0
 11 12  2  0  0  0  0
 11 26  1  0  0  0  0
 12 27  1  0  0  0  0
 13 21  1  0  0  0  0
 13 25  2  0  0  0  0
 14 22  2  0  0  0  0
 14 30  1  0  0  0  0
 15 27  2  0  0  0  0
 15 28  1  0  0  0  0
 16 29  1  0  0  0  0
 17 29  1  0  0  0  0
 17 32  2  0  0  0  0
 17 33  1  0  0  0  0
 18 20  2  0  0  0  0
 18 38  1  0  0  0  0
 19 21  2  0  0  0  0
 19 39  1  0  0  0  0
 20 47  1  0  0  0  0
 21 40  1  0  0  0  0
 22 23  1  0  0  0  0
 22 50  1  0  0  0  0
 23 31  2  0  0  0  0
 23 57  1  0  0  0  0
 24 80  1  0  0  0  0
 25 81  1  0  0  0  0
 26 28  2  0  0  0  0
 26 80  1  0  0  0  0
 27 83  1  0  0  0  0
 28 84  1  0  0  0  0
 29 63  2  0  0  0  0
 30 64  2  0  0  0  0
 30 70  1  0  0  0  0
 31 64  1  0  0  0  0
 31 82  1  0  0  0  0
 32 65  1  0  0  0  0
 32 68  1  0  0  0  0
 33 69  1  0  0  0  0
 33 75  2  0  0  0  0
 34 48  1  0  0  0  0
 34 71  1  0  0  0  0
 34 76  2  0  0  0  0
 35 60  1  0  0  0  0
 35 66  1  0  0  0  0
 35 77  2  0  0  0  0
 36 61  1  0  0  0  0
 36 72  1  0  0  0  0
 36 78  2  0  0  0  0
 37 67  1  0  0  0  0
 37 70  1  0  0  0  0
 37 79  2  0  0  0  0
 38 41  1  0  0  0  0
 39 48  1  0  0  0  0
 40 66  1  0  0  0  0
 41 43  1  0  0  0  0
 42 44  1  0  0  0  0
 42 45  1  0  0  0  0
 43 47  1  0  0  0  0
 44 49  1  0  0  0  0
 45 67  1  0  0  0  0
 46 49  1  0  0  0  0
 46 67  1  0  0  0  0
 47 71  1  0  0  0  0
 48 66  1  0  0  0  0
 49 65  1  0  0  0  0
 51 61  1  0  0  0  0
 52 62  1  0  0  0  0
 53 62  1  0  0  0  0
 54 62  1  0  0  0  0
 55 73  1  0  0  0  0
 56 82  1  0  0  0  0
 57 74  1  0  0  0  0
 58 59  1  0  0  0  0
 58 74  1  0  0  0  0
 59 81  1  0  0  0  0
 60 62  1  0  0  0  0
 60 72  1  0  0  0  0
 61 73  1  0  0  0  0
 63 65  1  0  0  0  0
M  CHG  2  73   1  74   1
M  ISO  4  37 100  59 101  70 100  81 101
M  END
> <Batch ID>
0141

> <Smiles>
CNC(C)C(=O)NC(C(=O)N1Cc2cc([101O:1][101CH2:1]CNCc3c(C)cc([100NH:0][100C:0](=O)N4CCCC(n5nc(-c6ccc(Oc7ccc(F)cc7F)cc6)c(C(N)=O)c5N)C4)nc3OC)ccc2CC1C(=O)NC1CCCc2ccccc21)C(C)(C)C

> <Shape>
0.211

> <Color>
0.190

> <Negative vol penalty>
0.000

$$$$

  -OEChem-04052321163D

 87 96  0     1  0  0  0  0  0999 V2000
  -29.2906  -36.0566   27.2889 C   0  0  0  0  0  0  0  0  0  0  0  0
  -29.7576  -35.0995   26.3937 C   0  0  0  0  0  0  0  0  0  0  0  0
  -24.0807   -9.9271   22.0875 C   0  0  0  0  0  0  0  0  0  0  0  0
  -24.5592  -11.3855   23.9533 C   0  0  0  0  0  0  0  0  0  0  0  0
  -28.1221  -35.8214   28.0123 C   0  0  0  0  0  0  0  0  0  0  0  0
  -29.0569  -33.9062   26.2223 C   0  0  0  0  0  0  0  0  0  0  0  0
  -28.4459  -30.7084   21.0351 C   0  0  0  0  0  0  0  0  0  0  0  0
  -31.2532  -21.7696   20.8136 C   0  0  0  0  0  0  0  0  0  0  0  0
  -23.6526   -8.9366   22.9715 C   0  0  0  0  0  0  0  0  0  0  0  0
  -24.1310  -10.3951   24.8373 C   0  0  0  0  0  0  0  0  0  0  0  0
  -29.1102  -29.5866   20.5410 C   0  0  0  0  0  0  0  0  0  0  0  0
  -31.4048  -23.1255   20.5252 C   0  0  0  0  0  0  0  0  0  0  0  0
  -20.8896   -8.2512   24.7960 C   0  0  0  0  0  0  0  0  0  0  0  0
  -19.7036   -7.5818   24.4945 C   0  0  0  0  0  0  0  0  0  0  0  0
  -29.6015  -22.9811   18.9323 C   0  0  0  0  0  0  0  0  0  0  0  0
  -27.3552  -28.1746   21.4044 C   0  0  0  0  0  0  0  0  0  0  0  0
  -20.9051   -5.4870   24.4191 C   0  0  0  0  0  0  0  0  0  0  0  0
  -24.5340  -11.1515   22.5785 C   0  0  0  0  0  0  0  0  0  0  0  0
  -24.1937  -13.1855   21.0769 C   0  0  0  0  0  0  0  0  0  0  0  0
  -27.4016  -34.6287   27.8425 C   0  0  0  0  0  0  0  0  0  0  0  0
  -27.2347  -30.5705   21.7283 C   0  0  0  0  0  0  0  0  0  0  0  0
  -30.2698  -21.0001   20.1674 C   0  0  0  0  0  0  0  0  0  0  0  0
  -27.8785  -33.6542   26.9451 C   0  0  0  0  0  0  0  0  0  0  0  0
  -29.4323  -21.6163   19.2182 C   0  0  0  0  0  0  0  0  0  0  0  0
  -26.6763  -29.2964   21.9041 C   0  0  0  0  0  0  0  0  0  0  0  0
  -23.6778   -9.1706   24.3463 C   0  0  0  0  0  0  0  0  0  0  0  0
  -28.5663  -28.3192   20.7281 C   0  0  0  0  0  0  0  0  0  0  0  0
  -30.5780  -23.7315   19.5854 C   0  0  0  0  0  0  0  0  0  0  0  0
  -22.0834   -7.5385   24.9090 C   0  0  0  0  0  0  0  0  0  0  0  0
  -19.7114   -6.1997   24.3061 C   0  0  0  0  0  0  0  0  0  0  0  0
  -22.0911   -6.1565   24.7206 C   0  0  0  0  0  0  0  0  0  0  0  0
  -24.9769  -12.1748   21.6659 C   0  0  0  0  0  0  0  0  0  0  0  0
  -25.0760  -13.8937   20.2982 C   0  0  0  0  0  0  0  0  0  0  0  0
  -22.7938  -13.4598   21.2210 C   0  0  0  0  0  0  0  0  0  0  0  0
  -26.2488  -31.2360   24.6759 C   0  0  0  0  0  0  0  0  0  0  0  0
  -23.3608  -30.3550   23.4902 C   0  0  0  0  0  0  0  0  0  0  0  0
  -21.6027  -28.5857   21.1609 C   0  0  0  0  0  0  0  0  0  0  0  0
  -30.0291  -16.3598   19.5691 C   0  0  0  0  0  0  0  0  0  0  0  0
  -26.1695  -34.3992   28.6816 C   0  0  0  0  0  0  0  0  0  0  0  0
  -26.5172  -31.7928   22.2317 C   0  0  0  0  0  0  0  0  0  0  0  0
  -28.4011  -20.8413   18.4377 C   0  0  0  0  0  0  0  0  0  0  0  0
  -25.3683  -29.0962   22.6235 C   0  0  0  0  0  0  0  0  0  0  0  0
  -25.2828  -33.2690   28.1653 C   0  0  0  0  0  0  0  0  0  0  0  0
  -28.0891  -19.4619   19.0147 C   0  0  0  0  0  0  0  0  0  0  0  0
  -29.8398  -12.8591   18.9481 C   0  0  0  0  0  0  0  0  0  0  0  0
  -26.1244  -32.0432   27.8247 C   0  0  0  0  0  0  0  0  0  0  0  0
  -28.4967  -12.4517   19.5565 C   0  0  0  0  0  0  0  0  0  0  0  0
  -30.5287  -13.9423   19.7751 C   0  0  0  0  0  0  0  0  0  0  0  0
  -28.3625  -14.7300   20.6475 C   0  0  0  0  0  0  0  0  0  0  0  0
  -30.1198  -19.5309   20.5322 C   0  0  2  0  0  0  0  0  0  0  0  0
  -27.1329  -32.3579   26.7132 C   0  0  1  0  0  0  0  0  0  0  0  0
  -25.5486  -31.4902   23.3710 C   0  0  1  0  0  0  0  0  0  0  0  0
  -27.6041  -13.6798   19.8180 C   0  0  2  0  0  0  0  0  0  0  0  0
  -29.3795  -18.7505   19.4222 C   0  0  1  0  0  0  0  0  0  0  0  0
  -19.2556  -28.0288   20.4693 C   0  0  0  0  0  0  0  0  0  0  0  0
  -30.4837  -19.6063   23.0152 C   0  0  0  0  0  0  0  0  0  0  0  0
  -28.3199  -20.4228   22.0379 C   0  0  0  0  0  0  0  0  0  0  0  0
  -23.1411  -28.3979   25.8208 C   0  0  0  0  0  0  0  0  0  0  0  0
  -21.3001  -27.2380   24.5823 C   0  0  0  0  0  0  0  0  0  0  0  0
  -21.0258  -29.6174   25.2796 C   0  0  0  0  0  0  0  0  0  0  0  0
  -21.9668  -29.8327   18.5017 C   0  0  0  0  0  0  0  0  0  0  0  0
  -30.6363  -27.2894   20.1709 C   0  0  0  0  0  0  0  0  0  1  0  0
  -31.2076  -25.8955   20.3448 C   0  0  0  0  0  0  0  0  0  0  0  0
  -22.6005  -29.0552   23.3832 C   0  0  1  0  0  0  0  0  0  0  0  0
  -20.4324  -28.9723   20.2748 C   0  0  2  0  0  0  0  0  0  0  0  0
  -29.4517  -19.4111   21.9117 C   0  0  0  0  0  0  0  0  0  0  0  0
  -22.0425  -28.5804   24.7546 C   0  0  0  0  0  0  0  0  0  0  0  0
  -26.2582  -12.2323   21.2930 N   0  0  0  0  0  0  0  0  0  0  0  0
  -26.2869  -13.2875   20.4614 N   0  0  0  0  0  0  0  0  0  0  0  0
  -24.7079  -30.3217   23.1028 N   0  0  0  0  0  0  0  0  0  0  0  0
  -29.6293  -15.0793   19.9857 N   0  0  0  0  0  0  0  0  0  0  0  0
  -24.9265  -14.9695   19.4965 N   0  0  0  0  0  0  0  0  0  0  0  0
  -22.0341  -12.6338   22.0605 N   0  0  0  0  0  0  0  0  0  0  0  0
  -26.4752  -32.3755   25.4242 N   0  0  0  0  0  0  0  0  0  0  0  0
  -21.5794  -29.2625   22.3620 N   0  0  0  0  0  0  0  0  0  0  0  0
  -29.1148  -17.3803   19.8004 N   0  0  0  0  0  0  0  0  0  0  0  0
  -20.8338  -28.9333   18.8402 N   0  3  0  0  0  0  0  0  0  0  0  0
  -22.2300  -14.3992   20.6101 O   0  0  0  0  0  0  0  0  0  0  0  0
  -26.5592  -30.0908   24.9820 O   0  0  0  0  0  0  0  0  0  0  0  0
  -22.7790  -31.3643   23.8956 O   0  0  0  0  0  0  0  0  0  0  0  0
  -22.4507  -27.7626   20.8230 O   0  0  0  0  0  0  0  0  0  0  0  0
  -31.1177  -16.5766   19.0262 O   0  0  0  0  0  0  0  0  0  0  0  0
  -23.2599   -8.2045   25.2092 O   0  0  0  0  0  0  0  0  0  0  0  0
  -29.2129  -27.2225   20.2474 O   0  0  0  0  0  0  0  0  0  1  0  0
  -30.7273  -25.0625   19.2966 O   0  0  0  0  0  0  0  0  0  0  0  0
  -18.5721   -5.5568   24.0181 F   0  0  0  0  0  0  0  0  0  0  0  0
  -23.2347   -5.4663   24.8291 F   0  0  0  0  0  0  0  0  0  0  0  0
  1  2  1  0  0  0  0
  1  5  2  0  0  0  0
  2  6  2  0  0  0  0
  3  9  2  0  0  0  0
  3 18  1  0  0  0  0
  4 10  1  0  0  0  0
  4 18  2  0  0  0  0
  5 20  1  0  0  0  0
  6 23  1  0  0  0  0
  7 11  2  0  0  0  0
  7 21  1  0  0  0  0
  8 12  2  0  0  0  0
  8 22  1  0  0  0  0
  9 26  1  0  0  0  0
 10 26  2  0  0  0  0
 11 27  1  0  0  0  0
 12 28  1  0  0  0  0
 13 14  2  0  0  0  0
 13 29  1  0  0  0  0
 14 30  1  0  0  0  0
 15 24  1  0  0  0  0
 15 28  2  0  0  0  0
 16 25  1  0  0  0  0
 16 27  2  0  0  0  0
 17 30  2  0  0  0  0
 17 31  1  0  0  0  0
 18 32  1  0  0  0  0
 19 32  1  0  0  0  0
 19 33  2  0  0  0  0
 19 34  1  0  0  0  0
 20 23  2  0  0  0  0
 20 39  1  0  0  0  0
 21 25  2  0  0  0  0
 21 40  1  0  0  0  0
 22 24  2  0  0  0  0
 22 50  1  0  0  0  0
 23 51  1  0  0  0  0
 24 41  1  0  0  0  0
 25 42  1  0  0  0  0
 26 83  1  0  0  0  0
 27 84  1  0  0  0  0
 28 85  1  0  0  0  0
 29 31  2  0  0  0  0
 29 83  1  0  0  0  0
 30 86  1  0  0  0  0
 31 87  1  0  0  0  0
 32 68  2  0  0  0  0
 33 69  1  0  0  0  0
 33 72  1  0  0  0  0
 34 73  1  0  0  0  0
 34 78  2  0  0  0  0
 35 52  1  0  0  0  0
 35 74  1  0  0  0  0
 35 79  2  0  0  0  0
 36 64  1  0  0  0  0
 36 70  1  0  0  0  0
 36 80  2  0  0  0  0
 37 65  1  0  0  0  0
 37 75  1  0  0  0  0
 37 81  2  0  0  0  0
 38 71  1  0  0  0  0
 38 76  1  0  0  0  0
 38 82  2  0  0  0  0
 39 43  1  0  0  0  0
 40 52  1  0  0  0  0
 41 44  1  0  0  0  0
 42 70  1  0  0  0  0
 43 46  1  0  0  0  0
 44 54  1  0  0  0  0
 45 47  1  0  0  0  0
 45 48  1  0  0  0  0
 46 51  1  0  0  0  0
 47 53  1  0  0  0  0
 48 71  1  0  0  0  0
 49 53  1  0  0  0  0
 49 71  1  0  0  0  0
 50 54  1  0  0  0  0
 50 66  1  0  0  0  0
 51 74  1  0  0  0  0
 52 70  1  0  0  0  0
 53 69  1  0  0  0  0
 54 76  1  0  0  0  0
 55 65  1  0  0  0  0
 56 66  1  0  0  0  0
 57 66  1  0  0  0  0
 58 67  1  0  0  0  0
 59 67  1  0  0  0  0
 60 67  1  0  0  0  0
 61 77  1  0  0  0  0
 62 63  1  0  0  0  0
 62 84  1  0  0  0  0
 63 85  1  0  0  0  0
 64 67  1  0  0  0  0
 64 75  1  0  0  0  0
 65 77  1  0  0  0  0
 68 69  1  0  0  0  0
M  CHG  1  77   1
M  ISO  4  38 100  62 101  76 100  84 101
M  END
> <Batch ID>
0141

> <Smiles>
CNC(C)C(=O)NC(C(=O)N1Cc2cc([101O:1][101CH2:1]COc3ccc4c(c3)CCC([100NH:0][100C:0](=O)N3CCCC(n5nc(-c6ccc(Oc7ccc(F)cc7F)cc6)c(C(N)=O)c5N)C3)C4C(C)C)ccc2CC1C(=O)NC1CCCc2ccccc21)C(C)(C)C

> <Shape>
0.326

> <Color>
0.136

> <Negative vol penalty>
0.000

$$$$

  -OEChem-04052321163D

 83 92  0     1  0  0  0  0  0999 V2000
  -41.7541  -22.4505   26.6464 C   0  0  0  0  0  0  0  0  0  0  0  0
  -40.6849  -21.9759   25.8933 C   0  0  0  0  0  0  0  0  0  0  0  0
  -23.0002   -9.8924   19.9815 C   0  0  0  0  0  0  0  0  0  0  0  0
  -23.7260   -9.9448   22.2853 C   0  0  0  0  0  0  0  0  0  0  0  0
  -41.9207  -23.8223   26.8310 C   0  0  0  0  0  0  0  0  0  0  0  0
  -39.7810  -22.8730   25.3254 C   0  0  0  0  0  0  0  0  0  0  0  0
  -38.6650  -21.7262   20.5208 C   0  0  0  0  0  0  0  0  0  0  0  0
  -22.2342   -8.7577   20.2486 C   0  0  0  0  0  0  0  0  0  0  0  0
  -22.9600   -8.8101   22.5525 C   0  0  0  0  0  0  0  0  0  0  0  0
  -37.7581  -20.6888   20.3079 C   0  0  0  0  0  0  0  0  0  0  0  0
  -23.2056   -5.4711   22.0821 C   0  0  0  0  0  0  0  0  0  0  0  0
  -23.7938   -4.4545   22.8346 C   0  0  0  0  0  0  0  0  0  0  0  0
  -36.0050  -22.3048   19.9411 C   0  0  0  0  0  0  0  0  0  0  0  0
  -29.7539  -17.6921   22.6687 C   0  0  0  0  0  0  0  0  0  0  0  0
  -22.0703   -4.6975   24.5102 C   0  0  0  0  0  0  0  0  0  0  0  0
  -23.7462  -10.4860   20.9998 C   0  0  0  0  0  0  0  0  0  0  0  0
  -24.1304  -13.0016   20.8225 C   0  0  0  0  0  0  0  0  0  0  0  0
  -41.0238  -24.7371   26.2570 C   0  0  0  0  0  0  0  0  0  0  0  0
  -38.2456  -23.0627   20.4560 C   0  0  0  0  0  0  0  0  0  0  0  0
  -39.9350  -24.2583   25.5036 C   0  0  0  0  0  0  0  0  0  0  0  0
  -36.9090  -23.3573   20.1510 C   0  0  0  0  0  0  0  0  0  0  0  0
  -30.2644  -18.9156   23.0516 C   0  0  0  0  0  0  0  0  0  0  0  0
  -31.5467  -19.3053   22.6669 C   0  0  0  0  0  0  0  0  0  0  0  0
  -22.2141   -8.2166   21.5341 C   0  0  0  0  0  0  0  0  0  0  0  0
  -36.4273  -20.9780   20.0209 C   0  0  0  0  0  0  0  0  0  0  0  0
  -22.0498   -6.1010   22.5437 C   0  0  0  0  0  0  0  0  0  0  0  0
  -23.2262   -4.0677   24.0486 C   0  0  0  0  0  0  0  0  0  0  0  0
  -21.4822   -5.7142   23.7577 C   0  0  0  0  0  0  0  0  0  0  0  0
  -24.5381  -11.6578   20.7244 C   0  0  0  0  0  0  0  0  0  0  0  0
  -30.5809  -16.9019   21.8835 C   0  0  0  0  0  0  0  0  0  0  0  0
  -32.3002  -18.4505   21.8975 C   0  0  0  0  0  0  0  0  0  0  0  0
  -25.2397  -13.7245   20.4574 C   0  0  0  0  0  0  0  0  0  0  0  0
  -22.8623  -13.5477   21.2091 C   0  0  0  0  0  0  0  0  0  0  0  0
  -38.1446  -25.4841   22.5128 C   0  0  0  0  0  0  0  0  0  0  0  0
  -37.2211  -27.1605   19.8938 C   0  0  0  0  0  0  0  0  0  0  0  0
  -35.8097  -27.1350   16.7867 C   0  0  0  0  0  0  0  0  0  0  0  0
  -30.7188  -14.6880   20.6893 C   0  0  0  0  0  0  0  0  0  0  0  0
  -41.2180  -26.2088   26.5237 C   0  0  0  0  0  0  0  0  0  0  0  0
  -39.2419  -24.1706   20.6617 C   0  0  0  0  0  0  0  0  0  0  0  0
  -29.6329  -19.9556   23.9208 C   0  0  0  0  0  0  0  0  0  0  0  0
  -31.9043  -20.6367   23.2351 C   0  0  0  0  0  0  0  0  0  0  0  0
  -36.4127  -24.7757   20.0501 C   0  0  0  0  0  0  0  0  0  0  0  0
  -40.4293  -27.1088   25.5759 C   0  0  0  0  0  0  0  0  0  0  0  0
  -30.5153  -21.1762   23.6118 C   0  0  0  0  0  0  0  0  0  0  0  0
  -29.6009  -12.2335   18.3649 C   0  0  0  0  0  0  0  0  0  0  0  0
  -38.9922  -26.6149   25.4428 C   0  0  0  0  0  0  0  0  0  0  0  0
  -28.1506  -11.9755   18.7796 C   0  0  0  0  0  0  0  0  0  0  0  0
  -30.5017  -12.4779   19.5743 C   0  0  0  0  0  0  0  0  0  0  0  0
  -28.5864  -13.2666   20.9080 C   0  0  0  0  0  0  0  0  0  0  0  0
  -38.9474  -25.2010   24.8508 C   0  0  1  0  0  0  0  0  0  0  0  0
  -38.5939  -25.4871   21.0790 C   0  0  1  0  0  0  0  0  0  0  0  0
  -27.6285  -13.0793   19.7202 C   0  0  2  0  0  0  0  0  0  0  0  0
  -35.1548  -28.6642   14.9079 C   0  0  0  0  0  0  0  0  0  0  0  0
  -34.7954  -28.0867   21.4964 C   0  0  0  0  0  0  0  0  0  0  0  0
  -33.7306  -28.7941   19.3438 C   0  0  0  0  0  0  0  0  0  0  0  0
  -35.8573  -29.8623   20.0913 C   0  0  0  0  0  0  0  0  0  0  0  0
  -37.6337  -25.7779   14.8919 C   0  0  0  0  0  0  0  0  0  0  0  0
  -34.4627  -18.0204   20.7294 C   0  0  0  0  0  0  0  0  0  0  0  0
  -35.7812  -18.7399   20.5000 C   0  0  0  0  0  0  0  0  0  1  0  0
  -35.8980  -27.4814   19.2416 C   0  0  1  0  0  0  0  0  0  0  0  0
  -36.2442  -27.7691   15.4777 C   0  0  2  0  0  0  0  0  0  0  0  0
  -35.0789  -28.5293   20.0470 C   0  0  0  0  0  0  0  0  0  0  0  0
  -25.8073  -11.5316   20.3279 N   0  0  0  0  0  0  0  0  0  0  0  0
  -31.8364  -17.2473   21.4881 N   0  0  0  0  0  0  0  0  0  0  0  0
  -26.2067  -12.8055   20.1736 N   0  0  0  0  0  0  0  0  0  0  0  0
  -37.4238  -25.8239   20.2656 N   0  0  0  0  0  0  0  0  0  0  0  0
  -29.9464  -13.5390   20.4172 N   0  0  0  0  0  0  0  0  0  0  0  0
  -25.4726  -15.0502   20.3546 N   0  0  0  0  0  0  0  0  0  0  0  0
  -21.8310  -12.6633   21.5534 N   0  0  0  0  0  0  0  0  0  0  0  0
  -30.0744  -15.6433   21.4746 N   0  0  0  0  0  0  0  0  0  0  0  0
  -33.5805  -18.8342   21.5341 N   0  0  0  0  0  0  0  0  0  0  0  0
  -39.1593  -25.2453   23.4199 N   0  0  0  0  0  0  0  0  0  0  0  0
  -36.2045  -27.8857   17.8738 N   0  0  0  0  0  0  0  0  0  0  0  0
  -36.5610  -26.7160   14.4720 N   0  3  0  0  0  0  0  0  0  0  0  0
  -22.6451  -14.7829   21.2323 O   0  0  0  0  0  0  0  0  0  0  0  0
  -36.9649  -25.6851   22.7767 O   0  0  0  0  0  0  0  0  0  0  0  0
  -38.0473  -28.0612   20.0606 O   0  0  0  0  0  0  0  0  0  0  0  0
  -35.1795  -26.0811   16.8395 O   0  0  0  0  0  0  0  0  0  0  0  0
  -31.8573  -14.8272   20.2349 O   0  0  0  0  0  0  0  0  0  0  0  0
  -21.4666   -7.1095   21.7952 O   0  0  0  0  0  0  0  0  0  0  0  0
  -35.5399  -19.9674   19.8133 O   0  0  0  0  0  0  0  0  0  1  0  0
  -23.7902   -3.0904   24.7703 F   0  0  0  0  0  0  0  0  0  0  0  0
  -20.3712   -6.3148   24.2058 F   0  0  0  0  0  0  0  0  0  0  0  0
  1  2  1  0  0  0  0
  1  5  2  0  0  0  0
  2  6  2  0  0  0  0
  3  8  2  0  0  0  0
  3 16  1  0  0  0  0
  4  9  1  0  0  0  0
  4 16  2  0  0  0  0
  5 18  1  0  0  0  0
  6 20  1  0  0  0  0
  7 10  2  0  0  0  0
  7 19  1  0  0  0  0
  8 24  1  0  0  0  0
  9 24  2  0  0  0  0
 10 25  1  0  0  0  0
 11 12  2  0  0  0  0
 11 26  1  0  0  0  0
 12 27  1  0  0  0  0
 13 21  1  0  0  0  0
 13 25  2  0  0  0  0
 14 22  2  0  0  0  0
 14 30  1  0  0  0  0
 15 27  2  0  0  0  0
 15 28  1  0  0  0  0
 16 29  1  0  0  0  0
 17 29  1  0  0  0  0
 17 32  2  0  0  0  0
 17 33  1  0  0  0  0
 18 20  2  0  0  0  0
 18 38  1  0  0  0  0
 19 21  2  0  0  0  0
 19 39  1  0  0  0  0
 20 50  1  0  0  0  0
 21 42  1  0  0  0  0
 22 23  1  0  0  0  0
 22 40  1  0  0  0  0
 23 31  2  0  0  0  0
 23 41  1  0  0  0  0
 24 80  1  0  0  0  0
 25 81  1  0  0  0  0
 26 28  2  0  0  0  0
 26 80  1  0  0  0  0
 27 82  1  0  0  0  0
 28 83  1  0  0  0  0
 29 63  2  0  0  0  0
 30 64  2  0  0  0  0
 30 70  1  0  0  0  0
 31 64  1  0  0  0  0
 31 71  1  0  0  0  0
 32 65  1  0  0  0  0
 32 68  1  0  0  0  0
 33 69  1  0  0  0  0
 33 75  2  0  0  0  0
 34 51  1  0  0  0  0
 34 72  1  0  0  0  0
 34 76  2  0  0  0  0
 35 60  1  0  0  0  0
 35 66  1  0  0  0  0
 35 77  2  0  0  0  0
 36 61  1  0  0  0  0
 36 73  1  0  0  0  0
 36 78  2  0  0  0  0
 37 67  1  0  0  0  0
 37 70  1  0  0  0  0
 37 79  2  0  0  0  0
 38 43  1  0  0  0  0
 39 51  1  0  0  0  0
 40 44  1  0  0  0  0
 41 44  1  0  0  0  0
 42 66  1  0  0  0  0
 43 46  1  0  0  0  0
 45 47  1  0  0  0  0
 45 48  1  0  0  0  0
 46 50  1  0  0  0  0
 47 52  1  0  0  0  0
 48 67  1  0  0  0  0
 49 52  1  0  0  0  0
 49 67  1  0  0  0  0
 50 72  1  0  0  0  0
 51 66  1  0  0  0  0
 52 65  1  0  0  0  0
 53 61  1  0  0  0  0
 54 62  1  0  0  0  0
 55 62  1  0  0  0  0
 56 62  1  0  0  0  0
 57 74  1  0  0  0  0
 58 59  1  0  0  0  0
 58 71  1  0  0  0  0
 59 81  1  0  0  0  0
 60 62  1  0  0  0  0
 60 73  1  0  0  0  0
 61 74  1  0  0  0  0
 63 65  1  0  0  0  0
M  CHG  1  74   1
M  ISO  4  37 100  59 101  70 100  81 101
M  END
> <Batch ID>
0141

> <Smiles>
CNC(C)C(=O)NC(C(=O)N1Cc2cc([101O:1][101CH2:1]CNc3nc([100NH:0][100C:0](=O)N4CCCC(n5nc(-c6ccc(Oc7ccc(F)cc7F)cc6)c(C(N)=O)c5N)C4)cc4c3CCC4)ccc2CC1C(=O)NC1CCCc2ccccc21)C(C)(C)C

> <Shape>
0.176

> <Color>
0.194

> <Negative vol penalty>
0.000

$$$$

  -OEChem-04052321163D

 84 93  0     1  0  0  0  0  0999 V2000
  -28.8272  -23.8323   17.5002 C   0  0  0  0  0  0  0  0  0  0  0  0
  -27.6163  -24.0178   18.1594 C   0  0  0  0  0  0  0  0  0  0  0  0
  -26.5944  -16.6777   22.2837 C   0  0  0  0  0  0  0  0  0  0  0  0
  -24.8557  -17.1275   20.6677 C   0  0  0  0  0  0  0  0  0  0  0  0
  -29.9769  -24.4705   17.9638 C   0  0  0  0  0  0  0  0  0  0  0  0
  -27.5545  -24.8408   19.2834 C   0  0  0  0  0  0  0  0  0  0  0  0
  -23.5606  -27.9530   19.1951 C   0  0  0  0  0  0  0  0  0  0  0  0
  -17.4150  -26.4826   20.2954 C   0  0  0  0  0  0  0  0  0  0  0  0
  -26.8213  -15.4344   21.6936 C   0  0  0  0  0  0  0  0  0  0  0  0
  -25.0827  -15.8842   20.0774 C   0  0  0  0  0  0  0  0  0  0  0  0
  -22.3222  -27.4095   19.5340 C   0  0  0  0  0  0  0  0  0  0  0  0
  -16.1932  -26.0426   20.8043 C   0  0  0  0  0  0  0  0  0  0  0  0
  -28.4176  -14.2242   18.9695 C   0  0  0  0  0  0  0  0  0  0  0  0
  -29.7410  -13.8457   18.7437 C   0  0  0  0  0  0  0  0  0  0  0  0
  -18.5611  -24.7901   21.5834 C   0  0  0  0  0  0  0  0  0  0  0  0
  -22.5287  -28.3368   21.7513 C   0  0  0  0  0  0  0  0  0  0  0  0
  -29.4305  -11.9144   20.1618 C   0  0  0  0  0  0  0  0  0  0  0  0
  -25.6116  -17.5243   21.7708 C   0  0  0  0  0  0  0  0  0  0  0  0
  -25.9950  -20.0303   22.0545 C   0  0  0  0  0  0  0  0  0  0  0  0
  -29.9272  -25.3094   19.0883 C   0  0  0  0  0  0  0  0  0  0  0  0
  -24.2985  -28.6845   20.1368 C   0  0  0  0  0  0  0  0  0  0  0  0
  -28.7048  -25.4898   19.7633 C   0  0  0  0  0  0  0  0  0  0  0  0
  -17.3392  -24.3501   22.0924 C   0  0  0  0  0  0  0  0  0  0  0  0
  -23.7750  -28.8908   21.4211 C   0  0  0  0  0  0  0  0  0  0  0  0
  -18.5990  -25.8563   20.6849 C   0  0  0  0  0  0  0  0  0  0  0  0
  -26.0655  -15.0376   20.5904 C   0  0  0  0  0  0  0  0  0  0  0  0
  -21.8074  -27.5989   20.8131 C   0  0  0  0  0  0  0  0  0  0  0  0
  -16.1552  -24.9764   21.7028 C   0  0  0  0  0  0  0  0  0  0  0  0
  -27.6007  -13.4479   19.7916 C   0  0  0  0  0  0  0  0  0  0  0  0
  -30.2474  -12.6908   19.3398 C   0  0  0  0  0  0  0  0  0  0  0  0
  -28.1071  -12.2930   20.3877 C   0  0  0  0  0  0  0  0  0  0  0  0
  -25.3763  -18.8085   22.3803 C   0  0  0  0  0  0  0  0  0  0  0  0
  -25.4306  -20.9409   22.9139 C   0  0  0  0  0  0  0  0  0  0  0  0
  -26.9908  -20.3165   21.0634 C   0  0  0  0  0  0  0  0  0  0  0  0
  -27.1382  -28.3367   21.5221 C   0  0  0  0  0  0  0  0  0  0  0  0
  -26.4655  -31.2648   22.7453 C   0  0  0  0  0  0  0  0  0  0  0  0
  -24.1025  -33.5691   23.6129 C   0  0  0  0  0  0  0  0  0  0  0  0
  -20.1990  -21.1038   25.8218 C   0  0  0  0  0  0  0  0  0  0  0  0
  -31.2057  -25.9404   19.5803 C   0  0  0  0  0  0  0  0  0  0  0  0
  -25.6206  -29.2870   19.7474 C   0  0  0  0  0  0  0  0  0  0  0  0
  -24.5184  -29.6855   22.4624 C   0  0  0  0  0  0  0  0  0  0  0  0
  -30.9801  -27.0929   20.5555 C   0  0  0  0  0  0  0  0  0  0  0  0
  -23.4528  -21.2622   27.2586 C   0  0  0  0  0  0  0  0  0  0  0  0
  -29.9507  -26.7045   21.6120 C   0  0  0  0  0  0  0  0  0  0  0  0
  -24.3706  -20.7616   26.1419 C   0  0  0  0  0  0  0  0  0  0  0  0
  -18.0584  -21.8214   22.7383 C   0  0  0  0  0  0  0  0  0  0  0  0
  -18.2445  -23.1812   24.3604 C   0  0  0  0  0  0  0  0  0  0  0  0
  -22.1203  -20.5164   27.2710 C   0  0  0  0  0  0  0  0  0  0  0  0
  -22.3185  -20.0119   24.8668 C   0  0  0  0  0  0  0  0  0  0  0  0
  -17.3129  -23.1380   23.1118 C   0  0  0  0  0  0  0  0  0  0  0  0
  -28.5925  -26.3945   20.9712 C   0  0  1  0  0  0  0  0  0  0  0  0
  -26.5202  -29.5785   20.9445 C   0  0  1  0  0  0  0  0  0  0  0  0
  -23.6527  -20.7726   24.7789 C   0  0  2  0  0  0  0  0  0  0  0  0
  -18.3642  -21.6466   24.2414 C   0  0  0  0  0  0  0  0  0  0  0  0
  -23.8554  -35.8525   24.6240 C   0  0  0  0  0  0  0  0  0  0  0  0
  -27.0100  -30.0965   25.5109 C   0  0  0  0  0  0  0  0  0  0  0  0
  -25.8520  -32.0829   26.5015 C   0  0  0  0  0  0  0  0  0  0  0  0
  -27.9258  -32.3956   25.1509 C   0  0  0  0  0  0  0  0  0  0  0  0
  -22.8342  -34.6432   21.1641 C   0  0  0  0  0  0  0  0  0  0  0  0
  -13.7936  -25.2540   21.7422 C   0  0  0  0  0  0  0  0  0  0  0  0
  -19.9130  -26.3300   20.1369 C   0  0  0  0  0  0  0  0  0  1  0  0
  -25.7705  -31.7712   23.9861 C   0  0  1  0  0  0  0  0  0  0  0  0
  -23.9975  -35.0578   23.3352 C   0  0  2  0  0  0  0  0  0  0  0  0
  -26.6262  -31.5699   25.2686 C   0  0  0  0  0  0  0  0  0  0  0  0
  -24.4871  -18.9285   23.3697 N   0  0  0  0  0  0  0  0  0  0  0  0
  -24.5429  -20.2366   23.6730 N   0  0  0  0  0  0  0  0  0  0  0  0
  -25.8098  -30.2490   22.0353 N   0  0  0  0  0  0  0  0  0  0  0  0
  -21.4903  -20.5660   25.9494 N   0  0  0  0  0  0  0  0  0  0  0  0
  -25.6120  -22.2674   23.0869 N   0  0  0  0  0  0  0  0  0  0  0  0
  -27.4612  -19.2645   20.2657 N   0  0  0  0  0  0  0  0  0  0  0  0
  -27.9059  -27.6202   20.6239 N   0  0  0  0  0  0  0  0  0  0  0  0
  -25.4152  -33.1603   23.7168 N   0  0  0  0  0  0  0  0  0  0  0  0
  -19.6783  -21.1189   24.5337 N   0  0  0  0  0  0  0  0  0  0  0  0
  -22.8143  -35.3421   22.4749 N   0  3  0  0  0  0  0  0  0  0  0  0
  -27.4617  -21.4678   20.9016 O   0  0  0  0  0  0  0  0  0  0  0  0
  -26.9348  -28.0506   22.6962 O   0  0  0  0  0  0  0  0  0  0  0  0
  -27.5469  -31.7574   22.4142 O   0  0  0  0  0  0  0  0  0  0  0  0
  -23.1183  -32.8423   23.7299 O   0  0  0  0  0  0  0  0  0  0  0  0
  -19.5599  -21.5433   26.7837 O   0  0  0  0  0  0  0  0  0  0  0  0
  -26.2868  -13.8246   20.0141 O   0  0  0  0  0  0  0  0  0  0  0  0
  -14.9547  -24.5587   22.1924 O   0  0  0  0  0  0  0  0  0  0  0  0
  -20.5992  -27.0689   21.1467 O   0  0  0  0  0  0  0  0  0  1  0  0
  -31.5178  -12.3266   19.1216 F   0  0  0  0  0  0  0  0  0  0  0  0
  -27.3268  -11.5425   21.1774 F   0  0  0  0  0  0  0  0  0  0  0  0
  1  2  1  0  0  0  0
  1  5  2  0  0  0  0
  2  6  2  0  0  0  0
  3  9  2  0  0  0  0
  3 18  1  0  0  0  0
  4 10  1  0  0  0  0
  4 18  2  0  0  0  0
  5 20  1  0  0  0  0
  6 22  1  0  0  0  0
  7 11  2  0  0  0  0
  7 21  1  0  0  0  0
  8 12  2  0  0  0  0
  8 25  1  0  0  0  0
  9 26  1  0  0  0  0
 10 26  2  0  0  0  0
 11 27  1  0  0  0  0
 12 28  1  0  0  0  0
 13 14  2  0  0  0  0
 13 29  1  0  0  0  0
 14 30  1  0  0  0  0
 15 23  1  0  0  0  0
 15 25  2  0  0  0  0
 16 24  1  0  0  0  0
 16 27  2  0  0  0  0
 17 30  2  0  0  0  0
 17 31  1  0  0  0  0
 18 32  1  0  0  0  0
 19 32  1  0  0  0  0
 19 33  2  0  0  0  0
 19 34  1  0  0  0  0
 20 22  2  0  0  0  0
 20 39  1  0  0  0  0
 21 24  2  0  0  0  0
 21 40  1  0  0  0  0
 22 51  1  0  0  0  0
 23 28  2  0  0  0  0
 23 50  1  0  0  0  0
 24 41  1  0  0  0  0
 25 61  1  0  0  0  0
 26 80  1  0  0  0  0
 27 82  1  0  0  0  0
 28 81  1  0  0  0  0
 29 31  2  0  0  0  0
 29 80  1  0  0  0  0
 30 83  1  0  0  0  0
 31 84  1  0  0  0  0
 32 65  2  0  0  0  0
 33 66  1  0  0  0  0
 33 69  1  0  0  0  0
 34 70  1  0  0  0  0
 34 75  2  0  0  0  0
 35 52  1  0  0  0  0
 35 71  1  0  0  0  0
 35 76  2  0  0  0  0
 36 62  1  0  0  0  0
 36 67  1  0  0  0  0
 36 77  2  0  0  0  0
 37 63  1  0  0  0  0
 37 72  1  0  0  0  0
 37 78  2  0  0  0  0
 38 68  1  0  0  0  0
 38 73  1  0  0  0  0
 38 79  2  0  0  0  0
 39 42  1  0  0  0  0
 40 52  1  0  0  0  0
 41 67  1  0  0  0  0
 42 44  1  0  0  0  0
 43 45  1  0  0  0  0
 43 48  1  0  0  0  0
 44 51  1  0  0  0  0
 45 53  1  0  0  0  0
 46 50  1  0  0  0  0
 46 54  1  0  0  0  0
 47 50  1  0  0  0  0
 47 54  1  0  0  0  0
 48 68  1  0  0  0  0
 49 53  1  0  0  0  0
 49 68  1  0  0  0  0
 51 71  1  0  0  0  0
 52 67  1  0  0  0  0
 53 66  1  0  0  0  0
 54 73  1  0  0  0  0
 55 63  1  0  0  0  0
 56 64  1  0  0  0  0
 57 64  1  0  0  0  0
 58 64  1  0  0  0  0
 59 74  1  0  0  0  0
 60 81  1  0  0  0  0
 61 82  1  0  0  0  0
 62 64  1  0  0  0  0
 62 72  1  0  0  0  0
 63 74  1  0  0  0  0
 65 66  1  0  0  0  0
M  CHG  1  74   1
M  ISO  4  38 100  61 101  73 100  82 101
M  END
> <Batch ID>
0141

> <Smiles>
CNC(C)C(=O)NC(C(=O)N1Cc2cc([101O:1][101CH2:1]c3ccc(OC)c(C4CC([100NH:0][100C:0](=O)N5CCCC(n6nc(-c7ccc(Oc8ccc(F)cc8F)cc7)c(C(N)=O)c6N)C5)C4)c3)ccc2CC1C(=O)NC1CCCc2ccccc21)C(C)(C)C

> <Shape>
0.262

> <Color>
0.064

> <Negative vol penalty>
0.000

$$$$

  -OEChem-04052321163D

 88 97  0     1  0  0  0  0  0999 V2000
  -27.7792  -32.2566   15.2640 C   0  0  0  0  0  0  0  0  0  0  0  0
  -27.6786  -30.8691   15.2733 C   0  0  0  0  0  0  0  0  0  0  0  0
  -23.0990   -9.8268   19.9657 C   0  0  0  0  0  0  0  0  0  0  0  0
  -23.7388   -9.9622   22.2915 C   0  0  0  0  0  0  0  0  0  0  0  0
  -28.1580  -32.9346   16.4218 C   0  0  0  0  0  0  0  0  0  0  0  0
  -27.9579  -30.1587   16.4402 C   0  0  0  0  0  0  0  0  0  0  0  0
  -25.9835  -24.2597   19.9927 C   0  0  0  0  0  0  0  0  0  0  0  0
  -22.3593   -8.6756   20.2362 C   0  0  0  0  0  0  0  0  0  0  0  0
  -22.9991   -8.8110   22.5620 C   0  0  0  0  0  0  0  0  0  0  0  0
  -26.5333  -23.1186   20.5754 C   0  0  0  0  0  0  0  0  0  0  0  0
  -23.3647   -5.4704   22.1914 C   0  0  0  0  0  0  0  0  0  0  0  0
  -23.9564   -4.4930   22.9915 C   0  0  0  0  0  0  0  0  0  0  0  0
  -27.1017  -24.4017   22.5374 C   0  0  0  0  0  0  0  0  0  0  0  0
  -22.1666   -4.7244   24.5977 C   0  0  0  0  0  0  0  0  0  0  0  0
  -23.7888  -10.4701   20.9934 C   0  0  0  0  0  0  0  0  0  0  0  0
  -24.1012  -12.9913   20.7616 C   0  0  0  0  0  0  0  0  0  0  0  0
  -28.4327  -32.2329   17.6062 C   0  0  0  0  0  0  0  0  0  0  0  0
  -25.9985  -25.4849   20.6748 C   0  0  0  0  0  0  0  0  0  0  0  0
  -28.3421  -30.8279   17.6146 C   0  0  0  0  0  0  0  0  0  0  0  0
  -26.5492  -25.5563   21.9623 C   0  0  0  0  0  0  0  0  0  0  0  0
  -22.3093   -8.1677   21.5343 C   0  0  0  0  0  0  0  0  0  0  0  0
  -27.0951  -23.1902   21.8467 C   0  0  0  0  0  0  0  0  0  0  0  0
  -22.1740   -6.0749   22.5945 C   0  0  0  0  0  0  0  0  0  0  0  0
  -23.3573   -4.1199   24.1946 C   0  0  0  0  0  0  0  0  0  0  0  0
  -21.5749   -5.7018   23.7976 C   0  0  0  0  0  0  0  0  0  0  0  0
  -24.5536  -11.6590   20.7145 C   0  0  0  0  0  0  0  0  0  0  0  0
  -25.2001  -13.7395   20.4166 C   0  0  0  0  0  0  0  0  0  0  0  0
  -22.8036  -13.5065   21.0881 C   0  0  0  0  0  0  0  0  0  0  0  0
  -27.2929  -28.3373   20.1344 C   0  0  0  0  0  0  0  0  0  0  0  0
  -25.6021  -29.1719   22.7738 C   0  0  0  0  0  0  0  0  0  0  0  0
  -24.0861  -28.1967   25.6717 C   0  0  0  0  0  0  0  0  0  0  0  0
  -30.7165  -14.6712   21.1854 C   0  0  0  0  0  0  0  0  0  0  0  0
  -28.8845  -33.0060   18.8199 C   0  0  0  0  0  0  0  0  0  0  0  0
  -25.3774  -26.7006   20.0434 C   0  0  0  0  0  0  0  0  0  0  0  0
  -26.5721  -26.8431   22.7447 C   0  0  0  0  0  0  0  0  0  0  0  0
  -28.7997  -32.2065   20.1176 C   0  0  0  0  0  0  0  0  0  0  0  0
  -34.4223  -15.2642   24.1725 C   0  0  0  0  0  0  0  0  0  0  0  0
  -33.6821  -14.8055   25.4302 C   0  0  0  0  0  0  0  0  0  0  0  0
  -29.6808  -12.3611   18.5236 C   0  0  0  0  0  0  0  0  0  0  0  0
  -29.3918  -30.8138   19.9262 C   0  0  0  0  0  0  0  0  0  0  0  0
  -33.4477  -16.1548   23.4079 C   0  0  0  0  0  0  0  0  0  0  0  0
  -32.3045  -15.4573   25.3708 C   0  0  0  0  0  0  0  0  0  0  0  0
  -28.2313  -12.0452   18.8944 C   0  0  0  0  0  0  0  0  0  0  0  0
  -29.4982  -18.0080   20.4301 C   0  0  0  0  0  0  0  0  0  0  0  0
  -30.5315  -12.6655   19.7545 C   0  0  0  0  0  0  0  0  0  0  0  0
  -29.1174  -16.5352   20.5216 C   0  0  0  0  0  0  0  0  0  0  0  0
  -28.5333  -13.4005   21.0004 C   0  0  0  0  0  0  0  0  0  0  0  0
  -28.6128  -30.0238   18.8677 C   0  0  1  0  0  0  0  0  0  0  0  0
  -25.9087  -28.0099   20.6185 C   0  0  1  0  0  0  0  0  0  0  0  0
  -32.0731  -15.6930   23.8816 C   0  0  0  0  0  0  0  0  0  0  0  0
  -27.6327  -13.1517   19.7824 C   0  0  2  0  0  0  0  0  0  0  0  0
  -30.0746  -18.2593   21.8143 C   0  0  1  0  0  0  0  0  0  0  0  0
  -30.8795  -16.9911   22.1055 C   0  0  1  0  0  0  0  0  0  0  0  0
  -22.8207  -29.1099   27.6369 C   0  0  0  0  0  0  0  0  0  0  0  0
  -29.6341  -16.1946   24.1347 C   0  0  0  0  0  0  0  0  0  0  0  0
  -30.8445  -21.2800   24.2455 C   0  0  0  0  0  0  0  0  0  0  0  0
  -31.1039  -21.8268   21.2618 C   0  0  0  0  0  0  0  0  0  0  0  0
  -28.2063  -30.2408   23.9509 C   0  0  0  0  0  0  0  0  0  0  0  0
  -27.1041  -30.2528   26.1988 C   0  0  0  0  0  0  0  0  0  0  0  0
  -26.2055  -31.6834   24.3634 C   0  0  0  0  0  0  0  0  0  0  0  0
  -21.6927  -26.5784   25.0302 C   0  0  0  0  0  0  0  0  0  0  0  0
  -28.7155  -22.2749   23.3274 C   0  0  0  0  0  0  0  0  0  1  0  0
  -25.8730  -29.1793   24.2589 C   0  0  1  0  0  0  0  0  0  0  0  0
  -22.7151  -28.5065   26.2450 C   0  0  2  0  0  0  0  0  0  0  0  0
  -30.9726  -16.7005   23.5988 C   0  0  1  0  0  0  0  0  0  0  0  0
  -29.6781  -21.0787   23.2654 C   0  0  1  0  0  0  0  0  0  0  0  0
  -30.1901  -20.7540   21.8439 C   0  0  2  0  0  0  0  0  0  0  0  0
  -26.8487  -30.3151   24.6777 C   0  0  0  0  0  0  0  0  0  0  0  0
  -25.8396  -11.5631   20.3668 N   0  0  0  0  0  0  0  0  0  0  0  0
  -26.2047  -12.8447   20.1923 N   0  0  0  0  0  0  0  0  0  0  0  0
  -25.9581  -28.0056   22.0820 N   0  0  0  0  0  0  0  0  0  0  0  0
  -29.9083  -13.6982   20.5825 N   0  0  0  0  0  0  0  0  0  0  0  0
  -30.1613  -15.9416   21.3651 N   0  0  0  0  0  0  0  0  0  0  0  0
  -25.3955  -15.0688   20.2863 N   0  0  0  0  0  0  0  0  0  0  0  0
  -21.7883  -12.5989   21.4194 N   0  0  0  0  0  0  0  0  0  0  0  0
  -27.3753  -29.5191   19.4230 N   0  0  0  0  0  0  0  0  0  0  0  0
  -24.5696  -29.2405   24.9114 N   0  0  0  0  0  0  0  0  0  0  0  0
  -30.9314  -19.4592   21.8228 N   0  3  0  0  0  0  0  0  0  0  0  0
  -21.8972  -27.2638   26.3323 N   0  3  0  0  0  0  0  0  0  0  0  0
  -22.5476  -14.7344   21.0701 O   0  0  0  0  0  0  0  0  0  0  0  0
  -28.2180  -27.5749   20.3887 O   0  0  0  0  0  0  0  0  0  0  0  0
  -25.0868  -30.1618   22.2482 O   0  0  0  0  0  0  0  0  0  0  0  0
  -24.6714  -27.1364   25.8807 O   0  0  0  0  0  0  0  0  0  0  0  0
  -31.8840  -14.4268   21.5154 O   0  0  0  0  0  0  0  0  0  0  0  0
  -21.5874   -7.0445   21.7986 O   0  0  0  0  0  0  0  0  0  0  0  0
  -27.6364  -22.0710   22.4211 O   0  0  0  0  0  0  0  0  0  1  0  0
  -23.9248   -3.1802   24.9621 F   0  0  0  0  0  0  0  0  0  0  0  0
  -20.4303   -6.2782   24.1895 F   0  0  0  0  0  0  0  0  0  0  0  0
  1  2  1  0  0  0  0
  1  5  2  0  0  0  0
  2  6  2  0  0  0  0
  3  8  2  0  0  0  0
  3 15  1  0  0  0  0
  4  9  1  0  0  0  0
  4 15  2  0  0  0  0
  5 17  1  0  0  0  0
  6 19  1  0  0  0  0
  7 10  2  0  0  0  0
  7 18  1  0  0  0  0
  8 21  1  0  0  0  0
  9 21  2  0  0  0  0
 10 22  1  0  0  0  0
 11 12  2  0  0  0  0
 11 23  1  0  0  0  0
 12 24  1  0  0  0  0
 13 20  1  0  0  0  0
 13 22  2  0  0  0  0
 14 24  2  0  0  0  0
 14 25  1  0  0  0  0
 15 26  1  0  0  0  0
 16 26  1  0  0  0  0
 16 27  2  0  0  0  0
 16 28  1  0  0  0  0
 17 19  2  0  0  0  0
 17 33  1  0  0  0  0
 18 20  2  0  0  0  0
 18 34  1  0  0  0  0
 19 48  1  0  0  0  0
 20 35  1  0  0  0  0
 21 85  1  0  0  0  0
 22 86  1  0  0  0  0
 23 25  2  0  0  0  0
 23 85  1  0  0  0  0
 24 87  1  0  0  0  0
 25 88  1  0  0  0  0
 26 69  2  0  0  0  0
 27 70  1  0  0  0  0
 27 74  1  0  0  0  0
 28 75  1  0  0  0  0
 28 80  2  0  0  0  0
 29 49  1  0  0  0  0
 29 76  1  0  0  0  0
 29 81  2  0  0  0  0
 30 63  1  0  0  0  0
 30 71  1  0  0  0  0
 30 82  2  0  0  0  0
 31 64  1  0  0  0  0
 31 77  1  0  0  0  0
 31 83  2  0  0  0  0
 32 72  1  0  0  0  0
 32 73  1  0  0  0  0
 32 84  2  0  0  0  0
 33 36  1  0  0  0  0
 34 49  1  0  0  0  0
 35 71  1  0  0  0  0
 36 40  1  0  0  0  0
 37 38  1  0  0  0  0
 37 41  1  0  0  0  0
 38 42  1  0  0  0  0
 39 43  1  0  0  0  0
 39 45  1  0  0  0  0
 40 48  1  0  0  0  0
 41 50  1  0  0  0  0
 42 50  1  0  0  0  0
 43 51  1  0  0  0  0
 44 46  1  0  0  0  0
 44 52  1  0  0  0  0
 45 72  1  0  0  0  0
 46 73  1  0  0  0  0
 47 51  1  0  0  0  0
 47 72  1  0  0  0  0
 48 76  1  0  0  0  0
 49 71  1  0  0  0  0
 50 65  1  0  0  0  0
 51 70  1  0  0  0  0
 52 53  1  0  0  0  0
 52 78  1  0  0  0  0
 53 65  1  0  0  0  0
 53 73  1  0  0  0  0
 54 64  1  0  0  0  0
 55 65  1  0  0  0  0
 56 66  1  0  0  0  0
 57 67  1  0  0  0  0
 58 68  1  0  0  0  0
 59 68  1  0  0  0  0
 60 68  1  0  0  0  0
 61 79  1  0  0  0  0
 62 66  1  0  0  0  0
 62 86  1  0  0  0  0
 63 68  1  0  0  0  0
 63 77  1  0  0  0  0
 64 79  1  0  0  0  0
 66 67  1  0  0  0  0
 67 78  1  0  0  0  0
 69 70  1  0  0  0  0
M  CHG  2  78   1  79   1
M  ISO  4  32 100  62 101  73 100  86 101
M  END
> <Batch ID>
0141

> <Smiles>
CNC(C)C(=O)NC(C(=O)N1Cc2cc([101O:1][101CH2:1]C(C)C(C)NC3CC[100N:0]([100C:0](=O)N4CCCC(n5nc(-c6ccc(Oc7ccc(F)cc7F)cc6)c(C(N)=O)c5N)C4)C3C(C)C3CCCC3)ccc2CC1C(=O)NC1CCCc2ccccc21)C(C)(C)C

> <Shape>
0.273

> <Color>
0.188

> <Negative vol penalty>
0.000

$$$$

  -OEChem-04052321163D

 88 97  0     1  0  0  0  0  0999 V2000
  -26.6382  -19.3263   28.3378 C   0  0  0  0  0  0  0  0  0  0  0  0
  -27.0815  -19.8104   27.1113 C   0  0  0  0  0  0  0  0  0  0  0  0
  -24.4162   -8.8786   21.1482 C   0  0  0  0  0  0  0  0  0  0  0  0
  -22.5039  -10.2860   20.7013 C   0  0  0  0  0  0  0  0  0  0  0  0
  -25.2807  -19.3687   28.6532 C   0  0  0  0  0  0  0  0  0  0  0  0
  -26.1675  -20.3362   26.1988 C   0  0  0  0  0  0  0  0  0  0  0  0
  -27.7695  -24.6676   24.1211 C   0  0  0  0  0  0  0  0  0  0  0  0
  -23.5662   -7.7972   21.3798 C   0  0  0  0  0  0  0  0  0  0  0  0
  -21.6539   -9.2045   20.9329 C   0  0  0  0  0  0  0  0  0  0  0  0
  -28.7189  -24.5732   23.1045 C   0  0  0  0  0  0  0  0  0  0  0  0
  -21.5906   -6.6737   23.8816 C   0  0  0  0  0  0  0  0  0  0  0  0
  -21.8463   -5.8768   24.9975 C   0  0  0  0  0  0  0  0  0  0  0  0
  -26.9776  -24.8591   21.4598 C   0  0  0  0  0  0  0  0  0  0  0  0
  -29.6729  -17.5711   19.8352 C   0  0  0  0  0  0  0  0  0  0  0  0
  -22.1383   -3.9573   23.5597 C   0  0  0  0  0  0  0  0  0  0  0  0
  -31.2735  -19.6681   20.5327 C   0  0  0  0  0  0  0  0  0  0  0  0
  -23.8850  -10.1231   20.8090 C   0  0  0  0  0  0  0  0  0  0  0  0
  -25.3330  -11.6264   19.3424 C   0  0  0  0  0  0  0  0  0  0  0  0
  -24.3508  -19.9042   27.7482 C   0  0  0  0  0  0  0  0  0  0  0  0
  -26.4132  -24.8478   23.8137 C   0  0  0  0  0  0  0  0  0  0  0  0
  -24.7962  -20.3846   26.5019 C   0  0  0  0  0  0  0  0  0  0  0  0
  -26.0132  -24.9580   22.4743 C   0  0  0  0  0  0  0  0  0  0  0  0
  -29.1941  -18.8694   19.6992 C   0  0  0  0  0  0  0  0  0  0  0  0
  -22.1851   -7.9601   21.2722 C   0  0  0  0  0  0  0  0  0  0  0  0
  -28.3227  -24.6661   21.7735 C   0  0  0  0  0  0  0  0  0  0  0  0
  -21.6087   -6.1124   22.6048 C   0  0  0  0  0  0  0  0  0  0  0  0
  -30.0034  -19.9435   20.0524 C   0  0  0  0  0  0  0  0  0  0  0  0
  -22.1201   -4.5186   24.8366 C   0  0  0  0  0  0  0  0  0  0  0  0
  -21.8826   -4.7542   22.4438 C   0  0  0  0  0  0  0  0  0  0  0  0
  -24.7625  -11.2407   20.5702 C   0  0  0  0  0  0  0  0  0  0  0  0
  -30.9579  -17.4020   20.3250 C   0  0  0  0  0  0  0  0  0  0  0  0
  -26.0798  -12.7387   19.6451 C   0  0  0  0  0  0  0  0  0  0  0  0
  -25.1997  -11.0324   18.0443 C   0  0  0  0  0  0  0  0  0  0  0  0
  -23.7598  -23.1673   24.3030 C   0  0  0  0  0  0  0  0  0  0  0  0
  -22.3286  -25.7997   23.0603 C   0  0  0  0  0  0  0  0  0  0  0  0
  -22.5825  -28.5840   21.1031 C   0  0  0  0  0  0  0  0  0  0  0  0
  -26.6737  -17.6430   22.2412 C   0  0  0  0  0  0  0  0  0  0  0  0
  -22.8878  -19.8854   28.1143 C   0  0  0  0  0  0  0  0  0  0  0  0
  -25.4049  -24.9745   24.9227 C   0  0  0  0  0  0  0  0  0  0  0  0
  -24.5722  -25.1719   22.0921 C   0  0  0  0  0  0  0  0  0  0  0  0
  -22.0305  -20.8017   27.2449 C   0  0  0  0  0  0  0  0  0  0  0  0
  -27.3956  -14.7038   24.1165 C   0  0  0  0  0  0  0  0  0  0  0  0
  -22.3758  -20.6155   25.7708 C   0  0  0  0  0  0  0  0  0  0  0  0
  -24.5998  -20.5380   20.9468 C   0  0  0  0  0  0  0  0  0  0  0  0
  -25.3990  -21.4213   20.0297 C   0  0  0  0  0  0  0  0  0  0  0  0
  -26.8166  -13.5740   23.2630 C   0  0  0  0  0  0  0  0  0  0  0  0
  -26.5293  -15.9598   24.0530 C   0  0  0  0  0  0  0  0  0  0  0  0
  -25.6637  -15.3164   21.8370 C   0  0  0  0  0  0  0  0  0  0  0  0
  -23.8384  -20.9852   25.4959 C   0  0  1  0  0  0  0  0  0  0  0  0
  -23.9836  -24.6427   24.4787 C   0  0  1  0  0  0  0  0  0  0  0  0
  -25.4999  -19.9259   19.9094 C   0  0  0  0  0  0  0  0  0  0  0  0
  -26.5324  -14.0470   21.8247 C   0  0  2  0  0  0  0  0  0  0  0  0
  -31.5044  -16.0221   20.4844 C   0  0  0  0  0  0  0  0  0  0  0  0
  -27.3891  -18.0701   18.0907 C   0  0  0  0  0  0  0  0  0  0  0  0
  -21.2345  -30.5199   20.2473 C   0  0  0  0  0  0  0  0  0  0  0  0
  -20.9499  -23.9527   21.0609 C   0  0  0  0  0  0  0  0  0  0  0  0
  -20.4012  -25.9692   19.6823 C   0  0  0  0  0  0  0  0  0  0  0  0
  -19.4895  -25.7555   21.9944 C   0  0  0  0  0  0  0  0  0  0  0  0
  -24.3560  -30.5520   22.4224 C   0  0  0  0  0  0  0  0  0  0  0  0
  -29.9744  -23.3436   18.8351 C   0  0  0  0  0  0  0  0  0  0  0  0
  -28.8108  -24.0280   19.5351 C   0  0  0  0  0  0  0  0  0  1  0  0
  -30.5655  -22.2236   19.6768 C   0  0  0  0  0  0  0  0  0  0  0  0
  -27.8146  -19.0917   19.1748 C   0  0  1  0  0  0  0  0  0  0  0  0
  -21.9471  -26.2544   21.6722 C   0  0  1  0  0  0  0  0  0  0  0  0
  -22.1668  -30.0243   21.3418 C   0  0  2  0  0  0  0  0  0  0  0  0
  -26.7618  -19.2156   20.3233 C   0  0  2  0  0  0  0  0  0  0  0  0
  -20.7239  -25.4770   21.1092 C   0  0  0  0  0  0  0  0  0  0  0  0
  -31.7734  -18.4206   20.6787 N   0  0  0  0  0  0  0  0  0  0  0  0
  -25.1166  -12.0427   21.5779 N   0  0  0  0  0  0  0  0  0  0  0  0
  -25.9178  -12.9434   20.9837 N   0  0  0  0  0  0  0  0  0  0  0  0
  -23.6231  -25.2830   23.2121 N   0  0  0  0  0  0  0  0  0  0  0  0
  -26.2987  -16.3563   22.6617 N   0  0  0  0  0  0  0  0  0  0  0  0
  -26.8527  -13.5517   18.8941 N   0  0  0  0  0  0  0  0  0  0  0  0
  -24.3939   -9.8935   17.9102 N   0  0  0  0  0  0  0  0  0  0  0  0
  -23.9950  -22.4230   25.4432 N   0  0  0  0  0  0  0  0  0  0  0  0
  -21.7512  -27.6978   21.7549 N   0  0  0  0  0  0  0  0  0  0  0  0
  -26.4258  -17.9354   20.9056 N   0  0  0  0  0  0  0  0  0  0  0  0
  -23.3646  -30.9103   21.3756 N   0  3  0  0  0  0  0  0  0  0  0  0
  -25.7913  -11.4881   17.0363 O   0  0  0  0  0  0  0  0  0  0  0  0
  -23.3991  -22.7364   23.2141 O   0  0  0  0  0  0  0  0  0  0  0  0
  -21.5107  -25.9060   23.9776 O   0  0  0  0  0  0  0  0  0  0  0  0
  -23.5459  -28.2757   20.4050 O   0  0  0  0  0  0  0  0  0  0  0  0
  -27.1959  -18.4681   22.9985 O   0  0  0  0  0  0  0  0  0  0  0  0
  -21.3554   -6.9050   21.4979 O   0  0  0  0  0  0  0  0  0  0  0  0
  -29.2473  -24.5736   20.7793 O   0  0  0  0  0  0  0  0  0  1  0  0
  -29.5732  -21.2397   19.9359 O   0  0  0  0  0  0  0  0  0  0  0  0
  -22.3672   -3.7538   25.9081 F   0  0  0  0  0  0  0  0  0  0  0  0
  -21.9025   -4.2095   21.2196 F   0  0  0  0  0  0  0  0  0  0  0  0
  1  2  1  0  0  0  0
  1  5  2  0  0  0  0
  2  6  2  0  0  0  0
  3  8  2  0  0  0  0
  3 17  1  0  0  0  0
  4  9  1  0  0  0  0
  4 17  2  0  0  0  0
  5 19  1  0  0  0  0
  6 21  1  0  0  0  0
  7 10  2  0  0  0  0
  7 20  1  0  0  0  0
  8 24  1  0  0  0  0
  9 24  2  0  0  0  0
 10 25  1  0  0  0  0
 11 12  2  0  0  0  0
 11 26  1  0  0  0  0
 12 28  1  0  0  0  0
 13 22  1  0  0  0  0
 13 25  2  0  0  0  0
 14 23  1  0  0  0  0
 14 31  2  0  0  0  0
 15 28  2  0  0  0  0
 15 29  1  0  0  0  0
 16 27  1  0  0  0  0
 16 68  2  0  0  0  0
 17 30  1  0  0  0  0
 18 30  1  0  0  0  0
 18 32  2  0  0  0  0
 18 33  1  0  0  0  0
 19 21  2  0  0  0  0
 19 38  1  0  0  0  0
 20 22  2  0  0  0  0
 20 39  1  0  0  0  0
 21 49  1  0  0  0  0
 22 40  1  0  0  0  0
 23 27  2  0  0  0  0
 23 63  1  0  0  0  0
 24 84  1  0  0  0  0
 25 85  1  0  0  0  0
 26 29  2  0  0  0  0
 26 84  1  0  0  0  0
 27 86  1  0  0  0  0
 28 87  1  0  0  0  0
 29 88  1  0  0  0  0
 30 69  2  0  0  0  0
 31 53  1  0  0  0  0
 31 68  1  0  0  0  0
 32 70  1  0  0  0  0
 32 73  1  0  0  0  0
 33 74  1  0  0  0  0
 33 79  2  0  0  0  0
 34 50  1  0  0  0  0
 34 75  1  0  0  0  0
 34 80  2  0  0  0  0
 35 64  1  0  0  0  0
 35 71  1  0  0  0  0
 35 81  2  0  0  0  0
 36 65  1  0  0  0  0
 36 76  1  0  0  0  0
 36 82  2  0  0  0  0
 37 72  1  0  0  0  0
 37 77  1  0  0  0  0
 37 83  2  0  0  0  0
 38 41  1  0  0  0  0
 39 50  1  0  0  0  0
 40 71  1  0  0  0  0
 41 43  1  0  0  0  0
 42 46  1  0  0  0  0
 42 47  1  0  0  0  0
 43 49  1  0  0  0  0
 44 45  1  0  0  0  0
 44 51  1  0  0  0  0
 45 51  1  0  0  0  0
 46 52  1  0  0  0  0
 47 72  1  0  0  0  0
 48 52  1  0  0  0  0
 48 72  1  0  0  0  0
 49 75  1  0  0  0  0
 50 71  1  0  0  0  0
 51 66  1  0  0  0  0
 52 70  1  0  0  0  0
 54 63  1  0  0  0  0
 55 65  1  0  0  0  0
 56 67  1  0  0  0  0
 57 67  1  0  0  0  0
 58 67  1  0  0  0  0
 59 78  1  0  0  0  0
 60 61  1  0  0  0  0
 60 62  1  0  0  0  0
 61 85  1  0  0  0  0
 62 86  1  0  0  0  0
 63 66  1  0  0  0  0
 64 67  1  0  0  0  0
 64 76  1  0  0  0  0
 65 78  1  0  0  0  0
 66 77  1  0  0  0  0
 69 70  1  0  0  0  0
M  CHG  1  78   1
M  ISO  4  37 100  61 101  77 100  85 101
M  END
> <Batch ID>
0141

> <Smiles>
CNC(C)C(=O)NC(C(=O)N1Cc2cc([101O:1][101CH2:1]CCOc3cnc(C)cc3C(C)C([100NH:0][100C:0](=O)N3CCCC(n4nc(-c5ccc(Oc6ccc(F)cc6F)cc5)c(C(N)=O)c4N)C3)C3CC3)ccc2CC1C(=O)NC1CCCc2ccccc21)C(C)(C)C

> <Shape>
0.220

> <Color>
0.080

> <Negative vol penalty>
0.000

$$$$

  -OEChem-04052321163D

 83 92  0     1  0  0  0  0  0999 V2000
  -25.5590  -11.9446   41.1692 C   0  0  0  0  0  0  0  0  0  0  0  0
  -25.9016  -12.9762   40.3010 C   0  0  0  0  0  0  0  0  0  0  0  0
  -23.1864   -9.8198   19.9315 C   0  0  0  0  0  0  0  0  0  0  0  0
  -23.5622   -9.9995   22.3113 C   0  0  0  0  0  0  0  0  0  0  0  0
  -25.7838  -10.6194   40.7986 C   0  0  0  0  0  0  0  0  0  0  0  0
  -26.4702  -12.6832   39.0620 C   0  0  0  0  0  0  0  0  0  0  0  0
  -26.7050  -15.0880   32.3182 C   0  0  0  0  0  0  0  0  0  0  0  0
  -22.4178   -8.6745   20.1393 C   0  0  0  0  0  0  0  0  0  0  0  0
  -22.7935   -8.8543   22.5192 C   0  0  0  0  0  0  0  0  0  0  0  0
  -27.6251  -15.4378   31.3309 C   0  0  0  0  0  0  0  0  0  0  0  0
  -23.1888   -5.5068   22.2556 C   0  0  0  0  0  0  0  0  0  0  0  0
  -23.6844   -4.5446   23.1354 C   0  0  0  0  0  0  0  0  0  0  0  0
  -27.8942  -13.1084   30.7648 C   0  0  0  0  0  0  0  0  0  0  0  0
  -21.7266   -4.8082   24.5264 C   0  0  0  0  0  0  0  0  0  0  0  0
  -23.7587  -10.4823   21.0175 C   0  0  0  0  0  0  0  0  0  0  0  0
  -24.1023  -12.9983   20.7741 C   0  0  0  0  0  0  0  0  0  0  0  0
  -26.3466  -10.3097   39.5504 C   0  0  0  0  0  0  0  0  0  0  0  0
  -26.3803  -13.7426   32.5439 C   0  0  0  0  0  0  0  0  0  0  0  0
  -26.7040  -11.3527   38.6748 C   0  0  0  0  0  0  0  0  0  0  0  0
  -26.9678  -12.7443   31.7538 C   0  0  0  0  0  0  0  0  0  0  0  0
  -22.2213   -8.1918   21.4331 C   0  0  0  0  0  0  0  0  0  0  0  0
  -28.2220  -14.4478   30.5559 C   0  0  0  0  0  0  0  0  0  0  0  0
  -21.9622   -6.1199   22.5112 C   0  0  0  0  0  0  0  0  0  0  0  0
  -22.9533   -4.1953   24.2708 C   0  0  0  0  0  0  0  0  0  0  0  0
  -21.2311   -5.7705   23.6466 C   0  0  0  0  0  0  0  0  0  0  0  0
  -24.5533  -11.6650   20.8034 C   0  0  0  0  0  0  0  0  0  0  0  0
  -25.2351  -13.7388   20.5401 C   0  0  0  0  0  0  0  0  0  0  0  0
  -22.7778  -13.5206   20.9433 C   0  0  0  0  0  0  0  0  0  0  0  0
  -26.6695  -11.7471   35.0011 C   0  0  0  0  0  0  0  0  0  0  0  0
  -24.9881   -9.7505   33.0753 C   0  0  0  0  0  0  0  0  0  0  0  0
  -24.0603   -8.8791   29.9088 C   0  0  0  0  0  0  0  0  0  0  0  0
  -31.0722  -12.1712   21.5723 C   0  0  0  0  0  0  0  0  0  0  0  0
  -26.6143   -8.8642   39.2134 C   0  0  0  0  0  0  0  0  0  0  0  0
  -25.3658  -13.3837   33.5948 C   0  0  0  0  0  0  0  0  0  0  0  0
  -26.6380  -11.2869   31.9427 C   0  0  0  0  0  0  0  0  0  0  0  0
  -26.8755   -8.6232   37.7289 C   0  0  0  0  0  0  0  0  0  0  0  0
  -29.5307  -13.4829   18.4668 C   0  0  0  0  0  0  0  0  0  0  0  0
  -27.8616   -9.6527   37.1862 C   0  0  0  0  0  0  0  0  0  0  0  0
  -28.0461  -13.2018   18.6911 C   0  0  0  0  0  0  0  0  0  0  0  0
  -32.1908  -15.4011   28.4447 C   0  0  0  0  0  0  0  0  0  0  0  0
  -31.4417  -15.4109   29.7818 C   0  0  0  0  0  0  0  0  0  0  0  0
  -32.2337  -12.1068   24.8408 C   0  0  0  0  0  0  0  0  0  0  0  0
  -30.5126  -13.9361   24.5696 C   0  0  0  0  0  0  0  0  0  0  0  0
  -30.8033  -13.4595   28.4648 C   0  0  0  0  0  0  0  0  0  0  0  0
  -30.4147  -12.4899   19.2148 C   0  0  0  0  0  0  0  0  0  0  0  0
  -31.4435  -11.2610   23.8458 C   0  0  0  0  0  0  0  0  0  0  0  0
  -29.7684  -13.0615   23.5563 C   0  0  0  0  0  0  0  0  0  0  0  0
  -28.6387  -12.1264   20.8988 C   0  0  0  0  0  0  0  0  0  0  0  0
  -27.3001  -11.0741   37.3120 C   0  0  1  0  0  0  0  0  0  0  0  0
  -25.4957  -11.9446   34.0840 C   0  0  1  0  0  0  0  0  0  0  0  0
  -27.7220  -13.1373   20.1935 C   0  0  2  0  0  0  0  0  0  0  0  0
  -31.3250  -14.5448   27.5373 C   0  0  2  0  0  0  0  0  0  0  0  0
  -31.3027  -13.0818   25.5586 C   0  0  0  0  0  0  0  0  0  0  0  0
  -30.4393  -14.2516   29.7186 C   0  0  2  0  0  0  0  0  0  1  0  0
  -22.7103   -7.1798   28.6489 C   0  0  0  0  0  0  0  0  0  0  0  0
  -27.1975   -7.6882   33.4942 C   0  0  0  0  0  0  0  0  0  0  0  0
  -26.3054   -6.4340   31.5195 C   0  0  0  0  0  0  0  0  0  0  0  0
  -24.8776   -6.7554   33.5396 C   0  0  0  0  0  0  0  0  0  0  0  0
  -22.2604  -10.9545   28.8078 C   0  0  0  0  0  0  0  0  0  0  0  0
  -32.8283  -15.0475   25.6541 C   0  0  0  0  0  0  0  0  0  0  0  0
  -25.3446   -8.7257   32.0257 C   0  0  1  0  0  0  0  0  0  0  0  0
  -22.7044   -8.5487   29.3114 C   0  0  2  0  0  0  0  0  0  0  0  0
  -25.9392   -7.4281   32.6422 C   0  0  0  0  0  0  0  0  0  0  0  0
  -25.8699  -11.5615   20.6038 N   0  0  0  0  0  0  0  0  0  0  0  0
  -26.2559  -12.8392   20.4468 N   0  0  0  0  0  0  0  0  0  0  0  0
  -25.6449  -10.9861   32.9871 N   0  0  0  0  0  0  0  0  0  0  0  0
  -30.0569  -12.4108   20.6312 N   0  0  0  0  0  0  0  0  0  0  0  0
  -30.6863  -12.1052   22.9196 N   0  0  0  0  0  0  0  0  0  0  0  0
  -25.4477  -15.0653   20.4071 N   0  0  0  0  0  0  0  0  0  0  0  0
  -21.7292  -12.6203   21.1761 N   0  0  0  0  0  0  0  0  0  0  0  0
  -26.3261  -11.3267   36.2719 N   0  0  0  0  0  0  0  0  0  0  0  0
  -24.1366   -8.5129   31.2359 N   0  0  0  0  0  0  0  0  0  0  0  0
  -22.3278   -9.5644   28.2880 N   0  3  0  0  0  0  0  0  0  0  0  0
  -32.1115  -13.9718   26.4312 N   0  3  1  0  0  0  0  0  0  0  0  0
  -22.5290  -14.7481   20.8733 O   0  0  0  0  0  0  0  0  0  0  0  0
  -27.8029  -11.9588   34.5861 O   0  0  0  0  0  0  0  0  0  0  0  0
  -24.1521   -9.4677   33.9372 O   0  0  0  0  0  0  0  0  0  0  0  0
  -24.9628   -9.4057   29.2617 O   0  0  0  0  0  0  0  0  0  0  0  0
  -32.2520  -12.0273   21.2279 O   0  0  0  0  0  0  0  0  0  0  0  0
  -21.4711   -7.0744   21.6363 O   0  0  0  0  0  0  0  0  0  0  0  0
  -29.1265  -14.7885   29.5861 O   0  0  0  0  0  0  0  0  0  1  0  0
  -23.4285   -3.2701   25.1148 F   0  0  0  0  0  0  0  0  0  0  0  0
  -20.0515   -6.3551   23.8968 F   0  0  0  0  0  0  0  0  0  0  0  0
  1  2  1  0  0  0  0
  1  5  2  0  0  0  0
  2  6  2  0  0  0  0
  3  8  2  0  0  0  0
  3 15  1  0  0  0  0
  4  9  1  0  0  0  0
  4 15  2  0  0  0  0
  5 17  1  0  0  0  0
  6 19  1  0  0  0  0
  7 10  2  0  0  0  0
  7 18  1  0  0  0  0
  8 21  1  0  0  0  0
  9 21  2  0  0  0  0
 10 22  1  0  0  0  0
 11 12  2  0  0  0  0
 11 23  1  0  0  0  0
 12 24  1  0  0  0  0
 13 20  1  0  0  0  0
 13 22  2  0  0  0  0
 14 24  2  0  0  0  0
 14 25  1  0  0  0  0
 15 26  1  0  0  0  0
 16 26  1  0  0  0  0
 16 27  2  0  0  0  0
 16 28  1  0  0  0  0
 17 19  2  0  0  0  0
 17 33  1  0  0  0  0
 18 20  2  0  0  0  0
 18 34  1  0  0  0  0
 19 49  1  0  0  0  0
 20 35  1  0  0  0  0
 21 80  1  0  0  0  0
 22 81  1  0  0  0  0
 23 25  2  0  0  0  0
 23 80  1  0  0  0  0
 24 82  1  0  0  0  0
 25 83  1  0  0  0  0
 26 64  2  0  0  0  0
 27 65  1  0  0  0  0
 27 69  1  0  0  0  0
 28 70  1  0  0  0  0
 28 75  2  0  0  0  0
 29 50  1  0  0  0  0
 29 71  1  0  0  0  0
 29 76  2  0  0  0  0
 30 61  1  0  0  0  0
 30 66  1  0  0  0  0
 30 77  2  0  0  0  0
 31 62  1  0  0  0  0
 31 72  1  0  0  0  0
 31 78  2  0  0  0  0
 32 67  1  0  0  0  0
 32 68  1  0  0  0  0
 32 79  2  0  0  0  0
 33 36  1  0  0  0  0
 34 50  1  0  0  0  0
 35 66  1  0  0  0  0
 36 38  1  0  0  0  0
 37 39  1  0  0  0  0
 37 45  1  0  0  0  0
 38 49  1  0  0  0  0
 39 51  1  0  0  0  0
 40 41  1  0  0  0  0
 40 52  1  0  0  0  0
 41 54  1  0  0  0  0
 42 46  1  0  0  0  0
 42 53  1  0  0  0  0
 43 47  1  0  0  0  0
 43 53  1  0  0  0  0
 44 52  1  0  0  0  0
 44 54  1  0  0  0  0
 45 67  1  0  0  0  0
 46 68  1  0  0  0  0
 47 68  1  0  0  0  0
 48 51  1  0  0  0  0
 48 67  1  0  0  0  0
 49 71  1  0  0  0  0
 50 66  1  0  0  0  0
 51 65  1  0  0  0  0
 52 74  1  0  0  0  0
 53 74  1  0  0  0  0
 54 81  1  0  0  0  0
 55 62  1  0  0  0  0
 56 63  1  0  0  0  0
 57 63  1  0  0  0  0
 58 63  1  0  0  0  0
 59 73  1  0  0  0  0
 60 74  1  0  0  0  0
 61 63  1  0  0  0  0
 61 72  1  0  0  0  0
 62 73  1  0  0  0  0
 64 65  1  0  0  0  0
M  CHG  2  73   1  74   1
M  ISO  4  32 100  54 101  68 100  81 101
M  END
> <Batch ID>
0141

> <Smiles>
CNC(C)C(=O)NC(C(=O)N1Cc2cc([101O:1][101CH:1]3CCC(N(C)C4CC[100N:0]([100C:0](=O)N5CCCC(n6nc(-c7ccc(Oc8ccc(F)cc8F)cc7)c(C(N)=O)c6N)C5)CC4)C3)ccc2CC1C(=O)NC1CCCc2ccccc21)C(C)(C)C

> <Shape>
0.139

> <Color>
0.182

> <Negative vol penalty>
0.000

$$$$

  -OEChem-04052321163D

 84 93  0     1  0  0  0  0  0999 V2000
  -23.1132  -23.0005   25.9971 C   0  0  0  0  0  0  0  0  0  0  0  0
  -24.3647  -23.3303   25.4893 C   0  0  0  0  0  0  0  0  0  0  0  0
  -25.2706  -10.2208   21.3358 C   0  0  0  0  0  0  0  0  0  0  0  0
  -25.2769  -11.2065   23.5416 C   0  0  0  0  0  0  0  0  0  0  0  0
  -22.0279  -23.8434   25.7674 C   0  0  0  0  0  0  0  0  0  0  0  0
  -24.5339  -24.5089   24.7619 C   0  0  0  0  0  0  0  0  0  0  0  0
  -29.2120  -25.7699   23.5308 C   0  0  0  0  0  0  0  0  0  0  0  0
  -25.0809   -8.9594   21.9000 C   0  0  0  0  0  0  0  0  0  0  0  0
  -25.0871   -9.9450   24.1059 C   0  0  0  0  0  0  0  0  0  0  0  0
  -29.9650  -25.1071   22.5625 C   0  0  0  0  0  0  0  0  0  0  0  0
  -24.2433   -7.0299   26.1080 C   0  0  0  0  0  0  0  0  0  0  0  0
  -23.2933   -6.9085   27.1220 C   0  0  0  0  0  0  0  0  0  0  0  0
  -29.5047  -26.8836   20.9972 C   0  0  0  0  0  0  0  0  0  0  0  0
  -26.7768  -22.6996   19.9965 C   0  0  0  0  0  0  0  0  0  0  0  0
  -28.4708  -20.9509   20.0250 C   0  0  0  0  0  0  0  0  0  0  0  0
  -21.5752   -7.6698   25.6035 C   0  0  0  0  0  0  0  0  0  0  0  0
  -25.3687  -11.3444   22.1567 C   0  0  0  0  0  0  0  0  0  0  0  0
  -24.5697  -13.5575   21.1710 C   0  0  0  0  0  0  0  0  0  0  0  0
  -22.1821  -25.0265   25.0262 C   0  0  0  0  0  0  0  0  0  0  0  0
  -28.5899  -26.9917   23.2362 C   0  0  0  0  0  0  0  0  0  0  0  0
  -23.4559  -25.3847   24.5398 C   0  0  0  0  0  0  0  0  0  0  0  0
  -28.7485  -27.5621   21.9649 C   0  0  0  0  0  0  0  0  0  0  0  0
  -26.5239  -20.7366   21.3815 C   0  0  0  0  0  0  0  0  0  0  0  0
  -26.0379  -21.9541   20.8982 C   0  0  0  0  0  0  0  0  0  0  0  0
  -27.7342  -20.2179   20.9568 C   0  0  0  0  0  0  0  0  0  0  0  0
  -24.9891   -8.8214   23.2850 C   0  0  0  0  0  0  0  0  0  0  0  0
  -30.1095  -25.6628   21.2949 C   0  0  0  0  0  0  0  0  0  0  0  0
  -23.8594   -7.4714   24.8417 C   0  0  0  0  0  0  0  0  0  0  0  0
  -27.9970  -22.1845   19.5502 C   0  0  0  0  0  0  0  0  0  0  0  0
  -21.9592   -7.2284   26.8698 C   0  0  0  0  0  0  0  0  0  0  0  0
  -22.5253   -7.7913   24.5895 C   0  0  0  0  0  0  0  0  0  0  0  0
  -25.5653  -12.6477   21.5745 C   0  0  0  0  0  0  0  0  0  0  0  0
  -25.2671  -14.6374   20.6874 C   0  0  0  0  0  0  0  0  0  0  0  0
  -23.1422  -13.4372   21.2284 C   0  0  0  0  0  0  0  0  0  0  0  0
  -25.5917  -28.1111   23.1731 C   0  0  0  0  0  0  0  0  0  0  0  0
  -27.2169  -30.9478   22.5688 C   0  0  0  0  0  0  0  0  0  0  0  0
  -24.3323  -32.6689   23.1663 C   0  0  0  0  0  0  0  0  0  0  0  0
  -29.4070  -18.3391   21.0896 C   0  0  0  0  0  0  0  0  0  0  0  0
  -20.9753  -25.9063   24.8143 C   0  0  0  0  0  0  0  0  0  0  0  0
  -27.8068  -27.7056   24.3047 C   0  0  0  0  0  0  0  0  0  0  0  0
  -25.5748  -20.1960   22.4003 C   0  0  0  0  0  0  0  0  0  0  0  0
  -28.1043  -28.8725   21.6006 C   0  0  0  0  0  0  0  0  0  0  0  0
  -21.1544  -26.8949   23.6667 C   0  0  0  0  0  0  0  0  0  0  0  0
  -30.1905  -15.1806   19.6448 C   0  0  0  0  0  0  0  0  0  0  0  0
  -22.4806  -27.6259   23.8127 C   0  0  0  0  0  0  0  0  0  0  0  0
  -28.9751  -14.3149   19.9849 C   0  0  0  0  0  0  0  0  0  0  0  0
  -24.3616  -21.1334   22.2181 C   0  0  0  0  0  0  0  0  0  0  0  0
  -30.5337  -16.1463   20.7777 C   0  0  0  0  0  0  0  0  0  0  0  0
  -28.2040  -16.1188   21.5781 C   0  0  0  0  0  0  0  0  0  0  0  0
  -23.6573  -26.6462   23.7198 C   0  0  1  0  0  0  0  0  0  0  0  0
  -26.8264  -28.7395   23.7547 C   0  0  1  0  0  0  0  0  0  0  0  0
  -27.7802  -15.1752   20.4407 C   0  0  2  0  0  0  0  0  0  0  0  0
  -23.4570  -35.0009   23.4706 C   0  0  0  0  0  0  0  0  0  0  0  0
  -28.3912  -31.0178   25.3833 C   0  0  0  0  0  0  0  0  0  0  0  0
  -26.7546  -32.8273   25.9450 C   0  0  0  0  0  0  0  0  0  0  0  0
  -28.4644  -33.2020   24.1676 C   0  0  0  0  0  0  0  0  0  0  0  0
  -22.5414  -32.4268   20.8226 C   0  0  0  0  0  0  0  0  0  0  0  0
  -30.8285  -23.9831   18.1686 C   0  0  0  0  0  0  0  0  0  0  0  0
  -30.4629  -25.2117   18.9867 C   0  0  0  0  0  0  0  0  0  1  0  0
  -30.1469  -22.7282   18.6912 C   0  0  0  0  0  0  0  0  0  0  0  0
  -26.5249  -31.6451   23.7132 C   0  0  1  0  0  0  0  0  0  0  0  0
  -23.7193  -33.8766   22.4807 C   0  0  2  0  0  0  0  0  0  0  0  0
  -27.5247  -32.1479   24.7925 C   0  0  0  0  0  0  0  0  0  0  0  0
  -26.8011  -13.1093   21.3652 N   0  0  0  0  0  0  0  0  0  0  0  0
  -26.5866  -14.3210   20.8249 N   0  0  0  0  0  0  0  0  0  0  0  0
  -24.8345  -22.3125   21.5030 N   0  0  0  0  0  0  0  0  0  0  0  0
  -27.4235  -29.5687   22.7001 N   0  0  0  0  0  0  0  0  0  0  0  0
  -29.3554  -16.9305   21.1535 N   0  0  0  0  0  0  0  0  0  0  0  0
  -24.8742  -15.8173   20.1621 N   0  0  0  0  0  0  0  0  0  0  0  0
  -22.5914  -12.2608   21.7547 N   0  0  0  0  0  0  0  0  0  0  0  0
  -28.2169  -18.9761   21.4391 N   0  0  0  0  0  0  0  0  0  0  0  0
  -24.8775  -27.3395   24.0697 N   0  0  0  0  0  0  0  0  0  0  0  0
  -25.7100  -32.6981   23.1169 N   0  0  0  0  0  0  0  0  0  0  0  0
  -22.4273  -33.5064   21.8368 N   0  3  0  0  0  0  0  0  0  0  0  0
  -22.3776  -14.3392   20.8096 O   0  0  0  0  0  0  0  0  0  0  0  0
  -25.3073  -28.3127   21.9983 O   0  0  0  0  0  0  0  0  0  0  0  0
  -27.5723  -31.6068   21.5877 O   0  0  0  0  0  0  0  0  0  0  0  0
  -23.6567  -31.7895   23.6962 O   0  0  0  0  0  0  0  0  0  0  0  0
  -30.4232  -18.9352   20.7236 O   0  0  0  0  0  0  0  0  0  0  0  0
  -24.8036   -7.5907   23.8359 O   0  0  0  0  0  0  0  0  0  0  0  0
  -30.8444  -25.0182   20.3480 O   0  0  0  0  0  0  0  0  0  1  0  0
  -28.7357  -22.8861   18.6334 O   0  0  0  0  0  0  0  0  0  0  0  0
  -21.0467   -7.1102   27.8432 F   0  0  0  0  0  0  0  0  0  0  0  0
  -22.1502   -8.2148   23.3747 F   0  0  0  0  0  0  0  0  0  0  0  0
  1  2  1  0  0  0  0
  1  5  2  0  0  0  0
  2  6  2  0  0  0  0
  3  8  2  0  0  0  0
  3 17  1  0  0  0  0
  4  9  1  0  0  0  0
  4 17  2  0  0  0  0
  5 19  1  0  0  0  0
  6 21  1  0  0  0  0
  7 10  2  0  0  0  0
  7 20  1  0  0  0  0
  8 26  1  0  0  0  0
  9 26  2  0  0  0  0
 10 27  1  0  0  0  0
 11 12  2  0  0  0  0
 11 28  1  0  0  0  0
 12 30  1  0  0  0  0
 13 22  1  0  0  0  0
 13 27  2  0  0  0  0
 14 24  2  0  0  0  0
 14 29  1  0  0  0  0
 15 25  1  0  0  0  0
 15 29  2  0  0  0  0
 16 30  2  0  0  0  0
 16 31  1  0  0  0  0
 17 32  1  0  0  0  0
 18 32  1  0  0  0  0
 18 33  2  0  0  0  0
 18 34  1  0  0  0  0
 19 21  2  0  0  0  0
 19 39  1  0  0  0  0
 20 22  2  0  0  0  0
 20 40  1  0  0  0  0
 21 50  1  0  0  0  0
 22 42  1  0  0  0  0
 23 24  1  0  0  0  0
 23 25  2  0  0  0  0
 23 41  1  0  0  0  0
 24 66  1  0  0  0  0
 25 71  1  0  0  0  0
 26 80  1  0  0  0  0
 27 81  1  0  0  0  0
 28 31  2  0  0  0  0
 28 80  1  0  0  0  0
 29 82  1  0  0  0  0
 30 83  1  0  0  0  0
 31 84  1  0  0  0  0
 32 64  2  0  0  0  0
 33 65  1  0  0  0  0
 33 69  1  0  0  0  0
 34 70  1  0  0  0  0
 34 75  2  0  0  0  0
 35 51  1  0  0  0  0
 35 72  1  0  0  0  0
 35 76  2  0  0  0  0
 36 61  1  0  0  0  0
 36 67  1  0  0  0  0
 36 77  2  0  0  0  0
 37 62  1  0  0  0  0
 37 73  1  0  0  0  0
 37 78  2  0  0  0  0
 38 68  1  0  0  0  0
 38 71  1  0  0  0  0
 38 79  2  0  0  0  0
 39 43  1  0  0  0  0
 40 51  1  0  0  0  0
 41 47  1  0  0  0  0
 42 67  1  0  0  0  0
 43 45  1  0  0  0  0
 44 46  1  0  0  0  0
 44 48  1  0  0  0  0
 45 50  1  0  0  0  0
 46 52  1  0  0  0  0
 47 66  1  0  0  0  0
 48 68  1  0  0  0  0
 49 52  1  0  0  0  0
 49 68  1  0  0  0  0
 50 72  1  0  0  0  0
 51 67  1  0  0  0  0
 52 65  1  0  0  0  0
 53 62  1  0  0  0  0
 54 63  1  0  0  0  0
 55 63  1  0  0  0  0
 56 63  1  0  0  0  0
 57 74  1  0  0  0  0
 58 59  1  0  0  0  0
 58 60  1  0  0  0  0
 59 81  1  0  0  0  0
 60 82  1  0  0  0  0
 61 63  1  0  0  0  0
 61 73  1  0  0  0  0
 62 74  1  0  0  0  0
 64 65  1  0  0  0  0
M  CHG  1  74   1
M  ISO  4  38 100  59 101  71 100  81 101
M  END
> <Batch ID>
0141

> <Smiles>
CNC(C)C(=O)NC(C(=O)N1Cc2cc([101O:1][101CH2:1]CCOc3cc4c(c([100NH:0][100C:0](=O)N5CCCC(n6nc(-c7ccc(Oc8ccc(F)cc8F)cc7)c(C(N)=O)c6N)C5)c3)CCN4)ccc2CC1C(=O)NC1CCCc2ccccc21)C(C)(C)C

> <Shape>
0.249

> <Color>
0.099

> <Negative vol penalty>
0.000

$$$$

  -OEChem-04052321163D

 86 95  0     1  0  0  0  0  0999 V2000
  -27.9795  -32.2078   27.5544 C   0  0  0  0  0  0  0  0  0  0  0  0
  -28.0516  -31.1457   26.6588 C   0  0  0  0  0  0  0  0  0  0  0  0
  -24.1141  -12.9851   20.8161 C   0  0  0  0  0  0  0  0  0  0  0  0
  -26.5182  -12.7757   20.7011 C   0  0  0  0  0  0  0  0  0  0  0  0
  -26.7522  -32.8152   27.8163 C   0  0  0  0  0  0  0  0  0  0  0  0
  -26.8961  -30.6896   26.0253 C   0  0  0  0  0  0  0  0  0  0  0  0
  -27.5892  -29.8671   21.0768 C   0  0  0  0  0  0  0  0  0  0  0  0
  -23.9825  -11.6232   20.5451 C   0  0  0  0  0  0  0  0  0  0  0  0
  -26.3866  -11.4138   20.4302 C   0  0  0  0  0  0  0  0  0  0  0  0
  -28.2443  -28.6916   20.7123 C   0  0  0  0  0  0  0  0  0  0  0  0
  -24.2597   -8.7087   22.2368 C   0  0  0  0  0  0  0  0  0  0  0  0
  -23.3570   -7.9783   23.0095 C   0  0  0  0  0  0  0  0  0  0  0  0
  -28.2706  -23.1000   20.0533 C   0  0  0  0  0  0  0  0  0  0  0  0
  -26.1180  -27.6704   20.2072 C   0  0  0  0  0  0  0  0  0  0  0  0
  -28.9603  -24.1700   17.9999 C   0  0  0  0  0  0  0  0  0  0  0  0
  -22.1210   -7.3975   21.0165 C   0  0  0  0  0  0  0  0  0  0  0  0
  -25.3820  -13.5614   20.8940 C   0  0  0  0  0  0  0  0  0  0  0  0
  -25.6322  -15.5769   22.4376 C   0  0  0  0  0  0  0  0  0  0  0  0
  -25.5826  -32.3726   27.1784 C   0  0  0  0  0  0  0  0  0  0  0  0
  -26.1905  -29.9496   21.0195 C   0  0  0  0  0  0  0  0  0  0  0  0
  -25.6518  -31.2908   26.2800 C   0  0  0  0  0  0  0  0  0  0  0  0
  -29.0866  -22.0079   19.7584 C   0  0  0  0  0  0  0  0  0  0  0  0
  -25.4477  -28.8489   20.5691 C   0  0  0  0  0  0  0  0  0  0  0  0
  -28.2074  -24.1811   19.1741 C   0  0  0  0  0  0  0  0  0  0  0  0
  -29.7764  -23.0779   17.7050 C   0  0  0  0  0  0  0  0  0  0  0  0
  -29.8395  -21.9968   18.5842 C   0  0  0  0  0  0  0  0  0  0  0  0
  -25.1187  -10.8375   20.3522 C   0  0  0  0  0  0  0  0  0  0  0  0
  -27.5085  -27.5921   20.2802 C   0  0  0  0  0  0  0  0  0  0  0  0
  -24.0931   -8.7836   20.8539 C   0  0  0  0  0  0  0  0  0  0  0  0
  -22.2876   -7.3227   22.3994 C   0  0  0  0  0  0  0  0  0  0  0  0
  -23.0238   -8.1279   20.2438 C   0  0  0  0  0  0  0  0  0  0  0  0
  -25.5186  -14.9683   21.1733 C   0  0  0  0  0  0  0  0  0  0  0  0
  -25.7369  -16.9189   22.1645 C   0  0  0  0  0  0  0  0  0  0  0  0
  -25.6424  -14.9823   23.7422 C   0  0  0  0  0  0  0  0  0  0  0  0
  -23.8828  -30.4340   23.1511 C   0  0  0  0  0  0  0  0  0  0  0  0
  -21.9942  -30.4917   20.5144 C   0  0  0  0  0  0  0  0  0  0  0  0
  -21.5304  -29.5676   17.2621 C   0  0  0  0  0  0  0  0  0  0  0  0
  -27.6327  -19.9693   17.3737 C   0  0  0  0  0  0  0  0  0  0  0  0
  -24.2712  -33.0298   27.5293 C   0  0  0  0  0  0  0  0  0  0  0  0
  -25.5006  -31.2337   21.3906 C   0  0  0  0  0  0  0  0  0  0  0  0
  -23.9455  -28.8930   20.4701 C   0  0  0  0  0  0  0  0  0  0  0  0
  -23.1540  -32.7302   26.5331 C   0  0  0  0  0  0  0  0  0  0  0  0
  -24.4373  -20.1940   18.9279 C   0  0  0  0  0  0  0  0  0  0  0  0
  -23.1144  -31.2405   26.2074 C   0  0  0  0  0  0  0  0  0  0  0  0
  -24.3623  -18.9351   19.7937 C   0  0  0  0  0  0  0  0  0  0  0  0
  -25.1674  -19.9316   17.6125 C   0  0  0  0  0  0  0  0  0  0  0  0
  -26.4321  -18.0731   18.6225 C   0  0  0  0  0  0  0  0  0  0  0  0
  -28.9207  -21.1235   22.1941 C   0  0  0  0  0  0  0  0  0  0  0  0
  -24.4244  -30.7836   25.5543 C   0  0  1  0  0  0  0  0  0  0  0  0
  -29.1376  -20.8629   20.7154 C   0  0  2  0  0  0  0  0  0  0  0  0
  -24.0398  -31.0353   21.7831 C   0  0  1  0  0  0  0  0  0  0  0  0
  -25.7537  -18.3018   19.9840 C   0  0  2  0  0  0  0  0  0  0  0  0
  -32.3488  -24.2932   15.0951 C   0  0  0  0  0  0  0  0  0  0  0  0
  -19.8722  -29.7295   15.3855 C   0  0  0  0  0  0  0  0  0  0  0  0
  -20.2752  -28.3552   21.8523 C   0  0  0  0  0  0  0  0  0  0  0  0
  -19.2441  -27.8857   19.6197 C   0  0  0  0  0  0  0  0  0  0  0  0
  -18.9858  -30.1372   20.6623 C   0  0  0  0  0  0  0  0  0  0  0  0
  -23.4432  -31.0328   15.5436 C   0  0  0  0  0  0  0  0  0  0  0  0
  -30.5722  -23.0906   16.4411 C   0  0  0  0  0  0  0  0  0  0  0  0
  -30.7154  -20.8262   18.2659 C   0  0  0  0  0  0  0  0  0  0  0  0
  -27.3294  -25.3557   19.4911 C   0  0  0  0  0  0  0  0  0  1  0  0
  -31.5153  -24.3000   16.3668 C   0  0  0  0  0  0  0  0  0  0  0  0
  -30.1086  -19.8749   17.2305 C   0  0  0  0  0  0  0  0  0  0  0  0
  -21.2321  -29.4569   19.7224 C   0  0  1  0  0  0  0  0  0  0  0  0
  -21.0907  -30.3583   16.0431 C   0  0  2  0  0  0  0  0  0  0  0  0
  -19.9625  -28.9569   20.4678 C   0  0  0  0  0  0  0  0  0  0  0  0
  -25.5481  -15.8513   20.1715 N   0  0  0  0  0  0  0  0  0  0  0  0
  -25.6814  -17.0284   20.8062 N   0  0  0  0  0  0  0  0  0  0  0  0
  -23.3166  -30.1687   20.8502 N   0  0  0  0  0  0  0  0  0  0  0  0
  -26.4804  -19.3324   17.8631 N   0  0  0  0  0  0  0  0  0  0  0  0
  -25.8700  -18.0042   22.9562 N   0  0  0  0  0  0  0  0  0  0  0  0
  -25.5251  -13.5893   23.8425 N   0  0  0  0  0  0  0  0  0  0  0  0
  -24.4597  -31.1783   24.1624 N   0  0  0  0  0  0  0  0  0  0  0  0
  -20.9631  -30.0564   18.4199 N   0  0  0  0  0  0  0  0  0  0  0  0
  -28.8368  -19.3381   17.6610 N   0  0  0  0  0  0  0  0  0  0  0  0
  -30.2340  -20.8462   21.6633 N   0  3  0  0  0  0  0  0  0  0  0  0
  -22.1900  -30.4153   15.0385 N   0  3  0  0  0  0  0  0  0  0  0  0
  -25.7357  -15.6675   24.7888 O   0  0  0  0  0  0  0  0  0  0  0  0
  -23.2815  -29.3741   23.2798 O   0  0  0  0  0  0  0  0  0  0  0  0
  -21.4390  -31.5507   20.8176 O   0  0  0  0  0  0  0  0  0  0  0  0
  -22.2972  -28.6096   17.1936 O   0  0  0  0  0  0  0  0  0  0  0  0
  -27.5919  -21.0252   16.7331 O   0  0  0  0  0  0  0  0  0  0  0  0
  -24.9907   -9.5085   20.0880 O   0  0  0  0  0  0  0  0  0  0  0  0
  -28.1454  -26.4433   19.9245 O   0  0  0  0  0  0  0  0  0  1  0  0
  -21.4216   -6.6200   23.1414 F   0  0  0  0  0  0  0  0  0  0  0  0
  -22.8592   -8.1952   18.9155 F   0  0  0  0  0  0  0  0  0  0  0  0
  1  2  1  0  0  0  0
  1  5  2  0  0  0  0
  2  6  2  0  0  0  0
  3  8  2  0  0  0  0
  3 17  1  0  0  0  0
  4  9  1  0  0  0  0
  4 17  2  0  0  0  0
  5 19  1  0  0  0  0
  6 21  1  0  0  0  0
  7 10  2  0  0  0  0
  7 20  1  0  0  0  0
  8 27  1  0  0  0  0
  9 27  2  0  0  0  0
 10 28  1  0  0  0  0
 11 12  2  0  0  0  0
 11 29  1  0  0  0  0
 12 30  1  0  0  0  0
 13 22  2  0  0  0  0
 13 24  1  0  0  0  0
 14 23  1  0  0  0  0
 14 28  2  0  0  0  0
 15 24  2  0  0  0  0
 15 25  1  0  0  0  0
 16 30  2  0  0  0  0
 16 31  1  0  0  0  0
 17 32  1  0  0  0  0
 18 32  1  0  0  0  0
 18 33  2  0  0  0  0
 18 34  1  0  0  0  0
 19 21  2  0  0  0  0
 19 39  1  0  0  0  0
 20 23  2  0  0  0  0
 20 40  1  0  0  0  0
 21 49  1  0  0  0  0
 22 26  1  0  0  0  0
 22 50  1  0  0  0  0
 23 41  1  0  0  0  0
 24 61  1  0  0  0  0
 25 26  2  0  0  0  0
 25 59  1  0  0  0  0
 26 60  1  0  0  0  0
 27 83  1  0  0  0  0
 28 84  1  0  0  0  0
 29 31  2  0  0  0  0
 29 83  1  0  0  0  0
 30 85  1  0  0  0  0
 31 86  1  0  0  0  0
 32 67  2  0  0  0  0
 33 68  1  0  0  0  0
 33 71  1  0  0  0  0
 34 72  1  0  0  0  0
 34 78  2  0  0  0  0
 35 51  1  0  0  0  0
 35 73  1  0  0  0  0
 35 79  2  0  0  0  0
 36 64  1  0  0  0  0
 36 69  1  0  0  0  0
 36 80  2  0  0  0  0
 37 65  1  0  0  0  0
 37 74  1  0  0  0  0
 37 81  2  0  0  0  0
 38 70  1  0  0  0  0
 38 75  1  0  0  0  0
 38 82  2  0  0  0  0
 39 42  1  0  0  0  0
 40 51  1  0  0  0  0
 41 69  1  0  0  0  0
 42 44  1  0  0  0  0
 43 45  1  0  0  0  0
 43 46  1  0  0  0  0
 44 49  1  0  0  0  0
 45 52  1  0  0  0  0
 46 70  1  0  0  0  0
 47 52  1  0  0  0  0
 47 70  1  0  0  0  0
 48 50  1  0  0  0  0
 48 76  1  0  0  0  0
 49 73  1  0  0  0  0
 50 76  1  0  0  0  0
 51 69  1  0  0  0  0
 52 68  1  0  0  0  0
 53 62  1  0  0  0  0
 54 65  1  0  0  0  0
 55 66  1  0  0  0  0
 56 66  1  0  0  0  0
 57 66  1  0  0  0  0
 58 77  1  0  0  0  0
 59 62  1  0  0  0  0
 60 63  1  0  0  0  0
 61 84  1  0  0  0  0
 63 75  1  0  0  0  0
 64 66  1  0  0  0  0
 64 74  1  0  0  0  0
 65 77  1  0  0  0  0
 67 68  1  0  0  0  0
M  CHG  2  76   1  77   1
M  ISO  4  38 100  61 101  75 100  84 101
M  END
> <Batch ID>
0141

> <Smiles>
CCCc1cc([101CH2:1][101O:1]c2ccc3c(c2)CN(C(=O)C(NC(=O)C(C)NC)C(C)(C)C)C(C(=O)NC2CCCc4ccccc42)C3)cc(C2CN2)c1CC[100NH:0][100C:0](=O)N1CCCC(n2nc(-c3ccc(Oc4ccc(F)cc4F)cc3)c(C(N)=O)c2N)C1

> <Shape>
0.268

> <Color>
0.086

> <Negative vol penalty>
0.000

$$$$

  -OEChem-04052321163D

 85 95  0     1  0  0  0  0  0999 V2000
  -27.6305  -37.9465   21.8996 C   0  0  0  0  0  0  0  0  0  0  0  0
  -28.1381  -36.8806   21.1636 C   0  0  0  0  0  0  0  0  0  0  0  0
  -23.5327  -10.0745   22.0621 C   0  0  0  0  0  0  0  0  0  0  0  0
  -24.3126   -8.7974   20.1653 C   0  0  0  0  0  0  0  0  0  0  0  0
  -26.8942  -37.7040   23.0585 C   0  0  0  0  0  0  0  0  0  0  0  0
  -27.9104  -35.5715   21.5867 C   0  0  0  0  0  0  0  0  0  0  0  0
  -26.8829  -28.9689   19.0048 C   0  0  0  0  0  0  0  0  0  0  0  0
  -22.2473   -9.5660   21.8759 C   0  0  0  0  0  0  0  0  0  0  0  0
  -23.0272   -8.2889   19.9791 C   0  0  0  0  0  0  0  0  0  0  0  0
  -27.3742  -27.6712   19.1396 C   0  0  0  0  0  0  0  0  0  0  0  0
  -20.0296   -6.3748   19.2245 C   0  0  0  0  0  0  0  0  0  0  0  0
  -19.9015   -5.0077   18.9793 C   0  0  0  0  0  0  0  0  0  0  0  0
  -26.0208  -27.3705   21.1138 C   0  0  0  0  0  0  0  0  0  0  0  0
  -29.6081  -23.4781   20.7072 C   0  0  0  0  0  0  0  0  0  0  0  0
  -20.9430   -4.5287   21.1061 C   0  0  0  0  0  0  0  0  0  0  0  0
  -24.5654   -9.6903   21.2067 C   0  0  0  0  0  0  0  0  0  0  0  0
  -26.9192   -9.6657   22.1899 C   0  0  0  0  0  0  0  0  0  0  0  0
  -26.6492  -36.3911   23.4907 C   0  0  0  0  0  0  0  0  0  0  0  0
  -25.9636  -29.4819   19.9312 C   0  0  0  0  0  0  0  0  0  0  0  0
  -27.1712  -35.3113   22.7531 C   0  0  0  0  0  0  0  0  0  0  0  0
  -25.5174  -28.6742   20.9869 C   0  0  0  0  0  0  0  0  0  0  0  0
  -29.9424  -22.1524   20.9600 C   0  0  0  0  0  0  0  0  0  0  0  0
  -29.4117  -21.1434   20.1639 C   0  0  0  0  0  0  0  0  0  0  0  0
  -21.9945   -8.6731   20.8345 C   0  0  0  0  0  0  0  0  0  0  0  0
  -26.9454  -26.8727   20.1959 C   0  0  0  0  0  0  0  0  0  0  0  0
  -20.6145   -6.8189   20.4104 C   0  0  0  0  0  0  0  0  0  0  0  0
  -20.3581   -4.0846   19.9201 C   0  0  0  0  0  0  0  0  0  0  0  0
  -21.0712   -5.8958   21.3512 C   0  0  0  0  0  0  0  0  0  0  0  0
  -25.8933  -10.2157   21.3981 C   0  0  0  0  0  0  0  0  0  0  0  0
  -28.7458  -23.7402   19.6548 C   0  0  0  0  0  0  0  0  0  0  0  0
  -28.5581  -21.5100   19.1359 C   0  0  0  0  0  0  0  0  0  0  0  0
  -27.9729  -10.5335   22.0379 C   0  0  0  0  0  0  0  0  0  0  0  0
  -26.9196   -8.4767   22.9912 C   0  0  0  0  0  0  0  0  0  0  0  0
  -25.9697  -31.9008   21.9933 C   0  0  0  0  0  0  0  0  0  0  0  0
  -22.8718  -31.0371   22.4170 C   0  0  0  0  0  0  0  0  0  0  0  0
  -20.4912  -28.5995   22.2234 C   0  0  0  0  0  0  0  0  0  0  0  0
  -28.0105  -16.3277   20.6506 C   0  0  0  0  0  0  0  0  0  0  0  0
  -25.8880  -36.1799   24.7754 C   0  0  0  0  0  0  0  0  0  0  0  0
  -25.4229  -30.8745   19.7564 C   0  0  0  0  0  0  0  0  0  0  0  0
  -24.5163  -29.1705   21.9968 C   0  0  0  0  0  0  0  0  0  0  0  0
  -25.3731  -34.7536   24.9509 C   0  0  0  0  0  0  0  0  0  0  0  0
  -29.8697  -13.6321   18.9506 C   0  0  0  0  0  0  0  0  0  0  0  0
  -32.2206  -22.5013   22.1270 C   0  0  0  0  0  0  0  0  0  0  0  0
  -32.1157  -21.0422   21.8102 C   0  0  0  0  0  0  0  0  0  0  0  0
  -26.4709  -33.7458   24.6252 C   0  0  0  0  0  0  0  0  0  0  0  0
  -29.1045  -12.4015   19.4285 C   0  0  0  0  0  0  0  0  0  0  0  0
  -29.5221  -19.1307   21.7793 C   0  0  0  0  0  0  0  0  0  0  0  0
  -28.9563  -14.8455   18.7815 C   0  0  0  0  0  0  0  0  0  0  0  0
  -27.3982  -13.9361   20.4815 C   0  0  0  0  0  0  0  0  0  0  0  0
  -30.8689  -21.8394   22.0876 C   0  0  0  0  0  0  0  0  0  0  0  0
  -29.7509  -19.7108   20.4103 C   0  0  1  0  0  0  0  0  0  0  0  0
  -26.9245  -33.8765   23.1662 C   0  0  1  0  0  0  0  0  0  0  0  0
  -24.8806  -31.4718   21.0512 C   0  0  1  0  0  0  0  0  0  0  0  0
  -28.3089  -12.7189   20.7039 C   0  0  1  0  0  0  0  0  0  0  0  0
  -28.6301  -18.7252   20.6434 C   0  0  1  0  0  0  0  0  0  0  0  0
  -27.9555  -20.4713   18.2469 C   0  0  0  0  0  0  0  0  0  0  0  0
  -18.0581  -28.1819   22.6742 C   0  0  0  0  0  0  0  0  0  0  0  0
  -23.4558  -30.8773   25.4075 C   0  0  0  0  0  0  0  0  0  0  0  0
  -21.3370  -29.5718   25.6807 C   0  0  0  0  0  0  0  0  0  0  0  0
  -21.2552  -31.9148   24.8284 C   0  0  0  0  0  0  0  0  0  0  0  0
  -19.9517  -27.9788   19.3804 C   0  0  0  0  0  0  0  0  0  0  0  0
  -28.3628  -25.1592   19.3530 C   0  0  0  0  0  0  0  0  0  1  0  0
  -22.1437  -30.0815   23.3312 C   0  0  1  0  0  0  0  0  0  0  0  0
  -19.0898  -28.6041   21.6398 C   0  0  2  0  0  0  0  0  0  0  0  0
  -22.0683  -30.6023   24.7942 C   0  0  0  0  0  0  0  0  0  0  0  0
  -26.2620  -11.3455   20.7884 N   0  0  0  0  0  0  0  0  0  0  0  0
  -28.2102  -22.7868   18.8598 N   0  0  0  0  0  0  0  0  0  0  0  0
  -27.5312  -11.5125   21.1973 N   0  0  0  0  0  0  0  0  0  0  0  0
  -24.0218  -30.5412   21.7867 N   0  0  0  0  0  0  0  0  0  0  0  0
  -28.1566  -15.0937   19.9915 N   0  0  0  0  0  0  0  0  0  0  0  0
  -29.2249  -10.5470   22.5427 N   0  0  0  0  0  0  0  0  0  0  0  0
  -25.7535   -7.7004   23.0353 N   0  0  0  0  0  0  0  0  0  0  0  0
  -25.9648  -33.2524   22.2807 N   0  0  0  0  0  0  0  0  0  0  0  0
  -20.8436  -29.8383   22.7156 N   0  0  0  0  0  0  0  0  0  0  0  0
  -28.6895  -17.4009   20.0848 N   0  0  0  0  0  0  0  0  0  0  0  0
  -19.0070  -27.6672   20.4838 N   0  3  0  0  0  0  0  0  0  0  0  0
  -27.9188   -8.1223   23.6615 O   0  0  0  0  0  0  0  0  0  0  0  0
  -26.7552  -31.0670   22.4285 O   0  0  0  0  0  0  0  0  0  0  0  0
  -22.4321  -32.1792   22.2621 O   0  0  0  0  0  0  0  0  0  0  0  0
  -21.2008  -27.5962   22.2442 O   0  0  0  0  0  0  0  0  0  0  0  0
  -27.3207  -16.4668   21.6667 O   0  0  0  0  0  0  0  0  0  0  0  0
  -20.7403   -8.1765   20.6527 O   0  0  0  0  0  0  0  0  0  0  0  0
  -27.4238  -25.6059   20.3303 O   0  0  0  0  0  0  0  0  0  1  0  0
  -20.2336   -2.7718   19.6852 F   0  0  0  0  0  0  0  0  0  0  0  0
  -21.6329   -6.3164   22.4929 F   0  0  0  0  0  0  0  0  0  0  0  0
  1  2  1  0  0  0  0
  1  5  2  0  0  0  0
  2  6  2  0  0  0  0
  3  8  2  0  0  0  0
  3 16  1  0  0  0  0
  4  9  1  0  0  0  0
  4 16  2  0  0  0  0
  5 18  1  0  0  0  0
  6 20  1  0  0  0  0
  7 10  2  0  0  0  0
  7 19  1  0  0  0  0
  8 24  1  0  0  0  0
  9 24  2  0  0  0  0
 10 25  1  0  0  0  0
 11 12  2  0  0  0  0
 11 26  1  0  0  0  0
 12 27  1  0  0  0  0
 13 21  1  0  0  0  0
 13 25  2  0  0  0  0
 14 22  2  0  0  0  0
 14 30  1  0  0  0  0
 15 27  2  0  0  0  0
 15 28  1  0  0  0  0
 16 29  1  0  0  0  0
 17 29  1  0  0  0  0
 17 32  2  0  0  0  0
 17 33  1  0  0  0  0
 18 20  2  0  0  0  0
 18 38  1  0  0  0  0
 19 21  2  0  0  0  0
 19 39  1  0  0  0  0
 20 52  1  0  0  0  0
 21 40  1  0  0  0  0
 22 23  1  0  0  0  0
 22 50  1  0  0  0  0
 23 31  2  0  0  0  0
 23 51  1  0  0  0  0
 24 82  1  0  0  0  0
 25 83  1  0  0  0  0
 26 28  2  0  0  0  0
 26 82  1  0  0  0  0
 27 84  1  0  0  0  0
 28 85  1  0  0  0  0
 29 66  2  0  0  0  0
 30 62  1  0  0  0  0
 30 67  2  0  0  0  0
 31 56  1  0  0  0  0
 31 67  1  0  0  0  0
 32 68  1  0  0  0  0
 32 71  1  0  0  0  0
 33 72  1  0  0  0  0
 33 77  2  0  0  0  0
 34 53  1  0  0  0  0
 34 73  1  0  0  0  0
 34 78  2  0  0  0  0
 35 63  1  0  0  0  0
 35 69  1  0  0  0  0
 35 79  2  0  0  0  0
 36 64  1  0  0  0  0
 36 74  1  0  0  0  0
 36 80  2  0  0  0  0
 37 70  1  0  0  0  0
 37 75  1  0  0  0  0
 37 81  2  0  0  0  0
 38 41  1  0  0  0  0
 39 53  1  0  0  0  0
 40 69  1  0  0  0  0
 41 45  1  0  0  0  0
 42 46  1  0  0  0  0
 42 48  1  0  0  0  0
 43 44  1  0  0  0  0
 43 50  1  0  0  0  0
 44 50  1  0  0  0  0
 45 52  1  0  0  0  0
 46 54  1  0  0  0  0
 47 51  1  0  0  0  0
 47 55  1  0  0  0  0
 48 70  1  0  0  0  0
 49 54  1  0  0  0  0
 49 70  1  0  0  0  0
 51 55  1  0  0  0  0
 52 73  1  0  0  0  0
 53 69  1  0  0  0  0
 54 68  1  0  0  0  0
 55 75  1  0  0  0  0
 57 64  1  0  0  0  0
 58 65  1  0  0  0  0
 59 65  1  0  0  0  0
 60 65  1  0  0  0  0
 61 76  1  0  0  0  0
 62 83  1  0  0  0  0
 63 65  1  0  0  0  0
 63 74  1  0  0  0  0
 64 76  1  0  0  0  0
 66 68  1  0  0  0  0
M  CHG  1  76   1
M  ISO  4  37 100  62 101  75 100  83 101
M  END
> <Batch ID>
0141

> <Smiles>
CNC(C)C(=O)NC(C(=O)N1Cc2cc([101O:1][101CH2:1]c3cc(C4CC4)c(C4CC4[100NH:0][100C:0](=O)N4CCCC(n5nc(-c6ccc(Oc7ccc(F)cc7F)cc6)c(C(N)=O)c5N)C4)c(C)n3)ccc2CC1C(=O)NC1CCCc2ccccc21)C(C)(C)C

> <Shape>
0.306

> <Color>
0.100

> <Negative vol penalty>
0.000

$$$$

  -OEChem-04052321163D

 85 94  0     1  0  0  0  0  0999 V2000
  -23.3968  -10.6421   18.8517 C   0  0  0  0  0  0  0  0  0  0  0  0
  -22.6676  -11.8206   18.7304 C   0  0  0  0  0  0  0  0  0  0  0  0
  -28.2975  -25.2677   22.2553 C   0  0  0  0  0  0  0  0  0  0  0  0
  -29.2071  -27.3965   22.9466 C   0  0  0  0  0  0  0  0  0  0  0  0
  -24.5421  -10.6110   19.6463 C   0  0  0  0  0  0  0  0  0  0  0  0
  -23.0827  -12.9685   19.4046 C   0  0  0  0  0  0  0  0  0  0  0  0
  -22.5870  -18.7573   17.4679 C   0  0  0  0  0  0  0  0  0  0  0  0
  -19.7142  -27.3087   19.9752 C   0  0  0  0  0  0  0  0  0  0  0  0
  -29.1062  -24.6191   23.1884 C   0  0  0  0  0  0  0  0  0  0  0  0
  -30.0158  -26.7478   23.8799 C   0  0  0  0  0  0  0  0  0  0  0  0
  -21.6625  -19.7632   17.7453 C   0  0  0  0  0  0  0  0  0  0  0  0
  -19.5519  -26.0955   19.3082 C   0  0  0  0  0  0  0  0  0  0  0  0
  -32.0568  -25.6841   26.6943 C   0  0  0  0  0  0  0  0  0  0  0  0
  -32.1321  -26.2271   27.9769 C   0  0  0  0  0  0  0  0  0  0  0  0
  -23.1398  -20.6467   19.4353 C   0  0  0  0  0  0  0  0  0  0  0  0
  -19.2910  -24.9756   21.4265 C   0  0  0  0  0  0  0  0  0  0  0  0
  -29.7485  -25.9338   28.2409 C   0  0  0  0  0  0  0  0  0  0  0  0
  -28.3480  -26.6564   22.1343 C   0  0  0  0  0  0  0  0  0  0  0  0
  -27.5120  -27.1448   19.7742 C   0  0  0  0  0  0  0  0  0  0  0  0
  -24.9768  -11.7616   20.3228 C   0  0  0  0  0  0  0  0  0  0  0  0
  -23.7922  -18.6819   18.1809 C   0  0  0  0  0  0  0  0  0  0  0  0
  -24.2341  -12.9524   20.2100 C   0  0  0  0  0  0  0  0  0  0  0  0
  -19.6648  -27.3734   21.3792 C   0  0  0  0  0  0  0  0  0  0  0  0
  -24.0791  -19.6404   19.1633 C   0  0  0  0  0  0  0  0  0  0  0  0
  -19.4463  -26.1918   22.1154 C   0  0  0  0  0  0  0  0  0  0  0  0
  -29.9653  -25.3591   24.0008 C   0  0  0  0  0  0  0  0  0  0  0  0
  -21.9375  -20.7065   18.7311 C   0  0  0  0  0  0  0  0  0  0  0  0
  -19.3433  -24.9283   20.0341 C   0  0  0  0  0  0  0  0  0  0  0  0
  -30.8274  -25.2660   26.1849 C   0  0  0  0  0  0  0  0  0  0  0  0
  -30.9779  -26.3519   28.7502 C   0  0  0  0  0  0  0  0  0  0  0  0
  -29.6732  -25.3908   26.9582 C   0  0  0  0  0  0  0  0  0  0  0  0
  -27.5133  -27.3270   21.1701 C   0  0  0  0  0  0  0  0  0  0  0  0
  -26.5459  -28.0072   19.3163 C   0  0  0  0  0  0  0  0  0  0  0  0
  -28.3123  -26.2739   18.9639 C   0  0  0  0  0  0  0  0  0  0  0  0
  -25.1274  -16.5364   20.1090 C   0  0  0  0  0  0  0  0  0  0  0  0
  -27.6587  -18.5598   19.9677 C   0  0  0  0  0  0  0  0  0  0  0  0
  -28.8103  -21.7254   19.4201 C   0  0  0  0  0  0  0  0  0  0  0  0
  -21.6896  -30.4129   21.8619 C   0  0  0  0  0  0  0  0  0  0  0  0
  -26.1944  -11.6669   21.2078 C   0  0  0  0  0  0  0  0  0  0  0  0
  -24.7908  -17.6065   17.8513 C   0  0  0  0  0  0  0  0  0  0  0  0
  -25.3674  -19.6155   19.9432 C   0  0  0  0  0  0  0  0  0  0  0  0
  -26.7767  -13.0252   21.5900 C   0  0  0  0  0  0  0  0  0  0  0  0
  -24.4200  -32.1577   20.3862 C   0  0  0  0  0  0  0  0  0  0  0  0
  -19.9256  -27.4743   24.2546 C   0  0  0  0  0  0  0  0  0  0  0  0
  -25.6695  -13.9738   22.0382 C   0  0  0  0  0  0  0  0  0  0  0  0
  -19.4501  -28.7235   23.5200 C   0  0  0  0  0  0  0  0  0  0  0  0
  -25.5222  -31.1010   20.2938 C   0  0  0  0  0  0  0  0  0  0  0  0
  -23.5857  -31.9935   21.6547 C   0  0  0  0  0  0  0  0  0  0  0  0
  -24.1205  -29.5901   21.7603 C   0  0  0  0  0  0  0  0  0  0  0  0
  -19.3434  -26.1965   23.6299 C   0  0  1  0  0  0  0  0  0  0  0  0
  -24.6662  -14.2248   20.9059 C   0  0  1  0  0  0  0  0  0  0  0  0
  -19.8975  -28.7071   22.0555 C   0  0  1  0  0  0  0  0  0  0  0  0
  -25.7599  -17.3204   18.9942 C   0  0  1  0  0  0  0  0  0  0  0  0
  -24.9533  -29.6803   20.4701 C   0  0  2  0  0  0  0  0  0  0  0  0
  -17.8883  -25.9827   24.0684 C   0  0  0  0  0  0  0  0  0  0  0  0
  -30.9231  -23.0796   19.4147 C   0  0  0  0  0  0  0  0  0  0  0  0
  -27.6412  -18.5950   23.0187 C   0  0  0  0  0  0  0  0  0  0  0  0
  -29.0895  -20.6355   22.9341 C   0  0  0  0  0  0  0  0  0  0  0  0
  -29.9178  -18.4802   21.9898 C   0  0  0  0  0  0  0  0  0  0  0  0
  -28.5103  -22.3962   16.5533 C   0  0  0  0  0  0  0  0  0  0  0  0
  -20.2093  -22.1293   17.9280 C   0  0  0  0  0  0  0  0  0  1  0  0
  -19.8602  -23.5901   18.1373 C   0  0  0  0  0  0  0  0  0  0  0  0
  -28.1144  -19.7592   20.7633 C   0  0  1  0  0  0  0  0  0  0  0  0
  -29.9622  -22.2470   18.5802 C   0  0  2  0  0  0  0  0  0  0  0  0
  -28.6655  -19.3671   22.1633 C   0  0  0  0  0  0  0  0  0  0  0  0
  -26.6192  -28.2340   21.5726 N   0  0  0  0  0  0  0  0  0  0  0  0
  -26.0470  -28.6295   20.4227 N   0  0  0  0  0  0  0  0  0  0  0  0
  -26.3090  -18.5408   19.5886 N   0  0  0  0  0  0  0  0  0  0  0  0
  -23.0745  -30.6248   21.7611 N   0  0  0  0  0  0  0  0  0  0  0  0
  -26.0831  -28.2863   18.0793 N   0  0  0  0  0  0  0  0  0  0  0  0
  -29.5324  -26.7551   18.4697 N   0  0  0  0  0  0  0  0  0  0  0  0
  -25.2084  -15.1661   19.9497 N   0  0  0  0  0  0  0  0  0  0  0  0
  -29.0721  -20.4677   19.9212 N   0  0  0  0  0  0  0  0  0  0  0  0
  -21.2893  -29.0854   21.9525 N   0  0  0  0  0  0  0  0  0  0  0  0
  -29.4493  -23.0956   17.4676 N   0  3  0  0  0  0  0  0  0  0  0  0
  -27.9484  -25.1093   18.6727 O   0  0  0  0  0  0  0  0  0  0  0  0
  -24.6057  -17.1306   21.0452 O   0  0  0  0  0  0  0  0  0  0  0  0
  -28.4721  -17.6760   19.6867 O   0  0  0  0  0  0  0  0  0  0  0  0
  -27.7828  -22.3707   19.6156 O   0  0  0  0  0  0  0  0  0  0  0  0
  -20.8703  -31.3379   21.8651 O   0  0  0  0  0  0  0  0  0  0  0  0
  -30.7544  -24.7265   24.9116 O   0  0  0  0  0  0  0  0  0  0  0  0
  -21.0365  -21.6890   19.0043 O   0  0  0  0  0  0  0  0  0  1  0  0
  -19.1875  -23.7332   19.3824 O   0  0  0  0  0  0  0  0  0  0  0  0
  -31.0506  -26.8718   29.9825 F   0  0  0  0  0  0  0  0  0  0  0  0
  -28.4895  -24.9899   26.4747 F   0  0  0  0  0  0  0  0  0  0  0  0
  1  2  1  0  0  0  0
  1  5  2  0  0  0  0
  2  6  2  0  0  0  0
  3  9  2  0  0  0  0
  3 18  1  0  0  0  0
  4 10  1  0  0  0  0
  4 18  2  0  0  0  0
  5 20  1  0  0  0  0
  6 22  1  0  0  0  0
  7 11  2  0  0  0  0
  7 21  1  0  0  0  0
  8 12  2  0  0  0  0
  8 23  1  0  0  0  0
  9 26  1  0  0  0  0
 10 26  2  0  0  0  0
 11 27  1  0  0  0  0
 12 28  1  0  0  0  0
 13 14  2  0  0  0  0
 13 29  1  0  0  0  0
 14 30  1  0  0  0  0
 15 24  1  0  0  0  0
 15 27  2  0  0  0  0
 16 25  1  0  0  0  0
 16 28  2  0  0  0  0
 17 30  2  0  0  0  0
 17 31  1  0  0  0  0
 18 32  1  0  0  0  0
 19 32  1  0  0  0  0
 19 33  2  0  0  0  0
 19 34  1  0  0  0  0
 20 22  2  0  0  0  0
 20 39  1  0  0  0  0
 21 24  2  0  0  0  0
 21 40  1  0  0  0  0
 22 51  1  0  0  0  0
 23 25  2  0  0  0  0
 23 52  1  0  0  0  0
 24 41  1  0  0  0  0
 25 50  1  0  0  0  0
 26 81  1  0  0  0  0
 27 82  1  0  0  0  0
 28 83  1  0  0  0  0
 29 31  2  0  0  0  0
 29 81  1  0  0  0  0
 30 84  1  0  0  0  0
 31 85  1  0  0  0  0
 32 66  2  0  0  0  0
 33 67  1  0  0  0  0
 33 70  1  0  0  0  0
 34 71  1  0  0  0  0
 34 76  2  0  0  0  0
 35 53  1  0  0  0  0
 35 72  1  0  0  0  0
 35 77  2  0  0  0  0
 36 63  1  0  0  0  0
 36 68  1  0  0  0  0
 36 78  2  0  0  0  0
 37 64  1  0  0  0  0
 37 73  1  0  0  0  0
 37 79  2  0  0  0  0
 38 69  1  0  0  0  0
 38 74  1  0  0  0  0
 38 80  2  0  0  0  0
 39 42  1  0  0  0  0
 40 53  1  0  0  0  0
 41 68  1  0  0  0  0
 42 45  1  0  0  0  0
 43 47  1  0  0  0  0
 43 48  1  0  0  0  0
 44 46  1  0  0  0  0
 44 50  1  0  0  0  0
 45 51  1  0  0  0  0
 46 52  1  0  0  0  0
 47 54  1  0  0  0  0
 48 69  1  0  0  0  0
 49 54  1  0  0  0  0
 49 69  1  0  0  0  0
 50 55  1  0  0  0  0
 51 72  1  0  0  0  0
 52 74  1  0  0  0  0
 53 68  1  0  0  0  0
 54 67  1  0  0  0  0
 56 64  1  0  0  0  0
 57 65  1  0  0  0  0
 58 65  1  0  0  0  0
 59 65  1  0  0  0  0
 60 75  1  0  0  0  0
 61 62  1  0  0  0  0
 61 82  1  0  0  0  0
 62 83  1  0  0  0  0
 63 65  1  0  0  0  0
 63 73  1  0  0  0  0
 64 75  1  0  0  0  0
 66 67  1  0  0  0  0
M  CHG  1  75   1
M  ISO  4  38 100  61 101  74 100  82 101
M  END
> <Batch ID>
0141

> <Smiles>
CNC(C)C(=O)NC(C(=O)N1Cc2cc([101O:1][101CH2:1]COc3ccc4c(c3)C(C)CCC4[100NH:0][100C:0](=O)N3CCCC(n4nc(-c5ccc(Oc6ccc(F)cc6F)cc5)c(C(N)=O)c4N)C3)ccc2CC1C(=O)NC1CCCc2ccccc21)C(C)(C)C

> <Shape>
0.220

> <Color>
0.081

> <Negative vol penalty>
0.000

$$$$

  -OEChem-04052321163D

 86 95  0     1  0  0  0  0  0999 V2000
  -30.0597  -35.6136   20.8170 C   0  0  0  0  0  0  0  0  0  0  0  0
  -30.1180  -34.5625   19.9075 C   0  0  0  0  0  0  0  0  0  0  0  0
  -23.0383   -9.9195   19.8838 C   0  0  0  0  0  0  0  0  0  0  0  0
  -23.8519   -9.7874   22.1548 C   0  0  0  0  0  0  0  0  0  0  0  0
  -29.5167  -35.4078   22.0846 C   0  0  0  0  0  0  0  0  0  0  0  0
  -29.6341  -33.3046   20.2654 C   0  0  0  0  0  0  0  0  0  0  0  0
  -26.4222  -27.5514   17.4547 C   0  0  0  0  0  0  0  0  0  0  0  0
  -22.2848   -8.7633   20.0865 C   0  0  0  0  0  0  0  0  0  0  0  0
  -23.0984   -8.6313   22.3576 C   0  0  0  0  0  0  0  0  0  0  0  0
  -26.5671  -26.1669   17.3781 C   0  0  0  0  0  0  0  0  0  0  0  0
  -19.8746   -7.8406   22.9923 C   0  0  0  0  0  0  0  0  0  0  0  0
  -19.1449   -7.7439   24.1771 C   0  0  0  0  0  0  0  0  0  0  0  0
  -25.5783  -25.9484   19.5676 C   0  0  0  0  0  0  0  0  0  0  0  0
  -28.6833  -19.9696   19.6821 C   0  0  0  0  0  0  0  0  0  0  0  0
  -20.3766   -5.7527   24.7731 C   0  0  0  0  0  0  0  0  0  0  0  0
  -23.8220  -10.4315   20.9180 C   0  0  0  0  0  0  0  0  0  0  0  0
  -24.1954  -12.9550   20.9318 C   0  0  0  0  0  0  0  0  0  0  0  0
  -29.0171  -34.1492   22.4548 C   0  0  0  0  0  0  0  0  0  0  0  0
  -25.8634  -28.1466   18.5948 C   0  0  0  0  0  0  0  0  0  0  0  0
  -29.0851  -33.0815   21.5396 C   0  0  0  0  0  0  0  0  0  0  0  0
  -25.4251  -27.3405   19.6551 C   0  0  0  0  0  0  0  0  0  0  0  0
  -29.5058  -19.0853   21.7620 C   0  0  0  0  0  0  0  0  0  0  0  0
  -29.1136  -18.8881   20.4427 C   0  0  0  0  0  0  0  0  0  0  0  0
  -22.3148   -8.1192   21.3233 C   0  0  0  0  0  0  0  0  0  0  0  0
  -26.1477  -25.3653   18.4358 C   0  0  0  0  0  0  0  0  0  0  0  0
  -20.8553   -6.8933   22.6979 C   0  0  0  0  0  0  0  0  0  0  0  0
  -19.3959   -6.7000   25.0675 C   0  0  0  0  0  0  0  0  0  0  0  0
  -21.1063   -5.8494   23.5883 C   0  0  0  0  0  0  0  0  0  0  0  0
  -24.6010  -11.6255   20.7090 C   0  0  0  0  0  0  0  0  0  0  0  0
  -29.4496  -20.3732   22.2697 C   0  0  0  0  0  0  0  0  0  0  0  0
  -28.6637  -21.2180   20.2830 C   0  0  0  0  0  0  0  0  0  0  0  0
  -25.2889  -13.7103   20.5849 C   0  0  0  0  0  0  0  0  0  0  0  0
  -22.9423  -13.4620   21.4097 C   0  0  0  0  0  0  0  0  0  0  0  0
  -26.8996  -30.1978   20.7908 C   0  0  0  0  0  0  0  0  0  0  0  0
  -23.8204  -30.0682   21.8028 C   0  0  0  0  0  0  0  0  0  0  0  0
  -20.8850  -28.3324   21.9357 C   0  0  0  0  0  0  0  0  0  0  0  0
  -30.7815  -14.6606   20.6807 C   0  0  0  0  0  0  0  0  0  0  0  0
  -28.4826  -33.9630   23.8528 C   0  0  0  0  0  0  0  0  0  0  0  0
  -25.6895  -29.6396   18.6507 C   0  0  0  0  0  0  0  0  0  0  0  0
  -24.8002  -27.9288   20.8928 C   0  0  0  0  0  0  0  0  0  0  0  0
  -27.6495  -32.6951   24.0224 C   0  0  0  0  0  0  0  0  0  0  0  0
  -29.5654  -12.4170   18.2111 C   0  0  0  0  0  0  0  0  0  0  0  0
  -31.1740  -18.1175   23.6545 C   0  0  0  0  0  0  0  0  0  0  0  0
  -28.3584  -31.5019   23.3896 C   0  0  0  0  0  0  0  0  0  0  0  0
  -28.1335  -12.1183   18.6588 C   0  0  0  0  0  0  0  0  0  0  0  0
  -31.6151  -16.6654   23.3936 C   0  0  0  0  0  0  0  0  0  0  0  0
  -30.5109  -12.5587   19.4019 C   0  0  0  0  0  0  0  0  0  0  0  0
  -28.6517  -13.2338   20.8696 C   0  0  0  0  0  0  0  0  0  0  0  0
  -30.0027  -17.8715   22.6554 C   0  0  2  0  0  0  0  0  0  0  0  0
  -28.5480  -31.7088   21.8820 C   0  0  1  0  0  0  0  0  0  0  0  0
  -25.5788  -30.1753   20.0748 C   0  0  1  0  0  0  0  0  0  0  0  0
  -27.6488  -13.1382   19.7070 C   0  0  2  0  0  0  0  0  0  0  0  0
  -30.9251  -16.7825   22.0168 C   0  0  2  0  0  0  0  0  0  0  0  0
  -29.1465  -17.5294   19.8257 C   0  0  0  0  0  0  0  0  0  0  0  0
  -29.8590  -20.6439   23.6801 C   0  0  0  0  0  0  0  0  0  0  0  0
  -18.5581  -28.4656   22.8660 C   0  0  0  0  0  0  0  0  0  0  0  0
  -24.8919  -29.3785   24.5752 C   0  0  0  0  0  0  0  0  0  0  0  0
  -22.5927  -28.6052   25.1950 C   0  0  0  0  0  0  0  0  0  0  0  0
  -22.9782  -30.9885   24.5673 C   0  0  0  0  0  0  0  0  0  0  0  0
  -19.6759  -28.2419   19.2360 C   0  0  0  0  0  0  0  0  0  0  0  0
  -27.8082  -22.1617   18.1375 C   0  0  0  0  0  0  0  0  0  0  0  0
  -27.3810  -23.5146   17.5933 C   0  0  0  0  0  0  0  0  0  1  0  0
  -23.0497  -29.2073   22.7744 C   0  0  1  0  0  0  0  0  0  0  0  0
  -19.4516  -28.7557   21.6700 C   0  0  2  0  0  0  0  0  0  0  0  0
  -23.3916  -29.5336   24.2556 C   0  0  0  0  0  0  0  0  0  0  0  0
  -25.8543  -11.5378   20.2555 N   0  0  0  0  0  0  0  0  0  0  0  0
  -29.0372  -21.4485   21.5617 N   0  0  0  0  0  0  0  0  0  0  0  0
  -26.2456  -12.8219   20.1904 N   0  0  0  0  0  0  0  0  0  0  0  0
  -24.6576  -29.3941   20.9026 N   0  0  0  0  0  0  0  0  0  0  0  0
  -29.9941  -13.5454   20.3538 N   0  0  0  0  0  0  0  0  0  0  0  0
  -25.5157  -15.0411   20.5818 N   0  0  0  0  0  0  0  0  0  0  0  0
  -21.9262  -12.5478   21.7198 N   0  0  0  0  0  0  0  0  0  0  0  0
  -28.2320  -22.2856   19.5134 N   0  0  0  0  0  0  0  0  0  0  0  0
  -27.3083  -31.4598   21.1779 N   0  0  0  0  0  0  0  0  0  0  0  0
  -21.6401  -29.3720   22.4363 N   0  0  0  0  0  0  0  0  0  0  0  0
  -30.2211  -15.5580   21.5837 N   0  0  0  0  0  0  0  0  0  0  0  0
  -18.9071  -28.0279   20.4890 N   0  3  0  0  0  0  0  0  0  0  0  0
  -22.7243  -14.6902   21.5419 O   0  0  0  0  0  0  0  0  0  0  0  0
  -27.5024  -29.1477   20.9796 O   0  0  0  0  0  0  0  0  0  0  0  0
  -23.6792  -31.2932   21.8366 O   0  0  0  0  0  0  0  0  0  0  0  0
  -21.2931  -27.1926   21.7242 O   0  0  0  0  0  0  0  0  0  0  0  0
  -31.9032  -14.8540   20.1993 O   0  0  0  0  0  0  0  0  0  0  0  0
  -21.5795   -6.9912   21.5215 O   0  0  0  0  0  0  0  0  0  0  0  0
  -26.2886  -24.0137   18.3639 O   0  0  0  0  0  0  0  0  0  1  0  0
  -18.6961   -6.6081   26.2060 F   0  0  0  0  0  0  0  0  0  0  0  0
  -22.0480   -4.9371   23.3115 F   0  0  0  0  0  0  0  0  0  0  0  0
  1  2  1  0  0  0  0
  1  5  2  0  0  0  0
  2  6  2  0  0  0  0
  3  8  2  0  0  0  0
  3 16  1  0  0  0  0
  4  9  1  0  0  0  0
  4 16  2  0  0  0  0
  5 18  1  0  0  0  0
  6 20  1  0  0  0  0
  7 10  2  0  0  0  0
  7 19  1  0  0  0  0
  8 24  1  0  0  0  0
  9 24  2  0  0  0  0
 10 25  1  0  0  0  0
 11 12  2  0  0  0  0
 11 26  1  0  0  0  0
 12 27  1  0  0  0  0
 13 21  1  0  0  0  0
 13 25  2  0  0  0  0
 14 23  2  0  0  0  0
 14 31  1  0  0  0  0
 15 27  2  0  0  0  0
 15 28  1  0  0  0  0
 16 29  1  0  0  0  0
 17 29  1  0  0  0  0
 17 32  2  0  0  0  0
 17 33  1  0  0  0  0
 18 20  2  0  0  0  0
 18 38  1  0  0  0  0
 19 21  2  0  0  0  0
 19 39  1  0  0  0  0
 20 50  1  0  0  0  0
 21 40  1  0  0  0  0
 22 23  1  0  0  0  0
 22 30  2  0  0  0  0
 22 49  1  0  0  0  0
 23 54  1  0  0  0  0
 24 83  1  0  0  0  0
 25 84  1  0  0  0  0
 26 28  2  0  0  0  0
 26 83  1  0  0  0  0
 27 85  1  0  0  0  0
 28 86  1  0  0  0  0
 29 66  2  0  0  0  0
 30 55  1  0  0  0  0
 30 67  1  0  0  0  0
 31 67  2  0  0  0  0
 31 73  1  0  0  0  0
 32 68  1  0  0  0  0
 32 71  1  0  0  0  0
 33 72  1  0  0  0  0
 33 78  2  0  0  0  0
 34 51  1  0  0  0  0
 34 74  1  0  0  0  0
 34 79  2  0  0  0  0
 35 63  1  0  0  0  0
 35 69  1  0  0  0  0
 35 80  2  0  0  0  0
 36 64  1  0  0  0  0
 36 75  1  0  0  0  0
 36 81  2  0  0  0  0
 37 70  1  0  0  0  0
 37 76  1  0  0  0  0
 37 82  2  0  0  0  0
 38 41  1  0  0  0  0
 39 51  1  0  0  0  0
 40 69  1  0  0  0  0
 41 44  1  0  0  0  0
 42 45  1  0  0  0  0
 42 47  1  0  0  0  0
 43 46  1  0  0  0  0
 43 49  1  0  0  0  0
 44 50  1  0  0  0  0
 45 52  1  0  0  0  0
 46 53  1  0  0  0  0
 47 70  1  0  0  0  0
 48 52  1  0  0  0  0
 48 70  1  0  0  0  0
 49 53  1  0  0  0  0
 50 74  1  0  0  0  0
 51 69  1  0  0  0  0
 52 68  1  0  0  0  0
 53 76  1  0  0  0  0
 56 64  1  0  0  0  0
 57 65  1  0  0  0  0
 58 65  1  0  0  0  0
 59 65  1  0  0  0  0
 60 77  1  0  0  0  0
 61 62  1  0  0  0  0
 61 73  1  0  0  0  0
 62 84  1  0  0  0  0
 63 65  1  0  0  0  0
 63 75  1  0  0  0  0
 64 77  1  0  0  0  0
 66 68  1  0  0  0  0
M  CHG  1  77   1
M  ISO  4  37 100  62 101  76 100  84 101
M  END
> <Batch ID>
0141

> <Smiles>
CNC(C)C(=O)NC(C(=O)N1Cc2cc([101O:1][101CH2:1]CNc3cc(C)c(C4CCC4[100NH:0][100C:0](=O)N4CCCC(n5nc(-c6ccc(Oc7ccc(F)cc7F)cc6)c(C(N)=O)c5N)C4)c(C)n3)ccc2CC1C(=O)NC1CCCc2ccccc21)C(C)(C)C

> <Shape>
0.367

> <Color>
0.221

> <Negative vol penalty>
0.000

$$$$

  -OEChem-04052321163D

 86 95  0     1  0  0  0  0  0999 V2000
  -30.0564  -11.8109   19.8895 C   0  0  0  0  0  0  0  0  0  0  0  0
  -30.0614  -12.9715   20.6566 C   0  0  0  0  0  0  0  0  0  0  0  0
  -29.1397  -23.2198   21.3204 C   0  0  0  0  0  0  0  0  0  0  0  0
  -29.3453  -23.4880   18.9282 C   0  0  0  0  0  0  0  0  0  0  0  0
  -29.1003  -11.6422   18.8888 C   0  0  0  0  0  0  0  0  0  0  0  0
  -29.1109  -13.9646   20.4227 C   0  0  0  0  0  0  0  0  0  0  0  0
  -26.4978  -17.6142   24.5889 C   0  0  0  0  0  0  0  0  0  0  0  0
  -29.2139  -21.8350   21.1716 C   0  0  0  0  0  0  0  0  0  0  0  0
  -29.4195  -22.1031   18.7793 C   0  0  0  0  0  0  0  0  0  0  0  0
  -26.7616  -18.9246   24.9853 C   0  0  0  0  0  0  0  0  0  0  0  0
  -31.6155  -19.5093   20.6648 C   0  0  0  0  0  0  0  0  0  0  0  0
  -32.4462  -18.8071   21.5379 C   0  0  0  0  0  0  0  0  0  0  0  0
  -25.0488  -19.7173   23.4828 C   0  0  0  0  0  0  0  0  0  0  0  0
  -25.0180  -25.6641   27.4784 C   0  0  0  0  0  0  0  0  0  0  0  0
  -30.5459  -17.5417   22.3282 C   0  0  0  0  0  0  0  0  0  0  0  0
  -29.2053  -24.0464   20.1987 C   0  0  0  0  0  0  0  0  0  0  0  0
  -30.1990  -26.3704   20.5438 C   0  0  0  0  0  0  0  0  0  0  0  0
  -28.1317  -12.6295   18.6489 C   0  0  0  0  0  0  0  0  0  0  0  0
  -25.5134  -17.3460   23.6269 C   0  0  0  0  0  0  0  0  0  0  0  0
  -28.1418  -13.8095   19.4169 C   0  0  0  0  0  0  0  0  0  0  0  0
  -24.7727  -18.4025   23.0779 C   0  0  0  0  0  0  0  0  0  0  0  0
  -24.6078  -27.7990   25.7095 C   0  0  0  0  0  0  0  0  0  0  0  0
  -24.3172  -26.4856   25.3032 C   0  0  0  0  0  0  0  0  0  0  0  0
  -25.2872  -26.9670   27.8878 C   0  0  0  0  0  0  0  0  0  0  0  0
  -25.0808  -28.0301   27.0092 C   0  0  0  0  0  0  0  0  0  0  0  0
  -29.3539  -21.2766   19.9011 C   0  0  0  0  0  0  0  0  0  0  0  0
  -26.0390  -19.9767   24.4301 C   0  0  0  0  0  0  0  0  0  0  0  0
  -30.2499  -19.2278   20.6234 C   0  0  0  0  0  0  0  0  0  0  0  0
  -24.5380  -25.4233   26.1916 C   0  0  0  0  0  0  0  0  0  0  0  0
  -31.9114  -17.8233   22.3696 C   0  0  0  0  0  0  0  0  0  0  0  0
  -29.7151  -18.2439   21.4551 C   0  0  0  0  0  0  0  0  0  0  0  0
  -29.1281  -25.4770   20.3518 C   0  0  0  0  0  0  0  0  0  0  0  0
  -29.6044  -27.6055   20.6303 C   0  0  0  0  0  0  0  0  0  0  0  0
  -31.6054  -26.1074   20.6356 C   0  0  0  0  0  0  0  0  0  0  0  0
  -25.5064  -16.0433   20.7275 C   0  0  0  0  0  0  0  0  0  0  0  0
  -22.2900  -16.3369   21.0291 C   0  0  0  0  0  0  0  0  0  0  0  0
  -19.6508  -17.9255   22.4980 C   0  0  0  0  0  0  0  0  0  0  0  0
  -24.4117  -29.4606   22.3219 C   0  0  0  0  0  0  0  0  0  0  0  0
  -27.1477  -12.4231   17.5247 C   0  0  0  0  0  0  0  0  0  0  0  0
  -25.2226  -15.9247   23.2298 C   0  0  0  0  0  0  0  0  0  0  0  0
  -23.8351  -26.1937   23.9046 C   0  0  0  0  0  0  0  0  0  0  0  0
  -23.6914  -18.1660   22.0565 C   0  0  0  0  0  0  0  0  0  0  0  0
  -24.3619  -28.9692   24.7958 C   0  0  0  0  0  0  0  0  0  0  0  0
  -25.9431  -13.3585   17.5902 C   0  0  0  0  0  0  0  0  0  0  0  0
  -25.7620  -30.0326   19.1491 C   0  0  0  0  0  0  0  0  0  0  0  0
  -26.3934  -14.7908   17.8594 C   0  0  0  0  0  0  0  0  0  0  0  0
  -26.8980  -29.0104   19.1125 C   0  0  0  0  0  0  0  0  0  0  0  0
  -24.4983  -29.4601   19.7933 C   0  0  0  0  0  0  0  0  0  0  0  0
  -25.8560  -27.8593   21.1024 C   0  0  0  0  0  0  0  0  0  0  0  0
  -27.1118  -14.8987   19.2098 C   0  0  1  0  0  0  0  0  0  0  0  0
  -24.5517  -15.8112   21.8644 C   0  0  1  0  0  0  0  0  0  0  0  0
  -27.1579  -28.4219   20.5109 C   0  0  1  0  0  0  0  0  0  0  0  0
  -23.2833  -27.4216   23.1647 C   0  0  1  0  0  0  0  0  0  0  0  0
  -25.7954  -27.1966   29.2739 C   0  0  0  0  0  0  0  0  0  0  0  0
  -25.3649  -29.4233   27.4810 C   0  0  0  0  0  0  0  0  0  0  0  0
  -21.8261  -27.7186   23.5344 C   0  0  0  0  0  0  0  0  0  0  0  0
  -17.1419  -17.9729   22.5156 C   0  0  0  0  0  0  0  0  0  0  0  0
  -22.3019  -17.8252   18.3655 C   0  0  0  0  0  0  0  0  0  0  0  0
  -20.0002  -18.6541   18.8979 C   0  0  0  0  0  0  0  0  0  0  0  0
  -20.4160  -16.2072   18.6480 C   0  0  0  0  0  0  0  0  0  0  0  0
  -19.5416  -17.2002   25.3652 C   0  0  0  0  0  0  0  0  0  0  0  0
  -25.2057  -22.1774   24.7741 C   0  0  0  0  0  0  0  0  0  1  0  0
  -25.4021  -23.2353   25.8427 C   0  0  0  0  0  0  0  0  0  0  0  0
  -21.2786  -17.4079   20.6989 C   0  0  1  0  0  0  0  0  0  0  0  0
  -18.3920  -17.3898   23.1559 C   0  0  2  0  0  0  0  0  0  0  0  0
  -21.0208  -17.5286   19.1704 C   0  0  0  0  0  0  0  0  0  0  0  0
  -27.9430  -26.0922   20.3184 N   0  0  0  0  0  0  0  0  0  0  0  0
  -28.2656  -27.3854   20.4907 N   0  0  0  0  0  0  0  0  0  0  0  0
  -23.4486  -16.7594   21.6960 N   0  0  0  0  0  0  0  0  0  0  0  0
  -24.1586  -28.5818   23.3903 N   0  0  0  0  0  0  0  0  0  0  0  0
  -24.8040  -28.8774   21.1073 N   0  0  0  0  0  0  0  0  0  0  0  0
  -30.1013  -28.8476   20.8115 N   0  0  0  0  0  0  0  0  0  0  0  0
  -32.0457  -24.7814   20.5255 N   0  0  0  0  0  0  0  0  0  0  0  0
  -26.1527  -14.9016   20.2936 N   0  0  0  0  0  0  0  0  0  0  0  0
  -20.0876  -17.1004   21.4833 N   0  0  0  0  0  0  0  0  0  0  0  0
  -18.3801  -17.7313   24.6064 N   0  3  0  0  0  0  0  0  0  0  0  0
  -32.4453  -27.0194   20.8265 O   0  0  0  0  0  0  0  0  0  0  0  0
  -25.6452  -17.1741   20.2764 O   0  0  0  0  0  0  0  0  0  0  0  0
  -22.0572  -15.1673   20.7134 O   0  0  0  0  0  0  0  0  0  0  0  0
  -20.1904  -18.9733   22.8467 O   0  0  0  0  0  0  0  0  0  0  0  0
  -24.2856  -30.6852   22.4431 O   0  0  0  0  0  0  0  0  0  0  0  0
  -29.4266  -19.9252   19.7555 O   0  0  0  0  0  0  0  0  0  0  0  0
  -26.2967  -21.2654   24.8173 O   0  0  0  0  0  0  0  0  0  1  0  0
  -24.2961  -24.1341   25.8168 O   0  0  0  0  0  0  0  0  0  0  0  0
  -32.7096  -17.1479   23.2069 F   0  0  0  0  0  0  0  0  0  0  0  0
  -28.4042  -17.9682   21.4190 F   0  0  0  0  0  0  0  0  0  0  0  0
  1  2  1  0  0  0  0
  1  5  2  0  0  0  0
  2  6  2  0  0  0  0
  3  8  2  0  0  0  0
  3 16  1  0  0  0  0
  4  9  1  0  0  0  0
  4 16  2  0  0  0  0
  5 18  1  0  0  0  0
  6 20  1  0  0  0  0
  7 10  2  0  0  0  0
  7 19  1  0  0  0  0
  8 26  1  0  0  0  0
  9 26  2  0  0  0  0
 10 27  1  0  0  0  0
 11 12  2  0  0  0  0
 11 28  1  0  0  0  0
 12 30  1  0  0  0  0
 13 21  1  0  0  0  0
 13 27  2  0  0  0  0
 14 24  2  0  0  0  0
 14 29  1  0  0  0  0
 15 30  2  0  0  0  0
 15 31  1  0  0  0  0
 16 32  1  0  0  0  0
 17 32  1  0  0  0  0
 17 33  2  0  0  0  0
 17 34  1  0  0  0  0
 18 20  2  0  0  0  0
 18 39  1  0  0  0  0
 19 21  2  0  0  0  0
 19 40  1  0  0  0  0
 20 50  1  0  0  0  0
 21 42  1  0  0  0  0
 22 23  1  0  0  0  0
 22 25  2  0  0  0  0
 22 43  1  0  0  0  0
 23 29  2  0  0  0  0
 23 41  1  0  0  0  0
 24 25  1  0  0  0  0
 24 54  1  0  0  0  0
 25 55  1  0  0  0  0
 26 82  1  0  0  0  0
 27 83  1  0  0  0  0
 28 31  2  0  0  0  0
 28 82  1  0  0  0  0
 29 84  1  0  0  0  0
 30 85  1  0  0  0  0
 31 86  1  0  0  0  0
 32 67  2  0  0  0  0
 33 68  1  0  0  0  0
 33 72  1  0  0  0  0
 34 73  1  0  0  0  0
 34 77  2  0  0  0  0
 35 51  1  0  0  0  0
 35 74  1  0  0  0  0
 35 78  2  0  0  0  0
 36 64  1  0  0  0  0
 36 69  1  0  0  0  0
 36 79  2  0  0  0  0
 37 65  1  0  0  0  0
 37 75  1  0  0  0  0
 37 80  2  0  0  0  0
 38 70  1  0  0  0  0
 38 71  1  0  0  0  0
 38 81  2  0  0  0  0
 39 44  1  0  0  0  0
 40 51  1  0  0  0  0
 41 53  1  0  0  0  0
 42 69  1  0  0  0  0
 43 70  1  0  0  0  0
 44 46  1  0  0  0  0
 45 47  1  0  0  0  0
 45 48  1  0  0  0  0
 46 50  1  0  0  0  0
 47 52  1  0  0  0  0
 48 71  1  0  0  0  0
 49 52  1  0  0  0  0
 49 71  1  0  0  0  0
 50 74  1  0  0  0  0
 51 69  1  0  0  0  0
 52 68  1  0  0  0  0
 53 56  1  0  0  0  0
 53 70  1  0  0  0  0
 57 65  1  0  0  0  0
 58 66  1  0  0  0  0
 59 66  1  0  0  0  0
 60 66  1  0  0  0  0
 61 76  1  0  0  0  0
 62 63  1  0  0  0  0
 62 83  1  0  0  0  0
 63 84  1  0  0  0  0
 64 66  1  0  0  0  0
 64 75  1  0  0  0  0
 65 76  1  0  0  0  0
 67 68  1  0  0  0  0
M  CHG  1  76   1
M  ISO  4  38 100  62 101  70 100  83 101
M  END
> <Batch ID>
0141

> <Smiles>
CNC(C)C(=O)NC(C(=O)N1Cc2cc([101O:1][101CH2:1]COc3cc(C)c(C)c4c3CC(C)[100N:0]([100C:0](=O)N3CCCC(n5nc(-c6ccc(Oc7ccc(F)cc7F)cc6)c(C(N)=O)c5N)C3)C4)ccc2CC1C(=O)NC1CCCc2ccccc21)C(C)(C)C

> <Shape>
0.201

> <Color>
0.079

> <Negative vol penalty>
0.000

$$$$

  -OEChem-04052321163D

 85 94  0     1  0  0  0  0  0999 V2000
  -20.7049   -7.4843   25.1204 C   0  0  0  0  0  0  0  0  0  0  0  0
  -21.7544   -7.2866   24.2289 C   0  0  0  0  0  0  0  0  0  0  0  0
  -23.7346  -30.4693   21.1733 C   0  0  0  0  0  0  0  0  0  0  0  0
  -25.8168  -30.3969   22.3964 C   0  0  0  0  0  0  0  0  0  0  0  0
  -19.7709   -8.4921   24.8836 C   0  0  0  0  0  0  0  0  0  0  0  0
  -21.8699   -8.0960   23.0993 C   0  0  0  0  0  0  0  0  0  0  0  0
  -27.7868  -12.0419   21.9542 C   0  0  0  0  0  0  0  0  0  0  0  0
  -31.8951  -23.2334   22.2994 C   0  0  0  0  0  0  0  0  0  0  0  0
  -30.5601  -23.6363   22.2677 C   0  0  0  0  0  0  0  0  0  0  0  0
  -23.2158  -31.3639   22.1093 C   0  0  0  0  0  0  0  0  0  0  0  0
  -25.2981  -31.2916   23.3324 C   0  0  0  0  0  0  0  0  0  0  0  0
  -28.9713  -12.6630   21.5573 C   0  0  0  0  0  0  0  0  0  0  0  0
  -24.7613  -34.6201   23.5628 C   0  0  0  0  0  0  0  0  0  0  0  0
  -25.5751  -35.6792   23.9650 C   0  0  0  0  0  0  0  0  0  0  0  0
  -30.0181  -21.7315   20.8838 C   0  0  0  0  0  0  0  0  0  0  0  0
  -27.8666  -13.5374   19.5918 C   0  0  0  0  0  0  0  0  0  0  0  0
  -25.4644  -34.8970   26.2483 C   0  0  0  0  0  0  0  0  0  0  0  0
  -25.0351  -29.9857   21.3168 C   0  0  0  0  0  0  0  0  0  0  0  0
  -26.2746  -29.3756   19.1723 C   0  0  0  0  0  0  0  0  0  0  0  0
  -19.8806   -9.3205   23.7556 C   0  0  0  0  0  0  0  0  0  0  0  0
  -26.6324  -12.1792   21.1784 C   0  0  0  0  0  0  0  0  0  0  0  0
  -20.9358   -9.1150   22.8464 C   0  0  0  0  0  0  0  0  0  0  0  0
  -31.3531  -21.3286   20.9155 C   0  0  0  0  0  0  0  0  0  0  0  0
  -26.6741  -12.9279   19.9908 C   0  0  0  0  0  0  0  0  0  0  0  0
  -32.2916  -22.0796   21.6232 C   0  0  0  0  0  0  0  0  0  0  0  0
  -29.6216  -22.8853   21.5600 C   0  0  0  0  0  0  0  0  0  0  0  0
  -23.9976  -31.7751   23.1888 C   0  0  0  0  0  0  0  0  0  0  0  0
  -29.0111  -13.4087   20.3789 C   0  0  0  0  0  0  0  0  0  0  0  0
  -24.2990  -33.6995   24.5033 C   0  0  0  0  0  0  0  0  0  0  0  0
  -25.9267  -35.8176   25.3077 C   0  0  0  0  0  0  0  0  0  0  0  0
  -24.6506  -33.8380   25.8460 C   0  0  0  0  0  0  0  0  0  0  0  0
  -25.5713  -29.0611   20.3506 C   0  0  0  0  0  0  0  0  0  0  0  0
  -26.5638  -28.1566   18.6094 C   0  0  0  0  0  0  0  0  0  0  0  0
  -26.6343  -30.6552   18.6347 C   0  0  0  0  0  0  0  0  0  0  0  0
  -22.9963  -11.3576   20.7541 C   0  0  0  0  0  0  0  0  0  0  0  0
  -23.3497  -14.2903   19.9265 C   0  0  0  0  0  0  0  0  0  0  0  0
  -24.0857  -17.5948   19.5074 C   0  0  0  0  0  0  0  0  0  0  0  0
  -27.2078  -22.6644   20.8734 C   0  0  0  0  0  0  0  0  0  0  0  0
  -18.8201  -10.3659   23.5169 C   0  0  0  0  0  0  0  0  0  0  0  0
  -25.3505  -11.4769   21.5353 C   0  0  0  0  0  0  0  0  0  0  0  0
  -25.4169  -13.0195   19.1699 C   0  0  0  0  0  0  0  0  0  0  0  0
  -19.2266  -11.4234   22.4938 C   0  0  0  0  0  0  0  0  0  0  0  0
  -24.9137  -23.6688   18.3426 C   0  0  0  0  0  0  0  0  0  0  0  0
  -19.8379  -10.7659   21.2606 C   0  0  0  0  0  0  0  0  0  0  0  0
  -24.8906  -25.1946   18.4590 C   0  0  0  0  0  0  0  0  0  0  0  0
  -32.2217  -18.7670   20.9583 C   0  0  0  0  0  0  0  0  0  0  0  0
  -30.6767  -19.1008   19.5378 C   0  0  0  0  0  0  0  0  0  0  0  0
  -25.0379  -22.9976   19.7092 C   0  0  0  0  0  0  0  0  0  0  0  0
  -26.1375  -24.9923   20.6480 C   0  0  0  0  0  0  0  0  0  0  0  0
  -31.7816  -20.0151   20.1406 C   0  0  0  0  0  0  0  0  0  0  0  0
  -21.1091   -9.9885   21.6229 C   0  0  1  0  0  0  0  0  0  0  0  0
  -24.0954  -12.2901   21.1714 C   0  0  1  0  0  0  0  0  0  0  0  0
  -26.0788  -25.7143   19.2919 C   0  0  2  0  0  0  0  0  0  0  0  0
  -31.5809  -17.8909   19.8593 C   0  0  0  0  0  0  0  0  0  0  0  0
  -33.7254  -21.6659   21.6698 C   0  0  0  0  0  0  0  0  0  0  0  0
  -23.0291  -19.7850   18.8879 C   0  0  0  0  0  0  0  0  0  0  0  0
  -23.3227  -13.4442   16.9961 C   0  0  0  0  0  0  0  0  0  0  0  0
  -23.1963  -15.8655   16.3718 C   0  0  0  0  0  0  0  0  0  0  0  0
  -21.3604  -14.8247   17.7019 C   0  0  0  0  0  0  0  0  0  0  0  0
  -24.7553  -18.7920   22.1299 C   0  0  0  0  0  0  0  0  0  0  0  0
  -31.0554  -14.4296   21.0392 C   0  0  0  0  0  0  0  0  0  1  0  0
  -31.8243  -15.6523   20.5774 C   0  0  0  0  0  0  0  0  0  0  0  0
  -23.5922  -15.2675   18.8042 C   0  0  1  0  0  0  0  0  0  0  0  0
  -23.4100  -18.8512   20.0262 C   0  0  2  0  0  0  0  0  0  0  0  0
  -22.8892  -14.8408   17.4847 C   0  0  0  0  0  0  0  0  0  0  0  0
  -25.4227  -27.7455   20.5268 N   0  0  0  0  0  0  0  0  0  0  0  0
  -26.0365  -27.2225   19.4517 N   0  0  0  0  0  0  0  0  0  0  0  0
  -24.2567  -13.2308   20.0498 N   0  0  0  0  0  0  0  0  0  0  0  0
  -26.1873  -23.5367   20.4393 N   0  0  0  0  0  0  0  0  0  0  0  0
  -27.2152  -27.8034   17.4810 N   0  0  0  0  0  0  0  0  0  0  0  0
  -26.2586  -31.8061   19.3409 N   0  0  0  0  0  0  0  0  0  0  0  0
  -28.2655  -23.2949   21.5280 N   0  0  0  0  0  0  0  0  0  0  0  0
  -22.2226  -10.8955   21.8016 N   0  0  0  0  0  0  0  0  0  0  0  0
  -23.1806  -16.5745   19.3049 N   0  0  0  0  0  0  0  0  0  0  0  0
  -24.3198  -19.5845   20.9512 N   0  3  0  0  0  0  0  0  0  0  0  0
  -27.2557  -30.7749   17.5517 O   0  0  0  0  0  0  0  0  0  0  0  0
  -22.8584  -11.0783   19.5690 O   0  0  0  0  0  0  0  0  0  0  0  0
  -22.3799  -14.4562   20.6717 O   0  0  0  0  0  0  0  0  0  0  0  0
  -25.2950  -17.5265   19.2988 O   0  0  0  0  0  0  0  0  0  0  0  0
  -27.1610  -21.4511   20.6548 O   0  0  0  0  0  0  0  0  0  0  0  0
  -23.4918  -32.6482   24.1022 O   0  0  0  0  0  0  0  0  0  0  0  0
  -30.1695  -14.0162   19.9997 O   0  0  0  0  0  0  0  0  0  1  0  0
  -30.9057  -16.7044   20.3078 O   0  0  0  0  0  0  0  0  0  0  0  0
  -26.7094  -36.8337   25.6936 F   0  0  0  0  0  0  0  0  0  0  0  0
  -24.2105  -32.9560   26.7539 F   0  0  0  0  0  0  0  0  0  0  0  0
  1  2  1  0  0  0  0
  1  5  2  0  0  0  0
  2  6  2  0  0  0  0
  3 10  2  0  0  0  0
  3 18  1  0  0  0  0
  4 11  1  0  0  0  0
  4 18  2  0  0  0  0
  5 20  1  0  0  0  0
  6 22  1  0  0  0  0
  7 12  2  0  0  0  0
  7 21  1  0  0  0  0
  8  9  2  0  0  0  0
  8 25  1  0  0  0  0
  9 26  1  0  0  0  0
 10 27  1  0  0  0  0
 11 27  2  0  0  0  0
 12 28  1  0  0  0  0
 13 14  2  0  0  0  0
 13 29  1  0  0  0  0
 14 30  1  0  0  0  0
 15 23  1  0  0  0  0
 15 26  2  0  0  0  0
 16 24  1  0  0  0  0
 16 28  2  0  0  0  0
 17 30  2  0  0  0  0
 17 31  1  0  0  0  0
 18 32  1  0  0  0  0
 19 32  1  0  0  0  0
 19 33  2  0  0  0  0
 19 34  1  0  0  0  0
 20 22  2  0  0  0  0
 20 39  1  0  0  0  0
 21 24  2  0  0  0  0
 21 40  1  0  0  0  0
 22 51  1  0  0  0  0
 23 25  2  0  0  0  0
 23 50  1  0  0  0  0
 24 41  1  0  0  0  0
 25 55  1  0  0  0  0
 26 72  1  0  0  0  0
 27 81  1  0  0  0  0
 28 82  1  0  0  0  0
 29 31  2  0  0  0  0
 29 81  1  0  0  0  0
 30 84  1  0  0  0  0
 31 85  1  0  0  0  0
 32 66  2  0  0  0  0
 33 67  1  0  0  0  0
 33 70  1  0  0  0  0
 34 71  1  0  0  0  0
 34 76  2  0  0  0  0
 35 52  1  0  0  0  0
 35 73  1  0  0  0  0
 35 77  2  0  0  0  0
 36 63  1  0  0  0  0
 36 68  1  0  0  0  0
 36 78  2  0  0  0  0
 37 64  1  0  0  0  0
 37 74  1  0  0  0  0
 37 79  2  0  0  0  0
 38 69  1  0  0  0  0
 38 72  1  0  0  0  0
 38 80  2  0  0  0  0
 39 42  1  0  0  0  0
 40 52  1  0  0  0  0
 41 68  1  0  0  0  0
 42 44  1  0  0  0  0
 43 45  1  0  0  0  0
 43 48  1  0  0  0  0
 44 51  1  0  0  0  0
 45 53  1  0  0  0  0
 46 50  1  0  0  0  0
 46 54  1  0  0  0  0
 47 50  1  0  0  0  0
 47 54  1  0  0  0  0
 48 69  1  0  0  0  0
 49 53  1  0  0  0  0
 49 69  1  0  0  0  0
 51 73  1  0  0  0  0
 52 68  1  0  0  0  0
 53 67  1  0  0  0  0
 54 83  1  0  0  0  0
 56 64  1  0  0  0  0
 57 65  1  0  0  0  0
 58 65  1  0  0  0  0
 59 65  1  0  0  0  0
 60 75  1  0  0  0  0
 61 62  1  0  0  0  0
 61 82  1  0  0  0  0
 62 83  1  0  0  0  0
 63 65  1  0  0  0  0
 63 74  1  0  0  0  0
 64 75  1  0  0  0  0
 66 67  1  0  0  0  0
M  CHG  1  75   1
M  ISO  4  38 100  61 101  72 100  82 101
M  END
> <Batch ID>
0141

> <Smiles>
CNC(C)C(=O)NC(C(=O)N1Cc2cc([101O:1][101CH2:1]COC3CC(c4cc([100NH:0][100C:0](=O)N5CCCC(n6nc(-c7ccc(Oc8ccc(F)cc8F)cc7)c(C(N)=O)c6N)C5)ccc4C)C3)ccc2CC1C(=O)NC1CCCc2ccccc21)C(C)(C)C

> <Shape>
0.232

> <Color>
0.075

> <Negative vol penalty>
0.000

$$$$

  -OEChem-04052321163D

 86 95  0     1  0  0  0  0  0999 V2000
  -32.4941  -12.7393   20.9098 C   0  0  0  0  0  0  0  0  0  0  0  0
  -31.9525  -13.9478   21.3358 C   0  0  0  0  0  0  0  0  0  0  0  0
  -25.3166  -30.0072   22.0510 C   0  0  0  0  0  0  0  0  0  0  0  0
  -23.8027  -31.2268   20.6165 C   0  0  0  0  0  0  0  0  0  0  0  0
  -31.7299  -11.8694   20.1332 C   0  0  0  0  0  0  0  0  0  0  0  0
  -30.6465  -14.2877   20.9845 C   0  0  0  0  0  0  0  0  0  0  0  0
  -26.6236  -17.4308   24.3672 C   0  0  0  0  0  0  0  0  0  0  0  0
  -25.4702  -29.0352   21.0625 C   0  0  0  0  0  0  0  0  0  0  0  0
  -23.9563  -30.2547   19.6280 C   0  0  0  0  0  0  0  0  0  0  0  0
  -26.2398  -18.7711   24.3636 C   0  0  0  0  0  0  0  0  0  0  0  0
  -27.1936  -28.6678   18.1766 C   0  0  0  0  0  0  0  0  0  0  0  0
  -28.4862  -28.2217   17.9014 C   0  0  0  0  0  0  0  0  0  0  0  0
  -24.3555  -18.2215   22.9612 C   0  0  0  0  0  0  0  0  0  0  0  0
  -27.8377  -25.9728   18.5009 C   0  0  0  0  0  0  0  0  0  0  0  0
  -23.2258  -26.0559   21.6525 C   0  0  0  0  0  0  0  0  0  0  0  0
  -24.4828  -31.1030   21.8280 C   0  0  0  0  0  0  0  0  0  0  0  0
  -25.0950  -33.2715   23.0241 C   0  0  0  0  0  0  0  0  0  0  0  0
  -30.4106  -12.1944   19.7803 C   0  0  0  0  0  0  0  0  0  0  0  0
  -25.8811  -16.4759   23.6577 C   0  0  0  0  0  0  0  0  0  0  0  0
  -29.8644  -13.4219   20.2013 C   0  0  0  0  0  0  0  0  0  0  0  0
  -24.7305  -16.8693   22.9595 C   0  0  0  0  0  0  0  0  0  0  0  0
  -22.0482  -26.2548   23.7093 C   0  0  0  0  0  0  0  0  0  0  0  0
  -22.3356  -26.7608   22.4465 C   0  0  0  0  0  0  0  0  0  0  0  0
  -22.6514  -25.0760   24.1336 C   0  0  0  0  0  0  0  0  0  0  0  0
  -24.7901  -29.1589   19.8510 C   0  0  0  0  0  0  0  0  0  0  0  0
  -25.1073  -19.1671   23.6582 C   0  0  0  0  0  0  0  0  0  0  0  0
  -26.2230  -27.7664   18.6140 C   0  0  0  0  0  0  0  0  0  0  0  0
  -28.8082  -26.8742   18.0635 C   0  0  0  0  0  0  0  0  0  0  0  0
  -26.5450  -26.4190   18.7761 C   0  0  0  0  0  0  0  0  0  0  0  0
  -24.3233  -32.1071   22.8490 C   0  0  0  0  0  0  0  0  0  0  0  0
  -23.5273  -24.4464   23.2640 C   0  0  0  0  0  0  0  0  0  0  0  0
  -24.5461  -33.8850   24.1236 C   0  0  0  0  0  0  0  0  0  0  0  0
  -26.2083  -33.7552   22.2611 C   0  0  0  0  0  0  0  0  0  0  0  0
  -26.4879  -14.5107   21.2341 C   0  0  0  0  0  0  0  0  0  0  0  0
  -23.5116  -13.4036   21.8960 C   0  0  0  0  0  0  0  0  0  0  0  0
  -20.4353  -13.9946   23.2502 C   0  0  0  0  0  0  0  0  0  0  0  0
  -20.1341  -30.5759   25.0186 C   0  0  0  0  0  0  0  0  0  0  0  0
  -29.6394  -11.2434   18.8996 C   0  0  0  0  0  0  0  0  0  0  0  0
  -26.2932  -15.0298   23.6935 C   0  0  0  0  0  0  0  0  0  0  0  0
  -23.8876  -15.8800   22.1986 C   0  0  0  0  0  0  0  0  0  0  0  0
  -28.1364  -11.5098   18.8850 C   0  0  0  0  0  0  0  0  0  0  0  0
  -23.0503  -31.2770   27.1916 C   0  0  0  0  0  0  0  0  0  0  0  0
  -27.8599  -12.9987   18.7017 C   0  0  0  0  0  0  0  0  0  0  0  0
  -23.1949  -32.7909   27.0269 C   0  0  0  0  0  0  0  0  0  0  0  0
  -19.6762  -27.1535   24.0340 C   0  0  0  0  0  0  0  0  0  0  0  0
  -21.5944  -30.8637   27.0446 C   0  0  0  0  0  0  0  0  0  0  0  0
  -19.1171  -28.3164   24.8368 C   0  0  0  0  0  0  0  0  0  0  0  0
  -21.5124  -28.4192   24.9599 C   0  0  0  0  0  0  0  0  0  0  0  0
  -21.1384  -32.7719   25.5465 C   0  0  0  0  0  0  0  0  0  0  0  0
  -21.0854  -26.9846   24.6129 C   0  0  2  0  0  0  0  0  0  0  0  0
  -28.4430  -13.8150   19.8615 C   0  0  1  0  0  0  0  0  0  0  0  0
  -25.7546  -14.2256   22.5143 C   0  0  1  0  0  0  0  0  0  0  0  0
  -22.5792  -33.3059   25.7061 C   0  0  2  0  0  0  0  0  0  0  0  0
  -21.7194  -28.0187   21.9397 C   0  0  0  0  0  0  0  0  0  0  0  0
  -22.3565  -24.5152   25.4859 C   0  0  0  0  0  0  0  0  0  0  0  0
  -18.1990  -12.9131   23.6066 C   0  0  0  0  0  0  0  0  0  0  0  0
  -22.8218  -13.8680   18.9602 C   0  0  0  0  0  0  0  0  0  0  0  0
  -20.4008  -13.6913   19.5732 C   0  0  0  0  0  0  0  0  0  0  0  0
  -21.9189  -11.7426   19.9203 C   0  0  0  0  0  0  0  0  0  0  0  0
  -20.6801  -14.1898   26.1932 C   0  0  0  0  0  0  0  0  0  0  0  0
  -25.3388  -22.7391   23.0931 C   0  0  0  0  0  0  0  0  0  0  0  0
  -25.7648  -21.4497   23.7751 C   0  0  0  0  0  0  0  0  0  1  0  0
  -22.1152  -13.7530   21.4408 C   0  0  1  0  0  0  0  0  0  0  0  0
  -19.5765  -13.1743   24.1958 C   0  0  2  0  0  0  0  0  0  0  0  0
  -21.8310  -13.2829   19.9863 C   0  0  0  0  0  0  0  0  0  0  0  0
  -23.8312  -24.9076   22.0301 N   0  0  0  0  0  0  0  0  0  0  0  0
  -23.3579  -31.9859   23.7640 N   0  0  0  0  0  0  0  0  0  0  0  0
  -23.5193  -33.0819   24.5248 N   0  0  0  0  0  0  0  0  0  0  0  0
  -24.3352  -14.4787   22.2588 N   0  0  0  0  0  0  0  0  0  0  0  0
  -21.0484  -31.3260   25.7692 N   0  0  0  0  0  0  0  0  0  0  0  0
  -20.2654  -29.1846   25.0659 N   0  0  0  0  0  0  0  0  0  0  0  0
  -24.8465  -35.0276   24.7767 N   0  0  0  0  0  0  0  0  0  0  0  0
  -26.6433  -33.0015   21.1625 N   0  0  0  0  0  0  0  0  0  0  0  0
  -24.1458  -23.2442   23.6899 N   0  0  0  0  0  0  0  0  0  0  0  0
  -27.5954  -13.7100   21.0298 N   0  0  0  0  0  0  0  0  0  0  0  0
  -21.2089  -13.1931   22.4376 N   0  0  0  0  0  0  0  0  0  0  0  0
  -19.4053  -13.8893   25.4921 N   0  3  0  0  0  0  0  0  0  0  0  0
  -26.8102  -34.8158   22.5550 O   0  0  0  0  0  0  0  0  0  0  0  0
  -26.0783  -15.3910   20.4864 O   0  0  0  0  0  0  0  0  0  0  0  0
  -23.8564  -12.2199   21.9352 O   0  0  0  0  0  0  0  0  0  0  0  0
  -20.4185  -15.2234   23.2316 O   0  0  0  0  0  0  0  0  0  0  0  0
  -19.2936  -31.1262   24.2964 O   0  0  0  0  0  0  0  0  0  0  0  0
  -24.9399  -28.2107   18.8861 O   0  0  0  0  0  0  0  0  0  0  0  0
  -24.7282  -20.4840   23.6524 O   0  0  0  0  0  0  0  0  0  1  0  0
  -30.0491  -26.4457   17.7978 F   0  0  0  0  0  0  0  0  0  0  0  0
  -25.6166  -25.5481   19.1949 F   0  0  0  0  0  0  0  0  0  0  0  0
  1  2  1  0  0  0  0
  1  5  2  0  0  0  0
  2  6  2  0  0  0  0
  3  8  2  0  0  0  0
  3 16  1  0  0  0  0
  4  9  1  0  0  0  0
  4 16  2  0  0  0  0
  5 18  1  0  0  0  0
  6 20  1  0  0  0  0
  7 10  2  0  0  0  0
  7 19  1  0  0  0  0
  8 25  1  0  0  0  0
  9 25  2  0  0  0  0
 10 26  1  0  0  0  0
 11 12  2  0  0  0  0
 11 27  1  0  0  0  0
 12 28  1  0  0  0  0
 13 21  1  0  0  0  0
 13 26  2  0  0  0  0
 14 28  2  0  0  0  0
 14 29  1  0  0  0  0
 15 23  1  0  0  0  0
 15 66  2  0  0  0  0
 16 30  1  0  0  0  0
 17 30  1  0  0  0  0
 17 32  2  0  0  0  0
 17 33  1  0  0  0  0
 18 20  2  0  0  0  0
 18 38  1  0  0  0  0
 19 21  2  0  0  0  0
 19 39  1  0  0  0  0
 20 51  1  0  0  0  0
 21 40  1  0  0  0  0
 22 23  2  0  0  0  0
 22 24  1  0  0  0  0
 22 50  1  0  0  0  0
 23 54  1  0  0  0  0
 24 31  2  0  0  0  0
 24 55  1  0  0  0  0
 25 83  1  0  0  0  0
 26 84  1  0  0  0  0
 27 29  2  0  0  0  0
 27 83  1  0  0  0  0
 28 85  1  0  0  0  0
 29 86  1  0  0  0  0
 30 67  2  0  0  0  0
 31 66  1  0  0  0  0
 31 74  1  0  0  0  0
 32 68  1  0  0  0  0
 32 72  1  0  0  0  0
 33 73  1  0  0  0  0
 33 78  2  0  0  0  0
 34 52  1  0  0  0  0
 34 75  1  0  0  0  0
 34 79  2  0  0  0  0
 35 63  1  0  0  0  0
 35 69  1  0  0  0  0
 35 80  2  0  0  0  0
 36 64  1  0  0  0  0
 36 76  1  0  0  0  0
 36 81  2  0  0  0  0
 37 70  1  0  0  0  0
 37 71  1  0  0  0  0
 37 82  2  0  0  0  0
 38 41  1  0  0  0  0
 39 52  1  0  0  0  0
 40 69  1  0  0  0  0
 41 43  1  0  0  0  0
 42 44  1  0  0  0  0
 42 46  1  0  0  0  0
 43 51  1  0  0  0  0
 44 53  1  0  0  0  0
 45 47  1  0  0  0  0
 45 50  1  0  0  0  0
 46 70  1  0  0  0  0
 47 71  1  0  0  0  0
 48 50  1  0  0  0  0
 48 71  1  0  0  0  0
 49 53  1  0  0  0  0
 49 70  1  0  0  0  0
 51 75  1  0  0  0  0
 52 69  1  0  0  0  0
 53 68  1  0  0  0  0
 56 64  1  0  0  0  0
 57 65  1  0  0  0  0
 58 65  1  0  0  0  0
 59 65  1  0  0  0  0
 60 77  1  0  0  0  0
 61 62  1  0  0  0  0
 61 74  1  0  0  0  0
 62 84  1  0  0  0  0
 63 65  1  0  0  0  0
 63 76  1  0  0  0  0
 64 77  1  0  0  0  0
 67 68  1  0  0  0  0
M  CHG  1  77   1
M  ISO  4  37 100  62 101  71 100  84 101
M  END
> <Batch ID>
0141

> <Smiles>
CNC(C)C(=O)NC(C(=O)N1Cc2cc([101O:1][101CH2:1]CNc3ncc(C)c(C4CC[100N:0]([100C:0](=O)N5CCCC(n6nc(-c7ccc(Oc8ccc(F)cc8F)cc7)c(C(N)=O)c6N)C5)C4)c3C)ccc2CC1C(=O)NC1CCCc2ccccc21)C(C)(C)C

> <Shape>
0.214

> <Color>
0.094

> <Negative vol penalty>
0.000

$$$$

  -OEChem-04052321163D

 88 97  0     1  0  0  0  0  0999 V2000
  -16.8589  -28.8834   24.2654 C   0  0  0  0  0  0  0  0  0  0  0  0
  -17.4841  -27.9120   23.4902 C   0  0  0  0  0  0  0  0  0  0  0  0
  -25.0424  -11.3967   23.1469 C   0  0  0  0  0  0  0  0  0  0  0  0
  -25.0145  -13.6182   24.0963 C   0  0  0  0  0  0  0  0  0  0  0  0
  -17.3111  -30.2017   24.2269 C   0  0  0  0  0  0  0  0  0  0  0  0
  -18.5611  -28.2586   22.6751 C   0  0  0  0  0  0  0  0  0  0  0  0
  -22.3819  -24.9503   22.9934 C   0  0  0  0  0  0  0  0  0  0  0  0
  -24.9453  -10.8488   24.4259 C   0  0  0  0  0  0  0  0  0  0  0  0
  -24.9173  -13.0703   25.3754 C   0  0  0  0  0  0  0  0  0  0  0  0
  -22.2469  -23.7524   22.2931 C   0  0  0  0  0  0  0  0  0  0  0  0
  -22.5301  -10.3200   26.7325 C   0  0  0  0  0  0  0  0  0  0  0  0
  -21.6223   -9.2785   26.9243 C   0  0  0  0  0  0  0  0  0  0  0  0
  -23.6426  -24.6311   20.5327 C   0  0  0  0  0  0  0  0  0  0  0  0
  -23.4301   -7.8290   27.6086 C   0  0  0  0  0  0  0  0  0  0  0  0
  -29.3890  -21.2875   20.1665 C   0  0  0  0  0  0  0  0  0  0  0  0
  -25.0771  -12.7814   22.9821 C   0  0  0  0  0  0  0  0  0  0  0  0
  -24.1182  -13.7010   20.8043 C   0  0  0  0  0  0  0  0  0  0  0  0
  -18.4003  -30.5628   23.4184 C   0  0  0  0  0  0  0  0  0  0  0  0
  -23.1407  -26.0034   22.4626 C   0  0  0  0  0  0  0  0  0  0  0  0
  -19.0274  -29.5833   22.6248 C   0  0  0  0  0  0  0  0  0  0  0  0
  -23.7878  -25.8404   21.2294 C   0  0  0  0  0  0  0  0  0  0  0  0
  -31.2189  -19.4068   19.4183 C   0  0  0  0  0  0  0  0  0  0  0  0
  -28.9729  -19.9695   20.0689 C   0  0  0  0  0  0  0  0  0  0  0  0
  -29.9114  -19.0173   19.6870 C   0  0  0  0  0  0  0  0  0  0  0  0
  -24.8827  -11.6856   25.5402 C   0  0  0  0  0  0  0  0  0  0  0  0
  -22.8749  -23.5936   21.0612 C   0  0  0  0  0  0  0  0  0  0  0  0
  -23.8878  -10.1161   26.9786 C   0  0  0  0  0  0  0  0  0  0  0  0
  -22.0723   -8.0330   27.3624 C   0  0  0  0  0  0  0  0  0  0  0  0
  -24.3378   -8.8706   27.4167 C   0  0  0  0  0  0  0  0  0  0  0  0
  -25.1780  -13.3480   21.6611 C   0  0  0  0  0  0  0  0  0  0  0  0
  -31.5344  -20.7500   19.5449 C   0  0  0  0  0  0  0  0  0  0  0  0
  -24.7350  -14.1906   19.6790 C   0  0  0  0  0  0  0  0  0  0  0  0
  -22.7028  -13.5959   21.0075 C   0  0  0  0  0  0  0  0  0  0  0  0
  -22.5152  -28.9867   21.5611 C   0  0  0  0  0  0  0  0  0  0  0  0
  -25.7335  -29.1330   21.1815 C   0  0  0  0  0  0  0  0  0  0  0  0
  -28.6663  -27.4715   20.6481 C   0  0  0  0  0  0  0  0  0  0  0  0
  -30.0715  -16.6995   18.7131 C   0  0  0  0  0  0  0  0  0  0  0  0
  -18.8232  -32.0099   23.3739 C   0  0  0  0  0  0  0  0  0  0  0  0
  -23.2985  -27.2796   23.2429 C   0  0  0  0  0  0  0  0  0  0  0  0
  -24.6304  -26.9331   20.6255 C   0  0  0  0  0  0  0  0  0  0  0  0
  -20.2086  -32.2212   22.7689 C   0  0  0  0  0  0  0  0  0  0  0  0
  -28.7770  -13.7773   17.1440 C   0  0  0  0  0  0  0  0  0  0  0  0
  -32.5164  -17.2225   19.8865 C   0  0  0  0  0  0  0  0  0  0  0  0
  -33.5318  -18.3187   19.7990 C   0  0  0  0  0  0  0  0  0  0  0  0
  -20.3565  -31.4188   21.4801 C   0  0  0  0  0  0  0  0  0  0  0  0
  -27.6069  -13.3712   18.0430 C   0  0  0  0  0  0  0  0  0  0  0  0
  -29.9459  -14.3371   17.9528 C   0  0  0  0  0  0  0  0  0  0  0  0
  -28.4292  -15.0247   19.7683 C   0  0  0  0  0  0  0  0  0  0  0  0
  -32.2563  -18.4149   19.0055 C   0  0  0  0  0  0  0  0  0  0  0  0
  -20.2144  -29.9154   21.7469 C   0  0  1  0  0  0  0  0  0  0  0  0
  -23.6733  -28.4721   22.3684 C   0  0  1  0  0  0  0  0  0  0  0  0
  -27.2029  -14.5153   18.9934 C   0  0  2  0  0  0  0  0  0  0  0  0
  -31.1265  -27.8645   20.3475 C   0  0  0  0  0  0  0  0  0  0  0  0
  -25.2277  -30.1051   18.3338 C   0  0  0  0  0  0  0  0  0  0  0  0
  -27.6152  -29.5709   17.8018 C   0  0  0  0  0  0  0  0  0  0  0  0
  -27.0783  -31.2903   19.5276 C   0  0  0  0  0  0  0  0  0  0  0  0
  -29.3334  -25.8654   23.0427 C   0  0  0  0  0  0  0  0  0  0  0  0
  -33.0634  -22.5684   19.4393 C   0  0  0  0  0  0  0  0  0  0  0  0
  -27.5405  -19.6102   20.3736 C   0  0  0  0  0  0  0  0  0  0  0  0
  -26.6677  -19.4243   19.1254 C   0  0  0  0  0  0  0  0  0  0  0  0
  -25.1981  -19.1151   19.3942 C   0  0  0  0  0  0  0  0  0  0  0  0
  -23.0979  -20.0470   20.3737 C   0  0  0  0  0  0  0  0  0  0  0  0
  -22.5624  -21.2375   21.1445 C   0  0  0  0  0  0  0  0  0  1  0  0
  -26.6905  -28.8471   20.0495 C   0  0  1  0  0  0  0  0  0  0  0  0
  -30.0147  -27.5607   21.3396 C   0  0  2  0  0  0  0  0  0  0  0  0
  -26.6355  -29.9333   18.9384 C   0  0  0  0  0  0  0  0  0  0  0  0
  -30.6500  -21.7038   19.9135 N   0  0  0  0  0  0  0  0  0  0  0  0
  -26.3771  -13.5923   21.1259 N   0  0  0  0  0  0  0  0  0  0  0  0
  -26.0746  -14.1041   19.9206 N   0  0  0  0  0  0  0  0  0  0  0  0
  -24.7491  -28.1644   21.4238 N   0  0  0  0  0  0  0  0  0  0  0  0
  -29.4888  -15.4196   18.8269 N   0  0  0  0  0  0  0  0  0  0  0  0
  -24.2568  -14.6823   18.5163 N   0  0  0  0  0  0  0  0  0  0  0  0
  -22.2393  -13.0705   22.2214 N   0  0  0  0  0  0  0  0  0  0  0  0
  -29.5337  -17.6564   19.5732 N   0  0  0  0  0  0  0  0  0  0  0  0
  -21.4330  -29.3867   22.3214 N   0  0  0  0  0  0  0  0  0  0  0  0
  -28.0057  -28.6817   20.6589 N   0  0  0  0  0  0  0  0  0  0  0  0
  -30.3327  -26.2748   22.0225 N   0  3  0  0  0  0  0  0  0  0  0  0
  -24.5486  -20.2383   20.1224 N   0  3  0  0  0  0  0  0  0  0  0  0
  -21.8739  -13.9419   20.1319 O   0  0  0  0  0  0  0  0  0  0  0  0
  -22.5980  -29.0197   20.3389 O   0  0  0  0  0  0  0  0  0  0  0  0
  -25.8592  -30.1738   21.8315 O   0  0  0  0  0  0  0  0  0  0  0  0
  -28.2431  -26.4330   20.1450 O   0  0  0  0  0  0  0  0  0  0  0  0
  -30.9618  -16.9366   17.8927 O   0  0  0  0  0  0  0  0  0  0  0  0
  -24.7877  -11.1513   26.7884 O   0  0  0  0  0  0  0  0  0  0  0  0
  -22.7442  -22.4256   20.3753 O   0  0  0  0  0  0  0  0  0  1  0  0
  -32.8118  -21.1765   19.2892 O   0  0  0  0  0  0  0  0  0  0  0  0
  -21.2003   -7.0333   27.5481 F   0  0  0  0  0  0  0  0  0  0  0  0
  -25.6409   -8.6690   27.6560 F   0  0  0  0  0  0  0  0  0  0  0  0
  1  2  1  0  0  0  0
  1  5  2  0  0  0  0
  2  6  2  0  0  0  0
  3  8  2  0  0  0  0
  3 16  1  0  0  0  0
  4  9  1  0  0  0  0
  4 16  2  0  0  0  0
  5 18  1  0  0  0  0
  6 20  1  0  0  0  0
  7 10  2  0  0  0  0
  7 19  1  0  0  0  0
  8 25  1  0  0  0  0
  9 25  2  0  0  0  0
 10 26  1  0  0  0  0
 11 12  2  0  0  0  0
 11 27  1  0  0  0  0
 12 28  1  0  0  0  0
 13 21  1  0  0  0  0
 13 26  2  0  0  0  0
 14 28  2  0  0  0  0
 14 29  1  0  0  0  0
 15 23  1  0  0  0  0
 15 67  2  0  0  0  0
 16 30  1  0  0  0  0
 17 30  1  0  0  0  0
 17 32  2  0  0  0  0
 17 33  1  0  0  0  0
 18 20  2  0  0  0  0
 18 38  1  0  0  0  0
 19 21  2  0  0  0  0
 19 39  1  0  0  0  0
 20 50  1  0  0  0  0
 21 40  1  0  0  0  0
 22 24  1  0  0  0  0
 22 31  2  0  0  0  0
 22 49  1  0  0  0  0
 23 24  2  0  0  0  0
 23 59  1  0  0  0  0
 24 74  1  0  0  0  0
 25 84  1  0  0  0  0
 26 85  1  0  0  0  0
 27 29  2  0  0  0  0
 27 84  1  0  0  0  0
 28 87  1  0  0  0  0
 29 88  1  0  0  0  0
 30 68  2  0  0  0  0
 31 67  1  0  0  0  0
 31 86  1  0  0  0  0
 32 69  1  0  0  0  0
 32 72  1  0  0  0  0
 33 73  1  0  0  0  0
 33 79  2  0  0  0  0
 34 51  1  0  0  0  0
 34 75  1  0  0  0  0
 34 80  2  0  0  0  0
 35 64  1  0  0  0  0
 35 70  1  0  0  0  0
 35 81  2  0  0  0  0
 36 65  1  0  0  0  0
 36 76  1  0  0  0  0
 36 82  2  0  0  0  0
 37 71  1  0  0  0  0
 37 74  1  0  0  0  0
 37 83  2  0  0  0  0
 38 41  1  0  0  0  0
 39 51  1  0  0  0  0
 40 70  1  0  0  0  0
 41 45  1  0  0  0  0
 42 46  1  0  0  0  0
 42 47  1  0  0  0  0
 43 44  1  0  0  0  0
 43 49  1  0  0  0  0
 44 49  1  0  0  0  0
 45 50  1  0  0  0  0
 46 52  1  0  0  0  0
 47 71  1  0  0  0  0
 48 52  1  0  0  0  0
 48 71  1  0  0  0  0
 50 75  1  0  0  0  0
 51 70  1  0  0  0  0
 52 69  1  0  0  0  0
 53 65  1  0  0  0  0
 54 66  1  0  0  0  0
 55 66  1  0  0  0  0
 56 66  1  0  0  0  0
 57 77  1  0  0  0  0
 58 86  1  0  0  0  0
 59 60  1  0  0  0  0
 60 61  1  0  0  0  0
 61 78  1  0  0  0  0
 62 63  1  0  0  0  0
 62 78  1  0  0  0  0
 63 85  1  0  0  0  0
 64 66  1  0  0  0  0
 64 76  1  0  0  0  0
 65 77  1  0  0  0  0
 68 69  1  0  0  0  0
M  CHG  2  77   1  78   1
M  ISO  4  37 100  63 101  74 100  85 101
M  END
> <Batch ID>
0141

> <Smiles>
CNC(C)C(=O)NC(C(=O)N1Cc2cc([101O:1][101CH2:1]CNCCCc3cnc(OC)c(C4CC4)c3[100NH:0][100C:0](=O)N3CCCC(n4nc(-c5ccc(Oc6ccc(F)cc6F)cc5)c(C(N)=O)c4N)C3)ccc2CC1C(=O)NC1CCCc2ccccc21)C(C)(C)C

> <Shape>
0.211

> <Color>
0.083

> <Negative vol penalty>
0.000

$$$$

  -OEChem-04052321163D

 90101  0     1  0  0  0  0  0999 V2000
  -17.5433  -31.5785   24.3429 C   0  0  0  0  0  0  0  0  0  0  0  0
  -18.6904  -31.9949   23.6749 C   0  0  0  0  0  0  0  0  0  0  0  0
  -23.6742   -9.8469   22.6344 C   0  0  0  0  0  0  0  0  0  0  0  0
  -24.0658   -9.5739   20.2661 C   0  0  0  0  0  0  0  0  0  0  0  0
  -17.5243  -30.3436   24.9899 C   0  0  0  0  0  0  0  0  0  0  0  0
  -19.8196  -31.1770   23.6544 C   0  0  0  0  0  0  0  0  0  0  0  0
  -29.4360  -25.0419   18.2438 C   0  0  0  0  0  0  0  0  0  0  0  0
  -30.9091  -25.1655   20.1546 C   0  0  0  0  0  0  0  0  0  0  0  0
  -25.3604  -29.4135   19.4704 C   0  0  0  0  0  0  0  0  0  0  0  0
  -22.7145   -8.8356   22.5924 C   0  0  0  0  0  0  0  0  0  0  0  0
  -23.1061   -8.5625   20.2240 C   0  0  0  0  0  0  0  0  0  0  0  0
  -28.8579  -26.2571   18.6108 C   0  0  0  0  0  0  0  0  0  0  0  0
  -30.3310  -26.3807   20.5217 C   0  0  0  0  0  0  0  0  0  0  0  0
  -26.7512  -29.3226   19.5064 C   0  0  0  0  0  0  0  0  0  0  0  0
  -22.6593   -5.4556   22.5159 C   0  0  0  0  0  0  0  0  0  0  0  0
  -22.6909   -4.4899   23.5218 C   0  0  0  0  0  0  0  0  0  0  0  0
  -26.5766  -27.1753   20.5916 C   0  0  0  0  0  0  0  0  0  0  0  0
  -20.4523   -5.1094   24.1868 C   0  0  0  0  0  0  0  0  0  0  0  0
  -24.3498  -10.2161   21.4713 C   0  0  0  0  0  0  0  0  0  0  0  0
  -26.7196  -11.1158   21.7585 C   0  0  0  0  0  0  0  0  0  0  0  0
  -30.4616  -24.4961   19.0157 C   0  0  0  0  0  0  0  0  0  0  0  0
  -18.6506  -29.5059   24.9691 C   0  0  0  0  0  0  0  0  0  0  0  0
  -24.5660  -28.3893   20.0054 C   0  0  0  0  0  0  0  0  0  0  0  0
  -19.8161  -29.9303   24.3028 C   0  0  0  0  0  0  0  0  0  0  0  0
  -25.1760  -27.2544   20.5588 C   0  0  0  0  0  0  0  0  0  0  0  0
  -22.4305   -8.1933   21.3872 C   0  0  0  0  0  0  0  0  0  0  0  0
  -29.3054  -26.9265   19.7498 C   0  0  0  0  0  0  0  0  0  1  0  0
  -27.3595  -28.2047   20.0697 C   0  0  0  0  0  0  0  0  0  0  0  0
  -21.5243   -6.2484   22.3455 C   0  0  0  0  0  0  0  0  0  0  0  0
  -21.5874   -4.3167   24.3573 C   0  0  0  0  0  0  0  0  0  0  0  0
  -20.4208   -6.0752   23.1809 C   0  0  0  0  0  0  0  0  0  0  0  0
  -25.3408  -11.2612   21.5139 C   0  0  0  0  0  0  0  0  0  0  0  0
  -27.2167  -12.3944   21.6924 C   0  0  0  0  0  0  0  0  0  0  0  0
  -27.4827   -9.9309   22.0217 C   0  0  0  0  0  0  0  0  0  0  0  0
  -22.4376  -28.1982   22.3585 C   0  0  0  0  0  0  0  0  0  0  0  0
  -22.0231  -25.1910   21.2149 C   0  0  0  0  0  0  0  0  0  0  0  0
  -23.3101  -22.5472   19.4826 C   0  0  0  0  0  0  0  0  0  0  0  0
  -27.5607  -17.2399   19.1724 C   0  0  0  0  0  0  0  0  0  0  0  0
  -18.5985  -28.2006   25.7229 C   0  0  0  0  0  0  0  0  0  0  0  0
  -23.0670  -28.4903   19.9347 C   0  0  0  0  0  0  0  0  0  0  0  0
  -24.3680  -26.1181   21.1284 C   0  0  0  0  0  0  0  0  0  0  0  0
  -19.7111  -27.2294   25.3366 C   0  0  0  0  0  0  0  0  0  0  0  0
  -24.8310  -16.8519   21.5166 C   0  0  0  0  0  0  0  0  0  0  0  0
  -21.0558  -27.9482   25.2928 C   0  0  0  0  0  0  0  0  0  0  0  0
  -34.0934  -20.1193   17.7868 C   0  0  0  0  0  0  0  0  0  0  0  0
  -34.3278  -20.9173   19.0878 C   0  0  0  0  0  0  0  0  0  0  0  0
  -24.8379  -15.3391   21.7439 C   0  0  0  0  0  0  0  0  0  0  0  0
  -30.0363  -22.0406   18.4541 C   0  0  0  0  0  0  0  0  0  0  0  0
  -31.5233  -19.9474   18.2920 C   0  0  0  0  0  0  0  0  0  0  0  0
  -25.1537  -17.1943   20.0652 C   0  0  0  0  0  0  0  0  0  0  0  0
  -26.4483  -15.1146   19.7955 C   0  0  0  0  0  0  0  0  0  0  0  0
  -31.0922  -23.1715   18.6158 C   0  0  2  0  0  0  0  0  0  0  0  0
  -21.0526  -29.0604   24.2371 C   0  0  1  0  0  0  0  0  0  0  0  0
  -22.3601  -27.6236   20.9723 C   0  0  1  0  0  0  0  0  0  0  0  0
  -32.6827  -20.7594   17.7035 C   0  0  1  0  0  0  0  0  0  0  0  0
  -33.2357  -21.9058   18.5976 C   0  0  1  0  0  0  0  0  0  0  0  0
  -32.1869  -22.5375   19.5312 C   0  0  2  0  0  0  0  0  0  0  0  0
  -31.4484  -21.4368   20.3194 C   0  0  2  0  0  0  0  0  0  0  0  0
  -26.1511  -14.7042   21.2492 C   0  0  2  0  0  0  0  0  0  0  0  0
  -30.5936  -20.8045   19.1981 C   0  0  1  0  0  0  0  0  0  0  0  0
  -30.6611  -21.9876   21.5105 C   0  0  0  0  0  0  0  0  0  0  0  0
  -22.7504  -20.2143   18.7465 C   0  0  0  0  0  0  0  0  0  0  0  0
  -22.5291  -24.1783   24.0483 C   0  0  0  0  0  0  0  0  0  0  0  0
  -22.9007  -21.8949   23.0910 C   0  0  0  0  0  0  0  0  0  0  0  0
  -20.6822  -23.0064   22.8358 C   0  0  0  0  0  0  0  0  0  0  0  0
  -23.5443  -23.2692   16.6221 C   0  0  0  0  0  0  0  0  0  0  0  0
  -29.4599  -19.9076   19.7076 C   0  0  0  0  0  0  0  0  0  0  0  0
  -28.5416  -19.4431   18.5887 C   0  0  0  0  0  0  0  0  0  0  0  0
  -22.6513  -23.8463   21.4908 C   0  0  1  0  0  0  0  0  0  0  0  0
  -22.7266  -21.6888   18.3749 C   0  0  2  0  0  0  0  0  0  0  0  0
  -22.2063  -23.2536   22.8576 C   0  0  0  0  0  0  0  0  0  0  0  0
  -24.9849  -12.5320   21.3081 N   0  0  0  0  0  0  0  0  0  0  0  0
  -26.1471  -13.1968   21.4231 N   0  0  0  0  0  0  0  0  0  0  0  0
  -22.9058  -26.2665   21.0415 N   0  0  0  0  0  0  0  0  0  0  0  0
  -26.4244  -16.5751   19.6627 N   0  0  0  0  0  0  0  0  0  0  0  0
  -28.4600  -12.8995   21.8390 N   0  0  0  0  0  0  0  0  0  0  0  0
  -26.8145   -8.6993   22.0540 N   0  0  0  0  0  0  0  0  0  0  0  0
  -21.2079  -28.4999   22.9119 N   0  0  0  0  0  0  0  0  0  0  0  0
  -22.3339  -23.0042   20.3425 N   0  0  0  0  0  0  0  0  0  0  0  0
  -27.4537  -18.6215   19.0707 N   0  0  0  0  0  0  0  0  0  0  0  0
  -23.5039  -21.8688   17.1161 N   0  3  0  0  0  0  0  0  0  0  0  0
  -28.7177   -9.9651   22.2386 O   0  0  0  0  0  0  0  0  0  0  0  0
  -23.5318  -28.3548   22.8873 O   0  0  0  0  0  0  0  0  0  0  0  0
  -20.7948  -25.2825   21.1483 O   0  0  0  0  0  0  0  0  0  0  0  0
  -24.5121  -22.7853   19.5779 O   0  0  0  0  0  0  0  0  0  0  0  0
  -28.5967  -16.6464   18.8538 O   0  0  0  0  0  0  0  0  0  0  0  0
  -28.7407  -28.1121   20.1074 O   0  0  0  0  0  0  0  0  0  1  0  0
  -21.4942   -7.2063   21.3459 O   0  0  0  0  0  0  0  0  0  0  0  0
  -21.6172   -3.3882   25.3222 F   0  0  0  0  0  0  0  0  0  0  0  0
  -19.3271   -6.8330   23.0212 F   0  0  0  0  0  0  0  0  0  0  0  0
  1  2  1  0  0  0  0
  1  5  2  0  0  0  0
  2  6  2  0  0  0  0
  3 10  2  0  0  0  0
  3 19  1  0  0  0  0
  4 11  1  0  0  0  0
  4 19  2  0  0  0  0
  5 22  1  0  0  0  0
  6 24  1  0  0  0  0
  7 12  2  0  0  0  0
  7 21  1  0  0  0  0
  8 13  1  0  0  0  0
  8 21  2  0  0  0  0
  9 14  2  0  0  0  0
  9 23  1  0  0  0  0
 10 26  1  0  0  0  0
 11 26  2  0  0  0  0
 12 27  1  0  0  0  0
 13 27  2  0  0  0  0
 14 28  1  0  0  0  0
 15 16  2  0  0  0  0
 15 29  1  0  0  0  0
 16 30  1  0  0  0  0
 17 25  1  0  0  0  0
 17 28  2  0  0  0  0
 18 30  2  0  0  0  0
 18 31  1  0  0  0  0
 19 32  1  0  0  0  0
 20 32  1  0  0  0  0
 20 33  2  0  0  0  0
 20 34  1  0  0  0  0
 21 52  1  0  0  0  0
 22 24  2  0  0  0  0
 22 39  1  0  0  0  0
 23 25  2  0  0  0  0
 23 40  1  0  0  0  0
 24 53  1  0  0  0  0
 25 41  1  0  0  0  0
 26 88  1  0  0  0  0
 27 87  1  0  0  0  0
 28 87  1  0  0  0  0
 29 31  2  0  0  0  0
 29 88  1  0  0  0  0
 30 89  1  0  0  0  0
 31 90  1  0  0  0  0
 32 72  2  0  0  0  0
 33 73  1  0  0  0  0
 33 76  1  0  0  0  0
 34 77  1  0  0  0  0
 34 82  2  0  0  0  0
 35 54  1  0  0  0  0
 35 78  1  0  0  0  0
 35 83  2  0  0  0  0
 36 69  1  0  0  0  0
 36 74  1  0  0  0  0
 36 84  2  0  0  0  0
 37 70  1  0  0  0  0
 37 79  1  0  0  0  0
 37 85  2  0  0  0  0
 38 75  1  0  0  0  0
 38 80  1  0  0  0  0
 38 86  2  0  0  0  0
 39 42  1  0  0  0  0
 40 54  1  0  0  0  0
 41 74  1  0  0  0  0
 42 44  1  0  0  0  0
 43 47  1  0  0  0  0
 43 50  1  0  0  0  0
 44 53  1  0  0  0  0
 45 46  1  0  0  0  0
 45 55  1  0  0  0  0
 46 56  1  0  0  0  0
 47 59  1  0  0  0  0
 48 52  1  0  0  0  0
 48 60  1  0  0  0  0
 49 55  1  0  0  0  0
 49 60  1  0  0  0  0
 50 75  1  0  0  0  0
 51 59  1  0  0  0  0
 51 75  1  0  0  0  0
 52 57  1  0  0  0  0
 53 78  1  0  0  0  0
 54 74  1  0  0  0  0
 55 56  1  0  0  0  0
 56 57  1  0  0  0  0
 57 58  1  0  0  0  0
 58 60  1  0  0  0  0
 58 61  1  0  0  0  0
 59 73  1  0  0  0  0
 60 67  1  0  0  0  0
 62 70  1  0  0  0  0
 63 71  1  0  0  0  0
 64 71  1  0  0  0  0
 65 71  1  0  0  0  0
 66 81  1  0  0  0  0
 67 68  1  0  0  0  0
 68 80  1  0  0  0  0
 69 71  1  0  0  0  0
 69 79  1  0  0  0  0
 70 81  1  0  0  0  0
 72 73  1  0  0  0  0
M  CHG  1  81   1
M  ISO  4  27 101  38 100  80 100  87 101
M  END
> <Batch ID>
0141

> <Smiles>
CNC(C)C(=O)NC(C(=O)N1Cc2cc([101O:1][101c:1]3ccc(C4CC5(CC[100NH:0][100C:0](=O)N6CCCC(n7nc(-c8ccc(Oc9ccc(F)cc9F)cc8)c(C(N)=O)c7N)C6)CC6CCC6C4C5C)cc3)ccc2CC1C(=O)NC1CCCc2ccccc21)C(C)(C)C

> <Shape>
0.259

> <Color>
0.093

> <Negative vol penalty>
0.000

$$$$

  -OEChem-04052321163D

 86 96  0     1  0  0  0  0  0999 V2000
  -19.2614  -15.8520   16.6778 C   0  0  0  0  0  0  0  0  0  0  0  0
  -20.3005  -16.7558   16.8748 C   0  0  0  0  0  0  0  0  0  0  0  0
  -24.2178  -28.9005   22.1710 C   0  0  0  0  0  0  0  0  0  0  0  0
  -25.1845  -30.6437   20.8058 C   0  0  0  0  0  0  0  0  0  0  0  0
  -19.1072  -14.7696   17.5430 C   0  0  0  0  0  0  0  0  0  0  0  0
  -21.1853  -16.5784   17.9378 C   0  0  0  0  0  0  0  0  0  0  0  0
  -27.1658  -17.8954   18.0087 C   0  0  0  0  0  0  0  0  0  0  0  0
  -23.7551  -29.8612   23.0702 C   0  0  0  0  0  0  0  0  0  0  0  0
  -24.7218  -31.6044   21.7050 C   0  0  0  0  0  0  0  0  0  0  0  0
  -27.8798  -18.9884   18.4980 C   0  0  0  0  0  0  0  0  0  0  0  0
  -25.6314  -32.8398   24.7178 C   0  0  0  0  0  0  0  0  0  0  0  0
  -26.5126  -33.8538   25.0931 C   0  0  0  0  0  0  0  0  0  0  0  0
  -31.8967  -23.6065   16.5590 C   0  0  0  0  0  0  0  0  0  0  0  0
  -28.3058  -17.7859   20.5454 C   0  0  0  0  0  0  0  0  0  0  0  0
  -24.9903  -35.5058   24.2040 C   0  0  0  0  0  0  0  0  0  0  0  0
  -33.1689  -23.2681   16.1266 C   0  0  0  0  0  0  0  0  0  0  0  0
  -24.9325  -29.2917   21.0389 C   0  0  0  0  0  0  0  0  0  0  0  0
  -31.6325  -23.5359   17.9223 C   0  0  0  0  0  0  0  0  0  0  0  0
  -24.6392  -27.3775   19.3783 C   0  0  0  0  0  0  0  0  0  0  0  0
  -19.9963  -14.5734   18.6114 C   0  0  0  0  0  0  0  0  0  0  0  0
  -27.0069  -16.7417   18.7898 C   0  0  0  0  0  0  0  0  0  0  0  0
  -21.0420  -15.4931   18.8189 C   0  0  0  0  0  0  0  0  0  0  0  0
  -27.5915  -16.6787   20.0627 C   0  0  0  0  0  0  0  0  0  0  0  0
  -32.6344  -23.1348   18.7991 C   0  0  0  0  0  0  0  0  0  0  0  0
  -24.0071  -31.2132   22.8372 C   0  0  0  0  0  0  0  0  0  0  0  0
  -28.4475  -18.9348   19.7676 C   0  0  0  0  0  0  0  0  0  0  0  0
  -24.4297  -33.1588   24.0855 C   0  0  0  0  0  0  0  0  0  0  0  0
  -26.1920  -35.1868   24.8362 C   0  0  0  0  0  0  0  0  0  0  0  0
  -24.1091  -34.4918   23.8286 C   0  0  0  0  0  0  0  0  0  0  0  0
  -25.4113  -28.2997   20.1100 C   0  0  0  0  0  0  0  0  0  0  0  0
  -33.8735  -22.8175   18.2665 C   0  0  0  0  0  0  0  0  0  0  0  0
  -25.5577  -26.6640   18.6478 C   0  0  0  0  0  0  0  0  0  0  0  0
  -30.2916  -23.8887   18.4047 C   0  0  0  0  0  0  0  0  0  0  0  0
  -23.2188  -27.1833   19.3605 C   0  0  0  0  0  0  0  0  0  0  0  0
  -24.5207  -15.1964   20.0286 C   0  0  0  0  0  0  0  0  0  0  0  0
  -26.7829  -13.0281   20.8676 C   0  0  0  0  0  0  0  0  0  0  0  0
  -30.0634  -12.3802   21.5494 C   0  0  0  0  0  0  0  0  0  0  0  0
  -19.7611  -13.4151   19.5483 C   0  0  0  0  0  0  0  0  0  0  0  0
  -26.2565  -15.5611   18.2369 C   0  0  0  0  0  0  0  0  0  0  0  0
  -27.4672  -15.4557   20.9328 C   0  0  0  0  0  0  0  0  0  0  0  0
  -20.9652  -13.0891   20.4282 C   0  0  0  0  0  0  0  0  0  0  0  0
  -30.4839  -27.4695   17.8502 C   0  0  0  0  0  0  0  0  0  0  0  0
  -21.5422  -14.3633   21.0368 C   0  0  0  0  0  0  0  0  0  0  0  0
  -35.8358  -23.4290   19.8316 C   0  0  0  0  0  0  0  0  0  0  0  0
  -36.4057  -22.5906   18.7305 C   0  0  0  0  0  0  0  0  0  0  0  0
  -31.3498  -21.5399   22.0707 C   0  0  0  0  0  0  0  0  0  0  0  0
  -29.1139  -27.9285   18.3509 C   0  0  0  0  0  0  0  0  0  0  0  0
  -30.7197  -20.1426   22.0561 C   0  0  0  0  0  0  0  0  0  0  0  0
  -31.3974  -20.7505   19.8109 C   0  0  0  0  0  0  0  0  0  0  0  0
  -31.0226  -26.3130   18.6867 C   0  0  0  0  0  0  0  0  0  0  0  0
  -28.7293  -25.5975   19.2714 C   0  0  0  0  0  0  0  0  0  0  0  0
  -22.0371  -15.3207   19.9459 C   0  0  1  0  0  0  0  0  0  0  0  0
  -34.9820  -22.3818   19.1700 C   0  0  0  0  0  0  0  0  0  0  0  0
  -25.7208  -14.6322   19.3221 C   0  0  1  0  0  0  0  0  0  0  0  0
  -31.2894  -22.0377   20.6270 C   0  0  2  0  0  0  0  0  0  0  0  0
  -28.1302  -26.7474   18.4432 C   0  0  1  0  0  0  0  0  0  0  0  0
  -30.5110  -19.7826   20.5852 C   0  0  2  0  0  0  0  0  0  1  0  0
  -32.0469  -24.4287   20.8811 C   0  0  0  0  0  0  0  0  0  0  0  0
  -31.6017  -10.5227   22.2427 C   0  0  0  0  0  0  0  0  0  0  0  0
  -25.7490  -13.2436   23.7302 C   0  0  0  0  0  0  0  0  0  0  0  0
  -27.8635  -12.1479   24.5024 C   0  0  0  0  0  0  0  0  0  0  0  0
  -26.3031  -10.9189   22.9934 C   0  0  0  0  0  0  0  0  0  0  0  0
  -31.6460  -12.6050   19.0587 C   0  0  0  0  0  0  0  0  0  0  0  0
  -32.3745  -23.0481   20.2959 C   0  0  2  0  0  0  0  0  0  0  0  0
  -27.6785  -12.8268   22.0661 C   0  0  1  0  0  0  0  0  0  0  0  0
  -30.9930  -11.2790   21.0722 C   0  0  2  0  0  0  0  0  0  0  0  0
  -26.8994  -12.3082   23.3076 C   0  0  0  0  0  0  0  0  0  0  0  0
  -34.1676  -22.8741   16.9482 N   0  0  0  0  0  0  0  0  0  0  0  0
  -26.7195  -28.1847   19.8666 N   0  0  0  0  0  0  0  0  0  0  0  0
  -26.7767  -27.1817   18.9739 N   0  0  0  0  0  0  0  0  0  0  0  0
  -30.0446  -25.2195   18.7507 N   0  0  0  0  0  0  0  0  0  0  0  0
  -26.7186  -14.3297   20.3503 N   0  0  0  0  0  0  0  0  0  0  0  0
  -25.4336  -25.6504   17.7648 N   0  0  0  0  0  0  0  0  0  0  0  0
  -22.4572  -27.9062   18.4322 N   0  0  0  0  0  0  0  0  0  0  0  0
  -23.3158  -14.8813   19.4299 N   0  0  0  0  0  0  0  0  0  0  0  0
  -28.7565  -11.9474   21.6269 N   0  0  0  0  0  0  0  0  0  0  0  0
  -32.1004  -11.8532   20.2567 N   0  3  0  0  0  0  0  0  0  0  0  0
  -29.4749  -22.9703   18.4571 O   0  0  0  0  0  0  0  0  0  0  0  0
  -22.6402  -26.4044   20.1556 O   0  0  0  0  0  0  0  0  0  0  0  0
  -24.6763  -15.8665   21.0427 O   0  0  0  0  0  0  0  0  0  0  0  0
  -26.1687  -12.0645   20.4030 O   0  0  0  0  0  0  0  0  0  0  0  0
  -30.4578  -13.5101   21.8293 O   0  0  0  0  0  0  0  0  0  0  0  0
  -23.5555  -32.1510   23.7142 O   0  0  0  0  0  0  0  0  0  0  0  0
  -29.1444  -20.0005   20.2478 O   0  0  0  0  0  0  0  0  0  1  0  0
  -27.0376  -36.1606   25.1981 F   0  0  0  0  0  0  0  0  0  0  0  0
  -22.9555  -34.8044   23.2225 F   0  0  0  0  0  0  0  0  0  0  0  0
  1  2  1  0  0  0  0
  1  5  2  0  0  0  0
  2  6  2  0  0  0  0
  3  8  2  0  0  0  0
  3 17  1  0  0  0  0
  4  9  1  0  0  0  0
  4 17  2  0  0  0  0
  5 20  1  0  0  0  0
  6 22  1  0  0  0  0
  7 10  2  0  0  0  0
  7 21  1  0  0  0  0
  8 25  1  0  0  0  0
  9 25  2  0  0  0  0
 10 26  1  0  0  0  0
 11 12  2  0  0  0  0
 11 27  1  0  0  0  0
 12 28  1  0  0  0  0
 13 16  2  0  0  0  0
 13 18  1  0  0  0  0
 14 23  1  0  0  0  0
 14 26  2  0  0  0  0
 15 28  2  0  0  0  0
 15 29  1  0  0  0  0
 16 68  1  0  0  0  0
 17 30  1  0  0  0  0
 18 24  2  0  0  0  0
 18 33  1  0  0  0  0
 19 30  1  0  0  0  0
 19 32  2  0  0  0  0
 19 34  1  0  0  0  0
 20 22  2  0  0  0  0
 20 38  1  0  0  0  0
 21 23  2  0  0  0  0
 21 39  1  0  0  0  0
 22 52  1  0  0  0  0
 23 40  1  0  0  0  0
 24 31  1  0  0  0  0
 24 64  1  0  0  0  0
 25 83  1  0  0  0  0
 26 84  1  0  0  0  0
 27 29  2  0  0  0  0
 27 83  1  0  0  0  0
 28 85  1  0  0  0  0
 29 86  1  0  0  0  0
 30 69  2  0  0  0  0
 31 53  1  0  0  0  0
 31 68  2  0  0  0  0
 32 70  1  0  0  0  0
 32 73  1  0  0  0  0
 33 71  1  0  0  0  0
 33 78  2  0  0  0  0
 34 74  1  0  0  0  0
 34 79  2  0  0  0  0
 35 54  1  0  0  0  0
 35 75  1  0  0  0  0
 35 80  2  0  0  0  0
 36 65  1  0  0  0  0
 36 72  1  0  0  0  0
 36 81  2  0  0  0  0
 37 66  1  0  0  0  0
 37 76  1  0  0  0  0
 37 82  2  0  0  0  0
 38 41  1  0  0  0  0
 39 54  1  0  0  0  0
 40 72  1  0  0  0  0
 41 43  1  0  0  0  0
 42 47  1  0  0  0  0
 42 50  1  0  0  0  0
 43 52  1  0  0  0  0
 44 45  1  0  0  0  0
 44 53  1  0  0  0  0
 45 53  1  0  0  0  0
 46 48  1  0  0  0  0
 46 55  1  0  0  0  0
 47 56  1  0  0  0  0
 48 57  1  0  0  0  0
 49 55  1  0  0  0  0
 49 57  1  0  0  0  0
 50 71  1  0  0  0  0
 51 56  1  0  0  0  0
 51 71  1  0  0  0  0
 52 75  1  0  0  0  0
 54 72  1  0  0  0  0
 55 64  1  0  0  0  0
 56 70  1  0  0  0  0
 57 84  1  0  0  0  0
 58 64  1  0  0  0  0
 59 66  1  0  0  0  0
 60 67  1  0  0  0  0
 61 67  1  0  0  0  0
 62 67  1  0  0  0  0
 63 77  1  0  0  0  0
 65 67  1  0  0  0  0
 65 76  1  0  0  0  0
 66 77  1  0  0  0  0
 69 70  1  0  0  0  0
M  CHG  1  77   1
M  ISO  4  18 100  33 100  57 101  84 101
M  END
> <Batch ID>
0141

> <Smiles>
CNC(C)C(=O)NC(C(=O)N1Cc2cc([101O:1][101CH:1]3CCC(C(C)c4c(C5CC5)ncc[100c:0]4[100C:0](=O)N4CCCC(n5nc(-c6ccc(Oc7ccc(F)cc7F)cc6)c(C(N)=O)c5N)C4)C3)ccc2CC1C(=O)NC1CCCc2ccccc21)C(C)(C)C

> <Shape>
0.244

> <Color>
0.080

> <Negative vol penalty>
0.000

$$$$

  -OEChem-04052321163D

 85 94  0     1  0  0  0  0  0999 V2000
  -19.5866  -34.2601   21.5720 C   0  0  0  0  0  0  0  0  0  0  0  0
  -20.8808  -33.8843   21.2267 C   0  0  0  0  0  0  0  0  0  0  0  0
  -29.2893  -11.1834   22.3143 C   0  0  0  0  0  0  0  0  0  0  0  0
  -29.1797  -12.7664   24.1362 C   0  0  0  0  0  0  0  0  0  0  0  0
  -18.8743  -33.5184   22.5135 C   0  0  0  0  0  0  0  0  0  0  0  0
  -21.4639  -32.7671   21.8236 C   0  0  0  0  0  0  0  0  0  0  0  0
  -25.3557  -28.8157   19.2263 C   0  0  0  0  0  0  0  0  0  0  0  0
  -30.0066  -10.3021   23.1232 C   0  0  0  0  0  0  0  0  0  0  0  0
  -29.8970  -11.8850   24.9452 C   0  0  0  0  0  0  0  0  0  0  0  0
  -26.7449  -28.7043   19.2657 C   0  0  0  0  0  0  0  0  0  0  0  0
  -29.2771   -9.0918   26.7436 C   0  0  0  0  0  0  0  0  0  0  0  0
  -28.8209   -8.8933   28.0467 C   0  0  0  0  0  0  0  0  0  0  0  0
  -26.5581  -27.0761   21.0358 C   0  0  0  0  0  0  0  0  0  0  0  0
  -28.7696  -25.4286   19.4713 C   0  0  0  0  0  0  0  0  0  0  0  0
  -30.9283   -9.7025   28.9078 C   0  0  0  0  0  0  0  0  0  0  0  0
  -30.2719  -26.1603   21.1638 C   0  0  0  0  0  0  0  0  0  0  0  0
  -28.8759  -12.4156   22.8208 C   0  0  0  0  0  0  0  0  0  0  0  0
  -26.7373  -13.3998   21.8383 C   0  0  0  0  0  0  0  0  0  0  0  0
  -19.4454  -32.3859   23.1151 C   0  0  0  0  0  0  0  0  0  0  0  0
  -24.5564  -28.0650   20.1004 C   0  0  0  0  0  0  0  0  0  0  0  0
  -20.7590  -32.0104   22.7750 C   0  0  0  0  0  0  0  0  0  0  0  0
  -25.1589  -27.1779   21.0038 C   0  0  0  0  0  0  0  0  0  0  0  0
  -30.3104  -10.6528   24.4386 C   0  0  0  0  0  0  0  0  0  0  0  0
  -27.3464  -27.8366   20.1725 C   0  0  0  0  0  0  0  0  0  0  0  0
  -30.5589   -9.5956   26.5226 C   0  0  0  0  0  0  0  0  0  0  0  0
  -29.2430  -26.4534   20.2832 C   0  0  0  0  0  0  0  0  0  1  0  0
  -29.3316  -24.1601   19.5635 C   0  0  0  0  0  0  0  0  0  0  0  0
  -29.6465   -9.1986   29.1288 C   0  0  0  0  0  0  0  0  0  0  0  0
  -31.3845   -9.9010   27.6046 C   0  0  0  0  0  0  0  0  0  0  0  0
  -28.1354  -13.3267   21.9856 C   0  0  0  0  0  0  0  0  0  0  0  0
  -30.3566  -23.9696   20.4762 C   0  0  0  0  0  0  0  0  0  0  0  0
  -26.5395  -14.4204   20.9407 C   0  0  0  0  0  0  0  0  0  0  0  0
  -25.7093  -12.6152   22.4575 C   0  0  0  0  0  0  0  0  0  0  0  0
  -22.4898  -28.7661   22.4115 C   0  0  0  0  0  0  0  0  0  0  0  0
  -21.9855  -25.5617   22.3987 C   0  0  0  0  0  0  0  0  0  0  0  0
  -23.1726  -22.4449   21.6754 C   0  0  0  0  0  0  0  0  0  0  0  0
  -27.5926  -19.5041   19.2106 C   0  0  0  0  0  0  0  0  0  0  0  0
  -18.6539  -31.6433   24.1623 C   0  0  0  0  0  0  0  0  0  0  0  0
  -23.0582  -28.1767   20.0271 C   0  0  0  0  0  0  0  0  0  0  0  0
  -24.3448  -26.3347   21.9496 C   0  0  0  0  0  0  0  0  0  0  0  0
  -19.2061  -30.2542   24.4717 C   0  0  0  0  0  0  0  0  0  0  0  0
  -29.8250  -16.9184   18.0156 C   0  0  0  0  0  0  0  0  0  0  0  0
  -20.7187  -30.3109   24.6607 C   0  0  0  0  0  0  0  0  0  0  0  0
  -29.5493  -21.2699   22.3567 C   0  0  0  0  0  0  0  0  0  0  0  0
  -30.8561  -20.5391   22.2223 C   0  0  0  0  0  0  0  0  0  0  0  0
  -29.4630  -15.7535   18.9387 C   0  0  0  0  0  0  0  0  0  0  0  0
  -29.7869  -18.2483   18.7627 C   0  0  0  0  0  0  0  0  0  0  0  0
  -28.1272  -17.3754   20.3618 C   0  0  0  0  0  0  0  0  0  0  0  0
  -21.4167  -30.7902   23.3823 C   0  0  1  0  0  0  0  0  0  0  0  0
  -22.3632  -27.7464   21.3152 C   0  0  1  0  0  0  0  0  0  0  0  0
  -30.8035  -22.0281   22.0204 C   0  0  0  0  0  0  0  0  0  0  0  0
  -28.1257  -16.0051   19.6602 C   0  0  2  0  0  0  0  0  0  0  0  0
  -32.4916  -22.6481   20.2538 C   0  0  0  0  0  0  0  0  0  0  0  0
  -22.5476  -20.0184   21.8115 C   0  0  0  0  0  0  0  0  0  0  0  0
  -22.5489  -25.5873   25.3973 C   0  0  0  0  0  0  0  0  0  0  0  0
  -22.8495  -23.1040   25.2913 C   0  0  0  0  0  0  0  0  0  0  0  0
  -20.6469  -24.1180   24.7057 C   0  0  0  0  0  0  0  0  0  0  0  0
  -23.3425  -22.1170   18.7390 C   0  0  0  0  0  0  0  0  0  0  0  0
  -27.1965  -21.6244   17.9840 C   0  0  0  0  0  0  0  0  0  0  0  0
  -27.5003  -22.7942   18.9029 C   0  0  0  0  0  0  0  0  0  0  0  0
  -30.9949  -22.6269   20.6148 C   0  0  2  0  0  0  0  0  0  0  0  0
  -22.5946  -24.3808   23.1151 C   0  0  1  0  0  0  0  0  0  0  0  0
  -22.5424  -21.2706   20.9486 C   0  0  2  0  0  0  0  0  0  0  0  0
  -22.1757  -24.3147   24.6110 C   0  0  0  0  0  0  0  0  0  0  0  0
  -30.8429  -24.9405   21.2816 N   0  0  0  0  0  0  0  0  0  0  0  0
  -28.7802  -14.2290   21.2411 N   0  0  0  0  0  0  0  0  0  0  0  0
  -27.7827  -14.8786   20.6173 N   0  0  0  0  0  0  0  0  0  0  0  0
  -22.8840  -26.4841   21.8439 N   0  0  0  0  0  0  0  0  0  0  0  0
  -28.4813  -18.4348   19.4112 N   0  0  0  0  0  0  0  0  0  0  0  0
  -25.4251  -14.9616   20.4044 N   0  0  0  0  0  0  0  0  0  0  0  0
  -26.0873  -11.6073   23.3550 N   0  0  0  0  0  0  0  0  0  0  0  0
  -21.4881  -29.7179   22.4129 N   0  0  0  0  0  0  0  0  0  0  0  0
  -22.2294  -23.2002   22.3397 N   0  0  0  0  0  0  0  0  0  0  0  0
  -28.0060  -20.4686   18.2997 N   0  0  0  0  0  0  0  0  0  0  0  0
  -23.2883  -20.9785   19.6919 N   0  3  0  0  0  0  0  0  0  0  0  0
  -24.4924  -12.7916   22.2094 O   0  0  0  0  0  0  0  0  0  0  0  0
  -23.4261  -28.6937   23.1988 O   0  0  0  0  0  0  0  0  0  0  0  0
  -20.7578  -25.6584   22.3275 O   0  0  0  0  0  0  0  0  0  0  0  0
  -24.3812  -22.6676   21.6588 O   0  0  0  0  0  0  0  0  0  0  0  0
  -26.5078  -19.5905   19.7961 O   0  0  0  0  0  0  0  0  0  0  0  0
  -31.0101   -9.7929   25.2283 O   0  0  0  0  0  0  0  0  0  0  0  0
  -28.7022  -27.7264   20.2134 O   0  0  0  0  0  0  0  0  0  1  0  0
  -28.8770  -23.1529   18.7749 O   0  0  0  0  0  0  0  0  0  0  0  0
  -29.2077   -9.0094   30.3801 F   0  0  0  0  0  0  0  0  0  0  0  0
  -32.6164  -10.3864   27.3986 F   0  0  0  0  0  0  0  0  0  0  0  0
  1  2  1  0  0  0  0
  1  5  2  0  0  0  0
  2  6  2  0  0  0  0
  3  8  2  0  0  0  0
  3 17  1  0  0  0  0
  4  9  1  0  0  0  0
  4 17  2  0  0  0  0
  5 19  1  0  0  0  0
  6 21  1  0  0  0  0
  7 10  2  0  0  0  0
  7 20  1  0  0  0  0
  8 23  1  0  0  0  0
  9 23  2  0  0  0  0
 10 24  1  0  0  0  0
 11 12  2  0  0  0  0
 11 25  1  0  0  0  0
 12 28  1  0  0  0  0
 13 22  1  0  0  0  0
 13 24  2  0  0  0  0
 14 26  2  0  0  0  0
 14 27  1  0  0  0  0
 15 28  2  0  0  0  0
 15 29  1  0  0  0  0
 16 26  1  0  0  0  0
 16 65  2  0  0  0  0
 17 30  1  0  0  0  0
 18 30  1  0  0  0  0
 18 32  2  0  0  0  0
 18 33  1  0  0  0  0
 19 21  2  0  0  0  0
 19 38  1  0  0  0  0
 20 22  2  0  0  0  0
 20 39  1  0  0  0  0
 21 49  1  0  0  0  0
 22 40  1  0  0  0  0
 23 81  1  0  0  0  0
 24 82  1  0  0  0  0
 25 29  2  0  0  0  0
 25 81  1  0  0  0  0
 26 82  1  0  0  0  0
 27 31  2  0  0  0  0
 27 83  1  0  0  0  0
 28 84  1  0  0  0  0
 29 85  1  0  0  0  0
 30 66  2  0  0  0  0
 31 61  1  0  0  0  0
 31 65  1  0  0  0  0
 32 67  1  0  0  0  0
 32 70  1  0  0  0  0
 33 71  1  0  0  0  0
 33 76  2  0  0  0  0
 34 50  1  0  0  0  0
 34 72  1  0  0  0  0
 34 77  2  0  0  0  0
 35 62  1  0  0  0  0
 35 68  1  0  0  0  0
 35 78  2  0  0  0  0
 36 63  1  0  0  0  0
 36 73  1  0  0  0  0
 36 79  2  0  0  0  0
 37 69  1  0  0  0  0
 37 74  1  0  0  0  0
 37 80  2  0  0  0  0
 38 41  1  0  0  0  0
 39 50  1  0  0  0  0
 40 68  1  0  0  0  0
 41 43  1  0  0  0  0
 42 46  1  0  0  0  0
 42 47  1  0  0  0  0
 43 49  1  0  0  0  0
 44 45  1  0  0  0  0
 44 51  1  0  0  0  0
 45 51  1  0  0  0  0
 46 52  1  0  0  0  0
 47 69  1  0  0  0  0
 48 52  1  0  0  0  0
 48 69  1  0  0  0  0
 49 72  1  0  0  0  0
 50 68  1  0  0  0  0
 51 61  1  0  0  0  0
 52 67  1  0  0  0  0
 53 61  1  0  0  0  0
 54 63  1  0  0  0  0
 55 64  1  0  0  0  0
 56 64  1  0  0  0  0
 57 64  1  0  0  0  0
 58 75  1  0  0  0  0
 59 60  1  0  0  0  0
 59 74  1  0  0  0  0
 60 83  1  0  0  0  0
 62 64  1  0  0  0  0
 62 73  1  0  0  0  0
 63 75  1  0  0  0  0
 66 67  1  0  0  0  0
M  CHG  1  75   1
M  ISO  4  26 101  37 100  74 100  82 101
M  END
> <Batch ID>
0141

> <Smiles>
CNC(C)C(=O)NC(C(=O)N1Cc2cc([101O:1][101c:1]3cnc(C(C)C4CC4)c(OCC[100NH:0][100C:0](=O)N4CCCC(n5nc(-c6ccc(Oc7ccc(F)cc7F)cc6)c(C(N)=O)c5N)C4)c3)ccc2CC1C(=O)NC1CCCc2ccccc21)C(C)(C)C

> <Shape>
0.176

> <Color>
0.117

> <Negative vol penalty>
0.000

$$$$

  -OEChem-04052321163D

 84 93  0     1  0  0  0  0  0999 V2000
  -16.3156  -29.9614   23.8134 C   0  0  0  0  0  0  0  0  0  0  0  0
  -17.0042  -28.8011   24.1525 C   0  0  0  0  0  0  0  0  0  0  0  0
  -31.4825  -24.3435   22.6397 C   0  0  0  0  0  0  0  0  0  0  0  0
  -26.7081  -12.3779   21.2983 C   0  0  0  0  0  0  0  0  0  0  0  0
  -26.1896  -13.2927   19.1231 C   0  0  0  0  0  0  0  0  0  0  0  0
  -16.8474  -30.8343   22.8652 C   0  0  0  0  0  0  0  0  0  0  0  0
  -18.2246  -28.5125   23.5427 C   0  0  0  0  0  0  0  0  0  0  0  0
  -24.5335  -25.3933   24.8784 C   0  0  0  0  0  0  0  0  0  0  0  0
  -25.3795  -11.9806   21.4480 C   0  0  0  0  0  0  0  0  0  0  0  0
  -24.8609  -12.8954   19.2728 C   0  0  0  0  0  0  0  0  0  0  0  0
  -25.3896  -24.4263   24.3531 C   0  0  0  0  0  0  0  0  0  0  0  0
  -22.2031  -10.4045   22.2490 C   0  0  0  0  0  0  0  0  0  0  0  0
  -21.9613   -9.1208   22.7379 C   0  0  0  0  0  0  0  0  0  0  0  0
  -30.3233  -23.5650   22.8797 C   0  0  0  0  0  0  0  0  0  0  0  0
  -26.2497  -26.0471   22.7870 C   0  0  0  0  0  0  0  0  0  0  0  0
  -23.1521   -8.1805   20.8578 C   0  0  0  0  0  0  0  0  0  0  0  0
  -31.8740  -24.1085   21.3402 C   0  0  0  0  0  0  0  0  0  0  0  0
  -27.1132  -13.0341   20.1359 C   0  0  0  0  0  0  0  0  0  0  0  0
  -29.5377  -12.6998   19.4163 C   0  0  0  0  0  0  0  0  0  0  0  0
  -18.0795  -30.5611   22.2505 C   0  0  0  0  0  0  0  0  0  0  0  0
  -24.5213  -26.6937   24.3537 C   0  0  0  0  0  0  0  0  0  0  0  0
  -18.7726  -29.3819   22.5843 C   0  0  0  0  0  0  0  0  0  0  0  0
  -25.3943  -27.0294   23.3091 C   0  0  0  0  0  0  0  0  0  0  0  0
  -24.4559  -12.2393   20.4352 C   0  0  0  0  0  0  0  0  0  0  0  0
  -26.2458  -24.7524   23.3054 C   0  0  0  0  0  0  0  0  0  0  0  0
  -22.9194  -10.5763   21.0645 C   0  0  0  0  0  0  0  0  0  0  0  0
  -22.4358   -8.0087   22.0423 C   0  0  0  0  0  0  0  0  0  0  0  0
  -23.3939   -9.4643   20.3689 C   0  0  0  0  0  0  0  0  0  0  0  0
  -28.4854  -13.4453   19.9809 C   0  0  0  0  0  0  0  0  0  0  0  0
  -30.0420  -22.8779   21.7195 C   0  0  0  0  0  0  0  0  0  0  0  0
  -30.6301  -13.5277   19.5031 C   0  0  0  0  0  0  0  0  0  0  0  0
  -29.5284  -11.3772   18.8628 C   0  0  0  0  0  0  0  0  0  0  0  0
  -22.3484  -28.5098   22.9101 C   0  0  0  0  0  0  0  0  0  0  0  0
  -24.6548  -30.7785   23.1476 C   0  0  0  0  0  0  0  0  0  0  0  0
  -27.9730  -31.5159   23.4518 C   0  0  0  0  0  0  0  0  0  0  0  0
  -31.1018  -19.4090   19.7095 C   0  0  0  0  0  0  0  0  0  0  0  0
  -18.5914  -31.5108   21.1966 C   0  0  0  0  0  0  0  0  0  0  0  0
  -23.6109  -27.7325   24.9492 C   0  0  0  0  0  0  0  0  0  0  0  0
  -25.4344  -28.4167   22.7239 C   0  0  0  0  0  0  0  0  0  0  0  0
  -20.0706  -31.3199   20.8714 C   0  0  0  0  0  0  0  0  0  0  0  0
  -32.4302  -17.0877   22.1476 C   0  0  0  0  0  0  0  0  0  0  0  0
  -20.3886  -29.8403   20.6806 C   0  0  0  0  0  0  0  0  0  0  0  0
  -31.6583  -15.8121   21.8051 C   0  0  0  0  0  0  0  0  0  0  0  0
  -26.5145  -21.7185   20.4651 C   0  0  0  0  0  0  0  0  0  0  0  0
  -27.3626  -22.3384   19.3915 C   0  0  0  0  0  0  0  0  0  0  0  0
  -31.5502  -18.3246   21.9933 C   0  0  0  0  0  0  0  0  0  0  0  0
  -30.1527  -17.1982   20.3045 C   0  0  0  0  0  0  0  0  0  0  0  0
  -20.1111  -29.0466   21.9629 C   0  0  1  0  0  0  0  0  0  0  0  0
  -23.3167  -28.8864   23.9956 C   0  0  1  0  0  0  0  0  0  0  0  0
  -30.9942  -15.9141   20.4193 C   0  0  2  0  0  0  0  0  0  0  0  0
  -27.6968  -22.5790   20.8451 C   0  0  0  0  0  0  0  0  0  0  0  0
  -28.5694  -21.0599   22.6579 C   0  0  0  0  0  0  0  0  0  0  0  0
  -29.5553  -33.4593   23.5810 C   0  0  0  0  0  0  0  0  0  0  0  0
  -24.3565  -31.2180   20.1430 C   0  0  0  0  0  0  0  0  0  0  0  0
  -26.5480  -32.4282   20.1730 C   0  0  0  0  0  0  0  0  0  0  0  0
  -24.6184  -33.3134   21.4829 C   0  0  0  0  0  0  0  0  0  0  0  0
  -28.9115  -30.7220   26.1440 C   0  0  0  0  0  0  0  0  0  0  0  0
  -27.4244  -23.9304   21.4103 C   0  0  0  0  0  0  0  0  0  1  0  0
  -31.0657  -22.7177   19.4348 C   0  0  0  0  0  0  0  0  0  0  0  0
  -32.1185  -21.6268   19.2569 C   0  0  0  0  0  0  0  0  0  0  0  0
  -28.9121  -21.8974   21.4113 C   0  0  2  0  0  0  0  0  0  0  0  0
  -25.8054  -31.2282   22.2800 C   0  0  1  0  0  0  0  0  0  0  0  0
  -28.7125  -32.4706   24.3716 C   0  0  2  0  0  0  0  0  0  0  0  0
  -25.3302  -32.0202   21.0292 C   0  0  0  0  0  0  0  0  0  0  0  0
  -28.8744  -14.6538   20.3959 N   0  0  0  0  0  0  0  0  0  0  0  0
  -30.9913  -23.2157   20.7906 N   0  0  0  0  0  0  0  0  0  0  0  0
  -30.1833  -14.6739   20.0918 N   0  0  0  0  0  0  0  0  0  0  0  0
  -24.5208  -29.3956   23.3360 N   0  0  0  0  0  0  0  0  0  0  0  0
  -30.9635  -18.3716   20.6466 N   0  0  0  0  0  0  0  0  0  0  0  0
  -31.9198  -13.3796   19.1326 N   0  0  0  0  0  0  0  0  0  0  0  0
  -28.3209  -10.6658   18.8523 N   0  0  0  0  0  0  0  0  0  0  0  0
  -21.1780  -29.2443   22.9206 N   0  0  0  0  0  0  0  0  0  0  0  0
  -26.7072  -31.9732   23.1518 N   0  0  0  0  0  0  0  0  0  0  0  0
  -31.8798  -20.4869   20.1140 N   0  0  0  0  0  0  0  0  0  0  0  0
  -29.6116  -31.7145   25.2885 N   0  3  0  0  0  0  0  0  0  0  0  0
  -30.5638  -10.8359   18.4064 O   0  0  0  0  0  0  0  0  0  0  0  0
  -22.6421  -27.6199   22.1206 O   0  0  0  0  0  0  0  0  0  0  0  0
  -23.9068  -31.6234   23.6459 O   0  0  0  0  0  0  0  0  0  0  0  0
  -28.4699  -30.4709   23.0376 O   0  0  0  0  0  0  0  0  0  0  0  0
  -30.5752  -19.3749   18.5921 O   0  0  0  0  0  0  0  0  0  0  0  0
  -23.1594  -11.8515   20.5808 O   0  0  0  0  0  0  0  0  0  0  0  0
  -27.0819  -23.8103   22.7904 O   0  0  0  0  0  0  0  0  0  1  0  0
  -22.2048   -6.7760   22.5127 F   0  0  0  0  0  0  0  0  0  0  0  0
  -24.0837   -9.6230   19.2310 F   0  0  0  0  0  0  0  0  0  0  0  0
  1  2  1  0  0  0  0
  1  6  2  0  0  0  0
  2  7  2  0  0  0  0
  3 14  1  0  0  0  0
  3 17  2  0  0  0  0
  4  9  2  0  0  0  0
  4 18  1  0  0  0  0
  5 10  1  0  0  0  0
  5 18  2  0  0  0  0
  6 20  1  0  0  0  0
  7 22  1  0  0  0  0
  8 11  2  0  0  0  0
  8 21  1  0  0  0  0
  9 24  1  0  0  0  0
 10 24  2  0  0  0  0
 11 25  1  0  0  0  0
 12 13  2  0  0  0  0
 12 26  1  0  0  0  0
 13 27  1  0  0  0  0
 14 30  2  0  0  0  0
 15 23  1  0  0  0  0
 15 25  2  0  0  0  0
 16 27  2  0  0  0  0
 16 28  1  0  0  0  0
 17 66  1  0  0  0  0
 18 29  1  0  0  0  0
 19 29  1  0  0  0  0
 19 31  2  0  0  0  0
 19 32  1  0  0  0  0
 20 22  2  0  0  0  0
 20 37  1  0  0  0  0
 21 23  2  0  0  0  0
 21 38  1  0  0  0  0
 22 48  1  0  0  0  0
 23 39  1  0  0  0  0
 24 81  1  0  0  0  0
 25 82  1  0  0  0  0
 26 28  2  0  0  0  0
 26 81  1  0  0  0  0
 27 83  1  0  0  0  0
 28 84  1  0  0  0  0
 29 65  2  0  0  0  0
 30 61  1  0  0  0  0
 30 66  1  0  0  0  0
 31 67  1  0  0  0  0
 31 70  1  0  0  0  0
 32 71  1  0  0  0  0
 32 76  2  0  0  0  0
 33 49  1  0  0  0  0
 33 72  1  0  0  0  0
 33 77  2  0  0  0  0
 34 62  1  0  0  0  0
 34 68  1  0  0  0  0
 34 78  2  0  0  0  0
 35 63  1  0  0  0  0
 35 73  1  0  0  0  0
 35 79  2  0  0  0  0
 36 69  1  0  0  0  0
 36 74  1  0  0  0  0
 36 80  2  0  0  0  0
 37 40  1  0  0  0  0
 38 49  1  0  0  0  0
 39 68  1  0  0  0  0
 40 42  1  0  0  0  0
 41 43  1  0  0  0  0
 41 46  1  0  0  0  0
 42 48  1  0  0  0  0
 43 50  1  0  0  0  0
 44 45  1  0  0  0  0
 44 51  1  0  0  0  0
 45 51  1  0  0  0  0
 46 69  1  0  0  0  0
 47 50  1  0  0  0  0
 47 69  1  0  0  0  0
 48 72  1  0  0  0  0
 49 68  1  0  0  0  0
 50 67  1  0  0  0  0
 51 58  1  0  0  0  0
 51 61  1  0  0  0  0
 52 61  1  0  0  0  0
 53 63  1  0  0  0  0
 54 64  1  0  0  0  0
 55 64  1  0  0  0  0
 56 64  1  0  0  0  0
 57 75  1  0  0  0  0
 58 82  1  0  0  0  0
 59 60  1  0  0  0  0
 59 66  1  0  0  0  0
 60 74  1  0  0  0  0
 62 64  1  0  0  0  0
 62 73  1  0  0  0  0
 63 75  1  0  0  0  0
 65 67  1  0  0  0  0
M  CHG  1  75   1
M  ISO  4  36 100  58 101  74 100  82 101
M  END
> <Batch ID>
0141

> <Smiles>
CNC(C)C(=O)NC(C(=O)N1Cc2cc([101O:1][101CH2:1]C3(C(C)c4cccn4CC[100NH:0][100C:0](=O)N4CCCC(n5nc(-c6ccc(Oc7ccc(F)cc7F)cc6)c(C(N)=O)c5N)C4)CC3)ccc2CC1C(=O)NC1CCCc2ccccc21)C(C)(C)C

> <Shape>
0.277

> <Color>
0.076

> <Negative vol penalty>
0.000

$$$$

  -OEChem-04052321163D

 84 93  0     1  0  0  0  0  0999 V2000
  -19.3367  -29.5468   16.3676 C   0  0  0  0  0  0  0  0  0  0  0  0
  -20.6237  -29.0310   16.2533 C   0  0  0  0  0  0  0  0  0  0  0  0
  -23.0707   -9.8747   19.9414 C   0  0  0  0  0  0  0  0  0  0  0  0
  -23.8398   -9.8735   22.2317 C   0  0  0  0  0  0  0  0  0  0  0  0
  -18.4897  -29.0871   17.3752 C   0  0  0  0  0  0  0  0  0  0  0  0
  -21.0648  -28.0560   17.1473 C   0  0  0  0  0  0  0  0  0  0  0  0
  -29.7171  -19.8356   23.8432 C   0  0  0  0  0  0  0  0  0  0  0  0
  -25.3328  -22.3126   17.4854 C   0  0  0  0  0  0  0  0  0  0  0  0
  -28.5436  -20.2387   23.2029 C   0  0  0  0  0  0  0  0  0  0  0  0
  -22.3265   -8.7216   20.1907 C   0  0  0  0  0  0  0  0  0  0  0  0
  -23.0956   -8.7204   22.4810 C   0  0  0  0  0  0  0  0  0  0  0  0
  -26.3838  -21.7947   18.2410 C   0  0  0  0  0  0  0  0  0  0  0  0
  -19.8691   -7.9243   23.0941 C   0  0  0  0  0  0  0  0  0  0  0  0
  -19.1168   -7.8814   24.2679 C   0  0  0  0  0  0  0  0  0  0  0  0
  -28.7427  -18.4216   21.6000 C   0  0  0  0  0  0  0  0  0  0  0  0
  -24.8060  -21.0192   19.8928 C   0  0  0  0  0  0  0  0  0  0  0  0
  -20.3590   -5.9403   24.9931 C   0  0  0  0  0  0  0  0  0  0  0  0
  -23.8274  -10.4507   20.9619 C   0  0  0  0  0  0  0  0  0  0  0  0
  -24.1715  -12.9758   20.8485 C   0  0  0  0  0  0  0  0  0  0  0  0
  -18.9173  -28.0990   18.2760 C   0  0  0  0  0  0  0  0  0  0  0  0
  -24.0092  -22.1971   17.9339 C   0  0  0  0  0  0  0  0  0  0  0  0
  -30.3840  -18.7184   23.3632 C   0  0  0  0  0  0  0  0  0  0  0  0
  -20.2232  -27.5837   18.1687 C   0  0  0  0  0  0  0  0  0  0  0  0
  -29.8977  -18.0134   22.2507 C   0  0  0  0  0  0  0  0  0  0  0  0
  -23.7398  -21.5342   19.1398 C   0  0  0  0  0  0  0  0  0  0  0  0
  -28.0603  -19.5373   22.0889 C   0  0  0  0  0  0  0  0  0  0  0  0
  -22.3390   -8.1444   21.4605 C   0  0  0  0  0  0  0  0  0  0  0  0
  -26.1208  -21.1504   19.4463 C   0  0  0  0  0  0  0  0  0  0  0  0
  -20.8663   -6.9750   22.8697 C   0  0  0  0  0  0  0  0  0  0  0  0
  -19.3618   -6.8895   25.2174 C   0  0  0  0  0  0  0  0  0  0  0  0
  -21.1112   -5.9831   23.8193 C   0  0  0  0  0  0  0  0  0  0  0  0
  -24.5968  -11.6415   20.7048 C   0  0  0  0  0  0  0  0  0  0  0  0
  -25.2631  -13.7252   20.4832 C   0  0  0  0  0  0  0  0  0  0  0  0
  -22.9033  -13.4917   21.2742 C   0  0  0  0  0  0  0  0  0  0  0  0
  -21.7258  -24.2565   18.7391 C   0  0  0  0  0  0  0  0  0  0  0  0
  -19.9198  -21.5706   18.9547 C   0  0  0  0  0  0  0  0  0  0  0  0
  -19.7969  -18.1911   19.4135 C   0  0  0  0  0  0  0  0  0  0  0  0
  -30.7487  -14.7376   20.6527 C   0  0  0  0  0  0  0  0  0  0  0  0
  -17.9823  -27.6677   19.3780 C   0  0  0  0  0  0  0  0  0  0  0  0
  -22.8845  -22.7376   17.0941 C   0  0  0  0  0  0  0  0  0  0  0  0
  -22.3348  -21.3659   19.6556 C   0  0  0  0  0  0  0  0  0  0  0  0
  -18.3972  -26.3628   20.0528 C   0  0  0  0  0  0  0  0  0  0  0  0
  -29.5988  -12.3619   18.2630 C   0  0  0  0  0  0  0  0  0  0  0  0
  -19.8871  -26.3807   20.3790 C   0  0  0  0  0  0  0  0  0  0  0  0
  -28.1628  -12.0684   18.7007 C   0  0  0  0  0  0  0  0  0  0  0  0
  -31.5951  -16.7137   23.2164 C   0  0  0  0  0  0  0  0  0  0  0  0
  -30.5210  -12.5779   19.4608 C   0  0  0  0  0  0  0  0  0  0  0  0
  -28.6257  -13.3067   20.8574 C   0  0  0  0  0  0  0  0  0  0  0  0
  -31.6782  -18.1206   23.8449 C   0  0  2  0  0  0  0  0  0  0  0  0
  -20.7296  -26.5072   19.1040 C   0  0  1  0  0  0  0  0  0  0  0  0
  -30.8219  -16.8841   21.8961 C   0  0  1  0  0  0  0  0  0  0  0  0
  -21.6184  -23.0158   17.8985 C   0  0  1  0  0  0  0  0  0  0  0  0
  -27.6466  -13.1369   19.6832 C   0  0  2  0  0  0  0  0  0  0  0  0
  -18.1753  -16.2830   19.5770 C   0  0  0  0  0  0  0  0  0  0  0  0
  -30.7180  -17.2572   25.9981 C   0  0  0  0  0  0  0  0  0  0  0  0
  -33.2048  -17.4754   25.7307 C   0  0  0  0  0  0  0  0  0  0  0  0
  -19.1752  -22.4487   21.7804 C   0  0  0  0  0  0  0  0  0  0  0  0
  -18.3696  -20.1187   22.2172 C   0  0  0  0  0  0  0  0  0  0  0  0
  -17.2816  -21.5018   20.4491 C   0  0  0  0  0  0  0  0  0  0  0  0
  -20.9727  -16.8380   17.0586 C   0  0  0  0  0  0  0  0  0  0  0  0
  -26.8031  -19.9968   21.4109 C   0  0  0  0  0  0  0  0  0  1  0  0
  -19.6020  -20.5810   20.0496 C   0  0  1  0  0  0  0  0  0  0  0  0
  -19.0683  -17.0972   18.6538 C   0  0  2  0  0  0  0  0  0  0  0  0
  -31.8453  -18.0665   25.3558 C   0  0  0  0  0  0  0  0  0  0  0  0
  -18.6338  -21.1673   21.1156 C   0  0  0  0  0  0  0  0  0  0  0  0
  -25.8598  -11.5456   20.2811 N   0  0  0  0  0  0  0  0  0  0  0  0
  -26.2376  -12.8291   20.1554 N   0  0  0  0  0  0  0  0  0  0  0  0
  -21.2697  -21.9171   18.8015 N   0  0  0  0  0  0  0  0  0  0  0  0
  -29.9752  -13.6042   20.3523 N   0  0  0  0  0  0  0  0  0  0  0  0
  -25.4747  -15.0567   20.4136 N   0  0  0  0  0  0  0  0  0  0  0  0
  -21.8918  -12.5826   21.6127 N   0  0  0  0  0  0  0  0  0  0  0  0
  -20.8036  -25.2346   18.4188 N   0  0  0  0  0  0  0  0  0  0  0  0
  -19.1032  -19.3823   19.3842 N   0  0  0  0  0  0  0  0  0  0  0  0
  -30.1539  -15.6644   21.5001 N   0  0  0  0  0  0  0  0  0  0  0  0
  -20.0456  -16.1740   18.0107 N   0  3  0  0  0  0  0  0  0  0  0  0
  -22.6687  -14.7224   21.3364 O   0  0  0  0  0  0  0  0  0  0  0  0
  -22.5809  -24.3212   19.6144 O   0  0  0  0  0  0  0  0  0  0  0  0
  -19.0049  -22.0142   18.2563 O   0  0  0  0  0  0  0  0  0  0  0  0
  -20.8720  -18.0062   19.9797 O   0  0  0  0  0  0  0  0  0  0  0  0
  -31.8830  -14.9133   20.1950 O   0  0  0  0  0  0  0  0  0  0  0  0
  -21.6128   -7.0194   21.7042 O   0  0  0  0  0  0  0  0  0  0  0  0
  -27.1448  -20.6446   20.1862 O   0  0  0  0  0  0  0  0  0  1  0  0
  -18.6403   -6.8494   26.3453 F   0  0  0  0  0  0  0  0  0  0  0  0
  -22.0687   -5.0692   23.6099 F   0  0  0  0  0  0  0  0  0  0  0  0
  1  2  1  0  0  0  0
  1  5  2  0  0  0  0
  2  6  2  0  0  0  0
  3 10  2  0  0  0  0
  3 18  1  0  0  0  0
  4 11  1  0  0  0  0
  4 18  2  0  0  0  0
  5 20  1  0  0  0  0
  6 23  1  0  0  0  0
  7  9  2  0  0  0  0
  7 22  1  0  0  0  0
  8 12  2  0  0  0  0
  8 21  1  0  0  0  0
  9 26  1  0  0  0  0
 10 27  1  0  0  0  0
 11 27  2  0  0  0  0
 12 28  1  0  0  0  0
 13 14  2  0  0  0  0
 13 29  1  0  0  0  0
 14 30  1  0  0  0  0
 15 24  1  0  0  0  0
 15 26  2  0  0  0  0
 16 25  1  0  0  0  0
 16 28  2  0  0  0  0
 17 30  2  0  0  0  0
 17 31  1  0  0  0  0
 18 32  1  0  0  0  0
 19 32  1  0  0  0  0
 19 33  2  0  0  0  0
 19 34  1  0  0  0  0
 20 23  2  0  0  0  0
 20 39  1  0  0  0  0
 21 25  2  0  0  0  0
 21 40  1  0  0  0  0
 22 24  2  0  0  0  0
 22 49  1  0  0  0  0
 23 50  1  0  0  0  0
 24 51  1  0  0  0  0
 25 41  1  0  0  0  0
 26 61  1  0  0  0  0
 27 81  1  0  0  0  0
 28 82  1  0  0  0  0
 29 31  2  0  0  0  0
 29 81  1  0  0  0  0
 30 83  1  0  0  0  0
 31 84  1  0  0  0  0
 32 66  2  0  0  0  0
 33 67  1  0  0  0  0
 33 70  1  0  0  0  0
 34 71  1  0  0  0  0
 34 76  2  0  0  0  0
 35 52  1  0  0  0  0
 35 72  1  0  0  0  0
 35 77  2  0  0  0  0
 36 62  1  0  0  0  0
 36 68  1  0  0  0  0
 36 78  2  0  0  0  0
 37 63  1  0  0  0  0
 37 73  1  0  0  0  0
 37 79  2  0  0  0  0
 38 69  1  0  0  0  0
 38 74  1  0  0  0  0
 38 80  2  0  0  0  0
 39 42  1  0  0  0  0
 40 52  1  0  0  0  0
 41 68  1  0  0  0  0
 42 44  1  0  0  0  0
 43 45  1  0  0  0  0
 43 47  1  0  0  0  0
 44 50  1  0  0  0  0
 45 53  1  0  0  0  0
 46 49  1  0  0  0  0
 46 51  1  0  0  0  0
 47 69  1  0  0  0  0
 48 53  1  0  0  0  0
 48 69  1  0  0  0  0
 49 64  1  0  0  0  0
 50 72  1  0  0  0  0
 51 74  1  0  0  0  0
 52 68  1  0  0  0  0
 53 67  1  0  0  0  0
 54 63  1  0  0  0  0
 55 64  1  0  0  0  0
 56 64  1  0  0  0  0
 57 65  1  0  0  0  0
 58 65  1  0  0  0  0
 59 65  1  0  0  0  0
 60 75  1  0  0  0  0
 61 82  1  0  0  0  0
 62 65  1  0  0  0  0
 62 73  1  0  0  0  0
 63 75  1  0  0  0  0
 66 67  1  0  0  0  0
M  CHG  1  75   1
M  ISO  4  38 100  61 101  74 100  82 101
M  END
> <Batch ID>
0141

> <Smiles>
CNC(C)C(=O)NC(C(=O)N1Cc2cc([101O:1][101CH2:1]c3ccc4c(c3)C([100NH:0][100C:0](=O)N3CCCC(n5nc(-c6ccc(Oc7ccc(F)cc7F)cc6)c(C(N)=O)c5N)C3)CC4C(C)C)ccc2CC1C(=O)NC1CCCc2ccccc21)C(C)(C)C

> <Shape>
0.193

> <Color>
0.192

> <Negative vol penalty>
0.000

$$$$

  -OEChem-04052321163D

 84 93  0     1  0  0  0  0  0999 V2000
  -30.3325  -17.0444   28.0868 C   0  0  0  0  0  0  0  0  0  0  0  0
  -30.8208  -17.8794   27.0869 C   0  0  0  0  0  0  0  0  0  0  0  0
  -23.0010   -9.8933   19.9812 C   0  0  0  0  0  0  0  0  0  0  0  0
  -23.7309   -9.9433   22.2838 C   0  0  0  0  0  0  0  0  0  0  0  0
  -30.0527  -17.5620   29.3508 C   0  0  0  0  0  0  0  0  0  0  0  0
  -31.0285  -19.2329   27.3502 C   0  0  0  0  0  0  0  0  0  0  0  0
  -30.4117  -20.2571   23.2294 C   0  0  0  0  0  0  0  0  0  0  0  0
  -35.4581  -20.9042   25.5528 C   0  0  0  0  0  0  0  0  0  0  0  0
  -22.2365   -8.7576   20.2482 C   0  0  0  0  0  0  0  0  0  0  0  0
  -22.9664   -8.8075   22.5508 C   0  0  0  0  0  0  0  0  0  0  0  0
  -31.0157  -21.4169   22.7392 C   0  0  0  0  0  0  0  0  0  0  0  0
  -35.5323  -21.1662   24.1855 C   0  0  0  0  0  0  0  0  0  0  0  0
  -23.2140   -5.4693   22.0756 C   0  0  0  0  0  0  0  0  0  0  0  0
  -23.8045   -4.4523   22.8256 C   0  0  0  0  0  0  0  0  0  0  0  0
  -31.8496  -20.2161   20.7936 C   0  0  0  0  0  0  0  0  0  0  0  0
  -35.2446  -23.5202   24.6271 C   0  0  0  0  0  0  0  0  0  0  0  0
  -22.0837   -4.6916   24.5046 C   0  0  0  0  0  0  0  0  0  0  0  0
  -23.7483  -10.4861   20.9990 C   0  0  0  0  0  0  0  0  0  0  0  0
  -24.1299  -13.0023   20.8243 C   0  0  0  0  0  0  0  0  0  0  0  0
  -30.2663  -18.9205   29.6325 C   0  0  0  0  0  0  0  0  0  0  0  0
  -30.5461  -19.0885   22.4988 C   0  0  0  0  0  0  0  0  0  0  0  0
  -35.2653  -21.9488   26.4683 C   0  0  0  0  0  0  0  0  0  0  0  0
  -30.7501  -19.7694   28.6188 C   0  0  0  0  0  0  0  0  0  0  0  0
  -31.2580  -19.0683   21.2931 C   0  0  0  0  0  0  0  0  0  0  0  0
  -35.1708  -23.2691   26.0057 C   0  0  0  0  0  0  0  0  0  0  0  0
  -22.2192   -8.2147   21.5330 C   0  0  0  0  0  0  0  0  0  0  0  0
  -31.7295  -21.3965   21.5303 C   0  0  0  0  0  0  0  0  0  0  0  0
  -35.4227  -22.4740   23.7222 C   0  0  0  0  0  0  0  0  0  0  0  0
  -22.0585   -6.0976   22.5401 C   0  0  0  0  0  0  0  0  0  0  0  0
  -23.2393   -4.0634   24.0401 C   0  0  0  0  0  0  0  0  0  0  0  0
  -21.4933   -5.7087   23.7546 C   0  0  0  0  0  0  0  0  0  0  0  0
  -24.5386  -11.6590   20.7237 C   0  0  0  0  0  0  0  0  0  0  0  0
  -25.2380  -13.7267   20.4582 C   0  0  0  0  0  0  0  0  0  0  0  0
  -22.8621  -13.5468   21.2139 C   0  0  0  0  0  0  0  0  0  0  0  0
  -33.0083  -22.6938   28.5788 C   0  0  0  0  0  0  0  0  0  0  0  0
  -35.0922  -25.0423   29.3936 C   0  0  0  0  0  0  0  0  0  0  0  0
  -37.6967  -27.0497   28.4805 C   0  0  0  0  0  0  0  0  0  0  0  0
  -30.7336  -14.6682   20.6962 C   0  0  0  0  0  0  0  0  0  0  0  0
  -29.9045  -19.4439   31.0000 C   0  0  0  0  0  0  0  0  0  0  0  0
  -35.2142  -21.6524   27.9420 C   0  0  0  0  0  0  0  0  0  0  0  0
  -29.9619  -17.7424   22.7978 C   0  0  0  0  0  0  0  0  0  0  0  0
  -31.2171  -17.7067   20.6706 C   0  0  0  0  0  0  0  0  0  0  0  0
  -34.9835  -24.4283   26.9489 C   0  0  0  0  0  0  0  0  0  0  0  0
  -30.5065  -20.8127   31.3071 C   0  0  0  0  0  0  0  0  0  0  0  0
  -29.5912  -12.2450   18.3510 C   0  0  0  0  0  0  0  0  0  0  0  0
  -30.3051  -21.7609   30.1294 C   0  0  0  0  0  0  0  0  0  0  0  0
  -28.1440  -11.9831   18.7714 C   0  0  0  0  0  0  0  0  0  0  0  0
  -30.4959  -12.4806   19.5586 C   0  0  0  0  0  0  0  0  0  0  0  0
  -28.5875  -13.2725   20.9020 C   0  0  0  0  0  0  0  0  0  0  0  0
  -31.0120  -21.2381   28.8730 C   0  0  1  0  0  0  0  0  0  0  0  0
  -34.5010  -22.7360   28.7449 C   0  0  1  0  0  0  0  0  0  0  0  0
  -27.6262  -13.0846   19.7158 C   0  0  2  0  0  0  0  0  0  0  0  0
  -30.8160  -16.8463   21.8830 C   0  0  2  0  0  0  0  0  0  0  0  0
  -39.1587  -28.8961   29.3471 C   0  0  0  0  0  0  0  0  0  0  0  0
  -32.8130  -27.0312   28.9944 C   0  0  0  0  0  0  0  0  0  0  0  0
  -34.5165  -28.8649   28.9335 C   0  0  0  0  0  0  0  0  0  0  0  0
  -34.2509  -27.4794   30.9909 C   0  0  0  0  0  0  0  0  0  0  0  0
  -40.1423  -25.4095   28.1841 C   0  0  0  0  0  0  0  0  0  0  0  0
  -34.3684  -23.6352   20.4542 C   0  0  0  0  0  0  0  0  0  0  0  0
  -33.4892  -22.4056   20.2888 C   0  0  0  0  0  0  0  0  0  0  0  0
  -34.7649  -23.8600   21.9049 C   0  0  0  0  0  0  0  0  0  1  0  0
  -35.3311  -26.4633   28.9432 C   0  0  1  0  0  0  0  0  0  0  0  0
  -38.9983  -27.3928   29.1824 C   0  0  2  0  0  0  0  0  0  0  0  0
  -34.2294  -27.4378   29.4473 C   0  0  0  0  0  0  0  0  0  0  0  0
  -25.8072  -11.5344   20.3248 N   0  0  0  0  0  0  0  0  0  0  0  0
  -26.2052  -12.8089   20.1714 N   0  0  0  0  0  0  0  0  0  0  0  0
  -34.9333  -24.0866   28.3801 N   0  0  0  0  0  0  0  0  0  0  0  0
  -29.9495  -13.5379   20.4127 N   0  0  0  0  0  0  0  0  0  0  0  0
  -25.4695  -15.0528   20.3568 N   0  0  0  0  0  0  0  0  0  0  0  0
  -21.8321  -12.6610   21.5588 N   0  0  0  0  0  0  0  0  0  0  0  0
  -32.4345  -21.4930   28.9505 N   0  0  0  0  0  0  0  0  0  0  0  0
  -36.6796  -26.8086   29.3797 N   0  0  0  0  0  0  0  0  0  0  0  0
  -30.1377  -15.6255   21.5080 N   0  0  0  0  0  0  0  0  0  0  0  0
  -40.1590  -26.8790   28.4015 N   0  3  0  0  0  0  0  0  0  0  0  0
  -22.6438  -14.7818   21.2392 O   0  0  0  0  0  0  0  0  0  0  0  0
  -32.4204  -23.6784   28.1467 O   0  0  0  0  0  0  0  0  0  0  0  0
  -35.0554  -24.7885   30.6002 O   0  0  0  0  0  0  0  0  0  0  0  0
  -37.5918  -27.0041   27.2568 O   0  0  0  0  0  0  0  0  0  0  0  0
  -31.8780  -14.8160   20.2538 O   0  0  0  0  0  0  0  0  0  0  0  0
  -21.4731   -7.1066   21.7939 O   0  0  0  0  0  0  0  0  0  0  0  0
  -32.3080  -22.5491   21.0660 O   0  0  0  0  0  0  0  0  0  0  0  0
  -35.4941  -22.7325   22.3880 O   0  0  0  0  0  0  0  0  0  1  0  0
  -23.8055   -3.0856   24.7595 F   0  0  0  0  0  0  0  0  0  0  0  0
  -20.3826   -6.3077   24.2054 F   0  0  0  0  0  0  0  0  0  0  0  0
  1  2  1  0  0  0  0
  1  5  2  0  0  0  0
  2  6  2  0  0  0  0
  3  9  2  0  0  0  0
  3 18  1  0  0  0  0
  4 10  1  0  0  0  0
  4 18  2  0  0  0  0
  5 20  1  0  0  0  0
  6 23  1  0  0  0  0
  7 11  2  0  0  0  0
  7 21  1  0  0  0  0
  8 12  2  0  0  0  0
  8 22  1  0  0  0  0
  9 26  1  0  0  0  0
 10 26  2  0  0  0  0
 11 27  1  0  0  0  0
 12 28  1  0  0  0  0
 13 14  2  0  0  0  0
 13 29  1  0  0  0  0
 14 30  1  0  0  0  0
 15 24  1  0  0  0  0
 15 27  2  0  0  0  0
 16 25  1  0  0  0  0
 16 28  2  0  0  0  0
 17 30  2  0  0  0  0
 17 31  1  0  0  0  0
 18 32  1  0  0  0  0
 19 32  1  0  0  0  0
 19 33  2  0  0  0  0
 19 34  1  0  0  0  0
 20 23  2  0  0  0  0
 20 39  1  0  0  0  0
 21 24  2  0  0  0  0
 21 41  1  0  0  0  0
 22 25  2  0  0  0  0
 22 40  1  0  0  0  0
 23 50  1  0  0  0  0
 24 42  1  0  0  0  0
 25 43  1  0  0  0  0
 26 80  1  0  0  0  0
 27 81  1  0  0  0  0
 28 82  1  0  0  0  0
 29 31  2  0  0  0  0
 29 80  1  0  0  0  0
 30 83  1  0  0  0  0
 31 84  1  0  0  0  0
 32 65  2  0  0  0  0
 33 66  1  0  0  0  0
 33 69  1  0  0  0  0
 34 70  1  0  0  0  0
 34 75  2  0  0  0  0
 35 51  1  0  0  0  0
 35 71  1  0  0  0  0
 35 76  2  0  0  0  0
 36 62  1  0  0  0  0
 36 67  1  0  0  0  0
 36 77  2  0  0  0  0
 37 63  1  0  0  0  0
 37 72  1  0  0  0  0
 37 78  2  0  0  0  0
 38 68  1  0  0  0  0
 38 73  1  0  0  0  0
 38 79  2  0  0  0  0
 39 44  1  0  0  0  0
 40 51  1  0  0  0  0
 41 53  1  0  0  0  0
 42 53  1  0  0  0  0
 43 67  1  0  0  0  0
 44 46  1  0  0  0  0
 45 47  1  0  0  0  0
 45 48  1  0  0  0  0
 46 50  1  0  0  0  0
 47 52  1  0  0  0  0
 48 68  1  0  0  0  0
 49 52  1  0  0  0  0
 49 68  1  0  0  0  0
 50 71  1  0  0  0  0
 51 67  1  0  0  0  0
 52 66  1  0  0  0  0
 53 73  1  0  0  0  0
 54 63  1  0  0  0  0
 55 64  1  0  0  0  0
 56 64  1  0  0  0  0
 57 64  1  0  0  0  0
 58 74  1  0  0  0  0
 59 60  1  0  0  0  0
 59 61  1  0  0  0  0
 60 81  1  0  0  0  0
 61 82  1  0  0  0  0
 62 64  1  0  0  0  0
 62 72  1  0  0  0  0
 63 74  1  0  0  0  0
 65 66  1  0  0  0  0
M  CHG  1  74   1
M  ISO  4  38 100  61 101  73 100  82 101
M  END
> <Batch ID>
0141

> <Smiles>
CNC(C)C(=O)NC(C(=O)N1Cc2cc([101O:1][101CH2:1]CCOc3ccc4c(c3)CC([100NH:0][100C:0](=O)N3CCCC(n5nc(-c6ccc(Oc7ccc(F)cc7F)cc6)c(C(N)=O)c5N)C3)C4)ccc2CC1C(=O)NC1CCCc2ccccc21)C(C)(C)C

> <Shape>
0.178

> <Color>
0.197

> <Negative vol penalty>
0.000

$$$$

  -OEChem-04052321163D

 86 96  0     1  0  0  0  0  0999 V2000
  -27.9589  -26.8516   11.8148 C   0  0  0  0  0  0  0  0  0  0  0  0
  -28.7627  -26.3488   12.8329 C   0  0  0  0  0  0  0  0  0  0  0  0
  -23.1518   -9.8625   19.9053 C   0  0  0  0  0  0  0  0  0  0  0  0
  -23.8280   -9.8902   22.2246 C   0  0  0  0  0  0  0  0  0  0  0  0
  -27.0717  -27.8942   12.0792 C   0  0  0  0  0  0  0  0  0  0  0  0
  -28.6806  -26.8892   14.1158 C   0  0  0  0  0  0  0  0  0  0  0  0
  -28.5560  -23.3317   17.7178 C   0  0  0  0  0  0  0  0  0  0  0  0
  -22.4204   -8.6967   20.1324 C   0  0  0  0  0  0  0  0  0  0  0  0
  -23.0966   -8.7244   22.4517 C   0  0  0  0  0  0  0  0  0  0  0  0
  -29.7655  -22.7272   18.0576 C   0  0  0  0  0  0  0  0  0  0  0  0
  -19.4366   -7.8506   21.4793 C   0  0  0  0  0  0  0  0  0  0  0  0
  -18.1492   -7.7790   20.9474 C   0  0  0  0  0  0  0  0  0  0  0  0
  -29.9293  -24.1571   19.9935 C   0  0  0  0  0  0  0  0  0  0  0  0
  -31.9625  -17.7321   20.5245 C   0  0  0  0  0  0  0  0  0  0  0  0
  -18.7915   -5.8426   19.6533 C   0  0  0  0  0  0  0  0  0  0  0  0
  -23.8556  -10.4592   20.9513 C   0  0  0  0  0  0  0  0  0  0  0  0
  -24.1557  -12.9898   20.8345 C   0  0  0  0  0  0  0  0  0  0  0  0
  -26.9717  -28.4411   13.3682 C   0  0  0  0  0  0  0  0  0  0  0  0
  -28.0287  -24.3627   18.5085 C   0  0  0  0  0  0  0  0  0  0  0  0
  -27.7922  -27.9409   14.3973 C   0  0  0  0  0  0  0  0  0  0  0  0
  -28.7117  -24.7714   19.6629 C   0  0  0  0  0  0  0  0  0  0  0  0
  -33.7845  -16.3220   21.1037 C   0  0  0  0  0  0  0  0  0  0  0  0
  -32.4987  -16.4500   20.6205 C   0  0  0  0  0  0  0  0  0  0  0  0
  -22.3928   -8.1276   21.4057 C   0  0  0  0  0  0  0  0  0  0  0  0
  -30.4538  -23.1418   19.1941 C   0  0  0  0  0  0  0  0  0  0  0  0
  -20.4015   -6.9182   21.0982 C   0  0  0  0  0  0  0  0  0  0  0  0
  -17.8266   -6.7750   20.0344 C   0  0  0  0  0  0  0  0  0  0  0  0
  -20.0790   -5.9142   20.1852 C   0  0  0  0  0  0  0  0  0  0  0  0
  -24.6118  -11.6632   20.7172 C   0  0  0  0  0  0  0  0  0  0  0  0
  -34.4856  -17.4634   21.4704 C   0  0  0  0  0  0  0  0  0  0  0  0
  -32.7471  -18.8163   20.9185 C   0  0  0  0  0  0  0  0  0  0  0  0
  -25.2464  -13.7580   20.5082 C   0  0  0  0  0  0  0  0  0  0  0  0
  -22.8617  -13.4836   21.2055 C   0  0  0  0  0  0  0  0  0  0  0  0
  -27.3324  -27.4266   18.0273 C   0  0  0  0  0  0  0  0  0  0  0  0
  -26.1004  -27.2140   21.0205 C   0  0  0  0  0  0  0  0  0  0  0  0
  -26.0845  -25.6252   24.0409 C   0  0  0  0  0  0  0  0  0  0  0  0
  -30.4943  -14.9955   20.8552 C   0  0  0  0  0  0  0  0  0  0  0  0
  -26.0320  -29.5988   13.5947 C   0  0  0  0  0  0  0  0  0  0  0  0
  -26.7096  -24.9864   18.1430 C   0  0  0  0  0  0  0  0  0  0  0  0
  -28.1781  -25.8600   20.5565 C   0  0  0  0  0  0  0  0  0  0  0  0
  -34.6019  -15.0991   21.3121 C   0  0  0  0  0  0  0  0  0  0  0  0
  -35.8516  -17.1049   21.9624 C   0  0  0  0  0  0  0  0  0  0  0  0
  -25.7367  -29.8642   15.0687 C   0  0  0  0  0  0  0  0  0  0  0  0
  -29.6889  -12.4894   18.4677 C   0  0  0  0  0  0  0  0  0  0  0  0
  -27.0270  -29.8529   15.8821 C   0  0  0  0  0  0  0  0  0  0  0  0
  -28.2509  -12.1495   18.8576 C   0  0  0  0  0  0  0  0  0  0  0  0
  -31.6627  -13.9098   18.0444 C   0  0  0  0  0  0  0  0  0  0  0  0
  -32.9240  -14.7201   18.0096 C   0  0  0  0  0  0  0  0  0  0  0  0
  -30.5723  -12.7314   19.6922 C   0  0  0  0  0  0  0  0  0  0  0  0
  -28.5954  -13.4038   21.0205 C   0  0  0  0  0  0  0  0  0  0  0  0
  -27.7141  -28.4840   15.8076 C   0  0  1  0  0  0  0  0  0  0  0  0
  -26.5221  -26.3790   18.7370 C   0  0  1  0  0  0  0  0  0  0  0  0
  -27.6708  -13.2112   19.8085 C   0  0  2  0  0  0  0  0  0  0  0  0
  -32.3307  -14.3130   19.3305 C   0  0  0  0  0  0  0  0  0  0  0  0
  -24.9977  -25.7022   26.3015 C   0  0  0  0  0  0  0  0  0  0  0  0
  -27.8316  -29.6126   21.7684 C   0  0  0  0  0  0  0  0  0  0  0  0
  -27.4450  -29.0522   24.1777 C   0  0  0  0  0  0  0  0  0  0  0  0
  -25.5175  -29.6604   22.7156 C   0  0  0  0  0  0  0  0  0  0  0  0
  -24.9491  -22.9115   23.7158 C   0  0  0  0  0  0  0  0  0  0  0  0
  -32.8576  -21.2958   21.1747 C   0  0  0  0  0  0  0  0  0  0  0  0
  -31.9622  -22.4958   20.9155 C   0  0  0  0  0  0  0  0  0  1  0  0
  -26.6406  -27.4152   22.4158 C   0  0  1  0  0  0  0  0  0  0  0  0
  -24.9454  -25.1097   24.9019 C   0  0  2  0  0  0  0  0  0  0  0  0
  -26.8700  -28.9159   22.7517 C   0  0  0  0  0  0  0  0  0  0  0  0
  -25.8925  -11.5892   20.3452 N   0  0  0  0  0  0  0  0  0  0  0  0
  -34.0113  -18.7174   21.3954 N   0  0  0  0  0  0  0  0  0  0  0  0
  -26.2504  -12.8791   20.2259 N   0  0  0  0  0  0  0  0  0  0  0  0
  -26.8878  -26.4433   20.1535 N   0  0  0  0  0  0  0  0  0  0  0  0
  -29.9591  -13.7207   20.5895 N   0  0  0  0  0  0  0  0  0  0  0  0
  -25.4351  -15.0929   20.4380 N   0  0  0  0  0  0  0  0  0  0  0  0
  -21.8549  -12.5571   21.5093 N   0  0  0  0  0  0  0  0  0  0  0  0
  -32.1779  -20.0742   20.8089 N   0  0  0  0  0  0  0  0  0  0  0  0
  -27.0511  -27.5376   16.6790 N   0  0  0  0  0  0  0  0  0  0  0  0
  -25.7130  -26.7368   23.3144 N   0  0  0  0  0  0  0  0  0  0  0  0
  -31.7230  -15.2969   20.2242 N   0  0  0  0  0  0  0  0  0  0  0  0
  -35.9241  -15.5924   21.8724 N   0  3  0  0  0  0  0  0  0  0  0  0
  -25.0139  -23.6255   25.0170 N   0  3  0  0  0  0  0  0  0  0  0  0
  -22.6012  -14.7098   21.2498 O   0  0  0  0  0  0  0  0  0  0  0  0
  -28.1510  -28.0864   18.6567 O   0  0  0  0  0  0  0  0  0  0  0  0
  -25.0162  -27.7159   20.7136 O   0  0  0  0  0  0  0  0  0  0  0  0
  -27.1940  -25.0971   24.0181 O   0  0  0  0  0  0  0  0  0  0  0  0
  -29.9352  -15.7901   21.6207 O   0  0  0  0  0  0  0  0  0  0  0  0
  -21.6791   -6.9902   21.6277 O   0  0  0  0  0  0  0  0  0  0  0  0
  -31.6348  -22.5538   19.5278 O   0  0  0  0  0  0  0  0  0  1  0  0
  -16.5898   -6.7055   19.5248 F   0  0  0  0  0  0  0  0  0  0  0  0
  -21.0014   -5.0149   19.8161 F   0  0  0  0  0  0  0  0  0  0  0  0
  1  2  1  0  0  0  0
  1  5  2  0  0  0  0
  2  6  2  0  0  0  0
  3  8  2  0  0  0  0
  3 16  1  0  0  0  0
  4  9  1  0  0  0  0
  4 16  2  0  0  0  0
  5 18  1  0  0  0  0
  6 20  1  0  0  0  0
  7 10  2  0  0  0  0
  7 19  1  0  0  0  0
  8 24  1  0  0  0  0
  9 24  2  0  0  0  0
 10 25  1  0  0  0  0
 11 12  2  0  0  0  0
 11 26  1  0  0  0  0
 12 27  1  0  0  0  0
 13 21  1  0  0  0  0
 13 25  2  0  0  0  0
 14 23  2  0  0  0  0
 14 31  1  0  0  0  0
 15 27  2  0  0  0  0
 15 28  1  0  0  0  0
 16 29  1  0  0  0  0
 17 29  1  0  0  0  0
 17 32  2  0  0  0  0
 17 33  1  0  0  0  0
 18 20  2  0  0  0  0
 18 38  1  0  0  0  0
 19 21  2  0  0  0  0
 19 39  1  0  0  0  0
 20 51  1  0  0  0  0
 21 40  1  0  0  0  0
 22 23  1  0  0  0  0
 22 30  2  0  0  0  0
 22 41  1  0  0  0  0
 23 75  1  0  0  0  0
 24 83  1  0  0  0  0
 25 84  1  0  0  0  0
 26 28  2  0  0  0  0
 26 83  1  0  0  0  0
 27 85  1  0  0  0  0
 28 86  1  0  0  0  0
 29 65  2  0  0  0  0
 30 42  1  0  0  0  0
 30 66  1  0  0  0  0
 31 66  2  0  0  0  0
 31 72  1  0  0  0  0
 32 67  1  0  0  0  0
 32 70  1  0  0  0  0
 33 71  1  0  0  0  0
 33 78  2  0  0  0  0
 34 52  1  0  0  0  0
 34 73  1  0  0  0  0
 34 79  2  0  0  0  0
 35 62  1  0  0  0  0
 35 68  1  0  0  0  0
 35 80  2  0  0  0  0
 36 63  1  0  0  0  0
 36 74  1  0  0  0  0
 36 81  2  0  0  0  0
 37 69  1  0  0  0  0
 37 75  1  0  0  0  0
 37 82  2  0  0  0  0
 38 43  1  0  0  0  0
 39 52  1  0  0  0  0
 40 68  1  0  0  0  0
 41 76  1  0  0  0  0
 42 76  1  0  0  0  0
 43 45  1  0  0  0  0
 44 46  1  0  0  0  0
 44 49  1  0  0  0  0
 45 51  1  0  0  0  0
 46 53  1  0  0  0  0
 47 48  1  0  0  0  0
 47 54  1  0  0  0  0
 48 54  1  0  0  0  0
 49 69  1  0  0  0  0
 50 53  1  0  0  0  0
 50 69  1  0  0  0  0
 51 73  1  0  0  0  0
 52 68  1  0  0  0  0
 53 67  1  0  0  0  0
 54 75  1  0  0  0  0
 55 63  1  0  0  0  0
 56 64  1  0  0  0  0
 57 64  1  0  0  0  0
 58 64  1  0  0  0  0
 59 77  1  0  0  0  0
 60 61  1  0  0  0  0
 60 72  1  0  0  0  0
 61 84  1  0  0  0  0
 62 64  1  0  0  0  0
 62 74  1  0  0  0  0
 63 77  1  0  0  0  0
 65 67  1  0  0  0  0
M  CHG  2  76   1  77   1
M  ISO  4  37 100  61 101  75 100  84 101
M  END
> <Batch ID>
0141

> <Smiles>
CNC(C)C(=O)NC(C(=O)N1Cc2cc([101O:1][101CH2:1]CNc3cc([100N:0](C4CC4)[100C:0](=O)N4CCCC(n5nc(-c6ccc(Oc7ccc(F)cc7F)cc6)c(C(N)=O)c5N)C4)c4c(n3)CNC4)ccc2CC1C(=O)NC1CCCc2ccccc21)C(C)(C)C

> <Shape>
0.212

> <Color>
0.164

> <Negative vol penalty>
0.000

$$$$

  -OEChem-04052321163D

 86 96  0     1  0  0  0  0  0999 V2000
  -16.8652  -29.0256   24.3963 C   0  0  0  0  0  0  0  0  0  0  0  0
  -17.3474  -28.0260   23.5575 C   0  0  0  0  0  0  0  0  0  0  0  0
  -24.1193  -22.6302   11.9044 C   0  0  0  0  0  0  0  0  0  0  0  0
  -26.1479  -15.2583   22.8010 C   0  0  0  0  0  0  0  0  0  0  0  0
  -25.4269  -15.1097   20.4998 C   0  0  0  0  0  0  0  0  0  0  0  0
  -17.4463  -30.2928   24.3744 C   0  0  0  0  0  0  0  0  0  0  0  0
  -18.4102  -28.2933   22.6954 C   0  0  0  0  0  0  0  0  0  0  0  0
  -25.4859  -22.6867   11.6310 C   0  0  0  0  0  0  0  0  0  0  0  0
  -22.8497  -24.4241   21.0142 C   0  0  0  0  0  0  0  0  0  0  0  0
  -23.6773  -22.2917   13.1833 C   0  0  0  0  0  0  0  0  0  0  0  0
  -25.0775  -14.4522   23.1884 C   0  0  0  0  0  0  0  0  0  0  0  0
  -24.3565  -14.3035   20.8873 C   0  0  0  0  0  0  0  0  0  0  0  0
  -23.0269  -23.6368   19.8773 C   0  0  0  0  0  0  0  0  0  0  0  0
  -23.8519  -11.0680   21.7222 C   0  0  0  0  0  0  0  0  0  0  0  0
  -23.5916   -9.9289   20.9605 C   0  0  0  0  0  0  0  0  0  0  0  0
  -24.4104  -25.3587   18.9078 C   0  0  0  0  0  0  0  0  0  0  0  0
  -21.3819  -10.7683   20.4606 C   0  0  0  0  0  0  0  0  0  0  0  0
  -26.3225  -15.5871   21.4567 C   0  0  0  0  0  0  0  0  0  0  0  0
  -28.7169  -15.9990   20.6790 C   0  0  0  0  0  0  0  0  0  0  0  0
  -18.5231  -30.5731   23.5185 C   0  0  0  0  0  0  0  0  0  0  0  0
  -23.4436  -25.6914   21.1019 C   0  0  0  0  0  0  0  0  0  0  0  0
  -26.4105  -22.4046   12.6365 C   0  0  0  0  0  0  0  0  0  0  0  0
  -19.0054  -29.5659   22.6610 C   0  0  0  0  0  0  0  0  0  0  0  0
  -24.2413  -26.1591   20.0479 C   0  0  0  0  0  0  0  0  0  0  0  0
  -25.9685  -22.0661   13.9155 C   0  0  0  0  0  0  0  0  0  0  0  0
  -24.1819  -13.9747   22.2316 C   0  0  0  0  0  0  0  0  0  0  0  0
  -23.8050  -24.1052   18.8227 C   0  0  0  0  0  0  0  0  0  0  0  0
  -24.6019  -22.0096   14.1889 C   0  0  0  0  0  0  0  0  0  0  0  0
  -22.8772  -12.0572   21.8532 C   0  0  0  0  0  0  0  0  0  0  0  0
  -22.3566   -9.7790   20.3296 C   0  0  0  0  0  0  0  0  0  0  0  0
  -21.6422  -11.9073   21.2224 C   0  0  0  0  0  0  0  0  0  0  0  0
  -27.4276  -16.4203   21.0559 C   0  0  0  0  0  0  0  0  0  0  0  0
  -29.3883  -17.1625   20.3926 C   0  0  0  0  0  0  0  0  0  0  0  0
  -29.2591  -14.6744   20.5951 C   0  0  0  0  0  0  0  0  0  0  0  0
  -22.3547  -28.6640   21.3874 C   0  0  0  0  0  0  0  0  0  0  0  0
  -25.5054  -29.3740   21.6895 C   0  0  0  0  0  0  0  0  0  0  0  0
  -28.7450  -28.4975   21.0706 C   0  0  0  0  0  0  0  0  0  0  0  0
  -27.5702  -22.6007   18.6686 C   0  0  0  0  0  0  0  0  0  0  0  0
  -19.0878  -31.9714   23.4962 C   0  0  0  0  0  0  0  0  0  0  0  0
  -23.2646  -26.5173   22.3463 C   0  0  0  0  0  0  0  0  0  0  0  0
  -24.9172  -27.5041   20.1012 C   0  0  0  0  0  0  0  0  0  0  0  0
  -20.4543  -32.0657   22.8223 C   0  0  0  0  0  0  0  0  0  0  0  0
  -29.5008  -21.8031   21.5518 C   0  0  0  0  0  0  0  0  0  0  0  0
  -28.4034  -21.6508   11.1757 C   0  0  0  0  0  0  0  0  0  0  0  0
  -28.7308  -21.2680   12.5852 C   0  0  0  0  0  0  0  0  0  0  0  0
  -20.4527  -31.3006   21.5027 C   0  0  0  0  0  0  0  0  0  0  0  0
  -29.3047  -20.2951   21.7177 C   0  0  0  0  0  0  0  0  0  0  0  0
  -28.0190  -22.7728   15.3187 C   0  0  0  0  0  0  0  0  0  0  0  0
  -28.2291  -22.4861   21.0538 C   0  0  0  0  0  0  0  0  0  0  0  0
  -27.4610  -20.4005   19.9891 C   0  0  0  0  0  0  0  0  0  0  0  0
  -27.8682  -22.4721   12.3177 C   0  0  0  0  0  0  0  0  0  0  0  0
  -26.9536  -21.7619   14.9985 C   0  0  1  0  0  0  0  0  0  0  0  0
  -20.1728  -29.8101   21.7295 C   0  0  1  0  0  0  0  0  0  0  0  0
  -23.4949  -28.0072   22.1128 C   0  0  1  0  0  0  0  0  0  0  0  0
  -28.7329  -19.6597   20.4361 C   0  0  2  0  0  0  0  0  0  0  0  0
  -26.8903  -22.5532   16.2822 C   0  0  1  0  0  0  0  0  0  0  0  0
  -31.1003  -29.2961   21.4060 C   0  0  0  0  0  0  0  0  0  0  0  0
  -25.1361  -31.4007   19.4386 C   0  0  0  0  0  0  0  0  0  0  0  0
  -27.6255  -31.4605   19.1782 C   0  0  0  0  0  0  0  0  0  0  0  0
  -26.5798  -32.1865   21.3235 C   0  0  0  0  0  0  0  0  0  0  0  0
  -29.4441  -26.1198   22.6882 C   0  0  0  0  0  0  0  0  0  0  0  0
  -22.9037  -22.4273   17.3427 C   0  0  0  0  0  0  0  0  0  1  0  0
  -22.9039  -22.2446   15.8373 C   0  0  0  0  0  0  0  0  0  0  0  0
  -26.6179  -29.7285   20.7326 C   0  0  1  0  0  0  0  0  0  0  0  0
  -29.9665  -28.4546   21.9709 C   0  0  2  0  0  0  0  0  0  0  0  0
  -26.4756  -31.1695   20.1661 C   0  0  0  0  0  0  0  0  0  0  0  0
  -27.2861  -17.7478   21.0140 N   0  0  0  0  0  0  0  0  0  0  0  0
  -28.4952  -18.1707   20.6074 N   0  0  0  0  0  0  0  0  0  0  0  0
  -24.7068  -28.2770   21.3365 N   0  0  0  0  0  0  0  0  0  0  0  0
  -27.7394  -21.8370   19.8353 N   0  0  0  0  0  0  0  0  0  0  0  0
  -30.6495  -17.4113   19.9806 N   0  0  0  0  0  0  0  0  0  0  0  0
  -28.4323  -13.5919   20.9248 N   0  0  0  0  0  0  0  0  0  0  0  0
  -21.3596  -29.1417   22.2188 N   0  0  0  0  0  0  0  0  0  0  0  0
  -27.8653  -29.4891   21.4503 N   0  0  0  0  0  0  0  0  0  0  0  0
  -27.1083  -21.9065   17.5570 N   0  0  0  0  0  0  0  0  0  0  0  0
  -30.4508  -27.0531   22.1205 N   0  3  0  0  0  0  0  0  0  0  0  0
  -30.4468  -14.4582   20.2541 O   0  0  0  0  0  0  0  0  0  0  0  0
  -22.3768  -28.7337   20.1642 O   0  0  0  0  0  0  0  0  0  0  0  0
  -25.3550  -30.0414   22.7160 O   0  0  0  0  0  0  0  0  0  0  0  0
  -28.5888  -27.7307   20.1229 O   0  0  0  0  0  0  0  0  0  0  0  0
  -27.8177  -23.8103   18.6196 O   0  0  0  0  0  0  0  0  0  0  0  0
  -23.1375  -13.1879   22.6092 O   0  0  0  0  0  0  0  0  0  0  0  0
  -23.9790  -23.3390   17.7116 O   0  0  0  0  0  0  0  0  0  1  0  0
  -24.1464  -21.6791   15.4380 O   0  0  0  0  0  0  0  0  0  0  0  0
  -22.1073   -8.6858   19.5968 F   0  0  0  0  0  0  0  0  0  0  0  0
  -20.7023  -12.8548   21.3436 F   0  0  0  0  0  0  0  0  0  0  0  0
  1  2  1  0  0  0  0
  1  6  2  0  0  0  0
  2  7  2  0  0  0  0
  3  8  1  0  0  0  0
  3 10  2  0  0  0  0
  4 11  2  0  0  0  0
  4 18  1  0  0  0  0
  5 12  1  0  0  0  0
  5 18  2  0  0  0  0
  6 20  1  0  0  0  0
  7 23  1  0  0  0  0
  8 22  2  0  0  0  0
  9 13  2  0  0  0  0
  9 21  1  0  0  0  0
 10 28  1  0  0  0  0
 11 26  1  0  0  0  0
 12 26  2  0  0  0  0
 13 27  1  0  0  0  0
 14 15  2  0  0  0  0
 14 29  1  0  0  0  0
 15 30  1  0  0  0  0
 16 24  1  0  0  0  0
 16 27  2  0  0  0  0
 17 30  2  0  0  0  0
 17 31  1  0  0  0  0
 18 32  1  0  0  0  0
 19 32  1  0  0  0  0
 19 33  2  0  0  0  0
 19 34  1  0  0  0  0
 20 23  2  0  0  0  0
 20 39  1  0  0  0  0
 21 24  2  0  0  0  0
 21 40  1  0  0  0  0
 22 25  1  0  0  0  0
 22 51  1  0  0  0  0
 23 53  1  0  0  0  0
 24 41  1  0  0  0  0
 25 28  2  0  0  0  0
 25 52  1  0  0  0  0
 26 82  1  0  0  0  0
 27 83  1  0  0  0  0
 28 84  1  0  0  0  0
 29 31  2  0  0  0  0
 29 82  1  0  0  0  0
 30 85  1  0  0  0  0
 31 86  1  0  0  0  0
 32 67  2  0  0  0  0
 33 68  1  0  0  0  0
 33 71  1  0  0  0  0
 34 72  1  0  0  0  0
 34 77  2  0  0  0  0
 35 54  1  0  0  0  0
 35 73  1  0  0  0  0
 35 78  2  0  0  0  0
 36 64  1  0  0  0  0
 36 69  1  0  0  0  0
 36 79  2  0  0  0  0
 37 65  1  0  0  0  0
 37 74  1  0  0  0  0
 37 80  2  0  0  0  0
 38 70  1  0  0  0  0
 38 75  1  0  0  0  0
 38 81  2  0  0  0  0
 39 42  1  0  0  0  0
 40 54  1  0  0  0  0
 41 69  1  0  0  0  0
 42 46  1  0  0  0  0
 43 47  1  0  0  0  0
 43 49  1  0  0  0  0
 44 45  1  0  0  0  0
 44 51  1  0  0  0  0
 45 51  1  0  0  0  0
 46 53  1  0  0  0  0
 47 55  1  0  0  0  0
 48 52  1  0  0  0  0
 48 56  1  0  0  0  0
 49 70  1  0  0  0  0
 50 55  1  0  0  0  0
 50 70  1  0  0  0  0
 52 56  1  0  0  0  0
 53 73  1  0  0  0  0
 54 69  1  0  0  0  0
 55 68  1  0  0  0  0
 56 75  1  0  0  0  0
 57 65  1  0  0  0  0
 58 66  1  0  0  0  0
 59 66  1  0  0  0  0
 60 66  1  0  0  0  0
 61 76  1  0  0  0  0
 62 63  1  0  0  0  0
 62 83  1  0  0  0  0
 63 84  1  0  0  0  0
 64 66  1  0  0  0  0
 64 74  1  0  0  0  0
 65 76  1  0  0  0  0
 67 68  1  0  0  0  0
M  CHG  1  76   1
M  ISO  4  38 100  62 101  75 100  83 101
M  END
> <Batch ID>
0141

> <Smiles>
CNC(C)C(=O)NC(C(=O)N1Cc2cc([101O:1][101CH2:1]COc3cccc(C4CC4)c3C3CC3[100NH:0][100C:0](=O)N3CCCC(n4nc(-c5ccc(Oc6ccc(F)cc6F)cc5)c(C(N)=O)c4N)C3)ccc2CC1C(=O)NC1CCCc2ccccc21)C(C)(C)C

> <Shape>
0.242

> <Color>
0.067

> <Negative vol penalty>
0.000

$$$$

  -OEChem-04052321163D

 81 90  0     1  0  0  0  0  0999 V2000
  -30.5274  -35.0786   21.1631 C   0  0  0  0  0  0  0  0  0  0  0  0
  -30.6406  -33.9587   20.3455 C   0  0  0  0  0  0  0  0  0  0  0  0
  -23.2553  -10.3740   21.5826 C   0  0  0  0  0  0  0  0  0  0  0  0
  -24.8510   -8.6169   22.0333 C   0  0  0  0  0  0  0  0  0  0  0  0
  -29.8433  -34.9894   22.3747 C   0  0  0  0  0  0  0  0  0  0  0  0
  -30.0705  -32.7487   20.7395 C   0  0  0  0  0  0  0  0  0  0  0  0
  -26.9492  -26.9011   18.0228 C   0  0  0  0  0  0  0  0  0  0  0  0
  -22.2534   -9.4194   21.4077 C   0  0  0  0  0  0  0  0  0  0  0  0
  -23.8491   -7.6622   21.8584 C   0  0  0  0  0  0  0  0  0  0  0  0
  -27.0453  -25.5109   18.0649 C   0  0  0  0  0  0  0  0  0  0  0  0
  -21.6322   -4.7808   21.8857 C   0  0  0  0  0  0  0  0  0  0  0  0
  -21.5522   -3.7456   22.8171 C   0  0  0  0  0  0  0  0  0  0  0  0
  -25.8186  -25.4950   20.1420 C   0  0  0  0  0  0  0  0  0  0  0  0
  -21.1954   -5.3589   24.5797 C   0  0  0  0  0  0  0  0  0  0  0  0
  -25.1212  -20.4546   20.1255 C   0  0  0  0  0  0  0  0  0  0  0  0
  -24.5541   -9.9728   21.8953 C   0  0  0  0  0  0  0  0  0  0  0  0
  -25.9551  -11.5977   23.2753 C   0  0  0  0  0  0  0  0  0  0  0  0
  -29.2562  -33.7801   22.7792 C   0  0  0  0  0  0  0  0  0  0  0  0
  -26.2955  -27.6007   19.0473 C   0  0  0  0  0  0  0  0  0  0  0  0
  -29.3790  -32.6429   21.9582 C   0  0  0  0  0  0  0  0  0  0  0  0
  -25.7134  -26.8939   20.1093 C   0  0  0  0  0  0  0  0  0  0  0  0
  -27.6225  -19.4205   20.0755 C   0  0  0  0  0  0  0  0  0  0  0  0
  -26.2099  -21.3253   20.1913 C   0  0  0  0  0  0  0  0  0  0  0  0
  -27.4962  -20.7908   20.1659 C   0  0  0  0  0  0  0  0  0  0  0  0
  -22.5503   -8.0635   21.5457 C   0  0  0  0  0  0  0  0  0  0  0  0
  -26.4824  -24.8078   19.1260 C   0  0  0  0  0  0  0  0  0  0  0  0
  -21.4940   -6.1051   22.3013 C   0  0  0  0  0  0  0  0  0  0  0  0
  -21.3337   -4.0346   24.1640 C   0  0  0  0  0  0  0  0  0  0  0  0
  -21.2755   -6.3942   23.6483 C   0  0  0  0  0  0  0  0  0  0  0  0
  -25.5896  -10.9584   22.0755 C   0  0  0  0  0  0  0  0  0  0  0  0
  -26.4766  -18.6376   20.0144 C   0  0  0  0  0  0  0  0  0  0  0  0
  -26.9818  -12.4372   22.9180 C   0  0  0  0  0  0  0  0  0  0  0  0
  -25.4150  -11.4462   24.5948 C   0  0  0  0  0  0  0  0  0  0  0  0
  -27.1716  -29.7818   21.1873 C   0  0  0  0  0  0  0  0  0  0  0  0
  -23.9987  -29.8304   21.8600 C   0  0  0  0  0  0  0  0  0  0  0  0
  -20.9982  -28.2058   21.7956 C   0  0  0  0  0  0  0  0  0  0  0  0
  -29.1509  -16.1856   19.3957 C   0  0  0  0  0  0  0  0  0  0  0  0
  -28.5672  -33.7203   24.1195 C   0  0  0  0  0  0  0  0  0  0  0  0
  -26.1773  -29.0984   18.9736 C   0  0  0  0  0  0  0  0  0  0  0  0
  -24.9833  -27.5963   21.2237 C   0  0  0  0  0  0  0  0  0  0  0  0
  -28.8443  -18.5741   20.0226 C   0  0  0  0  0  0  0  0  0  0  0  0
  -26.8452  -17.1843   19.9523 C   0  0  0  0  0  0  0  0  0  0  0  0
  -27.6700  -32.4969   24.2891 C   0  0  0  0  0  0  0  0  0  0  0  0
  -29.6673  -12.7601   18.6670 C   0  0  0  0  0  0  0  0  0  0  0  0
  -28.3940  -31.2359   23.8280 C   0  0  0  0  0  0  0  0  0  0  0  0
  -28.6599  -12.0322   19.5524 C   0  0  0  0  0  0  0  0  0  0  0  0
  -29.0798  -14.0613   18.1382 C   0  0  0  0  0  0  0  0  0  0  0  0
  -27.6392  -14.2909   20.1474 C   0  0  0  0  0  0  0  0  0  0  0  0
  -28.7529  -31.3190   22.3394 C   0  0  1  0  0  0  0  0  0  0  0  0
  -25.9358  -29.7464   20.3334 C   0  0  1  0  0  0  0  0  0  0  0  0
  -28.1766  -12.9490   20.6863 C   0  0  1  0  0  0  0  0  0  0  0  0
  -28.7019  -21.6634   20.2329 C   0  0  0  0  0  0  0  0  0  0  0  0
  -18.5921  -28.4856   22.4510 C   0  0  0  0  0  0  0  0  0  0  0  0
  -24.7368  -29.3238   24.7769 C   0  0  0  0  0  0  0  0  0  0  0  0
  -22.3549  -28.6755   25.1945 C   0  0  0  0  0  0  0  0  0  0  0  0
  -22.9019  -30.9892   24.4392 C   0  0  0  0  0  0  0  0  0  0  0  0
  -20.0839  -27.9449   18.9929 C   0  0  0  0  0  0  0  0  0  0  0  0
  -25.9760  -22.7943   20.2859 C   0  0  0  0  0  0  0  0  0  1  0  0
  -23.0937  -29.0729   22.8013 C   0  0  1  0  0  0  0  0  0  0  0  0
  -19.6200  -28.6531   21.3428 C   0  0  2  0  0  0  0  0  0  0  0  0
  -23.2872  -29.5020   24.2831 C   0  0  0  0  0  0  0  0  0  0  0  0
  -25.2187  -19.1059   20.0388 N   0  0  0  0  0  0  0  0  0  0  0  0
  -26.3242  -11.3576   21.0339 N   0  0  0  0  0  0  0  0  0  0  0  0
  -27.1615  -12.2570   21.5781 N   0  0  0  0  0  0  0  0  0  0  0  0
  -24.8999  -29.0618   21.1097 N   0  0  0  0  0  0  0  0  0  0  0  0
  -28.3213  -17.2040   19.8711 N   0  0  0  0  0  0  0  0  0  0  0  0
  -28.5870  -14.9177   19.2182 N   0  0  0  0  0  0  0  0  0  0  0  0
  -27.7392  -13.3047   23.6224 N   0  0  0  0  0  0  0  0  0  0  0  0
  -24.3626  -10.5406   24.7860 N   0  0  0  0  0  0  0  0  0  0  0  0
  -27.5872  -31.0561   21.5230 N   0  0  0  0  0  0  0  0  0  0  0  0
  -21.7365  -29.2561   22.2985 N   0  0  0  0  0  0  0  0  0  0  0  0
  -19.1767  -27.8537   20.1658 N   0  3  0  0  0  0  0  0  0  0  0  0
  -25.8417  -12.1068   25.5721 O   0  0  0  0  0  0  0  0  0  0  0  0
  -27.7076  -28.7306   21.5182 O   0  0  0  0  0  0  0  0  0  0  0  0
  -23.9045  -31.0582   21.7876 O   0  0  0  0  0  0  0  0  0  0  0  0
  -21.3802  -27.0404   21.7149 O   0  0  0  0  0  0  0  0  0  0  0  0
  -30.3307  -16.4106   19.0949 O   0  0  0  0  0  0  0  0  0  0  0  0
  -21.5729   -7.1318   21.3753 O   0  0  0  0  0  0  0  0  0  0  0  0
  -26.5759  -23.4416   19.1701 O   0  0  0  0  0  0  0  0  0  1  0  0
  -21.2553   -3.0403   25.0581 F   0  0  0  0  0  0  0  0  0  0  0  0
  -21.1407   -7.6644   24.0534 F   0  0  0  0  0  0  0  0  0  0  0  0
  1  2  1  0  0  0  0
  1  5  2  0  0  0  0
  2  6  2  0  0  0  0
  3  8  2  0  0  0  0
  3 16  1  0  0  0  0
  4  9  1  0  0  0  0
  4 16  2  0  0  0  0
  5 18  1  0  0  0  0
  6 20  1  0  0  0  0
  7 10  2  0  0  0  0
  7 19  1  0  0  0  0
  8 25  1  0  0  0  0
  9 25  2  0  0  0  0
 10 26  1  0  0  0  0
 11 12  2  0  0  0  0
 11 27  1  0  0  0  0
 12 28  1  0  0  0  0
 13 21  1  0  0  0  0
 13 26  2  0  0  0  0
 14 28  2  0  0  0  0
 14 29  1  0  0  0  0
 15 23  1  0  0  0  0
 15 62  2  0  0  0  0
 16 30  1  0  0  0  0
 17 30  1  0  0  0  0
 17 32  2  0  0  0  0
 17 33  1  0  0  0  0
 18 20  2  0  0  0  0
 18 38  1  0  0  0  0
 19 21  2  0  0  0  0
 19 39  1  0  0  0  0
 20 49  1  0  0  0  0
 21 40  1  0  0  0  0
 22 24  1  0  0  0  0
 22 31  2  0  0  0  0
 22 41  1  0  0  0  0
 23 24  2  0  0  0  0
 23 58  1  0  0  0  0
 24 52  1  0  0  0  0
 25 78  1  0  0  0  0
 26 79  1  0  0  0  0
 27 29  2  0  0  0  0
 27 78  1  0  0  0  0
 28 80  1  0  0  0  0
 29 81  1  0  0  0  0
 30 63  2  0  0  0  0
 31 42  1  0  0  0  0
 31 62  1  0  0  0  0
 32 64  1  0  0  0  0
 32 68  1  0  0  0  0
 33 69  1  0  0  0  0
 33 73  2  0  0  0  0
 34 50  1  0  0  0  0
 34 70  1  0  0  0  0
 34 74  2  0  0  0  0
 35 59  1  0  0  0  0
 35 65  1  0  0  0  0
 35 75  2  0  0  0  0
 36 60  1  0  0  0  0
 36 71  1  0  0  0  0
 36 76  2  0  0  0  0
 37 66  1  0  0  0  0
 37 67  1  0  0  0  0
 37 77  2  0  0  0  0
 38 43  1  0  0  0  0
 39 50  1  0  0  0  0
 40 65  1  0  0  0  0
 41 66  1  0  0  0  0
 42 66  1  0  0  0  0
 43 45  1  0  0  0  0
 44 46  1  0  0  0  0
 44 47  1  0  0  0  0
 45 49  1  0  0  0  0
 46 51  1  0  0  0  0
 47 67  1  0  0  0  0
 48 51  1  0  0  0  0
 48 67  1  0  0  0  0
 49 70  1  0  0  0  0
 50 65  1  0  0  0  0
 51 64  1  0  0  0  0
 53 60  1  0  0  0  0
 54 61  1  0  0  0  0
 55 61  1  0  0  0  0
 56 61  1  0  0  0  0
 57 72  1  0  0  0  0
 58 79  1  0  0  0  0
 59 61  1  0  0  0  0
 59 71  1  0  0  0  0
 60 72  1  0  0  0  0
 63 64  1  0  0  0  0
M  CHG  1  72   1
M  ISO  4  37 100  58 101  66 100  79 101
M  END
> <Batch ID>
0141

> <Smiles>
CNC(C)C(=O)NC(C(=O)N1Cc2cc([101O:1][101CH2:1]c3cnc4c(c3C)C[100N:0]([100C:0](=O)N3CCCC(n5nc(-c6ccc(Oc7ccc(F)cc7F)cc6)c(C(N)=O)c5N)C3)C4)ccc2CC1C(=O)NC1CCCc2ccccc21)C(C)(C)C

> <Shape>
0.280

> <Color>
0.108

> <Negative vol penalty>
0.000

$$$$

  -OEChem-04052321163D

 83 92  0     1  0  0  0  0  0999 V2000
  -26.0041  -37.9015   20.0917 C   0  0  0  0  0  0  0  0  0  0  0  0
  -26.6215  -36.7058   19.7387 C   0  0  0  0  0  0  0  0  0  0  0  0
  -27.4699  -11.0853   20.5761 C   0  0  0  0  0  0  0  0  0  0  0  0
  -26.8365  -12.6666   18.8628 C   0  0  0  0  0  0  0  0  0  0  0  0
  -25.2850  -37.9882   21.2830 C   0  0  0  0  0  0  0  0  0  0  0  0
  -26.5210  -35.5964   20.5775 C   0  0  0  0  0  0  0  0  0  0  0  0
  -26.1886  -29.7199   18.8855 C   0  0  0  0  0  0  0  0  0  0  0  0
  -26.3341  -10.3259   20.2951 C   0  0  0  0  0  0  0  0  0  0  0  0
  -25.7008  -11.9072   18.5818 C   0  0  0  0  0  0  0  0  0  0  0  0
  -27.1473  -28.7106   18.8075 C   0  0  0  0  0  0  0  0  0  0  0  0
  -23.0284  -10.4381   20.9910 C   0  0  0  0  0  0  0  0  0  0  0  0
  -22.2773   -9.9731   22.0704 C   0  0  0  0  0  0  0  0  0  0  0  0
  -26.4937  -27.9292   20.9941 C   0  0  0  0  0  0  0  0  0  0  0  0
  -28.5507  -20.7023   19.6386 C   0  0  0  0  0  0  0  0  0  0  0  0
  -22.6599   -7.6970   21.3559 C   0  0  0  0  0  0  0  0  0  0  0  0
  -27.7211  -12.2557   19.8600 C   0  0  0  0  0  0  0  0  0  0  0  0
  -30.1674  -12.9155   19.5634 C   0  0  0  0  0  0  0  0  0  0  0  0
  -25.1676  -36.8765   22.1321 C   0  0  0  0  0  0  0  0  0  0  0  0
  -25.3814  -29.8484   20.0249 C   0  0  0  0  0  0  0  0  0  0  0  0
  -25.8007  -35.6687   21.7819 C   0  0  0  0  0  0  0  0  0  0  0  0
  -25.5238  -28.9394   21.0830 C   0  0  0  0  0  0  0  0  0  0  0  0
  -28.7492  -23.0950   19.7808 C   0  0  0  0  0  0  0  0  0  0  0  0
  -28.4243  -21.9565   19.0517 C   0  0  0  0  0  0  0  0  0  0  0  0
  -25.4496  -10.7368   19.2979 C   0  0  0  0  0  0  0  0  0  0  0  0
  -27.3019  -27.8169   19.8631 C   0  0  0  0  0  0  0  0  0  0  0  0
  -23.5952   -9.5326   20.0940 C   0  0  0  0  0  0  0  0  0  0  0  0
  -22.0930   -8.6025   22.2529 C   0  0  0  0  0  0  0  0  0  0  0  0
  -23.4110   -8.1621   20.2765 C   0  0  0  0  0  0  0  0  0  0  0  0
  -28.8938  -13.0408   20.1502 C   0  0  0  0  0  0  0  0  0  0  0  0
  -29.1923  -22.9268   21.0827 C   0  0  0  0  0  0  0  0  0  0  0  0
  -29.0030  -20.6413   20.9468 C   0  0  0  0  0  0  0  0  0  0  0  0
  -30.9245  -13.8839   20.1762 C   0  0  0  0  0  0  0  0  0  0  0  0
  -30.6250  -12.0052   18.5547 C   0  0  0  0  0  0  0  0  0  0  0  0
  -24.9502  -32.1005   22.2262 C   0  0  0  0  0  0  0  0  0  0  0  0
  -22.5865  -30.1187   23.2301 C   0  0  0  0  0  0  0  0  0  0  0  0
  -21.3167  -26.9534   23.3533 C   0  0  0  0  0  0  0  0  0  0  0  0
  -29.5607  -19.0618   22.8285 C   0  0  0  0  0  0  0  0  0  0  0  0
  -24.4195  -37.0321   23.4325 C   0  0  0  0  0  0  0  0  0  0  0  0
  -24.3337  -30.9260   20.0822 C   0  0  0  0  0  0  0  0  0  0  0  0
  -24.6683  -29.0218   22.3198 C   0  0  0  0  0  0  0  0  0  0  0  0
  -24.0470  -35.7027   24.0837 C   0  0  0  0  0  0  0  0  0  0  0  0
  -31.2855  -16.3106   24.2890 C   0  0  0  0  0  0  0  0  0  0  0  0
  -25.2422  -34.7549   24.0838 C   0  0  0  0  0  0  0  0  0  0  0  0
  -30.9888  -15.1499   23.3367 C   0  0  0  0  0  0  0  0  0  0  0  0
  -27.3018  -24.8724   18.5883 C   0  0  0  0  0  0  0  0  0  0  0  0
  -30.0845  -17.2428   24.4384 C   0  0  0  0  0  0  0  0  0  0  0  0
  -29.2305  -16.5838   22.2235 C   0  0  0  0  0  0  0  0  0  0  0  0
  -28.6241  -24.4449   19.1811 C   0  0  1  0  0  0  0  0  0  0  0  0
  -25.6938  -34.4362   22.6534 C   0  0  1  0  0  0  0  0  0  0  0  0
  -23.9176  -31.2797   21.5067 C   0  0  1  0  0  0  0  0  0  0  0  0
  -30.4322  -15.6535   21.9906 C   0  0  2  0  0  0  0  0  0  0  0  0
  -27.7704  -25.4853   19.8725 C   0  0  1  0  0  0  0  0  0  1  0  0
  -27.9392  -22.0525   17.6427 C   0  0  0  0  0  0  0  0  0  0  0  0
  -30.3105  -23.7181   23.1827 C   0  0  0  0  0  0  0  0  0  0  0  0
  -19.3895  -25.6386   24.2777 C   0  0  0  0  0  0  0  0  0  0  0  0
  -23.8529  -30.2177   26.0043 C   0  0  0  0  0  0  0  0  0  0  0  0
  -22.5004  -28.2019   26.6173 C   0  0  0  0  0  0  0  0  0  0  0  0
  -21.3545  -30.3281   25.9935 C   0  0  0  0  0  0  0  0  0  0  0  0
  -20.4166  -26.1517   20.6503 C   0  0  0  0  0  0  0  0  0  0  0  0
  -29.5565  -24.1119   21.9164 C   0  0  0  0  0  0  0  0  0  0  0  0
  -22.4988  -28.9640   24.1986 C   0  0  1  0  0  0  0  0  0  0  0  0
  -19.9226  -26.4162   23.0844 C   0  0  2  0  0  0  0  0  0  0  0  0
  -22.5692  -29.4273   25.6811 C   0  0  0  0  0  0  0  0  0  0  0  0
  -28.8411  -14.0122   21.0655 N   0  0  0  0  0  0  0  0  0  0  0  0
  -29.3281  -21.7250   21.6867 N   0  0  0  0  0  0  0  0  0  0  0  0
  -30.0910  -14.5059   21.0585 N   0  0  0  0  0  0  0  0  0  0  0  0
  -23.6623  -30.0967   22.3311 N   0  0  0  0  0  0  0  0  0  0  0  0
  -29.6142  -17.6830   23.1231 N   0  0  0  0  0  0  0  0  0  0  0  0
  -32.2152  -14.2555   20.0409 N   0  0  0  0  0  0  0  0  0  0  0  0
  -29.7163  -11.0745   18.0327 N   0  0  0  0  0  0  0  0  0  0  0  0
  -29.1287  -19.3589   21.5363 N   0  0  0  0  0  0  0  0  0  0  0  0
  -24.8088  -33.4636   22.0490 N   0  0  0  0  0  0  0  0  0  0  0  0
  -21.2813  -28.2364   23.8571 N   0  0  0  0  0  0  0  0  0  0  0  0
  -19.9359  -25.5103   21.9011 N   0  3  0  0  0  0  0  0  0  0  0  0
  -31.8091  -12.0059   18.1406 O   0  0  0  0  0  0  0  0  0  0  0  0
  -25.8107  -31.5388   22.8939 O   0  0  0  0  0  0  0  0  0  0  0  0
  -21.7280  -31.0038   23.2650 O   0  0  0  0  0  0  0  0  0  0  0  0
  -22.3352  -26.2989   23.1413 O   0  0  0  0  0  0  0  0  0  0  0  0
  -29.9008  -19.9151   23.6520 O   0  0  0  0  0  0  0  0  0  0  0  0
  -24.3413   -9.9959   19.0233 O   0  0  0  0  0  0  0  0  0  0  0  0
  -28.2373  -26.8312   19.7899 O   0  0  0  0  0  0  0  0  0  1  0  0
  -21.3730   -8.1560   23.2904 F   0  0  0  0  0  0  0  0  0  0  0  0
  -23.9540   -7.2874   19.4187 F   0  0  0  0  0  0  0  0  0  0  0  0
  1  2  1  0  0  0  0
  1  5  2  0  0  0  0
  2  6  2  0  0  0  0
  3  8  2  0  0  0  0
  3 16  1  0  0  0  0
  4  9  1  0  0  0  0
  4 16  2  0  0  0  0
  5 18  1  0  0  0  0
  6 20  1  0  0  0  0
  7 10  2  0  0  0  0
  7 19  1  0  0  0  0
  8 24  1  0  0  0  0
  9 24  2  0  0  0  0
 10 25  1  0  0  0  0
 11 12  2  0  0  0  0
 11 26  1  0  0  0  0
 12 27  1  0  0  0  0
 13 21  1  0  0  0  0
 13 25  2  0  0  0  0
 14 23  2  0  0  0  0
 14 31  1  0  0  0  0
 15 27  2  0  0  0  0
 15 28  1  0  0  0  0
 16 29  1  0  0  0  0
 17 29  1  0  0  0  0
 17 32  2  0  0  0  0
 17 33  1  0  0  0  0
 18 20  2  0  0  0  0
 18 38  1  0  0  0  0
 19 21  2  0  0  0  0
 19 39  1  0  0  0  0
 20 49  1  0  0  0  0
 21 40  1  0  0  0  0
 22 23  1  0  0  0  0
 22 30  2  0  0  0  0
 22 48  1  0  0  0  0
 23 53  1  0  0  0  0
 24 80  1  0  0  0  0
 25 81  1  0  0  0  0
 26 28  2  0  0  0  0
 26 80  1  0  0  0  0
 27 82  1  0  0  0  0
 28 83  1  0  0  0  0
 29 64  2  0  0  0  0
 30 60  1  0  0  0  0
 30 65  1  0  0  0  0
 31 65  2  0  0  0  0
 31 71  1  0  0  0  0
 32 66  1  0  0  0  0
 32 69  1  0  0  0  0
 33 70  1  0  0  0  0
 33 75  2  0  0  0  0
 34 50  1  0  0  0  0
 34 72  1  0  0  0  0
 34 76  2  0  0  0  0
 35 61  1  0  0  0  0
 35 67  1  0  0  0  0
 35 77  2  0  0  0  0
 36 62  1  0  0  0  0
 36 73  1  0  0  0  0
 36 78  2  0  0  0  0
 37 68  1  0  0  0  0
 37 71  1  0  0  0  0
 37 79  2  0  0  0  0
 38 41  1  0  0  0  0
 39 50  1  0  0  0  0
 40 67  1  0  0  0  0
 41 43  1  0  0  0  0
 42 44  1  0  0  0  0
 42 46  1  0  0  0  0
 43 49  1  0  0  0  0
 44 51  1  0  0  0  0
 45 48  1  0  0  0  0
 45 52  1  0  0  0  0
 46 68  1  0  0  0  0
 47 51  1  0  0  0  0
 47 68  1  0  0  0  0
 48 52  1  0  0  0  0
 49 72  1  0  0  0  0
 50 67  1  0  0  0  0
 51 66  1  0  0  0  0
 52 81  1  0  0  0  0
 54 60  1  0  0  0  0
 55 62  1  0  0  0  0
 56 63  1  0  0  0  0
 57 63  1  0  0  0  0
 58 63  1  0  0  0  0
 59 74  1  0  0  0  0
 61 63  1  0  0  0  0
 61 73  1  0  0  0  0
 62 74  1  0  0  0  0
 64 66  1  0  0  0  0
M  CHG  1  74   1
M  ISO  4  37 100  52 101  71 100  81 101
M  END
> <Batch ID>
0141

> <Smiles>
CCc1nc([100NH:0][100C:0](=O)N2CCCC(n3nc(-c4ccc(Oc5ccc(F)cc5F)cc4)c(C(N)=O)c3N)C2)cc(C)c1C1C[101CH:1]1[101O:1]c1ccc2c(c1)CN(C(=O)C(NC(=O)C(C)NC)C(C)(C)C)C(C(=O)NC1CCCc3ccccc31)C2

> <Shape>
0.315

> <Color>
0.082

> <Negative vol penalty>
0.000

$$$$

  -OEChem-04052321163D

 84 93  0     1  0  0  0  0  0999 V2000
  -32.8711  -32.5194   18.6247 C   0  0  0  0  0  0  0  0  0  0  0  0
  -32.4783  -31.2128   18.8965 C   0  0  0  0  0  0  0  0  0  0  0  0
  -23.0133   -9.8759   19.8975 C   0  0  0  0  0  0  0  0  0  0  0  0
  -23.9886   -9.5504   22.0838 C   0  0  0  0  0  0  0  0  0  0  0  0
  -32.1974  -33.5863   19.2180 C   0  0  0  0  0  0  0  0  0  0  0  0
  -31.4123  -30.9722   19.7626 C   0  0  0  0  0  0  0  0  0  0  0  0
  -28.2210  -27.4636   17.9877 C   0  0  0  0  0  0  0  0  0  0  0  0
  -31.3556  -18.5002   20.5411 C   0  0  0  0  0  0  0  0  0  0  0  0
  -22.3057   -8.6818   20.0353 C   0  0  0  0  0  0  0  0  0  0  0  0
  -23.2810   -8.3563   22.2217 C   0  0  0  0  0  0  0  0  0  0  0  0
  -28.6100  -26.1301   18.1077 C   0  0  0  0  0  0  0  0  0  0  0  0
  -31.0062  -19.6678   19.8628 C   0  0  0  0  0  0  0  0  0  0  0  0
  -20.1314   -7.4040   22.9923 C   0  0  0  0  0  0  0  0  0  0  0  0
  -19.4901   -7.1692   24.2085 C   0  0  0  0  0  0  0  0  0  0  0  0
  -29.2406  -18.5450   21.7079 C   0  0  0  0  0  0  0  0  0  0  0  0
  -27.1985  -25.8994   20.0503 C   0  0  0  0  0  0  0  0  0  0  0  0
  -20.8112   -5.1704   24.5194 C   0  0  0  0  0  0  0  0  0  0  0  0
  -23.8548  -10.3102   20.9217 C   0  0  0  0  0  0  0  0  0  0  0  0
  -24.1639  -12.8312   21.1602 C   0  0  0  0  0  0  0  0  0  0  0  0
  -31.1164  -33.3590   20.0842 C   0  0  0  0  0  0  0  0  0  0  0  0
  -27.3248  -28.0289   18.9062 C   0  0  0  0  0  0  0  0  0  0  0  0
  -30.7244  -32.0370   20.3690 C   0  0  0  0  0  0  0  0  0  0  0  0
  -28.8911  -19.7127   21.0297 C   0  0  0  0  0  0  0  0  0  0  0  0
  -26.7978  -27.2396   19.9383 C   0  0  0  0  0  0  0  0  0  0  0  0
  -30.4728  -17.9387   21.4636 C   0  0  0  0  0  0  0  0  0  0  0  0
  -22.4395   -7.9220   21.1974 C   0  0  0  0  0  0  0  0  0  0  0  0
  -28.1010  -25.3486   19.1408 C   0  0  0  0  0  0  0  0  0  0  0  0
  -29.7739  -20.2741   20.1071 C   0  0  0  0  0  0  0  0  0  0  0  0
  -21.1127   -6.5220   22.5396 C   0  0  0  0  0  0  0  0  0  0  0  0
  -19.8299   -6.0525   24.9720 C   0  0  0  0  0  0  0  0  0  0  0  0
  -21.4525   -5.4052   23.3031 C   0  0  0  0  0  0  0  0  0  0  0  0
  -24.5865  -11.5434   20.7797 C   0  0  0  0  0  0  0  0  0  0  0  0
  -25.2105  -13.6515   20.8164 C   0  0  0  0  0  0  0  0  0  0  0  0
  -22.9352  -13.2486   21.7699 C   0  0  0  0  0  0  0  0  0  0  0  0
  -27.4725  -30.4049   21.0126 C   0  0  0  0  0  0  0  0  0  0  0  0
  -24.3103  -29.7719   21.3623 C   0  0  0  0  0  0  0  0  0  0  0  0
  -21.7565  -27.5258   21.0793 C   0  0  0  0  0  0  0  0  0  0  0  0
  -30.6791  -14.7523   20.6476 C   0  0  0  0  0  0  0  0  0  0  0  0
  -30.4492  -34.5427   20.7387 C   0  0  0  0  0  0  0  0  0  0  0  0
  -26.8945  -29.4614   18.7472 C   0  0  0  0  0  0  0  0  0  0  0  0
  -25.8171  -27.7933   20.9384 C   0  0  0  0  0  0  0  0  0  0  0  0
  -29.0904  -34.2140   21.3517 C   0  0  0  0  0  0  0  0  0  0  0  0
  -29.3375  -12.7345   18.0390 C   0  0  0  0  0  0  0  0  0  0  0  0
  -26.3168  -19.5281   21.1425 C   0  0  0  0  0  0  0  0  0  0  0  0
  -26.6303  -20.6078   20.1545 C   0  0  0  0  0  0  0  0  0  0  0  0
  -29.1701  -32.9278   22.1680 C   0  0  0  0  0  0  0  0  0  0  0  0
  -27.9502  -12.3461   18.5536 C   0  0  0  0  0  0  0  0  0  0  0  0
  -30.3633  -12.7902   19.1689 C   0  0  0  0  0  0  0  0  0  0  0  0
  -28.5969  -13.2588   20.8224 C   0  0  0  0  0  0  0  0  0  0  0  0
  -27.5691  -20.3486   21.3030 C   0  0  0  0  0  0  0  0  0  0  0  0
  -29.5569  -31.7362   21.2837 C   0  0  1  0  0  0  0  0  0  0  0  0
  -26.3731  -30.0760   20.0426 C   0  0  1  0  0  0  0  0  0  0  0  0
  -27.5162  -13.2439   19.7279 C   0  0  2  0  0  0  0  0  0  0  0  0
  -19.2904  -27.2866   21.4769 C   0  0  0  0  0  0  0  0  0  0  0  0
  -24.8207  -29.5171   24.3598 C   0  0  0  0  0  0  0  0  0  0  0  0
  -22.6042  -28.3719   24.5692 C   0  0  0  0  0  0  0  0  0  0  0  0
  -22.7168  -30.7285   23.7591 C   0  0  0  0  0  0  0  0  0  0  0  0
  -21.2286  -26.9965   18.2157 C   0  0  0  0  0  0  0  0  0  0  0  0
  -30.8459  -16.6902   22.1890 C   0  0  0  0  0  0  0  0  0  0  0  0
  -29.7869  -23.7059   18.8015 C   0  0  0  0  0  0  0  0  0  1  0  0
  -30.3091  -22.5388   19.6167 C   0  0  0  0  0  0  0  0  0  0  0  0
  -23.4940  -28.8589   22.2449 C   0  0  1  0  0  0  0  0  0  0  0  0
  -20.3715  -27.6469   20.4699 C   0  0  2  0  0  0  0  0  0  0  0  0
  -23.4289  -29.3589   23.7157 C   0  0  0  0  0  0  0  0  0  0  0  0
  -25.8063  -11.5407   20.2357 N   0  0  0  0  0  0  0  0  0  0  0  0
  -26.1592  -12.8369   20.2718 N   0  0  0  0  0  0  0  0  0  0  0  0
  -25.4319  -29.2010   20.7446 N   0  0  0  0  0  0  0  0  0  0  0  0
  -29.8918  -13.6591   20.2499 N   0  0  0  0  0  0  0  0  0  0  0  0
  -25.4026  -14.9829   20.9297 N   0  0  0  0  0  0  0  0  0  0  0  0
  -21.9673  -12.2763   22.0561 N   0  0  0  0  0  0  0  0  0  0  0  0
  -28.4157  -31.2845   20.5167 N   0  0  0  0  0  0  0  0  0  0  0  0
  -22.1917  -28.7257   21.6009 N   0  0  0  0  0  0  0  0  0  0  0  0
  -30.1558  -15.5284   21.6746 N   0  0  0  0  0  0  0  0  0  0  0  0
  -20.2412  -26.7388   19.2954 N   0  3  0  0  0  0  0  0  0  0  0  0
  -22.6959  -14.4505   22.0376 O   0  0  0  0  0  0  0  0  0  0  0  0
  -27.4646  -29.8992   22.1288 O   0  0  0  0  0  0  0  0  0  0  0  0
  -23.9614  -30.9466   21.2205 O   0  0  0  0  0  0  0  0  0  0  0  0
  -22.3877  -26.4713   21.0947 O   0  0  0  0  0  0  0  0  0  0  0  0
  -31.7651  -15.0202   20.1226 O   0  0  0  0  0  0  0  0  0  0  0  0
  -21.7490   -6.7569   21.3323 O   0  0  0  0  0  0  0  0  0  0  0  0
  -28.4795  -24.0470   19.2606 O   0  0  0  0  0  0  0  0  0  1  0  0
  -29.4486  -21.4213   19.4324 O   0  0  0  0  0  0  0  0  0  0  0  0
  -19.2150   -5.8280   26.1407 F   0  0  0  0  0  0  0  0  0  0  0  0
  -22.3952   -4.5549   22.8740 F   0  0  0  0  0  0  0  0  0  0  0  0
  1  2  1  0  0  0  0
  1  5  2  0  0  0  0
  2  6  2  0  0  0  0
  3  9  2  0  0  0  0
  3 18  1  0  0  0  0
  4 10  1  0  0  0  0
  4 18  2  0  0  0  0
  5 20  1  0  0  0  0
  6 22  1  0  0  0  0
  7 11  2  0  0  0  0
  7 21  1  0  0  0  0
  8 12  2  0  0  0  0
  8 25  1  0  0  0  0
  9 26  1  0  0  0  0
 10 26  2  0  0  0  0
 11 27  1  0  0  0  0
 12 28  1  0  0  0  0
 13 14  2  0  0  0  0
 13 29  1  0  0  0  0
 14 30  1  0  0  0  0
 15 23  1  0  0  0  0
 15 25  2  0  0  0  0
 16 24  1  0  0  0  0
 16 27  2  0  0  0  0
 17 30  2  0  0  0  0
 17 31  1  0  0  0  0
 18 32  1  0  0  0  0
 19 32  1  0  0  0  0
 19 33  2  0  0  0  0
 19 34  1  0  0  0  0
 20 22  2  0  0  0  0
 20 39  1  0  0  0  0
 21 24  2  0  0  0  0
 21 40  1  0  0  0  0
 22 51  1  0  0  0  0
 23 28  2  0  0  0  0
 23 50  1  0  0  0  0
 24 41  1  0  0  0  0
 25 59  1  0  0  0  0
 26 80  1  0  0  0  0
 27 81  1  0  0  0  0
 28 82  1  0  0  0  0
 29 31  2  0  0  0  0
 29 80  1  0  0  0  0
 30 83  1  0  0  0  0
 31 84  1  0  0  0  0
 32 65  2  0  0  0  0
 33 66  1  0  0  0  0
 33 69  1  0  0  0  0
 34 70  1  0  0  0  0
 34 75  2  0  0  0  0
 35 52  1  0  0  0  0
 35 71  1  0  0  0  0
 35 76  2  0  0  0  0
 36 62  1  0  0  0  0
 36 67  1  0  0  0  0
 36 77  2  0  0  0  0
 37 63  1  0  0  0  0
 37 72  1  0  0  0  0
 37 78  2  0  0  0  0
 38 68  1  0  0  0  0
 38 73  1  0  0  0  0
 38 79  2  0  0  0  0
 39 42  1  0  0  0  0
 40 52  1  0  0  0  0
 41 67  1  0  0  0  0
 42 46  1  0  0  0  0
 43 47  1  0  0  0  0
 43 48  1  0  0  0  0
 44 45  1  0  0  0  0
 44 50  1  0  0  0  0
 45 50  1  0  0  0  0
 46 51  1  0  0  0  0
 47 53  1  0  0  0  0
 48 68  1  0  0  0  0
 49 53  1  0  0  0  0
 49 68  1  0  0  0  0
 51 71  1  0  0  0  0
 52 67  1  0  0  0  0
 53 66  1  0  0  0  0
 54 63  1  0  0  0  0
 55 64  1  0  0  0  0
 56 64  1  0  0  0  0
 57 64  1  0  0  0  0
 58 74  1  0  0  0  0
 59 73  1  0  0  0  0
 60 61  1  0  0  0  0
 60 81  1  0  0  0  0
 61 82  1  0  0  0  0
 62 64  1  0  0  0  0
 62 72  1  0  0  0  0
 63 74  1  0  0  0  0
 65 66  1  0  0  0  0
M  CHG  1  74   1
M  ISO  4  38 100  60 101  73 100  81 101
M  END
> <Batch ID>
0141

> <Smiles>
CNC(C)C(=O)NC(C(=O)N1Cc2cc([101O:1][101CH2:1]COc3ccc(C[100NH:0][100C:0](=O)N4CCCC(n5nc(-c6ccc(Oc7ccc(F)cc7F)cc6)c(C(N)=O)c5N)C4)cc3C3CC3)ccc2CC1C(=O)NC1CCCc2ccccc21)C(C)(C)C

> <Shape>
0.342

> <Color>
0.207

> <Negative vol penalty>
0.000

$$$$

  -OEChem-04052321163D

 89100  0     1  0  0  0  0  0999 V2000
  -19.0589  -30.6392   25.0693 C   0  0  0  0  0  0  0  0  0  0  0  0
  -20.4253  -30.4606   24.8786 C   0  0  0  0  0  0  0  0  0  0  0  0
  -24.7885   -8.2353   20.8217 C   0  0  0  0  0  0  0  0  0  0  0  0
  -23.0682   -9.6749   19.9242 C   0  0  0  0  0  0  0  0  0  0  0  0
  -18.1510  -29.7935   24.4333 C   0  0  0  0  0  0  0  0  0  0  0  0
  -20.8847  -29.4355   24.0526 C   0  0  0  0  0  0  0  0  0  0  0  0
  -25.8249  -29.5568   20.4351 C   0  0  0  0  0  0  0  0  0  0  0  0
  -28.2062  -24.1925   22.0929 C   0  0  0  0  0  0  0  0  0  0  0  0
  -23.8149   -7.3171   21.2149 C   0  0  0  0  0  0  0  0  0  0  0  0
  -22.0946   -8.7566   20.3175 C   0  0  0  0  0  0  0  0  0  0  0  0
  -27.1207  -29.0698   20.6004 C   0  0  0  0  0  0  0  0  0  0  0  0
  -28.0743  -25.5184   21.6749 C   0  0  0  0  0  0  0  0  0  0  0  0
  -21.5872   -6.9747   23.7338 C   0  0  0  0  0  0  0  0  0  0  0  0
  -21.6901   -6.4307   25.0140 C   0  0  0  0  0  0  0  0  0  0  0  0
  -29.8170  -25.2139   20.0037 C   0  0  0  0  0  0  0  0  0  0  0  0
  -26.5150  -27.0673   19.3995 C   0  0  0  0  0  0  0  0  0  0  0  0
  -21.8571   -4.2173   24.0600 C   0  0  0  0  0  0  0  0  0  0  0  0
  -24.4151   -9.4143   20.1764 C   0  0  0  0  0  0  0  0  0  0  0  0
  -26.0996  -10.4075   18.5382 C   0  0  0  0  0  0  0  0  0  0  0  0
  -18.5993  -28.7635   23.5914 C   0  0  0  0  0  0  0  0  0  0  0  0
  -24.8597  -28.7966   19.7590 C   0  0  0  0  0  0  0  0  0  0  0  0
  -19.9821  -28.5744   23.4057 C   0  0  0  0  0  0  0  0  0  0  0  0
  -29.1503  -23.3970   21.4652 C   0  0  0  0  0  0  0  0  0  0  0  0
  -29.9500  -23.9042   20.4326 C   0  0  0  0  0  0  0  0  0  0  0  0
  -25.2083  -27.5480   19.2246 C   0  0  0  0  0  0  0  0  0  0  0  0
  -22.4680   -7.5777   20.9628 C   0  0  0  0  0  0  0  0  0  0  0  0
  -27.4652  -27.8237   20.0851 C   0  0  0  0  0  0  0  0  0  0  0  0
  -28.8734  -26.0252   20.6376 C   0  0  0  0  0  0  0  0  0  1  0  0
  -21.6192   -6.1401   22.6166 C   0  0  0  0  0  0  0  0  0  0  0  0
  -21.8250   -5.0520   25.1771 C   0  0  0  0  0  0  0  0  0  0  0  0
  -21.7542   -4.7614   22.7797 C   0  0  0  0  0  0  0  0  0  0  0  0
  -25.4202  -10.3635   19.7704 C   0  0  0  0  0  0  0  0  0  0  0  0
  -26.9428  -11.4860   18.6494 C   0  0  0  0  0  0  0  0  0  0  0  0
  -25.9791   -9.5503   17.3953 C   0  0  0  0  0  0  0  0  0  0  0  0
  -22.0666  -27.5016   20.5497 C   0  0  0  0  0  0  0  0  0  0  0  0
  -21.9398  -26.7963   17.3861 C   0  0  0  0  0  0  0  0  0  0  0  0
  -23.6259  -26.2514   14.4693 C   0  0  0  0  0  0  0  0  0  0  0  0
  -26.4922  -16.3647   22.0545 C   0  0  0  0  0  0  0  0  0  0  0  0
  -17.5815  -27.8450   22.9628 C   0  0  0  0  0  0  0  0  0  0  0  0
  -23.4736  -29.3477   19.5657 C   0  0  0  0  0  0  0  0  0  0  0  0
  -30.8567  -22.8449   19.8877 C   0  0  0  0  0  0  0  0  0  0  0  0
  -24.2147  -26.7017   18.4731 C   0  0  0  0  0  0  0  0  0  0  0  0
  -18.1390  -27.0180   21.8071 C   0  0  0  0  0  0  0  0  0  0  0  0
  -30.8230  -21.8111   21.0254 C   0  0  0  0  0  0  0  0  0  0  0  0
  -29.3653  -14.0440   21.8582 C   0  0  0  0  0  0  0  0  0  0  0  0
  -19.4812  -26.4026   22.1898 C   0  0  0  0  0  0  0  0  0  0  0  0
  -28.7062  -12.8164   21.2377 C   0  0  0  0  0  0  0  0  0  0  0  0
  -28.4076  -14.8142   22.7666 C   0  0  0  0  0  0  0  0  0  0  0  0
  -26.4694  -13.9606   21.4744 C   0  0  0  0  0  0  0  0  0  0  0  0
  -24.6824  -21.1140   21.1500 C   0  0  0  0  0  0  0  0  0  0  0  0
  -25.4983  -22.9925   21.5469 C   0  0  0  0  0  0  0  0  0  0  0  0
  -28.6641  -19.6366   21.5219 C   0  0  0  0  0  0  0  0  0  0  0  0
  -20.5186  -27.4892   22.4976 C   0  0  1  0  0  0  0  0  0  0  0  0
  -29.4535  -21.9523   21.7133 C   0  0  2  0  0  0  0  0  0  0  0  0
  -22.4306  -28.2647   19.3076 C   0  0  1  0  0  0  0  0  0  0  0  0
  -26.0645  -21.7266   20.8919 C   0  0  0  0  0  0  0  0  0  0  0  0
  -27.1259  -19.5282   21.6173 C   0  0  2  0  0  0  0  0  0  0  0  0
  -27.4060  -13.2060   20.5190 C   0  0  2  0  0  0  0  0  0  0  0  0
  -27.1598  -21.0712   21.7424 C   0  0  1  0  0  0  0  0  0  0  0  0
  -23.2530  -25.6578   12.0598 C   0  0  0  0  0  0  0  0  0  0  0  0
  -21.4402  -23.8931   18.1811 C   0  0  0  0  0  0  0  0  0  0  0  0
  -22.0205  -23.2249   15.8391 C   0  0  0  0  0  0  0  0  0  0  0  0
  -20.0556  -24.7023   16.2621 C   0  0  0  0  0  0  0  0  0  0  0  0
  -24.8212  -28.7935   13.5377 C   0  0  0  0  0  0  0  0  0  0  0  0
  -26.5715  -18.7620   22.8008 C   0  0  0  0  0  0  0  0  0  0  0  0
  -22.3895  -25.6367   16.5304 C   0  0  1  0  0  0  0  0  0  0  0  0
  -23.4098  -26.7876   13.0657 C   0  0  2  0  0  0  0  0  0  0  0  0
  -21.4949  -24.3791   16.7190 C   0  0  0  0  0  0  0  0  0  0  0  0
  -25.7992  -11.3365   20.6032 N   0  0  0  0  0  0  0  0  0  0  0  0
  -26.7260  -12.0020   19.8931 N   0  0  0  0  0  0  0  0  0  0  0  0
  -22.8705  -27.2813   18.3158 N   0  0  0  0  0  0  0  0  0  0  0  0
  -27.1367  -15.1152   22.0884 N   0  0  0  0  0  0  0  0  0  0  0  0
  -27.8413  -12.0336   17.8036 N   0  0  0  0  0  0  0  0  0  0  0  0
  -25.0645   -8.4896   17.4491 N   0  0  0  0  0  0  0  0  0  0  0  0
  -21.0296  -28.0621   21.2708 N   0  0  0  0  0  0  0  0  0  0  0  0
  -22.4382  -26.1353   15.1602 N   0  0  0  0  0  0  0  0  0  0  0  0
  -27.1292  -17.3955   22.7385 N   0  0  0  0  0  0  0  0  0  0  0  0
  -24.1487  -22.4856   21.2377 N   0  3  0  0  0  0  0  0  0  0  0  0
  -28.4793  -21.0324   21.0715 N   0  3  2  0  0  0  0  0  0  0  0  0
  -24.5662  -27.6304   12.6494 N   0  3  0  0  0  0  0  0  0  0  0  0
  -26.6740   -9.7099   16.3632 O   0  0  0  0  0  0  0  0  0  0  0  0
  -22.6802  -26.4791   20.8322 O   0  0  0  0  0  0  0  0  0  0  0  0
  -20.8072  -27.2594   17.2302 O   0  0  0  0  0  0  0  0  0  0  0  0
  -24.7367  -25.9609   14.9077 O   0  0  0  0  0  0  0  0  0  0  0  0
  -25.4224  -16.5534   21.4653 O   0  0  0  0  0  0  0  0  0  0  0  0
  -21.5178   -6.6818   21.3462 O   0  0  0  0  0  0  0  0  0  0  0  0
  -28.7292  -27.3457   20.2457 O   0  0  0  0  0  0  0  0  0  1  0  0
  -21.9253   -4.5298   26.4065 F   0  0  0  0  0  0  0  0  0  0  0  0
  -21.7868   -3.9546   21.7102 F   0  0  0  0  0  0  0  0  0  0  0  0
  1  2  1  0  0  0  0
  1  5  2  0  0  0  0
  2  6  2  0  0  0  0
  3  9  2  0  0  0  0
  3 18  1  0  0  0  0
  4 10  1  0  0  0  0
  4 18  2  0  0  0  0
  5 20  1  0  0  0  0
  6 22  1  0  0  0  0
  7 11  2  0  0  0  0
  7 21  1  0  0  0  0
  8 12  2  0  0  0  0
  8 23  1  0  0  0  0
  9 26  1  0  0  0  0
 10 26  2  0  0  0  0
 11 27  1  0  0  0  0
 12 28  1  0  0  0  0
 13 14  2  0  0  0  0
 13 29  1  0  0  0  0
 14 30  1  0  0  0  0
 15 24  1  0  0  0  0
 15 28  2  0  0  0  0
 16 25  1  0  0  0  0
 16 27  2  0  0  0  0
 17 30  2  0  0  0  0
 17 31  1  0  0  0  0
 18 32  1  0  0  0  0
 19 32  1  0  0  0  0
 19 33  2  0  0  0  0
 19 34  1  0  0  0  0
 20 22  2  0  0  0  0
 20 39  1  0  0  0  0
 21 25  2  0  0  0  0
 21 40  1  0  0  0  0
 22 53  1  0  0  0  0
 23 24  2  0  0  0  0
 23 54  1  0  0  0  0
 24 41  1  0  0  0  0
 25 42  1  0  0  0  0
 26 86  1  0  0  0  0
 27 87  1  0  0  0  0
 28 87  1  0  0  0  0
 29 31  2  0  0  0  0
 29 86  1  0  0  0  0
 30 88  1  0  0  0  0
 31 89  1  0  0  0  0
 32 69  2  0  0  0  0
 33 70  1  0  0  0  0
 33 73  1  0  0  0  0
 34 74  1  0  0  0  0
 34 81  2  0  0  0  0
 35 55  1  0  0  0  0
 35 75  1  0  0  0  0
 35 82  2  0  0  0  0
 36 66  1  0  0  0  0
 36 71  1  0  0  0  0
 36 83  2  0  0  0  0
 37 67  1  0  0  0  0
 37 76  1  0  0  0  0
 37 84  2  0  0  0  0
 38 72  1  0  0  0  0
 38 77  1  0  0  0  0
 38 85  2  0  0  0  0
 39 43  1  0  0  0  0
 40 55  1  0  0  0  0
 41 44  1  0  0  0  0
 42 71  1  0  0  0  0
 43 46  1  0  0  0  0
 44 54  1  0  0  0  0
 45 47  1  0  0  0  0
 45 48  1  0  0  0  0
 46 53  1  0  0  0  0
 47 58  1  0  0  0  0
 48 72  1  0  0  0  0
 49 58  1  0  0  0  0
 49 72  1  0  0  0  0
 50 56  1  0  0  0  0
 50 78  1  0  0  0  0
 51 56  1  0  0  0  0
 51 78  1  0  0  0  0
 52 57  1  0  0  0  0
 52 79  1  0  0  0  0
 53 75  1  0  0  0  0
 54 79  1  0  0  0  0
 55 71  1  0  0  0  0
 56 59  1  0  0  0  0
 57 59  1  0  0  0  0
 57 65  1  0  0  0  0
 58 70  1  0  0  0  0
 59 79  1  0  0  0  0
 60 67  1  0  0  0  0
 61 68  1  0  0  0  0
 62 68  1  0  0  0  0
 63 68  1  0  0  0  0
 64 80  1  0  0  0  0
 65 77  1  0  0  0  0
 66 68  1  0  0  0  0
 66 76  1  0  0  0  0
 67 80  1  0  0  0  0
 69 70  1  0  0  0  0
M  CHG  3  78   1  79   1  80   1
M  ISO  4  28 101  38 100  77 100  87 101
M  END
> <Batch ID>
0141

> <Smiles>
CNC(C)C(=O)NC(C(=O)N1Cc2cc([101O:1][101c:1]3ccc4c(c3)CCC4N3CC(C[100NH:0][100C:0](=O)N4CCCC(n5nc(-c6ccc(Oc7ccc(F)cc7F)cc6)c(C(N)=O)c5N)C4)C3C3CNC3)ccc2CC1C(=O)NC1CCCc2ccccc21)C(C)(C)C

> <Shape>
0.277

> <Color>
0.099

> <Negative vol penalty>
0.000

$$$$

  -OEChem-04052321163D

 81 89  0     1  0  0  0  0  0999 V2000
  -25.1283  -26.5570   18.2664 C   0  0  0  0  0  0  0  0  0  0  0  0
  -25.8484  -25.9440   19.2867 C   0  0  0  0  0  0  0  0  0  0  0  0
  -23.0122   -9.8925   19.9695 C   0  0  0  0  0  0  0  0  0  0  0  0
  -23.7459   -9.9260   22.2711 C   0  0  0  0  0  0  0  0  0  0  0  0
  -25.3120  -26.1525   16.9448 C   0  0  0  0  0  0  0  0  0  0  0  0
  -26.7520  -24.9253   18.9861 C   0  0  0  0  0  0  0  0  0  0  0  0
  -32.0593  -23.7598   21.8109 C   0  0  0  0  0  0  0  0  0  0  0  0
  -22.2528   -8.7515   20.2281 C   0  0  0  0  0  0  0  0  0  0  0  0
  -22.9864   -8.7850   22.5298 C   0  0  0  0  0  0  0  0  0  0  0  0
  -32.4143  -22.8427   22.7991 C   0  0  0  0  0  0  0  0  0  0  0  0
  -23.2469   -5.4519   22.0259 C   0  0  0  0  0  0  0  0  0  0  0  0
  -23.8427   -4.4310   22.7663 C   0  0  0  0  0  0  0  0  0  0  0  0
  -33.1945  -21.3207   21.0979 C   0  0  0  0  0  0  0  0  0  0  0  0
  -29.8620  -17.4555   23.1312 C   0  0  0  0  0  0  0  0  0  0  0  0
  -32.0432  -16.5752   22.5794 C   0  0  0  0  0  0  0  0  0  0  0  0
  -22.1240   -4.6490   24.4502 C   0  0  0  0  0  0  0  0  0  0  0  0
  -23.7588  -10.4798   20.9910 C   0  0  0  0  0  0  0  0  0  0  0  0
  -24.1299  -12.9989   20.8369 C   0  0  0  0  0  0  0  0  0  0  0  0
  -26.2254  -25.1349   16.6268 C   0  0  0  0  0  0  0  0  0  0  0  0
  -32.2596  -23.4593   20.4559 C   0  0  0  0  0  0  0  0  0  0  0  0
  -26.9471  -24.5059   17.6592 C   0  0  0  0  0  0  0  0  0  0  0  0
  -32.8436  -22.2368   20.0946 C   0  0  0  0  0  0  0  0  0  0  0  0
  -30.4491  -18.3475   24.0286 C   0  0  0  0  0  0  0  0  0  0  0  0
  -32.6303  -17.4672   23.4767 C   0  0  0  0  0  0  0  0  0  0  0  0
  -31.8332  -18.3534   24.2013 C   0  0  0  0  0  0  0  0  0  0  0  0
  -30.6591  -16.5693   22.4067 C   0  0  0  0  0  0  0  0  0  0  0  0
  -22.2399   -8.1977   21.5083 C   0  0  0  0  0  0  0  0  0  0  0  0
  -32.9793  -21.6217   22.4426 C   0  0  0  0  0  0  0  0  0  0  0  0
  -22.0896   -6.0715   22.4977 C   0  0  0  0  0  0  0  0  0  0  0  0
  -23.2813   -4.0295   23.9784 C   0  0  0  0  0  0  0  0  0  0  0  0
  -21.5281   -5.6700   23.7098 C   0  0  0  0  0  0  0  0  0  0  0  0
  -24.5439  -11.6581   20.7243 C   0  0  0  0  0  0  0  0  0  0  0  0
  -25.2344  -13.7309   20.4751 C   0  0  0  0  0  0  0  0  0  0  0  0
  -22.8606  -13.5349   21.2333 C   0  0  0  0  0  0  0  0  0  0  0  0
  -30.3610  -23.1185   17.9295 C   0  0  0  0  0  0  0  0  0  0  0  0
  -33.1757  -22.8668   16.3367 C   0  0  0  0  0  0  0  0  0  0  0  0
  -36.5032  -22.1152   16.4352 C   0  0  0  0  0  0  0  0  0  0  0  0
  -30.7095  -14.7193   20.6974 C   0  0  0  0  0  0  0  0  0  0  0  0
  -26.3552  -24.6993   15.1887 C   0  0  0  0  0  0  0  0  0  0  0  0
  -31.8959  -24.4704   19.4034 C   0  0  0  0  0  0  0  0  0  0  0  0
  -33.0982  -21.8744   18.6550 C   0  0  0  0  0  0  0  0  0  0  0  0
  -27.6068  -23.8696   14.9142 C   0  0  0  0  0  0  0  0  0  0  0  0
  -29.5956  -12.2821   18.3530 C   0  0  0  0  0  0  0  0  0  0  0  0
  -27.7772  -22.7919   15.9802 C   0  0  0  0  0  0  0  0  0  0  0  0
  -28.1480  -12.0128   18.7702 C   0  0  0  0  0  0  0  0  0  0  0  0
  -30.4994  -12.5192   19.5616 C   0  0  0  0  0  0  0  0  0  0  0  0
  -28.5849  -13.2853   20.9096 C   0  0  0  0  0  0  0  0  0  0  0  0
  -27.9546  -23.4142   17.3705 C   0  0  1  0  0  0  0  0  0  0  0  0
  -31.6710  -23.8476   18.0290 C   0  0  1  0  0  0  0  0  0  0  0  0
  -27.6237  -13.1048   19.7233 C   0  0  2  0  0  0  0  0  0  0  0  0
  -29.5733  -19.2858   24.7927 C   0  0  0  0  0  0  0  0  0  0  0  0
  -34.1146  -17.4533   23.6431 C   0  0  0  0  0  0  0  0  0  0  0  0
  -38.5332  -21.9656   14.9675 C   0  0  0  0  0  0  0  0  0  0  0  0
  -32.1419  -20.2400   15.1787 C   0  0  0  0  0  0  0  0  0  0  0  0
  -34.4927  -19.6864   14.5188 C   0  0  0  0  0  0  0  0  0  0  0  0
  -33.3654  -21.6889   13.5484 C   0  0  0  0  0  0  0  0  0  0  0  0
  -37.9299  -24.1825   18.0002 C   0  0  0  0  0  0  0  0  0  0  0  0
  -32.4683  -19.3192   25.1720 C   0  0  0  0  0  0  0  0  0  0  0  0
  -32.5584  -20.7330   24.6080 C   0  0  0  0  0  0  0  0  0  1  0  0
  -34.0974  -21.7296   15.9680 C   0  0  1  0  0  0  0  0  0  0  0  0
  -37.7181  -22.8500   15.8983 C   0  0  2  0  0  0  0  0  0  0  0  0
  -33.5179  -20.8419   14.8306 C   0  0  0  0  0  0  0  0  0  0  0  0
  -25.8124  -11.5422   20.3222 N   0  0  0  0  0  0  0  0  0  0  0  0
  -26.2049  -12.8195   20.1789 N   0  0  0  0  0  0  0  0  0  0  0  0
  -32.7196  -22.8935   17.6623 N   0  0  0  0  0  0  0  0  0  0  0  0
  -29.9418  -13.5692   20.4168 N   0  0  0  0  0  0  0  0  0  0  0  0
  -25.4604  -15.0587   20.3845 N   0  0  0  0  0  0  0  0  0  0  0  0
  -21.8348  -12.6420   21.5724 N   0  0  0  0  0  0  0  0  0  0  0  0
  -30.0631  -15.6637   21.4942 N   0  0  0  0  0  0  0  0  0  0  0  0
  -29.3032  -23.9138   17.5322 N   0  0  0  0  0  0  0  0  0  0  0  0
  -35.3875  -22.3348   15.6552 N   0  0  0  0  0  0  0  0  0  0  0  0
  -38.5966  -23.2872   17.0199 N   0  3  0  0  0  0  0  0  0  0  0  0
  -22.6373  -14.7687   21.2693 O   0  0  0  0  0  0  0  0  0  0  0  0
  -30.3138  -21.9224   18.1921 O   0  0  0  0  0  0  0  0  0  0  0  0
  -32.8772  -23.7047   15.4821 O   0  0  0  0  0  0  0  0  0  0  0  0
  -36.5409  -21.4133   17.4434 O   0  0  0  0  0  0  0  0  0  0  0  0
  -31.8457  -14.8686   20.2404 O   0  0  0  0  0  0  0  0  0  0  0  0
  -21.4988   -7.0844   21.7611 O   0  0  0  0  0  0  0  0  0  0  0  0
  -33.3261  -20.7244   23.4051 O   0  0  0  0  0  0  0  0  0  1  0  0
  -23.8527   -3.0480   24.6886 F   0  0  0  0  0  0  0  0  0  0  0  0
  -20.4158   -6.2607   24.1676 F   0  0  0  0  0  0  0  0  0  0  0  0
  1  2  1  0  0  0  0
  1  5  2  0  0  0  0
  2  6  2  0  0  0  0
  3  8  2  0  0  0  0
  3 17  1  0  0  0  0
  4  9  1  0  0  0  0
  4 17  2  0  0  0  0
  5 19  1  0  0  0  0
  6 21  1  0  0  0  0
  7 10  2  0  0  0  0
  7 20  1  0  0  0  0
  8 27  1  0  0  0  0
  9 27  2  0  0  0  0
 10 28  1  0  0  0  0
 11 12  2  0  0  0  0
 11 29  1  0  0  0  0
 12 30  1  0  0  0  0
 13 22  1  0  0  0  0
 13 28  2  0  0  0  0
 14 23  2  0  0  0  0
 14 26  1  0  0  0  0
 15 24  1  0  0  0  0
 15 26  2  0  0  0  0
 16 30  2  0  0  0  0
 16 31  1  0  0  0  0
 17 32  1  0  0  0  0
 18 32  1  0  0  0  0
 18 33  2  0  0  0  0
 18 34  1  0  0  0  0
 19 21  2  0  0  0  0
 19 39  1  0  0  0  0
 20 22  2  0  0  0  0
 20 40  1  0  0  0  0
 21 48  1  0  0  0  0
 22 41  1  0  0  0  0
 23 25  1  0  0  0  0
 23 51  1  0  0  0  0
 24 25  2  0  0  0  0
 24 52  1  0  0  0  0
 25 58  1  0  0  0  0
 26 69  1  0  0  0  0
 27 78  1  0  0  0  0
 28 79  1  0  0  0  0
 29 31  2  0  0  0  0
 29 78  1  0  0  0  0
 30 80  1  0  0  0  0
 31 81  1  0  0  0  0
 32 63  2  0  0  0  0
 33 64  1  0  0  0  0
 33 67  1  0  0  0  0
 34 68  1  0  0  0  0
 34 73  2  0  0  0  0
 35 49  1  0  0  0  0
 35 70  1  0  0  0  0
 35 74  2  0  0  0  0
 36 60  1  0  0  0  0
 36 65  1  0  0  0  0
 36 75  2  0  0  0  0
 37 61  1  0  0  0  0
 37 71  1  0  0  0  0
 37 76  2  0  0  0  0
 38 66  1  0  0  0  0
 38 69  1  0  0  0  0
 38 77  2  0  0  0  0
 39 42  1  0  0  0  0
 40 49  1  0  0  0  0
 41 65  1  0  0  0  0
 42 44  1  0  0  0  0
 43 45  1  0  0  0  0
 43 46  1  0  0  0  0
 44 48  1  0  0  0  0
 45 50  1  0  0  0  0
 46 66  1  0  0  0  0
 47 50  1  0  0  0  0
 47 66  1  0  0  0  0
 48 70  1  0  0  0  0
 49 65  1  0  0  0  0
 50 64  1  0  0  0  0
 53 61  1  0  0  0  0
 54 62  1  0  0  0  0
 55 62  1  0  0  0  0
 56 62  1  0  0  0  0
 57 72  1  0  0  0  0
 58 59  1  0  0  0  0
 59 79  1  0  0  0  0
 60 62  1  0  0  0  0
 60 71  1  0  0  0  0
 61 72  1  0  0  0  0
 63 64  1  0  0  0  0
M  CHG  1  72   1
M  ISO  4  38 100  59 101  69 100  79 101
M  END
> <Batch ID>
0141

> <Smiles>
CNC(C)C(=O)NC(C(=O)N1Cc2cc([101O:1][101CH2:1]Cc3c(C)cc([100NH:0][100C:0](=O)N4CCCC(n5nc(-c6ccc(Oc7ccc(F)cc7F)cc6)c(C(N)=O)c5N)C4)cc3C)ccc2CC1C(=O)NC1CCCc2ccccc21)C(C)(C)C

> <Shape>
0.213

> <Color>
0.207

> <Negative vol penalty>
0.000

$$$$

  -OEChem-04052321163D

 87 96  0     1  0  0  0  0  0999 V2000
  -27.1565  -37.5272   20.9044 C   0  0  0  0  0  0  0  0  0  0  0  0
  -27.7411  -36.2935   20.6364 C   0  0  0  0  0  0  0  0  0  0  0  0
  -24.4128   -9.2408   21.4569 C   0  0  0  0  0  0  0  0  0  0  0  0
  -24.2982  -10.7818   23.3142 C   0  0  0  0  0  0  0  0  0  0  0  0
  -26.1339  -37.6226   21.8472 C   0  0  0  0  0  0  0  0  0  0  0  0
  -27.3041  -35.1547   21.3121 C   0  0  0  0  0  0  0  0  0  0  0  0
  -26.9567  -29.4599   19.0862 C   0  0  0  0  0  0  0  0  0  0  0  0
  -26.7831  -20.9858   21.4632 C   0  0  0  0  0  0  0  0  0  0  0  0
  -24.1568   -8.1779   22.3230 C   0  0  0  0  0  0  0  0  0  0  0  0
  -24.0422   -9.7189   24.1803 C   0  0  0  0  0  0  0  0  0  0  0  0
  -27.8035  -28.3575   19.1937 C   0  0  0  0  0  0  0  0  0  0  0  0
  -26.8290  -22.1747   20.7295 C   0  0  0  0  0  0  0  0  0  0  0  0
  -23.1756   -5.0995   23.9890 C   0  0  0  0  0  0  0  0  0  0  0  0
  -22.2417   -4.1450   23.5860 C   0  0  0  0  0  0  0  0  0  0  0  0
  -29.1110  -21.7239   20.0319 C   0  0  0  0  0  0  0  0  0  0  0  0
  -30.0314  -19.4791   20.9901 C   0  0  0  0  0  0  0  0  0  0  0  0
  -26.4781  -27.5260   21.0297 C   0  0  0  0  0  0  0  0  0  0  0  0
  -20.5425   -5.8582   23.4659 C   0  0  0  0  0  0  0  0  0  0  0  0
  -29.0882  -20.5205   20.7646 C   0  0  0  0  0  0  0  0  0  0  0  0
  -24.4836  -10.5428   21.9525 C   0  0  0  0  0  0  0  0  0  0  0  0
  -23.8033  -12.4147   20.3585 C   0  0  0  0  0  0  0  0  0  0  0  0
  -25.6775  -36.4827   22.5277 C   0  0  0  0  0  0  0  0  0  0  0  0
  -25.8688  -29.6094   19.9583 C   0  0  0  0  0  0  0  0  0  0  0  0
  -26.2753  -35.2351   22.2659 C   0  0  0  0  0  0  0  0  0  0  0  0
  -25.6175  -28.6298   20.9296 C   0  0  0  0  0  0  0  0  0  0  0  0
  -27.9272  -20.1799   21.4619 C   0  0  0  0  0  0  0  0  0  0  0  0
  -23.9715   -8.4169   23.6847 C   0  0  0  0  0  0  0  0  0  0  0  0
  -27.9739  -22.5399   20.0241 C   0  0  0  0  0  0  0  0  0  0  0  0
  -27.5659  -27.3918   20.1674 C   0  0  0  0  0  0  0  0  0  0  0  0
  -22.7929   -6.4334   24.1306 C   0  0  0  0  0  0  0  0  0  0  0  0
  -20.9252   -4.5243   23.3244 C   0  0  0  0  0  0  0  0  0  0  0  0
  -21.4763   -6.8127   23.8691 C   0  0  0  0  0  0  0  0  0  0  0  0
  -24.7486  -11.6412   21.0584 C   0  0  0  0  0  0  0  0  0  0  0  0
  -29.4360  -18.5441   21.8050 C   0  0  0  0  0  0  0  0  0  0  0  0
  -24.5561  -13.3218   19.6535 C   0  0  0  0  0  0  0  0  0  0  0  0
  -22.3726  -12.3218   20.3468 C   0  0  0  0  0  0  0  0  0  0  0  0
  -25.0199  -31.7623   22.1372 C   0  0  0  0  0  0  0  0  0  0  0  0
  -22.3009  -29.9974   22.2555 C   0  0  0  0  0  0  0  0  0  0  0  0
  -20.7745  -26.9893   21.7372 C   0  0  0  0  0  0  0  0  0  0  0  0
  -30.0232  -15.6135   20.4962 C   0  0  0  0  0  0  0  0  0  0  0  0
  -24.6017  -36.6432   23.5726 C   0  0  0  0  0  0  0  0  0  0  0  0
  -24.9492  -30.7906   19.8120 C   0  0  0  0  0  0  0  0  0  0  0  0
  -24.4513  -28.7333   21.8770 C   0  0  0  0  0  0  0  0  0  0  0  0
  -23.9404  -35.3269   23.9730 C   0  0  0  0  0  0  0  0  0  0  0  0
  -28.8603  -13.8478   17.6315 C   0  0  0  0  0  0  0  0  0  0  0  0
  -24.9954  -34.2550   24.2272 C   0  0  0  0  0  0  0  0  0  0  0  0
  -27.5893  -13.1518   18.1218 C   0  0  0  0  0  0  0  0  0  0  0  0
  -29.9337  -13.8924   18.7167 C   0  0  0  0  0  0  0  0  0  0  0  0
  -28.2241  -13.7805   20.4883 C   0  0  0  0  0  0  0  0  0  0  0  0
  -25.8118  -33.9729   22.9602 C   0  0  1  0  0  0  0  0  0  0  0  0
  -24.1714  -31.1038   21.0865 C   0  0  1  0  0  0  0  0  0  0  0  0
  -27.0923  -13.7606   19.4468 C   0  0  2  0  0  0  0  0  0  0  0  0
  -18.5536  -25.8428   21.9612 C   0  0  0  0  0  0  0  0  0  0  0  0
  -25.9740  -17.8414   22.1248 C   0  0  0  0  0  0  0  0  0  0  0  0
  -26.8390  -19.0667   24.1636 C   0  0  0  0  0  0  0  0  0  0  0  0
  -22.7131  -29.7936   25.2719 C   0  0  0  0  0  0  0  0  0  0  0  0
  -21.0679  -27.9065   25.2990 C   0  0  0  0  0  0  0  0  0  0  0  0
  -20.3449  -30.1787   24.5663 C   0  0  0  0  0  0  0  0  0  0  0  0
  -20.6285  -26.4514   18.8306 C   0  0  0  0  0  0  0  0  0  0  0  0
  -29.9739  -17.2756   22.3385 C   0  0  0  0  0  0  0  0  0  0  0  0
  -29.2467  -24.3620   19.1780 C   0  0  0  0  0  0  0  0  0  0  0  0
  -29.0222  -25.8585   19.0791 C   0  0  0  0  0  0  0  0  0  1  0  0
  -21.8345  -28.8046   23.0547 C   0  0  1  0  0  0  0  0  0  0  0  0
  -19.4762  -26.6255   21.0398 C   0  0  2  0  0  0  0  0  0  0  0  0
  -27.2136  -18.2680   22.9137 C   0  0  0  0  0  0  0  0  0  0  0  0
  -21.5133  -29.1696   24.5315 C   0  0  0  0  0  0  0  0  0  0  0  0
  -26.0060  -12.0233   20.8196 N   0  0  0  0  0  0  0  0  0  0  0  0
  -28.1669  -18.9754   22.0840 N   0  0  0  0  0  0  0  0  0  0  0  0
  -25.8560  -13.0469   19.9617 N   0  0  0  0  0  0  0  0  0  0  0  0
  -23.5845  -29.9098   21.6983 N   0  0  0  0  0  0  0  0  0  0  0  0
  -29.3984  -14.4820   19.9463 N   0  0  0  0  0  0  0  0  0  0  0  0
  -24.2264  -14.3196   18.8062 N   0  0  0  0  0  0  0  0  0  0  0  0
  -21.7609  -11.3325   21.1288 N   0  0  0  0  0  0  0  0  0  0  0  0
  -25.0572  -33.1408   22.0477 N   0  0  0  0  0  0  0  0  0  0  0  0
  -20.7085  -28.2367   22.3211 N   0  0  0  0  0  0  0  0  0  0  0  0
  -29.4484  -16.1127   21.6586 N   0  0  0  0  0  0  0  0  0  0  0  0
  -19.7512  -25.7946   19.8337 N   0  3  0  0  0  0  0  0  0  0  0  0
  -21.6586  -13.0825   19.6503 O   0  0  0  0  0  0  0  0  0  0  0  0
  -25.5968  -31.0712   22.9686 O   0  0  0  0  0  0  0  0  0  0  0  0
  -21.5510  -30.9680   22.1243 O   0  0  0  0  0  0  0  0  0  0  0  0
  -21.7485  -26.2402   21.7647 O   0  0  0  0  0  0  0  0  0  0  0  0
  -31.0162  -16.1430   19.9859 O   0  0  0  0  0  0  0  0  0  0  0  0
  -23.7214   -7.3799   24.5301 O   0  0  0  0  0  0  0  0  0  0  0  0
  -27.9889  -23.7116   19.3142 O   0  0  0  0  0  0  0  0  0  0  0  0
  -28.3913  -26.3152   20.2749 O   0  0  0  0  0  0  0  0  0  1  0  0
  -20.0289   -3.6079   22.9359 F   0  0  0  0  0  0  0  0  0  0  0  0
  -21.1030   -8.0928   24.0022 F   0  0  0  0  0  0  0  0  0  0  0  0
  1  2  1  0  0  0  0
  1  5  2  0  0  0  0
  2  6  2  0  0  0  0
  3  9  2  0  0  0  0
  3 20  1  0  0  0  0
  4 10  1  0  0  0  0
  4 20  2  0  0  0  0
  5 22  1  0  0  0  0
  6 24  1  0  0  0  0
  7 11  2  0  0  0  0
  7 23  1  0  0  0  0
  8 12  2  0  0  0  0
  8 26  1  0  0  0  0
  9 27  1  0  0  0  0
 10 27  2  0  0  0  0
 11 29  1  0  0  0  0
 12 28  1  0  0  0  0
 13 14  2  0  0  0  0
 13 30  1  0  0  0  0
 14 31  1  0  0  0  0
 15 19  1  0  0  0  0
 15 28  2  0  0  0  0
 16 19  1  0  0  0  0
 16 34  2  0  0  0  0
 17 25  1  0  0  0  0
 17 29  2  0  0  0  0
 18 31  2  0  0  0  0
 18 32  1  0  0  0  0
 19 26  2  0  0  0  0
 20 33  1  0  0  0  0
 21 33  1  0  0  0  0
 21 35  2  0  0  0  0
 21 36  1  0  0  0  0
 22 24  2  0  0  0  0
 22 41  1  0  0  0  0
 23 25  2  0  0  0  0
 23 42  1  0  0  0  0
 24 50  1  0  0  0  0
 25 43  1  0  0  0  0
 26 68  1  0  0  0  0
 27 83  1  0  0  0  0
 28 84  1  0  0  0  0
 29 85  1  0  0  0  0
 30 32  2  0  0  0  0
 30 83  1  0  0  0  0
 31 86  1  0  0  0  0
 32 87  1  0  0  0  0
 33 67  2  0  0  0  0
 34 60  1  0  0  0  0
 34 68  1  0  0  0  0
 35 69  1  0  0  0  0
 35 72  1  0  0  0  0
 36 73  1  0  0  0  0
 36 78  2  0  0  0  0
 37 51  1  0  0  0  0
 37 74  1  0  0  0  0
 37 79  2  0  0  0  0
 38 63  1  0  0  0  0
 38 70  1  0  0  0  0
 38 80  2  0  0  0  0
 39 64  1  0  0  0  0
 39 75  1  0  0  0  0
 39 81  2  0  0  0  0
 40 71  1  0  0  0  0
 40 76  1  0  0  0  0
 40 82  2  0  0  0  0
 41 44  1  0  0  0  0
 42 51  1  0  0  0  0
 43 70  1  0  0  0  0
 44 46  1  0  0  0  0
 45 47  1  0  0  0  0
 45 48  1  0  0  0  0
 46 50  1  0  0  0  0
 47 52  1  0  0  0  0
 48 71  1  0  0  0  0
 49 52  1  0  0  0  0
 49 71  1  0  0  0  0
 50 74  1  0  0  0  0
 51 70  1  0  0  0  0
 52 69  1  0  0  0  0
 53 64  1  0  0  0  0
 54 65  1  0  0  0  0
 55 65  1  0  0  0  0
 56 66  1  0  0  0  0
 57 66  1  0  0  0  0
 58 66  1  0  0  0  0
 59 77  1  0  0  0  0
 60 76  1  0  0  0  0
 61 62  1  0  0  0  0
 61 84  1  0  0  0  0
 62 85  1  0  0  0  0
 63 66  1  0  0  0  0
 63 75  1  0  0  0  0
 64 77  1  0  0  0  0
 65 68  1  0  0  0  0
 67 69  1  0  0  0  0
M  CHG  1  77   1
M  ISO  4  40 100  62 101  76 100  85 101
M  END
> <Batch ID>
0141

> <Smiles>
CNC(C)C(=O)NC(C(=O)N1Cc2cc([101O:1][101CH2:1]COc3ccc4c(c3)cc(C[100NH:0][100C:0](=O)N3CCCC(n5nc(-c6ccc(Oc7ccc(F)cc7F)cc6)c(C(N)=O)c5N)C3)n4C(C)C)ccc2CC1C(=O)NC1CCCc2ccccc21)C(C)(C)C

> <Shape>
0.361

> <Color>
0.109

> <Negative vol penalty>
0.000

$$$$

  -OEChem-04052321163D

 83 92  0     1  0  0  0  0  0999 V2000
  -15.3727  -28.3764   22.6773 C   0  0  0  0  0  0  0  0  0  0  0  0
  -15.3663  -27.0426   22.2821 C   0  0  0  0  0  0  0  0  0  0  0  0
  -29.4558  -23.3290   21.1270 C   0  0  0  0  0  0  0  0  0  0  0  0
  -27.4681  -23.1886   19.7609 C   0  0  0  0  0  0  0  0  0  0  0  0
  -16.5828  -29.0231   22.9251 C   0  0  0  0  0  0  0  0  0  0  0  0
  -16.5702  -26.3549   22.1334 C   0  0  0  0  0  0  0  0  0  0  0  0
  -19.3906  -19.8118   22.8751 C   0  0  0  0  0  0  0  0  0  0  0  0
  -29.4985  -24.7082   20.9233 C   0  0  0  0  0  0  0  0  0  0  0  0
  -27.5107  -24.5679   19.5572 C   0  0  0  0  0  0  0  0  0  0  0  0
  -20.1303  -18.8704   22.1606 C   0  0  0  0  0  0  0  0  0  0  0  0
  -26.8891  -28.1021   18.9729 C   0  0  0  0  0  0  0  0  0  0  0  0
  -25.6951  -28.8132   19.0919 C   0  0  0  0  0  0  0  0  0  0  0  0
  -22.1561  -20.0670   22.6928 C   0  0  0  0  0  0  0  0  0  0  0  0
  -25.4851  -28.0771   21.3835 C   0  0  0  0  0  0  0  0  0  0  0  0
  -23.6083  -14.0756   20.0485 C   0  0  0  0  0  0  0  0  0  0  0  0
  -28.4406  -22.5692   20.5458 C   0  0  0  0  0  0  0  0  0  0  0  0
  -27.7334  -20.4575   21.7901 C   0  0  0  0  0  0  0  0  0  0  0  0
  -17.8017  -28.3402   22.7886 C   0  0  0  0  0  0  0  0  0  0  0  0
  -20.0281  -20.8957   23.4957 C   0  0  0  0  0  0  0  0  0  0  0  0
  -17.7978  -26.9934   22.3782 C   0  0  0  0  0  0  0  0  0  0  0  0
  -21.4226  -21.0194   23.4168 C   0  0  0  0  0  0  0  0  0  0  0  0
  -23.9288  -15.5573   18.2599 C   0  0  0  0  0  0  0  0  0  0  0  0
  -24.2239  -14.3388   18.8343 C   0  0  0  0  0  0  0  0  0  0  0  0
  -23.0696  -16.4596   18.8778 C   0  0  0  0  0  0  0  0  0  0  0  0
  -28.5259  -25.3277   20.1384 C   0  0  0  0  0  0  0  0  0  0  0  0
  -21.5129  -18.9995   22.0669 C   0  0  0  0  0  0  0  0  0  0  0  0
  -27.3811  -27.3784   20.0591 C   0  0  0  0  0  0  0  0  0  0  0  0
  -24.9931  -28.8007   20.2972 C   0  0  0  0  0  0  0  0  0  0  0  0
  -26.6792  -27.3659   21.2644 C   0  0  0  0  0  0  0  0  0  0  0  0
  -28.3963  -21.1443   20.7554 C   0  0  0  0  0  0  0  0  0  0  0  0
  -22.4855  -16.1003   20.0680 C   0  0  0  0  0  0  0  0  0  0  0  0
  -27.9948  -19.1316   21.5446 C   0  0  0  0  0  0  0  0  0  0  0  0
  -26.9514  -20.9720   22.8761 C   0  0  0  0  0  0  0  0  0  0  0  0
  -19.8887  -24.0563   23.1873 C   0  0  0  0  0  0  0  0  0  0  0  0
  -21.8517  -24.0043   25.7693 C   0  0  0  0  0  0  0  0  0  0  0  0
  -24.1364  -22.2909   27.6377 C   0  0  0  0  0  0  0  0  0  0  0  0
  -28.4145  -14.8174   18.0385 C   0  0  0  0  0  0  0  0  0  0  0  0
  -19.0866  -29.0948   23.0218 C   0  0  0  0  0  0  0  0  0  0  0  0
  -19.2189  -21.8879   24.2852 C   0  0  0  0  0  0  0  0  0  0  0  0
  -24.3794  -16.1209   16.9518 C   0  0  0  0  0  0  0  0  0  0  0  0
  -22.1571  -22.1536   24.0820 C   0  0  0  0  0  0  0  0  0  0  0  0
  -20.3010  -28.1881   23.2039 C   0  0  0  0  0  0  0  0  0  0  0  0
  -31.2358  -16.9550   18.3268 C   0  0  0  0  0  0  0  0  0  0  0  0
  -20.3224  -27.1027   22.1322 C   0  0  0  0  0  0  0  0  0  0  0  0
  -30.6952  -18.1795   19.0672 C   0  0  0  0  0  0  0  0  0  0  0  0
  -23.8198  -17.5605   17.0238 C   0  0  0  0  0  0  0  0  0  0  0  0
  -30.2057  -16.3830   17.3552 C   0  0  0  0  0  0  0  0  0  0  0  0
  -28.3520  -17.3031   18.6906 C   0  0  0  0  0  0  0  0  0  0  0  0
  -19.0819  -26.2065   22.2299 C   0  0  1  0  0  0  0  0  0  0  0  0
  -19.9164  -23.2352   24.4454 C   0  0  1  0  0  0  0  0  0  0  0  0
  -29.3334  -17.8825   19.7239 C   0  0  2  0  0  0  0  0  0  0  0  0
  -25.5925  -22.5232   29.6683 C   0  0  0  0  0  0  0  0  0  0  0  0
  -23.7758  -25.7646   24.1852 C   0  0  0  0  0  0  0  0  0  0  0  0
  -25.5622  -25.1799   25.8391 C   0  0  0  0  0  0  0  0  0  0  0  0
  -23.5203  -26.4000   26.5905 C   0  0  0  0  0  0  0  0  0  0  0  0
  -22.7935  -20.0338   29.0017 C   0  0  0  0  0  0  0  0  0  0  0  0
  -25.1366  -13.3569   18.1970 C   0  0  0  0  0  0  0  0  0  0  0  0
  -21.5157  -17.0133   20.7590 C   0  0  0  0  0  0  0  0  0  1  0  0
  -26.5448  -13.3285   18.8103 C   0  0  0  0  0  0  0  0  0  0  0  0
  -23.3464  -23.9540   25.9750 C   0  0  1  0  0  0  0  0  0  0  0  0
  -24.2453  -22.0619   29.1344 C   0  0  2  0  0  0  0  0  0  0  0  0
  -24.0374  -25.3042   25.6332 C   0  0  0  0  0  0  0  0  0  0  0  0
  -22.7472  -14.9203   20.6781 N   0  0  0  0  0  0  0  0  0  0  0  0
  -29.0311  -20.3227   19.9152 N   0  0  0  0  0  0  0  0  0  0  0  0
  -28.7684  -19.1059   20.4216 N   0  0  0  0  0  0  0  0  0  0  0  0
  -22.8541  -17.5966   18.1151 N   0  0  0  0  0  0  0  0  0  0  0  0
  -21.3210  -23.1014   24.8371 N   0  0  0  0  0  0  0  0  0  0  0  0
  -28.9401  -16.1191   18.0445 N   0  0  0  0  0  0  0  0  0  0  0  0
  -27.6360  -17.9969   22.1819 N   0  0  0  0  0  0  0  0  0  0  0  0
  -26.7831  -22.3595   22.9797 N   0  0  0  0  0  0  0  0  0  0  0  0
  -19.2254  -25.2616   23.3167 N   0  0  0  0  0  0  0  0  0  0  0  0
  -23.5546  -23.5070   27.3481 N   0  0  0  0  0  0  0  0  0  0  0  0
  -27.2151  -14.6420   18.7209 N   0  0  0  0  0  0  0  0  0  0  0  0
  -24.0855  -20.6142   29.4498 N   0  3  0  0  0  0  0  0  0  0  0  0
  -26.4312  -20.2244   23.7386 O   0  0  0  0  0  0  0  0  0  0  0  0
  -20.4303  -23.6287   22.1747 O   0  0  0  0  0  0  0  0  0  0  0  0
  -21.1788  -24.8101   26.4171 O   0  0  0  0  0  0  0  0  0  0  0  0
  -24.5317  -21.4745   26.8084 O   0  0  0  0  0  0  0  0  0  0  0  0
  -28.9734  -13.8710   17.4735 O   0  0  0  0  0  0  0  0  0  0  0  0
  -28.5671  -26.6735   19.9396 O   0  0  0  0  0  0  0  0  0  0  0  0
  -22.2371  -18.0824   21.3696 O   0  0  0  0  0  0  0  0  0  1  0  0
  -23.8473  -29.4849   20.4119 F   0  0  0  0  0  0  0  0  0  0  0  0
  -27.1475  -26.6735   22.3118 F   0  0  0  0  0  0  0  0  0  0  0  0
  1  2  1  0  0  0  0
  1  5  2  0  0  0  0
  2  6  2  0  0  0  0
  3  8  2  0  0  0  0
  3 16  1  0  0  0  0
  4  9  1  0  0  0  0
  4 16  2  0  0  0  0
  5 18  1  0  0  0  0
  6 20  1  0  0  0  0
  7 10  2  0  0  0  0
  7 19  1  0  0  0  0
  8 25  1  0  0  0  0
  9 25  2  0  0  0  0
 10 26  1  0  0  0  0
 11 12  2  0  0  0  0
 11 27  1  0  0  0  0
 12 28  1  0  0  0  0
 13 21  1  0  0  0  0
 13 26  2  0  0  0  0
 14 28  2  0  0  0  0
 14 29  1  0  0  0  0
 15 23  1  0  0  0  0
 15 63  2  0  0  0  0
 16 30  1  0  0  0  0
 17 30  1  0  0  0  0
 17 32  2  0  0  0  0
 17 33  1  0  0  0  0
 18 20  2  0  0  0  0
 18 38  1  0  0  0  0
 19 21  2  0  0  0  0
 19 39  1  0  0  0  0
 20 49  1  0  0  0  0
 21 41  1  0  0  0  0
 22 23  2  0  0  0  0
 22 24  1  0  0  0  0
 22 40  1  0  0  0  0
 23 57  1  0  0  0  0
 24 31  2  0  0  0  0
 24 66  1  0  0  0  0
 25 80  1  0  0  0  0
 26 81  1  0  0  0  0
 27 29  2  0  0  0  0
 27 80  1  0  0  0  0
 28 82  1  0  0  0  0
 29 83  1  0  0  0  0
 30 64  2  0  0  0  0
 31 58  1  0  0  0  0
 31 63  1  0  0  0  0
 32 65  1  0  0  0  0
 32 69  1  0  0  0  0
 33 70  1  0  0  0  0
 33 75  2  0  0  0  0
 34 50  1  0  0  0  0
 34 71  1  0  0  0  0
 34 76  2  0  0  0  0
 35 60  1  0  0  0  0
 35 67  1  0  0  0  0
 35 77  2  0  0  0  0
 36 61  1  0  0  0  0
 36 72  1  0  0  0  0
 36 78  2  0  0  0  0
 37 68  1  0  0  0  0
 37 73  1  0  0  0  0
 37 79  2  0  0  0  0
 38 42  1  0  0  0  0
 39 50  1  0  0  0  0
 40 46  1  0  0  0  0
 41 67  1  0  0  0  0
 42 44  1  0  0  0  0
 43 45  1  0  0  0  0
 43 47  1  0  0  0  0
 44 49  1  0  0  0  0
 45 51  1  0  0  0  0
 46 66  1  0  0  0  0
 47 68  1  0  0  0  0
 48 51  1  0  0  0  0
 48 68  1  0  0  0  0
 49 71  1  0  0  0  0
 50 67  1  0  0  0  0
 51 65  1  0  0  0  0
 52 61  1  0  0  0  0
 53 62  1  0  0  0  0
 54 62  1  0  0  0  0
 55 62  1  0  0  0  0
 56 74  1  0  0  0  0
 57 59  1  0  0  0  0
 58 81  1  0  0  0  0
 59 73  1  0  0  0  0
 60 62  1  0  0  0  0
 60 72  1  0  0  0  0
 61 74  1  0  0  0  0
 64 65  1  0  0  0  0
M  CHG  1  74   1
M  ISO  4  37 100  58 101  73 100  81 101
M  END
> <Batch ID>
0141

> <Smiles>
CNC(C)C(=O)NC(C(=O)N1Cc2cc([101O:1][101CH2:1]c3ncc(CC[100NH:0][100C:0](=O)N4CCCC(n5nc(-c6ccc(Oc7ccc(F)cc7F)cc6)c(C(N)=O)c5N)C4)c4c3NCC4)ccc2CC1C(=O)NC1CCCc2ccccc21)C(C)(C)C

> <Shape>
0.173

> <Color>
0.086

> <Negative vol penalty>
0.000

$$$$

  -OEChem-04052321163D

 92102  0     1  0  0  0  0  0999 V2000
  -27.3148  -38.8352   24.0793 C   0  0  0  0  0  0  0  0  0  0  0  0
  -28.1400  -37.7289   24.2541 C   0  0  0  0  0  0  0  0  0  0  0  0
  -23.6649   -8.7937   21.3410 C   0  0  0  0  0  0  0  0  0  0  0  0
  -25.8249   -8.4060   22.3516 C   0  0  0  0  0  0  0  0  0  0  0  0
  -25.9430  -38.7221   24.3013 C   0  0  0  0  0  0  0  0  0  0  0  0
  -27.5940  -36.5091   24.6521 C   0  0  0  0  0  0  0  0  0  0  0  0
  -28.3556  -30.6052   20.5956 C   0  0  0  0  0  0  0  0  0  0  0  0
  -23.3991  -18.4677   19.5833 C   0  0  0  0  0  0  0  0  0  0  0  0
  -23.0602   -8.0325   22.3412 C   0  0  0  0  0  0  0  0  0  0  0  0
  -25.2202   -7.6448   23.3519 C   0  0  0  0  0  0  0  0  0  0  0  0
  -28.6378  -29.3859   19.9794 C   0  0  0  0  0  0  0  0  0  0  0  0
  -22.6337   -4.7585   23.0645 C   0  0  0  0  0  0  0  0  0  0  0  0
  -21.6716   -3.8262   22.6760 C   0  0  0  0  0  0  0  0  0  0  0  0
  -24.0690  -19.6811   19.4726 C   0  0  0  0  0  0  0  0  0  0  0  0
  -27.2614  -28.2355   21.6011 C   0  0  0  0  0  0  0  0  0  0  0  0
  -20.0263   -4.9572   24.0365 C   0  0  0  0  0  0  0  0  0  0  0  0
  -25.0473   -8.9805   21.3461 C   0  0  0  0  0  0  0  0  0  0  0  0
  -25.6500   -9.5204   18.9269 C   0  0  0  0  0  0  0  0  0  0  0  0
  -25.3786  -37.4979   24.6929 C   0  0  0  0  0  0  0  0  0  0  0  0
  -27.5117  -30.6461   21.7090 C   0  0  0  0  0  0  0  0  0  0  0  0
  -26.2135  -36.3799   24.8809 C   0  0  0  0  0  0  0  0  0  0  0  0
  -26.9650  -29.4554   22.2150 C   0  0  0  0  0  0  0  0  0  0  0  0
  -24.1210  -17.2982   19.7946 C   0  0  0  0  0  0  0  0  0  0  0  0
  -23.8378   -7.4581   23.3467 C   0  0  0  0  0  0  0  0  0  0  0  0
  -28.0923  -28.2040   20.4811 C   0  0  0  0  0  0  0  0  0  0  0  0
  -22.2920   -5.7901   23.9390 C   0  0  0  0  0  0  0  0  0  0  0  0
  -20.3679   -3.9255   23.1620 C   0  0  0  0  0  0  0  0  0  0  0  0
  -20.9884   -5.8895   24.4249 C   0  0  0  0  0  0  0  0  0  0  0  0
  -25.6725   -9.7662   20.3129 C   0  0  0  0  0  0  0  0  0  0  0  0
  -25.4504  -19.6715   19.5795 C   0  0  0  0  0  0  0  0  0  0  0  0
  -25.5001  -17.3952   19.8869 C   0  0  0  0  0  0  0  0  0  0  0  0
  -26.3846  -10.5463   18.3843 C   0  0  0  0  0  0  0  0  0  0  0  0
  -25.0212   -8.4597   18.1954 C   0  0  0  0  0  0  0  0  0  0  0  0
  -25.8141  -32.7514   24.3094 C   0  0  0  0  0  0  0  0  0  0  0  0
  -23.7895  -30.6232   23.4250 C   0  0  0  0  0  0  0  0  0  0  0  0
  -21.7239  -28.3923   21.8777 C   0  0  0  0  0  0  0  0  0  0  0  0
  -27.6301  -16.0932   20.2245 C   0  0  0  0  0  0  0  0  0  0  0  0
  -23.8968  -37.4364   24.9669 C   0  0  0  0  0  0  0  0  0  0  0  0
  -27.2294  -31.9296   22.4418 C   0  0  0  0  0  0  0  0  0  0  0  0
  -26.0904  -29.5434   23.4358 C   0  0  0  0  0  0  0  0  0  0  0  0
  -23.3465  -36.0136   25.0239 C   0  0  0  0  0  0  0  0  0  0  0  0
  -29.9768  -13.5378   19.4241 C   0  0  0  0  0  0  0  0  0  0  0  0
  -24.2446  -35.1278   25.8815 C   0  0  0  0  0  0  0  0  0  0  0  0
  -18.8554  -14.7393   20.8815 C   0  0  0  0  0  0  0  0  0  0  0  0
  -19.2208  -13.7323   21.9362 C   0  0  0  0  0  0  0  0  0  0  0  0
  -25.9204  -24.5094   18.5174 C   0  0  0  0  0  0  0  0  0  0  0  0
  -26.9453  -23.6168   20.6501 C   0  0  0  0  0  0  0  0  0  0  0  0
  -29.1360  -12.2591   19.4291 C   0  0  0  0  0  0  0  0  0  0  0  0
  -26.9143  -25.6669   18.5286 C   0  0  0  0  0  0  0  0  0  0  0  0
  -27.9361  -24.7771   20.6558 C   0  0  0  0  0  0  0  0  0  0  0  0
  -29.5287  -14.5154   20.5092 C   0  0  0  0  0  0  0  0  0  0  0  0
  -27.2564  -13.5636   20.5025 C   0  0  0  0  0  0  0  0  0  0  0  0
  -25.6554  -35.0335   25.2879 C   0  0  1  0  0  0  0  0  0  0  0  0
  -25.8015  -31.9973   23.0122 C   0  0  1  0  0  0  0  0  0  0  0  0
  -20.0898  -14.9396   21.7165 C   0  0  0  0  0  0  0  0  0  0  0  0
  -26.4867  -23.2714   19.2265 C   0  0  0  0  0  0  0  0  0  0  0  0
  -27.6283  -12.5757   19.3847 C   0  0  2  0  0  0  0  0  0  0  0  0
  -27.3705  -26.0051   19.9454 C   0  0  0  0  0  0  0  0  0  1  0  0
  -23.3096  -15.2787   18.5488 C   0  0  0  0  0  0  0  0  0  0  0  0
  -19.3660  -27.5345   21.9194 C   0  0  0  0  0  0  0  0  0  0  0  0
  -24.4258  -29.0067   25.9322 C   0  0  0  0  0  0  0  0  0  0  0  0
  -22.4863  -27.5223   25.3814 C   0  0  0  0  0  0  0  0  0  0  0  0
  -22.1078  -29.9423   25.8540 C   0  0  0  0  0  0  0  0  0  0  0  0
  -21.2300  -29.2767   19.0970 C   0  0  0  0  0  0  0  0  0  0  0  0
  -21.4693  -14.7868   21.0941 C   0  0  0  0  0  0  0  0  0  0  0  0
  -25.4554  -22.1448   19.2506 C   0  0  0  0  0  0  0  0  0  0  0  0
  -21.9741  -16.1159   20.5221 C   0  0  0  0  0  0  0  0  0  0  0  0
  -23.3992  -15.9989   19.9113 C   0  0  2  0  0  0  0  0  0  0  0  0
  -23.1959  -29.2601   23.6762 C   0  0  1  0  0  0  0  0  0  0  0  0
  -20.3256  -28.5426   21.3064 C   0  0  2  0  0  0  0  0  0  0  0  0
  -23.0750  -28.9367   25.1922 C   0  0  0  0  0  0  0  0  0  0  0  0
  -26.3666  -10.8622   20.6310 N   0  0  0  0  0  0  0  0  0  0  0  0
  -26.1858  -18.5558   19.7846 N   0  0  0  0  0  0  0  0  0  0  0  0
  -26.7870  -11.3141   19.4372 N   0  0  0  0  0  0  0  0  0  0  0  0
  -25.1839  -30.6966   23.3222 N   0  0  0  0  0  0  0  0  0  0  0  0
  -28.0906  -14.7714   20.4023 N   0  0  0  0  0  0  0  0  0  0  0  0
  -26.7191  -10.8575   17.1140 N   0  0  0  0  0  0  0  0  0  0  0  0
  -25.7516   -7.2873   17.9581 N   0  0  0  0  0  0  0  0  0  0  0  0
  -26.2458  -16.2100   20.1031 N   0  0  0  0  0  0  0  0  0  0  0  0
  -26.1088  -20.8981   19.4666 N   0  0  0  0  0  0  0  0  0  0  0  0
  -25.6719  -34.1184   24.1668 N   0  0  0  0  0  0  0  0  0  0  0  0
  -21.9279  -29.2279   22.9554 N   0  0  0  0  0  0  0  0  0  0  0  0
  -20.3441  -28.3365   19.8306 N   0  3  0  0  0  0  0  0  0  0  0  0
  -23.8522   -8.5553   17.7507 O   0  0  0  0  0  0  0  0  0  0  0  0
  -25.9418  -32.1389   25.3631 O   0  0  0  0  0  0  0  0  0  0  0  0
  -23.0399  -31.5988   23.3277 O   0  0  0  0  0  0  0  0  0  0  0  0
  -22.5513  -27.6090   21.4166 O   0  0  0  0  0  0  0  0  0  0  0  0
  -28.4084  -17.0479   20.1558 O   0  0  0  0  0  0  0  0  0  0  0  0
  -23.2481   -6.7154   24.3230 O   0  0  0  0  0  0  0  0  0  0  0  0
  -28.3683  -27.0176   19.8720 O   0  0  0  0  0  0  0  0  0  1  0  0
  -19.4438   -3.0310   22.7877 F   0  0  0  0  0  0  0  0  0  0  0  0
  -20.6539   -6.8791   25.2644 F   0  0  0  0  0  0  0  0  0  0  0  0
  1  2  1  0  0  0  0
  1  5  2  0  0  0  0
  2  6  2  0  0  0  0
  3  9  2  0  0  0  0
  3 17  1  0  0  0  0
  4 10  1  0  0  0  0
  4 17  2  0  0  0  0
  5 19  1  0  0  0  0
  6 21  1  0  0  0  0
  7 11  2  0  0  0  0
  7 20  1  0  0  0  0
  8 14  2  0  0  0  0
  8 23  1  0  0  0  0
  9 24  1  0  0  0  0
 10 24  2  0  0  0  0
 11 25  1  0  0  0  0
 12 13  2  0  0  0  0
 12 26  1  0  0  0  0
 13 27  1  0  0  0  0
 14 30  1  0  0  0  0
 15 22  1  0  0  0  0
 15 25  2  0  0  0  0
 16 27  2  0  0  0  0
 16 28  1  0  0  0  0
 17 29  1  0  0  0  0
 18 29  1  0  0  0  0
 18 32  2  0  0  0  0
 18 33  1  0  0  0  0
 19 21  2  0  0  0  0
 19 38  1  0  0  0  0
 20 22  2  0  0  0  0
 20 39  1  0  0  0  0
 21 53  1  0  0  0  0
 22 40  1  0  0  0  0
 23 31  2  0  0  0  0
 23 68  1  0  0  0  0
 24 89  1  0  0  0  0
 25 90  1  0  0  0  0
 26 28  2  0  0  0  0
 26 89  1  0  0  0  0
 27 91  1  0  0  0  0
 28 92  1  0  0  0  0
 29 72  2  0  0  0  0
 30 73  2  0  0  0  0
 30 80  1  0  0  0  0
 31 73  1  0  0  0  0
 31 79  1  0  0  0  0
 32 74  1  0  0  0  0
 32 77  1  0  0  0  0
 33 78  1  0  0  0  0
 33 84  2  0  0  0  0
 34 54  1  0  0  0  0
 34 81  1  0  0  0  0
 34 85  2  0  0  0  0
 35 69  1  0  0  0  0
 35 75  1  0  0  0  0
 35 86  2  0  0  0  0
 36 70  1  0  0  0  0
 36 82  1  0  0  0  0
 36 87  2  0  0  0  0
 37 76  1  0  0  0  0
 37 79  1  0  0  0  0
 37 88  2  0  0  0  0
 38 41  1  0  0  0  0
 39 54  1  0  0  0  0
 40 75  1  0  0  0  0
 41 43  1  0  0  0  0
 42 48  1  0  0  0  0
 42 51  1  0  0  0  0
 43 53  1  0  0  0  0
 44 45  1  0  0  0  0
 44 55  1  0  0  0  0
 45 55  1  0  0  0  0
 46 49  1  0  0  0  0
 46 56  1  0  0  0  0
 47 50  1  0  0  0  0
 47 56  1  0  0  0  0
 48 57  1  0  0  0  0
 49 58  1  0  0  0  0
 50 58  1  0  0  0  0
 51 76  1  0  0  0  0
 52 57  1  0  0  0  0
 52 76  1  0  0  0  0
 53 81  1  0  0  0  0
 54 75  1  0  0  0  0
 55 65  1  0  0  0  0
 56 66  1  0  0  0  0
 57 74  1  0  0  0  0
 58 90  1  0  0  0  0
 59 68  1  0  0  0  0
 60 70  1  0  0  0  0
 61 71  1  0  0  0  0
 62 71  1  0  0  0  0
 63 71  1  0  0  0  0
 64 83  1  0  0  0  0
 65 67  1  0  0  0  0
 66 80  1  0  0  0  0
 67 68  1  0  0  0  0
 69 71  1  0  0  0  0
 69 82  1  0  0  0  0
 70 83  1  0  0  0  0
 72 74  1  0  0  0  0
M  CHG  1  83   1
M  ISO  4  37 100  58 101  79 100  90 101
M  END
> <Batch ID>
0141

> <Smiles>
CNC(C)C(=O)NC(C(=O)N1Cc2cc([101O:1][101CH:1]3CCC(CNc4ccc(C(C)CCC5CC5)c([100NH:0][100C:0](=O)N5CCCC(n6nc(-c7ccc(Oc8ccc(F)cc8F)cc7)c(C(N)=O)c6N)C5)n4)CC3)ccc2CC1C(=O)NC1CCCc2ccccc21)C(C)(C)C

> <Shape>
0.274

> <Color>
0.088

> <Negative vol penalty>
0.000

$$$$

  -OEChem-04052321163D

 79 87  0     1  0  0  0  0  0999 V2000
  -16.4144  -28.0554   23.2053 C   0  0  0  0  0  0  0  0  0  0  0  0
  -17.3309  -27.3847   22.4018 C   0  0  0  0  0  0  0  0  0  0  0  0
  -26.6916  -12.0281   20.1301 C   0  0  0  0  0  0  0  0  0  0  0  0
  -25.6334  -14.1988   20.0584 C   0  0  0  0  0  0  0  0  0  0  0  0
  -16.7833  -29.2394   23.8425 C   0  0  0  0  0  0  0  0  0  0  0  0
  -18.6164  -27.8982   22.2341 C   0  0  0  0  0  0  0  0  0  0  0  0
  -23.8004  -24.7036   21.5807 C   0  0  0  0  0  0  0  0  0  0  0  0
  -25.6649  -11.5545   20.9468 C   0  0  0  0  0  0  0  0  0  0  0  0
  -24.6066  -13.7252   20.8751 C   0  0  0  0  0  0  0  0  0  0  0  0
  -24.5439  -24.3415   20.4582 C   0  0  0  0  0  0  0  0  0  0  0  0
  -22.4779  -10.4873   20.5758 C   0  0  0  0  0  0  0  0  0  0  0  0
  -21.9312   -9.2405   20.2725 C   0  0  0  0  0  0  0  0  0  0  0  0
  -25.9777  -26.2512   20.7992 C   0  0  0  0  0  0  0  0  0  0  0  0
  -22.5853   -8.4240   22.4503 C   0  0  0  0  0  0  0  0  0  0  0  0
  -26.6759  -13.3503   19.6859 C   0  0  0  0  0  0  0  0  0  0  0  0
  -28.1072  -13.3548   17.5742 C   0  0  0  0  0  0  0  0  0  0  0  0
  -18.0770  -29.7625   23.6904 C   0  0  0  0  0  0  0  0  0  0  0  0
  -24.1339  -25.8503   22.3157 C   0  0  0  0  0  0  0  0  0  0  0  0
  -19.0025  -29.0910   22.8689 C   0  0  0  0  0  0  0  0  0  0  0  0
  -25.2384  -26.6243   21.9321 C   0  0  0  0  0  0  0  0  0  0  0  0
  -24.6223  -12.4031   21.3193 C   0  0  0  0  0  0  0  0  0  0  0  0
  -25.6309  -25.1169   20.0656 C   0  0  0  0  0  0  0  0  0  0  0  0
  -23.0785  -10.7025   21.8163 C   0  0  0  0  0  0  0  0  0  0  0  0
  -21.9848   -8.2088   21.2097 C   0  0  0  0  0  0  0  0  0  0  0  0
  -23.1321   -9.6709   22.7535 C   0  0  0  0  0  0  0  0  0  0  0  0
  -27.7365  -13.8402   18.8426 C   0  0  0  0  0  0  0  0  0  0  0  0
  -29.1604  -14.1513   17.1961 C   0  0  0  0  0  0  0  0  0  0  0  0
  -27.5493  -12.2802   16.8064 C   0  0  0  0  0  0  0  0  0  0  0  0
  -30.5573  -19.7811   19.3637 C   0  0  0  0  0  0  0  0  0  0  0  0
  -22.6596  -28.5808   23.0045 C   0  0  0  0  0  0  0  0  0  0  0  0
  -25.2623  -29.0611   24.8799 C   0  0  0  0  0  0  0  0  0  0  0  0
  -28.8242  -28.5472   24.6230 C   0  0  0  0  0  0  0  0  0  0  0  0
  -18.4147  -31.0704   24.3612 C   0  0  0  0  0  0  0  0  0  0  0  0
  -23.3382  -26.2125   23.5397 C   0  0  0  0  0  0  0  0  0  0  0  0
  -25.6502  -27.8534   22.6990 C   0  0  0  0  0  0  0  0  0  0  0  0
  -19.9139  -31.3494   24.4321 C   0  0  0  0  0  0  0  0  0  0  0  0
  -32.6106  -16.7101   19.4472 C   0  0  0  0  0  0  0  0  0  0  0  0
  -20.5723  -31.0747   23.0838 C   0  0  0  0  0  0  0  0  0  0  0  0
  -31.7235  -15.6042   18.8736 C   0  0  0  0  0  0  0  0  0  0  0  0
  -28.4029  -20.3296   18.2560 C   0  0  0  0  0  0  0  0  0  0  0  0
  -28.9291  -21.2442   20.5661 C   0  0  0  0  0  0  0  0  0  0  0  0
  -32.2808  -18.0821   18.8763 C   0  0  0  0  0  0  0  0  0  0  0  0
  -29.8915  -17.3584   19.0826 C   0  0  0  0  0  0  0  0  0  0  0  0
  -28.7061  -21.7009   17.6660 C   0  0  0  0  0  0  0  0  0  0  0  0
  -29.2087  -22.6071   19.9445 C   0  0  0  0  0  0  0  0  0  0  0  0
  -20.4142  -29.6032   22.6822 C   0  0  1  0  0  0  0  0  0  0  0  0
  -29.1039  -20.0806   19.5910 C   0  0  0  0  0  0  0  0  0  0  0  0
  -23.4548  -27.6870   23.9135 C   0  0  1  0  0  0  0  0  0  0  0  0
  -30.3926  -16.1302   18.3075 C   0  0  2  0  0  0  0  0  0  0  0  0
  -30.5486  -28.1546   26.4034 C   0  0  0  0  0  0  0  0  0  0  0  0
  -30.0171  -24.4951   18.0670 C   0  0  0  0  0  0  0  0  0  0  0  0
  -25.6624  -32.0833   24.7520 C   0  0  0  0  0  0  0  0  0  0  0  0
  -28.1185  -31.7007   25.0516 C   0  0  0  0  0  0  0  0  0  0  0  0
  -26.5225  -31.0045   26.8379 C   0  0  0  0  0  0  0  0  0  0  0  0
  -29.7466  -26.0445   23.3407 C   0  0  0  0  0  0  0  0  0  0  0  0
  -27.7403  -25.1201   18.9672 C   0  0  0  0  0  0  0  0  0  1  0  0
  -26.6216  -29.6873   24.6822 C   0  0  1  0  0  0  0  0  0  0  0  0
  -29.6481  -27.5083   25.3621 C   0  0  2  0  0  0  0  0  0  0  0  0
  -28.5378  -24.1479   18.1052 C   0  0  2  0  0  0  0  0  0  0  0  0
  -26.7172  -31.1067   25.3094 C   0  0  0  0  0  0  0  0  0  0  0  0
  -28.4929  -14.8655   19.2436 N   0  0  0  0  0  0  0  0  0  0  0  0
  -29.3494  -15.0308   18.2212 N   0  0  0  0  0  0  0  0  0  0  0  0
  -30.8815  -18.4456   19.1133 N   0  0  0  0  0  0  0  0  0  0  0  0
  -24.8369  -28.1697   23.8848 N   0  0  0  0  0  0  0  0  0  0  0  0
  -29.9340  -14.1780   16.0901 N   0  0  0  0  0  0  0  0  0  0  0  0
  -26.5038  -12.5663   15.9179 N   0  0  0  0  0  0  0  0  0  0  0  0
  -21.3533  -28.7769   23.4101 N   0  0  0  0  0  0  0  0  0  0  0  0
  -27.5910  -28.7338   25.2110 N   0  0  0  0  0  0  0  0  0  0  0  0
  -28.3948  -22.7674   18.6856 N   0  3  0  0  0  0  0  0  0  0  0  0
  -30.5039  -26.7501   24.4062 N   0  3  0  0  0  0  0  0  0  0  0  0
  -27.9545  -11.0982   16.9173 O   0  0  0  0  0  0  0  0  0  0  0  0
  -31.3808  -20.6985   19.4009 O   0  0  0  0  0  0  0  0  0  0  0  0
  -23.1921  -29.0585   22.0095 O   0  0  0  0  0  0  0  0  0  0  0  0
  -24.6052  -29.3468   25.8841 O   0  0  0  0  0  0  0  0  0  0  0  0
  -29.2350  -29.1371   23.6261 O   0  0  0  0  0  0  0  0  0  0  0  0
  -23.6201  -11.9412   22.1161 O   0  0  0  0  0  0  0  0  0  0  0  0
  -26.3579  -24.7661   18.9701 O   0  0  0  0  0  0  0  0  0  1  0  0
  -21.4583   -7.0120   20.9190 F   0  0  0  0  0  0  0  0  0  0  0  0
  -23.7066   -9.8720   23.9473 F   0  0  0  0  0  0  0  0  0  0  0  0
  1  2  1  0  0  0  0
  1  5  2  0  0  0  0
  2  6  2  0  0  0  0
  3  8  2  0  0  0  0
  3 15  1  0  0  0  0
  4  9  1  0  0  0  0
  4 15  2  0  0  0  0
  5 17  1  0  0  0  0
  6 19  1  0  0  0  0
  7 10  2  0  0  0  0
  7 18  1  0  0  0  0
  8 21  1  0  0  0  0
  9 21  2  0  0  0  0
 10 22  1  0  0  0  0
 11 12  2  0  0  0  0
 11 23  1  0  0  0  0
 12 24  1  0  0  0  0
 13 20  1  0  0  0  0
 13 22  2  0  0  0  0
 14 24  2  0  0  0  0
 14 25  1  0  0  0  0
 15 26  1  0  0  0  0
 16 26  1  0  0  0  0
 16 27  2  0  0  0  0
 16 28  1  0  0  0  0
 17 19  2  0  0  0  0
 17 33  1  0  0  0  0
 18 20  2  0  0  0  0
 18 34  1  0  0  0  0
 19 46  1  0  0  0  0
 20 35  1  0  0  0  0
 21 76  1  0  0  0  0
 22 77  1  0  0  0  0
 23 25  2  0  0  0  0
 23 76  1  0  0  0  0
 24 78  1  0  0  0  0
 25 79  1  0  0  0  0
 26 61  2  0  0  0  0
 27 62  1  0  0  0  0
 27 65  1  0  0  0  0
 28 66  1  0  0  0  0
 28 71  2  0  0  0  0
 29 47  1  0  0  0  0
 29 63  1  0  0  0  0
 29 72  2  0  0  0  0
 30 48  1  0  0  0  0
 30 67  1  0  0  0  0
 30 73  2  0  0  0  0
 31 57  1  0  0  0  0
 31 64  1  0  0  0  0
 31 74  2  0  0  0  0
 32 58  1  0  0  0  0
 32 68  1  0  0  0  0
 32 75  2  0  0  0  0
 33 36  1  0  0  0  0
 34 48  1  0  0  0  0
 35 64  1  0  0  0  0
 36 38  1  0  0  0  0
 37 39  1  0  0  0  0
 37 42  1  0  0  0  0
 38 46  1  0  0  0  0
 39 49  1  0  0  0  0
 40 44  1  0  0  0  0
 40 47  1  0  0  0  0
 41 45  1  0  0  0  0
 41 47  1  0  0  0  0
 42 63  1  0  0  0  0
 43 49  1  0  0  0  0
 43 63  1  0  0  0  0
 44 69  1  0  0  0  0
 45 69  1  0  0  0  0
 46 67  1  0  0  0  0
 48 64  1  0  0  0  0
 49 62  1  0  0  0  0
 50 58  1  0  0  0  0
 51 59  1  0  0  0  0
 52 60  1  0  0  0  0
 53 60  1  0  0  0  0
 54 60  1  0  0  0  0
 55 70  1  0  0  0  0
 56 59  1  0  0  0  0
 56 77  1  0  0  0  0
 57 60  1  0  0  0  0
 57 68  1  0  0  0  0
 58 70  1  0  0  0  0
 59 69  1  0  0  0  0
 61 62  1  0  0  0  0
M  CHG  2  69   1  70   1
M  ISO  4  29 100  47 100  56 101  77 101
M  END
> <Batch ID>
0141

> <Smiles>
CNC(C)C(=O)NC(C(=O)N1Cc2cc([101O:1][101CH2:1]C(C)N3CC[100CH:0]([100C:0](=O)N4CCCC(n5nc(-c6ccc(Oc7ccc(F)cc7F)cc6)c(C(N)=O)c5N)C4)CC3)ccc2CC1C(=O)NC1CCCc2ccccc21)C(C)(C)C

> <Shape>
0.275

> <Color>
0.063

> <Negative vol penalty>
0.000

$$$$

  -OEChem-04052321163D

 83 92  0     1  0  0  0  0  0999 V2000
  -21.7261  -32.9724   26.4146 C   0  0  0  0  0  0  0  0  0  0  0  0
  -22.8239  -32.2273   25.9962 C   0  0  0  0  0  0  0  0  0  0  0  0
  -24.7444  -10.0669   22.1715 C   0  0  0  0  0  0  0  0  0  0  0  0
  -24.7296  -11.4961   24.1195 C   0  0  0  0  0  0  0  0  0  0  0  0
  -20.4447  -32.6215   25.9917 C   0  0  0  0  0  0  0  0  0  0  0  0
  -22.6408  -31.1300   25.1554 C   0  0  0  0  0  0  0  0  0  0  0  0
  -26.4114  -29.2171   20.7250 C   0  0  0  0  0  0  0  0  0  0  0  0
  -29.6433  -20.4480   21.1765 C   0  0  0  0  0  0  0  0  0  0  0  0
  -24.4052   -8.9748   22.9702 C   0  0  0  0  0  0  0  0  0  0  0  0
  -24.3904  -10.4039   24.9181 C   0  0  0  0  0  0  0  0  0  0  0  0
  -27.3784  -28.2135   20.6847 C   0  0  0  0  0  0  0  0  0  0  0  0
  -29.6119  -21.8105   21.4736 C   0  0  0  0  0  0  0  0  0  0  0  0
  -21.6219   -7.7213   24.4243 C   0  0  0  0  0  0  0  0  0  0  0  0
  -20.6211   -6.8666   23.9625 C   0  0  0  0  0  0  0  0  0  0  0  0
  -25.7652  -26.7066   19.7120 C   0  0  0  0  0  0  0  0  0  0  0  0
  -27.1990  -21.7806   21.3560 C   0  0  0  0  0  0  0  0  0  0  0  0
  -22.1854   -5.0255   23.9798 C   0  0  0  0  0  0  0  0  0  0  0  0
  -24.9067  -11.3276   22.7462 C   0  0  0  0  0  0  0  0  0  0  0  0
  -24.3764  -13.3381   21.2682 C   0  0  0  0  0  0  0  0  0  0  0  0
  -20.2468  -31.5252   25.1375 C   0  0  0  0  0  0  0  0  0  0  0  0
  -25.1089  -28.9692   20.2684 C   0  0  0  0  0  0  0  0  0  0  0  0
  -21.3554  -30.7633   24.7217 C   0  0  0  0  0  0  0  0  0  0  0  0
  -24.7843  -27.7094   19.7452 C   0  0  0  0  0  0  0  0  0  0  0  0
  -27.2303  -20.4181   21.0588 C   0  0  0  0  0  0  0  0  0  0  0  0
  -28.4525  -19.7518   20.9690 C   0  0  0  0  0  0  0  0  0  0  0  0
  -24.2282   -9.1433   24.3434 C   0  0  0  0  0  0  0  0  0  0  0  0
  -27.0546  -26.9572   20.1808 C   0  0  0  0  0  0  0  0  0  0  0  0
  -28.3898  -22.4768   21.5634 C   0  0  0  0  0  0  0  0  0  0  0  0
  -22.9046   -7.2282   24.6638 C   0  0  0  0  0  0  0  0  0  0  0  0
  -20.9028   -5.5186   23.7403 C   0  0  0  0  0  0  0  0  0  0  0  0
  -23.1863   -5.8803   24.4416 C   0  0  0  0  0  0  0  0  0  0  0  0
  -25.2576  -12.4560   21.9218 C   0  0  0  0  0  0  0  0  0  0  0  0
  -25.1985  -14.2287   20.6221 C   0  0  0  0  0  0  0  0  0  0  0  0
  -22.9428  -13.3512   21.2471 C   0  0  0  0  0  0  0  0  0  0  0  0
  -22.2237  -28.9836   21.6022 C   0  0  0  0  0  0  0  0  0  0  0  0
  -21.2381  -28.4993   18.5499 C   0  0  0  0  0  0  0  0  0  0  0  0
  -21.9698  -27.3694   15.4139 C   0  0  0  0  0  0  0  0  0  0  0  0
  -29.6476  -17.5756   20.5422 C   0  0  0  0  0  0  0  0  0  0  0  0
  -18.8382  -31.1558   24.7450 C   0  0  0  0  0  0  0  0  0  0  0  0
  -24.0847  -30.0704   20.2939 C   0  0  0  0  0  0  0  0  0  0  0  0
  -23.4059  -27.3985   19.2238 C   0  0  0  0  0  0  0  0  0  0  0  0
  -18.7676  -30.2050   23.5528 C   0  0  0  0  0  0  0  0  0  0  0  0
  -30.1991  -14.1281   19.8441 C   0  0  0  0  0  0  0  0  0  0  0  0
  -25.7363  -18.9407   19.5557 C   0  0  0  0  0  0  0  0  0  0  0  0
  -24.9831  -20.2109   19.7998 C   0  0  0  0  0  0  0  0  0  0  0  0
  -19.7595  -29.0590   23.7245 C   0  0  0  0  0  0  0  0  0  0  0  0
  -28.8902  -13.4583   20.2686 C   0  0  0  0  0  0  0  0  0  0  0  0
  -30.5736  -15.2813   20.7734 C   0  0  0  0  0  0  0  0  0  0  0  0
  -28.2132  -15.6177   21.3935 C   0  0  0  0  0  0  0  0  0  0  0  0
  -25.9405  -19.6968   20.8409 C   0  0  0  0  0  0  0  0  0  0  0  0
  -21.1999  -29.5812   23.7897 C   0  0  1  0  0  0  0  0  0  0  0  0
  -22.6498  -29.5523   20.2783 C   0  0  1  0  0  0  0  0  0  0  0  0
  -27.7611  -14.4917   20.4494 C   0  0  2  0  0  0  0  0  0  0  0  0
  -20.9504  -27.0689   13.1406 C   0  0  0  0  0  0  0  0  0  0  0  0
  -19.6914  -26.0736   19.5667 C   0  0  0  0  0  0  0  0  0  0  0  0
  -19.4954  -25.2922   17.1962 C   0  0  0  0  0  0  0  0  0  0  0  0
  -18.4683  -27.4595   17.8822 C   0  0  0  0  0  0  0  0  0  0  0  0
  -23.9521  -29.1733   14.1589 C   0  0  0  0  0  0  0  0  0  0  0  0
  -29.0098  -26.0067   21.1451 C   0  0  0  0  0  0  0  0  0  1  0  0
  -29.4719  -24.5901   21.4263 C   0  0  0  0  0  0  0  0  0  0  0  0
  -20.9832  -27.2860   17.6885 C   0  0  1  0  0  0  0  0  0  0  0  0
  -21.7560  -27.9889   14.0446 C   0  0  2  0  0  0  0  0  0  0  0  0
  -19.6851  -26.5328   18.0949 C   0  0  0  0  0  0  0  0  0  0  0  0
  -26.5412  -12.7586   21.7102 N   0  0  0  0  0  0  0  0  0  0  0  0
  -26.4726  -13.8408   20.9163 N   0  0  0  0  0  0  0  0  0  0  0  0
  -22.4375  -28.5062   19.2759 N   0  0  0  0  0  0  0  0  0  0  0  0
  -29.4578  -16.2223   20.8932 N   0  0  0  0  0  0  0  0  0  0  0  0
  -24.9486  -15.2978   19.8367 N   0  0  0  0  0  0  0  0  0  0  0  0
  -22.2549  -12.3638   21.9654 N   0  0  0  0  0  0  0  0  0  0  0  0
  -28.5073  -18.3688   20.6660 N   0  0  0  0  0  0  0  0  0  0  0  0
  -21.6771  -29.9145   22.4648 N   0  0  0  0  0  0  0  0  0  0  0  0
  -20.9936  -27.7563   16.3076 N   0  0  0  0  0  0  0  0  0  0  0  0
  -23.0664  -28.2621   13.3894 N   0  3  0  0  0  0  0  0  0  0  0  0
  -22.2913  -14.2034   20.5968 O   0  0  0  0  0  0  0  0  0  0  0  0
  -22.3779  -27.7883   21.8240 O   0  0  0  0  0  0  0  0  0  0  0  0
  -20.4070  -29.4106   18.5721 O   0  0  0  0  0  0  0  0  0  0  0  0
  -22.9067  -26.6144   15.6645 O   0  0  0  0  0  0  0  0  0  0  0  0
  -30.7340  -17.9940   20.1341 O   0  0  0  0  0  0  0  0  0  0  0  0
  -23.8970   -8.0779   25.1230 O   0  0  0  0  0  0  0  0  0  0  0  0
  -27.9964  -25.9756   20.1410 O   0  0  0  0  0  0  0  0  0  1  0  0
  -28.3592  -23.8150   21.8557 O   0  0  0  0  0  0  0  0  0  0  0  0
  -19.9412   -4.6976   23.2983 F   0  0  0  0  0  0  0  0  0  0  0  0
  -24.4164   -5.4005   24.6709 F   0  0  0  0  0  0  0  0  0  0  0  0
  1  2  1  0  0  0  0
  1  5  2  0  0  0  0
  2  6  2  0  0  0  0
  3  9  2  0  0  0  0
  3 18  1  0  0  0  0
  4 10  1  0  0  0  0
  4 18  2  0  0  0  0
  5 20  1  0  0  0  0
  6 22  1  0  0  0  0
  7 11  2  0  0  0  0
  7 21  1  0  0  0  0
  8 12  2  0  0  0  0
  8 25  1  0  0  0  0
  9 26  1  0  0  0  0
 10 26  2  0  0  0  0
 11 27  1  0  0  0  0
 12 28  1  0  0  0  0
 13 14  2  0  0  0  0
 13 29  1  0  0  0  0
 14 30  1  0  0  0  0
 15 23  1  0  0  0  0
 15 27  2  0  0  0  0
 16 24  1  0  0  0  0
 16 28  2  0  0  0  0
 17 30  2  0  0  0  0
 17 31  1  0  0  0  0
 18 32  1  0  0  0  0
 19 32  1  0  0  0  0
 19 33  2  0  0  0  0
 19 34  1  0  0  0  0
 20 22  2  0  0  0  0
 20 39  1  0  0  0  0
 21 23  2  0  0  0  0
 21 40  1  0  0  0  0
 22 51  1  0  0  0  0
 23 41  1  0  0  0  0
 24 25  2  0  0  0  0
 24 50  1  0  0  0  0
 25 70  1  0  0  0  0
 26 79  1  0  0  0  0
 27 80  1  0  0  0  0
 28 81  1  0  0  0  0
 29 31  2  0  0  0  0
 29 79  1  0  0  0  0
 30 82  1  0  0  0  0
 31 83  1  0  0  0  0
 32 64  2  0  0  0  0
 33 65  1  0  0  0  0
 33 68  1  0  0  0  0
 34 69  1  0  0  0  0
 34 74  2  0  0  0  0
 35 52  1  0  0  0  0
 35 71  1  0  0  0  0
 35 75  2  0  0  0  0
 36 61  1  0  0  0  0
 36 66  1  0  0  0  0
 36 76  2  0  0  0  0
 37 62  1  0  0  0  0
 37 72  1  0  0  0  0
 37 77  2  0  0  0  0
 38 67  1  0  0  0  0
 38 70  1  0  0  0  0
 38 78  2  0  0  0  0
 39 42  1  0  0  0  0
 40 52  1  0  0  0  0
 41 66  1  0  0  0  0
 42 46  1  0  0  0  0
 43 47  1  0  0  0  0
 43 48  1  0  0  0  0
 44 45  1  0  0  0  0
 44 50  1  0  0  0  0
 45 50  1  0  0  0  0
 46 51  1  0  0  0  0
 47 53  1  0  0  0  0
 48 67  1  0  0  0  0
 49 53  1  0  0  0  0
 49 67  1  0  0  0  0
 51 71  1  0  0  0  0
 52 66  1  0  0  0  0
 53 65  1  0  0  0  0
 54 62  1  0  0  0  0
 55 63  1  0  0  0  0
 56 63  1  0  0  0  0
 57 63  1  0  0  0  0
 58 73  1  0  0  0  0
 59 60  1  0  0  0  0
 59 80  1  0  0  0  0
 60 81  1  0  0  0  0
 61 63  1  0  0  0  0
 61 72  1  0  0  0  0
 62 73  1  0  0  0  0
 64 65  1  0  0  0  0
M  CHG  1  73   1
M  ISO  4  38 100  59 101  70 100  80 101
M  END
> <Batch ID>
0141

> <Smiles>
CNC(C)C(=O)NC(C(=O)N1Cc2cc([101O:1][101CH2:1]COc3ccc([100NH:0][100C:0](=O)N4CCCC(n5nc(-c6ccc(Oc7ccc(F)cc7F)cc6)c(C(N)=O)c5N)C4)c(C4CC4)c3)ccc2CC1C(=O)NC1CCCc2ccccc21)C(C)(C)C

> <Shape>
0.258

> <Color>
0.129

> <Negative vol penalty>
0.000

$$$$

  -OEChem-04052321163D

 83 92  0     1  0  0  0  0  0999 V2000
  -21.7261  -32.9724   26.4146 C   0  0  0  0  0  0  0  0  0  0  0  0
  -22.8239  -32.2273   25.9962 C   0  0  0  0  0  0  0  0  0  0  0  0
  -24.7444  -10.0669   22.1715 C   0  0  0  0  0  0  0  0  0  0  0  0
  -24.7296  -11.4961   24.1195 C   0  0  0  0  0  0  0  0  0  0  0  0
  -20.4447  -32.6215   25.9917 C   0  0  0  0  0  0  0  0  0  0  0  0
  -22.6408  -31.1300   25.1554 C   0  0  0  0  0  0  0  0  0  0  0  0
  -26.4114  -29.2171   20.7250 C   0  0  0  0  0  0  0  0  0  0  0  0
  -29.6433  -20.4480   21.1765 C   0  0  0  0  0  0  0  0  0  0  0  0
  -24.4052   -8.9748   22.9702 C   0  0  0  0  0  0  0  0  0  0  0  0
  -24.3904  -10.4039   24.9181 C   0  0  0  0  0  0  0  0  0  0  0  0
  -27.3784  -28.2135   20.6847 C   0  0  0  0  0  0  0  0  0  0  0  0
  -29.6119  -21.8105   21.4736 C   0  0  0  0  0  0  0  0  0  0  0  0
  -21.6219   -7.7213   24.4243 C   0  0  0  0  0  0  0  0  0  0  0  0
  -20.6211   -6.8666   23.9625 C   0  0  0  0  0  0  0  0  0  0  0  0
  -25.7652  -26.7066   19.7120 C   0  0  0  0  0  0  0  0  0  0  0  0
  -27.1990  -21.7806   21.3560 C   0  0  0  0  0  0  0  0  0  0  0  0
  -22.1854   -5.0255   23.9798 C   0  0  0  0  0  0  0  0  0  0  0  0
  -24.9067  -11.3276   22.7462 C   0  0  0  0  0  0  0  0  0  0  0  0
  -24.3764  -13.3381   21.2682 C   0  0  0  0  0  0  0  0  0  0  0  0
  -20.2468  -31.5252   25.1375 C   0  0  0  0  0  0  0  0  0  0  0  0
  -25.1089  -28.9692   20.2684 C   0  0  0  0  0  0  0  0  0  0  0  0
  -21.3554  -30.7633   24.7217 C   0  0  0  0  0  0  0  0  0  0  0  0
  -24.7843  -27.7094   19.7452 C   0  0  0  0  0  0  0  0  0  0  0  0
  -27.2303  -20.4181   21.0588 C   0  0  0  0  0  0  0  0  0  0  0  0
  -28.4525  -19.7518   20.9690 C   0  0  0  0  0  0  0  0  0  0  0  0
  -24.2282   -9.1433   24.3434 C   0  0  0  0  0  0  0  0  0  0  0  0
  -27.0546  -26.9572   20.1808 C   0  0  0  0  0  0  0  0  0  0  0  0
  -28.3898  -22.4768   21.5634 C   0  0  0  0  0  0  0  0  0  0  0  0
  -22.9046   -7.2282   24.6638 C   0  0  0  0  0  0  0  0  0  0  0  0
  -20.9028   -5.5186   23.7403 C   0  0  0  0  0  0  0  0  0  0  0  0
  -23.1863   -5.8803   24.4416 C   0  0  0  0  0  0  0  0  0  0  0  0
  -25.2576  -12.4560   21.9218 C   0  0  0  0  0  0  0  0  0  0  0  0
  -25.1985  -14.2287   20.6221 C   0  0  0  0  0  0  0  0  0  0  0  0
  -22.9428  -13.3512   21.2471 C   0  0  0  0  0  0  0  0  0  0  0  0
  -22.2237  -28.9836   21.6022 C   0  0  0  0  0  0  0  0  0  0  0  0
  -21.2381  -28.4993   18.5499 C   0  0  0  0  0  0  0  0  0  0  0  0
  -21.9698  -27.3694   15.4139 C   0  0  0  0  0  0  0  0  0  0  0  0
  -29.6476  -17.5756   20.5422 C   0  0  0  0  0  0  0  0  0  0  0  0
  -18.8382  -31.1558   24.7450 C   0  0  0  0  0  0  0  0  0  0  0  0
  -24.0847  -30.0704   20.2939 C   0  0  0  0  0  0  0  0  0  0  0  0
  -23.4059  -27.3985   19.2238 C   0  0  0  0  0  0  0  0  0  0  0  0
  -18.7676  -30.2050   23.5528 C   0  0  0  0  0  0  0  0  0  0  0  0
  -30.1991  -14.1281   19.8441 C   0  0  0  0  0  0  0  0  0  0  0  0
  -25.7363  -18.9407   19.5557 C   0  0  0  0  0  0  0  0  0  0  0  0
  -24.9831  -20.2109   19.7998 C   0  0  0  0  0  0  0  0  0  0  0  0
  -19.7595  -29.0590   23.7245 C   0  0  0  0  0  0  0  0  0  0  0  0
  -28.8902  -13.4583   20.2686 C   0  0  0  0  0  0  0  0  0  0  0  0
  -30.5736  -15.2813   20.7734 C   0  0  0  0  0  0  0  0  0  0  0  0
  -28.2132  -15.6177   21.3935 C   0  0  0  0  0  0  0  0  0  0  0  0
  -25.9405  -19.6968   20.8409 C   0  0  0  0  0  0  0  0  0  0  0  0
  -21.1999  -29.5812   23.7897 C   0  0  1  0  0  0  0  0  0  0  0  0
  -22.6498  -29.5523   20.2783 C   0  0  1  0  0  0  0  0  0  0  0  0
  -27.7611  -14.4917   20.4494 C   0  0  2  0  0  0  0  0  0  0  0  0
  -20.9504  -27.0689   13.1406 C   0  0  0  0  0  0  0  0  0  0  0  0
  -19.6914  -26.0736   19.5667 C   0  0  0  0  0  0  0  0  0  0  0  0
  -19.4954  -25.2922   17.1962 C   0  0  0  0  0  0  0  0  0  0  0  0
  -18.4683  -27.4595   17.8822 C   0  0  0  0  0  0  0  0  0  0  0  0
  -23.9521  -29.1733   14.1589 C   0  0  0  0  0  0  0  0  0  0  0  0
  -29.0098  -26.0067   21.1451 C   0  0  0  0  0  0  0  0  0  1  0  0
  -29.4719  -24.5901   21.4263 C   0  0  0  0  0  0  0  0  0  0  0  0
  -20.9832  -27.2860   17.6885 C   0  0  1  0  0  0  0  0  0  0  0  0
  -21.7560  -27.9889   14.0446 C   0  0  2  0  0  0  0  0  0  0  0  0
  -19.6851  -26.5328   18.0949 C   0  0  0  0  0  0  0  0  0  0  0  0
  -26.5412  -12.7586   21.7102 N   0  0  0  0  0  0  0  0  0  0  0  0
  -26.4726  -13.8408   20.9163 N   0  0  0  0  0  0  0  0  0  0  0  0
  -22.4375  -28.5062   19.2759 N   0  0  0  0  0  0  0  0  0  0  0  0
  -29.4578  -16.2223   20.8932 N   0  0  0  0  0  0  0  0  0  0  0  0
  -24.9486  -15.2978   19.8367 N   0  0  0  0  0  0  0  0  0  0  0  0
  -22.2549  -12.3638   21.9654 N   0  0  0  0  0  0  0  0  0  0  0  0
  -28.5073  -18.3688   20.6660 N   0  0  0  0  0  0  0  0  0  0  0  0
  -21.6771  -29.9145   22.4648 N   0  0  0  0  0  0  0  0  0  0  0  0
  -20.9936  -27.7563   16.3076 N   0  0  0  0  0  0  0  0  0  0  0  0
  -23.0664  -28.2621   13.3894 N   0  3  0  0  0  0  0  0  0  0  0  0
  -22.2913  -14.2034   20.5968 O   0  0  0  0  0  0  0  0  0  0  0  0
  -22.3779  -27.7883   21.8240 O   0  0  0  0  0  0  0  0  0  0  0  0
  -20.4070  -29.4106   18.5721 O   0  0  0  0  0  0  0  0  0  0  0  0
  -22.9067  -26.6144   15.6645 O   0  0  0  0  0  0  0  0  0  0  0  0
  -30.7340  -17.9940   20.1341 O   0  0  0  0  0  0  0  0  0  0  0  0
  -23.8970   -8.0779   25.1230 O   0  0  0  0  0  0  0  0  0  0  0  0
  -27.9964  -25.9756   20.1410 O   0  0  0  0  0  0  0  0  0  1  0  0
  -28.3592  -23.8150   21.8557 O   0  0  0  0  0  0  0  0  0  0  0  0
  -19.9412   -4.6976   23.2983 F   0  0  0  0  0  0  0  0  0  0  0  0
  -24.4164   -5.4005   24.6709 F   0  0  0  0  0  0  0  0  0  0  0  0
  1  2  1  0  0  0  0
  1  5  2  0  0  0  0
  2  6  2  0  0  0  0
  3  9  2  0  0  0  0
  3 18  1  0  0  0  0
  4 10  1  0  0  0  0
  4 18  2  0  0  0  0
  5 20  1  0  0  0  0
  6 22  1  0  0  0  0
  7 11  2  0  0  0  0
  7 21  1  0  0  0  0
  8 12  2  0  0  0  0
  8 25  1  0  0  0  0
  9 26  1  0  0  0  0
 10 26  2  0  0  0  0
 11 27  1  0  0  0  0
 12 28  1  0  0  0  0
 13 14  2  0  0  0  0
 13 29  1  0  0  0  0
 14 30  1  0  0  0  0
 15 23  1  0  0  0  0
 15 27  2  0  0  0  0
 16 24  1  0  0  0  0
 16 28  2  0  0  0  0
 17 30  2  0  0  0  0
 17 31  1  0  0  0  0
 18 32  1  0  0  0  0
 19 32  1  0  0  0  0
 19 33  2  0  0  0  0
 19 34  1  0  0  0  0
 20 22  2  0  0  0  0
 20 39  1  0  0  0  0
 21 23  2  0  0  0  0
 21 40  1  0  0  0  0
 22 51  1  0  0  0  0
 23 41  1  0  0  0  0
 24 25  2  0  0  0  0
 24 50  1  0  0  0  0
 25 70  1  0  0  0  0
 26 79  1  0  0  0  0
 27 80  1  0  0  0  0
 28 81  1  0  0  0  0
 29 31  2  0  0  0  0
 29 79  1  0  0  0  0
 30 82  1  0  0  0  0
 31 83  1  0  0  0  0
 32 64  2  0  0  0  0
 33 65  1  0  0  0  0
 33 68  1  0  0  0  0
 34 69  1  0  0  0  0
 34 74  2  0  0  0  0
 35 52  1  0  0  0  0
 35 71  1  0  0  0  0
 35 75  2  0  0  0  0
 36 61  1  0  0  0  0
 36 66  1  0  0  0  0
 36 76  2  0  0  0  0
 37 62  1  0  0  0  0
 37 72  1  0  0  0  0
 37 77  2  0  0  0  0
 38 67  1  0  0  0  0
 38 70  1  0  0  0  0
 38 78  2  0  0  0  0
 39 42  1  0  0  0  0
 40 52  1  0  0  0  0
 41 66  1  0  0  0  0
 42 46  1  0  0  0  0
 43 47  1  0  0  0  0
 43 48  1  0  0  0  0
 44 45  1  0  0  0  0
 44 50  1  0  0  0  0
 45 50  1  0  0  0  0
 46 51  1  0  0  0  0
 47 53  1  0  0  0  0
 48 67  1  0  0  0  0
 49 53  1  0  0  0  0
 49 67  1  0  0  0  0
 51 71  1  0  0  0  0
 52 66  1  0  0  0  0
 53 65  1  0  0  0  0
 54 62  1  0  0  0  0
 55 63  1  0  0  0  0
 56 63  1  0  0  0  0
 57 63  1  0  0  0  0
 58 73  1  0  0  0  0
 59 60  1  0  0  0  0
 59 80  1  0  0  0  0
 60 81  1  0  0  0  0
 61 63  1  0  0  0  0
 61 72  1  0  0  0  0
 62 73  1  0  0  0  0
 64 65  1  0  0  0  0
M  CHG  1  73   1
M  ISO  4  38 100  59 101  70 100  80 101
M  END
> <Batch ID>
0141

> <Smiles>
CNC(C)C(=O)NC(C(=O)N1Cc2cc([101O:1][101CH2:1]COc3ccc([100NH:0][100C:0](=O)N4CCCC(n5nc(-c6ccc(Oc7ccc(F)cc7F)cc6)c(C(N)=O)c5N)C4)c(C4CC4)c3)ccc2CC1C(=O)NC1CCCc2ccccc21)C(C)(C)C

> <Shape>
0.258

> <Color>
0.129

> <Negative vol penalty>
0.000

$$$$

  -OEChem-04052321163D

 89 97  0     1  0  0  0  0  0999 V2000
  -20.2548  -23.6943   19.9056 C   0  0  0  0  0  0  0  0  0  0  0  0
  -21.5963  -23.3965   20.1230 C   0  0  0  0  0  0  0  0  0  0  0  0
  -22.3696  -29.1814   19.5569 C   0  0  0  0  0  0  0  0  0  0  0  0
  -22.5057  -28.0597   21.6924 C   0  0  0  0  0  0  0  0  0  0  0  0
  -19.2675  -22.8021   20.3217 C   0  0  0  0  0  0  0  0  0  0  0  0
  -21.9511  -22.2067   20.7577 C   0  0  0  0  0  0  0  0  0  0  0  0
  -25.7930  -19.8462   18.4528 C   0  0  0  0  0  0  0  0  0  0  0  0
  -20.9806  -29.2332   19.6726 C   0  0  0  0  0  0  0  0  0  0  0  0
  -21.1166  -28.1116   21.8081 C   0  0  0  0  0  0  0  0  0  0  0  0
  -27.0753  -20.3428   18.6826 C   0  0  0  0  0  0  0  0  0  0  0  0
  -18.7728  -30.3950   22.6526 C   0  0  0  0  0  0  0  0  0  0  0  0
  -18.2406  -30.7875   23.8807 C   0  0  0  0  0  0  0  0  0  0  0  0
  -27.4564  -18.5937   20.2996 C   0  0  0  0  0  0  0  0  0  0  0  0
  -17.1005  -28.6654   24.0650 C   0  0  0  0  0  0  0  0  0  0  0  0
  -23.1322  -28.5945   20.5667 C   0  0  0  0  0  0  0  0  0  0  0  0
  -25.4942  -29.5011   20.8934 C   0  0  0  0  0  0  0  0  0  0  0  0
  -19.6109  -21.5963   20.9532 C   0  0  0  0  0  0  0  0  0  0  0  0
  -25.3281  -18.7242   19.1537 C   0  0  0  0  0  0  0  0  0  0  0  0
  -20.9674  -21.2981   21.1839 C   0  0  0  0  0  0  0  0  0  0  0  0
  -26.1687  -18.0833   20.0749 C   0  0  0  0  0  0  0  0  0  0  0  0
  -20.3540  -28.6984   20.7982 C   0  0  0  0  0  0  0  0  0  0  0  0
  -27.9062  -19.7183   19.6082 C   0  0  0  0  0  0  0  0  0  0  0  0
  -18.4688  -29.1376   22.1306 C   0  0  0  0  0  0  0  0  0  0  0  0
  -17.4045  -29.9227   24.5869 C   0  0  0  0  0  0  0  0  0  0  0  0
  -17.6327  -28.2728   22.8368 C   0  0  0  0  0  0  0  0  0  0  0  0
  -24.5671  -28.5401   20.4475 C   0  0  0  0  0  0  0  0  0  0  0  0
  -26.7183  -28.9846   20.5451 C   0  0  0  0  0  0  0  0  0  0  0  0
  -25.2690  -30.7489   21.5626 C   0  0  0  0  0  0  0  0  0  0  0  0
  -22.9464  -18.1778   21.1867 C   0  0  0  0  0  0  0  0  0  0  0  0
  -23.9230  -15.0982   20.8959 C   0  0  0  0  0  0  0  0  0  0  0  0
  -26.4371  -12.9141   20.1504 C   0  0  0  0  0  0  0  0  0  0  0  0
  -30.2804  -24.7004   20.2247 C   0  0  0  0  0  0  0  0  0  0  0  0
  -18.5066  -20.6852   21.4277 C   0  0  0  0  0  0  0  0  0  0  0  0
  -23.9520  -18.1848   18.8748 C   0  0  0  0  0  0  0  0  0  0  0  0
  -25.7246  -16.8635   20.8387 C   0  0  0  0  0  0  0  0  0  0  0  0
  -18.9818  -19.2724   21.7568 C   0  0  0  0  0  0  0  0  0  0  0  0
  -27.9148  -25.0590   17.5880 C   0  0  0  0  0  0  0  0  0  0  0  0
  -20.2498  -19.3193   22.6034 C   0  0  0  0  0  0  0  0  0  0  0  0
  -26.9068  -26.0706   18.1360 C   0  0  0  0  0  0  0  0  0  0  0  0
  -28.4295  -24.1259   18.6818 C   0  0  0  0  0  0  0  0  0  0  0  0
  -27.9761  -25.8187   20.4146 C   0  0  0  0  0  0  0  0  0  0  0  0
  -21.3932  -20.0061   21.8468 C   0  0  1  0  0  0  0  0  0  0  0  0
  -23.3962  -17.3443   20.0202 C   0  0  1  0  0  0  0  0  0  0  0  0
  -31.2706  -23.5748   23.4484 C   0  0  1  0  0  0  0  0  0  0  0  0
  -27.4708  -26.8176   19.3596 C   0  0  2  0  0  0  0  0  0  0  0  0
  -30.9043  -23.6429   24.9240 C   0  0  2  0  0  0  0  0  0  0  0  0
  -31.9901  -24.9049   23.2748 C   0  0  1  0  0  0  0  0  0  0  0  0
  -26.9456  -10.4592   20.0395 C   0  0  0  0  0  0  0  0  0  0  0  0
  -29.4873  -22.7938   26.8147 C   0  0  0  0  0  0  0  0  0  0  0  0
  -28.5143  -22.9958   24.5090 C   0  0  0  0  0  0  0  0  0  0  0  0
  -33.6426  -28.6571   20.3633 C   0  0  0  0  0  0  0  0  0  0  0  0
  -33.6496  -26.3589   19.3750 C   0  0  0  0  0  0  0  0  0  0  0  0
  -32.1806  -19.8281   22.9921 C   0  0  0  0  0  0  0  0  0  0  0  0
  -24.1145  -15.0028   23.9397 C   0  0  0  0  0  0  0  0  0  0  0  0
  -25.4964  -12.9269   23.7181 C   0  0  0  0  0  0  0  0  0  0  0  0
  -23.1432  -12.9508   22.8907 C   0  0  0  0  0  0  0  0  0  0  0  0
  -27.0266  -13.0489   17.2533 C   0  0  0  0  0  0  0  0  0  0  0  0
  -32.1247  -22.3681   23.0847 C   0  0  0  0  0  0  0  0  0  0  0  0
  -30.6666  -21.1529   21.4387 C   0  0  0  0  0  0  0  0  0  0  0  0
  -32.7624  -26.7465   21.7391 C   0  0  0  0  0  0  0  0  0  0  0  0
  -29.7008  -20.0116   21.1410 C   0  0  0  0  0  0  0  0  0  1  0  0
  -24.9187  -14.2200   21.6145 C   0  0  1  0  0  0  0  0  0  0  0  0
  -26.4704  -11.6800   19.2671 C   0  0  2  0  0  0  0  0  0  0  0  0
  -29.7769  -22.6973   25.3170 C   0  0  0  0  0  0  0  0  0  0  0  0
  -32.0383  -25.3914   21.8344 C   0  0  2  0  0  0  0  0  0  0  0  0
  -32.9084  -27.3141   20.3113 C   0  0  0  0  0  0  0  0  0  0  0  0
  -31.3120  -21.0800   22.8371 C   0  0  1  0  0  0  0  0  0  0  0  0
  -24.4262  -13.7992   23.0279 C   0  0  0  0  0  0  0  0  0  0  0  0
  -25.1521  -27.4926   19.8606 N   0  0  0  0  0  0  0  0  0  0  0  0
  -26.4601  -27.7924   19.9352 N   0  0  0  0  0  0  0  0  0  0  0  0
  -30.5255  -25.0471   25.1107 N   0  0  0  0  0  0  0  0  0  0  0  0
  -31.2090  -25.8273   24.1064 N   0  0  0  0  0  0  0  0  0  0  0  0
  -24.3682  -16.3779   20.5355 N   0  0  0  0  0  0  0  0  0  0  0  0
  -28.9521  -24.8969   19.8124 N   0  0  0  0  0  0  0  0  0  0  0  0
  -27.9797  -29.4387   20.7040 N   0  0  0  0  0  0  0  0  0  0  0  0
  -23.9493  -31.1272   21.8446 N   0  0  0  0  0  0  0  0  0  0  0  0
  -21.9692  -19.1031   20.8734 N   0  0  0  0  0  0  0  0  0  0  0  0
  -25.1956  -13.1008   20.7205 N   0  0  0  0  0  0  0  0  0  0  0  0
  -30.6976  -25.4759   21.2996 N   0  0  0  0  0  0  0  0  0  0  0  0
  -27.3894  -11.8933   18.1134 N   0  3  0  0  0  0  0  0  0  0  0  0
  -26.2093  -31.5136   21.8859 O   0  0  0  0  0  0  0  0  0  0  0  0
  -23.4478  -17.9939   22.2896 O   0  0  0  0  0  0  0  0  0  0  0  0
  -22.7942  -14.6621   20.6567 O   0  0  0  0  0  0  0  0  0  0  0  0
  -27.4157  -13.6379   20.3207 O   0  0  0  0  0  0  0  0  0  0  0  0
  -31.0400  -23.8975   19.6722 O   0  0  0  0  0  0  0  0  0  0  0  0
  -18.9986  -28.7491   20.9116 O   0  0  0  0  0  0  0  0  0  0  0  0
  -29.1580  -20.2014   19.8350 O   0  0  0  0  0  0  0  0  0  1  0  0
  -16.8947  -30.2992   25.7669 F   0  0  0  0  0  0  0  0  0  0  0  0
  -17.3381  -27.0632   22.3410 F   0  0  0  0  0  0  0  0  0  0  0  0
  1  2  1  0  0  0  0
  1  5  2  0  0  0  0
  2  6  2  0  0  0  0
  3  8  2  0  0  0  0
  3 15  1  0  0  0  0
  4  9  1  0  0  0  0
  4 15  2  0  0  0  0
  5 17  1  0  0  0  0
  6 19  1  0  0  0  0
  7 10  2  0  0  0  0
  7 18  1  0  0  0  0
  8 21  1  0  0  0  0
  9 21  2  0  0  0  0
 10 22  1  0  0  0  0
 11 12  2  0  0  0  0
 11 23  1  0  0  0  0
 12 24  1  0  0  0  0
 13 20  1  0  0  0  0
 13 22  2  0  0  0  0
 14 24  2  0  0  0  0
 14 25  1  0  0  0  0
 15 26  1  0  0  0  0
 16 26  1  0  0  0  0
 16 27  2  0  0  0  0
 16 28  1  0  0  0  0
 17 19  2  0  0  0  0
 17 33  1  0  0  0  0
 18 20  2  0  0  0  0
 18 34  1  0  0  0  0
 19 42  1  0  0  0  0
 20 35  1  0  0  0  0
 21 86  1  0  0  0  0
 22 87  1  0  0  0  0
 23 25  2  0  0  0  0
 23 86  1  0  0  0  0
 24 88  1  0  0  0  0
 25 89  1  0  0  0  0
 26 69  2  0  0  0  0
 27 70  1  0  0  0  0
 27 75  1  0  0  0  0
 28 76  1  0  0  0  0
 28 81  2  0  0  0  0
 29 43  1  0  0  0  0
 29 77  1  0  0  0  0
 29 82  2  0  0  0  0
 30 62  1  0  0  0  0
 30 73  1  0  0  0  0
 30 83  2  0  0  0  0
 31 63  1  0  0  0  0
 31 78  1  0  0  0  0
 31 84  2  0  0  0  0
 32 74  1  0  0  0  0
 32 79  1  0  0  0  0
 32 85  2  0  0  0  0
 33 36  1  0  0  0  0
 34 43  1  0  0  0  0
 35 73  1  0  0  0  0
 36 38  1  0  0  0  0
 37 39  1  0  0  0  0
 37 40  1  0  0  0  0
 38 42  1  0  0  0  0
 39 45  1  0  0  0  0
 40 74  1  0  0  0  0
 41 45  1  0  0  0  0
 41 74  1  0  0  0  0
 42 77  1  0  0  0  0
 43 73  1  0  0  0  0
 44 46  1  0  0  0  0
 44 47  1  0  0  0  0
 44 58  1  0  0  0  0
 45 70  1  0  0  0  0
 46 64  1  0  0  0  0
 46 71  1  0  0  0  0
 47 65  1  0  0  0  0
 47 72  1  0  0  0  0
 48 63  1  0  0  0  0
 49 64  1  0  0  0  0
 50 64  1  0  0  0  0
 51 66  1  0  0  0  0
 52 66  1  0  0  0  0
 53 67  1  0  0  0  0
 54 68  1  0  0  0  0
 55 68  1  0  0  0  0
 56 68  1  0  0  0  0
 57 80  1  0  0  0  0
 58 67  1  0  0  0  0
 59 61  1  0  0  0  0
 59 67  1  0  0  0  0
 60 65  1  0  0  0  0
 60 66  1  0  0  0  0
 61 87  1  0  0  0  0
 62 68  1  0  0  0  0
 62 78  1  0  0  0  0
 63 80  1  0  0  0  0
 65 79  1  0  0  0  0
 69 70  1  0  0  0  0
 71 72  1  0  0  0  0
M  CHG  1  80   1
M  ISO  4  32 100  61 101  79 100  87 101
M  END
> <Batch ID>
0141

> <Smiles>
CNC(C)C(=O)NC(C(=O)N1Cc2cc([101O:1][101CH2:1]CC(C)CC3C(C(C)C)NNC3C(CC(C)C)[100NH:0][100C:0](=O)N3CCCC(n4nc(-c5ccc(Oc6ccc(F)cc6F)cc5)c(C(N)=O)c4N)C3)ccc2CC1C(=O)NC1CCCc2ccccc21)C(C)(C)C

> <Shape>
0.215

> <Color>
0.066

> <Negative vol penalty>
0.000

$$$$

  -OEChem-04052321163D

 87 96  0     1  0  0  0  0  0999 V2000
  -17.0454  -29.5606   24.7262 C   0  0  0  0  0  0  0  0  0  0  0  0
  -18.2998  -29.7310   25.3031 C   0  0  0  0  0  0  0  0  0  0  0  0
  -24.2856  -12.2302   21.0023 C   0  0  0  0  0  0  0  0  0  0  0  0
  -24.4440  -13.4877   23.0592 C   0  0  0  0  0  0  0  0  0  0  0  0
  -16.9257  -28.9043   23.5019 C   0  0  0  0  0  0  0  0  0  0  0  0
  -19.4353  -29.2441   24.6565 C   0  0  0  0  0  0  0  0  0  0  0  0
  -26.3815  -30.7156   23.7071 C   0  0  0  0  0  0  0  0  0  0  0  0
  -32.7331  -23.9420   22.5582 C   0  0  0  0  0  0  0  0  0  0  0  0
  -24.2932  -11.0399   21.7294 C   0  0  0  0  0  0  0  0  0  0  0  0
  -24.4515  -12.2973   23.7863 C   0  0  0  0  0  0  0  0  0  0  0  0
  -27.6347  -30.1146   23.8176 C   0  0  0  0  0  0  0  0  0  0  0  0
  -32.0044  -24.8981   23.2656 C   0  0  0  0  0  0  0  0  0  0  0  0
  -23.9069   -7.6811   23.0652 C   0  0  0  0  0  0  0  0  0  0  0  0
  -22.9829   -6.6984   22.7101 C   0  0  0  0  0  0  0  0  0  0  0  0
  -27.3151  -29.0670   21.6683 C   0  0  0  0  0  0  0  0  0  0  0  0
  -30.0717  -24.4437   21.8889 C   0  0  0  0  0  0  0  0  0  0  0  0
  -21.1739   -8.2283   23.1840 C   0  0  0  0  0  0  0  0  0  0  0  0
  -24.3611  -13.4541   21.6672 C   0  0  0  0  0  0  0  0  0  0  0  0
  -23.2301  -15.4432   20.5393 C   0  0  0  0  0  0  0  0  0  0  0  0
  -18.0613  -28.4177   22.8353 C   0  0  0  0  0  0  0  0  0  0  0  0
  -25.5798  -30.4877   22.5794 C   0  0  0  0  0  0  0  0  0  0  0  0
  -19.3306  -28.5795   23.4228 C   0  0  0  0  0  0  0  0  0  0  0  0
  -26.0532  -29.6683   21.5448 C   0  0  0  0  0  0  0  0  0  0  0  0
  -30.8004  -23.4876   21.1815 C   0  0  0  0  0  0  0  0  0  0  0  0
  -32.1311  -23.2367   21.5161 C   0  0  0  0  0  0  0  0  0  0  0  0
  -24.3761  -11.0734   23.1214 C   0  0  0  0  0  0  0  0  0  0  0  0
  -28.1004  -29.2879   22.7995 C   0  0  0  0  0  0  0  0  0  0  0  0
  -30.6737  -25.1490   22.9310 C   0  0  0  0  0  0  0  0  0  0  0  0
  -23.4645   -8.9374   23.4798 C   0  0  0  0  0  0  0  0  0  0  0  0
  -21.6164   -6.9720   22.7695 C   0  0  0  0  0  0  0  0  0  0  0  0
  -22.0980   -9.2109   23.5391 C   0  0  0  0  0  0  0  0  0  0  0  0
  -24.3540  -14.6840   20.9166 C   0  0  0  0  0  0  0  0  0  0  0  0
  -23.7521  -16.5093   19.8484 C   0  0  0  0  0  0  0  0  0  0  0  0
  -21.8387  -15.2059   20.7910 C   0  0  0  0  0  0  0  0  0  0  0  0
  -22.7204  -29.1901   22.0852 C   0  0  0  0  0  0  0  0  0  0  0  0
  -23.2085  -30.2222   19.0489 C   0  0  0  0  0  0  0  0  0  0  0  0
  -25.4261  -31.1248   16.6170 C   0  0  0  0  0  0  0  0  0  0  0  0
  -27.4124  -20.5862   19.5276 C   0  0  0  0  0  0  0  0  0  0  0  0
  -17.8773  -27.6732   21.5366 C   0  0  0  0  0  0  0  0  0  0  0  0
  -24.2416  -31.1647   22.4633 C   0  0  0  0  0  0  0  0  0  0  0  0
  -25.2398  -29.4077   20.3043 C   0  0  0  0  0  0  0  0  0  0  0  0
  -19.1675  -27.5177   20.7356 C   0  0  0  0  0  0  0  0  0  0  0  0
  -28.3938  -17.3641   18.0926 C   0  0  0  0  0  0  0  0  0  0  0  0
  -20.3055  -27.0565   21.6407 C   0  0  0  0  0  0  0  0  0  0  0  0
  -27.3674  -16.4328   18.7292 C   0  0  0  0  0  0  0  0  0  0  0  0
  -28.7919  -18.5129   19.0196 C   0  0  0  0  0  0  0  0  0  0  0  0
  -29.8460  -21.1803   20.1642 C   0  0  0  0  0  0  0  0  0  0  0  0
  -26.6011  -18.3431   20.1804 C   0  0  0  0  0  0  0  0  0  0  0  0
  -30.0954  -22.6966   19.9980 C   0  0  1  0  0  0  0  0  0  0  0  0
  -20.5883  -28.0874   22.7401 C   0  0  1  0  0  0  0  0  0  0  0  0
  -23.2928  -30.4522   21.5044 C   0  0  1  0  0  0  0  0  0  0  0  0
  -26.1514  -17.2305   19.2234 C   0  0  2  0  0  0  0  0  0  0  0  0
  -28.5643  -22.8457   19.7989 C   0  0  1  0  0  0  0  0  0  0  0  0
  -32.9290  -22.2177   20.7717 C   0  0  0  0  0  0  0  0  0  0  0  0
  -27.7486  -25.9291   17.6062 C   0  0  0  0  0  0  0  0  0  0  0  0
  -25.5279  -31.8839   14.2273 C   0  0  0  0  0  0  0  0  0  0  0  0
  -22.6397  -27.3715   18.1217 C   0  0  0  0  0  0  0  0  0  0  0  0
  -23.6665  -27.9586   15.9151 C   0  0  0  0  0  0  0  0  0  0  0  0
  -21.6214  -29.1553   16.6950 C   0  0  0  0  0  0  0  0  0  0  0  0
  -26.7126  -33.6835   17.3632 C   0  0  0  0  0  0  0  0  0  0  0  0
  -28.1184  -23.6321   18.5827 C   0  0  0  0  0  0  0  0  0  0  0  0
  -28.1680  -25.1393   18.8357 C   0  0  0  0  0  0  0  0  0  0  0  0
  -29.7871  -28.3972   24.2199 C   0  0  0  0  0  0  0  0  0  1  0  0
  -30.6915  -27.1811   24.1662 C   0  0  0  0  0  0  0  0  0  0  0  0
  -23.8395  -29.6362   17.8090 C   0  0  1  0  0  0  0  0  0  0  0  0
  -25.4649  -32.3206   15.6826 C   0  0  2  0  0  0  0  0  0  0  0  0
  -22.9565  -28.5336   17.1593 C   0  0  0  0  0  0  0  0  0  0  0  0
  -25.5032  -15.2221   20.4998 N   0  0  0  0  0  0  0  0  0  0  0  0
  -25.1042  -16.3307   19.8533 N   0  0  0  0  0  0  0  0  0  0  0  0
  -23.9354  -30.0874   20.2403 N   0  0  0  0  0  0  0  0  0  0  0  0
  -27.6220  -19.2030   19.5735 N   0  0  0  0  0  0  0  0  0  0  0  0
  -28.5326  -21.3981   19.5628 N   0  0  0  0  0  0  0  0  0  0  0  0
  -23.1818  -17.5726   19.2430 N   0  0  0  0  0  0  0  0  0  0  0  0
  -21.4764  -14.0629   21.5168 N   0  0  0  0  0  0  0  0  0  0  0  0
  -21.3440  -29.2005   22.2069 N   0  0  0  0  0  0  0  0  0  0  0  0
  -24.1329  -30.7623   16.9291 N   0  0  0  0  0  0  0  0  0  0  0  0
  -26.6579  -33.1656   15.9719 N   0  3  0  0  0  0  0  0  0  0  0  0
  -20.9421  -15.9757   20.3702 O   0  0  0  0  0  0  0  0  0  0  0  0
  -23.4718  -28.2741   22.3983 O   0  0  0  0  0  0  0  0  0  0  0  0
  -22.1144  -30.7853   18.9623 O   0  0  0  0  0  0  0  0  0  0  0  0
  -26.4414  -30.5658   17.0259 O   0  0  0  0  0  0  0  0  0  0  0  0
  -26.2785  -21.0791   19.4861 O   0  0  0  0  0  0  0  0  0  0  0  0
  -24.3832   -9.9121   23.8312 O   0  0  0  0  0  0  0  0  0  0  0  0
  -29.3313  -28.6956   22.9058 O   0  0  0  0  0  0  0  0  0  1  0  0
  -29.9629  -26.0822   23.6210 O   0  0  0  0  0  0  0  0  0  0  0  0
  -20.7292   -6.0288   22.4270 F   0  0  0  0  0  0  0  0  0  0  0  0
  -21.6670  -10.4163   23.9355 F   0  0  0  0  0  0  0  0  0  0  0  0
  1  2  1  0  0  0  0
  1  5  2  0  0  0  0
  2  6  2  0  0  0  0
  3  9  2  0  0  0  0
  3 18  1  0  0  0  0
  4 10  1  0  0  0  0
  4 18  2  0  0  0  0
  5 20  1  0  0  0  0
  6 22  1  0  0  0  0
  7 11  2  0  0  0  0
  7 21  1  0  0  0  0
  8 12  2  0  0  0  0
  8 25  1  0  0  0  0
  9 26  1  0  0  0  0
 10 26  2  0  0  0  0
 11 27  1  0  0  0  0
 12 28  1  0  0  0  0
 13 14  2  0  0  0  0
 13 29  1  0  0  0  0
 14 30  1  0  0  0  0
 15 23  1  0  0  0  0
 15 27  2  0  0  0  0
 16 24  1  0  0  0  0
 16 28  2  0  0  0  0
 17 30  2  0  0  0  0
 17 31  1  0  0  0  0
 18 32  1  0  0  0  0
 19 32  1  0  0  0  0
 19 33  2  0  0  0  0
 19 34  1  0  0  0  0
 20 22  2  0  0  0  0
 20 39  1  0  0  0  0
 21 23  2  0  0  0  0
 21 40  1  0  0  0  0
 22 50  1  0  0  0  0
 23 41  1  0  0  0  0
 24 25  2  0  0  0  0
 24 49  1  0  0  0  0
 25 54  1  0  0  0  0
 26 83  1  0  0  0  0
 27 84  1  0  0  0  0
 28 85  1  0  0  0  0
 29 31  2  0  0  0  0
 29 83  1  0  0  0  0
 30 86  1  0  0  0  0
 31 87  1  0  0  0  0
 32 68  2  0  0  0  0
 33 69  1  0  0  0  0
 33 73  1  0  0  0  0
 34 74  1  0  0  0  0
 34 78  2  0  0  0  0
 35 51  1  0  0  0  0
 35 75  1  0  0  0  0
 35 79  2  0  0  0  0
 36 65  1  0  0  0  0
 36 70  1  0  0  0  0
 36 80  2  0  0  0  0
 37 66  1  0  0  0  0
 37 76  1  0  0  0  0
 37 81  2  0  0  0  0
 38 71  1  0  0  0  0
 38 72  1  0  0  0  0
 38 82  2  0  0  0  0
 39 42  1  0  0  0  0
 40 51  1  0  0  0  0
 41 70  1  0  0  0  0
 42 44  1  0  0  0  0
 43 45  1  0  0  0  0
 43 46  1  0  0  0  0
 44 50  1  0  0  0  0
 45 52  1  0  0  0  0
 46 71  1  0  0  0  0
 47 49  1  0  0  0  0
 47 72  1  0  0  0  0
 48 52  1  0  0  0  0
 48 71  1  0  0  0  0
 49 53  1  0  0  0  0
 50 75  1  0  0  0  0
 51 70  1  0  0  0  0
 52 69  1  0  0  0  0
 53 61  1  0  0  0  0
 53 72  1  0  0  0  0
 55 62  1  0  0  0  0
 56 66  1  0  0  0  0
 57 67  1  0  0  0  0
 58 67  1  0  0  0  0
 59 67  1  0  0  0  0
 60 77  1  0  0  0  0
 61 62  1  0  0  0  0
 63 64  1  0  0  0  0
 63 84  1  0  0  0  0
 64 85  1  0  0  0  0
 65 67  1  0  0  0  0
 65 76  1  0  0  0  0
 66 77  1  0  0  0  0
 68 69  1  0  0  0  0
M  CHG  1  77   1
M  ISO  4  38 100  63 101  72 100  84 101
M  END
> <Batch ID>
0141

> <Smiles>
CCCC1C(c2cc(OC[101CH2:1][101O:1]c3ccc4c(c3)CN(C(=O)C(NC(=O)C(C)NC)C(C)(C)C)C(C(=O)NC3CCCc5ccccc53)C4)ccc2C)C[100N:0]1[100C:0](=O)N1CCCC(n2nc(-c3ccc(Oc4ccc(F)cc4F)cc3)c(C(N)=O)c2N)C1

> <Shape>
0.257

> <Color>
0.088

> <Negative vol penalty>
0.000

$$$$

  -OEChem-04052321163D

 86 96  0     1  0  0  0  0  0999 V2000
  -27.1357  -37.4122   25.8159 C   0  0  0  0  0  0  0  0  0  0  0  0
  -27.8397  -36.6982   24.8516 C   0  0  0  0  0  0  0  0  0  0  0  0
  -24.5595   -9.0687   22.5054 C   0  0  0  0  0  0  0  0  0  0  0  0
  -25.0131   -7.7869   20.5083 C   0  0  0  0  0  0  0  0  0  0  0  0
  -26.2309  -36.7533   26.6472 C   0  0  0  0  0  0  0  0  0  0  0  0
  -27.6401  -35.3245   24.7187 C   0  0  0  0  0  0  0  0  0  0  0  0
  -31.0015  -20.9903   20.4874 C   0  0  0  0  0  0  0  0  0  0  0  0
  -27.5633  -30.1472   19.7684 C   0  0  0  0  0  0  0  0  0  0  0  0
  -30.6978  -22.3423   20.3281 C   0  0  0  0  0  0  0  0  0  0  0  0
  -23.2506   -8.5870   22.5173 C   0  0  0  0  0  0  0  0  0  0  0  0
  -23.7041   -7.3052   20.5202 C   0  0  0  0  0  0  0  0  0  0  0  0
  -28.1186  -28.8945   19.5113 C   0  0  0  0  0  0  0  0  0  0  0  0
  -21.6472   -5.7534   23.4298 C   0  0  0  0  0  0  0  0  0  0  0  0
  -21.1289   -5.3148   24.6482 C   0  0  0  0  0  0  0  0  0  0  0  0
  -29.0018  -21.7701   18.7054 C   0  0  0  0  0  0  0  0  0  0  0  0
  -26.4717  -27.8759   20.9498 C   0  0  0  0  0  0  0  0  0  0  0  0
  -19.3767   -6.9716   24.4992 C   0  0  0  0  0  0  0  0  0  0  0  0
  -25.4408   -8.6686   21.5008 C   0  0  0  0  0  0  0  0  0  0  0  0
  -27.9165   -8.5915   22.1115 C   0  0  0  0  0  0  0  0  0  0  0  0
  -26.0129  -35.3726   26.5180 C   0  0  0  0  0  0  0  0  0  0  0  0
  -26.4629  -30.2751   20.6282 C   0  0  0  0  0  0  0  0  0  0  0  0
  -30.3054  -20.0282   19.7556 C   0  0  0  0  0  0  0  0  0  0  0  0
  -26.7325  -34.6463   25.5500 C   0  0  0  0  0  0  0  0  0  0  0  0
  -29.3056  -20.4181   18.8646 C   0  0  0  0  0  0  0  0  0  0  0  0
  -25.9027  -29.1310   21.2142 C   0  0  0  0  0  0  0  0  0  0  0  0
  -29.6979  -22.7323   19.4371 C   0  0  0  0  0  0  0  0  0  0  0  0
  -22.8228   -7.7053   21.5247 C   0  0  0  0  0  0  0  0  0  0  0  0
  -27.5747  -27.7589   20.1044 C   0  0  0  0  0  0  0  0  0  0  0  0
  -21.0303   -6.8011   22.7461 C   0  0  0  0  0  0  0  0  0  0  0  0
  -19.9936   -5.9239   25.1829 C   0  0  0  0  0  0  0  0  0  0  0  0
  -19.8951   -7.4102   23.2808 C   0  0  0  0  0  0  0  0  0  0  0  0
  -26.7930   -9.1663   21.4877 C   0  0  0  0  0  0  0  0  0  0  0  0
  -28.9521   -9.4388   21.8019 C   0  0  0  0  0  0  0  0  0  0  0  0
  -28.0151   -7.3983   22.9003 C   0  0  0  0  0  0  0  0  0  0  0  0
  -25.9351  -31.7557   23.3910 C   0  0  0  0  0  0  0  0  0  0  0  0
  -22.8830  -30.7814   22.8833 C   0  0  0  0  0  0  0  0  0  0  0  0
  -20.7581  -28.5783   21.3741 C   0  0  0  0  0  0  0  0  0  0  0  0
  -28.8963  -15.2388   20.4395 C   0  0  0  0  0  0  0  0  0  0  0  0
  -25.0597  -34.6959   27.4710 C   0  0  0  0  0  0  0  0  0  0  0  0
  -25.8588  -31.6304   20.8741 C   0  0  0  0  0  0  0  0  0  0  0  0
  -24.7088  -29.2122   22.1287 C   0  0  0  0  0  0  0  0  0  0  0  0
  -24.6292  -33.3038   27.0158 C   0  0  0  0  0  0  0  0  0  0  0  0
  -30.4170  -12.5161   18.4679 C   0  0  0  0  0  0  0  0  0  0  0  0
  -29.3072  -18.4354   17.2085 C   0  0  0  0  0  0  0  0  0  0  0  0
  -28.5111  -19.5309   16.5711 C   0  0  0  0  0  0  0  0  0  0  0  0
  -25.8381  -32.4944   26.5575 C   0  0  0  0  0  0  0  0  0  0  0  0
  -29.7089  -11.2984   19.0544 C   0  0  0  0  0  0  0  0  0  0  0  0
  -30.6205  -18.0046   21.3300 C   0  0  0  0  0  0  0  0  0  0  0  0
  -29.5137  -13.7484   18.4438 C   0  0  0  0  0  0  0  0  0  0  0  0
  -28.2161  -12.8609   20.3604 C   0  0  0  0  0  0  0  0  0  0  0  0
  -30.6488  -18.5873   19.9436 C   0  0  1  0  0  0  0  0  0  0  0  0
  -28.5464  -19.4066   18.0709 C   0  0  0  0  0  0  0  0  0  0  0  0
  -26.5251  -33.1595   25.3587 C   0  0  1  0  0  0  0  0  0  0  0  0
  -25.0592  -31.7017   22.1714 C   0  0  1  0  0  0  0  0  0  0  0  0
  -29.1248  -11.6245   20.4375 C   0  0  1  0  0  0  0  0  0  0  0  0
  -29.5568  -17.6235   20.3433 C   0  0  1  0  0  0  0  0  0  0  0  0
  -18.3214  -28.0113   21.1780 C   0  0  0  0  0  0  0  0  0  0  0  0
  -22.9539  -29.5257   25.6632 C   0  0  0  0  0  0  0  0  0  0  0  0
  -20.9221  -28.2018   25.0408 C   0  0  0  0  0  0  0  0  0  0  0  0
  -20.8152  -30.6933   25.1002 C   0  0  0  0  0  0  0  0  0  0  0  0
  -20.7633  -29.0546   18.4531 C   0  0  0  0  0  0  0  0  0  0  0  0
  -30.0683  -25.1362   19.9934 C   0  0  0  0  0  0  0  0  0  0  0  0
  -29.5135  -26.4875   19.5748 C   0  0  0  0  0  0  0  0  0  1  0  0
  -22.0812  -29.5512   23.2335 C   0  0  1  0  0  0  0  0  0  0  0  0
  -19.4816  -28.7924   20.5809 C   0  0  2  0  0  0  0  0  0  0  0  0
  -21.7168  -29.4914   24.7438 C   0  0  0  0  0  0  0  0  0  0  0  0
  -27.0871  -10.2919   20.8315 N   0  0  0  0  0  0  0  0  0  0  0  0
  -28.4072  -10.4312   21.0413 N   0  0  0  0  0  0  0  0  0  0  0  0
  -24.1578  -30.5605   22.3431 N   0  0  0  0  0  0  0  0  0  0  0  0
  -28.9142  -14.0059   19.7627 N   0  0  0  0  0  0  0  0  0  0  0  0
  -30.2667   -9.4245   22.1088 N   0  0  0  0  0  0  0  0  0  0  0  0
  -26.8538   -6.6452   23.1208 N   0  0  0  0  0  0  0  0  0  0  0  0
  -29.3974  -24.0749   19.2782 N   0  0  0  0  0  0  0  0  0  0  0  0
  -25.7810  -32.9040   24.1440 N   0  0  0  0  0  0  0  0  0  0  0  0
  -20.9279  -29.5476   22.3399 N   0  0  0  0  0  0  0  0  0  0  0  0
  -29.5026  -16.3014   19.7789 N   0  0  0  0  0  0  0  0  0  0  0  0
  -19.6685  -28.3512   19.1697 N   0  3  0  0  0  0  0  0  0  0  0  0
  -29.0978   -7.0201   23.4086 O   0  0  0  0  0  0  0  0  0  0  0  0
  -26.6936  -30.8237   23.6318 O   0  0  0  0  0  0  0  0  0  0  0  0
  -22.3933  -31.8973   23.0751 O   0  0  0  0  0  0  0  0  0  0  0  0
  -21.5257  -27.6424   21.1609 O   0  0  0  0  0  0  0  0  0  0  0  0
  -28.3733  -15.3860   21.5497 O   0  0  0  0  0  0  0  0  0  0  0  0
  -21.5457   -7.2349   21.5361 O   0  0  0  0  0  0  0  0  0  0  0  0
  -28.1152  -26.5350   19.8557 O   0  0  0  0  0  0  0  0  0  1  0  0
  -19.4951   -5.5016   26.3523 F   0  0  0  0  0  0  0  0  0  0  0  0
  -19.2974   -8.4164   22.6279 F   0  0  0  0  0  0  0  0  0  0  0  0
  1  2  1  0  0  0  0
  1  5  2  0  0  0  0
  2  6  2  0  0  0  0
  3 10  2  0  0  0  0
  3 18  1  0  0  0  0
  4 11  1  0  0  0  0
  4 18  2  0  0  0  0
  5 20  1  0  0  0  0
  6 23  1  0  0  0  0
  7  9  2  0  0  0  0
  7 22  1  0  0  0  0
  8 12  2  0  0  0  0
  8 21  1  0  0  0  0
  9 26  1  0  0  0  0
 10 27  1  0  0  0  0
 11 27  2  0  0  0  0
 12 28  1  0  0  0  0
 13 14  2  0  0  0  0
 13 29  1  0  0  0  0
 14 30  1  0  0  0  0
 15 24  1  0  0  0  0
 15 26  2  0  0  0  0
 16 25  1  0  0  0  0
 16 28  2  0  0  0  0
 17 30  2  0  0  0  0
 17 31  1  0  0  0  0
 18 32  1  0  0  0  0
 19 32  1  0  0  0  0
 19 33  2  0  0  0  0
 19 34  1  0  0  0  0
 20 23  2  0  0  0  0
 20 39  1  0  0  0  0
 21 25  2  0  0  0  0
 21 40  1  0  0  0  0
 22 24  2  0  0  0  0
 22 51  1  0  0  0  0
 23 53  1  0  0  0  0
 24 52  1  0  0  0  0
 25 41  1  0  0  0  0
 26 73  1  0  0  0  0
 27 83  1  0  0  0  0
 28 84  1  0  0  0  0
 29 31  2  0  0  0  0
 29 83  1  0  0  0  0
 30 85  1  0  0  0  0
 31 86  1  0  0  0  0
 32 67  2  0  0  0  0
 33 68  1  0  0  0  0
 33 71  1  0  0  0  0
 34 72  1  0  0  0  0
 34 78  2  0  0  0  0
 35 54  1  0  0  0  0
 35 74  1  0  0  0  0
 35 79  2  0  0  0  0
 36 64  1  0  0  0  0
 36 69  1  0  0  0  0
 36 80  2  0  0  0  0
 37 65  1  0  0  0  0
 37 75  1  0  0  0  0
 37 81  2  0  0  0  0
 38 70  1  0  0  0  0
 38 76  1  0  0  0  0
 38 82  2  0  0  0  0
 39 42  1  0  0  0  0
 40 54  1  0  0  0  0
 41 69  1  0  0  0  0
 42 46  1  0  0  0  0
 43 47  1  0  0  0  0
 43 49  1  0  0  0  0
 44 45  1  0  0  0  0
 44 52  1  0  0  0  0
 45 52  1  0  0  0  0
 46 53  1  0  0  0  0
 47 55  1  0  0  0  0
 48 51  1  0  0  0  0
 48 56  1  0  0  0  0
 49 70  1  0  0  0  0
 50 55  1  0  0  0  0
 50 70  1  0  0  0  0
 51 56  1  0  0  0  0
 53 74  1  0  0  0  0
 54 69  1  0  0  0  0
 55 68  1  0  0  0  0
 56 76  1  0  0  0  0
 57 65  1  0  0  0  0
 58 66  1  0  0  0  0
 59 66  1  0  0  0  0
 60 66  1  0  0  0  0
 61 77  1  0  0  0  0
 62 63  1  0  0  0  0
 62 73  1  0  0  0  0
 63 84  1  0  0  0  0
 64 66  1  0  0  0  0
 64 75  1  0  0  0  0
 65 77  1  0  0  0  0
 67 68  1  0  0  0  0
M  CHG  1  77   1
M  ISO  4  38 100  63 101  76 100  84 101
M  END
> <Batch ID>
0141

> <Smiles>
CNC(C)C(=O)NC(C(=O)N1Cc2cc([101O:1][101CH2:1]CNc3ccc(C4CC4[100NH:0][100C:0](=O)N4CCCC(n5nc(-c6ccc(Oc7ccc(F)cc7F)cc6)c(C(N)=O)c5N)C4)c(C4CC4)c3)ccc2CC1C(=O)NC1CCCc2ccccc21)C(C)(C)C

> <Shape>
0.317

> <Color>
0.096

> <Negative vol penalty>
0.000

$$$$

  -OEChem-04052321163D

 87 96  0     1  0  0  0  0  0999 V2000
  -28.2445  -31.4555   27.4886 C   0  0  0  0  0  0  0  0  0  0  0  0
  -28.2557  -30.4487   26.5286 C   0  0  0  0  0  0  0  0  0  0  0  0
  -24.5989   -9.9220   21.7408 C   0  0  0  0  0  0  0  0  0  0  0  0
  -22.8138  -10.1710   23.3497 C   0  0  0  0  0  0  0  0  0  0  0  0
  -27.0392  -32.0505   27.8589 C   0  0  0  0  0  0  0  0  0  0  0  0
  -27.0614  -30.0356   25.9391 C   0  0  0  0  0  0  0  0  0  0  0  0
  -27.4540  -29.5085   20.9178 C   0  0  0  0  0  0  0  0  0  0  0  0
  -24.7220   -8.5761   22.0856 C   0  0  0  0  0  0  0  0  0  0  0  0
  -22.9368   -8.8250   23.6944 C   0  0  0  0  0  0  0  0  0  0  0  0
  -28.0778  -28.3546   20.4456 C   0  0  0  0  0  0  0  0  0  0  0  0
  -22.5370   -5.3665   24.7420 C   0  0  0  0  0  0  0  0  0  0  0  0
  -21.3661   -4.6196   24.8704 C   0  0  0  0  0  0  0  0  0  0  0  0
  -25.9180  -27.3732   20.0082 C   0  0  0  0  0  0  0  0  0  0  0  0
  -29.7709  -23.6744   19.6911 C   0  0  0  0  0  0  0  0  0  0  0  0
  -20.8153   -5.0865   22.5648 C   0  0  0  0  0  0  0  0  0  0  0  0
  -30.3710  -24.8081   17.6883 C   0  0  0  0  0  0  0  0  0  0  0  0
  -23.6449  -10.7195   22.3729 C   0  0  0  0  0  0  0  0  0  0  0  0
  -22.6932  -12.6601   21.0179 C   0  0  0  0  0  0  0  0  0  0  0  0
  -25.8307  -31.6513   27.2667 C   0  0  0  0  0  0  0  0  0  0  0  0
  -26.0550  -29.5994   20.9490 C   0  0  0  0  0  0  0  0  0  0  0  0
  -25.8387  -30.6250   26.3028 C   0  0  0  0  0  0  0  0  0  0  0  0
  -25.2789  -28.5304   20.4789 C   0  0  0  0  0  0  0  0  0  0  0  0
  -29.8351  -24.8584   18.9650 C   0  0  0  0  0  0  0  0  0  0  0  0
  -30.2380  -22.4928   19.1262 C   0  0  0  0  0  0  0  0  0  0  0  0
  -23.8909   -8.0275   23.0623 C   0  0  0  0  0  0  0  0  0  0  0  0
  -27.3098  -27.2856   19.9933 C   0  0  0  0  0  0  0  0  0  0  0  0
  -22.8472   -5.9735   23.5250 C   0  0  0  0  0  0  0  0  0  0  0  0
  -20.5052   -4.4795   23.7819 C   0  0  0  0  0  0  0  0  0  0  0  0
  -21.9863   -5.8335   22.4364 C   0  0  0  0  0  0  0  0  0  0  0  0
  -23.5177  -12.1101   22.0176 C   0  0  0  0  0  0  0  0  0  0  0  0
  -30.7558  -22.5483   17.8422 C   0  0  0  0  0  0  0  0  0  0  0  0
  -22.9348  -14.0108   21.0783 C   0  0  0  0  0  0  0  0  0  0  0  0
  -21.7896  -12.0083   20.1155 C   0  0  0  0  0  0  0  0  0  0  0  0
  -23.8813  -29.9637   23.2394 C   0  0  0  0  0  0  0  0  0  0  0  0
  -21.8402  -30.1861   20.7281 C   0  0  0  0  0  0  0  0  0  0  0  0
  -21.1777  -29.4602   17.4600 C   0  0  0  0  0  0  0  0  0  0  0  0
  -26.1755  -18.2756   21.4181 C   0  0  0  0  0  0  0  0  0  0  0  0
  -24.5472  -32.2910   27.7336 C   0  0  0  0  0  0  0  0  0  0  0  0
  -25.3976  -30.8614   21.4365 C   0  0  0  0  0  0  0  0  0  0  0  0
  -23.7738  -28.5858   20.4725 C   0  0  0  0  0  0  0  0  0  0  0  0
  -23.3708  -32.0558   26.7897 C   0  0  0  0  0  0  0  0  0  0  0  0
  -25.4198  -16.7734   24.5006 C   0  0  0  0  0  0  0  0  0  0  0  0
  -23.3013  -30.5884   26.3788 C   0  0  0  0  0  0  0  0  0  0  0  0
  -24.7857  -15.4578   24.0496 C   0  0  0  0  0  0  0  0  0  0  0  0
  -29.4184  -19.6435   21.4424 C   0  0  0  0  0  0  0  0  0  0  0  0
  -27.7758  -21.0923   20.1893 C   0  0  0  0  0  0  0  0  0  0  0  0
  -26.6294  -17.1501   23.6431 C   0  0  0  0  0  0  0  0  0  0  0  0
  -28.3001  -19.2410   22.4084 C   0  0  0  0  0  0  0  0  0  0  0  0
  -26.7009  -20.6848   21.1931 C   0  0  0  0  0  0  0  0  0  0  0  0
  -25.7150  -15.8630   21.7389 C   0  0  0  0  0  0  0  0  0  0  0  0
  -24.5669  -30.1667   25.6226 C   0  0  1  0  0  0  0  0  0  0  0  0
  -23.9613  -30.6453   21.9028 C   0  0  1  0  0  0  0  0  0  0  0  0
  -24.4620  -15.4879   22.5452 C   0  0  1  0  0  0  0  0  0  0  0  0
  -29.1639  -21.0233   20.8312 C   0  0  0  0  0  0  0  0  0  0  0  0
  -32.7744  -21.4060   16.8555 C   0  0  0  0  0  0  0  0  0  0  0  0
  -30.4816  -20.9510   15.9116 C   0  0  0  0  0  0  0  0  0  0  0  0
  -19.4124  -29.7403   15.6985 C   0  0  0  0  0  0  0  0  0  0  0  0
  -20.1881  -27.9795   22.0364 C   0  0  0  0  0  0  0  0  0  0  0  0
  -19.0232  -27.6485   19.8452 C   0  0  0  0  0  0  0  0  0  0  0  0
  -18.8433  -29.8343   21.0336 C   0  0  0  0  0  0  0  0  0  0  0  0
  -22.9959  -31.0188   15.7209 C   0  0  0  0  0  0  0  0  0  0  0  0
  -29.3436  -26.1389   19.5410 C   0  0  0  0  0  0  0  0  0  1  0  0
  -31.2730  -21.3118   17.1816 C   0  0  0  0  0  0  0  0  0  0  0  0
  -21.0250  -29.2034   19.9227 C   0  0  1  0  0  0  0  0  0  0  0  0
  -20.6723  -30.3242   16.3187 C   0  0  2  0  0  0  0  0  0  0  0  0
  -19.7982  -28.6643   20.7113 C   0  0  0  0  0  0  0  0  0  0  0  0
  -30.8347  -23.6795   17.1061 N   0  0  0  0  0  0  0  0  0  0  0  0
  -24.2300  -13.0358   22.6655 N   0  0  0  0  0  0  0  0  0  0  0  0
  -23.8538  -14.1811   22.0715 N   0  0  0  0  0  0  0  0  0  0  0  0
  -23.1778  -29.8388   20.9647 N   0  0  0  0  0  0  0  0  0  0  0  0
  -26.2827  -17.1261   22.2153 N   0  0  0  0  0  0  0  0  0  0  0  0
  -26.9850  -19.3678   21.7641 N   0  0  0  0  0  0  0  0  0  0  0  0
  -22.4487  -15.0576   20.3780 N   0  0  0  0  0  0  0  0  0  0  0  0
  -21.6619  -10.6145   20.1884 N   0  0  0  0  0  0  0  0  0  0  0  0
  -30.1778  -21.3092   19.8401 N   0  0  0  0  0  0  0  0  0  0  0  0
  -24.5225  -30.6439   24.2571 N   0  0  0  0  0  0  0  0  0  0  0  0
  -20.6836  -29.8809   18.6766 N   0  0  0  0  0  0  0  0  0  0  0  0
  -21.7105  -30.4372   15.2555 N   0  3  0  0  0  0  0  0  0  0  0  0
  -21.1276  -12.6414   19.2585 O   0  0  0  0  0  0  0  0  0  0  0  0
  -23.2810  -28.9001   23.3404 O   0  0  0  0  0  0  0  0  0  0  0  0
  -21.3116  -31.2271   21.1264 O   0  0  0  0  0  0  0  0  0  0  0  0
  -21.9323  -28.5052   17.2889 O   0  0  0  0  0  0  0  0  0  0  0  0
  -25.4019  -18.3234   20.4536 O   0  0  0  0  0  0  0  0  0  0  0  0
  -24.0105   -6.7141   23.3988 O   0  0  0  0  0  0  0  0  0  0  0  0
  -27.9201  -26.1506   19.5295 O   0  0  0  0  0  0  0  0  0  1  0  0
  -19.3816   -3.7609   23.9049 F   0  0  0  0  0  0  0  0  0  0  0  0
  -22.2795   -6.4133   21.2644 F   0  0  0  0  0  0  0  0  0  0  0  0
  1  2  1  0  0  0  0
  1  5  2  0  0  0  0
  2  6  2  0  0  0  0
  3  8  2  0  0  0  0
  3 17  1  0  0  0  0
  4  9  1  0  0  0  0
  4 17  2  0  0  0  0
  5 19  1  0  0  0  0
  6 21  1  0  0  0  0
  7 10  2  0  0  0  0
  7 20  1  0  0  0  0
  8 25  1  0  0  0  0
  9 25  2  0  0  0  0
 10 26  1  0  0  0  0
 11 12  2  0  0  0  0
 11 27  1  0  0  0  0
 12 28  1  0  0  0  0
 13 22  1  0  0  0  0
 13 26  2  0  0  0  0
 14 23  2  0  0  0  0
 14 24  1  0  0  0  0
 15 28  2  0  0  0  0
 15 29  1  0  0  0  0
 16 23  1  0  0  0  0
 16 67  2  0  0  0  0
 17 30  1  0  0  0  0
 18 30  1  0  0  0  0
 18 32  2  0  0  0  0
 18 33  1  0  0  0  0
 19 21  2  0  0  0  0
 19 38  1  0  0  0  0
 20 22  2  0  0  0  0
 20 39  1  0  0  0  0
 21 51  1  0  0  0  0
 22 40  1  0  0  0  0
 23 62  1  0  0  0  0
 24 31  2  0  0  0  0
 24 75  1  0  0  0  0
 25 84  1  0  0  0  0
 26 85  1  0  0  0  0
 27 29  2  0  0  0  0
 27 84  1  0  0  0  0
 28 86  1  0  0  0  0
 29 87  1  0  0  0  0
 30 68  2  0  0  0  0
 31 63  1  0  0  0  0
 31 67  1  0  0  0  0
 32 69  1  0  0  0  0
 32 73  1  0  0  0  0
 33 74  1  0  0  0  0
 33 79  2  0  0  0  0
 34 52  1  0  0  0  0
 34 76  1  0  0  0  0
 34 80  2  0  0  0  0
 35 64  1  0  0  0  0
 35 70  1  0  0  0  0
 35 81  2  0  0  0  0
 36 65  1  0  0  0  0
 36 77  1  0  0  0  0
 36 82  2  0  0  0  0
 37 71  1  0  0  0  0
 37 72  1  0  0  0  0
 37 83  2  0  0  0  0
 38 41  1  0  0  0  0
 39 52  1  0  0  0  0
 40 70  1  0  0  0  0
 41 43  1  0  0  0  0
 42 44  1  0  0  0  0
 42 47  1  0  0  0  0
 43 51  1  0  0  0  0
 44 53  1  0  0  0  0
 45 48  1  0  0  0  0
 45 54  1  0  0  0  0
 46 49  1  0  0  0  0
 46 54  1  0  0  0  0
 47 71  1  0  0  0  0
 48 72  1  0  0  0  0
 49 72  1  0  0  0  0
 50 53  1  0  0  0  0
 50 71  1  0  0  0  0
 51 76  1  0  0  0  0
 52 70  1  0  0  0  0
 53 69  1  0  0  0  0
 54 75  1  0  0  0  0
 55 63  1  0  0  0  0
 56 63  1  0  0  0  0
 57 65  1  0  0  0  0
 58 66  1  0  0  0  0
 59 66  1  0  0  0  0
 60 66  1  0  0  0  0
 61 78  1  0  0  0  0
 62 85  1  0  0  0  0
 64 66  1  0  0  0  0
 64 77  1  0  0  0  0
 65 78  1  0  0  0  0
 68 69  1  0  0  0  0
M  CHG  1  78   1
M  ISO  4  37 100  62 101  72 100  85 101
M  END
> <Batch ID>
0141

> <Smiles>
CNC(C)C(=O)NC(C(=O)N1Cc2cc([101O:1][101CH2:1]c3cnc(C(C)C)c(NC4CC[100N:0]([100C:0](=O)N5CCCC(n6nc(-c7ccc(Oc8ccc(F)cc8F)cc7)c(C(N)=O)c6N)C5)CC4)c3)ccc2CC1C(=O)NC1CCCc2ccccc21)C(C)(C)C

> <Shape>
0.281

> <Color>
0.088

> <Negative vol penalty>
0.000

$$$$

  -OEChem-04052321163D

 85 95  0     1  0  0  0  0  0999 V2000
  -17.9129  -25.4003   22.7962 C   0  0  0  0  0  0  0  0  0  0  0  0
  -19.1928  -25.1225   22.3272 C   0  0  0  0  0  0  0  0  0  0  0  0
  -23.9264   -9.5937   21.4771 C   0  0  0  0  0  0  0  0  0  0  0  0
  -24.3849  -10.6991   23.5759 C   0  0  0  0  0  0  0  0  0  0  0  0
  -17.4458  -26.7140   22.8077 C   0  0  0  0  0  0  0  0  0  0  0  0
  -20.0062  -26.1581   21.8685 C   0  0  0  0  0  0  0  0  0  0  0  0
  -26.0919  -26.5763   22.4118 C   0  0  0  0  0  0  0  0  0  0  0  0
  -23.8696   -8.3657   22.1362 C   0  0  0  0  0  0  0  0  0  0  0  0
  -24.3281   -9.4711   24.2350 C   0  0  0  0  0  0  0  0  0  0  0  0
  -27.1340  -26.2924   21.5303 C   0  0  0  0  0  0  0  0  0  0  0  0
  -21.6538   -6.6581   24.0354 C   0  0  0  0  0  0  0  0  0  0  0  0
  -20.6037   -5.7980   23.7143 C   0  0  0  0  0  0  0  0  0  0  0  0
  -27.2141  -28.6158   20.8863 C   0  0  0  0  0  0  0  0  0  0  0  0
  -27.2537  -20.7568   19.9690 C   0  0  0  0  0  0  0  0  0  0  0  0
  -22.1931   -4.1245   22.9997 C   0  0  0  0  0  0  0  0  0  0  0  0
  -24.1841  -10.7604   22.1969 C   0  0  0  0  0  0  0  0  0  0  0  0
  -23.1776  -12.9183   21.2814 C   0  0  0  0  0  0  0  0  0  0  0  0
  -18.2574  -27.7674   22.3580 C   0  0  0  0  0  0  0  0  0  0  0  0
  -25.5949  -27.8823   22.5294 C   0  0  0  0  0  0  0  0  0  0  0  0
  -19.5491  -27.4869   21.8728 C   0  0  0  0  0  0  0  0  0  0  0  0
  -26.1673  -28.9141   21.7719 C   0  0  0  0  0  0  0  0  0  0  0  0
  -24.0705   -8.3044   23.5152 C   0  0  0  0  0  0  0  0  0  0  0  0
  -27.6933  -27.3117   20.7652 C   0  0  0  0  0  0  0  0  0  0  0  0
  -22.9735   -6.2515   23.8386 C   0  0  0  0  0  0  0  0  0  0  0  0
  -26.5640  -21.9641   20.2406 C   0  0  0  0  0  0  0  0  0  0  0  0
  -20.8734   -4.5312   23.1965 C   0  0  0  0  0  0  0  0  0  0  0  0
  -23.2431   -4.9847   23.3208 C   0  0  0  0  0  0  0  0  0  0  0  0
  -24.2434  -12.0291   21.5166 C   0  0  0  0  0  0  0  0  0  0  0  0
  -25.4129  -21.6359   20.9221 C   0  0  0  0  0  0  0  0  0  0  0  0
  -26.5029  -19.7274   20.4927 C   0  0  0  0  0  0  0  0  0  0  0  0
  -23.7492  -13.9680   20.6046 C   0  0  0  0  0  0  0  0  0  0  0  0
  -21.7947  -12.8055   21.6424 C   0  0  0  0  0  0  0  0  0  0  0  0
  -22.7836  -29.2685   22.0017 C   0  0  0  0  0  0  0  0  0  0  0  0
  -24.2538  -31.8533   23.2977 C   0  0  0  0  0  0  0  0  0  0  0  0
  -27.1716  -33.4823   23.9901 C   0  0  0  0  0  0  0  0  0  0  0  0
  -27.8496  -17.6740   19.9304 C   0  0  0  0  0  0  0  0  0  0  0  0
  -17.6915  -29.1654   22.3455 C   0  0  0  0  0  0  0  0  0  0  0  0
  -24.4882  -28.1770   23.5046 C   0  0  0  0  0  0  0  0  0  0  0  0
  -25.6835  -30.3366   21.8761 C   0  0  0  0  0  0  0  0  0  0  0  0
  -18.7537  -30.2510   22.1920 C   0  0  0  0  0  0  0  0  0  0  0  0
  -28.3411  -14.4387   18.5274 C   0  0  0  0  0  0  0  0  0  0  0  0
  -19.7280  -29.8905   21.0751 C   0  0  0  0  0  0  0  0  0  0  0  0
  -22.9142  -22.4252   20.9936 C   0  0  0  0  0  0  0  0  0  0  0  0
  -23.7062  -23.5656   20.4346 C   0  0  0  0  0  0  0  0  0  0  0  0
  -27.2311  -13.5965   19.1607 C   0  0  0  0  0  0  0  0  0  0  0  0
  -29.8121  -25.2715   18.5443 C   0  0  0  0  0  0  0  0  0  0  0  0
  -28.9051  -15.4641   19.5093 C   0  0  0  0  0  0  0  0  0  0  0  0
  -26.7944  -15.4874   20.7796 C   0  0  0  0  0  0  0  0  0  0  0  0
  -20.4703  -28.5862   21.3901 C   0  0  1  0  0  0  0  0  0  0  0  0
  -24.3530  -22.6192   21.4245 C   0  0  0  0  0  0  0  0  0  0  0  0
  -23.7163  -29.4485   23.1659 C   0  0  1  0  0  0  0  0  0  0  0  0
  -28.4215  -24.7963   18.8630 C   0  0  2  0  0  0  0  0  0  0  0  0
  -26.1505  -14.4840   19.8089 C   0  0  2  0  0  0  0  0  0  0  0  0
  -29.1547  -25.6830   19.8337 C   0  0  2  0  0  0  0  0  0  1  0  0
  -28.0521  -35.5928   25.0236 C   0  0  0  0  0  0  0  0  0  0  0  0
  -23.4330  -33.4127   20.8068 C   0  0  0  0  0  0  0  0  0  0  0  0
  -25.1061  -35.1651   21.4375 C   0  0  0  0  0  0  0  0  0  0  0  0
  -23.1877  -34.6717   22.9537 C   0  0  0  0  0  0  0  0  0  0  0  0
  -24.3341  -19.5360   21.7362 C   0  0  0  0  0  0  0  0  0  0  0  0
  -28.6647  -31.9834   26.0597 C   0  0  0  0  0  0  0  0  0  0  0  0
  -28.1764  -23.3651   19.1951 C   0  0  0  0  0  0  0  0  0  0  0  0
  -25.0739  -32.9997   22.7569 C   0  0  1  0  0  0  0  0  0  0  0  0
  -27.6829  -34.1367   25.2609 C   0  0  2  0  0  0  0  0  0  0  0  0
  -24.2082  -34.0352   21.9851 C   0  0  0  0  0  0  0  0  0  0  0  0
  -25.4041  -12.4750   21.0287 N   0  0  0  0  0  0  0  0  0  0  0  0
  -25.3861  -20.2736   21.0694 N   0  0  0  0  0  0  0  0  0  0  0  0
  -25.0710  -13.6557   20.4801 N   0  0  0  0  0  0  0  0  0  0  0  0
  -24.5952  -30.5731   22.8389 N   0  0  0  0  0  0  0  0  0  0  0  0
  -27.8246  -16.2712   20.0801 N   0  0  0  0  0  0  0  0  0  0  0  0
  -23.2450  -15.1183   20.1098 N   0  0  0  0  0  0  0  0  0  0  0  0
  -21.3762  -11.6614   22.3355 N   0  0  0  0  0  0  0  0  0  0  0  0
  -26.7533  -18.3328   20.4860 N   0  0  0  0  0  0  0  0  0  0  0  0
  -21.5234  -28.8242   22.3539 N   0  0  0  0  0  0  0  0  0  0  0  0
  -25.7980  -33.5559   23.8947 N   0  0  0  0  0  0  0  0  0  0  0  0
  -28.8902  -33.4214   25.7623 N   0  3  0  0  0  0  0  0  0  0  0  0
  -20.9517  -13.6853   21.3444 O   0  0  0  0  0  0  0  0  0  0  0  0
  -23.1775  -29.5160   20.8680 O   0  0  0  0  0  0  0  0  0  0  0  0
  -23.3485  -32.0844   24.1031 O   0  0  0  0  0  0  0  0  0  0  0  0
  -27.9166  -32.9616   23.1629 O   0  0  0  0  0  0  0  0  0  0  0  0
  -28.7617  -18.2462   19.3281 O   0  0  0  0  0  0  0  0  0  0  0  0
  -24.0149   -7.1063   24.1587 O   0  0  0  0  0  0  0  0  0  0  0  0
  -28.7102  -27.0372   19.9035 O   0  0  0  0  0  0  0  0  0  1  0  0
  -26.9435  -23.2340   19.9032 O   0  0  0  0  0  0  0  0  0  0  0  0
  -19.8649   -3.7047   22.8896 F   0  0  0  0  0  0  0  0  0  0  0  0
  -24.5090   -4.5881   23.1307 F   0  0  0  0  0  0  0  0  0  0  0  0
  1  2  1  0  0  0  0
  1  5  2  0  0  0  0
  2  6  2  0  0  0  0
  3  8  2  0  0  0  0
  3 16  1  0  0  0  0
  4  9  1  0  0  0  0
  4 16  2  0  0  0  0
  5 18  1  0  0  0  0
  6 20  1  0  0  0  0
  7 10  2  0  0  0  0
  7 19  1  0  0  0  0
  8 22  1  0  0  0  0
  9 22  2  0  0  0  0
 10 23  1  0  0  0  0
 11 12  2  0  0  0  0
 11 24  1  0  0  0  0
 12 26  1  0  0  0  0
 13 21  1  0  0  0  0
 13 23  2  0  0  0  0
 14 25  1  0  0  0  0
 14 30  2  0  0  0  0
 15 26  2  0  0  0  0
 15 27  1  0  0  0  0
 16 28  1  0  0  0  0
 17 28  1  0  0  0  0
 17 31  2  0  0  0  0
 17 32  1  0  0  0  0
 18 20  2  0  0  0  0
 18 37  1  0  0  0  0
 19 21  2  0  0  0  0
 19 38  1  0  0  0  0
 20 49  1  0  0  0  0
 21 39  1  0  0  0  0
 22 81  1  0  0  0  0
 23 82  1  0  0  0  0
 24 27  2  0  0  0  0
 24 81  1  0  0  0  0
 25 29  2  0  0  0  0
 25 83  1  0  0  0  0
 26 84  1  0  0  0  0
 27 85  1  0  0  0  0
 28 65  2  0  0  0  0
 29 50  1  0  0  0  0
 29 66  1  0  0  0  0
 30 66  1  0  0  0  0
 30 72  1  0  0  0  0
 31 67  1  0  0  0  0
 31 70  1  0  0  0  0
 32 71  1  0  0  0  0
 32 76  2  0  0  0  0
 33 51  1  0  0  0  0
 33 73  1  0  0  0  0
 33 77  2  0  0  0  0
 34 62  1  0  0  0  0
 34 68  1  0  0  0  0
 34 78  2  0  0  0  0
 35 63  1  0  0  0  0
 35 74  1  0  0  0  0
 35 79  2  0  0  0  0
 36 69  1  0  0  0  0
 36 72  1  0  0  0  0
 36 80  2  0  0  0  0
 37 40  1  0  0  0  0
 38 51  1  0  0  0  0
 39 68  1  0  0  0  0
 40 42  1  0  0  0  0
 41 45  1  0  0  0  0
 41 47  1  0  0  0  0
 42 49  1  0  0  0  0
 43 44  1  0  0  0  0
 43 50  1  0  0  0  0
 44 50  1  0  0  0  0
 45 53  1  0  0  0  0
 46 52  1  0  0  0  0
 46 54  1  0  0  0  0
 47 69  1  0  0  0  0
 48 53  1  0  0  0  0
 48 69  1  0  0  0  0
 49 73  1  0  0  0  0
 51 68  1  0  0  0  0
 52 54  1  0  0  0  0
 52 61  1  0  0  0  0
 53 67  1  0  0  0  0
 54 82  1  0  0  0  0
 55 63  1  0  0  0  0
 56 64  1  0  0  0  0
 57 64  1  0  0  0  0
 58 64  1  0  0  0  0
 59 66  1  0  0  0  0
 60 75  1  0  0  0  0
 61 83  1  0  0  0  0
 62 64  1  0  0  0  0
 62 74  1  0  0  0  0
 63 75  1  0  0  0  0
 65 67  1  0  0  0  0
M  CHG  1  75   1
M  ISO  4  36 100  54 101  72 100  82 101
M  END
> <Batch ID>
0141

> <Smiles>
CNC(C)C(=O)NC(C(=O)N1Cc2cc([101O:1][101CH:1]3CC3COc3cc([100NH:0][100C:0](=O)N4CCCC(n5nc(-c6ccc(Oc7ccc(F)cc7F)cc6)c(C(N)=O)c5N)C4)n(C)c3C3CC3)ccc2CC1C(=O)NC1CCCc2ccccc21)C(C)(C)C

> <Shape>
0.315

> <Color>
0.115

> <Negative vol penalty>
0.000

$$$$

  -OEChem-04052321163D

 86 95  0     1  0  0  0  0  0999 V2000
  -23.0313   -8.4704   24.9875 C   0  0  0  0  0  0  0  0  0  0  0  0
  -24.1766   -9.2458   25.1376 C   0  0  0  0  0  0  0  0  0  0  0  0
  -25.1596  -28.9447   22.8576 C   0  0  0  0  0  0  0  0  0  0  0  0
  -24.7705  -30.1626   20.8076 C   0  0  0  0  0  0  0  0  0  0  0  0
  -22.4035   -8.3896   23.7453 C   0  0  0  0  0  0  0  0  0  0  0  0
  -24.6953   -9.9400   24.0452 C   0  0  0  0  0  0  0  0  0  0  0  0
  -28.1602  -15.9932   22.4110 C   0  0  0  0  0  0  0  0  0  0  0  0
  -24.5108  -29.9482   23.5770 C   0  0  0  0  0  0  0  0  0  0  0  0
  -24.1217  -31.1662   21.5270 C   0  0  0  0  0  0  0  0  0  0  0  0
  -29.2894  -16.4359   21.7235 C   0  0  0  0  0  0  0  0  0  0  0  0
  -24.9861  -33.8040   23.4571 C   0  0  0  0  0  0  0  0  0  0  0  0
  -25.3056  -35.1277   23.1550 C   0  0  0  0  0  0  0  0  0  0  0  0
  -28.0753  -16.2852   19.6445 C   0  0  0  0  0  0  0  0  0  0  0  0
  -29.3083  -21.2287   16.9802 C   0  0  0  0  0  0  0  0  0  0  0  0
  -30.3271  -19.0803   17.4956 C   0  0  0  0  0  0  0  0  0  0  0  0
  -23.0013  -35.5489   22.5635 C   0  0  0  0  0  0  0  0  0  0  0  0
  -25.2895  -29.0518   21.4729 C   0  0  0  0  0  0  0  0  0  0  0  0
  -25.3791  -26.8680   20.1574 C   0  0  0  0  0  0  0  0  0  0  0  0
  -22.9092   -9.0910   22.6394 C   0  0  0  0  0  0  0  0  0  0  0  0
  -26.9814  -15.6823   21.7180 C   0  0  0  0  0  0  0  0  0  0  0  0
  -24.0744   -9.8675   22.7866 C   0  0  0  0  0  0  0  0  0  0  0  0
  -26.9317  -15.8413   20.3258 C   0  0  0  0  0  0  0  0  0  0  0  0
  -30.0172  -21.7755   18.0358 C   0  0  0  0  0  0  0  0  0  0  0  0
  -30.8677  -20.9914   18.8223 C   0  0  0  0  0  0  0  0  0  0  0  0
  -31.0354  -19.6415   18.5605 C   0  0  0  0  0  0  0  0  0  0  0  0
  -23.9919  -31.0590   22.9117 C   0  0  0  0  0  0  0  0  0  0  0  0
  -29.2480  -16.5792   20.3398 C   0  0  0  0  0  0  0  0  0  0  0  0
  -23.6742  -33.3526   23.3123 C   0  0  0  0  0  0  0  0  0  0  0  0
  -29.4694  -19.8680   16.7114 C   0  0  0  0  0  0  0  0  0  0  0  0
  -24.3132  -36.0002   22.7083 C   0  0  0  0  0  0  0  0  0  0  0  0
  -22.6818  -34.2251   22.8655 C   0  0  0  0  0  0  0  0  0  0  0  0
  -25.9600  -28.0157   20.7292 C   0  0  0  0  0  0  0  0  0  0  0  0
  -26.4296  -26.2098   19.5660 C   0  0  0  0  0  0  0  0  0  0  0  0
  -24.0121  -26.4355   20.1604 C   0  0  0  0  0  0  0  0  0  0  0  0
  -25.2396  -13.0531   21.3214 C   0  0  0  0  0  0  0  0  0  0  0  0
  -23.2169  -15.0904   19.8112 C   0  0  0  0  0  0  0  0  0  0  0  0
  -22.7850  -18.0299   18.1320 C   0  0  0  0  0  0  0  0  0  0  0  0
  -31.7084  -24.3181   20.0658 C   0  0  0  0  0  0  0  0  0  0  0  0
  -22.2231   -8.9351   21.3053 C   0  0  0  0  0  0  0  0  0  0  0  0
  -25.7636  -15.2315   22.4772 C   0  0  0  0  0  0  0  0  0  0  0  0
  -25.6843  -15.5402   19.5372 C   0  0  0  0  0  0  0  0  0  0  0  0
  -30.0007  -23.1852   18.5290 C   0  0  0  0  0  0  0  0  0  0  0  0
  -22.6218  -10.0003   20.2872 C   0  0  0  0  0  0  0  0  0  0  0  0
  -31.1915  -27.6835   18.6990 C   0  0  0  0  0  0  0  0  0  0  0  0
  -24.1365  -10.1799   20.2679 C   0  0  0  0  0  0  0  0  0  0  0  0
  -29.7469  -27.9887   19.1009 C   0  0  0  0  0  0  0  0  0  0  0  0
  -31.8802  -26.7547   19.6969 C   0  0  0  0  0  0  0  0  0  0  0  0
  -29.7071  -25.8241   20.3913 C   0  0  0  0  0  0  0  0  0  0  0  0
  -24.6532  -10.6550   21.6312 C   0  0  1  0  0  0  0  0  0  0  0  0
  -31.5149  -21.8299   19.8851 C   0  0  2  0  0  0  0  0  0  0  0  0
  -24.7761  -14.4521   21.6142 C   0  0  1  0  0  0  0  0  0  0  0  0
  -28.9579  -26.6934   19.3727 C   0  0  1  0  0  0  0  0  0  0  0  0
  -31.1404  -21.3855   21.2944 C   0  0  0  0  0  0  0  0  0  0  0  0
  -26.7279  -16.2070   15.1348 C   0  0  0  0  0  0  0  0  0  0  0  0
  -21.0248  -19.4047   16.9880 C   0  0  0  0  0  0  0  0  0  0  0  0
  -23.2972  -13.1982   17.4188 C   0  0  0  0  0  0  0  0  0  0  0  0
  -22.3353  -15.0382   16.0198 C   0  0  0  0  0  0  0  0  0  0  0  0
  -21.0335  -14.1239   17.9412 C   0  0  0  0  0  0  0  0  0  0  0  0
  -23.1739  -20.2927   19.9995 C   0  0  0  0  0  0  0  0  0  0  0  0
  -31.9614  -18.7913   19.3587 C   0  0  0  0  0  0  0  0  0  0  0  0
  -27.1668  -17.6563   15.0268 C   0  0  0  0  0  0  0  0  0  0  0  0
  -31.2337  -17.8879   20.3602 C   0  0  0  0  0  0  0  0  0  1  0  0
  -28.4430  -17.9210   15.8108 C   0  0  0  0  0  0  0  0  0  0  0  0
  -23.0526  -15.5772   18.3917 C   0  0  1  0  0  0  0  0  0  0  0  0
  -21.7621  -19.1401   18.2915 C   0  0  2  0  0  0  0  0  0  0  0  0
  -22.4539  -14.4883   17.4572 C   0  0  0  0  0  0  0  0  0  0  0  0
  -27.2774  -28.0856   20.5201 N   0  0  0  0  0  0  0  0  0  0  0  0
  -27.5329  -26.9734   19.8104 N   0  0  0  0  0  0  0  0  0  0  0  0
  -24.5218  -15.0965   20.3241 N   0  0  0  0  0  0  0  0  0  0  0  0
  -31.0141  -23.1946   19.6040 N   0  0  0  0  0  0  0  0  0  0  0  0
  -31.0744  -25.5582   19.9346 N   0  0  0  0  0  0  0  0  0  0  0  0
  -26.5079  -25.0581   18.8661 N   0  0  0  0  0  0  0  0  0  0  0  0
  -23.0612  -27.2308   20.8143 N   0  0  0  0  0  0  0  0  0  0  0  0
  -24.3979  -12.0691   21.8037 N   0  0  0  0  0  0  0  0  0  0  0  0
  -22.2604  -16.7999   18.4686 N   0  0  0  0  0  0  0  0  0  0  0  0
  -22.4298  -20.4022   18.7183 N   0  3  0  0  0  0  0  0  0  0  0  0
  -23.6475  -25.3669   19.6140 O   0  0  0  0  0  0  0  0  0  0  0  0
  -26.2828  -12.8794   20.7023 O   0  0  0  0  0  0  0  0  0  0  0  0
  -22.2231  -14.7251   20.4440 O   0  0  0  0  0  0  0  0  0  0  0  0
  -23.9333  -18.2328   17.7438 O   0  0  0  0  0  0  0  0  0  0  0  0
  -32.8538  -24.2252   20.5248 O   0  0  0  0  0  0  0  0  0  0  0  0
  -23.3585  -32.0383   23.6133 O   0  0  0  0  0  0  0  0  0  0  0  0
  -30.3567  -17.0135   19.6615 O   0  0  0  0  0  0  0  0  0  1  0  0
  -28.7884  -19.2982   15.6780 O   0  0  0  0  0  0  0  0  0  0  0  0
  -24.6198  -37.2718   22.4197 F   0  0  0  0  0  0  0  0  0  0  0  0
  -21.4195  -33.7975   22.7256 F   0  0  0  0  0  0  0  0  0  0  0  0
  1  2  1  0  0  0  0
  1  5  2  0  0  0  0
  2  6  2  0  0  0  0
  3  8  2  0  0  0  0
  3 17  1  0  0  0  0
  4  9  1  0  0  0  0
  4 17  2  0  0  0  0
  5 19  1  0  0  0  0
  6 21  1  0  0  0  0
  7 10  2  0  0  0  0
  7 20  1  0  0  0  0
  8 26  1  0  0  0  0
  9 26  2  0  0  0  0
 10 27  1  0  0  0  0
 11 12  2  0  0  0  0
 11 28  1  0  0  0  0
 12 30  1  0  0  0  0
 13 22  1  0  0  0  0
 13 27  2  0  0  0  0
 14 23  2  0  0  0  0
 14 29  1  0  0  0  0
 15 25  1  0  0  0  0
 15 29  2  0  0  0  0
 16 30  2  0  0  0  0
 16 31  1  0  0  0  0
 17 32  1  0  0  0  0
 18 32  1  0  0  0  0
 18 33  2  0  0  0  0
 18 34  1  0  0  0  0
 19 21  2  0  0  0  0
 19 39  1  0  0  0  0
 20 22  2  0  0  0  0
 20 40  1  0  0  0  0
 21 49  1  0  0  0  0
 22 41  1  0  0  0  0
 23 24  1  0  0  0  0
 23 42  1  0  0  0  0
 24 25  2  0  0  0  0
 24 50  1  0  0  0  0
 25 60  1  0  0  0  0
 26 82  1  0  0  0  0
 27 83  1  0  0  0  0
 28 31  2  0  0  0  0
 28 82  1  0  0  0  0
 29 84  1  0  0  0  0
 30 85  1  0  0  0  0
 31 86  1  0  0  0  0
 32 67  2  0  0  0  0
 33 68  1  0  0  0  0
 33 72  1  0  0  0  0
 34 73  1  0  0  0  0
 34 77  2  0  0  0  0
 35 51  1  0  0  0  0
 35 74  1  0  0  0  0
 35 78  2  0  0  0  0
 36 64  1  0  0  0  0
 36 69  1  0  0  0  0
 36 79  2  0  0  0  0
 37 65  1  0  0  0  0
 37 75  1  0  0  0  0
 37 80  2  0  0  0  0
 38 70  1  0  0  0  0
 38 71  1  0  0  0  0
 38 81  2  0  0  0  0
 39 43  1  0  0  0  0
 40 51  1  0  0  0  0
 41 69  1  0  0  0  0
 42 70  1  0  0  0  0
 43 45  1  0  0  0  0
 44 46  1  0  0  0  0
 44 47  1  0  0  0  0
 45 49  1  0  0  0  0
 46 52  1  0  0  0  0
 47 71  1  0  0  0  0
 48 52  1  0  0  0  0
 48 71  1  0  0  0  0
 49 74  1  0  0  0  0
 50 53  1  0  0  0  0
 50 70  1  0  0  0  0
 51 69  1  0  0  0  0
 52 68  1  0  0  0  0
 54 61  1  0  0  0  0
 55 65  1  0  0  0  0
 56 66  1  0  0  0  0
 57 66  1  0  0  0  0
 58 66  1  0  0  0  0
 59 76  1  0  0  0  0
 60 62  1  0  0  0  0
 61 63  1  0  0  0  0
 62 83  1  0  0  0  0
 63 84  1  0  0  0  0
 64 66  1  0  0  0  0
 64 75  1  0  0  0  0
 65 76  1  0  0  0  0
 67 68  1  0  0  0  0
M  CHG  1  76   1
M  ISO  4  38 100  62 101  70 100  83 101
M  END
> <Batch ID>
0141

> <Smiles>
CCCOc1cc2c(c(C[101CH2:1][101O:1]c3ccc4c(c3)CN(C(=O)C(NC(=O)C(C)NC)C(C)(C)C)C(C(=O)NC3CCCc5ccccc53)C4)c1)C(C)[100N:0]([100C:0](=O)N1CCCC(n3nc(-c4ccc(Oc5ccc(F)cc5F)cc4)c(C(N)=O)c3N)C1)C2

> <Shape>
0.231

> <Color>
0.073

> <Negative vol penalty>
0.000

$$$$
