
  -OEChem-04052321183D

 90100  0     1  0  0  0  0  0999 V2000
  -26.7558  -39.2414   19.4149 C   0  0  0  0  0  0  0  0  0  0  0  0
  -27.4677  -38.1011   19.0570 C   0  0  0  0  0  0  0  0  0  0  0  0
  -24.0279   -9.4482   20.0069 C   0  0  0  0  0  0  0  0  0  0  0  0
  -24.5543   -9.8353   22.3329 C   0  0  0  0  0  0  0  0  0  0  0  0
  -26.2081  -39.3475   20.6927 C   0  0  0  0  0  0  0  0  0  0  0  0
  -27.6334  -37.0665   19.9771 C   0  0  0  0  0  0  0  0  0  0  0  0
  -27.8355  -31.0654   18.7722 C   0  0  0  0  0  0  0  0  0  0  0  0
  -23.6328   -8.1460   20.3130 C   0  0  0  0  0  0  0  0  0  0  0  0
  -24.1592   -8.5330   22.6390 C   0  0  0  0  0  0  0  0  0  0  0  0
  -28.8971  -30.1744   18.6204 C   0  0  0  0  0  0  0  0  0  0  0  0
  -21.2631   -6.8564   23.1105 C   0  0  0  0  0  0  0  0  0  0  0  0
  -20.4534   -6.6730   24.2313 C   0  0  0  0  0  0  0  0  0  0  0  0
  -28.6687  -29.5181   20.9304 C   0  0  0  0  0  0  0  0  0  0  0  0
  -27.4417  -20.5695   21.9352 C   0  0  0  0  0  0  0  0  0  0  0  0
  -22.1368   -5.2453   25.2139 C   0  0  0  0  0  0  0  0  0  0  0  0
  -29.3844  -19.3445   20.4618 C   0  0  0  0  0  0  0  0  0  0  0  0
  -24.4887  -10.2929   21.0169 C   0  0  0  0  0  0  0  0  0  0  0  0
  -24.0908  -12.7916   20.6920 C   0  0  0  0  0  0  0  0  0  0  0  0
  -26.3589  -38.3095   21.6258 C   0  0  0  0  0  0  0  0  0  0  0  0
  -27.1886  -31.1976   20.0093 C   0  0  0  0  0  0  0  0  0  0  0  0
  -27.0884  -37.1593   21.2690 C   0  0  0  0  0  0  0  0  0  0  0  0
  -27.5975  -30.4096   21.0947 C   0  0  0  0  0  0  0  0  0  0  0  0
  -27.6449  -19.2014   22.0774 C   0  0  0  0  0  0  0  0  0  0  0  0
  -28.6328  -18.5695   21.3302 C   0  0  0  0  0  0  0  0  0  0  0  0
  -23.6984   -7.6884   21.6291 C   0  0  0  0  0  0  0  0  0  0  0  0
  -29.3157  -29.4027   19.7003 C   0  0  0  0  0  0  0  0  0  0  0  0
  -22.5097   -6.2342   23.0413 C   0  0  0  0  0  0  0  0  0  0  0  0
  -20.8902   -5.8675   25.2830 C   0  0  0  0  0  0  0  0  0  0  0  0
  -22.9465   -5.4287   24.0930 C   0  0  0  0  0  0  0  0  0  0  0  0
  -24.8975  -11.6380   20.7012 C   0  0  0  0  0  0  0  0  0  0  0  0
  -28.2468  -21.2550   21.0398 C   0  0  0  0  0  0  0  0  0  0  0  0
  -24.9448  -13.8049   20.3310 C   0  0  0  0  0  0  0  0  0  0  0  0
  -22.6943  -12.9345   20.9838 C   0  0  0  0  0  0  0  0  0  0  0  0
  -26.7837  -33.5689   22.0869 C   0  0  0  0  0  0  0  0  0  0  0  0
  -24.8664  -31.4171   23.5754 C   0  0  0  0  0  0  0  0  0  0  0  0
  -24.0520  -28.1467   24.1123 C   0  0  0  0  0  0  0  0  0  0  0  0
  -29.8354  -16.4339   20.7478 C   0  0  0  0  0  0  0  0  0  0  0  0
  -25.7893  -38.4899   23.0106 C   0  0  0  0  0  0  0  0  0  0  0  0
  -26.0278  -32.1437   20.1496 C   0  0  0  0  0  0  0  0  0  0  0  0
  -26.9230  -30.4991   22.4384 C   0  0  0  0  0  0  0  0  0  0  0  0
  -25.6903  -37.1887   23.8026 C   0  0  0  0  0  0  0  0  0  0  0  0
  -29.6770  -13.6439   18.5416 C   0  0  0  0  0  0  0  0  0  0  0  0
  -26.9870  -36.3936   23.6875 C   0  0  0  0  0  0  0  0  0  0  0  0
  -28.3531  -12.9682   18.9060 C   0  0  0  0  0  0  0  0  0  0  0  0
  -30.1845  -23.7066   20.6752 C   0  0  0  0  0  0  0  0  0  0  0  0
  -28.1904  -24.4515   19.3346 C   0  0  0  0  0  0  0  0  0  0  0  0
  -26.7164  -18.8933   24.4707 C   0  0  0  0  0  0  0  0  0  0  0  0
  -30.3801  -14.2145   19.7720 C   0  0  0  0  0  0  0  0  0  0  0  0
  -28.2343  -14.4324   20.9624 C   0  0  0  0  0  0  0  0  0  0  0  0
  -31.0945  -24.5217   19.7696 C   0  0  0  0  0  0  0  0  0  0  0  0
  -29.1049  -25.2650   18.4322 C   0  0  0  0  0  0  0  0  0  0  0  0
  -26.7926  -18.4362   23.0353 C   0  0  2  0  0  0  0  0  0  0  0  0
  -27.2685  -36.0051   22.2310 C   0  0  1  0  0  0  0  0  0  0  0  0
  -25.7757  -32.5705   21.5924 C   0  0  1  0  0  0  0  0  0  0  0  0
  -27.4613  -17.6376   24.1279 C   0  0  2  0  0  0  0  0  0  0  0  0
  -27.4580  -13.8992   19.7471 C   0  0  2  0  0  0  0  0  0  0  0  0
  -28.9186  -23.2593   19.9503 C   0  0  0  0  0  0  0  0  0  0  0  0
  -26.9102  -16.3099   24.5202 C   0  0  0  0  0  0  0  0  0  0  0  0
  -22.4644  -26.6993   25.4092 C   0  0  0  0  0  0  0  0  0  0  0  0
  -26.4901  -31.9119   26.1108 C   0  0  0  0  0  0  0  0  0  0  0  0
  -25.5138  -29.8120   27.0624 C   0  0  0  0  0  0  0  0  0  0  0  0
  -24.0228  -31.7229   26.4725 C   0  0  0  0  0  0  0  0  0  0  0  0
  -22.8896  -27.0068   21.6408 C   0  0  0  0  0  0  0  0  0  0  0  0
  -31.2086  -26.6042   18.4020 C   0  0  0  0  0  0  0  0  0  0  0  0
  -30.5414  -27.9582   18.2626 C   0  0  0  0  0  0  0  0  0  1  0  0
  -25.0690  -30.3507   24.6246 C   0  0  1  0  0  0  0  0  0  0  0  0
  -22.7162  -27.4257   24.0970 C   0  0  2  0  0  0  0  0  0  0  0  0
  -25.2881  -30.9489   26.0429 C   0  0  0  0  0  0  0  0  0  0  0  0
  -29.2163  -20.6757   20.2967 N   0  0  0  0  0  0  0  0  0  0  0  0
  -26.1665  -11.8935   20.3720 N   0  0  0  0  0  0  0  0  0  0  0  0
  -26.1636  -13.2194   20.1525 N   0  0  0  0  0  0  0  0  0  0  0  0
  -25.7970  -31.4434   22.5271 N   0  0  0  0  0  0  0  0  0  0  0  0
  -29.4729  -15.0900   20.5171 N   0  0  0  0  0  0  0  0  0  0  0  0
  -24.7646  -15.1307   20.1518 N   0  0  0  0  0  0  0  0  0  0  0  0
  -21.9654  -11.7911   21.3383 N   0  0  0  0  0  0  0  0  0  0  0  0
  -28.8797  -17.1785   21.4384 N   0  0  0  0  0  0  0  0  0  0  0  0
  -26.4415  -34.8844   21.8380 N   0  0  0  0  0  0  0  0  0  0  0  0
  -23.9210  -29.4560   24.5243 N   0  0  0  0  0  0  0  0  0  0  0  0
  -30.3247  -25.6963   19.2123 N   0  3  0  0  0  0  0  0  0  0  0  0
  -22.6796  -26.4263   22.9921 N   0  3  0  0  0  0  0  0  0  0  0  0
  -22.1066  -14.0406   20.9158 O   0  0  0  0  0  0  0  0  0  0  0  0
  -27.7963  -33.1751   22.6537 O   0  0  0  0  0  0  0  0  0  0  0  0
  -23.9132  -32.1933   23.6783 O   0  0  0  0  0  0  0  0  0  0  0  0
  -25.1067  -27.6017   23.7944 O   0  0  0  0  0  0  0  0  0  0  0  0
  -30.9023  -16.8979   20.3375 O   0  0  0  0  0  0  0  0  0  0  0  0
  -23.3127   -6.4178   21.9282 O   0  0  0  0  0  0  0  0  0  0  0  0
  -30.3520  -28.5327   19.5550 O   0  0  0  0  0  0  0  0  0  1  0  0
  -28.0660  -22.6036   20.8818 O   0  0  0  0  0  0  0  0  0  0  0  0
  -20.1132   -5.6928   26.3600 F   0  0  0  0  0  0  0  0  0  0  0  0
  -24.1435   -4.8293   24.0327 F   0  0  0  0  0  0  0  0  0  0  0  0
  1  2  1  0  0  0  0
  1  5  2  0  0  0  0
  2  6  2  0  0  0  0
  3  8  2  0  0  0  0
  3 17  1  0  0  0  0
  4  9  1  0  0  0  0
  4 17  2  0  0  0  0
  5 19  1  0  0  0  0
  6 21  1  0  0  0  0
  7 10  2  0  0  0  0
  7 20  1  0  0  0  0
  8 25  1  0  0  0  0
  9 25  2  0  0  0  0
 10 26  1  0  0  0  0
 11 12  2  0  0  0  0
 11 27  1  0  0  0  0
 12 28  1  0  0  0  0
 13 22  1  0  0  0  0
 13 26  2  0  0  0  0
 14 23  2  0  0  0  0
 14 31  1  0  0  0  0
 15 28  2  0  0  0  0
 15 29  1  0  0  0  0
 16 24  2  0  0  0  0
 16 69  1  0  0  0  0
 17 30  1  0  0  0  0
 18 30  1  0  0  0  0
 18 32  2  0  0  0  0
 18 33  1  0  0  0  0
 19 21  2  0  0  0  0
 19 38  1  0  0  0  0
 20 22  2  0  0  0  0
 20 39  1  0  0  0  0
 21 53  1  0  0  0  0
 22 40  1  0  0  0  0
 23 24  1  0  0  0  0
 23 52  1  0  0  0  0
 24 76  1  0  0  0  0
 25 86  1  0  0  0  0
 26 87  1  0  0  0  0
 27 29  2  0  0  0  0
 27 86  1  0  0  0  0
 28 89  1  0  0  0  0
 29 90  1  0  0  0  0
 30 70  2  0  0  0  0
 31 69  2  0  0  0  0
 31 88  1  0  0  0  0
 32 71  1  0  0  0  0
 32 74  1  0  0  0  0
 33 75  1  0  0  0  0
 33 81  2  0  0  0  0
 34 54  1  0  0  0  0
 34 77  1  0  0  0  0
 34 82  2  0  0  0  0
 35 66  1  0  0  0  0
 35 72  1  0  0  0  0
 35 83  2  0  0  0  0
 36 67  1  0  0  0  0
 36 78  1  0  0  0  0
 36 84  2  0  0  0  0
 37 73  1  0  0  0  0
 37 76  1  0  0  0  0
 37 85  2  0  0  0  0
 38 41  1  0  0  0  0
 39 54  1  0  0  0  0
 40 72  1  0  0  0  0
 41 43  1  0  0  0  0
 42 44  1  0  0  0  0
 42 48  1  0  0  0  0
 43 53  1  0  0  0  0
 44 56  1  0  0  0  0
 45 50  1  0  0  0  0
 45 57  1  0  0  0  0
 46 51  1  0  0  0  0
 46 57  1  0  0  0  0
 47 52  1  0  0  0  0
 47 55  1  0  0  0  0
 48 73  1  0  0  0  0
 49 56  1  0  0  0  0
 49 73  1  0  0  0  0
 50 79  1  0  0  0  0
 51 79  1  0  0  0  0
 52 55  1  0  0  0  0
 53 77  1  0  0  0  0
 54 72  1  0  0  0  0
 55 58  1  0  0  0  0
 56 71  1  0  0  0  0
 57 88  1  0  0  0  0
 59 67  1  0  0  0  0
 60 68  1  0  0  0  0
 61 68  1  0  0  0  0
 62 68  1  0  0  0  0
 63 80  1  0  0  0  0
 64 65  1  0  0  0  0
 64 79  1  0  0  0  0
 65 87  1  0  0  0  0
 66 68  1  0  0  0  0
 66 78  1  0  0  0  0
 67 80  1  0  0  0  0
 70 71  1  0  0  0  0
M  CHG  2  79   1  80   1
M  ISO  4  37 100  65 101  76 100  87 101
M  END
> <Batch ID>
0142

> <Smiles>
CNC(C)C(=O)NC(C(=O)N1Cc2cc([101O:1][101CH2:1]CN3CCC(Oc4cc(C5CC5C)c([100NH:0][100C:0](=O)N5CCCC(n6nc(-c7ccc(Oc8ccc(F)cc8F)cc7)c(C(N)=O)c6N)C5)cn4)CC3)ccc2CC1C(=O)NC1CCCc2ccccc21)C(C)(C)C

> <Shape>
0.336

> <Color>
0.135

> <Negative vol penalty>
0.000

$$$$

  -OEChem-04052321183D

 95105  0     1  0  0  0  0  0999 V2000
  -17.6032  -22.8490   21.6200 C   0  0  0  0  0  0  0  0  0  0  0  0
  -18.9251  -22.4322   21.5007 C   0  0  0  0  0  0  0  0  0  0  0  0
  -23.9730  -10.7024   23.4270 C   0  0  0  0  0  0  0  0  0  0  0  0
  -24.2143  -12.9585   24.2571 C   0  0  0  0  0  0  0  0  0  0  0  0
  -17.2700  -24.1824   21.3856 C   0  0  0  0  0  0  0  0  0  0  0  0
  -19.9145  -23.3485   21.1457 C   0  0  0  0  0  0  0  0  0  0  0  0
  -25.7252  -23.4256   23.0785 C   0  0  0  0  0  0  0  0  0  0  0  0
  -33.1191  -18.1041   21.2217 C   0  0  0  0  0  0  0  0  0  0  0  0
  -32.4785  -16.8744   21.0699 C   0  0  0  0  0  0  0  0  0  0  0  0
  -23.4573  -10.3038   24.6602 C   0  0  0  0  0  0  0  0  0  0  0  0
  -23.6986  -12.5599   25.4903 C   0  0  0  0  0  0  0  0  0  0  0  0
  -26.9108  -22.9686   22.5046 C   0  0  0  0  0  0  0  0  0  0  0  0
  -20.6628  -11.9152   26.8278 C   0  0  0  0  0  0  0  0  0  0  0  0
  -19.7030  -12.7342   27.4224 C   0  0  0  0  0  0  0  0  0  0  0  0
  -27.3518  -25.1864   21.6643 C   0  0  0  0  0  0  0  0  0  0  0  0
  -30.9744  -19.2152   21.2729 C   0  0  0  0  0  0  0  0  0  0  0  0
  -21.1466  -13.0365   29.3360 C   0  0  0  0  0  0  0  0  0  0  0  0
  -24.3516  -12.0298   23.2254 C   0  0  0  0  0  0  0  0  0  0  0  0
  -24.1632  -12.9268   20.8448 C   0  0  0  0  0  0  0  0  0  0  0  0
  -18.2573  -25.1175   21.0370 C   0  0  0  0  0  0  0  0  0  0  0  0
  -25.3380  -24.7662   22.9401 C   0  0  0  0  0  0  0  0  0  0  0  0
  -19.5940  -24.6954   20.9051 C   0  0  0  0  0  0  0  0  0  0  0  0
  -26.1621  -25.6585   22.2396 C   0  0  0  0  0  0  0  0  0  0  0  0
  -32.3670  -19.2745   21.3233 C   0  0  0  0  0  0  0  0  0  0  0  0
  -30.3337  -17.9855   21.1210 C   0  0  0  0  0  0  0  0  0  0  0  0
  -31.0858  -16.8151   21.0195 C   0  0  0  0  0  0  0  0  0  0  0  0
  -23.3201  -11.2326   25.6918 C   0  0  0  0  0  0  0  0  0  0  0  0
  -27.7228  -23.8484   21.7949 C   0  0  0  0  0  0  0  0  0  0  0  0
  -21.8645  -11.6567   27.4872 C   0  0  0  0  0  0  0  0  0  0  0  0
  -19.9449  -13.2949   28.6765 C   0  0  0  0  0  0  0  0  0  0  0  0
  -22.1064  -12.2174   28.7413 C   0  0  0  0  0  0  0  0  0  0  0  0
  -24.8849  -12.4420   21.9520 C   0  0  0  0  0  0  0  0  0  0  0  0
  -25.1212  -13.1755   19.8926 C   0  0  0  0  0  0  0  0  0  0  0  0
  -22.7528  -13.1337   20.6908 C   0  0  0  0  0  0  0  0  0  0  0  0
  -22.8638  -26.2614   21.6186 C   0  0  0  0  0  0  0  0  0  0  0  0
  -24.2310  -28.8811   22.9565 C   0  0  0  0  0  0  0  0  0  0  0  0
  -27.0505  -30.3852   24.1544 C   0  0  0  0  0  0  0  0  0  0  0  0
  -30.9540  -14.4358   20.2023 C   0  0  0  0  0  0  0  0  0  0  0  0
  -17.8416  -26.5380   20.7472 C   0  0  0  0  0  0  0  0  0  0  0  0
  -24.0694  -25.2495   23.5879 C   0  0  0  0  0  0  0  0  0  0  0  0
  -25.8015  -27.1120   22.0794 C   0  0  0  0  0  0  0  0  0  0  0  0
  -19.0067  -27.5243   20.7412 C   0  0  0  0  0  0  0  0  0  0  0  0
  -29.4529  -11.7129   18.4673 C   0  0  0  0  0  0  0  0  0  0  0  0
  -20.1735  -26.9675   19.9316 C   0  0  0  0  0  0  0  0  0  0  0  0
  -27.8070  -17.3118   17.8289 C   0  0  0  0  0  0  0  0  0  0  0  0
  -27.8081  -18.7378   17.3533 C   0  0  0  0  0  0  0  0  0  0  0  0
  -28.0435  -11.6389   19.0589 C   0  0  0  0  0  0  0  0  0  0  0  0
  -27.5035  -16.0778   23.1145 C   0  0  0  0  0  0  0  0  0  0  0  0
  -26.9221  -17.0599   24.0920 C   0  0  0  0  0  0  0  0  0  0  0  0
  -30.4915  -12.0909   19.5219 C   0  0  0  0  0  0  0  0  0  0  0  0
  -28.7798  -13.2366   20.8734 C   0  0  0  0  0  0  0  0  0  0  0  0
  -20.6993  -25.6647   20.5462 C   0  0  1  0  0  0  0  0  0  0  0  0
  -23.5172  -26.5189   22.9469 C   0  0  1  0  0  0  0  0  0  0  0  0
  -28.6238  -18.3453   18.5538 C   0  0  0  0  0  0  0  0  0  0  0  0
  -27.6900  -12.9226   19.8353 C   0  0  2  0  0  0  0  0  0  0  0  0
  -28.2388  -17.3606   23.4180 C   0  0  0  0  0  0  0  0  0  0  0  0
  -27.8625  -32.5424   25.1467 C   0  0  0  0  0  0  0  0  0  0  0  0
  -29.3861  -18.1402   25.5108 C   0  0  0  0  0  0  0  0  0  0  0  0
  -29.8468  -15.8433   24.6076 C   0  0  0  0  0  0  0  0  0  0  0  0
  -24.1518  -30.1781   20.1958 C   0  0  0  0  0  0  0  0  0  0  0  0
  -25.7909  -31.8794   21.0247 C   0  0  0  0  0  0  0  0  0  0  0  0
  -23.5386  -31.7014   22.0821 C   0  0  0  0  0  0  0  0  0  0  0  0
  -27.8833  -29.0526   26.6622 C   0  0  0  0  0  0  0  0  0  0  0  0
  -33.0598  -20.6040   21.4851 C   0  0  0  0  0  0  0  0  0  0  0  0
  -28.2133  -18.8108   19.9455 C   0  0  0  0  0  0  0  0  0  0  0  0
  -33.3894  -21.2983   20.1570 C   0  0  0  0  0  0  0  0  0  0  0  0
  -32.1861  -21.6678   19.2950 C   0  0  0  0  0  0  0  0  0  0  0  0
  -30.1440  -23.1035   19.2096 C   0  0  0  0  0  0  0  0  0  0  0  0
  -29.3195  -24.0626   20.0454 C   0  0  0  0  0  0  0  0  0  1  0  0
  -28.8406  -17.9521   21.0671 C   0  0  2  0  0  0  0  0  0  0  0  0
  -25.2560  -29.8967   22.5126 C   0  0  1  0  0  0  0  0  0  0  0  0
  -27.3151  -31.1535   25.4366 C   0  0  2  0  0  0  0  0  0  0  0  0
  -29.4949  -17.2920   24.2335 C   0  0  0  0  0  0  0  0  0  0  0  0
  -24.6904  -30.8861   21.4550 C   0  0  0  0  0  0  0  0  0  0  0  0
  -26.2000  -12.3852   21.7254 N   0  0  0  0  0  0  0  0  0  0  0  0
  -26.3122  -12.8375   20.4649 N   0  0  0  0  0  0  0  0  0  0  0  0
  -24.5482  -27.5350   22.7257 N   0  0  0  0  0  0  0  0  0  0  0  0
  -30.0922  -13.3186   20.2134 N   0  0  0  0  0  0  0  0  0  0  0  0
  -25.0527  -13.6482   18.6299 N   0  0  0  0  0  0  0  0  0  0  0  0
  -21.9109  -12.8265   21.7684 N   0  0  0  0  0  0  0  0  0  0  0  0
  -30.4538  -15.5564   20.8647 N   0  0  0  0  0  0  0  0  0  0  0  0
  -21.5208  -25.9474   21.7037 N   0  0  0  0  0  0  0  0  0  0  0  0
  -25.7484  -30.5375   23.7273 N   0  0  0  0  0  0  0  0  0  0  0  0
  -28.2093  -18.3950   22.3612 N   0  3  0  0  0  0  0  0  0  0  0  0
  -28.3036  -30.4258   26.2819 N   0  3  0  0  0  0  0  0  0  0  0  0
  -31.3116  -22.6420   20.0021 N   0  3  0  0  0  0  0  0  0  0  0  0
  -22.2523  -13.5625   19.6235 O   0  0  0  0  0  0  0  0  0  0  0  0
  -23.5285  -26.3431   20.5923 O   0  0  0  0  0  0  0  0  0  0  0  0
  -23.1906  -29.2675   23.4949 O   0  0  0  0  0  0  0  0  0  0  0  0
  -27.9137  -29.7199   23.5863 O   0  0  0  0  0  0  0  0  0  0  0  0
  -32.0428  -14.4097   19.6229 O   0  0  0  0  0  0  0  0  0  0  0  0
  -22.8167  -10.8440   26.8952 O   0  0  0  0  0  0  0  0  0  0  0  0
  -28.8802  -23.4048   21.2331 O   0  0  0  0  0  0  0  0  0  1  0  0
  -19.0238  -14.0827   29.2467 F   0  0  0  0  0  0  0  0  0  0  0  0
  -23.2594  -11.9738   29.3792 F   0  0  0  0  0  0  0  0  0  0  0  0
  1  2  1  0  0  0  0
  1  5  2  0  0  0  0
  2  6  2  0  0  0  0
  3 10  2  0  0  0  0
  3 18  1  0  0  0  0
  4 11  1  0  0  0  0
  4 18  2  0  0  0  0
  5 20  1  0  0  0  0
  6 22  1  0  0  0  0
  7 12  2  0  0  0  0
  7 21  1  0  0  0  0
  8  9  2  0  0  0  0
  8 24  1  0  0  0  0
  9 26  1  0  0  0  0
 10 27  1  0  0  0  0
 11 27  2  0  0  0  0
 12 28  1  0  0  0  0
 13 14  2  0  0  0  0
 13 29  1  0  0  0  0
 14 30  1  0  0  0  0
 15 23  1  0  0  0  0
 15 28  2  0  0  0  0
 16 24  2  0  0  0  0
 16 25  1  0  0  0  0
 17 30  2  0  0  0  0
 17 31  1  0  0  0  0
 18 32  1  0  0  0  0
 19 32  1  0  0  0  0
 19 33  2  0  0  0  0
 19 34  1  0  0  0  0
 20 22  2  0  0  0  0
 20 39  1  0  0  0  0
 21 23  2  0  0  0  0
 21 40  1  0  0  0  0
 22 52  1  0  0  0  0
 23 41  1  0  0  0  0
 24 64  1  0  0  0  0
 25 26  2  0  0  0  0
 25 70  1  0  0  0  0
 26 81  1  0  0  0  0
 27 92  1  0  0  0  0
 28 93  1  0  0  0  0
 29 31  2  0  0  0  0
 29 92  1  0  0  0  0
 30 94  1  0  0  0  0
 31 95  1  0  0  0  0
 32 75  2  0  0  0  0
 33 76  1  0  0  0  0
 33 79  1  0  0  0  0
 34 80  1  0  0  0  0
 34 87  2  0  0  0  0
 35 53  1  0  0  0  0
 35 82  1  0  0  0  0
 35 88  2  0  0  0  0
 36 71  1  0  0  0  0
 36 77  1  0  0  0  0
 36 89  2  0  0  0  0
 37 72  1  0  0  0  0
 37 83  1  0  0  0  0
 37 90  2  0  0  0  0
 38 78  1  0  0  0  0
 38 81  1  0  0  0  0
 38 91  2  0  0  0  0
 39 42  1  0  0  0  0
 40 53  1  0  0  0  0
 41 77  1  0  0  0  0
 42 44  1  0  0  0  0
 43 47  1  0  0  0  0
 43 50  1  0  0  0  0
 44 52  1  0  0  0  0
 45 46  1  0  0  0  0
 45 54  1  0  0  0  0
 46 54  1  0  0  0  0
 47 55  1  0  0  0  0
 48 49  1  0  0  0  0
 48 56  1  0  0  0  0
 49 56  1  0  0  0  0
 50 78  1  0  0  0  0
 51 55  1  0  0  0  0
 51 78  1  0  0  0  0
 52 82  1  0  0  0  0
 53 77  1  0  0  0  0
 54 65  1  0  0  0  0
 55 76  1  0  0  0  0
 56 73  1  0  0  0  0
 56 84  1  0  0  0  0
 57 72  1  0  0  0  0
 58 73  1  0  0  0  0
 59 73  1  0  0  0  0
 60 74  1  0  0  0  0
 61 74  1  0  0  0  0
 62 74  1  0  0  0  0
 63 85  1  0  0  0  0
 64 66  1  0  0  0  0
 65 70  1  0  0  0  0
 66 67  1  0  0  0  0
 67 86  1  0  0  0  0
 68 69  1  0  0  0  0
 68 86  1  0  0  0  0
 69 93  1  0  0  0  0
 70 84  1  0  0  0  0
 71 74  1  0  0  0  0
 71 83  1  0  0  0  0
 72 85  1  0  0  0  0
 75 76  1  0  0  0  0
M  CHG  3  84   1  85   1  86   1
M  ISO  4  38 100  69 101  81 100  93 101
M  END
> <Batch ID>
0142

> <Smiles>
CNC(C)C(=O)NC(C(=O)N1Cc2cc([101O:1][101CH2:1]CNCCCc3ccc([100NH:0][100C:0](=O)N4CCCC(n5nc(-c6ccc(Oc7ccc(F)cc7F)cc6)c(C(N)=O)c5N)C4)c(C(CC4CC4)NC4(C(C)C)CC4)c3)ccc2CC1C(=O)NC1CCCc2ccccc21)C(C)(C)C

> <Shape>
0.244

> <Color>
0.082

> <Negative vol penalty>
0.000

$$$$

  -OEChem-04052321183D

 85 94  0     1  0  0  0  0  0999 V2000
  -28.2350  -34.0974   25.5593 C   0  0  0  0  0  0  0  0  0  0  0  0
  -28.8711  -32.9412   25.1190 C   0  0  0  0  0  0  0  0  0  0  0  0
  -24.7126   -8.4542   20.6660 C   0  0  0  0  0  0  0  0  0  0  0  0
  -23.0750  -10.1755   20.2274 C   0  0  0  0  0  0  0  0  0  0  0  0
  -26.8424  -34.1533   25.5995 C   0  0  0  0  0  0  0  0  0  0  0  0
  -28.1150  -31.8397   24.7196 C   0  0  0  0  0  0  0  0  0  0  0  0
  -28.2177  -26.3848   20.0774 C   0  0  0  0  0  0  0  0  0  0  0  0
  -23.6972   -7.5953   21.0863 C   0  0  0  0  0  0  0  0  0  0  0  0
  -22.0596   -9.3165   20.6477 C   0  0  0  0  0  0  0  0  0  0  0  0
  -28.0826  -24.9976   20.0424 C   0  0  0  0  0  0  0  0  0  0  0  0
  -21.8122   -7.1338   23.8536 C   0  0  0  0  0  0  0  0  0  0  0  0
  -22.0226   -6.4074   25.0257 C   0  0  0  0  0  0  0  0  0  0  0  0
  -25.6824  -25.2365   20.0794 C   0  0  0  0  0  0  0  0  0  0  0  0
  -27.6624  -20.1631   18.7068 C   0  0  0  0  0  0  0  0  0  0  0  0
  -21.7839   -4.3449   23.7902 C   0  0  0  0  0  0  0  0  0  0  0  0
  -24.4016   -9.7444   20.2366 C   0  0  0  0  0  0  0  0  0  0  0  0
  -25.9537  -10.7789   18.4964 C   0  0  0  0  0  0  0  0  0  0  0  0
  -26.0687  -33.0554   25.1913 C   0  0  0  0  0  0  0  0  0  0  0  0
  -27.0844  -27.2093   20.1248 C   0  0  0  0  0  0  0  0  0  0  0  0
  -26.7108  -31.8805   24.7557 C   0  0  0  0  0  0  0  0  0  0  0  0
  -25.8058  -26.6339   20.1124 C   0  0  0  0  0  0  0  0  0  0  0  0
  -27.5241  -20.8418   19.9125 C   0  0  0  0  0  0  0  0  0  0  0  0
  -27.0585  -20.1660   21.0349 C   0  0  0  0  0  0  0  0  0  0  0  0
  -22.3707   -8.0264   21.0772 C   0  0  0  0  0  0  0  0  0  0  0  0
  -26.8149  -24.4232   20.0464 C   0  0  0  0  0  0  0  0  0  0  0  0
  -21.5875   -6.4658   22.6499 C   0  0  0  0  0  0  0  0  0  0  0  0
  -22.0085   -5.0130   24.9940 C   0  0  0  0  0  0  0  0  0  0  0  0
  -21.5734   -5.0714   22.6182 C   0  0  0  0  0  0  0  0  0  0  0  0
  -25.4501  -10.6324   19.8028 C   0  0  0  0  0  0  0  0  0  0  0  0
  -27.3243  -18.8198   18.6763 C   0  0  0  0  0  0  0  0  0  0  0  0
  -26.7472  -18.8226   20.9001 C   0  0  0  0  0  0  0  0  0  0  0  0
  -26.9302  -11.7381   18.6104 C   0  0  0  0  0  0  0  0  0  0  0  0
  -25.5729  -10.1080   17.2878 C   0  0  0  0  0  0  0  0  0  0  0  0
  -25.9376  -29.3291   22.1973 C   0  0  0  0  0  0  0  0  0  0  0  0
  -23.7499  -29.8491   19.8594 C   0  0  0  0  0  0  0  0  0  0  0  0
  -22.1008  -28.6603   17.1182 C   0  0  0  0  0  0  0  0  0  0  0  0
  -27.8364  -16.1907   22.5097 C   0  0  0  0  0  0  0  0  0  0  0  0
  -24.5670  -33.1460   25.2973 C   0  0  0  0  0  0  0  0  0  0  0  0
  -27.2467  -28.7047   20.1352 C   0  0  0  0  0  0  0  0  0  0  0  0
  -24.5571  -27.4755   20.1419 C   0  0  0  0  0  0  0  0  0  0  0  0
  -23.8341  -32.0684   24.5024 C   0  0  0  0  0  0  0  0  0  0  0  0
  -30.0727  -13.5285   21.7424 C   0  0  0  0  0  0  0  0  0  0  0  0
  -24.4626  -30.7010   24.7516 C   0  0  0  0  0  0  0  0  0  0  0  0
  -25.3477  -23.3855   24.0968 C   0  0  0  0  0  0  0  0  0  0  0  0
  -24.0338  -22.6828   24.2956 C   0  0  0  0  0  0  0  0  0  0  0  0
  -29.1870  -12.4976   21.0405 C   0  0  0  0  0  0  0  0  0  0  0  0
  -29.3251  -14.2431   22.8661 C   0  0  0  0  0  0  0  0  0  0  0  0
  -27.1605  -13.8279   21.7634 C   0  0  0  0  0  0  0  0  0  0  0  0
  -25.9249  -30.6737   24.2908 C   0  0  1  0  0  0  0  0  0  0  0  0
  -26.0320  -29.4336   20.7014 C   0  0  1  0  0  0  0  0  0  0  0  0
  -25.2735  -21.8873   23.9939 C   0  0  0  0  0  0  0  0  0  0  0  0
  -27.8534  -13.1208   20.5860 C   0  0  2  0  0  0  0  0  0  0  0  0
  -27.4613  -18.0591   17.3998 C   0  0  0  0  0  0  0  0  0  0  0  0
  -20.3437  -29.3009   15.4450 C   0  0  0  0  0  0  0  0  0  0  0  0
  -21.5831  -29.3602   21.9512 C   0  0  0  0  0  0  0  0  0  0  0  0
  -19.9424  -29.0696   20.0826 C   0  0  0  0  0  0  0  0  0  0  0  0
  -21.1126  -31.2518   20.3845 C   0  0  0  0  0  0  0  0  0  0  0  0
  -23.9984  -28.4193   14.8599 C   0  0  0  0  0  0  0  0  0  0  0  0
  -26.9024  -20.8675   22.3421 C   0  0  0  0  0  0  0  0  0  0  0  0
  -27.8801  -22.2981   19.9748 C   0  0  0  0  0  0  0  0  0  1  0  0
  -26.2439  -18.0428   22.0707 C   0  0  0  0  0  0  0  0  0  0  0  0
  -25.4343  -21.2029   22.6457 C   0  0  0  0  0  0  0  0  0  0  0  0
  -22.4041  -29.2640   19.5053 C   0  0  1  0  0  0  0  0  0  0  0  0
  -21.8318  -29.2783   15.7580 C   0  0  2  0  0  0  0  0  0  0  0  0
  -21.2839  -29.7202   20.4823 C   0  0  0  0  0  0  0  0  0  0  0  0
  -26.0566  -11.4342   20.6822 N   0  0  0  0  0  0  0  0  0  0  0  0
  -26.8686  -18.1296   19.7456 N   0  0  0  0  0  0  0  0  0  0  0  0
  -26.9515  -12.0937   19.9269 N   0  0  0  0  0  0  0  0  0  0  0  0
  -24.7680  -28.9325   20.1578 N   0  0  0  0  0  0  0  0  0  0  0  0
  -28.0706  -14.8129   22.3687 N   0  0  0  0  0  0  0  0  0  0  0  0
  -27.7641  -12.3035   17.7119 N   0  0  0  0  0  0  0  0  0  0  0  0
  -24.5512   -9.1505   17.3487 N   0  0  0  0  0  0  0  0  0  0  0  0
  -25.9989  -30.5448   22.8512 N   0  0  0  0  0  0  0  0  0  0  0  0
  -22.1603  -29.6158   18.1106 N   0  0  0  0  0  0  0  0  0  0  0  0
  -26.6256  -16.6497   22.0057 N   0  0  0  0  0  0  0  0  0  0  0  0
  -22.5249  -28.5029   14.6906 N   0  3  0  0  0  0  0  0  0  0  0  0
  -26.1335  -10.3386   16.1897 O   0  0  0  0  0  0  0  0  0  0  0  0
  -25.8166  -28.2271   22.7195 O   0  0  0  0  0  0  0  0  0  0  0  0
  -23.8944  -31.0742   19.8640 O   0  0  0  0  0  0  0  0  0  0  0  0
  -22.2403  -27.4506   17.2844 O   0  0  0  0  0  0  0  0  0  0  0  0
  -28.6486  -16.9560   23.0403 O   0  0  0  0  0  0  0  0  0  0  0  0
  -21.3796   -7.1884   21.4870 O   0  0  0  0  0  0  0  0  0  0  0  0
  -26.6802  -23.0694   20.0129 O   0  0  0  0  0  0  0  0  0  1  0  0
  -22.2121   -4.3156   26.1193 F   0  0  0  0  0  0  0  0  0  0  0  0
  -21.3593   -4.4240   21.4645 F   0  0  0  0  0  0  0  0  0  0  0  0
  1  2  1  0  0  0  0
  1  5  2  0  0  0  0
  2  6  2  0  0  0  0
  3  8  2  0  0  0  0
  3 16  1  0  0  0  0
  4  9  1  0  0  0  0
  4 16  2  0  0  0  0
  5 18  1  0  0  0  0
  6 20  1  0  0  0  0
  7 10  2  0  0  0  0
  7 19  1  0  0  0  0
  8 24  1  0  0  0  0
  9 24  2  0  0  0  0
 10 25  1  0  0  0  0
 11 12  2  0  0  0  0
 11 26  1  0  0  0  0
 12 27  1  0  0  0  0
 13 21  1  0  0  0  0
 13 25  2  0  0  0  0
 14 22  1  0  0  0  0
 14 30  2  0  0  0  0
 15 27  2  0  0  0  0
 15 28  1  0  0  0  0
 16 29  1  0  0  0  0
 17 29  1  0  0  0  0
 17 32  2  0  0  0  0
 17 33  1  0  0  0  0
 18 20  2  0  0  0  0
 18 38  1  0  0  0  0
 19 21  2  0  0  0  0
 19 39  1  0  0  0  0
 20 49  1  0  0  0  0
 21 40  1  0  0  0  0
 22 23  2  0  0  0  0
 22 60  1  0  0  0  0
 23 31  1  0  0  0  0
 23 59  1  0  0  0  0
 24 82  1  0  0  0  0
 25 83  1  0  0  0  0
 26 28  2  0  0  0  0
 26 82  1  0  0  0  0
 27 84  1  0  0  0  0
 28 85  1  0  0  0  0
 29 66  2  0  0  0  0
 30 53  1  0  0  0  0
 30 67  1  0  0  0  0
 31 61  1  0  0  0  0
 31 67  2  0  0  0  0
 32 68  1  0  0  0  0
 32 71  1  0  0  0  0
 33 72  1  0  0  0  0
 33 77  2  0  0  0  0
 34 50  1  0  0  0  0
 34 73  1  0  0  0  0
 34 78  2  0  0  0  0
 35 63  1  0  0  0  0
 35 69  1  0  0  0  0
 35 79  2  0  0  0  0
 36 64  1  0  0  0  0
 36 74  1  0  0  0  0
 36 80  2  0  0  0  0
 37 70  1  0  0  0  0
 37 75  1  0  0  0  0
 37 81  2  0  0  0  0
 38 41  1  0  0  0  0
 39 50  1  0  0  0  0
 40 69  1  0  0  0  0
 41 43  1  0  0  0  0
 42 46  1  0  0  0  0
 42 47  1  0  0  0  0
 43 49  1  0  0  0  0
 44 45  1  0  0  0  0
 44 51  1  0  0  0  0
 45 51  1  0  0  0  0
 46 52  1  0  0  0  0
 47 70  1  0  0  0  0
 48 52  1  0  0  0  0
 48 70  1  0  0  0  0
 49 73  1  0  0  0  0
 50 69  1  0  0  0  0
 51 62  1  0  0  0  0
 52 68  1  0  0  0  0
 54 64  1  0  0  0  0
 55 65  1  0  0  0  0
 56 65  1  0  0  0  0
 57 65  1  0  0  0  0
 58 76  1  0  0  0  0
 59 62  1  0  0  0  0
 60 83  1  0  0  0  0
 61 75  1  0  0  0  0
 63 65  1  0  0  0  0
 63 74  1  0  0  0  0
 64 76  1  0  0  0  0
 66 68  1  0  0  0  0
M  CHG  1  76   1
M  ISO  4  37 100  60 101  75 100  83 101
M  END
> <Batch ID>
0142

> <Smiles>
CNC(C)C(=O)NC(C(=O)N1Cc2cc([101O:1][101CH2:1]c3cc(C)nc(C[100NH:0][100C:0](=O)N4CCCC(n5nc(-c6ccc(Oc7ccc(F)cc7F)cc6)c(C(N)=O)c5N)C4)c3CCC3CC3)ccc2CC1C(=O)NC1CCCc2ccccc21)C(C)(C)C

> <Shape>
0.279

> <Color>
0.080

> <Negative vol penalty>
0.000

$$$$

  -OEChem-04052321183D

 88 97  0     1  0  0  0  0  0999 V2000
  -34.9434  -29.1875   18.7457 C   0  0  0  0  0  0  0  0  0  0  0  0
  -34.2176  -28.0474   19.0756 C   0  0  0  0  0  0  0  0  0  0  0  0
  -24.7176  -10.0657   22.5399 C   0  0  0  0  0  0  0  0  0  0  0  0
  -24.3290  -11.4877   24.4540 C   0  0  0  0  0  0  0  0  0  0  0  0
  -34.7539  -30.3659   19.4664 C   0  0  0  0  0  0  0  0  0  0  0  0
  -33.3025  -28.0848   20.1271 C   0  0  0  0  0  0  0  0  0  0  0  0
  -27.9854  -25.0677   20.4891 C   0  0  0  0  0  0  0  0  0  0  0  0
  -24.2647   -8.9643   23.2661 C   0  0  0  0  0  0  0  0  0  0  0  0
  -23.8761  -10.3863   25.1803 C   0  0  0  0  0  0  0  0  0  0  0  0
  -27.6212  -23.8819   21.1255 C   0  0  0  0  0  0  0  0  0  0  0  0
  -21.2941   -7.6502   24.2049 C   0  0  0  0  0  0  0  0  0  0  0  0
  -20.4084   -6.7770   23.5734 C   0  0  0  0  0  0  0  0  0  0  0  0
  -26.8224  -25.1489   23.0164 C   0  0  0  0  0  0  0  0  0  0  0  0
  -28.3410  -20.0747   23.2465 C   0  0  0  0  0  0  0  0  0  0  0  0
  -29.4464  -20.9539   25.2065 C   0  0  0  0  0  0  0  0  0  0  0  0
  -21.9823   -4.9678   23.8679 C   0  0  0  0  0  0  0  0  0  0  0  0
  -24.7498  -11.3274   23.1338 C   0  0  0  0  0  0  0  0  0  0  0  0
  -24.4486  -13.3318   21.5848 C   0  0  0  0  0  0  0  0  0  0  0  0
  -33.8290  -30.4205   20.5210 C   0  0  0  0  0  0  0  0  0  0  0  0
  -27.7804  -26.3046   21.1173 C   0  0  0  0  0  0  0  0  0  0  0  0
  -33.1014  -29.2647   20.8634 C   0  0  0  0  0  0  0  0  0  0  0  0
  -27.1825  -26.3492   22.3848 C   0  0  0  0  0  0  0  0  0  0  0  0
  -30.7134  -19.7334   23.5506 C   0  0  0  0  0  0  0  0  0  0  0  0
  -28.2871  -20.7746   24.4518 C   0  0  0  0  0  0  0  0  0  0  0  0
  -29.5541  -19.5540   22.7959 C   0  0  0  0  0  0  0  0  0  0  0  0
  -30.6595  -20.4333   24.7560 C   0  0  0  0  0  0  0  0  0  0  0  0
  -23.8440   -9.1246   24.5863 C   0  0  0  0  0  0  0  0  0  0  0  0
  -27.0423  -23.9222   22.3905 C   0  0  0  0  0  0  0  0  0  0  0  0
  -22.5239   -7.1822   24.6678 C   0  0  0  0  0  0  0  0  0  0  0  0
  -20.7525   -5.4358   23.4050 C   0  0  0  0  0  0  0  0  0  0  0  0
  -22.8680   -5.8410   24.4993 C   0  0  0  0  0  0  0  0  0  0  0  0
  -25.2180  -12.4654   22.3843 C   0  0  0  0  0  0  0  0  0  0  0  0
  -25.3538  -14.2409   21.0942 C   0  0  0  0  0  0  0  0  0  0  0  0
  -23.0415  -13.3162   21.3102 C   0  0  0  0  0  0  0  0  0  0  0  0
  -29.6725  -28.6616   22.1012 C   0  0  0  0  0  0  0  0  0  0  0  0
  -26.8536  -30.1456   22.7128 C   0  0  0  0  0  0  0  0  0  0  0  0
  -23.5181  -29.8679   23.3792 C   0  0  0  0  0  0  0  0  0  0  0  0
  -30.5380  -16.1467   23.1791 C   0  0  0  0  0  0  0  0  0  0  0  0
  -33.6929  -31.7038   21.3016 C   0  0  0  0  0  0  0  0  0  0  0  0
  -28.1542  -27.5762   20.4063 C   0  0  0  0  0  0  0  0  0  0  0  0
  -26.9224  -27.6524   23.0936 C   0  0  0  0  0  0  0  0  0  0  0  0
  -32.4319  -31.7639   22.1598 C   0  0  0  0  0  0  0  0  0  0  0  0
  -29.9754  -14.6660   19.9251 C   0  0  0  0  0  0  0  0  0  0  0  0
  -32.2505  -30.4622   22.9341 C   0  0  0  0  0  0  0  0  0  0  0  0
  -28.6058  -14.0133   20.1206 C   0  0  0  0  0  0  0  0  0  0  0  0
  -33.8575  -17.7848   23.6114 C   0  0  0  0  0  0  0  0  0  0  0  0
  -30.8266  -14.5534   21.1864 C   0  0  0  0  0  0  0  0  0  0  0  0
  -28.8175  -14.4558   22.6105 C   0  0  0  0  0  0  0  0  0  0  0  0
  -34.1650  -19.2127   24.0067 C   0  0  0  0  0  0  0  0  0  0  0  0
  -32.0815  -29.2725   21.9814 C   0  0  1  0  0  0  0  0  0  0  0  0
  -32.0251  -19.1707   23.0629 C   0  0  2  0  0  0  0  0  0  0  0  0
  -28.3708  -28.7503   21.3560 C   0  0  1  0  0  0  0  0  0  0  0  0
  -27.9007  -14.5561   21.3778 C   0  0  2  0  0  0  0  0  0  0  0  0
  -32.3457  -17.7866   23.6265 C   0  0  1  0  0  0  0  0  0  0  0  0
  -29.0848  -19.6563   20.3351 C   0  0  0  0  0  0  0  0  0  0  0  0
  -31.5606  -21.1392   26.9868 C   0  0  0  0  0  0  0  0  0  0  0  0
  -21.4851  -31.2549   23.8693 C   0  0  0  0  0  0  0  0  0  0  0  0
  -27.8570  -30.6067   25.5572 C   0  0  0  0  0  0  0  0  0  0  0  0
  -25.4995  -31.1110   26.2326 C   0  0  0  0  0  0  0  0  0  0  0  0
  -26.6480  -32.5502   24.5496 C   0  0  0  0  0  0  0  0  0  0  0  0
  -22.1160  -28.8733   20.9701 C   0  0  0  0  0  0  0  0  0  0  0  0
  -26.9743  -21.3373   24.9397 C   0  0  0  0  0  0  0  0  0  0  0  0
  -29.5851  -18.8094   21.5012 C   0  0  0  0  0  0  0  0  0  0  0  0
  -31.8866  -20.6392   25.5828 C   0  0  0  0  0  0  0  0  0  0  0  0
  -26.7308  -22.7574   24.4404 C   0  0  0  0  0  0  0  0  0  1  0  0
  -25.9189  -30.2193   23.8960 C   0  0  1  0  0  0  0  0  0  0  0  0
  -22.3108  -30.5740   22.7890 C   0  0  2  0  0  0  0  0  0  0  0  0
  -26.4874  -31.0970   25.0466 C   0  0  0  0  0  0  0  0  0  0  0  0
  -26.5124  -12.7945   22.4032 N   0  0  0  0  0  0  0  0  0  0  0  0
  -26.5633  -13.8777   21.6093 N   0  0  0  0  0  0  0  0  0  0  0  0
  -27.3113  -28.8681   22.3599 N   0  0  0  0  0  0  0  0  0  0  0  0
  -30.1055  -15.1044   22.3425 N   0  0  0  0  0  0  0  0  0  0  0  0
  -25.2251  -15.3074   20.2767 N   0  0  0  0  0  0  0  0  0  0  0  0
  -22.2575  -12.3127   21.8956 N   0  0  0  0  0  0  0  0  0  0  0  0
  -30.7387  -29.2435   21.4424 N   0  0  0  0  0  0  0  0  0  0  0  0
  -24.6353  -30.6760   23.3743 N   0  0  0  0  0  0  0  0  0  0  0  0
  -31.7712  -16.7024   22.8613 N   0  0  0  0  0  0  0  0  0  0  0  0
  -21.4384  -29.5992   22.0750 N   0  3  0  0  0  0  0  0  0  0  0  0
  -22.4981  -14.1572   20.5545 O   0  0  0  0  0  0  0  0  0  0  0  0
  -29.7067  -28.1076   23.1937 O   0  0  0  0  0  0  0  0  0  0  0  0
  -27.1606  -31.1824   22.1192 O   0  0  0  0  0  0  0  0  0  0  0  0
  -23.4736  -28.7161   23.8055 O   0  0  0  0  0  0  0  0  0  0  0  0
  -29.8716  -16.5560   24.1360 O   0  0  0  0  0  0  0  0  0  0  0  0
  -33.1249  -20.0259   23.4448 O   0  0  0  0  0  0  0  0  0  0  0  0
  -23.4018   -8.0502   25.2952 O   0  0  0  0  0  0  0  0  0  0  0  0
  -26.6866  -22.7661   23.0141 O   0  0  0  0  0  0  0  0  0  1  0  0
  -19.9013   -4.5971   22.7999 F   0  0  0  0  0  0  0  0  0  0  0  0
  -24.0475   -5.3853   24.9430 F   0  0  0  0  0  0  0  0  0  0  0  0
  1  2  1  0  0  0  0
  1  5  2  0  0  0  0
  2  6  2  0  0  0  0
  3  8  2  0  0  0  0
  3 17  1  0  0  0  0
  4  9  1  0  0  0  0
  4 17  2  0  0  0  0
  5 19  1  0  0  0  0
  6 21  1  0  0  0  0
  7 10  2  0  0  0  0
  7 20  1  0  0  0  0
  8 27  1  0  0  0  0
  9 27  2  0  0  0  0
 10 28  1  0  0  0  0
 11 12  2  0  0  0  0
 11 29  1  0  0  0  0
 12 30  1  0  0  0  0
 13 22  1  0  0  0  0
 13 28  2  0  0  0  0
 14 24  2  0  0  0  0
 14 25  1  0  0  0  0
 15 24  1  0  0  0  0
 15 26  2  0  0  0  0
 16 30  2  0  0  0  0
 16 31  1  0  0  0  0
 17 32  1  0  0  0  0
 18 32  1  0  0  0  0
 18 33  2  0  0  0  0
 18 34  1  0  0  0  0
 19 21  2  0  0  0  0
 19 39  1  0  0  0  0
 20 22  2  0  0  0  0
 20 40  1  0  0  0  0
 21 50  1  0  0  0  0
 22 41  1  0  0  0  0
 23 25  2  0  0  0  0
 23 26  1  0  0  0  0
 23 51  1  0  0  0  0
 24 62  1  0  0  0  0
 25 63  1  0  0  0  0
 26 64  1  0  0  0  0
 27 85  1  0  0  0  0
 28 86  1  0  0  0  0
 29 31  2  0  0  0  0
 29 85  1  0  0  0  0
 30 87  1  0  0  0  0
 31 88  1  0  0  0  0
 32 69  2  0  0  0  0
 33 70  1  0  0  0  0
 33 73  1  0  0  0  0
 34 74  1  0  0  0  0
 34 79  2  0  0  0  0
 35 52  1  0  0  0  0
 35 75  1  0  0  0  0
 35 80  2  0  0  0  0
 36 66  1  0  0  0  0
 36 71  1  0  0  0  0
 36 81  2  0  0  0  0
 37 67  1  0  0  0  0
 37 76  1  0  0  0  0
 37 82  2  0  0  0  0
 38 72  1  0  0  0  0
 38 77  1  0  0  0  0
 38 83  2  0  0  0  0
 39 42  1  0  0  0  0
 40 52  1  0  0  0  0
 41 71  1  0  0  0  0
 42 44  1  0  0  0  0
 43 45  1  0  0  0  0
 43 47  1  0  0  0  0
 44 50  1  0  0  0  0
 45 53  1  0  0  0  0
 46 49  1  0  0  0  0
 46 54  1  0  0  0  0
 47 72  1  0  0  0  0
 48 53  1  0  0  0  0
 48 72  1  0  0  0  0
 49 84  1  0  0  0  0
 50 75  1  0  0  0  0
 51 54  1  0  0  0  0
 51 84  1  0  0  0  0
 52 71  1  0  0  0  0
 53 70  1  0  0  0  0
 54 77  1  0  0  0  0
 55 63  1  0  0  0  0
 56 64  1  0  0  0  0
 57 67  1  0  0  0  0
 58 68  1  0  0  0  0
 59 68  1  0  0  0  0
 60 68  1  0  0  0  0
 61 78  1  0  0  0  0
 62 65  1  0  0  0  0
 65 86  1  0  0  0  0
 66 68  1  0  0  0  0
 66 76  1  0  0  0  0
 67 78  1  0  0  0  0
 69 70  1  0  0  0  0
M  CHG  1  78   1
M  ISO  4  38 100  65 101  77 100  86 101
M  END
> <Batch ID>
0142

> <Smiles>
CCc1cc(C[101CH2:1][101O:1]c2ccc3c(c2)CN(C(=O)C(NC(=O)C(C)NC)C(C)(C)C)C(C(=O)NC2CCCc4ccccc42)C3)cc(CC)c1C1OCCC1[100NH:0][100C:0](=O)N1CCCC(n2nc(-c3ccc(Oc4ccc(F)cc4F)cc3)c(C(N)=O)c2N)C1

> <Shape>
0.208

> <Color>
0.125

> <Negative vol penalty>
0.000

$$$$

  -OEChem-04052321183D

 95105  0     1  0  0  0  0  0999 V2000
  -30.8574  -33.2557   14.3343 C   0  0  0  0  0  0  0  0  0  0  0  0
  -30.2893  -32.0765   14.8057 C   0  0  0  0  0  0  0  0  0  0  0  0
  -23.0055  -10.7996   21.4004 C   0  0  0  0  0  0  0  0  0  0  0  0
  -24.5660   -8.9551   21.4081 C   0  0  0  0  0  0  0  0  0  0  0  0
  -31.2872  -34.2297   15.2345 C   0  0  0  0  0  0  0  0  0  0  0  0
  -30.1518  -31.8702   16.1779 C   0  0  0  0  0  0  0  0  0  0  0  0
  -25.6090  -28.9027   19.0175 C   0  0  0  0  0  0  0  0  0  0  0  0
  -22.2460  -10.1611   22.3807 C   0  0  0  0  0  0  0  0  0  0  0  0
  -23.8065   -8.3166   22.3884 C   0  0  0  0  0  0  0  0  0  0  0  0
  -25.5012  -27.6026   19.5093 C   0  0  0  0  0  0  0  0  0  0  0  0
  -20.9617   -6.4962   22.5434 C   0  0  0  0  0  0  0  0  0  0  0  0
  -20.7041   -5.1352   22.3795 C   0  0  0  0  0  0  0  0  0  0  0  0
  -26.1161  -28.3889   21.7054 C   0  0  0  0  0  0  0  0  0  0  0  0
  -26.3546  -23.0740   21.5012 C   0  0  0  0  0  0  0  0  0  0  0  0
  -23.9429  -23.2008   21.4376 C   0  0  0  0  0  0  0  0  0  0  0  0
  -21.8258   -4.6713   24.4684 C   0  0  0  0  0  0  0  0  0  0  0  0
  -24.1655  -10.1966   20.9140 C   0  0  0  0  0  0  0  0  0  0  0  0
  -24.5308  -11.2293   18.6102 C   0  0  0  0  0  0  0  0  0  0  0  0
  -31.1461  -34.0393   16.6182 C   0  0  0  0  0  0  0  0  0  0  0  0
  -25.9824  -29.9557   19.8650 C   0  0  0  0  0  0  0  0  0  0  0  0
  -30.5814  -32.8420   17.0976 C   0  0  0  0  0  0  0  0  0  0  0  0
  -26.2255  -29.7018   21.2225 C   0  0  0  0  0  0  0  0  0  0  0  0
  -25.0260  -21.3085   22.4783 C   0  0  0  0  0  0  0  0  0  0  0  0
  -25.1897  -23.7470   21.1330 C   0  0  0  0  0  0  0  0  0  0  0  0
  -26.2728  -21.8547   22.1737 C   0  0  0  0  0  0  0  0  0  0  0  0
  -22.6464   -8.9196   22.8747 C   0  0  0  0  0  0  0  0  0  0  0  0
  -25.7575  -27.3450   20.8528 C   0  0  0  0  0  0  0  0  0  0  0  0
  -21.6514   -6.9448   23.6698 C   0  0  0  0  0  0  0  0  0  0  0  0
  -23.8610  -21.9815   22.1102 C   0  0  0  0  0  0  0  0  0  0  0  0
  -21.1361   -4.2227   23.3420 C   0  0  0  0  0  0  0  0  0  0  0  0
  -22.0834   -6.0323   24.6323 C   0  0  0  0  0  0  0  0  0  0  0  0
  -24.9502  -10.8554   19.9010 C   0  0  0  0  0  0  0  0  0  0  0  0
  -25.6373  -11.8159   18.0461 C   0  0  0  0  0  0  0  0  0  0  0  0
  -23.2551  -11.0616   17.9777 C   0  0  0  0  0  0  0  0  0  0  0  0
  -28.4206  -31.9922   19.9720 C   0  0  0  0  0  0  0  0  0  0  0  0
  -28.3373  -20.7527   21.3442 C   0  0  0  0  0  0  0  0  0  0  0  0
  -26.7053  -33.3130   22.3877 C   0  0  0  0  0  0  0  0  0  0  0  0
  -24.3432  -32.9149   24.8185 C   0  0  0  0  0  0  0  0  0  0  0  0
  -30.4336  -14.5475   20.3667 C   0  0  0  0  0  0  0  0  0  0  0  0
  -31.6688  -35.1003   17.5540 C   0  0  0  0  0  0  0  0  0  0  0  0
  -26.0683  -31.3568   19.3248 C   0  0  0  0  0  0  0  0  0  0  0  0
  -26.6099  -30.8005   22.1783 C   0  0  0  0  0  0  0  0  0  0  0  0
  -31.1447  -34.9654   18.9814 C   0  0  0  0  0  0  0  0  0  0  0  0
  -30.4181  -11.7183   18.2051 C   0  0  0  0  0  0  0  0  0  0  0  0
  -24.1440  -19.9298   24.4770 C   0  0  0  0  0  0  0  0  0  0  0  0
  -25.6378  -19.8453   24.5187 C   0  0  0  0  0  0  0  0  0  0  0  0
  -31.2462  -33.5182   19.4527 C   0  0  0  0  0  0  0  0  0  0  0  0
  -28.9772  -11.2101   18.2782 C   0  0  0  0  0  0  0  0  0  0  0  0
  -28.9303  -17.2992   22.3394 C   0  0  0  0  0  0  0  0  0  0  0  0
  -29.6869  -17.7210   19.9694 C   0  0  0  0  0  0  0  0  0  0  0  0
  -30.8966  -12.2541   19.5527 C   0  0  0  0  0  0  0  0  0  0  0  0
  -29.2124  -18.7651   22.6656 C   0  0  0  0  0  0  0  0  0  0  0  0
  -29.9581  -19.1766   20.3431 C   0  0  0  0  0  0  0  0  0  0  0  0
  -28.5839  -12.7709   20.2295 C   0  0  0  0  0  0  0  0  0  0  0  0
  -24.9335  -20.0013   23.1987 C   0  0  0  0  0  0  0  0  0  0  0  0
  -30.3925  -32.5920   18.5781 C   0  0  1  0  0  0  0  0  0  0  0  0
  -26.9564  -32.2682   20.1662 C   0  0  1  0  0  0  0  0  0  0  0  0
  -28.0379  -12.2721   18.8807 C   0  0  2  0  0  0  0  0  0  0  0  0
  -29.8116  -16.8047   21.1895 C   0  0  0  0  0  0  0  0  0  0  0  0
  -19.9129  -19.6739   20.5313 C   0  0  0  0  0  0  0  0  0  0  0  0
  -28.4247  -21.9821   23.4955 C   0  0  0  0  0  0  0  0  0  0  0  0
  -23.1806  -34.1633   26.6589 C   0  0  0  0  0  0  0  0  0  0  0  0
  -29.2022  -33.0725   24.1248 C   0  0  0  0  0  0  0  0  0  0  0  0
  -27.7522  -33.4226   26.1355 C   0  0  0  0  0  0  0  0  0  0  0  0
  -27.9372  -35.2114   24.4067 C   0  0  0  0  0  0  0  0  0  0  0  0
  -21.6923  -32.5371   23.5579 C   0  0  0  0  0  0  0  0  0  0  0  0
  -25.2776  -25.0584   20.4093 C   0  0  0  0  0  0  0  0  0  1  0  0
  -20.8534  -20.0347   21.6672 C   0  0  0  0  0  0  0  0  0  0  0  0
  -21.7714  -21.1894   21.2966 C   0  0  0  0  0  0  0  0  0  0  0  0
  -27.5365  -21.1557   22.5568 C   0  0  1  0  0  0  0  0  0  0  0  0
  -26.6320  -33.1107   23.8819 C   0  0  1  0  0  0  0  0  0  0  0  0
  -23.1346  -33.7525   25.1954 C   0  0  2  0  0  0  0  0  0  0  0  0
  -27.8756  -33.6830   24.6191 C   0  0  0  0  0  0  0  0  0  0  0  0
  -26.2238  -11.1772   20.1427 N   0  0  0  0  0  0  0  0  0  0  0  0
  -26.6142  -11.7595   18.9962 N   0  0  0  0  0  0  0  0  0  0  0  0
  -26.6868  -32.1526   21.6008 N   0  0  0  0  0  0  0  0  0  0  0  0
  -29.1152  -19.6006   21.4626 N   0  0  0  0  0  0  0  0  0  0  0  0
  -29.9628  -13.2581   20.0684 N   0  0  0  0  0  0  0  0  0  0  0  0
  -25.8602  -12.3692   16.8351 N   0  0  0  0  0  0  0  0  0  0  0  0
  -23.0200   -9.8879   17.2487 N   0  0  0  0  0  0  0  0  0  0  0  0
  -28.9949  -32.7048   18.9367 N   0  0  0  0  0  0  0  0  0  0  0  0
  -25.3638  -33.6905   24.3107 N   0  0  0  0  0  0  0  0  0  0  0  0
  -29.4818  -15.4398   20.8447 N   0  0  0  0  0  0  0  0  0  0  0  0
  -21.8789  -32.9844   24.9622 N   0  3  0  0  0  0  0  0  0  0  0  0
  -22.3564  -11.9343   18.0429 O   0  0  0  0  0  0  0  0  0  0  0  0
  -28.9876  -31.1931   20.7079 O   0  0  0  0  0  0  0  0  0  0  0  0
  -28.2702  -21.4408   20.3223 O   0  0  0  0  0  0  0  0  0  0  0  0
  -26.7691  -34.4587   21.9350 O   0  0  0  0  0  0  0  0  0  0  0  0
  -24.3797  -31.6950   24.9637 O   0  0  0  0  0  0  0  0  0  0  0  0
  -31.6137  -14.8804   20.2129 O   0  0  0  0  0  0  0  0  0  0  0  0
  -21.9057   -8.2964   23.8315 O   0  0  0  0  0  0  0  0  0  0  0  0
  -25.6537  -26.0769   21.3353 O   0  0  0  0  0  0  0  0  0  1  0  0
  -22.6335  -21.4649   22.3986 O   0  0  0  0  0  0  0  0  0  0  0  0
  -20.8873   -2.9160   23.1852 F   0  0  0  0  0  0  0  0  0  0  0  0
  -22.7455   -6.4574   25.7171 F   0  0  0  0  0  0  0  0  0  0  0  0
  1  2  1  0  0  0  0
  1  5  2  0  0  0  0
  2  6  2  0  0  0  0
  3  8  2  0  0  0  0
  3 17  1  0  0  0  0
  4  9  1  0  0  0  0
  4 17  2  0  0  0  0
  5 19  1  0  0  0  0
  6 21  1  0  0  0  0
  7 10  2  0  0  0  0
  7 20  1  0  0  0  0
  8 26  1  0  0  0  0
  9 26  2  0  0  0  0
 10 27  1  0  0  0  0
 11 12  2  0  0  0  0
 11 28  1  0  0  0  0
 12 30  1  0  0  0  0
 13 22  1  0  0  0  0
 13 27  2  0  0  0  0
 14 24  1  0  0  0  0
 14 25  2  0  0  0  0
 15 24  2  0  0  0  0
 15 29  1  0  0  0  0
 16 30  2  0  0  0  0
 16 31  1  0  0  0  0
 17 32  1  0  0  0  0
 18 32  1  0  0  0  0
 18 33  2  0  0  0  0
 18 34  1  0  0  0  0
 19 21  2  0  0  0  0
 19 40  1  0  0  0  0
 20 22  2  0  0  0  0
 20 41  1  0  0  0  0
 21 56  1  0  0  0  0
 22 42  1  0  0  0  0
 23 25  1  0  0  0  0
 23 29  2  0  0  0  0
 23 55  1  0  0  0  0
 24 67  1  0  0  0  0
 25 70  1  0  0  0  0
 26 91  1  0  0  0  0
 27 92  1  0  0  0  0
 28 31  2  0  0  0  0
 28 91  1  0  0  0  0
 29 93  1  0  0  0  0
 30 94  1  0  0  0  0
 31 95  1  0  0  0  0
 32 74  2  0  0  0  0
 33 75  1  0  0  0  0
 33 79  1  0  0  0  0
 34 80  1  0  0  0  0
 34 85  2  0  0  0  0
 35 57  1  0  0  0  0
 35 81  1  0  0  0  0
 35 86  2  0  0  0  0
 36 70  1  0  0  0  0
 36 77  1  0  0  0  0
 36 87  2  0  0  0  0
 37 71  1  0  0  0  0
 37 76  1  0  0  0  0
 37 88  2  0  0  0  0
 38 72  1  0  0  0  0
 38 82  1  0  0  0  0
 38 89  2  0  0  0  0
 39 78  1  0  0  0  0
 39 83  1  0  0  0  0
 39 90  2  0  0  0  0
 40 43  1  0  0  0  0
 41 57  1  0  0  0  0
 42 76  1  0  0  0  0
 43 47  1  0  0  0  0
 44 48  1  0  0  0  0
 44 51  1  0  0  0  0
 45 46  1  0  0  0  0
 45 55  1  0  0  0  0
 46 55  1  0  0  0  0
 47 56  1  0  0  0  0
 48 58  1  0  0  0  0
 49 52  1  0  0  0  0
 49 59  1  0  0  0  0
 50 53  1  0  0  0  0
 50 59  1  0  0  0  0
 51 78  1  0  0  0  0
 52 77  1  0  0  0  0
 53 77  1  0  0  0  0
 54 58  1  0  0  0  0
 54 78  1  0  0  0  0
 56 81  1  0  0  0  0
 57 76  1  0  0  0  0
 58 75  1  0  0  0  0
 59 83  1  0  0  0  0
 60 68  1  0  0  0  0
 61 70  1  0  0  0  0
 62 72  1  0  0  0  0
 63 73  1  0  0  0  0
 64 73  1  0  0  0  0
 65 73  1  0  0  0  0
 66 84  1  0  0  0  0
 67 92  1  0  0  0  0
 68 69  1  0  0  0  0
 69 93  1  0  0  0  0
 71 73  1  0  0  0  0
 71 82  1  0  0  0  0
 72 84  1  0  0  0  0
 74 75  1  0  0  0  0
M  CHG  1  84   1
M  ISO  4  39 100  67 101  83 100  92 101
M  END
> <Batch ID>
0142

> <Smiles>
CCCOc1cc([101CH2:1][101O:1]c2ccc3c(c2)CN(C(=O)C(NC(=O)C(C)NC)C(C)(C)C)C(C(=O)NC2CCCc4ccccc42)C3)cc(C(C)C(=O)N2CCC([100NH:0][100C:0](=O)N3CCCC(n4nc(-c5ccc(Oc6ccc(F)cc6F)cc5)c(C(N)=O)c4N)C3)CC2)c1C1CC1

> <Shape>
0.246

> <Color>
0.111

> <Negative vol penalty>
0.000

$$$$

  -OEChem-04052321183D

 88 98  0     1  0  0  0  0  0999 V2000
  -29.5478  -35.6316   27.4553 C   0  0  0  0  0  0  0  0  0  0  0  0
  -30.0661  -34.9711   26.3461 C   0  0  0  0  0  0  0  0  0  0  0  0
  -23.8454   -9.4099   22.0915 C   0  0  0  0  0  0  0  0  0  0  0  0
  -25.2122   -7.4796   21.5988 C   0  0  0  0  0  0  0  0  0  0  0  0
  -28.4780  -35.0783   28.1578 C   0  0  0  0  0  0  0  0  0  0  0  0
  -29.5157  -33.7562   25.9393 C   0  0  0  0  0  0  0  0  0  0  0  0
  -28.2194  -29.9129   20.0346 C   0  0  0  0  0  0  0  0  0  0  0  0
  -22.6953   -8.6501   21.8782 C   0  0  0  0  0  0  0  0  0  0  0  0
  -24.0621   -6.7197   21.3855 C   0  0  0  0  0  0  0  0  0  0  0  0
  -28.4324  -28.6386   19.5106 C   0  0  0  0  0  0  0  0  0  0  0  0
  -21.4822   -4.1784   21.0634 C   0  0  0  0  0  0  0  0  0  0  0  0
  -21.4315   -2.9045   21.6292 C   0  0  0  0  0  0  0  0  0  0  0  0
  -26.5351  -27.8170   20.7534 C   0  0  0  0  0  0  0  0  0  0  0  0
  -28.8124  -22.4030   22.2054 C   0  0  0  0  0  0  0  0  0  0  0  0
  -21.6809   -3.8716   23.8291 C   0  0  0  0  0  0  0  0  0  0  0  0
  -29.4954  -20.4852   20.3884 C   0  0  0  0  0  0  0  0  0  0  0  0
  -25.1039   -8.8247   21.9518 C   0  0  0  0  0  0  0  0  0  0  0  0
  -26.9812   -9.7868   23.3862 C   0  0  0  0  0  0  0  0  0  0  0  0
  -27.9080  -33.8608   27.7536 C   0  0  0  0  0  0  0  0  0  0  0  0
  -27.1675  -30.1468   20.9319 C   0  0  0  0  0  0  0  0  0  0  0  0
  -28.4382  -33.1854   26.6378 C   0  0  0  0  0  0  0  0  0  0  0  0
  -26.3093  -29.0957   21.2853 C   0  0  0  0  0  0  0  0  0  0  0  0
  -28.8741  -21.0734   22.6076 C   0  0  0  0  0  0  0  0  0  0  0  0
  -29.2213  -20.0901   21.6879 C   0  0  0  0  0  0  0  0  0  0  0  0
  -22.8037   -7.3050   21.5252 C   0  0  0  0  0  0  0  0  0  0  0  0
  -27.5920  -27.5898   19.8722 C   0  0  0  0  0  0  0  0  0  0  0  0
  -21.6323   -5.2990   21.8804 C   0  0  0  0  0  0  0  0  0  0  0  0
  -21.5308   -2.7511   23.0120 C   0  0  0  0  0  0  0  0  0  0  0  0
  -21.7316   -5.1456   23.2632 C   0  0  0  0  0  0  0  0  0  0  0  0
  -26.2923   -9.6093   22.1715 C   0  0  0  0  0  0  0  0  0  0  0  0
  -29.1050  -22.6946   20.8829 C   0  0  0  0  0  0  0  0  0  0  0  0
  -28.0324  -10.6114   23.0675 C   0  0  0  0  0  0  0  0  0  0  0  0
  -26.6965   -9.2539   24.6865 C   0  0  0  0  0  0  0  0  0  0  0  0
  -26.9697  -31.1141   23.9533 C   0  0  0  0  0  0  0  0  0  0  0  0
  -23.7845  -31.1042   23.3395 C   0  0  0  0  0  0  0  0  0  0  0  0
  -21.1984  -29.8973   21.4681 C   0  0  0  0  0  0  0  0  0  0  0  0
  -30.2149  -14.9398   20.5136 C   0  0  0  0  0  0  0  0  0  0  0  0
  -26.7834  -33.2784   28.5727 C   0  0  0  0  0  0  0  0  0  0  0  0
  -26.9349  -31.5330   21.4675 C   0  0  0  0  0  0  0  0  0  0  0  0
  -25.1534  -29.2990   22.2292 C   0  0  0  0  0  0  0  0  0  0  0  0
  -26.0147  -32.1732   27.8531 C   0  0  0  0  0  0  0  0  0  0  0  0
  -29.8205  -12.0990   18.5841 C   0  0  0  0  0  0  0  0  0  0  0  0
  -27.1679  -20.2972   24.3853 C   0  0  0  0  0  0  0  0  0  0  0  0
  -27.6737  -21.6352   24.8261 C   0  0  0  0  0  0  0  0  0  0  0  0
  -26.9804  -31.1858   27.2055 C   0  0  0  0  0  0  0  0  0  0  0  0
  -28.9245  -11.2017   19.4374 C   0  0  0  0  0  0  0  0  0  0  0  0
  -28.2880  -17.7670   21.2954 C   0  0  0  0  0  0  0  0  0  0  0  0
  -30.7287  -18.0638   21.8993 C   0  0  0  0  0  0  0  0  0  0  0  0
  -29.3606  -13.5507   18.6504 C   0  0  0  0  0  0  0  0  0  0  0  0
  -28.4002  -16.2845   21.6622 C   0  0  0  0  0  0  0  0  0  0  0  0
  -30.7763  -16.5857   22.2755 C   0  0  0  0  0  0  0  0  0  0  0  0
  -28.3998  -13.2126   20.9044 C   0  0  0  0  0  0  0  0  0  0  0  0
  -28.5662  -20.7243   24.0254 C   0  0  0  0  0  0  0  0  0  0  0  0
  -29.3051  -18.6243   22.0700 C   0  0  0  0  0  0  0  0  0  0  0  0
  -27.8522  -31.8779   26.1508 C   0  0  1  0  0  0  0  0  0  0  0  0
  -26.1456  -31.5445   22.7729 C   0  0  1  0  0  0  0  0  0  0  0  0
  -28.8250  -11.7303   20.8793 C   0  0  1  0  0  0  0  0  0  0  0  0
  -18.7050  -30.0451   21.2260 C   0  0  0  0  0  0  0  0  0  0  0  0
  -23.4430  -29.3311   25.7991 C   0  0  0  0  0  0  0  0  0  0  0  0
  -21.1529  -28.7464   24.9734 C   0  0  0  0  0  0  0  0  0  0  0  0
  -21.7042  -31.1108   25.5464 C   0  0  0  0  0  0  0  0  0  0  0  0
  -21.4121  -30.9446   18.7084 C   0  0  0  0  0  0  0  0  0  0  0  0
  -29.3149  -24.4833   19.1560 C   0  0  0  0  0  0  0  0  0  0  0  0
  -29.1408  -25.9884   19.0400 C   0  0  0  0  0  0  0  0  0  1  0  0
  -22.6774  -30.0840   23.4511 C   0  0  1  0  0  0  0  0  0  0  0  0
  -20.0465  -30.5983   20.7709 C   0  0  2  0  0  0  0  0  0  0  0  0
  -22.2672  -29.8135   24.9262 C   0  0  0  0  0  0  0  0  0  0  0  0
  -29.4460  -21.7667   19.9607 N   0  0  0  0  0  0  0  0  0  0  0  0
  -26.8581  -10.2682   21.1567 N   0  0  0  0  0  0  0  0  0  0  0  0
  -27.9136  -10.8679   21.7332 N   0  0  0  0  0  0  0  0  0  0  0  0
  -24.9711  -30.6710   22.7310 N   0  0  0  0  0  0  0  0  0  0  0  0
  -29.2755  -14.0140   20.0352 N   0  0  0  0  0  0  0  0  0  0  0  0
  -29.7865  -15.8181   21.5203 N   0  0  0  0  0  0  0  0  0  0  0  0
  -29.0374  -11.1348   23.8012 N   0  0  0  0  0  0  0  0  0  0  0  0
  -25.5775   -8.4238   24.8380 N   0  0  0  0  0  0  0  0  0  0  0  0
  -29.0369  -24.0537   20.4877 N   0  0  0  0  0  0  0  0  0  0  0  0
  -27.1020  -32.0825   24.9302 N   0  0  0  0  0  0  0  0  0  0  0  0
  -21.5899  -30.5679   22.6076 N   0  0  0  0  0  0  0  0  0  0  0  0
  -20.1507  -30.4229   19.2946 N   0  3  0  0  0  0  0  0  0  0  0  0
  -27.4039   -9.5196   25.6878 O   0  0  0  0  0  0  0  0  0  0  0  0
  -27.4488  -29.9865   23.9768 O   0  0  0  0  0  0  0  0  0  0  0  0
  -23.6007  -32.2456   23.7697 O   0  0  0  0  0  0  0  0  0  0  0  0
  -21.6982  -28.8567   21.0464 O   0  0  0  0  0  0  0  0  0  0  0  0
  -31.3689  -14.9794   20.0685 O   0  0  0  0  0  0  0  0  0  0  0  0
  -21.6816   -6.5631   21.3172 O   0  0  0  0  0  0  0  0  0  0  0  0
  -27.7995  -26.3361   19.3591 O   0  0  0  0  0  0  0  0  0  1  0  0
  -21.4806   -1.5278   23.5553 F   0  0  0  0  0  0  0  0  0  0  0  0
  -21.8747   -6.2184   24.0534 F   0  0  0  0  0  0  0  0  0  0  0  0
  1  2  1  0  0  0  0
  1  5  2  0  0  0  0
  2  6  2  0  0  0  0
  3  8  2  0  0  0  0
  3 17  1  0  0  0  0
  4  9  1  0  0  0  0
  4 17  2  0  0  0  0
  5 19  1  0  0  0  0
  6 21  1  0  0  0  0
  7 10  2  0  0  0  0
  7 20  1  0  0  0  0
  8 25  1  0  0  0  0
  9 25  2  0  0  0  0
 10 26  1  0  0  0  0
 11 12  2  0  0  0  0
 11 27  1  0  0  0  0
 12 28  1  0  0  0  0
 13 22  1  0  0  0  0
 13 26  2  0  0  0  0
 14 23  2  0  0  0  0
 14 31  1  0  0  0  0
 15 28  2  0  0  0  0
 15 29  1  0  0  0  0
 16 24  2  0  0  0  0
 16 68  1  0  0  0  0
 17 30  1  0  0  0  0
 18 30  1  0  0  0  0
 18 32  2  0  0  0  0
 18 33  1  0  0  0  0
 19 21  2  0  0  0  0
 19 38  1  0  0  0  0
 20 22  2  0  0  0  0
 20 39  1  0  0  0  0
 21 55  1  0  0  0  0
 22 40  1  0  0  0  0
 23 24  1  0  0  0  0
 23 53  1  0  0  0  0
 24 54  1  0  0  0  0
 25 85  1  0  0  0  0
 26 86  1  0  0  0  0
 27 29  2  0  0  0  0
 27 85  1  0  0  0  0
 28 87  1  0  0  0  0
 29 88  1  0  0  0  0
 30 69  2  0  0  0  0
 31 68  2  0  0  0  0
 31 76  1  0  0  0  0
 32 70  1  0  0  0  0
 32 74  1  0  0  0  0
 33 75  1  0  0  0  0
 33 80  2  0  0  0  0
 34 56  1  0  0  0  0
 34 77  1  0  0  0  0
 34 81  2  0  0  0  0
 35 65  1  0  0  0  0
 35 71  1  0  0  0  0
 35 82  2  0  0  0  0
 36 66  1  0  0  0  0
 36 78  1  0  0  0  0
 36 83  2  0  0  0  0
 37 72  1  0  0  0  0
 37 73  1  0  0  0  0
 37 84  2  0  0  0  0
 38 41  1  0  0  0  0
 39 56  1  0  0  0  0
 40 71  1  0  0  0  0
 41 45  1  0  0  0  0
 42 46  1  0  0  0  0
 42 49  1  0  0  0  0
 43 44  1  0  0  0  0
 43 53  1  0  0  0  0
 44 53  1  0  0  0  0
 45 55  1  0  0  0  0
 46 57  1  0  0  0  0
 47 50  1  0  0  0  0
 47 54  1  0  0  0  0
 48 51  1  0  0  0  0
 48 54  1  0  0  0  0
 49 72  1  0  0  0  0
 50 73  1  0  0  0  0
 51 73  1  0  0  0  0
 52 57  1  0  0  0  0
 52 72  1  0  0  0  0
 55 77  1  0  0  0  0
 56 71  1  0  0  0  0
 57 70  1  0  0  0  0
 58 66  1  0  0  0  0
 59 67  1  0  0  0  0
 60 67  1  0  0  0  0
 61 67  1  0  0  0  0
 62 79  1  0  0  0  0
 63 64  1  0  0  0  0
 63 76  1  0  0  0  0
 64 86  1  0  0  0  0
 65 67  1  0  0  0  0
 65 78  1  0  0  0  0
 66 79  1  0  0  0  0
 69 70  1  0  0  0  0
M  CHG  1  79   1
M  ISO  4  37 100  64 101  73 100  86 101
M  END
> <Batch ID>
0142

> <Smiles>
CNC(C)C(=O)NC(C(=O)N1Cc2cc([101O:1][101CH2:1]CNc3cc(C4CC4)c(C4CC[100N:0]([100C:0](=O)N5CCCC(n6nc(-c7ccc(Oc8ccc(F)cc8F)cc7)c(C(N)=O)c6N)C5)CC4)cn3)ccc2CC1C(=O)NC1CCCc2ccccc21)C(C)(C)C

> <Shape>
0.309

> <Color>
0.093

> <Negative vol penalty>
0.000

$$$$

  -OEChem-04052321183D

 90 99  0     1  0  0  0  0  0999 V2000
  -17.8880  -26.0501   25.6432 C   0  0  0  0  0  0  0  0  0  0  0  0
  -18.5553  -24.9896   25.0387 C   0  0  0  0  0  0  0  0  0  0  0  0
  -27.1109  -19.0356   15.4994 C   0  0  0  0  0  0  0  0  0  0  0  0
  -25.5446  -18.1787   17.1271 C   0  0  0  0  0  0  0  0  0  0  0  0
  -17.9352  -27.3199   25.0693 C   0  0  0  0  0  0  0  0  0  0  0  0
  -19.2693  -25.1981   23.8592 C   0  0  0  0  0  0  0  0  0  0  0  0
  -23.8183  -22.9738   23.9233 C   0  0  0  0  0  0  0  0  0  0  0  0
  -27.2950  -14.2749   21.6933 C   0  0  0  0  0  0  0  0  0  0  0  0
  -26.9220  -15.6200   21.6210 C   0  0  0  0  0  0  0  0  0  0  0  0
  -26.0510  -19.5340   14.7418 C   0  0  0  0  0  0  0  0  0  0  0  0
  -24.4847  -18.6772   16.3696 C   0  0  0  0  0  0  0  0  0  0  0  0
  -23.8581  -21.5988   23.6958 C   0  0  0  0  0  0  0  0  0  0  0  0
  -21.3837  -20.0386   15.0471 C   0  0  0  0  0  0  0  0  0  0  0  0
  -20.3659  -20.7142   15.7202 C   0  0  0  0  0  0  0  0  0  0  0  0
  -24.6601  -15.0180   20.9740 C   0  0  0  0  0  0  0  0  0  0  0  0
  -24.4978  -22.0024   21.4052 C   0  0  0  0  0  0  0  0  0  0  0  0
  -21.9689  -22.3381   16.5142 C   0  0  0  0  0  0  0  0  0  0  0  0
  -25.0130  -13.6554   21.0401 C   0  0  0  0  0  0  0  0  0  0  0  0
  -26.8577  -18.3579   16.6920 C   0  0  0  0  0  0  0  0  0  0  0  0
  -28.6522  -18.5076   18.4989 C   0  0  0  0  0  0  0  0  0  0  0  0
  -18.6582  -27.5461   23.8875 C   0  0  0  0  0  0  0  0  0  0  0  0
  -24.1079  -23.8750   22.8888 C   0  0  0  0  0  0  0  0  0  0  0  0
  -19.3252  -26.4718   23.2683 C   0  0  0  0  0  0  0  0  0  0  0  0
  -24.4635  -23.3882   21.6228 C   0  0  0  0  0  0  0  0  0  0  0  0
  -26.3196  -13.3160   21.3976 C   0  0  0  0  0  0  0  0  0  0  0  0
  -25.6254  -15.9881   21.2671 C   0  0  0  0  0  0  0  0  0  0  0  0
  -24.3119  -12.4377   20.8149 C   0  0  0  0  0  0  0  0  0  0  0  0
  -24.7379  -19.3548   15.1769 C   0  0  0  0  0  0  0  0  0  0  0  0
  -24.1950  -21.1130   22.4359 C   0  0  0  0  0  0  0  0  0  0  0  0
  -22.6942  -20.5126   15.1076 C   0  0  0  0  0  0  0  0  0  0  0  0
  -20.6585  -21.8640   16.4537 C   0  0  0  0  0  0  0  0  0  0  0  0
  -22.9868  -21.6624   15.8411 C   0  0  0  0  0  0  0  0  0  0  0  0
  -27.9521  -17.8423   17.4747 C   0  0  0  0  0  0  0  0  0  0  0  0
  -25.1902  -11.4019   21.0356 C   0  0  0  0  0  0  0  0  0  0  0  0
  -29.5890  -17.5967   18.9221 C   0  0  0  0  0  0  0  0  0  0  0  0
  -28.4718  -19.8306   19.0211 C   0  0  0  0  0  0  0  0  0  0  0  0
  -22.4865  -26.1562   21.3817 C   0  0  0  0  0  0  0  0  0  0  0  0
  -25.3533  -26.7223   19.9733 C   0  0  0  0  0  0  0  0  0  0  0  0
  -22.0301  -13.2961   20.1981 C   0  0  0  0  0  0  0  0  0  0  0  0
  -28.4180  -25.5308   19.0596 C   0  0  0  0  0  0  0  0  0  0  0  0
  -29.8292  -11.6163   18.7513 C   0  0  0  0  0  0  0  0  0  0  0  0
  -18.6412  -28.9260   23.2789 C   0  0  0  0  0  0  0  0  0  0  0  0
  -24.0867  -25.3548   23.1575 C   0  0  0  0  0  0  0  0  0  0  0  0
  -24.8029  -24.3136   20.4839 C   0  0  0  0  0  0  0  0  0  0  0  0
  -19.7297  -29.1429   22.2309 C   0  0  0  0  0  0  0  0  0  0  0  0
  -32.1849  -13.8942   17.3588 C   0  0  0  0  0  0  0  0  0  0  0  0
  -19.7840  -27.9631   21.2655 C   0  0  0  0  0  0  0  0  0  0  0  0
  -31.4304  -15.2243   17.3230 C   0  0  0  0  0  0  0  0  0  0  0  0
  -31.2637  -12.7144   17.0563 C   0  0  0  0  0  0  0  0  0  0  0  0
  -29.3024  -13.9687   17.8651 C   0  0  0  0  0  0  0  0  0  0  0  0
  -20.1309  -26.6634   22.0017 C   0  0  1  0  0  0  0  0  0  0  0  0
  -23.8987  -26.1889   21.8940 C   0  0  1  0  0  0  0  0  0  0  0  0
  -30.1780  -15.1829   18.2192 C   0  0  2  0  0  0  0  0  0  0  0  0
  -24.9854   -9.9399   20.9419 C   0  0  0  0  0  0  0  0  0  0  0  0
  -20.6907  -12.7216   19.8100 C   0  0  0  0  0  0  0  0  0  0  0  0
  -30.5292  -26.2164   17.8892 C   0  0  0  0  0  0  0  0  0  0  0  0
  -23.9387  -26.4738   17.2812 C   0  0  0  0  0  0  0  0  0  0  0  0
  -26.1839  -26.2150   16.2040 C   0  0  0  0  0  0  0  0  0  0  0  0
  -25.6171  -28.3233   17.4110 C   0  0  0  0  0  0  0  0  0  0  0  0
  -30.0509  -25.0628   21.4831 C   0  0  0  0  0  0  0  0  0  0  0  0
  -27.5896  -11.1793   21.7003 C   0  0  0  0  0  0  0  0  0  0  0  0
  -28.3063  -10.6549   20.4587 C   0  0  0  0  0  0  0  0  0  0  0  0
  -23.9697  -17.8068   20.8468 C   0  0  0  0  0  0  0  0  0  0  0  0
  -23.9294  -19.3252   20.8902 C   0  0  0  0  0  0  0  0  0  1  0  0
  -26.0555  -26.2156   18.7367 C   0  0  1  0  0  0  0  0  0  0  0  0
  -29.8129  -26.1059   19.2262 C   0  0  2  0  0  0  0  0  0  0  0  0
  -25.4406  -26.7893   17.4290 C   0  0  0  0  0  0  0  0  0  0  0  0
  -28.4055  -16.6044   17.2601 N   0  0  0  0  0  0  0  0  0  0  0  0
  -26.3985  -11.9416   21.3868 N   0  0  0  0  0  0  0  0  0  0  0  0
  -29.4006  -16.4846   18.1553 N   0  0  0  0  0  0  0  0  0  0  0  0
  -24.7619  -25.7521   20.7948 N   0  0  0  0  0  0  0  0  0  0  0  0
  -30.0966  -12.7324   17.9414 N   0  0  0  0  0  0  0  0  0  0  0  0
  -30.5474  -17.6465   19.8716 N   0  0  0  0  0  0  0  0  0  0  0  0
  -27.4630  -20.6338   18.4721 N   0  0  0  0  0  0  0  0  0  0  0  0
  -22.9934  -12.2930   20.4431 N   0  0  0  0  0  0  0  0  0  0  0  0
  -25.2861  -17.3295   21.2037 N   0  0  0  0  0  0  0  0  0  0  0  0
  -21.5481  -26.6084   22.2896 N   0  0  0  0  0  0  0  0  0  0  0  0
  -27.4705  -26.5222   18.9163 N   0  0  0  0  0  0  0  0  0  0  0  0
  -28.7075  -11.7184   19.5650 N   0  0  0  0  0  0  0  0  0  0  0  0
  -30.6266  -25.2394   20.1251 N   0  3  0  0  0  0  0  0  0  0  0  0
  -29.1949  -20.2929   19.9360 O   0  0  0  0  0  0  0  0  0  0  0  0
  -22.2649  -25.7521   20.2463 O   0  0  0  0  0  0  0  0  0  0  0  0
  -25.3364  -27.9336   20.2057 O   0  0  0  0  0  0  0  0  0  0  0  0
  -22.1959  -14.5095   20.2703 O   0  0  0  0  0  0  0  0  0  0  0  0
  -28.1919  -24.3227   19.0533 O   0  0  0  0  0  0  0  0  0  0  0  0
  -30.5407  -10.6060   18.7533 O   0  0  0  0  0  0  0  0  0  0  0  0
  -23.7035  -19.8412   14.4381 O   0  0  0  0  0  0  0  0  0  0  0  0
  -24.2339  -19.7714   22.2110 O   0  0  0  0  0  0  0  0  0  1  0  0
  -19.6807  -22.5135   17.0988 F   0  0  0  0  0  0  0  0  0  0  0  0
  -24.2436  -22.1234   15.9018 F   0  0  0  0  0  0  0  0  0  0  0  0
  1  2  1  0  0  0  0
  1  5  2  0  0  0  0
  2  6  2  0  0  0  0
  3 10  2  0  0  0  0
  3 19  1  0  0  0  0
  4 11  1  0  0  0  0
  4 19  2  0  0  0  0
  5 21  1  0  0  0  0
  6 23  1  0  0  0  0
  7 12  2  0  0  0  0
  7 22  1  0  0  0  0
  8  9  2  0  0  0  0
  8 25  1  0  0  0  0
  9 26  1  0  0  0  0
 10 28  1  0  0  0  0
 11 28  2  0  0  0  0
 12 29  1  0  0  0  0
 13 14  2  0  0  0  0
 13 30  1  0  0  0  0
 14 31  1  0  0  0  0
 15 18  1  0  0  0  0
 15 26  2  0  0  0  0
 16 24  1  0  0  0  0
 16 29  2  0  0  0  0
 17 31  2  0  0  0  0
 17 32  1  0  0  0  0
 18 25  2  0  0  0  0
 18 27  1  0  0  0  0
 19 33  1  0  0  0  0
 20 33  1  0  0  0  0
 20 35  2  0  0  0  0
 20 36  1  0  0  0  0
 21 23  2  0  0  0  0
 21 42  1  0  0  0  0
 22 24  2  0  0  0  0
 22 43  1  0  0  0  0
 23 51  1  0  0  0  0
 24 44  1  0  0  0  0
 25 69  1  0  0  0  0
 26 76  1  0  0  0  0
 27 34  2  0  0  0  0
 27 75  1  0  0  0  0
 28 87  1  0  0  0  0
 29 88  1  0  0  0  0
 30 32  2  0  0  0  0
 30 87  1  0  0  0  0
 31 89  1  0  0  0  0
 32 90  1  0  0  0  0
 33 68  2  0  0  0  0
 34 54  1  0  0  0  0
 34 69  1  0  0  0  0
 35 70  1  0  0  0  0
 35 73  1  0  0  0  0
 36 74  1  0  0  0  0
 36 81  2  0  0  0  0
 37 52  1  0  0  0  0
 37 77  1  0  0  0  0
 37 82  2  0  0  0  0
 38 65  1  0  0  0  0
 38 71  1  0  0  0  0
 38 83  2  0  0  0  0
 39 55  1  0  0  0  0
 39 75  1  0  0  0  0
 39 84  2  0  0  0  0
 40 66  1  0  0  0  0
 40 78  1  0  0  0  0
 40 85  2  0  0  0  0
 41 72  1  0  0  0  0
 41 79  1  0  0  0  0
 41 86  2  0  0  0  0
 42 45  1  0  0  0  0
 43 52  1  0  0  0  0
 44 71  1  0  0  0  0
 45 47  1  0  0  0  0
 46 48  1  0  0  0  0
 46 49  1  0  0  0  0
 47 51  1  0  0  0  0
 48 53  1  0  0  0  0
 49 72  1  0  0  0  0
 50 53  1  0  0  0  0
 50 72  1  0  0  0  0
 51 77  1  0  0  0  0
 52 71  1  0  0  0  0
 53 70  1  0  0  0  0
 56 66  1  0  0  0  0
 57 67  1  0  0  0  0
 58 67  1  0  0  0  0
 59 67  1  0  0  0  0
 60 80  1  0  0  0  0
 61 62  1  0  0  0  0
 61 69  1  0  0  0  0
 62 79  1  0  0  0  0
 63 64  1  0  0  0  0
 63 76  1  0  0  0  0
 64 88  1  0  0  0  0
 65 67  1  0  0  0  0
 65 78  1  0  0  0  0
 66 80  1  0  0  0  0
 68 70  1  0  0  0  0
M  CHG  1  80   1
M  ISO  4  41 100  64 101  79 100  88 101
M  END
> <Batch ID>
0142

> <Smiles>
CNC(C)C(=O)NC(C(=O)N1Cc2cc([101O:1][101CH2:1]CNc3ccc4c(c3)c(NC(C)=O)c(C)n4CC[100NH:0][100C:0](=O)N3CCCC(n4nc(-c5ccc(Oc6ccc(F)cc6F)cc5)c(C(N)=O)c4N)C3)ccc2CC1C(=O)NC1CCCc2ccccc21)C(C)(C)C

> <Shape>
0.199

> <Color>
0.086

> <Negative vol penalty>
0.000

$$$$

  -OEChem-04052321183D

 88 97  0     1  0  0  0  0  0999 V2000
  -33.3966  -36.5482   28.1691 C   0  0  0  0  0  0  0  0  0  0  0  0
  -33.3084  -35.1953   27.8570 C   0  0  0  0  0  0  0  0  0  0  0  0
  -23.5611   -9.6310   19.8950 C   0  0  0  0  0  0  0  0  0  0  0  0
  -24.0034   -9.8537   22.2598 C   0  0  0  0  0  0  0  0  0  0  0  0
  -32.2547  -37.3472   28.1302 C   0  0  0  0  0  0  0  0  0  0  0  0
  -32.0780  -34.6404   27.5070 C   0  0  0  0  0  0  0  0  0  0  0  0
  -31.0802  -30.1558   23.4575 C   0  0  0  0  0  0  0  0  0  0  0  0
  -22.9797   -8.3834   20.1212 C   0  0  0  0  0  0  0  0  0  0  0  0
  -23.4219   -8.6061   22.4860 C   0  0  0  0  0  0  0  0  0  0  0  0
  -30.8773  -28.7846   23.6074 C   0  0  0  0  0  0  0  0  0  0  0  0
  -20.3067   -7.3199   22.7343 C   0  0  0  0  0  0  0  0  0  0  0  0
  -19.4183   -7.2049   23.8035 C   0  0  0  0  0  0  0  0  0  0  0  0
  -28.2727  -20.0905   22.5295 C   0  0  0  0  0  0  0  0  0  0  0  0
  -28.4919  -29.1355   23.5327 C   0  0  0  0  0  0  0  0  0  0  0  0
  -30.1693  -18.6701   21.0569 C   0  0  0  0  0  0  0  0  0  0  0  0
  -20.8390   -5.5259   24.8034 C   0  0  0  0  0  0  0  0  0  0  0  0
  -24.0730  -10.3661   20.9643 C   0  0  0  0  0  0  0  0  0  0  0  0
  -24.0300  -12.9063   20.7340 C   0  0  0  0  0  0  0  0  0  0  0  0
  -31.0114  -36.8039   27.7702 C   0  0  0  0  0  0  0  0  0  0  0  0
  -29.9884  -31.0298   23.3548 C   0  0  0  0  0  0  0  0  0  0  0  0
  -30.9181  -35.4326   27.4646 C   0  0  0  0  0  0  0  0  0  0  0  0
  -29.1843  -20.7730   21.7240 C   0  0  0  0  0  0  0  0  0  0  0  0
  -28.6836  -30.5170   23.3790 C   0  0  0  0  0  0  0  0  0  0  0  0
  -28.3095  -18.6978   22.5988 C   0  0  0  0  0  0  0  0  0  0  0  0
  -30.1326  -20.0628   20.9877 C   0  0  0  0  0  0  0  0  0  0  0  0
  -29.2577  -17.9876   21.8625 C   0  0  0  0  0  0  0  0  0  0  0  0
  -22.9101   -7.8710   21.4167 C   0  0  0  0  0  0  0  0  0  0  0  0
  -29.5830  -28.2746   23.6479 C   0  0  0  0  0  0  0  0  0  0  0  0
  -21.4612   -6.5379   22.6996 C   0  0  0  0  0  0  0  0  0  0  0  0
  -19.6845   -6.3080   24.8380 C   0  0  0  0  0  0  0  0  0  0  0  0
  -21.7274   -5.6409   23.7341 C   0  0  0  0  0  0  0  0  0  0  0  0
  -24.6742  -11.6546   20.7312 C   0  0  0  0  0  0  0  0  0  0  0  0
  -25.0302  -13.8078   20.4629 C   0  0  0  0  0  0  0  0  0  0  0  0
  -22.6509  -13.2256   20.9614 C   0  0  0  0  0  0  0  0  0  0  0  0
  -28.8943  -33.4647   25.0804 C   0  0  0  0  0  0  0  0  0  0  0  0
  -26.7972  -33.7572   22.6230 C   0  0  0  0  0  0  0  0  0  0  0  0
  -25.1637  -32.2787   20.0167 C   0  0  0  0  0  0  0  0  0  0  0  0
  -30.1960  -15.7328   21.2446 C   0  0  0  0  0  0  0  0  0  0  0  0
  -29.7962  -37.6971   27.7881 C   0  0  0  0  0  0  0  0  0  0  0  0
  -30.2244  -32.5034   23.1667 C   0  0  0  0  0  0  0  0  0  0  0  0
  -27.4778  -31.4107   23.2525 C   0  0  0  0  0  0  0  0  0  0  0  0
  -28.5990  -37.1117   27.0437 C   0  0  0  0  0  0  0  0  0  0  0  0
  -29.7915  -13.0766   18.9083 C   0  0  0  0  0  0  0  0  0  0  0  0
  -28.3890  -35.6522   27.4345 C   0  0  0  0  0  0  0  0  0  0  0  0
  -28.3711  -12.5728   19.1745 C   0  0  0  0  0  0  0  0  0  0  0  0
  -27.7898  -22.8283   21.1672 C   0  0  0  0  0  0  0  0  0  0  0  0
  -30.4943  -13.4992   20.1972 C   0  0  0  0  0  0  0  0  0  0  0  0
  -28.3333  -13.9597   21.2869 C   0  0  0  0  0  0  0  0  0  0  0  0
  -27.8655  -24.3057   21.5045 C   0  0  0  0  0  0  0  0  0  0  0  0
  -29.1255  -22.2816   21.6653 C   0  0  1  0  0  0  0  0  0  0  0  0
  -29.6058  -34.7992   27.0562 C   0  0  1  0  0  0  0  0  0  0  0  0
  -29.0330  -33.3579   23.5881 C   0  0  1  0  0  0  0  0  0  0  0  0
  -27.5623  -13.5835   20.0112 C   0  0  2  0  0  0  0  0  0  0  0  0
  -29.2803  -22.9829   23.0209 C   0  0  1  0  0  0  0  0  0  0  0  0
  -27.3208  -17.9928   23.4697 C   0  0  0  0  0  0  0  0  0  0  0  0
  -31.1187  -20.7720   20.1187 C   0  0  0  0  0  0  0  0  0  0  0  0
  -31.3062  -21.7477   23.8084 C   0  0  0  0  0  0  0  0  0  0  0  0
  -23.4851  -32.7622   18.2150 C   0  0  0  0  0  0  0  0  0  0  0  0
  -24.5546  -33.6602   24.6897 C   0  0  0  0  0  0  0  0  0  0  0  0
  -22.9511  -33.1902   22.8252 C   0  0  0  0  0  0  0  0  0  0  0  0
  -24.2200  -35.3376   22.8652 C   0  0  0  0  0  0  0  0  0  0  0  0
  -27.1056  -31.6429   17.8758 C   0  0  0  0  0  0  0  0  0  0  0  0
  -30.7215  -23.0887   23.4958 C   0  0  0  0  0  0  0  0  0  0  0  0
  -28.0045  -24.9708   23.9351 C   0  0  0  0  0  0  0  0  0  0  0  0
  -28.0297  -26.4827   23.8284 C   0  0  0  0  0  0  0  0  0  1  0  0
  -25.4338  -33.1909   22.3079 C   0  0  1  0  0  0  0  0  0  0  0  0
  -24.9615  -32.7152   18.5769 C   0  0  2  0  0  0  0  0  0  0  0  0
  -24.3124  -33.8278   23.1763 C   0  0  0  0  0  0  0  0  0  0  0  0
  -25.9824  -11.7485   20.4782 N   0  0  0  0  0  0  0  0  0  0  0  0
  -26.1682  -13.0700   20.3195 N   0  0  0  0  0  0  0  0  0  0  0  0
  -27.7604  -32.8449   23.0767 N   0  0  0  0  0  0  0  0  0  0  0  0
  -29.6714  -14.4602   20.9350 N   0  0  0  0  0  0  0  0  0  0  0  0
  -25.0383  -15.1517   20.3356 N   0  0  0  0  0  0  0  0  0  0  0  0
  -21.7576  -12.1786   21.2263 N   0  0  0  0  0  0  0  0  0  0  0  0
  -29.3108  -16.5728   21.9194 N   0  0  0  0  0  0  0  0  0  0  0  0
  -29.6012  -34.5132   25.6375 N   0  0  0  0  0  0  0  0  0  0  0  0
  -25.2444  -33.3580   20.8710 N   0  0  0  0  0  0  0  0  0  0  0  0
  -28.7200  -24.3798   22.7584 N   0  3  2  0  0  0  0  0  0  0  0  0
  -25.6430  -31.7695   17.6484 N   0  3  0  0  0  0  0  0  0  0  0  0
  -22.2203  -14.4028   20.9144 O   0  0  0  0  0  0  0  0  0  0  0  0
  -28.1963  -32.6567   25.6817 O   0  0  0  0  0  0  0  0  0  0  0  0
  -27.0022  -34.9633   22.4653 O   0  0  0  0  0  0  0  0  0  0  0  0
  -25.2385  -31.0983   20.3507 O   0  0  0  0  0  0  0  0  0  0  0  0
  -31.3365  -16.0635   20.9100 O   0  0  0  0  0  0  0  0  0  0  0  0
  -22.3426   -6.6538   21.6378 O   0  0  0  0  0  0  0  0  0  0  0  0
  -29.3822  -26.9367   23.7949 O   0  0  0  0  0  0  0  0  0  1  0  0
  -18.8321   -6.1988   25.8655 F   0  0  0  0  0  0  0  0  0  0  0  0
  -22.8355   -4.8878   23.7069 F   0  0  0  0  0  0  0  0  0  0  0  0
  1  2  1  0  0  0  0
  1  5  2  0  0  0  0
  2  6  2  0  0  0  0
  3  8  2  0  0  0  0
  3 17  1  0  0  0  0
  4  9  1  0  0  0  0
  4 17  2  0  0  0  0
  5 19  1  0  0  0  0
  6 21  1  0  0  0  0
  7 10  2  0  0  0  0
  7 20  1  0  0  0  0
  8 27  1  0  0  0  0
  9 27  2  0  0  0  0
 10 28  1  0  0  0  0
 11 12  2  0  0  0  0
 11 29  1  0  0  0  0
 12 30  1  0  0  0  0
 13 22  1  0  0  0  0
 13 24  2  0  0  0  0
 14 23  1  0  0  0  0
 14 28  2  0  0  0  0
 15 25  1  0  0  0  0
 15 26  2  0  0  0  0
 16 30  2  0  0  0  0
 16 31  1  0  0  0  0
 17 32  1  0  0  0  0
 18 32  1  0  0  0  0
 18 33  2  0  0  0  0
 18 34  1  0  0  0  0
 19 21  2  0  0  0  0
 19 39  1  0  0  0  0
 20 23  2  0  0  0  0
 20 40  1  0  0  0  0
 21 51  1  0  0  0  0
 22 25  2  0  0  0  0
 22 50  1  0  0  0  0
 23 41  1  0  0  0  0
 24 26  1  0  0  0  0
 24 55  1  0  0  0  0
 25 56  1  0  0  0  0
 26 75  1  0  0  0  0
 27 85  1  0  0  0  0
 28 86  1  0  0  0  0
 29 31  2  0  0  0  0
 29 85  1  0  0  0  0
 30 87  1  0  0  0  0
 31 88  1  0  0  0  0
 32 69  2  0  0  0  0
 33 70  1  0  0  0  0
 33 73  1  0  0  0  0
 34 74  1  0  0  0  0
 34 80  2  0  0  0  0
 35 52  1  0  0  0  0
 35 76  1  0  0  0  0
 35 81  2  0  0  0  0
 36 66  1  0  0  0  0
 36 71  1  0  0  0  0
 36 82  2  0  0  0  0
 37 67  1  0  0  0  0
 37 77  1  0  0  0  0
 37 83  2  0  0  0  0
 38 72  1  0  0  0  0
 38 75  1  0  0  0  0
 38 84  2  0  0  0  0
 39 42  1  0  0  0  0
 40 52  1  0  0  0  0
 41 71  1  0  0  0  0
 42 44  1  0  0  0  0
 43 45  1  0  0  0  0
 43 47  1  0  0  0  0
 44 51  1  0  0  0  0
 45 53  1  0  0  0  0
 46 49  1  0  0  0  0
 46 50  1  0  0  0  0
 47 72  1  0  0  0  0
 48 53  1  0  0  0  0
 48 72  1  0  0  0  0
 49 78  1  0  0  0  0
 50 54  1  0  0  0  0
 51 76  1  0  0  0  0
 52 71  1  0  0  0  0
 53 70  1  0  0  0  0
 54 63  1  0  0  0  0
 54 78  1  0  0  0  0
 57 63  1  0  0  0  0
 58 67  1  0  0  0  0
 59 68  1  0  0  0  0
 60 68  1  0  0  0  0
 61 68  1  0  0  0  0
 62 79  1  0  0  0  0
 64 65  1  0  0  0  0
 64 78  1  0  0  0  0
 65 86  1  0  0  0  0
 66 68  1  0  0  0  0
 66 77  1  0  0  0  0
 67 79  1  0  0  0  0
 69 70  1  0  0  0  0
M  CHG  2  78   1  79   1
M  ISO  4  38 100  65 101  75 100  86 101
M  END
> <Batch ID>
0142

> <Smiles>
CCC1C(c2cc(C)c([100NH:0][100C:0](=O)N3CCCC(n4nc(-c5ccc(Oc6ccc(F)cc6F)cc5)c(C(N)=O)c4N)C3)cc2C)CCN1C[101CH2:1][101O:1]c1ccc2c(c1)CN(C(=O)C(NC(=O)C(C)NC)C(C)(C)C)C(C(=O)NC1CCCc3ccccc31)C2

> <Shape>
0.248

> <Color>
0.155

> <Negative vol penalty>
0.000

$$$$

  -OEChem-04052321183D

 83 92  0     1  0  0  0  0  0999 V2000
  -29.4839  -36.8424   20.0048 C   0  0  0  0  0  0  0  0  0  0  0  0
  -29.6861  -35.5041   19.6834 C   0  0  0  0  0  0  0  0  0  0  0  0
  -24.6539   -9.4208   19.9106 C   0  0  0  0  0  0  0  0  0  0  0  0
  -24.5819   -9.7148   22.3075 C   0  0  0  0  0  0  0  0  0  0  0  0
  -28.7038  -37.1827   21.1092 C   0  0  0  0  0  0  0  0  0  0  0  0
  -29.1092  -34.5052   20.4668 C   0  0  0  0  0  0  0  0  0  0  0  0
  -26.9649  -29.0992   18.5473 C   0  0  0  0  0  0  0  0  0  0  0  0
  -30.9245  -20.3667   18.6419 C   0  0  0  0  0  0  0  0  0  0  0  0
  -24.3928   -8.0599   20.0696 C   0  0  0  0  0  0  0  0  0  0  0  0
  -24.3208   -8.3539   22.4666 C   0  0  0  0  0  0  0  0  0  0  0  0
  -27.5168  -27.8189   18.5440 C   0  0  0  0  0  0  0  0  0  0  0  0
  -21.6669   -6.2798   22.1920 C   0  0  0  0  0  0  0  0  0  0  0  0
  -20.6611   -5.9146   23.0868 C   0  0  0  0  0  0  0  0  0  0  0  0
  -30.4887  -21.5512   19.2251 C   0  0  0  0  0  0  0  0  0  0  0  0
  -26.3792  -27.3298   20.6143 C   0  0  0  0  0  0  0  0  0  0  0  0
  -22.2687   -4.6592   24.3816 C   0  0  0  0  0  0  0  0  0  0  0  0
  -28.6991  -19.9740   17.9002 C   0  0  0  0  0  0  0  0  0  0  0  0
  -24.7485  -10.2483   21.0295 C   0  0  0  0  0  0  0  0  0  0  0  0
  -24.0765  -12.6885   20.7109 C   0  0  0  0  0  0  0  0  0  0  0  0
  -30.0189  -19.5573   17.9649 C   0  0  0  0  0  0  0  0  0  0  0  0
  -28.1091  -36.1877   21.9008 C   0  0  0  0  0  0  0  0  0  0  0  0
  -26.1234  -29.5089   19.5915 C   0  0  0  0  0  0  0  0  0  0  0  0
  -28.3215  -34.8324   21.5835 C   0  0  0  0  0  0  0  0  0  0  0  0
  -25.8160  -28.6150   20.6272 C   0  0  0  0  0  0  0  0  0  0  0  0
  -24.2262   -7.5264   21.3476 C   0  0  0  0  0  0  0  0  0  0  0  0
  -27.2263  -26.9350   19.5791 C   0  0  0  0  0  0  0  0  0  0  0  0
  -22.9736   -5.8345   22.3920 C   0  0  0  0  0  0  0  0  0  0  0  0
  -20.9620   -5.1044   24.1816 C   0  0  0  0  0  0  0  0  0  0  0  0
  -23.2745   -5.0243   23.4868 C   0  0  0  0  0  0  0  0  0  0  0  0
  -25.0187  -11.6541   20.8659 C   0  0  0  0  0  0  0  0  0  0  0  0
  -29.1479  -21.8788   19.1038 C   0  0  0  0  0  0  0  0  0  0  0  0
  -24.8339  -13.8284   20.5947 C   0  0  0  0  0  0  0  0  0  0  0  0
  -22.6446  -12.6247   20.6753 C   0  0  0  0  0  0  0  0  0  0  0  0
  -26.2417  -31.7865   21.8057 C   0  0  0  0  0  0  0  0  0  0  0  0
  -23.2368  -30.7584   22.4663 C   0  0  0  0  0  0  0  0  0  0  0  0
  -20.9444  -28.2337   22.3360 C   0  0  0  0  0  0  0  0  0  0  0  0
  -29.0786  -16.4395   18.2459 C   0  0  0  0  0  0  0  0  0  0  0  0
  -27.3129  -36.6033   23.1124 C   0  0  0  0  0  0  0  0  0  0  0  0
  -25.5148  -30.8842   19.5666 C   0  0  0  0  0  0  0  0  0  0  0  0
  -24.9020  -28.9991   21.7610 C   0  0  0  0  0  0  0  0  0  0  0  0
  -26.4289  -35.4914   23.6712 C   0  0  0  0  0  0  0  0  0  0  0  0
  -29.7468  -14.6279   21.3898 C   0  0  0  0  0  0  0  0  0  0  0  0
  -27.2129  -34.1870   23.7745 C   0  0  0  0  0  0  0  0  0  0  0  0
  -28.5112  -13.7375   21.4836 C   0  0  0  0  0  0  0  0  0  0  0  0
  -30.2626  -18.1353   15.8305 C   0  0  0  0  0  0  0  0  0  0  0  0
  -31.6383  -18.3323   16.3792 C   0  0  0  0  0  0  0  0  0  0  0  0
  -30.1784  -14.8591   19.9423 C   0  0  0  0  0  0  0  0  0  0  0  0
  -27.8512  -14.4989   19.1685 C   0  0  0  0  0  0  0  0  0  0  0  0
  -27.6920  -33.7206   22.3944 C   0  0  1  0  0  0  0  0  0  0  0  0
  -25.0815  -31.3710   20.9460 C   0  0  1  0  0  0  0  0  0  0  0  0
  -27.3736  -14.2950   20.6144 C   0  0  1  0  0  0  0  0  0  0  0  0
  -30.4541  -18.2844   17.3313 C   0  0  0  0  0  0  0  0  0  0  0  0
  -18.5861  -27.6784   22.9901 C   0  0  0  0  0  0  0  0  0  0  0  0
  -24.1214  -30.4310   25.3681 C   0  0  0  0  0  0  0  0  0  0  0  0
  -22.0921  -29.0163   25.7541 C   0  0  0  0  0  0  0  0  0  0  0  0
  -21.8358  -31.4037   25.0777 C   0  0  0  0  0  0  0  0  0  0  0  0
  -20.1488  -27.7754   19.5224 C   0  0  0  0  0  0  0  0  0  0  0  0
  -27.0024  -24.6499   20.1991 C   0  0  0  0  0  0  0  0  0  1  0  0
  -27.3106  -23.3313   19.5167 C   0  0  0  0  0  0  0  0  0  0  0  0
  -22.6408  -29.7135   23.3784 C   0  0  1  0  0  0  0  0  0  0  0  0
  -19.4927  -28.2131   21.8924 C   0  0  2  0  0  0  0  0  0  0  0  0
  -22.6913  -30.1342   24.8744 C   0  0  0  0  0  0  0  0  0  0  0  0
  -28.2386  -21.1180   18.4542 N   0  0  0  0  0  0  0  0  0  0  0  0
  -26.2785  -12.0976   20.8499 N   0  0  0  0  0  0  0  0  0  0  0  0
  -26.1332  -13.4232   20.6834 N   0  0  0  0  0  0  0  0  0  0  0  0
  -24.3367  -30.3569   21.6950 N   0  0  0  0  0  0  0  0  0  0  0  0
  -29.0589  -15.3318   19.1127 N   0  0  0  0  0  0  0  0  0  0  0  0
  -24.5086  -15.1277   20.4263 N   0  0  0  0  0  0  0  0  0  0  0  0
  -22.0280  -11.3733   20.8095 N   0  0  0  0  0  0  0  0  0  0  0  0
  -26.6031  -33.1123   21.6605 N   0  0  0  0  0  0  0  0  0  0  0  0
  -21.2961  -29.4525   22.8762 N   0  0  0  0  0  0  0  0  0  0  0  0
  -30.2808  -17.1345   18.1782 N   0  0  0  0  0  0  0  0  0  0  0  0
  -19.3313  -27.3505   20.6879 N   0  3  0  0  0  0  0  0  0  0  0  0
  -21.9335  -13.6451   20.5123 O   0  0  0  0  0  0  0  0  0  0  0  0
  -26.7689  -30.9654   22.5470 O   0  0  0  0  0  0  0  0  0  0  0  0
  -22.7403  -31.8871   22.4340 O   0  0  0  0  0  0  0  0  0  0  0  0
  -21.6905  -27.2641   22.2186 O   0  0  0  0  0  0  0  0  0  0  0  0
  -28.0986  -16.7828   17.5754 O   0  0  0  0  0  0  0  0  0  0  0  0
  -23.9712   -6.1985   21.5032 O   0  0  0  0  0  0  0  0  0  0  0  0
  -27.7641  -25.6849   19.5787 O   0  0  0  0  0  0  0  0  0  1  0  0
  -28.6947  -23.0413   19.6698 O   0  0  0  0  0  0  0  0  0  0  0  0
  -19.9963   -4.7551   25.0416 F   0  0  0  0  0  0  0  0  0  0  0  0
  -24.5282   -4.5945   23.6848 F   0  0  0  0  0  0  0  0  0  0  0  0
  1  2  1  0  0  0  0
  1  5  2  0  0  0  0
  2  6  2  0  0  0  0
  3  9  2  0  0  0  0
  3 18  1  0  0  0  0
  4 10  1  0  0  0  0
  4 18  2  0  0  0  0
  5 21  1  0  0  0  0
  6 23  1  0  0  0  0
  7 11  2  0  0  0  0
  7 22  1  0  0  0  0
  8 14  2  0  0  0  0
  8 20  1  0  0  0  0
  9 25  1  0  0  0  0
 10 25  2  0  0  0  0
 11 26  1  0  0  0  0
 12 13  2  0  0  0  0
 12 27  1  0  0  0  0
 13 28  1  0  0  0  0
 14 31  1  0  0  0  0
 15 24  1  0  0  0  0
 15 26  2  0  0  0  0
 16 28  2  0  0  0  0
 16 29  1  0  0  0  0
 17 20  2  0  0  0  0
 17 63  1  0  0  0  0
 18 30  1  0  0  0  0
 19 30  1  0  0  0  0
 19 32  2  0  0  0  0
 19 33  1  0  0  0  0
 20 52  1  0  0  0  0
 21 23  2  0  0  0  0
 21 38  1  0  0  0  0
 22 24  2  0  0  0  0
 22 39  1  0  0  0  0
 23 49  1  0  0  0  0
 24 40  1  0  0  0  0
 25 79  1  0  0  0  0
 26 80  1  0  0  0  0
 27 29  2  0  0  0  0
 27 79  1  0  0  0  0
 28 82  1  0  0  0  0
 29 83  1  0  0  0  0
 30 64  2  0  0  0  0
 31 63  2  0  0  0  0
 31 81  1  0  0  0  0
 32 65  1  0  0  0  0
 32 68  1  0  0  0  0
 33 69  1  0  0  0  0
 33 74  2  0  0  0  0
 34 50  1  0  0  0  0
 34 70  1  0  0  0  0
 34 75  2  0  0  0  0
 35 60  1  0  0  0  0
 35 66  1  0  0  0  0
 35 76  2  0  0  0  0
 36 61  1  0  0  0  0
 36 71  1  0  0  0  0
 36 77  2  0  0  0  0
 37 67  1  0  0  0  0
 37 72  1  0  0  0  0
 37 78  2  0  0  0  0
 38 41  1  0  0  0  0
 39 50  1  0  0  0  0
 40 66  1  0  0  0  0
 41 43  1  0  0  0  0
 42 44  1  0  0  0  0
 42 47  1  0  0  0  0
 43 49  1  0  0  0  0
 44 51  1  0  0  0  0
 45 46  1  0  0  0  0
 45 52  1  0  0  0  0
 46 52  1  0  0  0  0
 47 67  1  0  0  0  0
 48 51  1  0  0  0  0
 48 67  1  0  0  0  0
 49 70  1  0  0  0  0
 50 66  1  0  0  0  0
 51 65  1  0  0  0  0
 52 72  1  0  0  0  0
 53 61  1  0  0  0  0
 54 62  1  0  0  0  0
 55 62  1  0  0  0  0
 56 62  1  0  0  0  0
 57 73  1  0  0  0  0
 58 59  1  0  0  0  0
 58 80  1  0  0  0  0
 59 81  1  0  0  0  0
 60 62  1  0  0  0  0
 60 71  1  0  0  0  0
 61 73  1  0  0  0  0
 64 65  1  0  0  0  0
M  CHG  1  73   1
M  ISO  4  37 100  58 101  72 100  80 101
M  END
> <Batch ID>
0142

> <Smiles>
CNC(C)C(=O)NC(C(=O)N1Cc2cc([101O:1][101CH2:1]COc3ccc(C4([100NH:0][100C:0](=O)N5CCCC(n6nc(-c7ccc(Oc8ccc(F)cc8F)cc7)c(C(N)=O)c6N)C5)CC4)cn3)ccc2CC1C(=O)NC1CCCc2ccccc21)C(C)(C)C

> <Shape>
0.298

> <Color>
0.133

> <Negative vol penalty>
0.000

$$$$

  -OEChem-04052321183D

 82 91  0     1  0  0  0  0  0999 V2000
  -22.3834   -6.7326   23.7548 C   0  0  0  0  0  0  0  0  0  0  0  0
  -23.6818   -7.1789   23.9793 C   0  0  0  0  0  0  0  0  0  0  0  0
  -23.0689  -30.2086   19.8177 C   0  0  0  0  0  0  0  0  0  0  0  0
  -23.2578  -29.3769   22.0781 C   0  0  0  0  0  0  0  0  0  0  0  0
  -21.6896   -7.1521   22.6205 C   0  0  0  0  0  0  0  0  0  0  0  0
  -24.2876   -8.0442   23.0690 C   0  0  0  0  0  0  0  0  0  0  0  0
  -28.9536  -13.4722   22.7820 C   0  0  0  0  0  0  0  0  0  0  0  0
  -28.5358  -19.6345   21.7578 C   0  0  0  0  0  0  0  0  0  0  0  0
  -21.9147  -30.9075   20.1713 C   0  0  0  0  0  0  0  0  0  0  0  0
  -22.1036  -30.0758   22.4318 C   0  0  0  0  0  0  0  0  0  0  0  0
  -30.1166  -13.8587   22.1174 C   0  0  0  0  0  0  0  0  0  0  0  0
  -29.7329  -18.9264   21.8902 C   0  0  0  0  0  0  0  0  0  0  0  0
  -18.7608  -29.6984   22.0943 C   0  0  0  0  0  0  0  0  0  0  0  0
  -17.8064  -29.0284   22.8596 C   0  0  0  0  0  0  0  0  0  0  0  0
  -30.3153  -19.3787   19.5663 C   0  0  0  0  0  0  0  0  0  0  0  0
  -28.7933  -14.5796   20.2337 C   0  0  0  0  0  0  0  0  0  0  0  0
  -18.0487  -30.6794   24.6069 C   0  0  0  0  0  0  0  0  0  0  0  0
  -23.7404  -29.4432   20.7711 C   0  0  0  0  0  0  0  0  0  0  0  0
  -26.2600  -29.1850   20.4665 C   0  0  0  0  0  0  0  0  0  0  0  0
  -22.2837   -8.0306   21.7008 C   0  0  0  0  0  0  0  0  0  0  0  0
  -27.7004  -13.6266   22.1721 C   0  0  0  0  0  0  0  0  0  0  0  0
  -28.2679  -20.1953   20.5304 C   0  0  0  0  0  0  0  0  0  0  0  0
  -23.6016   -8.4748   21.9207 C   0  0  0  0  0  0  0  0  0  0  0  0
  -29.1303  -20.0691   19.4679 C   0  0  0  0  0  0  0  0  0  0  0  0
  -27.6157  -14.1966   20.8938 C   0  0  0  0  0  0  0  0  0  0  0  0
  -21.4321  -30.8412   21.4783 C   0  0  0  0  0  0  0  0  0  0  0  0
  -30.0368  -14.4099   20.8419 C   0  0  0  0  0  0  0  0  0  0  0  0
  -30.6169  -18.7993   20.8014 C   0  0  0  0  0  0  0  0  0  0  0  0
  -19.3592  -30.8588   22.5852 C   0  0  0  0  0  0  0  0  0  0  0  0
  -17.4503  -29.5189   24.1159 C   0  0  0  0  0  0  0  0  0  0  0  0
  -19.0031  -31.3493   23.8414 C   0  0  0  0  0  0  0  0  0  0  0  0
  -24.9324  -28.7206   20.4063 C   0  0  0  0  0  0  0  0  0  0  0  0
  -27.0139  -28.1291   20.0159 C   0  0  0  0  0  0  0  0  0  0  0  0
  -26.7664  -30.4572   20.8918 C   0  0  0  0  0  0  0  0  0  0  0  0
  -27.0536  -22.3940   20.3671 C   0  0  0  0  0  0  0  0  0  0  0  0
  -25.3857  -11.6442   21.2688 C   0  0  0  0  0  0  0  0  0  0  0  0
  -23.8059  -14.4037   20.6272 C   0  0  0  0  0  0  0  0  0  0  0  0
  -23.9699  -17.7316   19.8889 C   0  0  0  0  0  0  0  0  0  0  0  0
  -21.5115   -8.4190   20.4650 C   0  0  0  0  0  0  0  0  0  0  0  0
  -26.4532  -13.2293   22.9131 C   0  0  0  0  0  0  0  0  0  0  0  0
  -28.2599  -20.8646   18.5408 C   0  0  0  0  0  0  0  0  0  0  0  0
  -26.2930  -14.4025   20.2033 C   0  0  0  0  0  0  0  0  0  0  0  0
  -22.0893   -9.6331   19.7421 C   0  0  0  0  0  0  0  0  0  0  0  0
  -26.1269  -24.1114   17.2915 C   0  0  0  0  0  0  0  0  0  0  0  0
  -23.6018   -9.4982   19.5972 C   0  0  0  0  0  0  0  0  0  0  0  0
  -25.8183  -25.5183   17.8019 C   0  0  0  0  0  0  0  0  0  0  0  0
  -25.7199  -23.0447   18.3046 C   0  0  0  0  0  0  0  0  0  0  0  0
  -26.0171  -24.6456   20.1706 C   0  0  0  0  0  0  0  0  0  0  0  0
  -27.2655  -21.0027   19.7497 C   0  0  1  0  0  0  0  0  0  0  0  0
  -24.2838   -9.4336   20.9691 C   0  0  1  0  0  0  0  0  0  0  0  0
  -25.2701  -12.9578   21.9891 C   0  0  1  0  0  0  0  0  0  0  0  0
  -26.4422  -25.7506   19.1892 C   0  0  2  0  0  0  0  0  0  0  0  0
  -23.1510  -20.0645   19.4593 C   0  0  0  0  0  0  0  0  0  0  0  0
  -23.3266  -13.3283   17.8122 C   0  0  0  0  0  0  0  0  0  0  0  0
  -22.7388  -15.6550   17.0986 C   0  0  0  0  0  0  0  0  0  0  0  0
  -21.3647  -14.4986   18.8299 C   0  0  0  0  0  0  0  0  0  0  0  0
  -24.0774  -18.4233   22.7645 C   0  0  0  0  0  0  0  0  0  0  0  0
  -33.1074  -16.2259   20.2213 C   0  0  0  0  0  0  0  0  0  0  0  0
  -32.2671  -15.2213   20.9940 C   0  0  0  0  0  0  0  0  0  1  0  0
  -32.2977  -17.4438   19.8048 C   0  0  0  0  0  0  0  0  0  0  0  0
  -23.6832  -15.3111   19.4269 C   0  0  1  0  0  0  0  0  0  0  0  0
  -23.2375  -18.9290   20.4672 C   0  0  2  0  0  0  0  0  0  0  0  0
  -22.8036  -14.6927   18.3039 C   0  0  0  0  0  0  0  0  0  0  0  0
  -24.8446  -27.4673   19.9530 N   0  0  0  0  0  0  0  0  0  0  0  0
  -26.1266  -27.1352   19.7242 N   0  0  0  0  0  0  0  0  0  0  0  0
  -26.3056  -23.3180   19.6207 N   0  0  0  0  0  0  0  0  0  0  0  0
  -25.1026  -13.9923   20.9664 N   0  0  0  0  0  0  0  0  0  0  0  0
  -28.3426  -27.9631   19.8445 N   0  0  0  0  0  0  0  0  0  0  0  0
  -25.8538  -31.4287   21.3248 N   0  0  0  0  0  0  0  0  0  0  0  0
  -24.3678  -10.7545   21.5545 N   0  0  0  0  0  0  0  0  0  0  0  0
  -23.1965  -16.5909   19.9307 N   0  0  0  0  0  0  0  0  0  0  0  0
  -23.9421  -19.4305   21.6809 N   0  3  0  0  0  0  0  0  0  0  0  0
  -27.9906  -30.7301   20.8725 O   0  0  0  0  0  0  0  0  0  0  0  0
  -27.5321  -22.6667   21.4785 O   0  0  0  0  0  0  0  0  0  0  0  0
  -26.3278  -11.4527   20.5089 O   0  0  0  0  0  0  0  0  0  0  0  0
  -22.7894  -14.0780   21.2454 O   0  0  0  0  0  0  0  0  0  0  0  0
  -25.1123  -17.8022   19.4412 O   0  0  0  0  0  0  0  0  0  0  0  0
  -20.3060  -31.5232   21.8237 O   0  0  0  0  0  0  0  0  0  0  0  0
  -31.1705  -14.7874   20.1906 O   0  0  0  0  0  0  0  0  0  1  0  0
  -31.7850  -18.0993   20.9568 O   0  0  0  0  0  0  0  0  0  0  0  0
  -16.5326  -28.8763   24.8502 F   0  0  0  0  0  0  0  0  0  0  0  0
  -19.5737  -32.4643   24.3179 F   0  0  0  0  0  0  0  0  0  0  0  0
  1  2  1  0  0  0  0
  1  5  2  0  0  0  0
  2  6  2  0  0  0  0
  3  9  2  0  0  0  0
  3 18  1  0  0  0  0
  4 10  1  0  0  0  0
  4 18  2  0  0  0  0
  5 20  1  0  0  0  0
  6 23  1  0  0  0  0
  7 11  2  0  0  0  0
  7 21  1  0  0  0  0
  8 12  2  0  0  0  0
  8 22  1  0  0  0  0
  9 26  1  0  0  0  0
 10 26  2  0  0  0  0
 11 27  1  0  0  0  0
 12 28  1  0  0  0  0
 13 14  2  0  0  0  0
 13 29  1  0  0  0  0
 14 30  1  0  0  0  0
 15 24  1  0  0  0  0
 15 28  2  0  0  0  0
 16 25  1  0  0  0  0
 16 27  2  0  0  0  0
 17 30  2  0  0  0  0
 17 31  1  0  0  0  0
 18 32  1  0  0  0  0
 19 32  1  0  0  0  0
 19 33  2  0  0  0  0
 19 34  1  0  0  0  0
 20 23  2  0  0  0  0
 20 39  1  0  0  0  0
 21 25  2  0  0  0  0
 21 40  1  0  0  0  0
 22 24  2  0  0  0  0
 22 49  1  0  0  0  0
 23 50  1  0  0  0  0
 24 41  1  0  0  0  0
 25 42  1  0  0  0  0
 26 78  1  0  0  0  0
 27 79  1  0  0  0  0
 28 80  1  0  0  0  0
 29 31  2  0  0  0  0
 29 78  1  0  0  0  0
 30 81  1  0  0  0  0
 31 82  1  0  0  0  0
 32 64  2  0  0  0  0
 33 65  1  0  0  0  0
 33 68  1  0  0  0  0
 34 69  1  0  0  0  0
 34 73  2  0  0  0  0
 35 49  1  0  0  0  0
 35 66  1  0  0  0  0
 35 74  2  0  0  0  0
 36 51  1  0  0  0  0
 36 70  1  0  0  0  0
 36 75  2  0  0  0  0
 37 61  1  0  0  0  0
 37 67  1  0  0  0  0
 37 76  2  0  0  0  0
 38 62  1  0  0  0  0
 38 71  1  0  0  0  0
 38 77  2  0  0  0  0
 39 43  1  0  0  0  0
 40 51  1  0  0  0  0
 41 49  1  0  0  0  0
 42 67  1  0  0  0  0
 43 45  1  0  0  0  0
 44 46  1  0  0  0  0
 44 47  1  0  0  0  0
 45 50  1  0  0  0  0
 46 52  1  0  0  0  0
 47 66  1  0  0  0  0
 48 52  1  0  0  0  0
 48 66  1  0  0  0  0
 50 70  1  0  0  0  0
 51 67  1  0  0  0  0
 52 65  1  0  0  0  0
 53 62  1  0  0  0  0
 54 63  1  0  0  0  0
 55 63  1  0  0  0  0
 56 63  1  0  0  0  0
 57 72  1  0  0  0  0
 58 59  1  0  0  0  0
 58 60  1  0  0  0  0
 59 79  1  0  0  0  0
 60 80  1  0  0  0  0
 61 63  1  0  0  0  0
 61 71  1  0  0  0  0
 62 72  1  0  0  0  0
 64 65  1  0  0  0  0
M  CHG  1  72   1
M  ISO  4  35 100  49 100  59 101  79 101
M  END
> <Batch ID>
0142

> <Smiles>
CNC(C)C(=O)NC(C(=O)N1Cc2cc([101O:1][101CH2:1]CCOc3ccc4c(c3)C[100CH:0]4[100C:0](=O)N3CCCC(n4nc(-c5ccc(Oc6ccc(F)cc6F)cc5)c(C(N)=O)c4N)C3)ccc2CC1C(=O)NC1CCCc2ccccc21)C(C)(C)C

> <Shape>
0.285

> <Color>
0.084

> <Negative vol penalty>
0.000

$$$$

  -OEChem-04052321183D

 88 98  0     1  0  0  0  0  0999 V2000
  -25.9603  -35.0896   22.5905 C   0  0  0  0  0  0  0  0  0  0  0  0
  -26.5338  -33.8284   22.4650 C   0  0  0  0  0  0  0  0  0  0  0  0
  -31.1764  -21.3876   16.8676 C   0  0  0  0  0  0  0  0  0  0  0  0
  -22.6423  -13.0904   21.2905 C   0  0  0  0  0  0  0  0  0  0  0  0
  -22.7815  -11.0849   19.9504 C   0  0  0  0  0  0  0  0  0  0  0  0
  -24.6588  -35.2173   23.0742 C   0  0  0  0  0  0  0  0  0  0  0  0
  -25.8066  -32.6941   22.8240 C   0  0  0  0  0  0  0  0  0  0  0  0
  -30.7953  -20.2976   17.6501 C   0  0  0  0  0  0  0  0  0  0  0  0
  -26.2083  -28.9697   19.4163 C   0  0  0  0  0  0  0  0  0  0  0  0
  -30.6516  -22.6528   17.1314 C   0  0  0  0  0  0  0  0  0  0  0  0
  -21.3116  -13.2549   20.9061 C   0  0  0  0  0  0  0  0  0  0  0  0
  -21.4508  -11.2494   19.5661 C   0  0  0  0  0  0  0  0  0  0  0  0
  -27.3803  -28.2149   19.4333 C   0  0  0  0  0  0  0  0  0  0  0  0
  -18.3014  -11.9547   21.7315 C   0  0  0  0  0  0  0  0  0  0  0  0
  -17.3755  -12.2780   22.7233 C   0  0  0  0  0  0  0  0  0  0  0  0
  -26.2354  -26.4758   20.6515 C   0  0  0  0  0  0  0  0  0  0  0  0
  -16.8427  -14.3264   21.5581 C   0  0  0  0  0  0  0  0  0  0  0  0
  -23.3773  -12.0054   20.8126 C   0  0  0  0  0  0  0  0  0  0  0  0
  -25.2336  -11.1234   22.3239 C   0  0  0  0  0  0  0  0  0  0  0  0
  -23.9118  -34.0833   23.4302 C   0  0  0  0  0  0  0  0  0  0  0  0
  -25.0420  -28.4872   20.0273 C   0  0  0  0  0  0  0  0  0  0  0  0
  -29.8894  -20.4727   18.6961 C   0  0  0  0  0  0  0  0  0  0  0  0
  -24.4944  -32.8068   23.3141 C   0  0  0  0  0  0  0  0  0  0  0  0
  -25.0492  -27.2253   20.6386 C   0  0  0  0  0  0  0  0  0  0  0  0
  -29.3646  -21.7379   18.9598 C   0  0  0  0  0  0  0  0  0  0  0  0
  -20.7158  -12.3344   20.0439 C   0  0  0  0  0  0  0  0  0  0  0  0
  -27.3948  -26.9689   20.0535 C   0  0  0  0  0  0  0  0  0  0  0  0
  -29.7457  -22.8279   18.1774 C   0  0  0  0  0  0  0  0  0  0  0  0
  -18.4981  -12.8173   20.6531 C   0  0  0  0  0  0  0  0  0  0  0  0
  -16.6461  -13.4638   22.6366 C   0  0  0  0  0  0  0  0  0  0  0  0
  -17.7687  -14.0031   20.5664 C   0  0  0  0  0  0  0  0  0  0  0  0
  -24.7521  -11.8353   21.2089 C   0  0  0  0  0  0  0  0  0  0  0  0
  -26.5984  -11.2621   22.2566 C   0  0  0  0  0  0  0  0  0  0  0  0
  -24.5116  -10.4013   23.3304 C   0  0  0  0  0  0  0  0  0  0  0  0
  -23.1973  -29.4632   22.4249 C   0  0  0  0  0  0  0  0  0  0  0  0
  -21.3247  -26.9903   21.4760 C   0  0  0  0  0  0  0  0  0  0  0  0
  -21.0874  -23.9792   19.8872 C   0  0  0  0  0  0  0  0  0  0  0  0
  -30.2243  -15.2546   19.9420 C   0  0  0  0  0  0  0  0  0  0  0  0
  -22.5256  -34.2745   23.9927 C   0  0  0  0  0  0  0  0  0  0  0  0
  -23.7787  -29.3021   19.9770 C   0  0  0  0  0  0  0  0  0  0  0  0
  -23.8182  -26.6533   21.2912 C   0  0  0  0  0  0  0  0  0  0  0  0
  -21.6889  -32.9977   23.9978 C   0  0  0  0  0  0  0  0  0  0  0  0
  -30.1577  -11.8944   19.1340 C   0  0  0  0  0  0  0  0  0  0  0  0
  -27.1414  -21.0955   20.1082 C   0  0  0  0  0  0  0  0  0  0  0  0
  -27.0556  -22.5543   19.7848 C   0  0  0  0  0  0  0  0  0  0  0  0
  -22.5016  -31.8291   24.5463 C   0  0  0  0  0  0  0  0  0  0  0  0
  -28.8131  -11.4158   19.6811 C   0  0  0  0  0  0  0  0  0  0  0  0
  -28.7750  -18.1968   18.6926 C   0  0  0  0  0  0  0  0  0  0  0  0
  -30.6949  -18.6621   20.2760 C   0  0  0  0  0  0  0  0  0  0  0  0
  -30.0243  -13.2654   18.4812 C   0  0  0  0  0  0  0  0  0  0  0  0
  -28.4062  -16.9720   19.5347 C   0  0  0  0  0  0  0  0  0  0  0  0
  -30.2666  -17.4462   21.0925 C   0  0  0  0  0  0  0  0  0  0  0  0
  -28.1145  -13.8478   19.9412 C   0  0  0  0  0  0  0  0  0  0  0  0
  -29.4925  -19.2699   19.5311 C   0  0  0  0  0  0  0  0  0  0  0  0
  -28.3926  -21.9304   20.0793 C   0  0  0  0  0  0  0  0  0  0  0  0
  -23.7287  -31.5509   23.6698 C   0  0  1  0  0  0  0  0  0  0  0  0
  -22.7880  -28.9371   21.0783 C   0  0  1  0  0  0  0  0  0  0  0  0
  -28.1930  -12.4654   20.6203 C   0  0  1  0  0  0  0  0  0  0  0  0
  -19.4336  -22.1835   19.3061 C   0  0  0  0  0  0  0  0  0  0  0  0
  -21.4037  -25.9885   24.3570 C   0  0  0  0  0  0  0  0  0  0  0  0
  -20.5772  -23.7725   23.5356 C   0  0  0  0  0  0  0  0  0  0  0  0
  -19.1674  -25.8108   23.2517 C   0  0  0  0  0  0  0  0  0  0  0  0
  -21.5124  -24.3658   16.9840 C   0  0  0  0  0  0  0  0  0  0  0  0
  -29.4359  -26.3955   18.9760 C   0  0  0  0  0  0  0  0  0  1  0  0
  -30.1828  -25.0973   18.7385 C   0  0  0  0  0  0  0  0  0  0  0  0
  -21.2334  -25.5239   21.8230 C   0  0  1  0  0  0  0  0  0  0  0  0
  -20.1112  -23.4645   18.8449 C   0  0  2  0  0  0  0  0  0  0  0  0
  -20.6193  -25.2853   23.2313 C   0  0  0  0  0  0  0  0  0  0  0  0
  -25.7315  -12.3855   20.4863 N   0  0  0  0  0  0  0  0  0  0  0  0
  -26.8419  -12.0194   21.1487 N   0  0  0  0  0  0  0  0  0  0  0  0
  -22.6094  -27.4907   21.2212 N   0  0  0  0  0  0  0  0  0  0  0  0
  -29.4286  -14.2324   19.4031 N   0  0  0  0  0  0  0  0  0  0  0  0
  -29.5826  -16.4628   20.2533 N   0  0  0  0  0  0  0  0  0  0  0  0
  -27.6019  -10.8090   23.0377 N   0  0  0  0  0  0  0  0  0  0  0  0
  -23.1131  -10.3595   23.2490 N   0  0  0  0  0  0  0  0  0  0  0  0
  -23.3426  -30.8366   22.4719 N   0  0  0  0  0  0  0  0  0  0  0  0
  -20.4956  -24.8920   20.7345 N   0  0  0  0  0  0  0  0  0  0  0  0
  -20.8202  -23.1862   17.5639 N   0  3  0  0  0  0  0  0  0  0  0  0
  -25.0887   -9.8244   24.2831 O   0  0  0  0  0  0  0  0  0  0  0  0
  -23.3671  -28.6812   23.3529 O   0  0  0  0  0  0  0  0  0  0  0  0
  -20.2934  -27.6651   21.4256 O   0  0  0  0  0  0  0  0  0  0  0  0
  -22.2569  -23.6059   19.9464 O   0  0  0  0  0  0  0  0  0  0  0  0
  -31.4365  -15.0976   20.1346 O   0  0  0  0  0  0  0  0  0  0  0  0
  -19.4173  -12.4945   19.6688 O   0  0  0  0  0  0  0  0  0  0  0  0
  -28.5454  -26.2253   20.0722 O   0  0  0  0  0  0  0  0  0  1  0  0
  -29.2447  -24.0721   18.4183 O   0  0  0  0  0  0  0  0  0  0  0  0
  -15.7557  -13.7734   23.5882 F   0  0  0  0  0  0  0  0  0  0  0  0
  -17.9525  -14.8351   19.5321 F   0  0  0  0  0  0  0  0  0  0  0  0
  1  2  1  0  0  0  0
  1  6  2  0  0  0  0
  2  7  2  0  0  0  0
  3  8  1  0  0  0  0
  3 10  2  0  0  0  0
  4 11  2  0  0  0  0
  4 18  1  0  0  0  0
  5 12  1  0  0  0  0
  5 18  2  0  0  0  0
  6 20  1  0  0  0  0
  7 23  1  0  0  0  0
  8 22  2  0  0  0  0
  9 13  2  0  0  0  0
  9 21  1  0  0  0  0
 10 28  1  0  0  0  0
 11 26  1  0  0  0  0
 12 26  2  0  0  0  0
 13 27  1  0  0  0  0
 14 15  2  0  0  0  0
 14 29  1  0  0  0  0
 15 30  1  0  0  0  0
 16 24  1  0  0  0  0
 16 27  2  0  0  0  0
 17 30  2  0  0  0  0
 17 31  1  0  0  0  0
 18 32  1  0  0  0  0
 19 32  1  0  0  0  0
 19 33  2  0  0  0  0
 19 34  1  0  0  0  0
 20 23  2  0  0  0  0
 20 39  1  0  0  0  0
 21 24  2  0  0  0  0
 21 40  1  0  0  0  0
 22 25  1  0  0  0  0
 22 54  1  0  0  0  0
 23 56  1  0  0  0  0
 24 41  1  0  0  0  0
 25 28  2  0  0  0  0
 25 55  1  0  0  0  0
 26 84  1  0  0  0  0
 27 85  1  0  0  0  0
 28 86  1  0  0  0  0
 29 31  2  0  0  0  0
 29 84  1  0  0  0  0
 30 87  1  0  0  0  0
 31 88  1  0  0  0  0
 32 69  2  0  0  0  0
 33 70  1  0  0  0  0
 33 74  1  0  0  0  0
 34 75  1  0  0  0  0
 34 79  2  0  0  0  0
 35 57  1  0  0  0  0
 35 76  1  0  0  0  0
 35 80  2  0  0  0  0
 36 66  1  0  0  0  0
 36 71  1  0  0  0  0
 36 81  2  0  0  0  0
 37 67  1  0  0  0  0
 37 77  1  0  0  0  0
 37 82  2  0  0  0  0
 38 72  1  0  0  0  0
 38 73  1  0  0  0  0
 38 83  2  0  0  0  0
 39 42  1  0  0  0  0
 40 57  1  0  0  0  0
 41 71  1  0  0  0  0
 42 46  1  0  0  0  0
 43 47  1  0  0  0  0
 43 50  1  0  0  0  0
 44 45  1  0  0  0  0
 44 55  1  0  0  0  0
 45 55  1  0  0  0  0
 46 56  1  0  0  0  0
 47 58  1  0  0  0  0
 48 51  1  0  0  0  0
 48 54  1  0  0  0  0
 49 52  1  0  0  0  0
 49 54  1  0  0  0  0
 50 72  1  0  0  0  0
 51 73  1  0  0  0  0
 52 73  1  0  0  0  0
 53 58  1  0  0  0  0
 53 72  1  0  0  0  0
 56 76  1  0  0  0  0
 57 71  1  0  0  0  0
 58 70  1  0  0  0  0
 59 67  1  0  0  0  0
 60 68  1  0  0  0  0
 61 68  1  0  0  0  0
 62 68  1  0  0  0  0
 63 78  1  0  0  0  0
 64 65  1  0  0  0  0
 64 85  1  0  0  0  0
 65 86  1  0  0  0  0
 66 68  1  0  0  0  0
 66 77  1  0  0  0  0
 67 78  1  0  0  0  0
 69 70  1  0  0  0  0
M  CHG  1  78   1
M  ISO  4  38 100  64 101  73 100  85 101
M  END
> <Batch ID>
0142

> <Smiles>
CNC(C)C(=O)NC(C(=O)N1Cc2cc([101O:1][101CH2:1]COc3cccc(C4CC[100N:0]([100C:0](=O)N5CCCC(n6nc(-c7ccc(Oc8ccc(F)cc8F)cc7)c(C(N)=O)c6N)C5)CC4)c3C3CC3)ccc2CC1C(=O)NC1CCCc2ccccc21)C(C)(C)C

> <Shape>
0.291

> <Color>
0.104

> <Negative vol penalty>
0.000

$$$$

  -OEChem-04052321183D

 91101  0     1  0  0  0  0  0999 V2000
  -32.2639  -13.9710   21.0859 C   0  0  0  0  0  0  0  0  0  0  0  0
  -31.5334  -15.1408   21.2680 C   0  0  0  0  0  0  0  0  0  0  0  0
  -24.4081  -30.7164   24.8740 C   0  0  0  0  0  0  0  0  0  0  0  0
  -26.4941  -31.0668   26.0415 C   0  0  0  0  0  0  0  0  0  0  0  0
  -31.6558  -12.8519   20.5187 C   0  0  0  0  0  0  0  0  0  0  0  0
  -30.1945  -15.1926   20.8819 C   0  0  0  0  0  0  0  0  0  0  0  0
  -23.9648  -18.2095   22.7272 C   0  0  0  0  0  0  0  0  0  0  0  0
  -23.7434  -30.6046   26.0952 C   0  0  0  0  0  0  0  0  0  0  0  0
  -25.8294  -30.9550   27.2627 C   0  0  0  0  0  0  0  0  0  0  0  0
  -22.9247  -18.9566   22.1758 C   0  0  0  0  0  0  0  0  0  0  0  0
  -22.5717  -32.6811   28.4927 C   0  0  0  0  0  0  0  0  0  0  0  0
  -21.3651  -33.3654   28.6390 C   0  0  0  0  0  0  0  0  0  0  0  0
  -25.7210  -21.6060   17.9942 C   0  0  0  0  0  0  0  0  0  0  0  0
  -23.3267  -21.9214   18.0614 C   0  0  0  0  0  0  0  0  0  0  0  0
  -24.2448  -19.7197   17.6782 C   0  0  0  0  0  0  0  0  0  0  0  0
  -21.9573  -16.9368   21.2793 C   0  0  0  0  0  0  0  0  0  0  0  0
  -20.2288  -31.2737   29.0522 C   0  0  0  0  0  0  0  0  0  0  0  0
  -25.7835  -30.9474   24.8472 C   0  0  0  0  0  0  0  0  0  0  0  0
  -26.6905  -32.2369   22.8416 C   0  0  0  0  0  0  0  0  0  0  0  0
  -30.3061  -12.8869   20.1343 C   0  0  0  0  0  0  0  0  0  0  0  0
  -24.0148  -16.8195   22.5492 C   0  0  0  0  0  0  0  0  0  0  0  0
  -29.5681  -14.0733   20.3078 C   0  0  0  0  0  0  0  0  0  0  0  0
  -24.6169  -22.4450   18.1443 C   0  0  0  0  0  0  0  0  0  0  0  0
  -25.5350  -20.2434   17.7611 C   0  0  0  0  0  0  0  0  0  0  0  0
  -22.9976  -16.1741   21.8316 C   0  0  0  0  0  0  0  0  0  0  0  0
  -24.4540  -30.7239   27.2895 C   0  0  0  0  0  0  0  0  0  0  0  0
  -21.9223  -18.3206   21.4493 C   0  0  0  0  0  0  0  0  0  0  0  0
  -22.6068  -31.2930   28.6261 C   0  0  0  0  0  0  0  0  0  0  0  0
  -23.1407  -20.5587   17.8284 C   0  0  0  0  0  0  0  0  0  0  0  0
  -20.1937  -32.6618   28.9188 C   0  0  0  0  0  0  0  0  0  0  0  0
  -21.4354  -30.5894   28.9058 C   0  0  0  0  0  0  0  0  0  0  0  0
  -26.4709  -31.0625   23.5860 C   0  0  0  0  0  0  0  0  0  0  0  0
  -27.3829  -31.8161   21.7326 C   0  0  0  0  0  0  0  0  0  0  0  0
  -26.3033  -33.5876   23.1271 C   0  0  0  0  0  0  0  0  0  0  0  0
  -26.0500  -14.8069   21.1668 C   0  0  0  0  0  0  0  0  0  0  0  0
  -24.0898  -12.5602   22.4445 C   0  0  0  0  0  0  0  0  0  0  0  0
  -20.9914  -11.7517   23.6246 C   0  0  0  0  0  0  0  0  0  0  0  0
  -27.7688  -26.7503   18.7941 C   0  0  0  0  0  0  0  0  0  0  0  0
  -29.7052  -11.6670   19.4820 C   0  0  0  0  0  0  0  0  0  0  0  0
  -25.1291  -16.0247   23.1730 C   0  0  0  0  0  0  0  0  0  0  0  0
  -22.9944  -14.6816   21.6290 C   0  0  0  0  0  0  0  0  0  0  0  0
  -28.1793  -11.6857   19.4444 C   0  0  0  0  0  0  0  0  0  0  0  0
  -30.4115  -28.4279   20.2605 C   0  0  0  0  0  0  0  0  0  0  0  0
  -27.6736  -13.0436   18.9675 C   0  0  0  0  0  0  0  0  0  0  0  0
  -29.7332  -29.4150   21.2101 C   0  0  0  0  0  0  0  0  0  0  0  0
  -26.8711  -18.1980   18.5819 C   0  0  0  0  0  0  0  0  0  0  0  0
  -27.7839  -19.3803   18.6771 C   0  0  0  0  0  0  0  0  0  0  0  0
  -25.5557  -24.1900   19.7240 C   0  0  0  0  0  0  0  0  0  0  0  0
  -25.5437  -24.6189   17.2289 C   0  0  0  0  0  0  0  0  0  0  0  0
  -29.7137  -27.0731   20.2921 C   0  0  0  0  0  0  0  0  0  0  0  0
  -25.7855  -25.6859   19.9578 C   0  0  0  0  0  0  0  0  0  0  0  0
  -25.7467  -26.1028   17.5211 C   0  0  0  0  0  0  0  0  0  0  0  0
  -27.5624  -28.1216   20.9172 C   0  0  0  0  0  0  0  0  0  0  0  0
  -24.8195  -23.9270   18.3979 C   0  0  0  0  0  0  0  0  0  0  0  0
  -28.1067  -14.1607   19.9245 C   0  0  1  0  0  0  0  0  0  0  0  0
  -25.3557  -14.6779   22.4931 C   0  0  1  0  0  0  0  0  0  0  0  0
  -28.2251  -29.5143   20.9198 C   0  0  1  0  0  0  0  0  0  0  0  0
  -26.7138  -19.3458   17.6009 C   0  0  0  0  0  0  0  0  0  0  0  0
  -27.5438  -20.3962   15.4899 C   0  0  0  0  0  0  0  0  0  0  0  0
  -19.6815   -9.8287   24.5647 C   0  0  0  0  0  0  0  0  0  0  0  0
  -23.8476  -11.3617   19.6490 C   0  0  0  0  0  0  0  0  0  0  0  0
  -21.8458  -10.0860   20.4451 C   0  0  0  0  0  0  0  0  0  0  0  0
  -24.0756   -9.6822   21.4880 C   0  0  0  0  0  0  0  0  0  0  0  0
  -20.5107  -13.1748   26.1747 C   0  0  0  0  0  0  0  0  0  0  0  0
  -27.1534  -19.1205   16.1809 C   0  0  0  0  0  0  0  0  0  0  0  0
  -19.7775  -19.7040   18.8765 C   0  0  0  0  0  0  0  0  0  0  0  0
  -20.3179  -18.5521   19.7091 C   0  0  0  0  0  0  0  0  0  1  0  0
  -20.8663  -20.6999   18.5088 C   0  0  0  0  0  0  0  0  0  0  0  0
  -22.8483  -11.8367   21.9818 C   0  0  1  0  0  0  0  0  0  0  0  0
  -20.5501  -11.0345   24.8877 C   0  0  2  0  0  0  0  0  0  0  0  0
  -23.1552  -10.7700   20.8930 C   0  0  0  0  0  0  0  0  0  0  0  0
  -26.9821  -29.9769   22.9993 N   0  0  0  0  0  0  0  0  0  0  0  0
  -27.5298  -30.4676   21.8745 N   0  0  0  0  0  0  0  0  0  0  0  0
  -24.1085  -13.9491   22.2530 N   0  0  0  0  0  0  0  0  0  0  0  0
  -28.2838  -27.2100   20.0155 N   0  0  0  0  0  0  0  0  0  0  0  0
  -26.4405  -26.2986   18.7938 N   0  0  0  0  0  0  0  0  0  0  0  0
  -27.8741  -32.4716   20.6596 N   0  0  0  0  0  0  0  0  0  0  0  0
  -25.5971  -33.8443   24.3102 N   0  0  0  0  0  0  0  0  0  0  0  0
  -27.2723  -14.1651   21.1070 N   0  0  0  0  0  0  0  0  0  0  0  0
  -22.2170  -11.3003   23.1826 N   0  0  0  0  0  0  0  0  0  0  0  0
  -19.7692  -11.9559   25.7607 N   0  3  0  0  0  0  0  0  0  0  0  0
  -26.5612  -34.5362   22.3479 O   0  0  0  0  0  0  0  0  0  0  0  0
  -25.5157  -15.4404   20.2641 O   0  0  0  0  0  0  0  0  0  0  0  0
  -25.0061  -11.9178   22.9635 O   0  0  0  0  0  0  0  0  0  0  0  0
  -20.3146  -12.6224   23.0821 O   0  0  0  0  0  0  0  0  0  0  0  0
  -28.4544  -26.7442   17.7640 O   0  0  0  0  0  0  0  0  0  0  0  0
  -23.8057  -30.6151   28.4813 O   0  0  0  0  0  0  0  0  0  0  0  0
  -20.8990  -19.0527   20.9056 O   0  0  0  0  0  0  0  0  0  1  0  0
  -21.8816  -20.0482   17.7471 O   0  0  0  0  0  0  0  0  0  0  0  0
  -19.0354  -33.3193   29.0608 F   0  0  0  0  0  0  0  0  0  0  0  0
  -21.4632  -29.2559   29.0363 F   0  0  0  0  0  0  0  0  0  0  0  0
  1  2  1  0  0  0  0
  1  5  2  0  0  0  0
  2  6  2  0  0  0  0
  3  8  2  0  0  0  0
  3 18  1  0  0  0  0
  4  9  1  0  0  0  0
  4 18  2  0  0  0  0
  5 20  1  0  0  0  0
  6 22  1  0  0  0  0
  7 10  2  0  0  0  0
  7 21  1  0  0  0  0
  8 26  1  0  0  0  0
  9 26  2  0  0  0  0
 10 27  1  0  0  0  0
 11 12  2  0  0  0  0
 11 28  1  0  0  0  0
 12 30  1  0  0  0  0
 13 23  1  0  0  0  0
 13 24  2  0  0  0  0
 14 23  2  0  0  0  0
 14 29  1  0  0  0  0
 15 24  1  0  0  0  0
 15 29  2  0  0  0  0
 16 25  1  0  0  0  0
 16 27  2  0  0  0  0
 17 30  2  0  0  0  0
 17 31  1  0  0  0  0
 18 32  1  0  0  0  0
 19 32  1  0  0  0  0
 19 33  2  0  0  0  0
 19 34  1  0  0  0  0
 20 22  2  0  0  0  0
 20 39  1  0  0  0  0
 21 25  2  0  0  0  0
 21 40  1  0  0  0  0
 22 55  1  0  0  0  0
 23 54  1  0  0  0  0
 24 58  1  0  0  0  0
 25 41  1  0  0  0  0
 26 87  1  0  0  0  0
 27 88  1  0  0  0  0
 28 31  2  0  0  0  0
 28 87  1  0  0  0  0
 29 89  1  0  0  0  0
 30 90  1  0  0  0  0
 31 91  1  0  0  0  0
 32 72  2  0  0  0  0
 33 73  1  0  0  0  0
 33 77  1  0  0  0  0
 34 78  1  0  0  0  0
 34 82  2  0  0  0  0
 35 56  1  0  0  0  0
 35 79  1  0  0  0  0
 35 83  2  0  0  0  0
 36 69  1  0  0  0  0
 36 74  1  0  0  0  0
 36 84  2  0  0  0  0
 37 70  1  0  0  0  0
 37 80  1  0  0  0  0
 37 85  2  0  0  0  0
 38 75  1  0  0  0  0
 38 76  1  0  0  0  0
 38 86  2  0  0  0  0
 39 42  1  0  0  0  0
 40 56  1  0  0  0  0
 41 74  1  0  0  0  0
 42 44  1  0  0  0  0
 43 45  1  0  0  0  0
 43 50  1  0  0  0  0
 44 55  1  0  0  0  0
 45 57  1  0  0  0  0
 46 47  1  0  0  0  0
 46 58  1  0  0  0  0
 47 58  1  0  0  0  0
 48 51  1  0  0  0  0
 48 54  1  0  0  0  0
 49 52  1  0  0  0  0
 49 54  1  0  0  0  0
 50 75  1  0  0  0  0
 51 76  1  0  0  0  0
 52 76  1  0  0  0  0
 53 57  1  0  0  0  0
 53 75  1  0  0  0  0
 55 79  1  0  0  0  0
 56 74  1  0  0  0  0
 57 73  1  0  0  0  0
 58 65  1  0  0  0  0
 59 65  1  0  0  0  0
 60 70  1  0  0  0  0
 61 71  1  0  0  0  0
 62 71  1  0  0  0  0
 63 71  1  0  0  0  0
 64 81  1  0  0  0  0
 66 67  1  0  0  0  0
 66 68  1  0  0  0  0
 67 88  1  0  0  0  0
 68 89  1  0  0  0  0
 69 71  1  0  0  0  0
 69 80  1  0  0  0  0
 70 81  1  0  0  0  0
 72 73  1  0  0  0  0
M  CHG  1  81   1
M  ISO  4  38 100  67 101  76 100  88 101
M  END
> <Batch ID>
0142

> <Smiles>
CCC1(c2cc(OCC[101CH2:1][101O:1]c3ccc4c(c3)CN(C(=O)C(NC(=O)C(C)NC)C(C)(C)C)C(C(=O)NC3CCCc5ccccc53)C4)cc(C3CC[100N:0]([100C:0](=O)N4CCCC(n5nc(-c6ccc(Oc7ccc(F)cc7F)cc6)c(C(N)=O)c5N)C4)CC3)c2)CC1

> <Shape>
0.214

> <Color>
0.072

> <Negative vol penalty>
0.000

$$$$

  -OEChem-04052321183D

 83 92  0     1  0  0  0  0  0999 V2000
  -23.3479  -10.6690   19.1456 C   0  0  0  0  0  0  0  0  0  0  0  0
  -22.6626  -11.8695   18.9894 C   0  0  0  0  0  0  0  0  0  0  0  0
  -30.6979  -27.6256   21.3305 C   0  0  0  0  0  0  0  0  0  0  0  0
  -29.3945  -25.5957   21.4626 C   0  0  0  0  0  0  0  0  0  0  0  0
  -24.5146  -10.6277   19.9079 C   0  0  0  0  0  0  0  0  0  0  0  0
  -23.1430  -13.0294   19.5964 C   0  0  0  0  0  0  0  0  0  0  0  0
  -22.8185  -18.7379   17.4026 C   0  0  0  0  0  0  0  0  0  0  0  0
  -31.7228  -27.0146   22.0528 C   0  0  0  0  0  0  0  0  0  0  0  0
  -30.4195  -24.9846   22.1849 C   0  0  0  0  0  0  0  0  0  0  0  0
  -21.9433  -19.7927   17.6582 C   0  0  0  0  0  0  0  0  0  0  0  0
  -32.5416  -23.0054   24.3734 C   0  0  0  0  0  0  0  0  0  0  0  0
  -32.1877  -22.2651   25.5013 C   0  0  0  0  0  0  0  0  0  0  0  0
  -23.5050  -20.6920   19.2618 C   0  0  0  0  0  0  0  0  0  0  0  0
  -31.2149  -24.2416   26.4934 C   0  0  0  0  0  0  0  0  0  0  0  0
  -21.1539  -25.8490   21.9160 C   0  0  0  0  0  0  0  0  0  0  0  0
  -29.5337  -26.9162   21.0355 C   0  0  0  0  0  0  0  0  0  0  0  0
  -28.3105  -27.5610   18.8917 C   0  0  0  0  0  0  0  0  0  0  0  0
  -25.0148  -11.7896   20.5166 C   0  0  0  0  0  0  0  0  0  0  0  0
  -24.0408  -18.6463   18.0839 C   0  0  0  0  0  0  0  0  0  0  0  0
  -24.3168  -13.0033   20.3687 C   0  0  0  0  0  0  0  0  0  0  0  0
  -24.3950  -19.6365   19.0112 C   0  0  0  0  0  0  0  0  0  0  0  0
  -31.5836  -25.6941   22.4800 C   0  0  0  0  0  0  0  0  0  0  0  0
  -22.2852  -20.7684   18.5900 C   0  0  0  0  0  0  0  0  0  0  0  0
  -32.2323  -24.3639   24.3055 C   0  0  0  0  0  0  0  0  0  0  0  0
  -31.5243  -22.8831   26.5613 C   0  0  0  0  0  0  0  0  0  0  0  0
  -31.5689  -24.9820   25.3654 C   0  0  0  0  0  0  0  0  0  0  0  0
  -28.4744  -27.5470   20.2899 C   0  0  0  0  0  0  0  0  0  0  0  0
  -19.9742  -25.1429   22.0343 C   0  0  0  0  0  0  0  0  0  0  0  0
  -21.0498  -27.2161   22.0729 C   0  0  0  0  0  0  0  0  0  0  0  0
  -27.1611  -28.2848   18.6880 C   0  0  0  0  0  0  0  0  0  0  0  0
  -18.8088  -27.0563   22.4189 C   0  0  0  0  0  0  0  0  0  0  0  0
  -29.1244  -26.9724   17.8687 C   0  0  0  0  0  0  0  0  0  0  0  0
  -25.3478  -16.5392   20.0727 C   0  0  0  0  0  0  0  0  0  0  0  0
  -27.9518  -18.4486   19.7639 C   0  0  0  0  0  0  0  0  0  0  0  0
  -29.2107  -21.5357   19.0345 C   0  0  0  0  0  0  0  0  0  0  0  0
  -22.3626  -29.3661   22.0806 C   0  0  0  0  0  0  0  0  0  0  0  0
  -26.2539  -11.6860   21.3702 C   0  0  0  0  0  0  0  0  0  0  0  0
  -24.9856  -17.5168   17.7773 C   0  0  0  0  0  0  0  0  0  0  0  0
  -25.7043  -19.5950   19.7545 C   0  0  0  0  0  0  0  0  0  0  0  0
  -26.9010  -13.0355   21.6708 C   0  0  0  0  0  0  0  0  0  0  0  0
  -24.5441  -31.7859   20.6444 C   0  0  0  0  0  0  0  0  0  0  0  0
  -25.8462  -14.0484   22.1049 C   0  0  0  0  0  0  0  0  0  0  0  0
  -18.4739  -22.9101   21.8786 C   0  0  0  0  0  0  0  0  0  0  0  0
  -19.0352  -21.8489   20.9158 C   0  0  0  0  0  0  0  0  0  0  0  0
  -25.7822  -30.9737   20.2577 C   0  0  0  0  0  0  0  0  0  0  0  0
  -23.9275  -31.2922   21.9519 C   0  0  0  0  0  0  0  0  0  0  0  0
  -24.8701  -29.0421   21.6083 C   0  0  0  0  0  0  0  0  0  0  0  0
  -24.8198  -14.2877   20.9910 C   0  0  1  0  0  0  0  0  0  0  0  0
  -19.8890  -23.5648   21.8855 C   0  0  1  0  0  0  0  0  0  0  0  0
  -25.9768  -17.2443   18.9045 C   0  0  1  0  0  0  0  0  0  0  0  0
  -20.0819  -22.9028   20.4777 C   0  0  1  0  0  0  0  0  0  0  0  0
  -25.4882  -29.4607   20.2643 C   0  0  2  0  0  0  0  0  0  0  0  0
  -17.5065  -27.7267   22.6979 C   0  0  0  0  0  0  0  0  0  0  0  0
  -31.3742  -22.8005   18.9050 C   0  0  0  0  0  0  0  0  0  0  0  0
  -28.0281  -18.6253   22.8091 C   0  0  0  0  0  0  0  0  0  0  0  0
  -29.5528  -20.5986   22.5868 C   0  0  0  0  0  0  0  0  0  0  0  0
  -30.2661  -18.3700   21.7225 C   0  0  0  0  0  0  0  0  0  0  0  0
  -28.8508  -22.0851   16.1488 C   0  0  0  0  0  0  0  0  0  0  0  0
  -21.4598  -22.3583   20.1542 C   0  0  0  0  0  0  0  0  0  1  0  0
  -28.4785  -19.6637   20.4885 C   0  0  1  0  0  0  0  0  0  0  0  0
  -30.3564  -21.9703   18.1384 C   0  0  2  0  0  0  0  0  0  0  0  0
  -29.0558  -19.3144   21.8893 C   0  0  0  0  0  0  0  0  0  0  0  0
  -27.5066  -28.2094   20.9291 N   0  0  0  0  0  0  0  0  0  0  0  0
  -18.7793  -25.7166   22.2864 N   0  0  0  0  0  0  0  0  0  0  0  0
  -19.8889  -27.8553   22.3259 N   0  0  0  0  0  0  0  0  0  0  0  0
  -26.7236  -28.6465   19.9281 N   0  0  0  0  0  0  0  0  0  0  0  0
  -26.5916  -18.4674   19.4246 N   0  0  0  0  0  0  0  0  0  0  0  0
  -23.6726  -29.8516   21.8832 N   0  0  0  0  0  0  0  0  0  0  0  0
  -26.4921  -28.6408   17.5708 N   0  0  0  0  0  0  0  0  0  0  0  0
  -30.2703  -26.2625   18.2525 N   0  0  0  0  0  0  0  0  0  0  0  0
  -22.2360  -27.9827   21.9594 N   0  0  0  0  0  0  0  0  0  0  0  0
  -25.3697  -15.1609   19.9762 N   0  0  0  0  0  0  0  0  0  0  0  0
  -29.4375  -20.2928   19.5869 N   0  0  0  0  0  0  0  0  0  0  0  0
  -29.8440  -22.7869   17.0020 N   0  3  0  0  0  0  0  0  0  0  0  0
  -28.8529  -27.0868   16.6494 O   0  0  0  0  0  0  0  0  0  0  0  0
  -24.8787  -17.1968   20.9942 O   0  0  0  0  0  0  0  0  0  0  0  0
  -28.7207  -17.5202   19.5021 O   0  0  0  0  0  0  0  0  0  0  0  0
  -28.2159  -22.2309   19.2283 O   0  0  0  0  0  0  0  0  0  0  0  0
  -21.4173  -30.1246   22.3113 O   0  0  0  0  0  0  0  0  0  0  0  0
  -32.5837  -25.0974   23.1847 O   0  0  0  0  0  0  0  0  0  0  0  0
  -21.4324  -21.7986   18.8418 O   0  0  0  0  0  0  0  0  0  1  0  0
  -31.1831  -22.1717   27.6437 F   0  0  0  0  0  0  0  0  0  0  0  0
  -31.2680  -26.2864   25.3054 F   0  0  0  0  0  0  0  0  0  0  0  0
  1  2  1  0  0  0  0
  1  5  2  0  0  0  0
  2  6  2  0  0  0  0
  3  8  2  0  0  0  0
  3 16  1  0  0  0  0
  4  9  1  0  0  0  0
  4 16  2  0  0  0  0
  5 18  1  0  0  0  0
  6 20  1  0  0  0  0
  7 10  2  0  0  0  0
  7 19  1  0  0  0  0
  8 22  1  0  0  0  0
  9 22  2  0  0  0  0
 10 23  1  0  0  0  0
 11 12  2  0  0  0  0
 11 24  1  0  0  0  0
 12 25  1  0  0  0  0
 13 21  1  0  0  0  0
 13 23  2  0  0  0  0
 14 25  2  0  0  0  0
 14 26  1  0  0  0  0
 15 28  1  0  0  0  0
 15 29  2  0  0  0  0
 16 27  1  0  0  0  0
 17 27  1  0  0  0  0
 17 30  2  0  0  0  0
 17 32  1  0  0  0  0
 18 20  2  0  0  0  0
 18 37  1  0  0  0  0
 19 21  2  0  0  0  0
 19 38  1  0  0  0  0
 20 48  1  0  0  0  0
 21 39  1  0  0  0  0
 22 80  1  0  0  0  0
 23 81  1  0  0  0  0
 24 26  2  0  0  0  0
 24 80  1  0  0  0  0
 25 82  1  0  0  0  0
 26 83  1  0  0  0  0
 27 63  2  0  0  0  0
 28 49  1  0  0  0  0
 28 64  2  0  0  0  0
 29 65  1  0  0  0  0
 29 71  1  0  0  0  0
 30 66  1  0  0  0  0
 30 69  1  0  0  0  0
 31 53  1  0  0  0  0
 31 64  1  0  0  0  0
 31 65  2  0  0  0  0
 32 70  1  0  0  0  0
 32 75  2  0  0  0  0
 33 50  1  0  0  0  0
 33 72  1  0  0  0  0
 33 76  2  0  0  0  0
 34 60  1  0  0  0  0
 34 67  1  0  0  0  0
 34 77  2  0  0  0  0
 35 61  1  0  0  0  0
 35 73  1  0  0  0  0
 35 78  2  0  0  0  0
 36 68  1  0  0  0  0
 36 71  1  0  0  0  0
 36 79  2  0  0  0  0
 37 40  1  0  0  0  0
 38 50  1  0  0  0  0
 39 67  1  0  0  0  0
 40 42  1  0  0  0  0
 41 45  1  0  0  0  0
 41 46  1  0  0  0  0
 42 48  1  0  0  0  0
 43 44  1  0  0  0  0
 43 49  1  0  0  0  0
 44 51  1  0  0  0  0
 45 52  1  0  0  0  0
 46 68  1  0  0  0  0
 47 52  1  0  0  0  0
 47 68  1  0  0  0  0
 48 72  1  0  0  0  0
 49 51  1  0  0  0  0
 50 67  1  0  0  0  0
 51 59  1  0  0  0  0
 52 66  1  0  0  0  0
 54 61  1  0  0  0  0
 55 62  1  0  0  0  0
 56 62  1  0  0  0  0
 57 62  1  0  0  0  0
 58 74  1  0  0  0  0
 59 81  1  0  0  0  0
 60 62  1  0  0  0  0
 60 73  1  0  0  0  0
 61 74  1  0  0  0  0
 63 66  1  0  0  0  0
M  CHG  1  74   1
M  ISO  4  36 100  59 101  71 100  81 101
M  END
> <Batch ID>
0142

> <Smiles>
CNC(C)C(=O)NC(C(=O)N1Cc2cc([101O:1][101CH2:1]C3CCC3c3cc([100NH:0][100C:0](=O)N4CCCC(n5nc(-c6ccc(Oc7ccc(F)cc7F)cc6)c(C(N)=O)c5N)C4)nc(C)n3)ccc2CC1C(=O)NC1CCCc2ccccc21)C(C)(C)C

> <Shape>
0.233

> <Color>
0.057

> <Negative vol penalty>
0.000

$$$$

  -OEChem-04052321183D

 88 97  0     1  0  0  0  0  0999 V2000
  -14.7044  -27.9813   25.0694 C   0  0  0  0  0  0  0  0  0  0  0  0
  -15.3016  -26.7402   24.8737 C   0  0  0  0  0  0  0  0  0  0  0  0
  -23.0074  -10.0277   20.0057 C   0  0  0  0  0  0  0  0  0  0  0  0
  -23.6365   -9.9956   22.3381 C   0  0  0  0  0  0  0  0  0  0  0  0
  -15.3307  -29.1363   24.6029 C   0  0  0  0  0  0  0  0  0  0  0  0
  -16.5251  -26.6532   24.2105 C   0  0  0  0  0  0  0  0  0  0  0  0
  -22.5574  -22.7910   24.1073 C   0  0  0  0  0  0  0  0  0  0  0  0
  -22.1999   -8.9086   20.2081 C   0  0  0  0  0  0  0  0  0  0  0  0
  -22.8289   -8.8765   22.5406 C   0  0  0  0  0  0  0  0  0  0  0  0
  -23.3703  -22.0865   23.2203 C   0  0  0  0  0  0  0  0  0  0  0  0
  -23.0020   -5.5460   21.9849 C   0  0  0  0  0  0  0  0  0  0  0  0
  -23.5296   -4.4926   22.7315 C   0  0  0  0  0  0  0  0  0  0  0  0
  -24.3982  -24.1562   22.5281 C   0  0  0  0  0  0  0  0  0  0  0  0
  -27.0204  -19.4166   21.0266 C   0  0  0  0  0  0  0  0  0  0  0  0
  -26.6176  -19.6545   18.2764 C   0  0  0  0  0  0  0  0  0  0  0  0
  -21.7443   -4.7387   24.3406 C   0  0  0  0  0  0  0  0  0  0  0  0
  -23.7258  -10.5712   21.0707 C   0  0  0  0  0  0  0  0  0  0  0  0
  -24.1864  -13.0787   20.9819 C   0  0  0  0  0  0  0  0  0  0  0  0
  -16.5672  -29.0644   23.9422 C   0  0  0  0  0  0  0  0  0  0  0  0
  -22.6514  -24.1868   24.2037 C   0  0  0  0  0  0  0  0  0  0  0  0
  -17.1679  -27.8082   23.7336 C   0  0  0  0  0  0  0  0  0  0  0  0
  -23.5872  -24.8757   23.4189 C   0  0  0  0  0  0  0  0  0  0  0  0
  -25.8967  -20.0857   20.5416 C   0  0  0  0  0  0  0  0  0  0  0  0
  -27.9428  -18.8665   20.1365 C   0  0  0  0  0  0  0  0  0  0  0  0
  -25.6953  -20.2046   19.1665 C   0  0  0  0  0  0  0  0  0  0  0  0
  -22.1106   -8.3330   21.4755 C   0  0  0  0  0  0  0  0  0  0  0  0
  -24.2888  -22.7694   22.4284 C   0  0  0  0  0  0  0  0  0  0  0  0
  -21.8455   -6.1959   22.4162 C   0  0  0  0  0  0  0  0  0  0  0  0
  -27.7414  -18.9854   18.7614 C   0  0  0  0  0  0  0  0  0  0  0  0
  -22.9008   -4.0889   23.9093 C   0  0  0  0  0  0  0  0  0  0  0  0
  -21.2166   -5.7922   23.5940 C   0  0  0  0  0  0  0  0  0  0  0  0
  -24.5606  -11.7269   20.8621 C   0  0  0  0  0  0  0  0  0  0  0  0
  -25.3297  -13.7792   20.6840 C   0  0  0  0  0  0  0  0  0  0  0  0
  -22.9186  -13.6501   21.3312 C   0  0  0  0  0  0  0  0  0  0  0  0
  -20.6630  -26.6105   23.6787 C   0  0  0  0  0  0  0  0  0  0  0  0
  -23.0995  -28.3659   24.9052 C   0  0  0  0  0  0  0  0  0  0  0  0
  -26.4429  -28.6412   25.5318 C   0  0  0  0  0  0  0  0  0  0  0  0
  -29.7789  -14.5467   17.3744 C   0  0  0  0  0  0  0  0  0  0  0  0
  -17.1831  -30.3358   23.4141 C   0  0  0  0  0  0  0  0  0  0  0  0
  -21.7862  -24.9293   25.1847 C   0  0  0  0  0  0  0  0  0  0  0  0
  -23.7415  -26.3718   23.4992 C   0  0  0  0  0  0  0  0  0  0  0  0
  -18.6591  -30.1929   23.0519 C   0  0  0  0  0  0  0  0  0  0  0  0
  -30.1079  -12.2185   20.1113 C   0  0  0  0  0  0  0  0  0  0  0  0
  -18.8883  -28.9242   22.2366 C   0  0  0  0  0  0  0  0  0  0  0  0
  -28.6616  -11.9756   20.5474 C   0  0  0  0  0  0  0  0  0  0  0  0
  -30.2192  -12.4502   18.6050 C   0  0  0  0  0  0  0  0  0  0  0  0
  -27.8949  -13.2505   18.5104 C   0  0  0  0  0  0  0  0  0  0  0  0
  -27.7109  -16.1237   17.6136 C   0  0  0  0  0  0  0  0  0  0  0  0
  -18.5067  -27.6753   23.0405 C   0  0  1  0  0  0  0  0  0  0  0  0
  -21.6074  -26.4019   24.8286 C   0  0  1  0  0  0  0  0  0  0  0  0
  -27.7284  -13.0861   20.0282 C   0  0  1  0  0  0  0  0  0  0  0  0
  -28.1137  -17.4605   16.9747 C   0  0  2  0  0  0  0  0  0  0  0  0
  -29.1672  -16.6991   16.1494 C   0  0  2  0  0  0  0  0  0  0  0  0
  -29.1395  -18.1528   20.6731 C   0  0  0  0  0  0  0  0  0  0  0  0
  -24.4999  -20.9163   18.6235 C   0  0  0  0  0  0  0  0  0  0  0  0
  -28.8286  -17.3130   12.3315 C   0  0  0  0  0  0  0  0  0  0  0  0
  -28.1409  -30.2074   26.5121 C   0  0  0  0  0  0  0  0  0  0  0  0
  -22.9561  -30.0904   22.3921 C   0  0  0  0  0  0  0  0  0  0  0  0
  -25.2182  -30.9954   22.9683 C   0  0  0  0  0  0  0  0  0  0  0  0
  -23.2970  -31.3672   24.5153 C   0  0  0  0  0  0  0  0  0  0  0  0
  -27.2147  -26.6858   27.6151 C   0  0  0  0  0  0  0  0  0  0  0  0
  -24.9234  -20.6680   21.5133 C   0  0  0  0  0  0  0  0  0  1  0  0
  -29.1107  -17.6053   13.7994 C   0  0  0  0  0  0  0  0  0  0  0  0
  -24.3120  -29.0589   24.3320 C   0  0  1  0  0  0  0  0  0  0  0  0
  -27.2036  -29.0410   26.7832 C   0  0  2  0  0  0  0  0  0  0  0  0
  -28.8331  -16.3979   14.7014 C   0  0  1  0  0  0  0  0  0  0  0  0
  -23.9418  -30.3500   23.5488 C   0  0  0  0  0  0  0  0  0  0  0  0
  -25.8415  -11.5753   20.5151 N   0  0  0  0  0  0  0  0  0  0  0  0
  -26.2820  -12.8409   20.4141 N   0  0  0  0  0  0  0  0  0  0  0  0
  -22.8684  -27.0536   24.4690 N   0  0  0  0  0  0  0  0  0  0  0  0
  -29.2998  -13.5064   18.1742 N   0  0  0  0  0  0  0  0  0  0  0  0
  -28.9030  -15.5468   17.0129 N   0  0  0  0  0  0  0  0  0  0  0  0
  -25.6031  -15.1000   20.6291 N   0  0  0  0  0  0  0  0  0  0  0  0
  -21.8497  -12.7866   21.6068 N   0  0  0  0  0  0  0  0  0  0  0  0
  -19.5432  -27.3545   23.9982 N   0  0  0  0  0  0  0  0  0  0  0  0
  -25.2230  -29.2788   25.4501 N   0  0  0  0  0  0  0  0  0  0  0  0
  -28.0127  -27.8948   27.2858 N   0  3  0  0  0  0  0  0  0  0  0  0
  -22.7348  -14.8900   21.3809 O   0  0  0  0  0  0  0  0  0  0  0  0
  -20.9311  -26.1331   22.5824 O   0  0  0  0  0  0  0  0  0  0  0  0
  -22.3877  -28.9644   25.7156 O   0  0  0  0  0  0  0  0  0  0  0  0
  -26.8880  -27.8459   24.7073 O   0  0  0  0  0  0  0  0  0  0  0  0
  -30.9634  -14.6022   17.0174 O   0  0  0  0  0  0  0  0  0  0  0  0
  -29.6268  -15.2979   14.2583 O   0  0  0  0  0  0  0  0  0  0  0  0
  -21.3224   -7.2411   21.6734 O   0  0  0  0  0  0  0  0  0  0  0  0
  -28.6328  -18.4555   17.8787 O   0  0  0  0  0  0  0  0  0  0  0  0
  -25.0886  -22.0794   21.5552 O   0  0  0  0  0  0  0  0  0  1  0  0
  -23.4067   -3.0762   24.6254 F   0  0  0  0  0  0  0  0  0  0  0  0
  -20.1047   -6.4119   24.0127 F   0  0  0  0  0  0  0  0  0  0  0  0
  1  2  1  0  0  0  0
  1  5  2  0  0  0  0
  2  6  2  0  0  0  0
  3  8  2  0  0  0  0
  3 17  1  0  0  0  0
  4  9  1  0  0  0  0
  4 17  2  0  0  0  0
  5 19  1  0  0  0  0
  6 21  1  0  0  0  0
  7 10  2  0  0  0  0
  7 20  1  0  0  0  0
  8 26  1  0  0  0  0
  9 26  2  0  0  0  0
 10 27  1  0  0  0  0
 11 12  2  0  0  0  0
 11 28  1  0  0  0  0
 12 30  1  0  0  0  0
 13 22  1  0  0  0  0
 13 27  2  0  0  0  0
 14 23  2  0  0  0  0
 14 24  1  0  0  0  0
 15 25  2  0  0  0  0
 15 29  1  0  0  0  0
 16 30  2  0  0  0  0
 16 31  1  0  0  0  0
 17 32  1  0  0  0  0
 18 32  1  0  0  0  0
 18 33  2  0  0  0  0
 18 34  1  0  0  0  0
 19 21  2  0  0  0  0
 19 39  1  0  0  0  0
 20 22  2  0  0  0  0
 20 40  1  0  0  0  0
 21 49  1  0  0  0  0
 22 41  1  0  0  0  0
 23 25  1  0  0  0  0
 23 62  1  0  0  0  0
 24 29  2  0  0  0  0
 24 54  1  0  0  0  0
 25 55  1  0  0  0  0
 26 84  1  0  0  0  0
 27 86  1  0  0  0  0
 28 31  2  0  0  0  0
 28 84  1  0  0  0  0
 29 85  1  0  0  0  0
 30 87  1  0  0  0  0
 31 88  1  0  0  0  0
 32 68  2  0  0  0  0
 33 69  1  0  0  0  0
 33 73  1  0  0  0  0
 34 74  1  0  0  0  0
 34 78  2  0  0  0  0
 35 50  1  0  0  0  0
 35 75  1  0  0  0  0
 35 79  2  0  0  0  0
 36 64  1  0  0  0  0
 36 70  1  0  0  0  0
 36 80  2  0  0  0  0
 37 65  1  0  0  0  0
 37 76  1  0  0  0  0
 37 81  2  0  0  0  0
 38 71  1  0  0  0  0
 38 72  1  0  0  0  0
 38 82  2  0  0  0  0
 39 42  1  0  0  0  0
 40 50  1  0  0  0  0
 41 70  1  0  0  0  0
 42 44  1  0  0  0  0
 43 45  1  0  0  0  0
 43 46  1  0  0  0  0
 44 49  1  0  0  0  0
 45 51  1  0  0  0  0
 46 71  1  0  0  0  0
 47 51  1  0  0  0  0
 47 71  1  0  0  0  0
 48 52  1  0  0  0  0
 48 72  1  0  0  0  0
 49 75  1  0  0  0  0
 50 70  1  0  0  0  0
 51 69  1  0  0  0  0
 52 53  1  0  0  0  0
 52 85  1  0  0  0  0
 53 66  1  0  0  0  0
 53 72  1  0  0  0  0
 56 63  1  0  0  0  0
 57 65  1  0  0  0  0
 58 67  1  0  0  0  0
 59 67  1  0  0  0  0
 60 67  1  0  0  0  0
 61 77  1  0  0  0  0
 62 86  1  0  0  0  0
 63 66  1  0  0  0  0
 64 67  1  0  0  0  0
 64 76  1  0  0  0  0
 65 77  1  0  0  0  0
 66 83  1  0  0  0  0
 68 69  1  0  0  0  0
M  CHG  1  77   1
M  ISO  4  38 100  62 101  72 100  86 101
M  END
> <Batch ID>
0142

> <Smiles>
CCC(O)C1C(Oc2cc(C)c([101CH2:1][101O:1]c3ccc4c(c3)CN(C(=O)C(NC(=O)C(C)NC)C(C)(C)C)C(C(=O)NC3CCCc5ccccc53)C4)cc2C)C[100N:0]1[100C:0](=O)N1CCCC(n2nc(-c3ccc(Oc4ccc(F)cc4F)cc3)c(C(N)=O)c2N)C1

> <Shape>
0.262

> <Color>
0.182

> <Negative vol penalty>
0.000

$$$$

  -OEChem-04052321183D

 88 97  0     1  0  0  0  0  0999 V2000
  -36.4415  -15.1398   23.3413 C   0  0  0  0  0  0  0  0  0  0  0  0
  -35.7531  -16.3479   23.2960 C   0  0  0  0  0  0  0  0  0  0  0  0
  -23.0981   -9.8370   19.9486 C   0  0  0  0  0  0  0  0  0  0  0  0
  -23.8496   -9.8732   22.2445 C   0  0  0  0  0  0  0  0  0  0  0  0
  -36.5389  -14.4388   24.5425 C   0  0  0  0  0  0  0  0  0  0  0  0
  -35.1606  -16.8551   24.4519 C   0  0  0  0  0  0  0  0  0  0  0  0
  -36.0287  -21.8061   25.0679 C   0  0  0  0  0  0  0  0  0  0  0  0
  -29.5673  -19.3518   22.3326 C   0  0  0  0  0  0  0  0  0  0  0  0
  -29.4188  -17.9649   22.3349 C   0  0  0  0  0  0  0  0  0  0  0  0
  -22.3698   -8.6755   20.2054 C   0  0  0  0  0  0  0  0  0  0  0  0
  -23.1212   -8.7117   22.5013 C   0  0  0  0  0  0  0  0  0  0  0  0
  -35.2675  -22.6863   24.3001 C   0  0  0  0  0  0  0  0  0  0  0  0
  -19.9025   -7.8731   23.0990 C   0  0  0  0  0  0  0  0  0  0  0  0
  -19.1420   -7.8319   24.2676 C   0  0  0  0  0  0  0  0  0  0  0  0
  -33.8251  -23.0806   26.1930 C   0  0  0  0  0  0  0  0  0  0  0  0
  -31.0594  -17.7862   20.5703 C   0  0  0  0  0  0  0  0  0  0  0  0
  -20.4081   -5.9183   25.0241 C   0  0  0  0  0  0  0  0  0  0  0  0
  -23.8381  -10.4359   20.9682 C   0  0  0  0  0  0  0  0  0  0  0  0
  -24.1446  -12.9645   20.8288 C   0  0  0  0  0  0  0  0  0  0  0  0
  -35.9555  -14.9425   25.7158 C   0  0  0  0  0  0  0  0  0  0  0  0
  -35.6867  -21.5477   26.4031 C   0  0  0  0  0  0  0  0  0  0  0  0
  -35.2491  -16.1595   25.6697 C   0  0  0  0  0  0  0  0  0  0  0  0
  -34.5850  -22.1986   26.9764 C   0  0  0  0  0  0  0  0  0  0  0  0
  -31.2079  -19.1732   20.5680 C   0  0  0  0  0  0  0  0  0  0  0  0
  -30.4618  -19.9560   21.4491 C   0  0  0  0  0  0  0  0  0  0  0  0
  -30.1649  -17.1821   21.4538 C   0  0  0  0  0  0  0  0  0  0  0  0
  -22.3813   -8.1128   21.4817 C   0  0  0  0  0  0  0  0  0  0  0  0
  -34.1638  -23.3215   24.8618 C   0  0  0  0  0  0  0  0  0  0  0  0
  -20.9158   -6.9369   22.8929 C   0  0  0  0  0  0  0  0  0  0  0  0
  -19.3948   -6.8545   25.2301 C   0  0  0  0  0  0  0  0  0  0  0  0
  -21.1685   -5.9595   23.8554 C   0  0  0  0  0  0  0  0  0  0  0  0
  -24.5912  -11.6354   20.7035 C   0  0  0  0  0  0  0  0  0  0  0  0
  -25.2274  -13.7265   20.4633 C   0  0  0  0  0  0  0  0  0  0  0  0
  -30.3534  -22.2534   20.3893 C   0  0  0  0  0  0  0  0  0  0  0  0
  -22.8655  -13.4657   21.2391 C   0  0  0  0  0  0  0  0  0  0  0  0
  -34.8090  -18.9646   28.0343 C   0  0  0  0  0  0  0  0  0  0  0  0
  -35.0227  -20.9727   30.5728 C   0  0  0  0  0  0  0  0  0  0  0  0
  -34.9604  -24.1771   31.7453 C   0  0  0  0  0  0  0  0  0  0  0  0
  -30.6776  -14.8508   20.6484 C   0  0  0  0  0  0  0  0  0  0  0  0
  -36.0468  -14.1257   26.9804 C   0  0  0  0  0  0  0  0  0  0  0  0
  -36.5338  -20.6160   27.2257 C   0  0  0  0  0  0  0  0  0  0  0  0
  -34.1879  -21.9710   28.4113 C   0  0  0  0  0  0  0  0  0  0  0  0
  -30.5366  -23.6619   20.9073 C   0  0  0  0  0  0  0  0  0  0  0  0
  -35.7109  -14.9167   28.2420 C   0  0  0  0  0  0  0  0  0  0  0  0
  -29.6059  -12.4024   18.2960 C   0  0  0  0  0  0  0  0  0  0  0  0
  -34.4385  -15.7327   28.0375 C   0  0  0  0  0  0  0  0  0  0  0  0
  -28.1690  -12.0939   18.7229 C   0  0  0  0  0  0  0  0  0  0  0  0
  -30.5134  -12.6539   19.4989 C   0  0  0  0  0  0  0  0  0  0  0  0
  -30.9484  -22.1074   22.6659 C   0  0  0  0  0  0  0  0  0  0  0  0
  -28.5914  -13.3623   20.8676 C   0  0  0  0  0  0  0  0  0  0  0  0
  -34.6140  -16.7546   26.9078 C   0  0  1  0  0  0  0  0  0  0  0  0
  -35.7905  -20.0334   28.4239 C   0  0  1  0  0  0  0  0  0  0  0  0
  -31.3849  -23.4727   22.1570 C   0  0  2  0  0  0  0  0  0  0  0  0
  -27.6254  -13.1658   19.6879 C   0  0  2  0  0  0  0  0  0  0  0  0
  -32.1729  -19.7938   19.6107 C   0  0  0  0  0  0  0  0  0  0  0  0
  -31.3156  -27.1254   23.4490 C   0  0  0  0  0  0  0  0  0  0  0  0
  -35.1250  -25.5004   33.8711 C   0  0  0  0  0  0  0  0  0  0  0  0
  -32.1724  -20.1594   31.2968 C   0  0  0  0  0  0  0  0  0  0  0  0
  -32.0588  -22.1574   32.8013 C   0  0  0  0  0  0  0  0  0  0  0  0
  -33.7277  -20.3573   33.2453 C   0  0  0  0  0  0  0  0  0  0  0  0
  -37.3690  -25.6143   30.8007 C   0  0  0  0  0  0  0  0  0  0  0  0
  -31.5377  -25.9348   22.5273 C   0  0  0  0  0  0  0  0  0  0  0  0
  -32.0325  -24.2873   24.4362 C   0  0  0  0  0  0  0  0  0  1  0  0
  -34.0715  -21.9085   31.2787 C   0  0  1  0  0  0  0  0  0  0  0  0
  -35.8870  -24.9227   32.6886 C   0  0  2  0  0  0  0  0  0  0  0  0
  -31.2016  -24.5800   23.1798 C   0  0  2  0  0  0  0  0  0  0  0  0
  -33.0137  -21.1487   32.1279 C   0  0  0  0  0  0  0  0  0  0  0  0
  -25.8588  -11.5541   20.2903 N   0  0  0  0  0  0  0  0  0  0  0  0
  -26.2180  -12.8418   20.1529 N   0  0  0  0  0  0  0  0  0  0  0  0
  -30.5990  -21.3762   21.4625 N   0  0  0  0  0  0  0  0  0  0  0  0
  -35.0439  -21.0463   29.1728 N   0  0  0  0  0  0  0  0  0  0  0  0
  -29.9367  -13.6837   20.3660 N   0  0  0  0  0  0  0  0  0  0  0  0
  -25.4192  -15.0602   20.3802 N   0  0  0  0  0  0  0  0  0  0  0  0
  -21.8653  -12.5450   21.5803 N   0  0  0  0  0  0  0  0  0  0  0  0
  -30.0142  -15.7732   21.4571 N   0  0  0  0  0  0  0  0  0  0  0  0
  -35.3771  -17.8938   27.3708 N   0  0  0  0  0  0  0  0  0  0  0  0
  -34.9010  -22.8324   32.0447 N   0  0  0  0  0  0  0  0  0  0  0  0
  -36.5634  -26.0417   31.9734 N   0  3  0  0  0  0  0  0  0  0  0  0
  -29.9962  -22.0165   19.2443 O   0  0  0  0  0  0  0  0  0  0  0  0
  -22.6116  -14.6932   21.2857 O   0  0  0  0  0  0  0  0  0  0  0  0
  -33.6242  -19.1005   28.3161 O   0  0  0  0  0  0  0  0  0  0  0  0
  -35.7264  -20.2097   31.2393 O   0  0  0  0  0  0  0  0  0  0  0  0
  -34.3475  -24.7326   30.8363 O   0  0  0  0  0  0  0  0  0  0  0  0
  -31.8058  -15.0317   20.1834 O   0  0  0  0  0  0  0  0  0  0  0  0
  -21.6704   -6.9796   21.7326 O   0  0  0  0  0  0  0  0  0  0  0  0
  -33.4187  -24.1807   24.1144 O   0  0  0  0  0  0  0  0  0  1  0  0
  -18.6654   -6.8160   26.3529 F   0  0  0  0  0  0  0  0  0  0  0  0
  -22.1414   -5.0581   23.6636 F   0  0  0  0  0  0  0  0  0  0  0  0
  1  2  1  0  0  0  0
  1  5  2  0  0  0  0
  2  6  2  0  0  0  0
  3 10  2  0  0  0  0
  3 18  1  0  0  0  0
  4 11  1  0  0  0  0
  4 18  2  0  0  0  0
  5 20  1  0  0  0  0
  6 22  1  0  0  0  0
  7 12  2  0  0  0  0
  7 21  1  0  0  0  0
  8  9  2  0  0  0  0
  8 25  1  0  0  0  0
  9 26  1  0  0  0  0
 10 27  1  0  0  0  0
 11 27  2  0  0  0  0
 12 28  1  0  0  0  0
 13 14  2  0  0  0  0
 13 29  1  0  0  0  0
 14 30  1  0  0  0  0
 15 23  1  0  0  0  0
 15 28  2  0  0  0  0
 16 24  1  0  0  0  0
 16 26  2  0  0  0  0
 17 30  2  0  0  0  0
 17 31  1  0  0  0  0
 18 32  1  0  0  0  0
 19 32  1  0  0  0  0
 19 33  2  0  0  0  0
 19 35  1  0  0  0  0
 20 22  2  0  0  0  0
 20 40  1  0  0  0  0
 21 23  2  0  0  0  0
 21 41  1  0  0  0  0
 22 51  1  0  0  0  0
 23 42  1  0  0  0  0
 24 25  2  0  0  0  0
 24 55  1  0  0  0  0
 25 70  1  0  0  0  0
 26 75  1  0  0  0  0
 27 85  1  0  0  0  0
 28 86  1  0  0  0  0
 29 31  2  0  0  0  0
 29 85  1  0  0  0  0
 30 87  1  0  0  0  0
 31 88  1  0  0  0  0
 32 68  2  0  0  0  0
 33 69  1  0  0  0  0
 33 73  1  0  0  0  0
 34 43  1  0  0  0  0
 34 70  1  0  0  0  0
 34 79  2  0  0  0  0
 35 74  1  0  0  0  0
 35 80  2  0  0  0  0
 36 52  1  0  0  0  0
 36 76  1  0  0  0  0
 36 81  2  0  0  0  0
 37 64  1  0  0  0  0
 37 71  1  0  0  0  0
 37 82  2  0  0  0  0
 38 65  1  0  0  0  0
 38 77  1  0  0  0  0
 38 83  2  0  0  0  0
 39 72  1  0  0  0  0
 39 75  1  0  0  0  0
 39 84  2  0  0  0  0
 40 44  1  0  0  0  0
 41 52  1  0  0  0  0
 42 71  1  0  0  0  0
 43 53  1  0  0  0  0
 44 46  1  0  0  0  0
 45 47  1  0  0  0  0
 45 48  1  0  0  0  0
 46 51  1  0  0  0  0
 47 54  1  0  0  0  0
 48 72  1  0  0  0  0
 49 53  1  0  0  0  0
 49 70  1  0  0  0  0
 50 54  1  0  0  0  0
 50 72  1  0  0  0  0
 51 76  1  0  0  0  0
 52 71  1  0  0  0  0
 53 66  1  0  0  0  0
 54 69  1  0  0  0  0
 56 62  1  0  0  0  0
 57 65  1  0  0  0  0
 58 67  1  0  0  0  0
 59 67  1  0  0  0  0
 60 67  1  0  0  0  0
 61 78  1  0  0  0  0
 62 66  1  0  0  0  0
 63 66  1  0  0  0  0
 63 86  1  0  0  0  0
 64 67  1  0  0  0  0
 64 77  1  0  0  0  0
 65 78  1  0  0  0  0
 68 69  1  0  0  0  0
M  CHG  1  78   1
M  ISO  4  39 100  63 101  75 100  86 101
M  END
> <Batch ID>
0142

> <Smiles>
CCC(C1CC(=O)N(c2ccc([100NH:0][100C:0](=O)N3CCCC(n4nc(-c5ccc(Oc6ccc(F)cc6F)cc5)c(C(N)=O)c4N)C3)cc2C)C1)[101CH2:1][101O:1]c1ccc2c(c1)CN(C(=O)C(NC(=O)C(C)NC)C(C)(C)C)C(C(=O)NC1CCCc3ccccc31)C2

> <Shape>
0.190

> <Color>
0.191

> <Negative vol penalty>
0.000

$$$$

  -OEChem-04052321183D

 86 95  0     1  0  0  0  0  0999 V2000
  -32.5222  -15.2021   21.2113 C   0  0  0  0  0  0  0  0  0  0  0  0
  -31.6092  -16.2359   21.3928 C   0  0  0  0  0  0  0  0  0  0  0  0
  -28.5099  -25.4377   20.0228 C   0  0  0  0  0  0  0  0  0  0  0  0
  -26.4940  -25.1314   18.7270 C   0  0  0  0  0  0  0  0  0  0  0  0
  -32.1230  -14.0232   20.5830 C   0  0  0  0  0  0  0  0  0  0  0  0
  -30.2965  -16.0920   20.9449 C   0  0  0  0  0  0  0  0  0  0  0  0
  -25.2428  -18.3436   23.5709 C   0  0  0  0  0  0  0  0  0  0  0  0
  -28.8986  -24.1311   19.7271 C   0  0  0  0  0  0  0  0  0  0  0  0
  -26.8826  -23.8248   18.4312 C   0  0  0  0  0  0  0  0  0  0  0  0
  -24.4771  -19.4794   23.3110 C   0  0  0  0  0  0  0  0  0  0  0  0
  -30.2482  -20.7565   19.6091 C   0  0  0  0  0  0  0  0  0  0  0  0
  -30.7435  -19.9738   20.6520 C   0  0  0  0  0  0  0  0  0  0  0  0
  -18.2595  -25.7446   23.8604 C   0  0  0  0  0  0  0  0  0  0  0  0
  -22.9712  -18.1509   21.9744 C   0  0  0  0  0  0  0  0  0  0  0  0
  -20.0732  -24.7747   22.5597 C   0  0  0  0  0  0  0  0  0  0  0  0
  -28.6515  -20.2250   21.8341 C   0  0  0  0  0  0  0  0  0  0  0  0
  -27.3076  -25.9378   19.5228 C   0  0  0  0  0  0  0  0  0  0  0  0
  -27.2016  -28.4500   19.0924 C   0  0  0  0  0  0  0  0  0  0  0  0
  -30.8022  -13.8610   20.1358 C   0  0  0  0  0  0  0  0  0  0  0  0
  -24.8840  -17.1030   23.0246 C   0  0  0  0  0  0  0  0  0  0  0  0
  -29.8796  -14.9104   20.3087 C   0  0  0  0  0  0  0  0  0  0  0  0
  -18.1592  -24.5466   24.5471 C   0  0  0  0  0  0  0  0  0  0  0  0
  -23.7326  -17.0004   22.2309 C   0  0  0  0  0  0  0  0  0  0  0  0
  -18.9993  -23.4684   24.2448 C   0  0  0  0  0  0  0  0  0  0  0  0
  -28.0850  -23.3247   18.9312 C   0  0  0  0  0  0  0  0  0  0  0  0
  -23.3428  -19.3837   22.5103 C   0  0  0  0  0  0  0  0  0  0  0  0
  -28.9546  -21.2736   19.6787 C   0  0  0  0  0  0  0  0  0  0  0  0
  -19.2310  -25.8563   22.8632 C   0  0  0  0  0  0  0  0  0  0  0  0
  -19.9566  -23.5658   23.2490 C   0  0  0  0  0  0  0  0  0  0  0  0
  -29.9452  -19.7080   21.7645 C   0  0  0  0  0  0  0  0  0  0  0  0
  -28.1562  -21.0078   20.7912 C   0  0  0  0  0  0  0  0  0  0  0  0
  -26.9053  -27.2872   19.8285 C   0  0  0  0  0  0  0  0  0  0  0  0
  -26.5959  -29.4639   19.7935 C   0  0  0  0  0  0  0  0  0  0  0  0
  -27.9568  -28.6002   17.8829 C   0  0  0  0  0  0  0  0  0  0  0  0
  -26.2565  -15.0532   21.0201 C   0  0  0  0  0  0  0  0  0  0  0  0
  -23.7030  -13.2025   21.7797 C   0  0  0  0  0  0  0  0  0  0  0  0
  -20.4867  -13.0248   22.9070 C   0  0  0  0  0  0  0  0  0  0  0  0
  -21.9393  -29.6044   23.5549 C   0  0  0  0  0  0  0  0  0  0  0  0
  -30.4296  -12.5870   19.4198 C   0  0  0  0  0  0  0  0  0  0  0  0
  -25.7054  -15.8821   23.3364 C   0  0  0  0  0  0  0  0  0  0  0  0
  -17.1822  -24.1769   25.6181 C   0  0  0  0  0  0  0  0  0  0  0  0
  -18.6627  -22.2783   25.0865 C   0  0  0  0  0  0  0  0  0  0  0  0
  -23.2930  -15.6879   21.6372 C   0  0  0  0  0  0  0  0  0  0  0  0
  -28.9228  -12.3684   19.3100 C   0  0  0  0  0  0  0  0  0  0  0  0
  -17.8551  -22.9330   26.2175 C   0  0  0  0  0  0  0  0  0  0  0  0
  -25.2672  -30.6768   24.2268 C   0  0  0  0  0  0  0  0  0  0  0  0
  -28.2300  -13.6470   18.8498 C   0  0  0  0  0  0  0  0  0  0  0  0
  -26.0912  -30.0346   23.1094 C   0  0  0  0  0  0  0  0  0  0  0  0
  -24.1353  -29.7625   24.6903 C   0  0  0  0  0  0  0  0  0  0  0  0
  -24.0718  -28.6396   22.4974 C   0  0  0  0  0  0  0  0  0  0  0  0
  -28.4403  -14.7823   19.8589 C   0  0  1  0  0  0  0  0  0  0  0  0
  -25.5354  -14.7688   22.3073 C   0  0  1  0  0  0  0  0  0  0  0  0
  -25.1909  -29.5469   21.9583 C   0  0  2  0  0  0  0  0  0  0  0  0
  -18.6550  -11.3775   23.3848 C   0  0  0  0  0  0  0  0  0  0  0  0
  -23.1600  -12.9425   18.7885 C   0  0  0  0  0  0  0  0  0  0  0  0
  -20.8598  -12.1273   19.3477 C   0  0  0  0  0  0  0  0  0  0  0  0
  -22.8561  -10.8296   20.0914 C   0  0  0  0  0  0  0  0  0  0  0  0
  -20.4088  -13.7660   25.7712 C   0  0  0  0  0  0  0  0  0  0  0  0
  -19.8165  -29.3808   22.2889 C   0  0  0  0  0  0  0  0  0  0  0  0
  -19.0159  -28.2247   22.8614 C   0  0  0  0  0  0  0  0  0  0  0  0
  -23.0286  -21.7181   22.8387 C   0  0  0  0  0  0  0  0  0  1  0  0
  -22.0672  -22.8223   22.4439 C   0  0  0  0  0  0  0  0  0  0  0  0
  -22.3105  -13.0225   21.2252 C   0  0  1  0  0  0  0  0  0  0  0  0
  -19.8352  -12.1455   23.9591 C   0  0  2  0  0  0  0  0  0  0  0  0
  -22.3057  -12.2557   19.8727 C   0  0  0  0  0  0  0  0  0  0  0  0
  -26.1687  -27.5379   20.9141 N   0  0  0  0  0  0  0  0  0  0  0  0
  -25.9972  -28.8699   20.8654 N   0  0  0  0  0  0  0  0  0  0  0  0
  -24.1327  -14.5241   21.9659 N   0  0  0  0  0  0  0  0  0  0  0  0
  -23.3183  -29.3369   23.5513 N   0  0  0  0  0  0  0  0  0  0  0  0
  -26.5223  -30.7966   19.5916 N   0  0  0  0  0  0  0  0  0  0  0  0
  -28.5101  -27.4550   17.2941 N   0  0  0  0  0  0  0  0  0  0  0  0
  -27.5662  -14.6129   20.9998 N   0  0  0  0  0  0  0  0  0  0  0  0
  -21.5315  -12.3807   22.2787 N   0  0  0  0  0  0  0  0  0  0  0  0
  -21.2400  -29.1729   22.4344 N   0  0  0  0  0  0  0  0  0  0  0  0
  -19.3474  -12.9746   25.0974 N   0  3  0  0  0  0  0  0  0  0  0  0
  -28.1494  -29.7190   17.3493 O   0  0  0  0  0  0  0  0  0  0  0  0
  -25.6678  -15.6281   20.1120 O   0  0  0  0  0  0  0  0  0  0  0  0
  -24.3817  -12.2072   22.0448 O   0  0  0  0  0  0  0  0  0  0  0  0
  -20.1045  -14.1674   22.6641 O   0  0  0  0  0  0  0  0  0  0  0  0
  -21.3743  -30.1894   24.4852 O   0  0  0  0  0  0  0  0  0  0  0  0
  -28.4640  -22.0498   18.6422 O   0  0  0  0  0  0  0  0  0  0  0  0
  -22.5940  -20.4909   22.2545 O   0  0  0  0  0  0  0  0  0  1  0  0
  -19.3592  -27.0240   22.1729 O   0  0  0  0  0  0  0  0  0  0  0  0
  -20.7710  -22.5087   22.9386 O   0  0  0  0  0  0  0  0  0  0  0  0
  -30.4204  -18.9550   22.7651 F   0  0  0  0  0  0  0  0  0  0  0  0
  -26.9122  -21.5007   20.8632 F   0  0  0  0  0  0  0  0  0  0  0  0
  1  2  1  0  0  0  0
  1  5  2  0  0  0  0
  2  6  2  0  0  0  0
  3  8  2  0  0  0  0
  3 17  1  0  0  0  0
  4  9  1  0  0  0  0
  4 17  2  0  0  0  0
  5 19  1  0  0  0  0
  6 21  1  0  0  0  0
  7 10  2  0  0  0  0
  7 20  1  0  0  0  0
  8 25  1  0  0  0  0
  9 25  2  0  0  0  0
 10 26  1  0  0  0  0
 11 12  2  0  0  0  0
 11 27  1  0  0  0  0
 12 30  1  0  0  0  0
 13 22  2  0  0  0  0
 13 28  1  0  0  0  0
 14 23  1  0  0  0  0
 14 26  2  0  0  0  0
 15 28  2  0  0  0  0
 15 29  1  0  0  0  0
 16 30  2  0  0  0  0
 16 31  1  0  0  0  0
 17 32  1  0  0  0  0
 18 32  1  0  0  0  0
 18 33  2  0  0  0  0
 18 34  1  0  0  0  0
 19 21  2  0  0  0  0
 19 39  1  0  0  0  0
 20 23  2  0  0  0  0
 20 40  1  0  0  0  0
 21 51  1  0  0  0  0
 22 24  1  0  0  0  0
 22 41  1  0  0  0  0
 23 43  1  0  0  0  0
 24 29  2  0  0  0  0
 24 42  1  0  0  0  0
 25 81  1  0  0  0  0
 26 82  1  0  0  0  0
 27 31  2  0  0  0  0
 27 81  1  0  0  0  0
 28 83  1  0  0  0  0
 29 84  1  0  0  0  0
 30 85  1  0  0  0  0
 31 86  1  0  0  0  0
 32 66  2  0  0  0  0
 33 67  1  0  0  0  0
 33 70  1  0  0  0  0
 34 71  1  0  0  0  0
 34 76  2  0  0  0  0
 35 52  1  0  0  0  0
 35 72  1  0  0  0  0
 35 77  2  0  0  0  0
 36 63  1  0  0  0  0
 36 68  1  0  0  0  0
 36 78  2  0  0  0  0
 37 64  1  0  0  0  0
 37 73  1  0  0  0  0
 37 79  2  0  0  0  0
 38 69  1  0  0  0  0
 38 74  1  0  0  0  0
 38 80  2  0  0  0  0
 39 44  1  0  0  0  0
 40 52  1  0  0  0  0
 41 45  1  0  0  0  0
 42 45  1  0  0  0  0
 43 68  1  0  0  0  0
 44 47  1  0  0  0  0
 46 48  1  0  0  0  0
 46 49  1  0  0  0  0
 47 51  1  0  0  0  0
 48 53  1  0  0  0  0
 49 69  1  0  0  0  0
 50 53  1  0  0  0  0
 50 69  1  0  0  0  0
 51 72  1  0  0  0  0
 52 68  1  0  0  0  0
 53 67  1  0  0  0  0
 54 64  1  0  0  0  0
 55 65  1  0  0  0  0
 56 65  1  0  0  0  0
 57 65  1  0  0  0  0
 58 75  1  0  0  0  0
 59 60  1  0  0  0  0
 59 74  1  0  0  0  0
 60 83  1  0  0  0  0
 61 62  1  0  0  0  0
 61 82  1  0  0  0  0
 62 84  1  0  0  0  0
 63 65  1  0  0  0  0
 63 73  1  0  0  0  0
 64 75  1  0  0  0  0
 66 67  1  0  0  0  0
M  CHG  1  75   1
M  ISO  4  38 100  61 101  74 100  82 101
M  END
> <Batch ID>
0142

> <Smiles>
CNC(C)C(=O)NC(C(=O)N1Cc2cc([101O:1][101CH2:1]COc3cc(OCC[100NH:0][100C:0](=O)N4CCCC(n5nc(-c6ccc(Oc7ccc(F)cc7F)cc6)c(C(N)=O)c5N)C4)cc4c3CCC4)ccc2CC1C(=O)NC1CCCc2ccccc21)C(C)(C)C

> <Shape>
0.236

> <Color>
0.069

> <Negative vol penalty>
0.000

$$$$

  -OEChem-04052321183D

 87 96  0     1  0  0  0  0  0999 V2000
  -28.5813  -36.1470   22.1799 C   0  0  0  0  0  0  0  0  0  0  0  0
  -28.7891  -34.7771   22.0559 C   0  0  0  0  0  0  0  0  0  0  0  0
  -27.0502  -17.2592   20.7624 C   0  0  0  0  0  0  0  0  0  0  0  0
  -27.5396  -15.8684   18.8485 C   0  0  0  0  0  0  0  0  0  0  0  0
  -27.4565  -36.6222   22.8529 C   0  0  0  0  0  0  0  0  0  0  0  0
  -27.8727  -33.8814   22.6059 C   0  0  0  0  0  0  0  0  0  0  0  0
  -26.7352  -30.0849   19.4534 C   0  0  0  0  0  0  0  0  0  0  0  0
  -29.8359  -24.2608   17.3033 C   0  0  0  0  0  0  0  0  0  0  0  0
  -28.3870  -17.6537   20.8176 C   0  0  0  0  0  0  0  0  0  0  0  0
  -28.8764  -16.2630   18.9036 C   0  0  0  0  0  0  0  0  0  0  0  0
  -27.6648  -29.0522   19.3389 C   0  0  0  0  0  0  0  0  0  0  0  0
  -29.2254  -23.0862   16.8638 C   0  0  0  0  0  0  0  0  0  0  0  0
  -30.8032  -18.6885   17.8358 C   0  0  0  0  0  0  0  0  0  0  0  0
  -31.1759  -19.8182   17.1075 C   0  0  0  0  0  0  0  0  0  0  0  0
  -26.3457  -27.7059   20.8444 C   0  0  0  0  0  0  0  0  0  0  0  0
  -29.1206  -23.7876   19.5619 C   0  0  0  0  0  0  0  0  0  0  0  0
  -31.8908  -20.8975   19.1475 C   0  0  0  0  0  0  0  0  0  0  0  0
  -26.6266  -16.3664   19.7779 C   0  0  0  0  0  0  0  0  0  0  0  0
  -24.5136  -15.2944   20.7233 C   0  0  0  0  0  0  0  0  0  0  0  0
  -26.5209  -35.7320   23.4030 C   0  0  0  0  0  0  0  0  0  0  0  0
  -25.6076  -29.9397   20.2743 C   0  0  0  0  0  0  0  0  0  0  0  0
  -26.7350  -34.3452   23.2880 C   0  0  0  0  0  0  0  0  0  0  0  0
  -25.4019  -28.7373   20.9656 C   0  0  0  0  0  0  0  0  0  0  0  0
  -29.7836  -24.6115   18.6524 C   0  0  0  0  0  0  0  0  0  0  0  0
  -28.5100  -22.6130   19.1225 C   0  0  0  0  0  0  0  0  0  0  0  0
  -29.3001  -17.1556   19.8881 C   0  0  0  0  0  0  0  0  0  0  0  0
  -27.4716  -27.8636   20.0366 C   0  0  0  0  0  0  0  0  0  0  0  0
  -28.5624  -22.2623   17.7734 C   0  0  0  0  0  0  0  0  0  0  0  0
  -30.9742  -18.6633   19.2200 C   0  0  0  0  0  0  0  0  0  0  0  0
  -31.7197  -20.9227   17.7633 C   0  0  0  0  0  0  0  0  0  0  0  0
  -31.5180  -19.7677   19.8758 C   0  0  0  0  0  0  0  0  0  0  0  0
  -25.2460  -15.9581   19.7208 C   0  0  0  0  0  0  0  0  0  0  0  0
  -23.2604  -15.1347   20.1843 C   0  0  0  0  0  0  0  0  0  0  0  0
  -24.9289  -14.8610   22.0254 C   0  0  0  0  0  0  0  0  0  0  0  0
  -24.5065  -31.4296   22.8572 C   0  0  0  0  0  0  0  0  0  0  0  0
  -21.9384  -29.5022   22.3963 C   0  0  0  0  0  0  0  0  0  0  0  0
  -20.6831  -26.6122   21.0852 C   0  0  0  0  0  0  0  0  0  0  0  0
  -24.0346  -17.8519   15.4432 C   0  0  0  0  0  0  0  0  0  0  0  0
  -25.3448  -36.2928   24.1626 C   0  0  0  0  0  0  0  0  0  0  0  0
  -24.6004  -31.0531   20.3662 C   0  0  0  0  0  0  0  0  0  0  0  0
  -24.1973  -28.5236   21.8441 C   0  0  0  0  0  0  0  0  0  0  0  0
  -24.2276  -35.2779   24.3915 C   0  0  0  0  0  0  0  0  0  0  0  0
  -23.0591  -14.4491   15.9288 C   0  0  0  0  0  0  0  0  0  0  0  0
  -22.6637  -21.1939   15.1252 C   0  0  0  0  0  0  0  0  0  0  0  0
  -24.8020  -33.9545   24.8869 C   0  0  0  0  0  0  0  0  0  0  0  0
  -22.0761  -14.4868   17.0937 C   0  0  0  0  0  0  0  0  0  0  0  0
  -24.0770  -21.5567   15.5590 C   0  0  0  0  0  0  0  0  0  0  0  0
  -22.9088  -15.6885   15.0604 C   0  0  0  0  0  0  0  0  0  0  0  0
  -22.4613  -19.8274   15.7613 C   0  0  0  0  0  0  0  0  0  0  0  0
  -22.2095  -17.0420   17.0264 C   0  0  0  0  0  0  0  0  0  0  0  0
  -25.7508  -33.3421   23.8495 C   0  0  1  0  0  0  0  0  0  0  0  0
  -23.7536  -30.9897   21.6336 C   0  0  1  0  0  0  0  0  0  0  0  0
  -22.1887  -15.7791   17.9182 C   0  0  2  0  0  0  0  0  0  0  0  0
  -24.8198  -20.2195   15.4905 C   0  0  1  0  0  0  0  0  0  0  0  0
  -27.8057  -21.7421   20.1100 C   0  0  0  0  0  0  0  0  0  0  0  0
  -18.5567  -25.2921   20.9032 C   0  0  0  0  0  0  0  0  0  0  0  0
  -22.2554  -28.5969   25.2929 C   0  0  0  0  0  0  0  0  0  0  0  0
  -20.7702  -26.6493   24.7736 C   0  0  0  0  0  0  0  0  0  0  0  0
  -19.8910  -28.9750   24.5709 C   0  0  0  0  0  0  0  0  0  0  0  0
  -20.6877  -26.7921   18.1311 C   0  0  0  0  0  0  0  0  0  0  0  0
  -30.4378  -25.8667   19.1219 C   0  0  0  0  0  0  0  0  0  0  0  0
  -25.9387  -20.1367   16.5208 C   0  0  0  0  0  0  0  0  0  0  0  0
  -29.5032  -27.0797   19.0805 C   0  0  0  0  0  0  0  0  0  1  0  0
  -26.9471  -21.2591   16.3450 C   0  0  0  0  0  0  0  0  0  0  0  0
  -21.5422  -28.1204   22.8576 C   0  0  1  0  0  0  0  0  0  0  0  0
  -19.4452  -26.3393   20.2500 C   0  0  2  0  0  0  0  0  0  0  0  0
  -21.1385  -28.0898   24.3588 C   0  0  0  0  0  0  0  0  0  0  0  0
  -24.5187  -16.2031   18.6276 N   0  0  0  0  0  0  0  0  0  0  0  0
  -23.3163  -15.6905   18.9400 N   0  0  0  0  0  0  0  0  0  0  0  0
  -23.2443  -29.6441   21.9063 N   0  0  0  0  0  0  0  0  0  0  0  0
  -23.0612  -16.9207   15.8344 N   0  0  0  0  0  0  0  0  0  0  0  0
  -23.7831  -19.2016   15.7001 N   0  0  0  0  0  0  0  0  0  0  0  0
  -22.1272  -14.5745   20.6579 N   0  0  0  0  0  0  0  0  0  0  0  0
  -25.4633  -13.5726   22.1618 N   0  0  0  0  0  0  0  0  0  0  0  0
  -24.9982  -32.7187   22.7821 N   0  0  0  0  0  0  0  0  0  0  0  0
  -20.4940  -27.6712   21.9477 N   0  0  0  0  0  0  0  0  0  0  0  0
  -19.8311  -25.8499   18.8963 N   0  3  0  0  0  0  0  0  0  0  0  0
  -24.8140  -15.5887   23.0407 O   0  0  0  0  0  0  0  0  0  0  0  0
  -24.6306  -30.6571   23.8004 O   0  0  0  0  0  0  0  0  0  0  0  0
  -21.1169  -30.4201   22.4615 O   0  0  0  0  0  0  0  0  0  0  0  0
  -21.7134  -25.9497   20.9852 O   0  0  0  0  0  0  0  0  0  0  0  0
  -25.0780  -17.4948   14.8802 O   0  0  0  0  0  0  0  0  0  0  0  0
  -30.6045  -17.5406   19.9415 O   0  0  0  0  0  0  0  0  0  0  0  0
  -28.3841  -26.8471   19.9263 O   0  0  0  0  0  0  0  0  0  1  0  0
  -27.9666  -21.1126   17.3238 O   0  0  0  0  0  0  0  0  0  0  0  0
  -32.0790  -22.0069   17.0636 F   0  0  0  0  0  0  0  0  0  0  0  0
  -31.6858  -19.7489   21.2052 F   0  0  0  0  0  0  0  0  0  0  0  0
  1  2  1  0  0  0  0
  1  5  2  0  0  0  0
  2  6  2  0  0  0  0
  3  9  2  0  0  0  0
  3 18  1  0  0  0  0
  4 10  1  0  0  0  0
  4 18  2  0  0  0  0
  5 20  1  0  0  0  0
  6 22  1  0  0  0  0
  7 11  2  0  0  0  0
  7 21  1  0  0  0  0
  8 12  2  0  0  0  0
  8 24  1  0  0  0  0
  9 26  1  0  0  0  0
 10 26  2  0  0  0  0
 11 27  1  0  0  0  0
 12 28  1  0  0  0  0
 13 14  2  0  0  0  0
 13 29  1  0  0  0  0
 14 30  1  0  0  0  0
 15 23  1  0  0  0  0
 15 27  2  0  0  0  0
 16 24  2  0  0  0  0
 16 25  1  0  0  0  0
 17 30  2  0  0  0  0
 17 31  1  0  0  0  0
 18 32  1  0  0  0  0
 19 32  1  0  0  0  0
 19 33  2  0  0  0  0
 19 34  1  0  0  0  0
 20 22  2  0  0  0  0
 20 39  1  0  0  0  0
 21 23  2  0  0  0  0
 21 40  1  0  0  0  0
 22 51  1  0  0  0  0
 23 41  1  0  0  0  0
 24 61  1  0  0  0  0
 25 28  2  0  0  0  0
 25 55  1  0  0  0  0
 26 83  1  0  0  0  0
 27 84  1  0  0  0  0
 28 85  1  0  0  0  0
 29 31  2  0  0  0  0
 29 83  1  0  0  0  0
 30 86  1  0  0  0  0
 31 87  1  0  0  0  0
 32 68  2  0  0  0  0
 33 69  1  0  0  0  0
 33 73  1  0  0  0  0
 34 74  1  0  0  0  0
 34 78  2  0  0  0  0
 35 52  1  0  0  0  0
 35 75  1  0  0  0  0
 35 79  2  0  0  0  0
 36 65  1  0  0  0  0
 36 70  1  0  0  0  0
 36 80  2  0  0  0  0
 37 66  1  0  0  0  0
 37 76  1  0  0  0  0
 37 81  2  0  0  0  0
 38 71  1  0  0  0  0
 38 72  1  0  0  0  0
 38 82  2  0  0  0  0
 39 42  1  0  0  0  0
 40 52  1  0  0  0  0
 41 70  1  0  0  0  0
 42 45  1  0  0  0  0
 43 46  1  0  0  0  0
 43 48  1  0  0  0  0
 44 47  1  0  0  0  0
 44 49  1  0  0  0  0
 45 51  1  0  0  0  0
 46 53  1  0  0  0  0
 47 54  1  0  0  0  0
 48 71  1  0  0  0  0
 49 72  1  0  0  0  0
 50 53  1  0  0  0  0
 50 71  1  0  0  0  0
 51 75  1  0  0  0  0
 52 70  1  0  0  0  0
 53 69  1  0  0  0  0
 54 62  1  0  0  0  0
 54 72  1  0  0  0  0
 56 66  1  0  0  0  0
 57 67  1  0  0  0  0
 58 67  1  0  0  0  0
 59 67  1  0  0  0  0
 60 77  1  0  0  0  0
 61 63  1  0  0  0  0
 62 64  1  0  0  0  0
 63 84  1  0  0  0  0
 64 85  1  0  0  0  0
 65 67  1  0  0  0  0
 65 76  1  0  0  0  0
 66 77  1  0  0  0  0
 68 69  1  0  0  0  0
M  CHG  1  77   1
M  ISO  4  38 100  63 101  72 100  84 101
M  END
> <Batch ID>
0142

> <Smiles>
CNC(C)C(=O)NC(C(=O)N1Cc2cc([101O:1][101CH2:1]Cc3ccc(OCCC4CCC[100N:0]4[100C:0](=O)N4CCCC(n5nc(-c6ccc(Oc7ccc(F)cc7F)cc6)c(C(N)=O)c5N)C4)c(C)c3)ccc2CC1C(=O)NC1CCCc2ccccc21)C(C)(C)C

> <Shape>
0.252

> <Color>
0.084

> <Negative vol penalty>
0.000

$$$$

  -OEChem-04052321183D

 80 88  0     1  0  0  0  0  0999 V2000
  -18.4441  -26.4017   23.0154 C   0  0  0  0  0  0  0  0  0  0  0  0
  -19.4969  -26.2681   22.1158 C   0  0  0  0  0  0  0  0  0  0  0  0
  -26.1123  -13.9177   21.7446 C   0  0  0  0  0  0  0  0  0  0  0  0
  -24.9371  -15.0834   19.9847 C   0  0  0  0  0  0  0  0  0  0  0  0
  -18.0020  -27.6710   23.3859 C   0  0  0  0  0  0  0  0  0  0  0  0
  -20.1075  -27.4039   21.5853 C   0  0  0  0  0  0  0  0  0  0  0  0
  -25.1610  -27.0764   21.5945 C   0  0  0  0  0  0  0  0  0  0  0  0
  -25.0621  -13.0049   21.8414 C   0  0  0  0  0  0  0  0  0  0  0  0
  -23.8868  -14.1705   20.0815 C   0  0  0  0  0  0  0  0  0  0  0  0
  -25.7507  -26.3020   20.5964 C   0  0  0  0  0  0  0  0  0  0  0  0
  -23.9622  -10.2856   20.1596 C   0  0  0  0  0  0  0  0  0  0  0  0
  -24.2860   -8.9314   20.2434 C   0  0  0  0  0  0  0  0  0  0  0  0
  -26.2519  -28.3041   19.3475 C   0  0  0  0  0  0  0  0  0  0  0  0
  -23.1765   -8.7986   22.3855 C   0  0  0  0  0  0  0  0  0  0  0  0
  -26.0498  -14.9570   20.8163 C   0  0  0  0  0  0  0  0  0  0  0  0
  -28.2716  -15.8041   19.8924 C   0  0  0  0  0  0  0  0  0  0  0  0
  -18.6139  -28.8230   22.8670 C   0  0  0  0  0  0  0  0  0  0  0  0
  -25.1025  -28.4721   21.4713 C   0  0  0  0  0  0  0  0  0  0  0  0
  -19.6723  -28.6899   21.9481 C   0  0  0  0  0  0  0  0  0  0  0  0
  -25.6632  -29.0942   20.3467 C   0  0  0  0  0  0  0  0  0  0  0  0
  -23.9493  -13.1313   21.0099 C   0  0  0  0  0  0  0  0  0  0  0  0
  -26.2937  -26.9156   19.4713 C   0  0  0  0  0  0  0  0  0  0  0  0
  -23.2457  -10.8963   21.1888 C   0  0  0  0  0  0  0  0  0  0  0  0
  -23.8931   -8.1879   21.3562 C   0  0  0  0  0  0  0  0  0  0  0  0
  -22.8528  -10.1529   22.3017 C   0  0  0  0  0  0  0  0  0  0  0  0
  -27.1341  -15.9005   20.7162 C   0  0  0  0  0  0  0  0  0  0  0  0
  -28.9905  -16.9422   20.1651 C   0  0  0  0  0  0  0  0  0  0  0  0
  -28.6450  -14.7775   18.9638 C   0  0  0  0  0  0  0  0  0  0  0  0
  -22.7588  -30.6117   21.2900 C   0  0  0  0  0  0  0  0  0  0  0  0
  -25.2095  -32.7318   21.4377 C   0  0  0  0  0  0  0  0  0  0  0  0
  -28.5233  -33.3695   20.9292 C   0  0  0  0  0  0  0  0  0  0  0  0
  -29.2412  -22.4501   21.0285 C   0  0  0  0  0  0  0  0  0  0  0  0
  -18.0703  -30.1736   23.2607 C   0  0  0  0  0  0  0  0  0  0  0  0
  -24.4868  -29.2952   22.5694 C   0  0  0  0  0  0  0  0  0  0  0  0
  -25.6442  -30.5905   20.1762 C   0  0  0  0  0  0  0  0  0  0  0  0
  -19.0168  -31.3279   22.9410 C   0  0  0  0  0  0  0  0  0  0  0  0
  -28.4296  -20.3941   23.8197 C   0  0  0  0  0  0  0  0  0  0  0  0
  -19.5664  -31.1909   21.5247 C   0  0  0  0  0  0  0  0  0  0  0  0
  -28.1082  -19.0364   23.1927 C   0  0  0  0  0  0  0  0  0  0  0  0
  -28.3801  -23.5003   15.2310 C   0  0  0  0  0  0  0  0  0  0  0  0
  -27.9516  -21.5485   22.9417 C   0  0  0  0  0  0  0  0  0  0  0  0
  -28.1086  -20.1476   20.9202 C   0  0  0  0  0  0  0  0  0  0  0  0
  -29.5869  -23.0600   16.0738 C   0  0  0  0  0  0  0  0  0  0  0  0
  -20.3765  -29.8981   21.3700 C   0  0  1  0  0  0  0  0  0  0  0  0
  -24.0244  -30.6704   22.0978 C   0  0  1  0  0  0  0  0  0  0  0  0
  -28.6213  -18.9529   21.7425 C   0  0  2  0  0  0  0  0  0  0  0  0
  -28.0045  -24.3766   16.4444 C   0  0  1  0  0  0  0  0  0  0  0  0
  -30.2258  -35.2047   21.1048 C   0  0  0  0  0  0  0  0  0  0  0  0
  -25.7558  -25.2946   15.9102 C   0  0  0  0  0  0  0  0  0  0  0  0
  -24.0983  -34.0025   18.8959 C   0  0  0  0  0  0  0  0  0  0  0  0
  -26.2955  -35.1656   18.6002 C   0  0  0  0  0  0  0  0  0  0  0  0
  -24.8994  -35.6340   20.6136 C   0  0  0  0  0  0  0  0  0  0  0  0
  -30.1279  -31.8506   22.8983 C   0  0  0  0  0  0  0  0  0  0  0  0
  -30.5102  -23.2105   19.0359 C   0  0  0  0  0  0  0  0  0  0  0  0
  -29.6672  -24.1920   18.2432 C   0  0  0  0  0  0  0  0  0  0  0  0
  -26.3566  -24.8439   18.3051 C   0  0  0  0  0  0  0  0  0  1  0  0
  -26.0950  -33.4145   20.4235 C   0  0  1  0  0  0  0  0  0  0  0  0
  -29.5691  -34.0285   21.8105 C   0  0  2  0  0  0  0  0  0  0  0  0
  -26.5464  -24.3870   16.8561 C   0  0  2  0  0  0  0  0  0  0  0  0
  -25.3459  -34.5258   19.6353 C   0  0  0  0  0  0  0  0  0  0  0  0
  -27.1266  -17.0121   21.4568 N   0  0  0  0  0  0  0  0  0  0  0  0
  -28.2682  -17.6245   21.0994 N   0  0  0  0  0  0  0  0  0  0  0  0
  -25.0254  -31.3515   21.2742 N   0  0  0  0  0  0  0  0  0  0  0  0
  -28.4744  -21.4106   21.5803 N   0  0  0  0  0  0  0  0  0  0  0  0
  -30.1637  -17.4159   19.6944 N   0  0  0  0  0  0  0  0  0  0  0  0
  -27.7917  -13.6770   18.8057 N   0  0  0  0  0  0  0  0  0  0  0  0
  -21.6889  -30.0504   21.9606 N   0  0  0  0  0  0  0  0  0  0  0  0
  -27.2653  -33.8867   21.1555 N   0  0  0  0  0  0  0  0  0  0  0  0
  -29.7033  -22.2359   19.7357 N   0  0  0  0  0  0  0  0  0  0  0  0
  -28.8232  -23.4583   17.2739 N   0  3  2  0  0  0  0  0  0  0  0  0
  -30.6301  -33.0482   22.1767 N   0  3  0  0  0  0  0  0  0  0  0  0
  -29.7121  -14.8265   18.3061 O   0  0  0  0  0  0  0  0  0  0  0  0
  -22.7530  -31.0450   20.1438 O   0  0  0  0  0  0  0  0  0  0  0  0
  -24.7056  -33.3973   22.3458 O   0  0  0  0  0  0  0  0  0  0  0  0
  -28.7958  -32.4870   20.1183 O   0  0  0  0  0  0  0  0  0  0  0  0
  -29.4997  -23.4897   21.6444 O   0  0  0  0  0  0  0  0  0  0  0  0
  -22.9244  -12.2407   21.1039 O   0  0  0  0  0  0  0  0  0  0  0  0
  -26.8693  -26.1620   18.4952 O   0  0  0  0  0  0  0  0  0  1  0  0
  -24.2026   -6.8872   21.4358 F   0  0  0  0  0  0  0  0  0  0  0  0
  -22.1632  -10.7338   23.2931 F   0  0  0  0  0  0  0  0  0  0  0  0
  1  2  1  0  0  0  0
  1  5  2  0  0  0  0
  2  6  2  0  0  0  0
  3  8  2  0  0  0  0
  3 15  1  0  0  0  0
  4  9  1  0  0  0  0
  4 15  2  0  0  0  0
  5 17  1  0  0  0  0
  6 19  1  0  0  0  0
  7 10  2  0  0  0  0
  7 18  1  0  0  0  0
  8 21  1  0  0  0  0
  9 21  2  0  0  0  0
 10 22  1  0  0  0  0
 11 12  2  0  0  0  0
 11 23  1  0  0  0  0
 12 24  1  0  0  0  0
 13 20  1  0  0  0  0
 13 22  2  0  0  0  0
 14 24  2  0  0  0  0
 14 25  1  0  0  0  0
 15 26  1  0  0  0  0
 16 26  1  0  0  0  0
 16 27  2  0  0  0  0
 16 28  1  0  0  0  0
 17 19  2  0  0  0  0
 17 33  1  0  0  0  0
 18 20  2  0  0  0  0
 18 34  1  0  0  0  0
 19 44  1  0  0  0  0
 20 35  1  0  0  0  0
 21 77  1  0  0  0  0
 22 78  1  0  0  0  0
 23 25  2  0  0  0  0
 23 77  1  0  0  0  0
 24 79  1  0  0  0  0
 25 80  1  0  0  0  0
 26 61  2  0  0  0  0
 27 62  1  0  0  0  0
 27 65  1  0  0  0  0
 28 66  1  0  0  0  0
 28 72  2  0  0  0  0
 29 45  1  0  0  0  0
 29 67  1  0  0  0  0
 29 73  2  0  0  0  0
 30 57  1  0  0  0  0
 30 63  1  0  0  0  0
 30 74  2  0  0  0  0
 31 58  1  0  0  0  0
 31 68  1  0  0  0  0
 31 75  2  0  0  0  0
 32 64  1  0  0  0  0
 32 69  1  0  0  0  0
 32 76  2  0  0  0  0
 33 36  1  0  0  0  0
 34 45  1  0  0  0  0
 35 63  1  0  0  0  0
 36 38  1  0  0  0  0
 37 39  1  0  0  0  0
 37 41  1  0  0  0  0
 38 44  1  0  0  0  0
 39 46  1  0  0  0  0
 40 43  1  0  0  0  0
 40 47  1  0  0  0  0
 41 64  1  0  0  0  0
 42 46  1  0  0  0  0
 42 64  1  0  0  0  0
 43 70  1  0  0  0  0
 44 67  1  0  0  0  0
 45 63  1  0  0  0  0
 46 62  1  0  0  0  0
 47 59  1  0  0  0  0
 47 70  1  0  0  0  0
 48 58  1  0  0  0  0
 49 59  1  0  0  0  0
 50 60  1  0  0  0  0
 51 60  1  0  0  0  0
 52 60  1  0  0  0  0
 53 71  1  0  0  0  0
 54 55  1  0  0  0  0
 54 69  1  0  0  0  0
 55 70  1  0  0  0  0
 56 59  1  0  0  0  0
 56 78  1  0  0  0  0
 57 60  1  0  0  0  0
 57 68  1  0  0  0  0
 58 71  1  0  0  0  0
 61 62  1  0  0  0  0
M  CHG  2  70   1  71   1
M  ISO  4  32 100  56 101  69 100  78 101
M  END
> <Batch ID>
0142

> <Smiles>
CNC(C)C(=O)NC(C(=O)N1Cc2cc([101O:1][101CH2:1]C(C)C3CCN3CC[100NH:0][100C:0](=O)N3CCCC(n4nc(-c5ccc(Oc6ccc(F)cc6F)cc5)c(C(N)=O)c4N)C3)ccc2CC1C(=O)NC1CCCc2ccccc21)C(C)(C)C

> <Shape>
0.272

> <Color>
0.087

> <Negative vol penalty>
0.000

$$$$

  -OEChem-04052321183D

 85 94  0     1  0  0  0  0  0999 V2000
  -19.5623  -34.0526   21.0723 C   0  0  0  0  0  0  0  0  0  0  0  0
  -20.8240  -33.6009   20.6988 C   0  0  0  0  0  0  0  0  0  0  0  0
  -24.2432  -13.2662   19.2512 C   0  0  0  0  0  0  0  0  0  0  0  0
  -23.2952  -14.6443   20.9945 C   0  0  0  0  0  0  0  0  0  0  0  0
  -18.9070  -33.4696   22.1561 C   0  0  0  0  0  0  0  0  0  0  0  0
  -21.4316  -32.5665   21.4096 C   0  0  0  0  0  0  0  0  0  0  0  0
  -25.0779  -28.1945   19.1522 C   0  0  0  0  0  0  0  0  0  0  0  0
  -29.0955  -24.1793   18.4921 C   0  0  0  0  0  0  0  0  0  0  0  0
  -23.4274  -12.2059   19.6458 C   0  0  0  0  0  0  0  0  0  0  0  0
  -22.4793  -13.5840   21.3891 C   0  0  0  0  0  0  0  0  0  0  0  0
  -26.4648  -28.0569   19.1142 C   0  0  0  0  0  0  0  0  0  0  0  0
  -23.3865   -9.8704   22.0888 C   0  0  0  0  0  0  0  0  0  0  0  0
  -23.9711   -8.6084   22.1945 C   0  0  0  0  0  0  0  0  0  0  0  0
  -28.8284  -22.8539   18.8160 C   0  0  0  0  0  0  0  0  0  0  0  0
  -26.3791  -26.7021   21.1083 C   0  0  0  0  0  0  0  0  0  0  0  0
  -22.4385   -7.7590   20.5312 C   0  0  0  0  0  0  0  0  0  0  0  0
  -24.1771  -14.4854   19.9256 C   0  0  0  0  0  0  0  0  0  0  0  0
  -24.7211  -16.5766   18.5695 C   0  0  0  0  0  0  0  0  0  0  0  0
  -19.5028  -32.4210   22.8745 C   0  0  0  0  0  0  0  0  0  0  0  0
  -24.3310  -27.5950   20.1765 C   0  0  0  0  0  0  0  0  0  0  0  0
  -20.7842  -31.9698   22.5048 C   0  0  0  0  0  0  0  0  0  0  0  0
  -30.0656  -24.9099   19.1934 C   0  0  0  0  0  0  0  0  0  0  0  0
  -24.9826  -26.8315   21.1556 C   0  0  0  0  0  0  0  0  0  0  0  0
  -22.5454  -12.3647   20.7147 C   0  0  0  0  0  0  0  0  0  0  0  0
  -27.1159  -27.3131   20.0939 C   0  0  0  0  0  0  0  0  0  0  0  0
  -22.3278  -10.0767   21.2042 C   0  0  0  0  0  0  0  0  0  0  0  0
  -23.4971   -7.5527   21.4157 C   0  0  0  0  0  0  0  0  0  0  0  0
  -21.8539   -9.0210   20.4254 C   0  0  0  0  0  0  0  0  0  0  0  0
  -25.0200  -15.5810   19.5189 C   0  0  0  0  0  0  0  0  0  0  0  0
  -30.7719  -24.2218   20.1860 C   0  0  0  0  0  0  0  0  0  0  0  0
  -29.5588  -22.2819   19.8372 C   0  0  0  0  0  0  0  0  0  0  0  0
  -25.8381  -17.3755   18.5466 C   0  0  0  0  0  0  0  0  0  0  0  0
  -23.5394  -16.7626   17.7792 C   0  0  0  0  0  0  0  0  0  0  0  0
  -22.4402  -28.6667   22.4960 C   0  0  0  0  0  0  0  0  0  0  0  0
  -21.8918  -25.5060   22.9772 C   0  0  0  0  0  0  0  0  0  0  0  0
  -22.9822  -22.2907   22.6312 C   0  0  0  0  0  0  0  0  0  0  0  0
  -29.8870  -20.1637   21.1609 C   0  0  0  0  0  0  0  0  0  0  0  0
  -18.7759  -31.8539   24.0681 C   0  0  0  0  0  0  0  0  0  0  0  0
  -22.8331  -27.7307   20.1883 C   0  0  0  0  0  0  0  0  0  0  0  0
  -24.2246  -26.1509   22.2650 C   0  0  0  0  0  0  0  0  0  0  0  0
  -31.8651  -24.8917   20.9672 C   0  0  0  0  0  0  0  0  0  0  0  0
  -19.3288  -30.5103   24.5362 C   0  0  0  0  0  0  0  0  0  0  0  0
  -32.4993  -26.0348   20.1881 C   0  0  0  0  0  0  0  0  0  0  0  0
  -30.4202  -16.6908   20.5854 C   0  0  0  0  0  0  0  0  0  0  0  0
  -20.8515  -30.5574   24.6134 C   0  0  0  0  0  0  0  0  0  0  0  0
  -29.0382  -16.1743   20.1785 C   0  0  0  0  0  0  0  0  0  0  0  0
  -30.3278  -17.7702   21.6625 C   0  0  0  0  0  0  0  0  0  0  0  0
  -28.0527  -18.3748   20.9361 C   0  0  0  0  0  0  0  0  0  0  0  0
  -30.3730  -26.3538   18.8212 C   0  0  2  0  0  0  0  0  0  0  0  0
  -21.4656  -30.8332   23.2356 C   0  0  1  0  0  0  0  0  0  0  0  0
  -22.2235  -27.5047   21.5684 C   0  0  1  0  0  0  0  0  0  0  0  0
  -31.4195  -27.0317   19.7520 C   0  0  2  0  0  0  0  0  0  0  0  0
  -28.0910  -17.3320   19.8070 C   0  0  2  0  0  0  0  0  0  0  0  0
  -22.3344  -19.9237   23.1558 C   0  0  0  0  0  0  0  0  0  0  0  0
  -32.5987  -29.2137   20.1320 C   0  0  0  0  0  0  0  0  0  0  0  0
  -33.2166  -27.7773   18.1677 C   0  0  0  0  0  0  0  0  0  0  0  0
  -22.6628  -25.9446   25.8966 C   0  0  0  0  0  0  0  0  0  0  0  0
  -22.9207  -23.4651   26.1285 C   0  0  0  0  0  0  0  0  0  0  0  0
  -20.6970  -24.4374   25.5519 C   0  0  0  0  0  0  0  0  0  0  0  0
  -22.9427  -21.5443   19.7676 C   0  0  0  0  0  0  0  0  0  0  0  0
  -29.0927  -27.2066   18.7761 C   0  0  0  0  0  0  0  0  0  1  0  0
  -22.5327  -24.4249   23.8135 C   0  0  1  0  0  0  0  0  0  0  0  0
  -22.2866  -21.0402   22.1244 C   0  0  2  0  0  0  0  0  0  0  0  0
  -32.0853  -28.2377   19.0796 C   0  0  0  0  0  0  0  0  0  0  0  0
  -22.2181  -24.5823   25.3279 C   0  0  0  0  0  0  0  0  0  0  0  0
  -26.2320  -15.7315   20.0597 N   0  0  0  0  0  0  0  0  0  0  0  0
  -30.5207  -22.9303   20.5256 N   0  0  0  0  0  0  0  0  0  0  0  0
  -26.7045  -16.8309   19.4481 N   0  0  0  0  0  0  0  0  0  0  0  0
  -22.7622  -26.3184   22.2369 N   0  0  0  0  0  0  0  0  0  0  0  0
  -29.4167  -18.8358   21.2393 N   0  0  0  0  0  0  0  0  0  0  0  0
  -26.1539  -18.4837   17.8432 N   0  0  0  0  0  0  0  0  0  0  0  0
  -22.4862  -15.8498   17.9270 N   0  0  0  0  0  0  0  0  0  0  0  0
  -29.2768  -20.9341   20.1717 N   0  0  0  0  0  0  0  0  0  0  0  0
  -21.4544  -29.6325   22.4277 N   0  0  0  0  0  0  0  0  0  0  0  0
  -22.0981  -23.1550   23.2417 N   0  0  0  0  0  0  0  0  0  0  0  0
  -22.9391  -20.5546   20.8756 N   0  3  0  0  0  0  0  0  0  0  0  0
  -23.4275  -17.7008   16.9541 O   0  0  0  0  0  0  0  0  0  0  0  0
  -23.4279  -28.6849   23.2211 O   0  0  0  0  0  0  0  0  0  0  0  0
  -20.6635  -25.6207   22.9751 O   0  0  0  0  0  0  0  0  0  0  0  0
  -24.1897  -22.4800   22.5021 O   0  0  0  0  0  0  0  0  0  0  0  0
  -30.7855  -20.5785   21.8976 O   0  0  0  0  0  0  0  0  0  0  0  0
  -21.7490  -11.3303   21.0998 O   0  0  0  0  0  0  0  0  0  0  0  0
  -28.4695  -27.1777   20.0595 O   0  0  0  0  0  0  0  0  0  1  0  0
  -24.0597   -6.3412   21.5163 F   0  0  0  0  0  0  0  0  0  0  0  0
  -20.8379   -9.2134   19.5730 F   0  0  0  0  0  0  0  0  0  0  0  0
  1  2  1  0  0  0  0
  1  5  2  0  0  0  0
  2  6  2  0  0  0  0
  3  9  2  0  0  0  0
  3 17  1  0  0  0  0
  4 10  1  0  0  0  0
  4 17  2  0  0  0  0
  5 19  1  0  0  0  0
  6 21  1  0  0  0  0
  7 11  2  0  0  0  0
  7 20  1  0  0  0  0
  8 14  2  0  0  0  0
  8 22  1  0  0  0  0
  9 24  1  0  0  0  0
 10 24  2  0  0  0  0
 11 25  1  0  0  0  0
 12 13  2  0  0  0  0
 12 26  1  0  0  0  0
 13 27  1  0  0  0  0
 14 31  1  0  0  0  0
 15 23  1  0  0  0  0
 15 25  2  0  0  0  0
 16 27  2  0  0  0  0
 16 28  1  0  0  0  0
 17 29  1  0  0  0  0
 18 29  1  0  0  0  0
 18 32  2  0  0  0  0
 18 33  1  0  0  0  0
 19 21  2  0  0  0  0
 19 38  1  0  0  0  0
 20 23  2  0  0  0  0
 20 39  1  0  0  0  0
 21 50  1  0  0  0  0
 22 30  2  0  0  0  0
 22 49  1  0  0  0  0
 23 40  1  0  0  0  0
 24 82  1  0  0  0  0
 25 83  1  0  0  0  0
 26 28  2  0  0  0  0
 26 82  1  0  0  0  0
 27 84  1  0  0  0  0
 28 85  1  0  0  0  0
 29 66  2  0  0  0  0
 30 41  1  0  0  0  0
 30 67  1  0  0  0  0
 31 67  2  0  0  0  0
 31 73  1  0  0  0  0
 32 68  1  0  0  0  0
 32 71  1  0  0  0  0
 33 72  1  0  0  0  0
 33 77  2  0  0  0  0
 34 51  1  0  0  0  0
 34 74  1  0  0  0  0
 34 78  2  0  0  0  0
 35 62  1  0  0  0  0
 35 69  1  0  0  0  0
 35 79  2  0  0  0  0
 36 63  1  0  0  0  0
 36 75  1  0  0  0  0
 36 80  2  0  0  0  0
 37 70  1  0  0  0  0
 37 73  1  0  0  0  0
 37 81  2  0  0  0  0
 38 42  1  0  0  0  0
 39 51  1  0  0  0  0
 40 69  1  0  0  0  0
 41 43  1  0  0  0  0
 42 45  1  0  0  0  0
 43 52  1  0  0  0  0
 44 46  1  0  0  0  0
 44 47  1  0  0  0  0
 45 50  1  0  0  0  0
 46 53  1  0  0  0  0
 47 70  1  0  0  0  0
 48 53  1  0  0  0  0
 48 70  1  0  0  0  0
 49 52  1  0  0  0  0
 49 61  1  0  0  0  0
 50 74  1  0  0  0  0
 51 69  1  0  0  0  0
 52 64  1  0  0  0  0
 53 68  1  0  0  0  0
 54 63  1  0  0  0  0
 55 64  1  0  0  0  0
 56 64  1  0  0  0  0
 57 65  1  0  0  0  0
 58 65  1  0  0  0  0
 59 65  1  0  0  0  0
 60 76  1  0  0  0  0
 61 83  1  0  0  0  0
 62 65  1  0  0  0  0
 62 75  1  0  0  0  0
 63 76  1  0  0  0  0
 66 68  1  0  0  0  0
M  CHG  1  76   1
M  ISO  4  37 100  61 101  73 100  83 101
M  END
> <Batch ID>
0142

> <Smiles>
CNC(C)C(=O)NC(C(=O)N1Cc2cc([101O:1][101CH2:1]C3c4ccc([100NH:0][100C:0](=O)N5CCCC(n6nc(-c7ccc(Oc8ccc(F)cc8F)cc7)c(C(N)=O)c6N)C5)nc4CCC3C(C)C)ccc2CC1C(=O)NC1CCCc2ccccc21)C(C)(C)C

> <Shape>
0.233

> <Color>
0.082

> <Negative vol penalty>
0.000

$$$$

  -OEChem-04052321183D

 81 89  0     1  0  0  0  0  0999 V2000
  -28.1216  -34.0093   24.4874 C   0  0  0  0  0  0  0  0  0  0  0  0
  -29.0120  -33.0763   23.9656 C   0  0  0  0  0  0  0  0  0  0  0  0
  -23.0698   -9.8946   19.9218 C   0  0  0  0  0  0  0  0  0  0  0  0
  -23.8595   -9.8479   22.2046 C   0  0  0  0  0  0  0  0  0  0  0  0
  -27.0296  -33.5828   25.2421 C   0  0  0  0  0  0  0  0  0  0  0  0
  -28.8114  -31.7163   24.1992 C   0  0  0  0  0  0  0  0  0  0  0  0
  -29.7536  -25.3226   21.1089 C   0  0  0  0  0  0  0  0  0  0  0  0
  -30.2308  -18.9169   23.2625 C   0  0  0  0  0  0  0  0  0  0  0  0
  -22.3332   -8.7328   20.1528 C   0  0  0  0  0  0  0  0  0  0  0  0
  -23.1229   -8.6862   22.4357 C   0  0  0  0  0  0  0  0  0  0  0  0
  -30.3192  -24.0746   21.3666 C   0  0  0  0  0  0  0  0  0  0  0  0
  -19.9056   -7.8615   23.0600 C   0  0  0  0  0  0  0  0  0  0  0  0
  -19.1641   -7.7899   24.2393 C   0  0  0  0  0  0  0  0  0  0  0  0
  -29.7551  -17.6919   22.8083 C   0  0  0  0  0  0  0  0  0  0  0  0
  -28.3539  -23.4493   22.6181 C   0  0  0  0  0  0  0  0  0  0  0  0
  -20.4217   -5.8396   24.9115 C   0  0  0  0  0  0  0  0  0  0  0  0
  -23.8329  -10.4521   20.9477 C   0  0  0  0  0  0  0  0  0  0  0  0
  -24.1644  -12.9807   20.8856 C   0  0  0  0  0  0  0  0  0  0  0  0
  -26.8101  -32.2163   25.4769 C   0  0  0  0  0  0  0  0  0  0  0  0
  -28.4865  -25.6479   21.6138 C   0  0  0  0  0  0  0  0  0  0  0  0
  -27.7161  -31.2712   24.9588 C   0  0  0  0  0  0  0  0  0  0  0  0
  -27.7735  -24.7012   22.3631 C   0  0  0  0  0  0  0  0  0  0  0  0
  -31.4869  -19.3598   22.8633 C   0  0  0  0  0  0  0  0  0  0  0  0
  -22.3597   -8.1286   21.4097 C   0  0  0  0  0  0  0  0  0  0  0  0
  -29.6205  -23.1388   22.1238 C   0  0  0  0  0  0  0  0  0  0  0  0
  -20.9051   -6.9222   22.8065 C   0  0  0  0  0  0  0  0  0  0  0  0
  -19.4222   -6.7790   25.1651 C   0  0  0  0  0  0  0  0  0  0  0  0
  -21.1632   -5.9112   23.7322 C   0  0  0  0  0  0  0  0  0  0  0  0
  -24.5945  -11.6519   20.7095 C   0  0  0  0  0  0  0  0  0  0  0  0
  -32.2221  -18.5469   22.0158 C   0  0  0  0  0  0  0  0  0  0  0  0
  -30.5677  -16.9537   21.9631 C   0  0  0  0  0  0  0  0  0  0  0  0
  -25.2492  -13.7431   20.5269 C   0  0  0  0  0  0  0  0  0  0  0  0
  -22.8977  -13.4813   21.3336 C   0  0  0  0  0  0  0  0  0  0  0  0
  -27.3674  -27.8452   23.6196 C   0  0  0  0  0  0  0  0  0  0  0  0
  -24.4934  -26.6342   22.7273 C   0  0  0  0  0  0  0  0  0  0  0  0
  -22.7212  -23.9971   21.4816 C   0  0  0  0  0  0  0  0  0  0  0  0
  -30.7135  -14.8047   20.6566 C   0  0  0  0  0  0  0  0  0  0  0  0
  -25.6421  -31.8061   26.3384 C   0  0  0  0  0  0  0  0  0  0  0  0
  -27.8790  -26.9886   21.3043 C   0  0  0  0  0  0  0  0  0  0  0  0
  -26.4013  -24.9937   22.9109 C   0  0  0  0  0  0  0  0  0  0  0  0
  -25.2921  -30.3246   26.2248 C   0  0  0  0  0  0  0  0  0  0  0  0
  -29.5767  -12.4458   18.2440 C   0  0  0  0  0  0  0  0  0  0  0  0
  -26.5521  -29.4698   26.3174 C   0  0  0  0  0  0  0  0  0  0  0  0
  -28.1438  -12.1383   18.6849 C   0  0  0  0  0  0  0  0  0  0  0  0
  -30.5066  -12.6484   19.4390 C   0  0  0  0  0  0  0  0  0  0  0  0
  -28.6153  -13.3314   20.8623 C   0  0  0  0  0  0  0  0  0  0  0  0
  -27.5186  -29.7857   25.1695 C   0  0  1  0  0  0  0  0  0  0  0  0
  -26.8002  -27.4003   22.3013 C   0  0  1  0  0  0  0  0  0  0  0  0
  -27.6278  -13.1835   19.6933 C   0  0  2  0  0  0  0  0  0  0  0  0
  -33.5783  -18.9720   21.5560 C   0  0  0  0  0  0  0  0  0  0  0  0
  -20.3836  -23.2929   20.9014 C   0  0  0  0  0  0  0  0  0  0  0  0
  -23.8770  -26.2476   25.6905 C   0  0  0  0  0  0  0  0  0  0  0  0
  -22.0119  -24.7132   25.0309 C   0  0  0  0  0  0  0  0  0  0  0  0
  -21.9624  -27.1068   24.3302 C   0  0  0  0  0  0  0  0  0  0  0  0
  -23.4232  -23.6012   18.6339 C   0  0  0  0  0  0  0  0  0  0  0  0
  -31.5938  -21.8533   22.4549 C   0  0  0  0  0  0  0  0  0  1  0  0
  -32.0113  -20.6910   23.3548 C   0  0  1  0  0  0  0  0  0  0  0  0
  -23.5985  -25.5260   23.2273 C   0  0  1  0  0  0  0  0  0  0  0  0
  -21.6723  -23.9154   20.3873 C   0  0  2  0  0  0  0  0  0  0  0  0
  -22.8891  -25.8933   24.5612 C   0  0  0  0  0  0  0  0  0  0  0  0
  -25.8541  -11.5712   20.2726 N   0  0  0  0  0  0  0  0  0  0  0  0
  -31.7934  -17.3510   21.5537 N   0  0  0  0  0  0  0  0  0  0  0  0
  -26.2249  -12.8589   20.1712 N   0  0  0  0  0  0  0  0  0  0  0  0
  -25.8527  -26.3208   22.5866 N   0  0  0  0  0  0  0  0  0  0  0  0
  -29.9555  -13.6551   20.3488 N   0  0  0  0  0  0  0  0  0  0  0  0
  -25.4540  -15.0767   20.4840 N   0  0  0  0  0  0  0  0  0  0  0  0
  -21.8935  -12.5603   21.6614 N   0  0  0  0  0  0  0  0  0  0  0  0
  -30.0737  -15.7068   21.5059 N   0  0  0  0  0  0  0  0  0  0  0  0
  -27.0728  -29.1553   23.9455 N   0  0  0  0  0  0  0  0  0  0  0  0
  -22.6868  -25.2123   22.1324 N   0  0  0  0  0  0  0  0  0  0  0  0
  -22.1722  -23.0905   19.2512 N   0  3  0  0  0  0  0  0  0  0  0  0
  -22.6580  -14.7092   21.4243 O   0  0  0  0  0  0  0  0  0  0  0  0
  -28.0225  -27.0576   24.2921 O   0  0  0  0  0  0  0  0  0  0  0  0
  -24.0032  -27.7353   22.4644 O   0  0  0  0  0  0  0  0  0  0  0  0
  -23.4915  -23.0739   21.7363 O   0  0  0  0  0  0  0  0  0  0  0  0
  -31.8358  -14.9892   20.1787 O   0  0  0  0  0  0  0  0  0  0  0  0
  -31.5242  -20.9143   24.6764 O   0  0  0  0  0  0  0  0  0  0  0  0
  -21.6409   -6.9951   21.6356 O   0  0  0  0  0  0  0  0  0  0  0  0
  -30.1705  -21.9202   22.3774 O   0  0  0  0  0  0  0  0  0  1  0  0
  -18.7111   -6.7112   26.2982 F   0  0  0  0  0  0  0  0  0  0  0  0
  -22.1229   -5.0067   23.4947 F   0  0  0  0  0  0  0  0  0  0  0  0
  1  2  1  0  0  0  0
  1  5  2  0  0  0  0
  2  6  2  0  0  0  0
  3  9  2  0  0  0  0
  3 17  1  0  0  0  0
  4 10  1  0  0  0  0
  4 17  2  0  0  0  0
  5 19  1  0  0  0  0
  6 21  1  0  0  0  0
  7 11  2  0  0  0  0
  7 20  1  0  0  0  0
  8 14  2  0  0  0  0
  8 23  1  0  0  0  0
  9 24  1  0  0  0  0
 10 24  2  0  0  0  0
 11 25  1  0  0  0  0
 12 13  2  0  0  0  0
 12 26  1  0  0  0  0
 13 27  1  0  0  0  0
 14 31  1  0  0  0  0
 15 22  1  0  0  0  0
 15 25  2  0  0  0  0
 16 27  2  0  0  0  0
 16 28  1  0  0  0  0
 17 29  1  0  0  0  0
 18 29  1  0  0  0  0
 18 32  2  0  0  0  0
 18 33  1  0  0  0  0
 19 21  2  0  0  0  0
 19 38  1  0  0  0  0
 20 22  2  0  0  0  0
 20 39  1  0  0  0  0
 21 47  1  0  0  0  0
 22 40  1  0  0  0  0
 23 30  2  0  0  0  0
 23 57  1  0  0  0  0
 24 78  1  0  0  0  0
 25 79  1  0  0  0  0
 26 28  2  0  0  0  0
 26 78  1  0  0  0  0
 27 80  1  0  0  0  0
 28 81  1  0  0  0  0
 29 61  2  0  0  0  0
 30 50  1  0  0  0  0
 30 62  1  0  0  0  0
 31 62  2  0  0  0  0
 31 68  1  0  0  0  0
 32 63  1  0  0  0  0
 32 66  1  0  0  0  0
 33 67  1  0  0  0  0
 33 72  2  0  0  0  0
 34 48  1  0  0  0  0
 34 69  1  0  0  0  0
 34 73  2  0  0  0  0
 35 58  1  0  0  0  0
 35 64  1  0  0  0  0
 35 74  2  0  0  0  0
 36 59  1  0  0  0  0
 36 70  1  0  0  0  0
 36 75  2  0  0  0  0
 37 65  1  0  0  0  0
 37 68  1  0  0  0  0
 37 76  2  0  0  0  0
 38 41  1  0  0  0  0
 39 48  1  0  0  0  0
 40 64  1  0  0  0  0
 41 43  1  0  0  0  0
 42 44  1  0  0  0  0
 42 45  1  0  0  0  0
 43 47  1  0  0  0  0
 44 49  1  0  0  0  0
 45 65  1  0  0  0  0
 46 49  1  0  0  0  0
 46 65  1  0  0  0  0
 47 69  1  0  0  0  0
 48 64  1  0  0  0  0
 49 63  1  0  0  0  0
 51 59  1  0  0  0  0
 52 60  1  0  0  0  0
 53 60  1  0  0  0  0
 54 60  1  0  0  0  0
 55 71  1  0  0  0  0
 56 57  1  0  0  0  0
 56 79  1  0  0  0  0
 57 77  1  0  0  0  0
 58 60  1  0  0  0  0
 58 70  1  0  0  0  0
 59 71  1  0  0  0  0
 61 63  1  0  0  0  0
M  CHG  1  71   1
M  ISO  4  37 100  56 101  68 100  79 101
M  END
> <Batch ID>
0142

> <Smiles>
CNC(C)C(=O)NC(C(=O)N1Cc2cc([101O:1][101CH2:1]C(O)c3ccc([100NH:0][100C:0](=O)N4CCCC(n5nc(-c6ccc(Oc7ccc(F)cc7F)cc6)c(C(N)=O)c5N)C4)nc3C)ccc2CC1C(=O)NC1CCCc2ccccc21)C(C)(C)C

> <Shape>
0.261

> <Color>
0.190

> <Negative vol penalty>
0.000

$$$$

  -OEChem-04052321183D

 88 98  0     1  0  0  0  0  0999 V2000
  -25.4100  -38.1243   21.6716 C   0  0  0  0  0  0  0  0  0  0  0  0
  -26.0899  -37.1915   20.8951 C   0  0  0  0  0  0  0  0  0  0  0  0
  -24.6014   -9.2787   21.5827 C   0  0  0  0  0  0  0  0  0  0  0  0
  -22.9097  -10.4761   20.3411 C   0  0  0  0  0  0  0  0  0  0  0  0
  -24.8557  -37.7419   22.8924 C   0  0  0  0  0  0  0  0  0  0  0  0
  -26.2167  -35.8759   21.3395 C   0  0  0  0  0  0  0  0  0  0  0  0
  -26.5637  -29.1591   18.8736 C   0  0  0  0  0  0  0  0  0  0  0  0
  -23.7266   -8.2034   21.7375 C   0  0  0  0  0  0  0  0  0  0  0  0
  -22.0349   -9.4008   20.4959 C   0  0  0  0  0  0  0  0  0  0  0  0
  -27.3585  -28.0174   18.9663 C   0  0  0  0  0  0  0  0  0  0  0  0
  -21.0875   -7.4012   23.6909 C   0  0  0  0  0  0  0  0  0  0  0  0
  -20.9944   -6.8192   24.9551 C   0  0  0  0  0  0  0  0  0  0  0  0
  -26.2918  -27.4518   21.0547 C   0  0  0  0  0  0  0  0  0  0  0  0
  -21.7206   -4.7062   24.0359 C   0  0  0  0  0  0  0  0  0  0  0  0
  -24.1929  -10.4152   20.8845 C   0  0  0  0  0  0  0  0  0  0  0  0
  -26.0119  -11.7337   19.6760 C   0  0  0  0  0  0  0  0  0  0  0  0
  -24.9674  -36.4187   23.3475 C   0  0  0  0  0  0  0  0  0  0  0  0
  -25.6331  -29.4620   19.8778 C   0  0  0  0  0  0  0  0  0  0  0  0
  -25.6645  -35.4757   22.5682 C   0  0  0  0  0  0  0  0  0  0  0  0
  -25.4846  -28.5966   20.9711 C   0  0  0  0  0  0  0  0  0  0  0  0
  -22.4434   -8.2643   21.1941 C   0  0  0  0  0  0  0  0  0  0  0  0
  -27.2247  -27.1651   20.0585 C   0  0  0  0  0  0  0  0  0  0  0  0
  -21.4970   -6.6357   22.5991 C   0  0  0  0  0  0  0  0  0  0  0  0
  -21.3110   -5.4718   25.1276 C   0  0  0  0  0  0  0  0  0  0  0  0
  -21.8136   -5.2882   22.7716 C   0  0  0  0  0  0  0  0  0  0  0  0
  -25.0959  -11.5266   20.7248 C   0  0  0  0  0  0  0  0  0  0  0  0
  -26.6252  -12.9230   19.9857 C   0  0  0  0  0  0  0  0  0  0  0  0
  -29.1060  -21.7053   18.4995 C   0  0  0  0  0  0  0  0  0  0  0  0
  -29.4153  -20.5134   19.0391 C   0  0  0  0  0  0  0  0  0  0  0  0
  -26.7279  -21.7012   17.8242 C   0  0  0  0  0  0  0  0  0  0  0  0
  -26.8232  -20.3136   17.3145 C   0  0  0  0  0  0  0  0  0  0  0  0
  -27.7974  -22.3161   18.3674 C   0  0  0  0  0  0  0  0  0  0  0  0
  -26.4073  -19.4940   18.3024 C   0  0  0  0  0  0  0  0  0  0  0  0
  -26.2839  -10.9235   18.5248 C   0  0  0  0  0  0  0  0  0  0  0  0
  -25.2445  -31.8613   21.9263 C   0  0  0  0  0  0  0  0  0  0  0  0
  -22.4886  -30.3011   22.6284 C   0  0  0  0  0  0  0  0  0  0  0  0
  -20.7463  -27.3668   22.6545 C   0  0  0  0  0  0  0  0  0  0  0  0
  -26.3746  -18.2197   21.7257 C   0  0  0  0  0  0  0  0  0  0  0  0
  -24.3926  -36.0638   24.6959 C   0  0  0  0  0  0  0  0  0  0  0  0
  -24.7645  -30.6833   19.7496 C   0  0  0  0  0  0  0  0  0  0  0  0
  -24.4859  -28.8660   22.0658 C   0  0  0  0  0  0  0  0  0  0  0  0
  -28.5823  -19.4023   19.6452 C   0  0  0  0  0  0  0  0  0  0  0  0
  -26.0540  -20.0343   16.0395 C   0  0  0  0  0  0  0  0  0  0  0  0
  -24.2478  -34.5607   24.9198 C   0  0  0  0  0  0  0  0  0  0  0  0
  -24.8373  -19.2778   16.5729 C   0  0  0  0  0  0  0  0  0  0  0  0
  -26.5044  -15.6843   24.2221 C   0  0  0  0  0  0  0  0  0  0  0  0
  -25.5206  -33.8332   24.4987 C   0  0  0  0  0  0  0  0  0  0  0  0
  -26.2190  -14.3953   23.4495 C   0  0  0  0  0  0  0  0  0  0  0  0
  -24.3846  -20.8957   18.5057 C   0  0  0  0  0  0  0  0  0  0  0  0
  -25.6926  -16.8587   23.6800 C   0  0  0  0  0  0  0  0  0  0  0  0
  -25.5476  -15.8029   21.4578 C   0  0  0  0  0  0  0  0  0  0  0  0
  -25.8018  -34.0332   23.0046 C   0  0  1  0  0  0  0  0  0  0  0  0
  -25.2328  -22.1059   17.9277 C   0  0  1  0  0  0  0  0  0  0  0  0
  -24.9064  -19.4794   18.0932 C   0  0  2  0  0  0  0  0  0  0  0  0
  -27.0358  -19.4506   19.6747 C   0  0  2  0  0  0  0  0  0  0  0  0
  -24.2106  -31.1656   21.0868 C   0  0  1  0  0  0  0  0  0  0  0  0
  -26.3849  -14.6027   21.9320 C   0  0  2  0  0  0  0  0  0  0  0  0
  -24.8988  -23.3620   18.7372 C   0  0  0  0  0  0  0  0  0  0  0  0
  -18.5302  -26.3975   23.3231 C   0  0  0  0  0  0  0  0  0  0  0  0
  -23.3514  -30.3531   25.5547 C   0  0  0  0  0  0  0  0  0  0  0  0
  -21.6345  -28.5913   26.0198 C   0  0  0  0  0  0  0  0  0  0  0  0
  -20.9258  -30.8283   25.1736 C   0  0  0  0  0  0  0  0  0  0  0  0
  -20.1245  -26.5704   19.8728 C   0  0  0  0  0  0  0  0  0  0  0  0
  -27.4443  -24.9284   20.8362 C   0  0  0  0  0  0  0  0  0  1  0  0
  -28.0192  -23.6508   20.2557 C   0  0  0  0  0  0  0  0  0  0  0  0
  -22.0901  -29.2222   23.6063 C   0  0  1  0  0  0  0  0  0  0  0  0
  -19.3385  -27.0271   22.1993 C   0  0  2  0  0  0  0  0  0  0  0  0
  -22.0207  -29.7444   25.0691 C   0  0  0  0  0  0  0  0  0  0  0  0
  -25.1217  -12.5057   21.6329 N   0  0  0  0  0  0  0  0  0  0  0  0
  -26.0615  -13.3395   21.1557 N   0  0  0  0  0  0  0  0  0  0  0  0
  -23.6642  -30.0761   21.8983 N   0  0  0  0  0  0  0  0  0  0  0  0
  -25.8955  -17.0019   22.2363 N   0  0  0  0  0  0  0  0  0  0  0  0
  -27.5863  -13.6426   19.3686 N   0  0  0  0  0  0  0  0  0  0  0  0
  -25.5630   -9.7329   18.3602 N   0  0  0  0  0  0  0  0  0  0  0  0
  -24.9444  -33.1799   22.2103 N   0  0  0  0  0  0  0  0  0  0  0  0
  -20.8363  -28.6649   23.1106 N   0  0  0  0  0  0  0  0  0  0  0  0
  -26.5445  -18.2688   20.3475 N   0  0  0  0  0  0  0  0  0  0  0  0
  -19.3801  -26.0705   21.0573 N   0  3  0  0  0  0  0  0  0  0  0  0
  -27.1525  -11.2377   17.6760 O   0  0  0  0  0  0  0  0  0  0  0  0
  -26.2401  -31.2467   22.2907 O   0  0  0  0  0  0  0  0  0  0  0  0
  -21.7789  -31.3033   22.5114 O   0  0  0  0  0  0  0  0  0  0  0  0
  -21.6725  -26.5600   22.6134 O   0  0  0  0  0  0  0  0  0  0  0  0
  -26.6368  -19.1894   22.4453 O   0  0  0  0  0  0  0  0  0  0  0  0
  -21.5896   -7.2151   21.3448 O   0  0  0  0  0  0  0  0  0  0  0  0
  -28.0049  -26.0428   20.1524 O   0  0  0  0  0  0  0  0  0  1  0  0
  -27.7207  -23.5954   18.8802 O   0  0  0  0  0  0  0  0  0  0  0  0
  -21.2231   -4.9135   26.3420 F   0  0  0  0  0  0  0  0  0  0  0  0
  -22.2088   -4.5480   21.7268 F   0  0  0  0  0  0  0  0  0  0  0  0
  1  2  1  0  0  0  0
  1  5  2  0  0  0  0
  2  6  2  0  0  0  0
  3  8  2  0  0  0  0
  3 15  1  0  0  0  0
  4  9  1  0  0  0  0
  4 15  2  0  0  0  0
  5 17  1  0  0  0  0
  6 19  1  0  0  0  0
  7 10  2  0  0  0  0
  7 18  1  0  0  0  0
  8 21  1  0  0  0  0
  9 21  2  0  0  0  0
 10 22  1  0  0  0  0
 11 12  2  0  0  0  0
 11 23  1  0  0  0  0
 12 24  1  0  0  0  0
 13 20  1  0  0  0  0
 13 22  2  0  0  0  0
 14 24  2  0  0  0  0
 14 25  1  0  0  0  0
 15 26  1  0  0  0  0
 16 26  1  0  0  0  0
 16 27  2  0  0  0  0
 16 34  1  0  0  0  0
 17 19  2  0  0  0  0
 17 39  1  0  0  0  0
 18 20  2  0  0  0  0
 18 40  1  0  0  0  0
 19 52  1  0  0  0  0
 20 41  1  0  0  0  0
 21 84  1  0  0  0  0
 22 85  1  0  0  0  0
 23 25  2  0  0  0  0
 23 84  1  0  0  0  0
 24 87  1  0  0  0  0
 25 88  1  0  0  0  0
 26 69  2  0  0  0  0
 27 70  1  0  0  0  0
 27 73  1  0  0  0  0
 28 29  2  0  0  0  0
 28 32  1  0  0  0  0
 29 42  1  0  0  0  0
 30 31  1  0  0  0  0
 30 32  2  0  0  0  0
 30 53  1  0  0  0  0
 31 33  2  0  0  0  0
 31 43  1  0  0  0  0
 32 86  1  0  0  0  0
 33 54  1  0  0  0  0
 33 55  1  0  0  0  0
 34 74  1  0  0  0  0
 34 79  2  0  0  0  0
 35 56  1  0  0  0  0
 35 75  1  0  0  0  0
 35 80  2  0  0  0  0
 36 66  1  0  0  0  0
 36 71  1  0  0  0  0
 36 81  2  0  0  0  0
 37 67  1  0  0  0  0
 37 76  1  0  0  0  0
 37 82  2  0  0  0  0
 38 72  1  0  0  0  0
 38 77  1  0  0  0  0
 38 83  2  0  0  0  0
 39 44  1  0  0  0  0
 40 56  1  0  0  0  0
 41 71  1  0  0  0  0
 42 55  1  0  0  0  0
 43 45  1  0  0  0  0
 44 47  1  0  0  0  0
 45 54  1  0  0  0  0
 46 48  1  0  0  0  0
 46 50  1  0  0  0  0
 47 52  1  0  0  0  0
 48 57  1  0  0  0  0
 49 53  1  0  0  0  0
 49 54  1  0  0  0  0
 50 72  1  0  0  0  0
 51 57  1  0  0  0  0
 51 72  1  0  0  0  0
 52 75  1  0  0  0  0
 53 58  1  0  0  0  0
 55 77  1  0  0  0  0
 56 71  1  0  0  0  0
 57 70  1  0  0  0  0
 59 67  1  0  0  0  0
 60 68  1  0  0  0  0
 61 68  1  0  0  0  0
 62 68  1  0  0  0  0
 63 78  1  0  0  0  0
 64 65  1  0  0  0  0
 64 85  1  0  0  0  0
 65 86  1  0  0  0  0
 66 68  1  0  0  0  0
 66 76  1  0  0  0  0
 67 78  1  0  0  0  0
 69 70  1  0  0  0  0
M  CHG  1  78   1
M  ISO  4  38 100  64 101  77 100  85 101
M  END
> <Batch ID>
0142

> <Smiles>
CNC(C)C(=O)NC(C(=O)N1Cc2cc([101O:1][101CH2:1]COC3=C4C5=C(C(CC5)CC4C)C([100NH:0][100C:0](=O)N4CCCC(n5nc(-c6ccc(Oc7ccc(F)cc7F)cc6)c(C(N)=O)c5N)C4)CC=C3)ccc2CC1C(=O)NC1CCCc2ccccc21)C(C)(C)C

> <Shape>
0.323

> <Color>
0.106

> <Negative vol penalty>
0.000

$$$$

  -OEChem-04052321183D

 85 94  0     1  0  0  0  0  0999 V2000
  -27.1888  -12.8200   27.3481 C   0  0  0  0  0  0  0  0  0  0  0  0
  -27.4752  -13.5264   26.1843 C   0  0  0  0  0  0  0  0  0  0  0  0
  -22.3025  -27.0812   20.5319 C   0  0  0  0  0  0  0  0  0  0  0  0
  -22.7234  -28.8169   22.1590 C   0  0  0  0  0  0  0  0  0  0  0  0
  -26.7044  -11.5150   27.2687 C   0  0  0  0  0  0  0  0  0  0  0  0
  -27.2784  -12.9277   24.9404 C   0  0  0  0  0  0  0  0  0  0  0  0
  -24.9805  -16.0089   21.6433 C   0  0  0  0  0  0  0  0  0  0  0  0
  -21.0742  -26.8129   21.1359 C   0  0  0  0  0  0  0  0  0  0  0  0
  -21.4950  -28.5486   22.7630 C   0  0  0  0  0  0  0  0  0  0  0  0
  -25.7629  -16.9917   21.0385 C   0  0  0  0  0  0  0  0  0  0  0  0
  -18.2376  -29.2483   22.1975 C   0  0  0  0  0  0  0  0  0  0  0  0
  -17.4350  -30.3359   22.5415 C   0  0  0  0  0  0  0  0  0  0  0  0
  -25.9474  -15.6204   19.0625 C   0  0  0  0  0  0  0  0  0  0  0  0
  -30.4942  -19.2634   21.4393 C   0  0  0  0  0  0  0  0  0  0  0  0
  -17.5060  -29.6554   24.8587 C   0  0  0  0  0  0  0  0  0  0  0  0
  -30.3490  -17.3760   20.2202 C   0  0  0  0  0  0  0  0  0  0  0  0
  -23.1272  -28.0832   21.0435 C   0  0  0  0  0  0  0  0  0  0  0  0
  -24.6511  -29.2741   19.3801 C   0  0  0  0  0  0  0  0  0  0  0  0
  -26.4925  -10.9034   26.0230 C   0  0  0  0  0  0  0  0  0  0  0  0
  -24.6843  -14.8178   20.9652 C   0  0  0  0  0  0  0  0  0  0  0  0
  -26.7921  -11.6129   24.8443 C   0  0  0  0  0  0  0  0  0  0  0  0
  -25.1589  -14.6251   19.6599 C   0  0  0  0  0  0  0  0  0  0  0  0
  -30.8030  -17.8809   21.4186 C   0  0  0  0  0  0  0  0  0  0  0  0
  -20.6704  -27.5466   22.2514 C   0  0  0  0  0  0  0  0  0  0  0  0
  -26.2489  -16.7963   19.7491 C   0  0  0  0  0  0  0  0  0  0  0  0
  -18.6744  -28.3641   23.1840 C   0  0  0  0  0  0  0  0  0  0  0  0
  -17.0692  -30.5395   23.8721 C   0  0  0  0  0  0  0  0  0  0  0  0
  -18.3086  -28.5677   24.5145 C   0  0  0  0  0  0  0  0  0  0  0  0
  -24.3964  -28.3605   20.4204 C   0  0  0  0  0  0  0  0  0  0  0  0
  -29.8607  -19.5612   20.2530 C   0  0  0  0  0  0  0  0  0  0  0  0
  -26.0006  -29.1643   19.1495 C   0  0  0  0  0  0  0  0  0  0  0  0
  -23.7486  -30.1444   18.6846 C   0  0  0  0  0  0  0  0  0  0  0  0
  -25.2900  -11.7386   21.4708 C   0  0  0  0  0  0  0  0  0  0  0  0
  -23.3621  -11.3370   18.8931 C   0  0  0  0  0  0  0  0  0  0  0  0
  -22.0205  -12.6548   16.0452 C   0  0  0  0  0  0  0  0  0  0  0  0
  -29.9830  -24.9256   19.9357 C   0  0  0  0  0  0  0  0  0  0  0  0
  -26.0122   -9.4742   25.9883 C   0  0  0  0  0  0  0  0  0  0  0  0
  -23.8167  -13.7789   21.6214 C   0  0  0  0  0  0  0  0  0  0  0  0
  -24.8524  -13.3727   18.8814 C   0  0  0  0  0  0  0  0  0  0  0  0
  -25.4767   -9.0445   24.6249 C   0  0  0  0  0  0  0  0  0  0  0  0
  -30.1067  -28.0824   21.3382 C   0  0  0  0  0  0  0  0  0  0  0  0
  -26.4292   -9.4799   23.5159 C   0  0  0  0  0  0  0  0  0  0  0  0
  -28.6840  -28.6133   21.1644 C   0  0  0  0  0  0  0  0  0  0  0  0
  -28.7883  -21.7668   20.8908 C   0  0  0  0  0  0  0  0  0  0  0  0
  -30.3493  -21.6485   18.9012 C   0  0  0  0  0  0  0  0  0  0  0  0
  -30.0951  -26.6132   21.7440 C   0  0  0  0  0  0  0  0  0  0  0  0
  -28.2688  -23.1120   20.3754 C   0  0  0  0  0  0  0  0  0  0  0  0
  -29.7765  -22.9787   18.4205 C   0  0  0  0  0  0  0  0  0  0  0  0
  -27.9275  -26.2488   20.6098 C   0  0  0  0  0  0  0  0  0  0  0  0
  -26.5683  -11.0065   23.4759 C   0  0  1  0  0  0  0  0  0  0  0  0
  -29.3149  -20.8828   19.7460 C   0  0  0  0  0  0  0  0  0  0  0  0
  -24.0058  -12.3842   21.0328 C   0  0  1  0  0  0  0  0  0  0  0  0
  -27.8801  -27.7325   20.1916 C   0  0  1  0  0  0  0  0  0  0  0  0
  -31.4854  -17.1210   22.4833 C   0  0  0  0  0  0  0  0  0  0  0  0
  -20.5103  -12.0737   14.1271 C   0  0  0  0  0  0  0  0  0  0  0  0
  -30.2242  -17.8423   17.1721 C   0  0  0  0  0  0  0  0  0  0  0  0
  -25.6011   -9.6920   17.6317 C   0  0  0  0  0  0  0  0  0  0  0  0
  -24.4515   -9.9499   15.4226 C   0  0  0  0  0  0  0  0  0  0  0  0
  -23.3046   -8.7616   17.2923 C   0  0  0  0  0  0  0  0  0  0  0  0
  -20.0973  -14.7869   16.7623 C   0  0  0  0  0  0  0  0  0  0  0  0
  -27.9878  -17.3134   18.2113 C   0  0  0  0  0  0  0  0  0  1  0  0
  -23.5734  -11.2733   17.3996 C   0  0  1  0  0  0  0  0  0  0  0  0
  -20.5965  -12.6783   15.5199 C   0  0  2  0  0  0  0  0  0  0  0  0
  -29.1831  -18.2761   18.2077 C   0  0  1  0  0  0  0  0  0  0  0  0
  -24.2402   -9.9421   16.9517 C   0  0  0  0  0  0  0  0  0  0  0  0
  -25.4958  -27.7175   20.8227 N   0  0  0  0  0  0  0  0  0  0  0  0
  -29.7777  -18.4062   19.5199 N   0  0  0  0  0  0  0  0  0  0  0  0
  -26.4544  -28.2277   20.0310 N   0  0  0  0  0  0  0  0  0  0  0  0
  -24.0054  -12.3838   19.5685 N   0  0  0  0  0  0  0  0  0  0  0  0
  -29.3194  -25.8112   20.7981 N   0  0  0  0  0  0  0  0  0  0  0  0
  -29.2821  -23.7753   19.5431 N   0  0  0  0  0  0  0  0  0  0  0  0
  -26.8315  -29.7783   18.2806 N   0  0  0  0  0  0  0  0  0  0  0  0
  -22.3949  -30.1314   19.0476 N   0  0  0  0  0  0  0  0  0  0  0  0
  -25.4129  -11.6028   22.8404 N   0  0  0  0  0  0  0  0  0  0  0  0
  -22.2707  -11.5231   16.7921 N   0  0  0  0  0  0  0  0  0  0  0  0
  -20.0909  -14.0788   15.4563 N   0  3  0  0  0  0  0  0  0  0  0  0
  -24.1283  -30.8989   17.7572 O   0  0  0  0  0  0  0  0  0  0  0  0
  -26.1080  -11.3882   20.6283 O   0  0  0  0  0  0  0  0  0  0  0  0
  -22.6468  -10.4934   19.4392 O   0  0  0  0  0  0  0  0  0  0  0  0
  -22.8311  -13.5490   15.8129 O   0  0  0  0  0  0  0  0  0  0  0  0
  -31.1335  -25.1490   19.5388 O   0  0  0  0  0  0  0  0  0  0  0  0
  -19.4718  -27.2852   22.8409 O   0  0  0  0  0  0  0  0  0  0  0  0
  -27.0183  -17.7600   19.1528 O   0  0  0  0  0  0  0  0  0  1  0  0
  -16.2998  -31.5849   24.2026 F   0  0  0  0  0  0  0  0  0  0  0  0
  -18.7261  -27.7223   25.4668 F   0  0  0  0  0  0  0  0  0  0  0  0
  1  2  1  0  0  0  0
  1  5  2  0  0  0  0
  2  6  2  0  0  0  0
  3  8  2  0  0  0  0
  3 17  1  0  0  0  0
  4  9  1  0  0  0  0
  4 17  2  0  0  0  0
  5 19  1  0  0  0  0
  6 21  1  0  0  0  0
  7 10  2  0  0  0  0
  7 20  1  0  0  0  0
  8 24  1  0  0  0  0
  9 24  2  0  0  0  0
 10 25  1  0  0  0  0
 11 12  2  0  0  0  0
 11 26  1  0  0  0  0
 12 27  1  0  0  0  0
 13 22  1  0  0  0  0
 13 25  2  0  0  0  0
 14 23  1  0  0  0  0
 14 30  2  0  0  0  0
 15 27  2  0  0  0  0
 15 28  1  0  0  0  0
 16 23  2  0  0  0  0
 16 67  1  0  0  0  0
 17 29  1  0  0  0  0
 18 29  1  0  0  0  0
 18 31  2  0  0  0  0
 18 32  1  0  0  0  0
 19 21  2  0  0  0  0
 19 37  1  0  0  0  0
 20 22  2  0  0  0  0
 20 38  1  0  0  0  0
 21 50  1  0  0  0  0
 22 39  1  0  0  0  0
 23 54  1  0  0  0  0
 24 82  1  0  0  0  0
 25 83  1  0  0  0  0
 26 28  2  0  0  0  0
 26 82  1  0  0  0  0
 27 84  1  0  0  0  0
 28 85  1  0  0  0  0
 29 66  2  0  0  0  0
 30 51  1  0  0  0  0
 30 67  1  0  0  0  0
 31 68  1  0  0  0  0
 31 72  1  0  0  0  0
 32 73  1  0  0  0  0
 32 77  2  0  0  0  0
 33 52  1  0  0  0  0
 33 74  1  0  0  0  0
 33 78  2  0  0  0  0
 34 62  1  0  0  0  0
 34 69  1  0  0  0  0
 34 79  2  0  0  0  0
 35 63  1  0  0  0  0
 35 75  1  0  0  0  0
 35 80  2  0  0  0  0
 36 70  1  0  0  0  0
 36 71  1  0  0  0  0
 36 81  2  0  0  0  0
 37 40  1  0  0  0  0
 38 52  1  0  0  0  0
 39 69  1  0  0  0  0
 40 42  1  0  0  0  0
 41 43  1  0  0  0  0
 41 46  1  0  0  0  0
 42 50  1  0  0  0  0
 43 53  1  0  0  0  0
 44 47  1  0  0  0  0
 44 51  1  0  0  0  0
 45 48  1  0  0  0  0
 45 51  1  0  0  0  0
 46 70  1  0  0  0  0
 47 71  1  0  0  0  0
 48 71  1  0  0  0  0
 49 53  1  0  0  0  0
 49 70  1  0  0  0  0
 50 74  1  0  0  0  0
 52 69  1  0  0  0  0
 53 68  1  0  0  0  0
 55 63  1  0  0  0  0
 56 64  1  0  0  0  0
 57 65  1  0  0  0  0
 58 65  1  0  0  0  0
 59 65  1  0  0  0  0
 60 76  1  0  0  0  0
 61 64  1  0  0  0  0
 61 83  1  0  0  0  0
 62 65  1  0  0  0  0
 62 75  1  0  0  0  0
 63 76  1  0  0  0  0
 64 67  1  0  0  0  0
 66 68  1  0  0  0  0
M  CHG  1  76   1
M  ISO  4  36 100  61 101  71 100  83 101
M  END
> <Batch ID>
0142

> <Smiles>
CNC(C)C(=O)NC(C(=O)N1Cc2cc([101O:1][101CH2:1]C(C)n3cc(C)cc3C3CC[100N:0]([100C:0](=O)N4CCCC(n5nc(-c6ccc(Oc7ccc(F)cc7F)cc6)c(C(N)=O)c5N)C4)CC3)ccc2CC1C(=O)NC1CCCc2ccccc21)C(C)(C)C

> <Shape>
0.255

> <Color>
0.070

> <Negative vol penalty>
0.000

$$$$

  -OEChem-04052321183D

 87 97  0     1  0  0  0  0  0999 V2000
  -17.8188  -30.2315   27.1241 C   0  0  0  0  0  0  0  0  0  0  0  0
  -17.0843  -29.0547   27.2289 C   0  0  0  0  0  0  0  0  0  0  0  0
  -30.1375  -23.7557   19.4805 C   0  0  0  0  0  0  0  0  0  0  0  0
  -28.5837  -23.7690   21.3305 C   0  0  0  0  0  0  0  0  0  0  0  0
  -18.2859  -30.6518   25.8795 C   0  0  0  0  0  0  0  0  0  0  0  0
  -16.8155  -28.2980   26.0889 C   0  0  0  0  0  0  0  0  0  0  0  0
  -18.3864  -20.7958   24.5801 C   0  0  0  0  0  0  0  0  0  0  0  0
  -20.2906  -12.2833   19.7064 C   0  0  0  0  0  0  0  0  0  0  0  0
  -29.9276  -25.1220   19.2944 C   0  0  0  0  0  0  0  0  0  0  0  0
  -28.3738  -25.1354   21.1444 C   0  0  0  0  0  0  0  0  0  0  0  0
  -18.7513  -19.5245   24.1365 C   0  0  0  0  0  0  0  0  0  0  0  0
  -19.7779  -13.4577   20.2572 C   0  0  0  0  0  0  0  0  0  0  0  0
  -26.6035  -27.1226   19.0593 C   0  0  0  0  0  0  0  0  0  0  0  0
  -25.2884  -27.5864   19.0904 C   0  0  0  0  0  0  0  0  0  0  0  0
  -18.7381  -20.3073   21.8485 C   0  0  0  0  0  0  0  0  0  0  0  0
  -22.0220  -14.2104   20.7414 C   0  0  0  0  0  0  0  0  0  0  0  0
  -25.8371  -29.0172   20.9583 C   0  0  0  0  0  0  0  0  0  0  0  0
  -29.4655  -23.0792   20.4986 C   0  0  0  0  0  0  0  0  0  0  0  0
  -30.6516  -21.0600   21.5104 C   0  0  0  0  0  0  0  0  0  0  0  0
  -18.0310  -29.8949   24.7251 C   0  0  0  0  0  0  0  0  0  0  0  0
  -18.2108  -21.8328   23.6597 C   0  0  0  0  0  0  0  0  0  0  0  0
  -21.6691  -12.0723   19.6732 C   0  0  0  0  0  0  0  0  0  0  0  0
  -17.2785  -28.7093   24.8275 C   0  0  0  0  0  0  0  0  0  0  0  0
  -18.3848  -21.5859   22.2879 C   0  0  0  0  0  0  0  0  0  0  0  0
  -22.5348  -13.0359   20.1907 C   0  0  0  0  0  0  0  0  0  0  0  0
  -29.0458  -25.8119   20.1263 C   0  0  0  0  0  0  0  0  0  0  0  0
  -18.9265  -19.2808   22.7741 C   0  0  0  0  0  0  0  0  0  0  0  0
  -20.6436  -14.4213   20.7746 C   0  0  0  0  0  0  0  0  0  0  0  0
  -27.5354  -27.6061   19.9778 C   0  0  0  0  0  0  0  0  0  0  0  0
  -24.9052  -28.5337   20.0399 C   0  0  0  0  0  0  0  0  0  0  0  0
  -27.1523  -28.5533   20.9272 C   0  0  0  0  0  0  0  0  0  0  0  0
  -29.6815  -21.6676   20.6910 C   0  0  0  0  0  0  0  0  0  0  0  0
  -30.4439  -19.7122   21.3468 C   0  0  0  0  0  0  0  0  0  0  0  0
  -31.6511  -21.6603   22.3450 C   0  0  0  0  0  0  0  0  0  0  0  0
  -17.3775  -25.4471   23.0951 C   0  0  0  0  0  0  0  0  0  0  0  0
  -19.6739  -24.7529   21.1832 C   0  0  0  0  0  0  0  0  0  0  0  0
  -22.4704  -23.6983   19.5387 C   0  0  0  0  0  0  0  0  0  0  0  0
  -26.1631  -16.0222   20.7295 C   0  0  0  0  0  0  0  0  0  0  0  0
  -18.5161  -30.4141   23.3948 C   0  0  0  0  0  0  0  0  0  0  0  0
  -17.7578  -23.2025   24.0870 C   0  0  0  0  0  0  0  0  0  0  0  0
  -18.1513  -22.7230   21.3312 C   0  0  0  0  0  0  0  0  0  0  0  0
  -18.5084  -29.3605   22.2901 C   0  0  0  0  0  0  0  0  0  0  0  0
  -28.2477  -16.9161   17.9107 C   0  0  0  0  0  0  0  0  0  0  0  0
  -22.6169  -10.8007   17.6339 C   0  0  0  0  0  0  0  0  0  0  0  0
  -21.3728  -10.0814   18.0524 C   0  0  0  0  0  0  0  0  0  0  0  0
  -24.7135  -11.6938   21.0583 C   0  0  0  0  0  0  0  0  0  0  0  0
  -17.1895  -28.5940   22.2928 C   0  0  0  0  0  0  0  0  0  0  0  0
  -28.9296  -18.1834   18.4291 C   0  0  0  0  0  0  0  0  0  0  0  0
  -25.9532  -12.5907   21.2315 C   0  0  0  0  0  0  0  0  0  0  0  0
  -26.7962  -16.8384   18.3758 C   0  0  0  0  0  0  0  0  0  0  0  0
  -27.2972  -18.1938   20.3708 C   0  0  0  0  0  0  0  0  0  0  0  0
  -22.1981  -10.8092   19.0803 C   0  0  0  0  0  0  0  0  0  0  0  0
  -24.1065  -12.8181   20.1650 C   0  0  2  0  0  0  0  0  0  0  0  0
  -16.9875  -27.8483   23.6174 C   0  0  1  0  0  0  0  0  0  0  0  0
  -18.3713  -24.3324   23.2407 C   0  0  1  0  0  0  0  0  0  0  0  0
  -28.7741  -18.3185   19.9552 C   0  0  2  0  0  0  0  0  0  0  0  0
  -25.0247  -13.7964   20.9676 C   0  0  2  0  0  0  0  0  0  0  0  0
  -24.5288  -23.8506   18.1113 C   0  0  0  0  0  0  0  0  0  0  0  0
  -17.6673  -24.4971   18.9002 C   0  0  0  0  0  0  0  0  0  0  0  0
  -19.5985  -24.3448   17.3143 C   0  0  0  0  0  0  0  0  0  0  0  0
  -19.2650  -26.4080   18.6761 C   0  0  0  0  0  0  0  0  0  0  0  0
  -24.1694  -24.3947   21.8598 C   0  0  0  0  0  0  0  0  0  0  0  0
  -20.0638  -17.9625   21.1536 C   0  0  0  0  0  0  0  0  0  1  0  0
  -20.9543  -16.7369   21.2189 C   0  0  0  0  0  0  0  0  0  0  0  0
  -20.0774  -24.2962   19.8041 C   0  0  1  0  0  0  0  0  0  0  0  0
  -23.8447  -24.3244   19.3843 C   0  0  2  0  0  0  0  0  0  0  0  0
  -19.1496  -24.8682   18.6953 C   0  0  0  0  0  0  0  0  0  0  0  0
  -28.9146  -20.7787   20.0540 N   0  0  0  0  0  0  0  0  0  0  0  0
  -29.4028  -19.5989   20.4730 N   0  0  0  0  0  0  0  0  0  0  0  0
  -18.7441  -23.9590   21.8657 N   0  0  0  0  0  0  0  0  0  0  0  0
  -26.7198  -16.9543   19.8393 N   0  0  0  0  0  0  0  0  0  0  0  0
  -31.0522  -18.6248   21.8664 N   0  0  0  0  0  0  0  0  0  0  0  0
  -31.7262  -23.0588   22.3970 N   0  0  0  0  0  0  0  0  0  0  0  0
  -17.7904  -26.6446   23.6473 N   0  0  0  0  0  0  0  0  0  0  0  0
  -21.4832  -24.6545   19.6505 N   0  0  0  0  0  0  0  0  0  0  0  0
  -25.6370  -14.8691   20.1568 N   0  0  0  0  0  0  0  0  0  0  0  0
  -24.7100  -23.9671   20.5438 N   0  3  0  0  0  0  0  0  0  0  0  0
  -32.4645  -20.9766   23.0117 O   0  0  0  0  0  0  0  0  0  0  0  0
  -16.3144  -25.2378   22.5226 O   0  0  0  0  0  0  0  0  0  0  0  0
  -20.1638  -25.7882   21.6431 O   0  0  0  0  0  0  0  0  0  0  0  0
  -22.2902  -22.4827   19.5546 O   0  0  0  0  0  0  0  0  0  0  0  0
  -26.1383  -16.1959   21.9530 O   0  0  0  0  0  0  0  0  0  0  0  0
  -28.8409  -27.1452   19.9451 O   0  0  0  0  0  0  0  0  0  0  0  0
  -19.2871  -18.0385   22.3483 O   0  0  0  0  0  0  0  0  0  1  0  0
  -20.1394  -15.5750   21.3149 O   0  0  0  0  0  0  0  0  0  0  0  0
  -23.6426  -28.9801   20.0686 F   0  0  0  0  0  0  0  0  0  0  0  0
  -28.0434  -29.0223   21.8114 F   0  0  0  0  0  0  0  0  0  0  0  0
  1  2  1  0  0  0  0
  1  5  2  0  0  0  0
  2  6  2  0  0  0  0
  3  9  2  0  0  0  0
  3 18  1  0  0  0  0
  4 10  1  0  0  0  0
  4 18  2  0  0  0  0
  5 20  1  0  0  0  0
  6 23  1  0  0  0  0
  7 11  2  0  0  0  0
  7 21  1  0  0  0  0
  8 12  2  0  0  0  0
  8 22  1  0  0  0  0
  9 26  1  0  0  0  0
 10 26  2  0  0  0  0
 11 27  1  0  0  0  0
 12 28  1  0  0  0  0
 13 14  2  0  0  0  0
 13 29  1  0  0  0  0
 14 30  1  0  0  0  0
 15 24  1  0  0  0  0
 15 27  2  0  0  0  0
 16 25  1  0  0  0  0
 16 28  2  0  0  0  0
 17 30  2  0  0  0  0
 17 31  1  0  0  0  0
 18 32  1  0  0  0  0
 19 32  1  0  0  0  0
 19 33  2  0  0  0  0
 19 34  1  0  0  0  0
 20 23  2  0  0  0  0
 20 39  1  0  0  0  0
 21 24  2  0  0  0  0
 21 40  1  0  0  0  0
 22 25  2  0  0  0  0
 22 52  1  0  0  0  0
 23 54  1  0  0  0  0
 24 41  1  0  0  0  0
 25 53  1  0  0  0  0
 26 83  1  0  0  0  0
 27 84  1  0  0  0  0
 28 85  1  0  0  0  0
 29 31  2  0  0  0  0
 29 83  1  0  0  0  0
 30 86  1  0  0  0  0
 31 87  1  0  0  0  0
 32 68  2  0  0  0  0
 33 69  1  0  0  0  0
 33 72  1  0  0  0  0
 34 73  1  0  0  0  0
 34 78  2  0  0  0  0
 35 55  1  0  0  0  0
 35 74  1  0  0  0  0
 35 79  2  0  0  0  0
 36 65  1  0  0  0  0
 36 70  1  0  0  0  0
 36 80  2  0  0  0  0
 37 66  1  0  0  0  0
 37 75  1  0  0  0  0
 37 81  2  0  0  0  0
 38 71  1  0  0  0  0
 38 76  1  0  0  0  0
 38 82  2  0  0  0  0
 39 42  1  0  0  0  0
 40 55  1  0  0  0  0
 41 70  1  0  0  0  0
 42 47  1  0  0  0  0
 43 48  1  0  0  0  0
 43 50  1  0  0  0  0
 44 45  1  0  0  0  0
 44 52  1  0  0  0  0
 45 52  1  0  0  0  0
 46 49  1  0  0  0  0
 46 53  1  0  0  0  0
 47 54  1  0  0  0  0
 48 56  1  0  0  0  0
 49 57  1  0  0  0  0
 50 71  1  0  0  0  0
 51 56  1  0  0  0  0
 51 71  1  0  0  0  0
 53 57  1  0  0  0  0
 54 74  1  0  0  0  0
 55 70  1  0  0  0  0
 56 69  1  0  0  0  0
 57 76  1  0  0  0  0
 58 66  1  0  0  0  0
 59 67  1  0  0  0  0
 60 67  1  0  0  0  0
 61 67  1  0  0  0  0
 62 77  1  0  0  0  0
 63 64  1  0  0  0  0
 63 84  1  0  0  0  0
 64 85  1  0  0  0  0
 65 67  1  0  0  0  0
 65 75  1  0  0  0  0
 66 77  1  0  0  0  0
 68 69  1  0  0  0  0
M  CHG  1  77   1
M  ISO  4  38 100  63 101  76 100  84 101
M  END
> <Batch ID>
0142

> <Smiles>
CNC(C)C(=O)NC(C(=O)N1Cc2cc([101O:1][101CH2:1]COc3ccc(C4CC4)c(C4CCC4[100NH:0][100C:0](=O)N4CCCC(n5nc(-c6ccc(Oc7ccc(F)cc7F)cc6)c(C(N)=O)c5N)C4)c3)ccc2CC1C(=O)NC1CCCc2ccccc21)C(C)(C)C

> <Shape>
0.205

> <Color>
0.098

> <Negative vol penalty>
0.000

$$$$

  -OEChem-04052321183D

 84 93  0     1  0  0  0  0  0999 V2000
  -27.1500  -36.2015   19.0243 C   0  0  0  0  0  0  0  0  0  0  0  0
  -27.8744  -35.0488   18.7380 C   0  0  0  0  0  0  0  0  0  0  0  0
  -24.0619   -9.3241   19.9156 C   0  0  0  0  0  0  0  0  0  0  0  0
  -24.4661   -9.6367   22.2770 C   0  0  0  0  0  0  0  0  0  0  0  0
  -26.4851  -36.3207   20.2439 C   0  0  0  0  0  0  0  0  0  0  0  0
  -27.9351  -34.0149   19.6718 C   0  0  0  0  0  0  0  0  0  0  0  0
  -28.1544  -28.0072   18.5035 C   0  0  0  0  0  0  0  0  0  0  0  0
  -23.6325   -8.0201   20.1617 C   0  0  0  0  0  0  0  0  0  0  0  0
  -24.0367   -8.3326   22.5231 C   0  0  0  0  0  0  0  0  0  0  0  0
  -29.2111  -27.0990   18.4552 C   0  0  0  0  0  0  0  0  0  0  0  0
  -21.0960   -6.6886   22.7881 C   0  0  0  0  0  0  0  0  0  0  0  0
  -20.2239   -6.4861   23.8576 C   0  0  0  0  0  0  0  0  0  0  0  0
  -28.7533  -26.4545   20.7343 C   0  0  0  0  0  0  0  0  0  0  0  0
  -21.8310   -5.0050   24.8876 C   0  0  0  0  0  0  0  0  0  0  0  0
  -24.4788  -10.1325   20.9732 C   0  0  0  0  0  0  0  0  0  0  0  0
  -24.1343  -12.6453   20.7004 C   0  0  0  0  0  0  0  0  0  0  0  0
  -26.5297  -35.2837   21.1892 C   0  0  0  0  0  0  0  0  0  0  0  0
  -27.3948  -28.1539   19.6731 C   0  0  0  0  0  0  0  0  0  0  0  0
  -27.2712  -34.1209   20.9058 C   0  0  0  0  0  0  0  0  0  0  0  0
  -27.6859  -27.3634   20.7940 C   0  0  0  0  0  0  0  0  0  0  0  0
  -23.6199   -7.5243   21.4654 C   0  0  0  0  0  0  0  0  0  0  0  0
  -29.5125  -26.3245   19.5716 C   0  0  0  0  0  0  0  0  0  0  0  0
  -22.3356   -6.0492   22.7682 C   0  0  0  0  0  0  0  0  0  0  0  0
  -20.5914   -5.6444   24.9074 C   0  0  0  0  0  0  0  0  0  0  0  0
  -22.7031   -5.2075   23.8180 C   0  0  0  0  0  0  0  0  0  0  0  0
  -24.9230  -11.4795   20.7196 C   0  0  0  0  0  0  0  0  0  0  0  0
  -25.0208  -13.6551   20.4159 C   0  0  0  0  0  0  0  0  0  0  0  0
  -22.7261  -12.8016   20.9203 C   0  0  0  0  0  0  0  0  0  0  0  0
  -26.8323  -30.5386   21.6981 C   0  0  0  0  0  0  0  0  0  0  0  0
  -24.7476  -28.4226   23.0014 C   0  0  0  0  0  0  0  0  0  0  0  0
  -23.8333  -25.1674   23.4648 C   0  0  0  0  0  0  0  0  0  0  0  0
  -27.4464  -22.6355   20.7641 C   0  0  0  0  0  0  0  0  0  0  0  0
  -30.0870  -15.9156   21.6742 C   0  0  0  0  0  0  0  0  0  0  0  0
  -25.8338  -35.4779   22.5131 C   0  0  0  0  0  0  0  0  0  0  0  0
  -26.2413  -29.1188   19.7003 C   0  0  0  0  0  0  0  0  0  0  0  0
  -26.8881  -27.4683   22.0672 C   0  0  0  0  0  0  0  0  0  0  0  0
  -25.6389  -34.1812   23.2947 C   0  0  0  0  0  0  0  0  0  0  0  0
  -29.8234  -13.5068   18.8691 C   0  0  0  0  0  0  0  0  0  0  0  0
  -26.9278  -33.3653   23.3051 C   0  0  0  0  0  0  0  0  0  0  0  0
  -28.4921  -12.8137   19.1533 C   0  0  0  0  0  0  0  0  0  0  0  0
  -29.9598  -19.3824   21.7204 C   0  0  0  0  0  0  0  0  0  0  0  0
  -28.1889  -18.4718   20.1657 C   0  0  0  0  0  0  0  0  0  0  0  0
  -31.2545  -23.0547   19.8695 C   0  0  0  0  0  0  0  0  0  0  0  0
  -30.4809  -14.0168   20.1475 C   0  0  0  0  0  0  0  0  0  0  0  0
  -29.7377  -18.1750   22.6274 C   0  0  0  0  0  0  0  0  0  0  0  0
  -28.0203  -17.2648   21.0932 C   0  0  0  0  0  0  0  0  0  0  0  0
  -28.2720  -14.2129   21.2451 C   0  0  0  0  0  0  0  0  0  0  0  0
  -27.3403  -32.9673   21.8828 C   0  0  1  0  0  0  0  0  0  0  0  0
  -25.8600  -29.5545   21.1117 C   0  0  1  0  0  0  0  0  0  0  0  0
  -29.7587  -23.0688   19.7159 C   0  0  2  0  0  0  0  0  0  0  0  0
  -27.5633  -13.7268   19.9719 C   0  0  2  0  0  0  0  0  0  0  0  0
  -28.6864  -19.6928   20.9363 C   0  0  0  0  0  0  0  0  0  0  0  0
  -30.4623  -24.2445   20.3395 C   0  0  2  0  0  0  0  0  0  1  0  0
  -22.1064  -23.7499   24.6075 C   0  0  0  0  0  0  0  0  0  0  0  0
  -26.1305  -28.9006   25.6790 C   0  0  0  0  0  0  0  0  0  0  0  0
  -25.0343  -26.8197   26.5374 C   0  0  0  0  0  0  0  0  0  0  0  0
  -23.6371  -28.7519   25.8044 C   0  0  0  0  0  0  0  0  0  0  0  0
  -22.8932  -24.0374   20.8961 C   0  0  0  0  0  0  0  0  0  0  0  0
  -24.8322  -27.3569   24.0673 C   0  0  1  0  0  0  0  0  0  0  0  0
  -22.4936  -24.4676   23.3238 C   0  0  2  0  0  0  0  0  0  0  0  0
  -28.8929  -22.1550   20.5704 C   0  0  2  0  0  0  0  0  0  0  0  0
  -24.9250  -27.9564   25.4988 C   0  0  0  0  0  0  0  0  0  0  0  0
  -26.2115  -11.7245   20.4671 N   0  0  0  0  0  0  0  0  0  0  0  0
  -26.2392  -13.0559   20.2866 N   0  0  0  0  0  0  0  0  0  0  0  0
  -25.7741  -28.4306   22.0464 N   0  0  0  0  0  0  0  0  0  0  0  0
  -29.5637  -14.8434   20.9324 N   0  0  0  0  0  0  0  0  0  0  0  0
  -29.2488  -17.0246   21.8648 N   0  0  0  0  0  0  0  0  0  0  0  0
  -24.8692  -14.9881   20.2661 N   0  0  0  0  0  0  0  0  0  0  0  0
  -21.9630  -11.6601   21.2013 N   0  0  0  0  0  0  0  0  0  0  0  0
  -26.5365  -31.8584   21.4151 N   0  0  0  0  0  0  0  0  0  0  0  0
  -23.6848  -26.4801   23.8599 N   0  0  0  0  0  0  0  0  0  0  0  0
  -28.9634  -20.7929   19.9768 N   0  3  0  0  0  0  0  0  0  0  0  0
  -22.5462  -23.4651   22.2224 N   0  3  0  0  0  0  0  0  0  0  0  0
  -26.7648  -22.8067   19.7159 O   0  5  0  0  0  0  0  0  0  0  0  0
  -22.1585  -13.9182   20.8530 O   0  0  0  0  0  0  0  0  0  0  0  0
  -27.7799  -30.1308   22.3595 O   0  0  0  0  0  0  0  0  0  0  0  0
  -23.8016  -29.2142   23.0116 O   0  0  0  0  0  0  0  0  0  0  0  0
  -24.9046  -24.6048   23.2498 O   0  0  0  0  0  0  0  0  0  0  0  0
  -27.1117  -22.8104   21.9719 O   0  0  0  0  0  0  0  0  0  0  0  0
  -31.2347  -15.8834   22.1357 O   0  0  0  0  0  0  0  0  0  0  0  0
  -23.2007   -6.2519   21.7060 O   0  0  0  0  0  0  0  0  0  0  0  0
  -30.5589  -25.4248   19.5267 O   0  0  0  0  0  0  0  0  0  1  0  0
  -19.7544   -5.4512   25.9352 F   0  0  0  0  0  0  0  0  0  0  0  0
  -23.8931   -4.5915   23.8051 F   0  0  0  0  0  0  0  0  0  0  0  0
  1  2  1  0  0  0  0
  1  5  2  0  0  0  0
  2  6  2  0  0  0  0
  3  8  2  0  0  0  0
  3 15  1  0  0  0  0
  4  9  1  0  0  0  0
  4 15  2  0  0  0  0
  5 17  1  0  0  0  0
  6 19  1  0  0  0  0
  7 10  2  0  0  0  0
  7 18  1  0  0  0  0
  8 21  1  0  0  0  0
  9 21  2  0  0  0  0
 10 22  1  0  0  0  0
 11 12  2  0  0  0  0
 11 23  1  0  0  0  0
 12 24  1  0  0  0  0
 13 20  1  0  0  0  0
 13 22  2  0  0  0  0
 14 24  2  0  0  0  0
 14 25  1  0  0  0  0
 15 26  1  0  0  0  0
 16 26  1  0  0  0  0
 16 27  2  0  0  0  0
 16 28  1  0  0  0  0
 17 19  2  0  0  0  0
 17 34  1  0  0  0  0
 18 20  2  0  0  0  0
 18 35  1  0  0  0  0
 19 48  1  0  0  0  0
 20 36  1  0  0  0  0
 21 81  1  0  0  0  0
 22 82  1  0  0  0  0
 23 25  2  0  0  0  0
 23 81  1  0  0  0  0
 24 83  1  0  0  0  0
 25 84  1  0  0  0  0
 26 63  2  0  0  0  0
 27 64  1  0  0  0  0
 27 68  1  0  0  0  0
 28 69  1  0  0  0  0
 28 75  2  0  0  0  0
 29 49  1  0  0  0  0
 29 70  1  0  0  0  0
 29 76  2  0  0  0  0
 30 59  1  0  0  0  0
 30 65  1  0  0  0  0
 30 77  2  0  0  0  0
 31 60  1  0  0  0  0
 31 71  1  0  0  0  0
 31 78  2  0  0  0  0
 32 61  1  0  0  0  0
 32 74  1  0  0  0  0
 32 79  2  0  0  0  0
 33 66  1  0  0  0  0
 33 67  1  0  0  0  0
 33 80  2  0  0  0  0
 34 37  1  0  0  0  0
 35 49  1  0  0  0  0
 36 65  1  0  0  0  0
 37 39  1  0  0  0  0
 38 40  1  0  0  0  0
 38 44  1  0  0  0  0
 39 48  1  0  0  0  0
 40 51  1  0  0  0  0
 41 45  1  0  0  0  0
 41 52  1  0  0  0  0
 42 46  1  0  0  0  0
 42 52  1  0  0  0  0
 43 50  1  0  0  0  0
 43 53  1  0  0  0  0
 44 66  1  0  0  0  0
 45 67  1  0  0  0  0
 46 67  1  0  0  0  0
 47 51  1  0  0  0  0
 47 66  1  0  0  0  0
 48 70  1  0  0  0  0
 49 65  1  0  0  0  0
 50 53  1  0  0  0  0
 50 61  1  0  0  0  0
 51 64  1  0  0  0  0
 52 72  1  0  0  0  0
 53 82  1  0  0  0  0
 54 60  1  0  0  0  0
 55 62  1  0  0  0  0
 56 62  1  0  0  0  0
 57 62  1  0  0  0  0
 58 73  1  0  0  0  0
 59 62  1  0  0  0  0
 59 71  1  0  0  0  0
 60 73  1  0  0  0  0
 61 72  1  0  0  0  0
 63 64  1  0  0  0  0
M  CHG  3  72   1  73   1  74  -1
M  ISO  4  33 100  53 101  67 100  82 101
M  END
> <Batch ID>
0142

> <Smiles>
CNC(C)C(=O)NC(C(=O)N1Cc2cc([101O:1][101CH:1]3CC3C(NC3CC[100N:0]([100C:0](=O)N4CCCC(n5nc(-c6ccc(Oc7ccc(F)cc7F)cc6)c(C(N)=O)c5N)C4)CC3)C(=O)O)ccc2CC1C(=O)NC1CCCc2ccccc21)C(C)(C)C

> <Shape>
0.315

> <Color>
0.145

> <Negative vol penalty>
0.000

$$$$

  -OEChem-04052321183D

 82 91  0     1  0  0  0  0  0999 V2000
  -32.7676  -33.7125   16.2420 C   0  0  0  0  0  0  0  0  0  0  0  0
  -32.3635  -32.4562   16.6824 C   0  0  0  0  0  0  0  0  0  0  0  0
  -26.6796  -11.7459   21.1808 C   0  0  0  0  0  0  0  0  0  0  0  0
  -26.1600  -13.0004   19.1824 C   0  0  0  0  0  0  0  0  0  0  0  0
  -32.5827  -34.8284   17.0572 C   0  0  0  0  0  0  0  0  0  0  0  0
  -31.7754  -32.3150   17.9388 C   0  0  0  0  0  0  0  0  0  0  0  0
  -27.6820  -29.3350   17.8437 C   0  0  0  0  0  0  0  0  0  0  0  0
  -25.4738  -11.0552   21.0607 C   0  0  0  0  0  0  0  0  0  0  0  0
  -24.9542  -12.3097   19.0623 C   0  0  0  0  0  0  0  0  0  0  0  0
  -27.8975  -27.9584   17.7978 C   0  0  0  0  0  0  0  0  0  0  0  0
  -22.2066  -11.6150   21.7217 C   0  0  0  0  0  0  0  0  0  0  0  0
  -21.4375  -11.4502   22.8736 C   0  0  0  0  0  0  0  0  0  0  0  0
  -27.4866  -27.8210   20.1709 C   0  0  0  0  0  0  0  0  0  0  0  0
  -28.6136  -20.8215   18.3017 C   0  0  0  0  0  0  0  0  0  0  0  0
  -21.5958   -9.0511   22.6361 C   0  0  0  0  0  0  0  0  0  0  0  0
  -27.0227  -12.7186   20.2417 C   0  0  0  0  0  0  0  0  0  0  0  0
  -29.5128  -13.0727   19.8155 C   0  0  0  0  0  0  0  0  0  0  0  0
  -31.9833  -34.7022   18.3202 C   0  0  0  0  0  0  0  0  0  0  0  0
  -27.3774  -29.9677   19.0575 C   0  0  0  0  0  0  0  0  0  0  0  0
  -31.5836  -33.4300   18.7722 C   0  0  0  0  0  0  0  0  0  0  0  0
  -27.2651  -29.2054   20.2291 C   0  0  0  0  0  0  0  0  0  0  0  0
  -29.0230  -23.1374   17.9451 C   0  0  0  0  0  0  0  0  0  0  0  0
  -28.5834  -21.9243   17.4516 C   0  0  0  0  0  0  0  0  0  0  0  0
  -24.6111  -11.3370   20.0015 C   0  0  0  0  0  0  0  0  0  0  0  0
  -27.8027  -27.2016   18.9620 C   0  0  0  0  0  0  0  0  0  0  0  0
  -22.6703  -10.4978   21.0269 C   0  0  0  0  0  0  0  0  0  0  0  0
  -21.1322  -10.1683   23.3308 C   0  0  0  0  0  0  0  0  0  0  0  0
  -22.3649   -9.2159   21.4841 C   0  0  0  0  0  0  0  0  0  0  0  0
  -28.2680  -13.4328   20.3655 C   0  0  0  0  0  0  0  0  0  0  0  0
  -29.4754  -23.2061   19.2583 C   0  0  0  0  0  0  0  0  0  0  0  0
  -29.0884  -20.9930   19.6016 C   0  0  0  0  0  0  0  0  0  0  0  0
  -30.3674  -14.0697   20.2182 C   0  0  0  0  0  0  0  0  0  0  0  0
  -29.8652  -11.9385   19.0124 C   0  0  0  0  0  0  0  0  0  0  0  0
  -28.7737  -32.2032   20.8342 C   0  0  0  0  0  0  0  0  0  0  0  0
  -26.0481  -31.9682   22.5773 C   0  0  0  0  0  0  0  0  0  0  0  0
  -23.3574  -30.0865   23.5080 C   0  0  0  0  0  0  0  0  0  0  0  0
  -29.5361  -19.7814   21.7644 C   0  0  0  0  0  0  0  0  0  0  0  0
  -31.8475  -35.9301   19.1853 C   0  0  0  0  0  0  0  0  0  0  0  0
  -27.1214  -31.4496   19.0855 C   0  0  0  0  0  0  0  0  0  0  0  0
  -26.9207  -29.8336   21.5539 C   0  0  0  0  0  0  0  0  0  0  0  0
  -29.9450  -24.5944   19.5952 C   0  0  0  0  0  0  0  0  0  0  0  0
  -30.8754  -35.7512   20.3486 C   0  0  0  0  0  0  0  0  0  0  0  0
  -31.0303  -17.2331   23.7521 C   0  0  0  0  0  0  0  0  0  0  0  0
  -31.1352  -34.4287   21.0629 C   0  0  0  0  0  0  0  0  0  0  0  0
  -30.6098  -15.9368   23.0556 C   0  0  0  0  0  0  0  0  0  0  0  0
  -29.9228  -18.2845   23.7099 C   0  0  0  0  0  0  0  0  0  0  0  0
  -28.9685  -17.2743   21.6757 C   0  0  0  0  0  0  0  0  0  0  0  0
  -29.1115  -24.4666   17.2548 C   0  0  1  0  0  0  0  0  0  0  0  0
  -30.9193  -33.2400   20.1186 C   0  0  1  0  0  0  0  0  0  0  0  0
  -27.3233  -32.0649   20.4669 C   0  0  1  0  0  0  0  0  0  0  0  0
  -30.0751  -16.2078   21.6357 C   0  0  2  0  0  0  0  0  0  0  0  0
  -29.2953  -25.4133   18.4662 C   0  0  1  0  0  0  0  0  0  1  0  0
  -28.0807  -21.7807   16.0577 C   0  0  0  0  0  0  0  0  0  0  0  0
  -30.2979  -24.5164   16.2990 C   0  0  0  0  0  0  0  0  0  0  0  0
  -21.3222  -30.1494   24.9747 C   0  0  0  0  0  0  0  0  0  0  0  0
  -27.8044  -31.5093   25.0298 C   0  0  0  0  0  0  0  0  0  0  0  0
  -25.7822  -30.6513   26.2310 C   0  0  0  0  0  0  0  0  0  0  0  0
  -25.8412  -33.0091   25.4184 C   0  0  0  0  0  0  0  0  0  0  0  0
  -21.5384  -29.7647   21.1956 C   0  0  0  0  0  0  0  0  0  0  0  0
  -25.5963  -31.1279   23.7472 C   0  0  1  0  0  0  0  0  0  0  0  0
  -21.8770  -30.4139   23.5837 C   0  0  2  0  0  0  0  0  0  0  0  0
  -26.2644  -31.5625   25.0821 C   0  0  0  0  0  0  0  0  0  0  0  0
  -28.3225  -14.5697   21.0644 N   0  0  0  0  0  0  0  0  0  0  0  0
  -29.5300  -22.1684   20.1099 N   0  0  0  0  0  0  0  0  0  0  0  0
  -29.6120  -14.9326   20.9564 N   0  0  0  0  0  0  0  0  0  0  0  0
  -26.6856  -31.2868   21.5309 N   0  0  0  0  0  0  0  0  0  0  0  0
  -29.4690  -18.4918   22.3330 N   0  0  0  0  0  0  0  0  0  0  0  0
  -31.6839  -14.2837   20.0094 N   0  0  0  0  0  0  0  0  0  0  0  0
  -28.8650  -11.0108   18.6909 N   0  0  0  0  0  0  0  0  0  0  0  0
  -29.1078  -19.8503   20.4392 N   0  0  0  0  0  0  0  0  0  0  0  0
  -29.5060  -32.9759   19.9533 N   0  0  0  0  0  0  0  0  0  0  0  0
  -24.1390  -31.1944   23.7590 N   0  0  0  0  0  0  0  0  0  0  0  0
  -21.1129  -29.5864   22.6078 N   0  3  0  0  0  0  0  0  0  0  0  0
  -31.0360  -11.7445   18.6060 O   0  0  0  0  0  0  0  0  0  0  0  0
  -29.1967  -31.6509   21.8431 O   0  0  0  0  0  0  0  0  0  0  0  0
  -25.8365  -33.1834   22.5882 O   0  0  0  0  0  0  0  0  0  0  0  0
  -23.7783  -28.9598   23.2554 O   0  0  0  0  0  0  0  0  0  0  0  0
  -29.9692  -20.7479   22.3972 O   0  0  0  0  0  0  0  0  0  0  0  0
  -23.4344  -10.6631   19.8839 O   0  0  0  0  0  0  0  0  0  0  0  0
  -28.0133  -25.8578   18.9201 O   0  0  0  0  0  0  0  0  0  1  0  0
  -20.3949  -10.0102   24.4379 F   0  0  0  0  0  0  0  0  0  0  0  0
  -22.8085   -8.1388   20.8216 F   0  0  0  0  0  0  0  0  0  0  0  0
  1  2  1  0  0  0  0
  1  5  2  0  0  0  0
  2  6  2  0  0  0  0
  3  8  2  0  0  0  0
  3 16  1  0  0  0  0
  4  9  1  0  0  0  0
  4 16  2  0  0  0  0
  5 18  1  0  0  0  0
  6 20  1  0  0  0  0
  7 10  2  0  0  0  0
  7 19  1  0  0  0  0
  8 24  1  0  0  0  0
  9 24  2  0  0  0  0
 10 25  1  0  0  0  0
 11 12  2  0  0  0  0
 11 26  1  0  0  0  0
 12 27  1  0  0  0  0
 13 21  1  0  0  0  0
 13 25  2  0  0  0  0
 14 23  2  0  0  0  0
 14 31  1  0  0  0  0
 15 27  2  0  0  0  0
 15 28  1  0  0  0  0
 16 29  1  0  0  0  0
 17 29  1  0  0  0  0
 17 32  2  0  0  0  0
 17 33  1  0  0  0  0
 18 20  2  0  0  0  0
 18 38  1  0  0  0  0
 19 21  2  0  0  0  0
 19 39  1  0  0  0  0
 20 49  1  0  0  0  0
 21 40  1  0  0  0  0
 22 23  1  0  0  0  0
 22 30  2  0  0  0  0
 22 48  1  0  0  0  0
 23 53  1  0  0  0  0
 24 79  1  0  0  0  0
 25 80  1  0  0  0  0
 26 28  2  0  0  0  0
 26 79  1  0  0  0  0
 27 81  1  0  0  0  0
 28 82  1  0  0  0  0
 29 63  2  0  0  0  0
 30 41  1  0  0  0  0
 30 64  1  0  0  0  0
 31 64  2  0  0  0  0
 31 70  1  0  0  0  0
 32 65  1  0  0  0  0
 32 68  1  0  0  0  0
 33 69  1  0  0  0  0
 33 74  2  0  0  0  0
 34 50  1  0  0  0  0
 34 71  1  0  0  0  0
 34 75  2  0  0  0  0
 35 60  1  0  0  0  0
 35 66  1  0  0  0  0
 35 76  2  0  0  0  0
 36 61  1  0  0  0  0
 36 72  1  0  0  0  0
 36 77  2  0  0  0  0
 37 67  1  0  0  0  0
 37 70  1  0  0  0  0
 37 78  2  0  0  0  0
 38 42  1  0  0  0  0
 39 50  1  0  0  0  0
 40 66  1  0  0  0  0
 41 52  1  0  0  0  0
 42 44  1  0  0  0  0
 43 45  1  0  0  0  0
 43 46  1  0  0  0  0
 44 49  1  0  0  0  0
 45 51  1  0  0  0  0
 46 67  1  0  0  0  0
 47 51  1  0  0  0  0
 47 67  1  0  0  0  0
 48 52  1  0  0  0  0
 48 54  1  0  0  0  0
 49 71  1  0  0  0  0
 50 66  1  0  0  0  0
 51 65  1  0  0  0  0
 52 80  1  0  0  0  0
 55 61  1  0  0  0  0
 56 62  1  0  0  0  0
 57 62  1  0  0  0  0
 58 62  1  0  0  0  0
 59 73  1  0  0  0  0
 60 62  1  0  0  0  0
 60 72  1  0  0  0  0
 61 73  1  0  0  0  0
 63 65  1  0  0  0  0
M  CHG  1  73   1
M  ISO  4  37 100  52 101  70 100  80 101
M  END
> <Batch ID>
0142

> <Smiles>
CNC(C)C(=O)NC(C(=O)N1Cc2cc([101O:1][101CH:1]3Cc4nc([100NH:0][100C:0](=O)N5CCCC(n6nc(-c7ccc(Oc8ccc(F)cc8F)cc7)c(C(N)=O)c6N)C5)cc(C)c4C3C)ccc2CC1C(=O)NC1CCCc2ccccc21)C(C)(C)C

> <Shape>
0.298

> <Color>
0.081

> <Negative vol penalty>
0.000

$$$$

  -OEChem-04052321183D

 85 94  0     1  0  0  0  0  0999 V2000
  -24.0997   -6.5999   23.6655 C   0  0  0  0  0  0  0  0  0  0  0  0
  -25.2631   -7.3585   23.7465 C   0  0  0  0  0  0  0  0  0  0  0  0
  -26.2534  -32.2206   23.3506 C   0  0  0  0  0  0  0  0  0  0  0  0
  -24.3930  -31.1104   24.4199 C   0  0  0  0  0  0  0  0  0  0  0  0
  -23.1028   -6.9496   22.7557 C   0  0  0  0  0  0  0  0  0  0  0  0
  -25.4306   -8.4666   22.9168 C   0  0  0  0  0  0  0  0  0  0  0  0
  -28.4299  -14.9715   22.8278 C   0  0  0  0  0  0  0  0  0  0  0  0
  -26.5873  -32.8273   24.5614 C   0  0  0  0  0  0  0  0  0  0  0  0
  -24.7269  -31.7170   25.6308 C   0  0  0  0  0  0  0  0  0  0  0  0
  -29.2950  -15.7482   22.0583 C   0  0  0  0  0  0  0  0  0  0  0  0
  -25.5143  -35.4407   26.4170 C   0  0  0  0  0  0  0  0  0  0  0  0
  -25.8243  -36.8004   26.3959 C   0  0  0  0  0  0  0  0  0  0  0  0
  -28.8207  -23.3862   19.6067 C   0  0  0  0  0  0  0  0  0  0  0  0
  -27.4715  -16.3042   20.5802 C   0  0  0  0  0  0  0  0  0  0  0  0
  -28.0239  -36.3124   27.2682 C   0  0  0  0  0  0  0  0  0  0  0  0
  -29.7942  -25.5384   19.3290 C   0  0  0  0  0  0  0  0  0  0  0  0
  -25.1561  -31.3622   23.2799 C   0  0  0  0  0  0  0  0  0  0  0  0
  -24.4634  -31.3766   20.8247 C   0  0  0  0  0  0  0  0  0  0  0  0
  -23.2540   -8.0683   21.9212 C   0  0  0  0  0  0  0  0  0  0  0  0
  -27.0792  -14.8463   22.4724 C   0  0  0  0  0  0  0  0  0  0  0  0
  -24.4354   -8.8308   21.9940 C   0  0  0  0  0  0  0  0  0  0  0  0
  -30.0980  -22.8378   19.5745 C   0  0  0  0  0  0  0  0  0  0  0  0
  -26.5907  -15.5274   21.3483 C   0  0  0  0  0  0  0  0  0  0  0  0
  -28.6573  -24.7614   19.4822 C   0  0  0  0  0  0  0  0  0  0  0  0
  -25.8241  -32.5754   25.7015 C   0  0  0  0  0  0  0  0  0  0  0  0
  -28.8165  -16.4124   20.9327 C   0  0  0  0  0  0  0  0  0  0  0  0
  -26.4590  -34.5167   26.8637 C   0  0  0  0  0  0  0  0  0  0  0  0
  -27.0791  -37.2363   26.8215 C   0  0  0  0  0  0  0  0  0  0  0  0
  -27.7138  -34.9526   27.2893 C   0  0  0  0  0  0  0  0  0  0  0  0
  -24.8103  -30.7358   22.0292 C   0  0  0  0  0  0  0  0  0  0  0  0
  -31.1704  -23.7009   19.4169 C   0  0  0  0  0  0  0  0  0  0  0  0
  -24.2268  -30.3489   19.9448 C   0  0  0  0  0  0  0  0  0  0  0  0
  -24.3641  -32.7757   20.5278 C   0  0  0  0  0  0  0  0  0  0  0  0
  -25.1964  -12.4281   21.6290 C   0  0  0  0  0  0  0  0  0  0  0  0
  -22.8805  -14.6955   21.7611 C   0  0  0  0  0  0  0  0  0  0  0  0
  -22.5159  -18.1477   20.7775 C   0  0  0  0  0  0  0  0  0  0  0  0
  -26.1451  -24.6970   19.6582 C   0  0  0  0  0  0  0  0  0  0  0  0
  -22.1695   -8.3793   20.9204 C   0  0  0  0  0  0  0  0  0  0  0  0
  -26.1530  -14.0262   23.3281 C   0  0  0  0  0  0  0  0  0  0  0  0
  -25.1448  -15.4419   20.9356 C   0  0  0  0  0  0  0  0  0  0  0  0
  -22.2626   -9.7878   20.3393 C   0  0  0  0  0  0  0  0  0  0  0  0
  -22.7607  -25.7916   19.8167 C   0  0  0  0  0  0  0  0  0  0  0  0
  -29.6259  -20.5698   18.5525 C   0  0  0  0  0  0  0  0  0  0  0  0
  -29.7961  -20.8190   21.0721 C   0  0  0  0  0  0  0  0  0  0  0  0
  -23.6965  -10.0997   19.9228 C   0  0  0  0  0  0  0  0  0  0  0  0
  -22.8710  -27.2439   20.2866 C   0  0  0  0  0  0  0  0  0  0  0  0
  -29.8309  -19.0638   18.6941 C   0  0  0  0  0  0  0  0  0  0  0  0
  -30.0008  -19.3117   21.2003 C   0  0  0  0  0  0  0  0  0  0  0  0
  -23.8087  -24.8997   20.4800 C   0  0  0  0  0  0  0  0  0  0  0  0
  -25.3036  -26.8264   20.8300 C   0  0  0  0  0  0  0  0  0  0  0  0
  -30.2890  -21.3381   19.7096 C   0  0  0  0  0  0  0  0  0  0  0  0
  -24.6433  -10.0545   21.1282 C   0  0  1  0  0  0  0  0  0  0  0  0
  -24.9094  -13.5549   22.5807 C   0  0  1  0  0  0  0  0  0  0  0  0
  -24.3102  -27.7758   20.1403 C   0  0  2  0  0  0  0  0  0  0  0  0
  -29.3449  -18.5529   20.0493 C   0  0  0  0  0  0  0  0  0  1  0  0
  -21.0443  -19.9598   21.6985 C   0  0  0  0  0  0  0  0  0  0  0  0
  -20.9427  -13.8379   19.5657 C   0  0  0  0  0  0  0  0  0  0  0  0
  -20.3621  -16.2504   19.2322 C   0  0  0  0  0  0  0  0  0  0  0  0
  -19.9009  -15.1497   21.4227 C   0  0  0  0  0  0  0  0  0  0  0  0
  -24.8217  -19.9436   21.2431 C   0  0  0  0  0  0  0  0  0  0  0  0
  -33.4992  -24.1396   19.2164 C   0  0  0  0  0  0  0  0  0  0  0  0
  -22.2883  -15.6773   20.7790 C   0  0  1  0  0  0  0  0  0  0  0  0
  -22.4382  -19.3517   21.6988 C   0  0  2  0  0  0  0  0  0  0  0  0
  -20.9005  -15.2200   20.2477 C   0  0  0  0  0  0  0  0  0  0  0  0
  -31.0511  -25.0418   19.2930 N   0  0  0  0  0  0  0  0  0  0  0  0
  -24.7963  -29.4041   21.9274 N   0  0  0  0  0  0  0  0  0  0  0  0
  -24.4377  -29.1997   20.6485 N   0  0  0  0  0  0  0  0  0  0  0  0
  -24.2801  -14.6226   21.8008 N   0  0  0  0  0  0  0  0  0  0  0  0
  -25.1477  -25.4640   20.2969 N   0  0  0  0  0  0  0  0  0  0  0  0
  -23.8608  -30.3251   18.6456 N   0  0  0  0  0  0  0  0  0  0  0  0
  -24.6415  -33.6965   21.5474 N   0  0  0  0  0  0  0  0  0  0  0  0
  -27.3686  -25.3497   19.5113 N   0  0  0  0  0  0  0  0  0  0  0  0
  -24.5151  -11.2610   21.9172 N   0  0  0  0  0  0  0  0  0  0  0  0
  -22.2732  -16.9707   21.4537 N   0  0  0  0  0  0  0  0  0  0  0  0
  -23.4075  -20.3980   21.2665 N   0  3  0  0  0  0  0  0  0  0  0  0
  -24.0231  -33.1968   19.3964 O   0  0  0  0  0  0  0  0  0  0  0  0
  -25.9770  -12.6050   20.7010 O   0  0  0  0  0  0  0  0  0  0  0  0
  -22.1291  -14.0234   22.4719 O   0  0  0  0  0  0  0  0  0  0  0  0
  -22.7631  -18.2421   19.5773 O   0  0  0  0  0  0  0  0  0  0  0  0
  -25.9216  -23.5560   19.2458 O   0  0  0  0  0  0  0  0  0  0  0  0
  -26.1499  -33.1670   26.8833 O   0  0  0  0  0  0  0  0  0  0  0  0
  -29.6589  -17.1706   20.1796 O   0  0  0  0  0  0  0  0  0  1  0  0
  -32.4453  -23.1985   19.3804 O   0  0  0  0  0  0  0  0  0  0  0  0
  -27.3773  -38.5420   26.7998 F   0  0  0  0  0  0  0  0  0  0  0  0
  -28.6259  -34.0695   27.7184 F   0  0  0  0  0  0  0  0  0  0  0  0
  1  2  1  0  0  0  0
  1  5  2  0  0  0  0
  2  6  2  0  0  0  0
  3  8  2  0  0  0  0
  3 17  1  0  0  0  0
  4  9  1  0  0  0  0
  4 17  2  0  0  0  0
  5 19  1  0  0  0  0
  6 21  1  0  0  0  0
  7 10  2  0  0  0  0
  7 20  1  0  0  0  0
  8 25  1  0  0  0  0
  9 25  2  0  0  0  0
 10 26  1  0  0  0  0
 11 12  2  0  0  0  0
 11 27  1  0  0  0  0
 12 28  1  0  0  0  0
 13 22  1  0  0  0  0
 13 24  2  0  0  0  0
 14 23  1  0  0  0  0
 14 26  2  0  0  0  0
 15 28  2  0  0  0  0
 15 29  1  0  0  0  0
 16 24  1  0  0  0  0
 16 65  2  0  0  0  0
 17 30  1  0  0  0  0
 18 30  1  0  0  0  0
 18 32  2  0  0  0  0
 18 33  1  0  0  0  0
 19 21  2  0  0  0  0
 19 38  1  0  0  0  0
 20 23  2  0  0  0  0
 20 39  1  0  0  0  0
 21 52  1  0  0  0  0
 22 31  2  0  0  0  0
 22 51  1  0  0  0  0
 23 40  1  0  0  0  0
 24 72  1  0  0  0  0
 25 81  1  0  0  0  0
 26 82  1  0  0  0  0
 27 29  2  0  0  0  0
 27 81  1  0  0  0  0
 28 84  1  0  0  0  0
 29 85  1  0  0  0  0
 30 66  2  0  0  0  0
 31 65  1  0  0  0  0
 31 83  1  0  0  0  0
 32 67  1  0  0  0  0
 32 70  1  0  0  0  0
 33 71  1  0  0  0  0
 33 76  2  0  0  0  0
 34 53  1  0  0  0  0
 34 73  1  0  0  0  0
 34 77  2  0  0  0  0
 35 62  1  0  0  0  0
 35 68  1  0  0  0  0
 35 78  2  0  0  0  0
 36 63  1  0  0  0  0
 36 74  1  0  0  0  0
 36 79  2  0  0  0  0
 37 69  1  0  0  0  0
 37 72  1  0  0  0  0
 37 80  2  0  0  0  0
 38 41  1  0  0  0  0
 39 53  1  0  0  0  0
 40 68  1  0  0  0  0
 41 45  1  0  0  0  0
 42 46  1  0  0  0  0
 42 49  1  0  0  0  0
 43 47  1  0  0  0  0
 43 51  1  0  0  0  0
 44 48  1  0  0  0  0
 44 51  1  0  0  0  0
 45 52  1  0  0  0  0
 46 54  1  0  0  0  0
 47 55  1  0  0  0  0
 48 55  1  0  0  0  0
 49 69  1  0  0  0  0
 50 54  1  0  0  0  0
 50 69  1  0  0  0  0
 52 73  1  0  0  0  0
 53 68  1  0  0  0  0
 54 67  1  0  0  0  0
 55 82  1  0  0  0  0
 56 63  1  0  0  0  0
 57 64  1  0  0  0  0
 58 64  1  0  0  0  0
 59 64  1  0  0  0  0
 60 75  1  0  0  0  0
 61 83  1  0  0  0  0
 62 64  1  0  0  0  0
 62 74  1  0  0  0  0
 63 75  1  0  0  0  0
 66 67  1  0  0  0  0
M  CHG  1  75   1
M  ISO  4  37 100  55 101  72 100  82 101
M  END
> <Batch ID>
0142

> <Smiles>
CNC(C)C(=O)NC(C(=O)N1Cc2cc([101O:1][101CH:1]3CCC(c4cc([100NH:0][100C:0](=O)N5CCCC(n6nc(-c7ccc(Oc8ccc(F)cc8F)cc7)c(C(N)=O)c6N)C5)cnc4OC)CC3)ccc2CC1C(=O)NC1CCCc2ccccc21)C(C)(C)C

> <Shape>
0.252

> <Color>
0.068

> <Negative vol penalty>
0.000

$$$$

  -OEChem-04052321183D

 85 94  0     1  0  0  0  0  0999 V2000
  -17.8351  -26.7239   25.8505 C   0  0  0  0  0  0  0  0  0  0  0  0
  -18.3746  -25.5154   25.4218 C   0  0  0  0  0  0  0  0  0  0  0  0
  -31.9167  -19.9715   20.0666 C   0  0  0  0  0  0  0  0  0  0  0  0
  -30.3241  -20.1153   18.2555 C   0  0  0  0  0  0  0  0  0  0  0  0
  -17.9747  -27.8665   25.0636 C   0  0  0  0  0  0  0  0  0  0  0  0
  -19.0531  -25.4485   24.2054 C   0  0  0  0  0  0  0  0  0  0  0  0
  -23.8962  -21.9424   22.8794 C   0  0  0  0  0  0  0  0  0  0  0  0
  -32.7720  -20.8357   19.3830 C   0  0  0  0  0  0  0  0  0  0  0  0
  -31.1793  -20.9795   17.5720 C   0  0  0  0  0  0  0  0  0  0  0  0
  -24.0160  -20.7166   22.2261 C   0  0  0  0  0  0  0  0  0  0  0  0
  -33.0282  -24.1606   18.8240 C   0  0  0  0  0  0  0  0  0  0  0  0
  -33.6196  -25.1950   19.5490 C   0  0  0  0  0  0  0  0  0  0  0  0
  -23.5847  -11.8880   20.9945 C   0  0  0  0  0  0  0  0  0  0  0  0
  -24.5160  -21.8696   20.1670 C   0  0  0  0  0  0  0  0  0  0  0  0
  -21.6109  -13.8071   21.4464 C   0  0  0  0  0  0  0  0  0  0  0  0
  -35.8072  -24.3268   19.0033 C   0  0  0  0  0  0  0  0  0  0  0  0
  -30.6927  -19.6113   19.5028 C   0  0  0  0  0  0  0  0  0  0  0  0
  -28.7991  -19.0692   21.1239 C   0  0  0  0  0  0  0  0  0  0  0  0
  -18.6636  -27.8156   23.8416 C   0  0  0  0  0  0  0  0  0  0  0  0
  -24.0749  -23.1434   22.1777 C   0  0  0  0  0  0  0  0  0  0  0  0
  -19.2009  -26.5911   23.4008 C   0  0  0  0  0  0  0  0  0  0  0  0
  -22.2885  -11.4913   21.3235 C   0  0  0  0  0  0  0  0  0  0  0  0
  -24.4004  -23.1093   20.8143 C   0  0  0  0  0  0  0  0  0  0  0  0
  -21.3017  -12.4508   21.5494 C   0  0  0  0  0  0  0  0  0  0  0  0
  -23.8940  -13.2443   20.8916 C   0  0  0  0  0  0  0  0  0  0  0  0
  -32.4034  -21.3397   18.1357 C   0  0  0  0  0  0  0  0  0  0  0  0
  -24.3231  -20.6801   20.8691 C   0  0  0  0  0  0  0  0  0  0  0  0
  -33.8263  -23.2092   18.1887 C   0  0  0  0  0  0  0  0  0  0  0  0
  -22.9071  -14.2038   21.1175 C   0  0  0  0  0  0  0  0  0  0  0  0
  -35.0091  -25.2782   19.6387 C   0  0  0  0  0  0  0  0  0  0  0  0
  -35.2157  -23.2923   18.2783 C   0  0  0  0  0  0  0  0  0  0  0  0
  -29.8090  -18.7182   20.2082 C   0  0  0  0  0  0  0  0  0  0  0  0
  -28.2522  -17.8695   21.5085 C   0  0  0  0  0  0  0  0  0  0  0  0
  -28.3917  -20.3641   21.5856 C   0  0  0  0  0  0  0  0  0  0  0  0
  -22.2348  -25.6487   21.5140 C   0  0  0  0  0  0  0  0  0  0  0  0
  -24.9861  -26.8520   20.2874 C   0  0  0  0  0  0  0  0  0  0  0  0
  -28.0753  -26.2525   18.9668 C   0  0  0  0  0  0  0  0  0  0  0  0
  -26.3018  -12.7957   20.3021 C   0  0  0  0  0  0  0  0  0  0  0  0
  -18.7478  -29.0665   23.0032 C   0  0  0  0  0  0  0  0  0  0  0  0
  -23.9686  -24.4568   22.9029 C   0  0  0  0  0  0  0  0  0  0  0  0
  -24.6221  -24.3698   20.0202 C   0  0  0  0  0  0  0  0  0  0  0  0
  -19.8053  -28.9934   21.9047 C   0  0  0  0  0  0  0  0  0  0  0  0
  -29.8238  -13.1251   20.7068 C   0  0  0  0  0  0  0  0  0  0  0  0
  -22.2786   -9.1380   20.2577 C   0  0  0  0  0  0  0  0  0  0  0  0
  -20.8589   -9.4626   20.6031 C   0  0  0  0  0  0  0  0  0  0  0  0
  -19.7084  -27.6669   21.1579 C   0  0  0  0  0  0  0  0  0  0  0  0
  -30.0509  -14.6385   20.6885 C   0  0  0  0  0  0  0  0  0  0  0  0
  -28.7201  -12.7054   19.7376 C   0  0  0  0  0  0  0  0  0  0  0  0
  -27.6733  -14.9308   19.8831 C   0  0  0  0  0  0  0  0  0  0  0  0
  -21.9798  -10.0346   21.4295 C   0  0  0  0  0  0  0  0  0  0  0  0
  -19.9652  -26.4838   22.0991 C   0  0  1  0  0  0  0  0  0  0  0  0
  -23.6647  -25.6289   21.9748 C   0  0  1  0  0  0  0  0  0  0  0  0
  -28.7313  -15.4088   20.8909 C   0  0  2  0  0  0  0  0  0  0  0  0
  -19.9062  -12.0521   21.9028 C   0  0  0  0  0  0  0  0  0  0  0  0
  -30.3637  -26.7616   18.0715 C   0  0  0  0  0  0  0  0  0  0  0  0
  -23.4626  -27.3539   17.6919 C   0  0  0  0  0  0  0  0  0  0  0  0
  -25.6653  -27.6240   16.5328 C   0  0  0  0  0  0  0  0  0  0  0  0
  -25.0189  -29.1938   18.3605 C   0  0  0  0  0  0  0  0  0  0  0  0
  -29.2781  -26.1688   21.6696 C   0  0  0  0  0  0  0  0  0  0  0  0
  -23.2843  -17.4685   19.5810 C   0  0  0  0  0  0  0  0  0  0  0  0
  -23.6506  -18.4037   20.7227 C   0  0  0  0  0  0  0  0  0  1  0  0
  -22.4573  -16.2849   20.0581 C   0  0  0  0  0  0  0  0  0  0  0  0
  -25.6598  -26.8171   18.9369 C   0  0  1  0  0  0  0  0  0  0  0  0
  -29.4355  -26.8533   19.2726 C   0  0  2  0  0  0  0  0  0  0  0  0
  -24.9456  -27.7233   17.8947 C   0  0  0  0  0  0  0  0  0  0  0  0
  -29.9005  -17.3987   20.0223 N   0  0  0  0  0  0  0  0  0  0  0  0
  -28.9412  -16.9101   20.8266 N   0  0  0  0  0  0  0  0  0  0  0  0
  -24.5008  -25.6294   20.7727 N   0  0  0  0  0  0  0  0  0  0  0  0
  -27.4995  -13.4738   19.9916 N   0  0  0  0  0  0  0  0  0  0  0  0
  -27.2540  -17.5521   22.3602 N   0  0  0  0  0  0  0  0  0  0  0  0
  -29.0599  -21.4913   21.0884 N   0  0  0  0  0  0  0  0  0  0  0  0
  -25.2150  -13.6317   20.5560 N   0  0  0  0  0  0  0  0  0  0  0  0
  -21.3824  -26.3393   22.3542 N   0  0  0  0  0  0  0  0  0  0  0  0
  -27.0583  -27.1613   19.1693 N   0  0  0  0  0  0  0  0  0  0  0  0
  -30.0725  -26.1385   20.4146 N   0  3  0  0  0  0  0  0  0  0  0  0
  -27.4737  -20.5159   22.4268 O   0  0  0  0  0  0  0  0  0  0  0  0
  -21.9277  -25.0809   20.4723 O   0  0  0  0  0  0  0  0  0  0  0  0
  -24.9002  -27.9234   20.8928 O   0  0  0  0  0  0  0  0  0  0  0  0
  -27.9299  -25.0941   18.5827 O   0  0  0  0  0  0  0  0  0  0  0  0
  -26.2511  -11.5647   20.3668 O   0  0  0  0  0  0  0  0  0  0  0  0
  -33.2376  -22.1832   17.4686 O   0  0  0  0  0  0  0  0  0  0  0  0
  -24.4400  -19.4850   20.2289 O   0  0  0  0  0  0  0  0  0  1  0  0
  -23.1905  -15.5414   21.0221 O   0  0  0  0  0  0  0  0  0  0  0  0
  -35.5769  -26.2725   20.3337 F   0  0  0  0  0  0  0  0  0  0  0  0
  -35.9877  -22.3819   17.6691 F   0  0  0  0  0  0  0  0  0  0  0  0
  1  2  1  0  0  0  0
  1  5  2  0  0  0  0
  2  6  2  0  0  0  0
  3  8  2  0  0  0  0
  3 17  1  0  0  0  0
  4  9  1  0  0  0  0
  4 17  2  0  0  0  0
  5 19  1  0  0  0  0
  6 21  1  0  0  0  0
  7 10  2  0  0  0  0
  7 20  1  0  0  0  0
  8 26  1  0  0  0  0
  9 26  2  0  0  0  0
 10 27  1  0  0  0  0
 11 12  2  0  0  0  0
 11 28  1  0  0  0  0
 12 30  1  0  0  0  0
 13 22  2  0  0  0  0
 13 25  1  0  0  0  0
 14 23  1  0  0  0  0
 14 27  2  0  0  0  0
 15 24  2  0  0  0  0
 15 29  1  0  0  0  0
 16 30  2  0  0  0  0
 16 31  1  0  0  0  0
 17 32  1  0  0  0  0
 18 32  1  0  0  0  0
 18 33  2  0  0  0  0
 18 34  1  0  0  0  0
 19 21  2  0  0  0  0
 19 39  1  0  0  0  0
 20 23  2  0  0  0  0
 20 40  1  0  0  0  0
 21 51  1  0  0  0  0
 22 24  1  0  0  0  0
 22 50  1  0  0  0  0
 23 41  1  0  0  0  0
 24 54  1  0  0  0  0
 25 29  2  0  0  0  0
 25 72  1  0  0  0  0
 26 81  1  0  0  0  0
 27 82  1  0  0  0  0
 28 31  2  0  0  0  0
 28 81  1  0  0  0  0
 29 83  1  0  0  0  0
 30 84  1  0  0  0  0
 31 85  1  0  0  0  0
 32 66  2  0  0  0  0
 33 67  1  0  0  0  0
 33 70  1  0  0  0  0
 34 71  1  0  0  0  0
 34 76  2  0  0  0  0
 35 52  1  0  0  0  0
 35 73  1  0  0  0  0
 35 77  2  0  0  0  0
 36 63  1  0  0  0  0
 36 68  1  0  0  0  0
 36 78  2  0  0  0  0
 37 64  1  0  0  0  0
 37 74  1  0  0  0  0
 37 79  2  0  0  0  0
 38 69  1  0  0  0  0
 38 72  1  0  0  0  0
 38 80  2  0  0  0  0
 39 42  1  0  0  0  0
 40 52  1  0  0  0  0
 41 68  1  0  0  0  0
 42 46  1  0  0  0  0
 43 47  1  0  0  0  0
 43 48  1  0  0  0  0
 44 45  1  0  0  0  0
 44 50  1  0  0  0  0
 45 50  1  0  0  0  0
 46 51  1  0  0  0  0
 47 53  1  0  0  0  0
 48 69  1  0  0  0  0
 49 53  1  0  0  0  0
 49 69  1  0  0  0  0
 51 73  1  0  0  0  0
 52 68  1  0  0  0  0
 53 67  1  0  0  0  0
 55 64  1  0  0  0  0
 56 65  1  0  0  0  0
 57 65  1  0  0  0  0
 58 65  1  0  0  0  0
 59 75  1  0  0  0  0
 60 61  1  0  0  0  0
 60 62  1  0  0  0  0
 61 82  1  0  0  0  0
 62 83  1  0  0  0  0
 63 65  1  0  0  0  0
 63 74  1  0  0  0  0
 64 75  1  0  0  0  0
 66 67  1  0  0  0  0
M  CHG  1  75   1
M  ISO  4  38 100  61 101  72 100  82 101
M  END
> <Batch ID>
0142

> <Smiles>
CNC(C)C(=O)NC(C(=O)N1Cc2cc([101O:1][101CH2:1]CCOc3cc(C)c(C4CC4)cc3[100NH:0][100C:0](=O)N3CCCC(n4nc(-c5ccc(Oc6ccc(F)cc6F)cc5)c(C(N)=O)c4N)C3)ccc2CC1C(=O)NC1CCCc2ccccc21)C(C)(C)C

> <Shape>
0.224

> <Color>
0.057

> <Negative vol penalty>
0.000

$$$$

  -OEChem-04052321183D

 89 98  0     1  0  0  0  0  0999 V2000
  -18.8446  -28.0514   23.3204 C   0  0  0  0  0  0  0  0  0  0  0  0
  -20.1779  -28.1104   23.7134 C   0  0  0  0  0  0  0  0  0  0  0  0
  -26.1680  -12.7579   21.7296 C   0  0  0  0  0  0  0  0  0  0  0  0
  -25.9976  -12.8366   19.3209 C   0  0  0  0  0  0  0  0  0  0  0  0
  -18.4921  -27.3734   22.1543 C   0  0  0  0  0  0  0  0  0  0  0  0
  -21.1593  -27.4903   22.9409 C   0  0  0  0  0  0  0  0  0  0  0  0
  -25.2427  -30.4110   22.2773 C   0  0  0  0  0  0  0  0  0  0  0  0
  -24.9862  -12.0196   21.7891 C   0  0  0  0  0  0  0  0  0  0  0  0
  -24.8156  -12.0982   19.3804 C   0  0  0  0  0  0  0  0  0  0  0  0
  -26.1429  -30.4975   23.3384 C   0  0  0  0  0  0  0  0  0  0  0  0
  -21.6648  -12.6160   21.5958 C   0  0  0  0  0  0  0  0  0  0  0  0
  -20.7177  -12.9862   22.5505 C   0  0  0  0  0  0  0  0  0  0  0  0
  -29.5880  -25.4192   25.1381 C   0  0  0  0  0  0  0  0  0  0  0  0
  -28.1726  -23.6311   25.9357 C   0  0  0  0  0  0  0  0  0  0  0  0
  -27.5729  -28.8893   22.2486 C   0  0  0  0  0  0  0  0  0  0  0  0
  -28.6340  -25.5311   27.3550 C   0  0  0  0  0  0  0  0  0  0  0  0
  -20.8730  -10.7942   23.5546 C   0  0  0  0  0  0  0  0  0  0  0  0
  -26.6737  -13.1665   20.4954 C   0  0  0  0  0  0  0  0  0  0  0  0
  -29.2054  -13.4289   20.3239 C   0  0  0  0  0  0  0  0  0  0  0  0
  -19.4708  -26.7529   21.3620 C   0  0  0  0  0  0  0  0  0  0  0  0
  -25.4960  -29.5533   21.1972 C   0  0  0  0  0  0  0  0  0  0  0  0
  -20.8193  -26.8021   21.7637 C   0  0  0  0  0  0  0  0  0  0  0  0
  -28.9624  -24.1898   24.9309 C   0  0  0  0  0  0  0  0  0  0  0  0
  -26.6757  -28.7956   21.1737 C   0  0  0  0  0  0  0  0  0  0  0  0
  -29.4238  -26.0898   26.3502 C   0  0  0  0  0  0  0  0  0  0  0  0
  -24.3100  -11.6897   20.6146 C   0  0  0  0  0  0  0  0  0  0  0  0
  -27.3068  -29.7345   23.3256 C   0  0  0  0  0  0  0  0  0  0  0  0
  -22.2160  -11.3348   21.6204 C   0  0  0  0  0  0  0  0  0  0  0  0
  -28.0083  -24.3017   27.1478 C   0  0  0  0  0  0  0  0  0  0  0  0
  -20.3218  -12.0753   23.5299 C   0  0  0  0  0  0  0  0  0  0  0  0
  -21.8201  -10.4240   22.5998 C   0  0  0  0  0  0  0  0  0  0  0  0
  -27.8943  -13.9297   20.4333 C   0  0  0  0  0  0  0  0  0  0  0  0
  -30.0002  -14.5489   20.3034 C   0  0  0  0  0  0  0  0  0  0  0  0
  -29.6639  -12.0726   20.2476 C   0  0  0  0  0  0  0  0  0  0  0  0
  -24.0322  -27.0214   19.9521 C   0  0  0  0  0  0  0  0  0  0  0  0
  -26.3159  -27.3123   17.6668 C   0  0  0  0  0  0  0  0  0  0  0  0
  -29.4181  -28.4383   16.7978 C   0  0  0  0  0  0  0  0  0  0  0  0
  -29.3016  -19.9238   22.4899 C   0  0  0  0  0  0  0  0  0  0  0  0
  -19.0359  -25.9914   20.1350 C   0  0  0  0  0  0  0  0  0  0  0  0
  -24.5280  -29.4914   20.0476 C   0  0  0  0  0  0  0  0  0  0  0  0
  -27.0041  -27.8749   20.0280 C   0  0  0  0  0  0  0  0  0  0  0  0
  -20.1803  -25.6802   19.1738 C   0  0  0  0  0  0  0  0  0  0  0  0
  -29.9700  -19.1529   19.0531 C   0  0  0  0  0  0  0  0  0  0  0  0
  -21.3834  -25.1332   19.9356 C   0  0  0  0  0  0  0  0  0  0  0  0
  -29.6046  -17.6716   19.0020 C   0  0  0  0  0  0  0  0  0  0  0  0
  -27.8339  -23.2211   22.8543 C   0  0  0  0  0  0  0  0  0  0  0  0
  -29.0342  -19.9508   19.9634 C   0  0  0  0  0  0  0  0  0  0  0  0
  -28.2349  -22.1457   21.8548 C   0  0  0  0  0  0  0  0  0  0  0  0
  -28.5445  -17.9059   21.2751 C   0  0  0  0  0  0  0  0  0  0  0  0
  -29.1412  -23.4641   23.6186 C   0  0  2  0  0  0  0  0  0  0  0  0
  -21.9157  -26.1631   20.9392 C   0  0  1  0  0  0  0  0  0  0  0  0
  -24.6375  -28.1998   19.2431 C   0  0  1  0  0  0  0  0  0  0  0  0
  -29.5184  -17.0829   20.4196 C   0  0  1  0  0  0  0  0  0  0  0  0
  -29.7375  -22.0443   23.7391 C   0  0  2  0  0  0  0  0  0  0  0  0
  -31.0254  -28.4941   14.8714 C   0  0  0  0  0  0  0  0  0  0  0  0
  -31.8197  -20.7932   24.3760 C   0  0  0  0  0  0  0  0  0  0  0  0
  -31.8036  -22.2421   22.3257 C   0  0  0  0  0  0  0  0  0  0  0  0
  -27.0093  -24.3828   18.1637 C   0  0  0  0  0  0  0  0  0  0  0  0
  -29.1676  -24.7604   16.9523 C   0  0  0  0  0  0  0  0  0  0  0  0
  -26.9991  -25.0585   15.7558 C   0  0  0  0  0  0  0  0  0  0  0  0
  -29.4013  -31.3968   16.7187 C   0  0  0  0  0  0  0  0  0  0  0  0
  -26.6281  -22.4969   27.8501 C   0  0  0  0  0  0  0  0  0  0  0  0
  -30.0930  -27.4038   26.5725 C   0  0  0  0  0  0  0  0  0  0  0  0
  -29.2538  -28.6204   26.1505 C   0  0  0  0  0  0  0  0  0  0  0  0
  -28.9529  -28.6507   24.6566 C   0  0  0  0  0  0  0  0  0  1  0  0
  -27.7116  -26.7699   17.4750 C   0  0  1  0  0  0  0  0  0  0  0  0
  -29.9035  -29.2243   15.5932 C   0  0  2  0  0  0  0  0  0  0  0  0
  -31.2639  -22.0678   23.7439 C   0  0  0  0  0  0  0  0  0  0  0  0
  -27.7151  -25.2587   17.1094 C   0  0  0  0  0  0  0  0  0  0  0  0
  -27.8541  -15.2640   20.4792 N   0  0  0  0  0  0  0  0  0  0  0  0
  -29.1499  -15.6111   20.3983 N   0  0  0  0  0  0  0  0  0  0  0  0
  -26.0232  -27.8444   18.9305 N   0  0  0  0  0  0  0  0  0  0  0  0
  -28.9122  -19.3245   21.2852 N   0  0  0  0  0  0  0  0  0  0  0  0
  -29.1970  -21.3147   22.5815 N   0  0  0  0  0  0  0  0  0  0  0  0
  -31.3364  -14.7190   20.2136 N   0  0  0  0  0  0  0  0  0  0  0  0
  -28.7135  -11.0431   20.2820 N   0  0  0  0  0  0  0  0  0  0  0  0
  -22.6938  -27.1762   20.2591 N   0  0  0  0  0  0  0  0  0  0  0  0
  -28.3495  -27.6266   16.4812 N   0  0  0  0  0  0  0  0  0  0  0  0
  -30.4087  -30.5610   16.0162 N   0  3  0  0  0  0  0  0  0  0  0  0
  -30.8815  -11.7816   20.1683 O   0  0  0  0  0  0  0  0  0  0  0  0
  -24.7276  -26.0435   20.2007 O   0  0  0  0  0  0  0  0  0  0  0  0
  -25.5171  -27.2721   16.7277 O   0  0  0  0  0  0  0  0  0  0  0  0
  -29.9376  -28.5321   17.9077 O   0  0  0  0  0  0  0  0  0  0  0  0
  -29.6956  -19.2468   23.4485 O   0  0  0  0  0  0  0  0  0  0  0  0
  -23.1568  -10.9690   20.6723 O   0  0  0  0  0  0  0  0  0  0  0  0
  -27.2379  -23.7563   28.1285 O   0  0  0  0  0  0  0  0  0  0  0  0
  -28.1930  -29.8172   24.3676 O   0  0  0  0  0  0  0  0  0  1  0  0
  -19.4134  -12.4315   24.4476 F   0  0  0  0  0  0  0  0  0  0  0  0
  -22.3470   -9.1922   22.6293 F   0  0  0  0  0  0  0  0  0  0  0  0
  1  2  1  0  0  0  0
  1  5  2  0  0  0  0
  2  6  2  0  0  0  0
  3  8  2  0  0  0  0
  3 18  1  0  0  0  0
  4  9  1  0  0  0  0
  4 18  2  0  0  0  0
  5 20  1  0  0  0  0
  6 22  1  0  0  0  0
  7 10  2  0  0  0  0
  7 21  1  0  0  0  0
  8 26  1  0  0  0  0
  9 26  2  0  0  0  0
 10 27  1  0  0  0  0
 11 12  2  0  0  0  0
 11 28  1  0  0  0  0
 12 30  1  0  0  0  0
 13 23  1  0  0  0  0
 13 25  2  0  0  0  0
 14 23  2  0  0  0  0
 14 29  1  0  0  0  0
 15 24  1  0  0  0  0
 15 27  2  0  0  0  0
 16 25  1  0  0  0  0
 16 29  2  0  0  0  0
 17 30  2  0  0  0  0
 17 31  1  0  0  0  0
 18 32  1  0  0  0  0
 19 32  1  0  0  0  0
 19 33  2  0  0  0  0
 19 34  1  0  0  0  0
 20 22  2  0  0  0  0
 20 39  1  0  0  0  0
 21 24  2  0  0  0  0
 21 40  1  0  0  0  0
 22 51  1  0  0  0  0
 23 50  1  0  0  0  0
 24 41  1  0  0  0  0
 25 63  1  0  0  0  0
 26 85  1  0  0  0  0
 27 87  1  0  0  0  0
 28 31  2  0  0  0  0
 28 85  1  0  0  0  0
 29 86  1  0  0  0  0
 30 88  1  0  0  0  0
 31 89  1  0  0  0  0
 32 70  2  0  0  0  0
 33 71  1  0  0  0  0
 33 75  1  0  0  0  0
 34 76  1  0  0  0  0
 34 80  2  0  0  0  0
 35 52  1  0  0  0  0
 35 77  1  0  0  0  0
 35 81  2  0  0  0  0
 36 66  1  0  0  0  0
 36 72  1  0  0  0  0
 36 82  2  0  0  0  0
 37 67  1  0  0  0  0
 37 78  1  0  0  0  0
 37 83  2  0  0  0  0
 38 73  1  0  0  0  0
 38 74  1  0  0  0  0
 38 84  2  0  0  0  0
 39 42  1  0  0  0  0
 40 52  1  0  0  0  0
 41 72  1  0  0  0  0
 42 44  1  0  0  0  0
 43 45  1  0  0  0  0
 43 47  1  0  0  0  0
 44 51  1  0  0  0  0
 45 53  1  0  0  0  0
 46 48  1  0  0  0  0
 46 50  1  0  0  0  0
 47 73  1  0  0  0  0
 48 74  1  0  0  0  0
 49 53  1  0  0  0  0
 49 73  1  0  0  0  0
 50 54  1  0  0  0  0
 51 77  1  0  0  0  0
 52 72  1  0  0  0  0
 53 71  1  0  0  0  0
 54 68  1  0  0  0  0
 54 74  1  0  0  0  0
 55 67  1  0  0  0  0
 56 68  1  0  0  0  0
 57 68  1  0  0  0  0
 58 69  1  0  0  0  0
 59 69  1  0  0  0  0
 60 69  1  0  0  0  0
 61 79  1  0  0  0  0
 62 86  1  0  0  0  0
 63 64  1  0  0  0  0
 64 65  1  0  0  0  0
 65 87  1  0  0  0  0
 66 69  1  0  0  0  0
 66 78  1  0  0  0  0
 67 79  1  0  0  0  0
 70 71  1  0  0  0  0
M  CHG  1  79   1
M  ISO  4  38 100  65 101  74 100  87 101
M  END
> <Batch ID>
0142

> <Smiles>
CNC(C)C(=O)NC(C(=O)N1Cc2cc([101O:1][101CH2:1]CCc3cc(OC)cc(C4CC[100N:0]([100C:0](=O)N5CCCC(n6nc(-c7ccc(Oc8ccc(F)cc8F)cc7)c(C(N)=O)c6N)C5)C4C(C)C)c3)ccc2CC1C(=O)NC1CCCc2ccccc21)C(C)(C)C

> <Shape>
0.248

> <Color>
0.062

> <Negative vol penalty>
0.000

$$$$

  -OEChem-04052321183D

 89 98  0     1  0  0  0  0  0999 V2000
  -22.4846   -6.7709   27.4277 C   0  0  0  0  0  0  0  0  0  0  0  0
  -22.8743   -8.0460   27.0308 C   0  0  0  0  0  0  0  0  0  0  0  0
  -30.0591  -18.0816   20.3851 C   0  0  0  0  0  0  0  0  0  0  0  0
  -23.2865   -9.8000   19.9129 C   0  0  0  0  0  0  0  0  0  0  0  0
  -23.7351   -9.9417   22.2827 C   0  0  0  0  0  0  0  0  0  0  0  0
  -22.6453   -6.3756   28.7550 C   0  0  0  0  0  0  0  0  0  0  0  0
  -23.4239   -8.9271   27.9614 C   0  0  0  0  0  0  0  0  0  0  0  0
  -27.5164  -11.3238   26.1860 C   0  0  0  0  0  0  0  0  0  0  0  0
  -31.4445  -17.8950   20.4113 C   0  0  0  0  0  0  0  0  0  0  0  0
  -29.2203  -17.4093   21.2777 C   0  0  0  0  0  0  0  0  0  0  0  0
  -22.5594   -8.6279   20.1206 C   0  0  0  0  0  0  0  0  0  0  0  0
  -23.0079   -8.7696   22.4904 C   0  0  0  0  0  0  0  0  0  0  0  0
  -27.3015  -12.3903   25.3140 C   0  0  0  0  0  0  0  0  0  0  0  0
  -19.4765   -7.7695   21.2122 C   0  0  0  0  0  0  0  0  0  0  0  0
  -18.2481   -7.6452   20.5633 C   0  0  0  0  0  0  0  0  0  0  0  0
  -27.6401  -13.9380   27.1331 C   0  0  0  0  0  0  0  0  0  0  0  0
  -19.0498   -5.6714   19.4237 C   0  0  0  0  0  0  0  0  0  0  0  0
  -31.1310  -16.3207   22.2755 C   0  0  0  0  0  0  0  0  0  0  0  0
  -23.8744  -10.4569   20.9939 C   0  0  0  0  0  0  0  0  0  0  0  0
  -24.1351  -12.9867   20.7942 C   0  0  0  0  0  0  0  0  0  0  0  0
  -23.2061   -7.2489   29.7003 C   0  0  0  0  0  0  0  0  0  0  0  0
  -27.7845  -11.5566   27.5426 C   0  0  0  0  0  0  0  0  0  0  0  0
  -23.5911   -8.5436   29.3030 C   0  0  0  0  0  0  0  0  0  0  0  0
  -27.8606  -12.8729   28.0197 C   0  0  0  0  0  0  0  0  0  0  0  0
  -32.0192  -15.5381   23.0595 C   0  0  0  0  0  0  0  0  0  0  0  0
  -31.9322  -17.0087   21.3699 C   0  0  0  0  0  0  0  0  0  0  0  0
  -22.4201   -8.1127   21.4093 C   0  0  0  0  0  0  0  0  0  0  0  0
  -27.3605  -13.6975   25.7881 C   0  0  0  0  0  0  0  0  0  0  0  0
  -29.7406  -16.5234   22.2311 C   0  0  0  0  0  0  0  0  0  0  0  0
  -20.4917   -6.8448   20.9668 C   0  0  0  0  0  0  0  0  0  0  0  0
  -18.0347   -6.5961   19.6691 C   0  0  0  0  0  0  0  0  0  0  0  0
  -20.2783   -5.7958   20.0726 C   0  0  0  0  0  0  0  0  0  0  0  0
  -24.6261  -11.6674   20.7800 C   0  0  0  0  0  0  0  0  0  0  0  0
  -33.2848  -15.7974   22.5868 C   0  0  0  0  0  0  0  0  0  0  0  0
  -25.2372  -13.7659   20.5399 C   0  0  0  0  0  0  0  0  0  0  0  0
  -22.8021  -13.4650   21.0175 C   0  0  0  0  0  0  0  0  0  0  0  0
  -26.3363  -10.8181   30.2741 C   0  0  0  0  0  0  0  0  0  0  0  0
  -29.0077  -12.1074   31.5871 C   0  0  0  0  0  0  0  0  0  0  0  0
  -31.6677  -14.2200   31.2585 C   0  0  0  0  0  0  0  0  0  0  0  0
  -31.1070  -12.9207   21.3657 C   0  0  0  0  0  0  0  0  0  0  0  0
  -23.3164   -6.7933   31.1338 C   0  0  0  0  0  0  0  0  0  0  0  0
  -28.0405  -10.3961   28.4647 C   0  0  0  0  0  0  0  0  0  0  0  0
  -28.1652  -13.1769   29.4631 C   0  0  0  0  0  0  0  0  0  0  0  0
  -24.2527   -7.6555   31.9766 C   0  0  0  0  0  0  0  0  0  0  0  0
  -29.4614  -13.6592   18.2959 C   0  0  0  0  0  0  0  0  0  0  0  0
  -23.9704   -9.1362   31.7424 C   0  0  0  0  0  0  0  0  0  0  0  0
  -27.9913  -13.3515   18.5858 C   0  0  0  0  0  0  0  0  0  0  0  0
  -30.3936  -12.6797   19.0057 C   0  0  0  0  0  0  0  0  0  0  0  0
  -28.7051  -12.2521   20.7492 C   0  0  0  0  0  0  0  0  0  0  0  0
  -24.2141   -9.5193   30.2777 C   0  0  1  0  0  0  0  0  0  0  0  0
  -27.7971  -10.7342   29.9323 C   0  0  1  0  0  0  0  0  0  0  0  0
  -27.7282  -13.2474   20.1001 C   0  0  2  0  0  0  0  0  0  0  0  0
  -37.0451  -12.6549   21.4434 C   0  0  0  0  0  0  0  0  0  0  0  0
  -33.6575  -15.0922   32.5144 C   0  0  0  0  0  0  0  0  0  0  0  0
  -27.1775  -13.9188   33.2240 C   0  0  0  0  0  0  0  0  0  0  0  0
  -29.1617  -15.3652   33.7126 C   0  0  0  0  0  0  0  0  0  0  0  0
  -29.1289  -12.9936   34.4851 C   0  0  0  0  0  0  0  0  0  0  0  0
  -33.5557  -13.1171   29.2640 C   0  0  0  0  0  0  0  0  0  0  0  0
  -31.6649  -14.6252   24.1633 C   0  0  0  0  0  0  0  0  0  0  0  0
  -34.6213  -15.3123   22.9637 C   0  0  0  0  0  0  0  0  0  0  0  0
  -36.5428  -13.7218   22.4030 C   0  0  0  0  0  0  0  0  0  0  0  0
  -35.1733  -14.2546   21.9817 C   0  0  0  0  0  0  0  0  0  0  0  0
  -31.6666  -13.1355   23.7740 C   0  0  0  0  0  0  0  0  0  0  0  0
  -27.8238  -15.9634   25.2340 C   0  0  0  0  0  0  0  0  0  1  0  0
  -28.0951  -16.7038   23.9387 C   0  0  0  0  0  0  0  0  0  0  0  0
  -29.4232  -13.4914   32.0239 C   0  0  1  0  0  0  0  0  0  0  0  0
  -33.1453  -14.0323   31.5515 C   0  0  2  0  0  0  0  0  0  0  0  0
  -28.7152  -13.9368   33.3345 C   0  0  0  0  0  0  0  0  0  0  0  0
  -25.9379  -11.6080   20.5357 N   0  0  0  0  0  0  0  0  0  0  0  0
  -26.2806  -12.8997   20.3941 N   0  0  0  0  0  0  0  0  0  0  0  0
  -28.4017  -12.0082   30.3267 N   0  0  0  0  0  0  0  0  0  0  0  0
  -30.0929  -12.6293   20.4385 N   0  0  0  0  0  0  0  0  0  0  0  0
  -25.4058  -15.1007   20.4289 N   0  0  0  0  0  0  0  0  0  0  0  0
  -21.7889  -12.5287   21.2645 N   0  0  0  0  0  0  0  0  0  0  0  0
  -25.6316   -9.6569   30.0203 N   0  0  0  0  0  0  0  0  0  0  0  0
  -30.8795  -13.4729   32.1081 N   0  0  0  0  0  0  0  0  0  0  0  0
  -30.7360  -12.8560   22.7032 N   0  0  0  0  0  0  0  0  0  0  0  0
  -33.9381  -14.1185   30.2926 N   0  3  0  0  0  0  0  0  0  0  0  0
  -22.5148  -14.6856   20.9822 O   0  0  0  0  0  0  0  0  0  0  0  0
  -25.8826  -11.8587   30.7354 O   0  0  0  0  0  0  0  0  0  0  0  0
  -29.2196  -11.1485   32.3337 O   0  0  0  0  0  0  0  0  0  0  0  0
  -31.2539  -14.9586   30.3675 O   0  0  0  0  0  0  0  0  0  0  0  0
  -32.2565  -13.2218   21.0265 O   0  0  0  0  0  0  0  0  0  0  0  0
  -33.2428  -16.6881   21.5617 O   0  0  0  0  0  0  0  0  0  0  0  0
  -21.7104   -6.9692   21.6123 O   0  0  0  0  0  0  0  0  0  0  0  0
  -27.1504  -14.7402   24.9393 O   0  0  0  0  0  0  0  0  0  1  0  0
  -28.8886  -15.8819   23.0912 O   0  0  0  0  0  0  0  0  0  0  0  0
  -16.8544   -6.4759   19.0472 F   0  0  0  0  0  0  0  0  0  0  0  0
  -21.2493   -4.9037   19.8336 F   0  0  0  0  0  0  0  0  0  0  0  0
  1  2  1  0  0  0  0
  1  6  2  0  0  0  0
  2  7  2  0  0  0  0
  3  9  2  0  0  0  0
  3 10  1  0  0  0  0
  4 11  2  0  0  0  0
  4 19  1  0  0  0  0
  5 12  1  0  0  0  0
  5 19  2  0  0  0  0
  6 21  1  0  0  0  0
  7 23  1  0  0  0  0
  8 13  2  0  0  0  0
  8 22  1  0  0  0  0
  9 26  1  0  0  0  0
 10 29  2  0  0  0  0
 11 27  1  0  0  0  0
 12 27  2  0  0  0  0
 13 28  1  0  0  0  0
 14 15  2  0  0  0  0
 14 30  1  0  0  0  0
 15 31  1  0  0  0  0
 16 24  1  0  0  0  0
 16 28  2  0  0  0  0
 17 31  2  0  0  0  0
 17 32  1  0  0  0  0
 18 25  1  0  0  0  0
 18 26  2  0  0  0  0
 18 29  1  0  0  0  0
 19 33  1  0  0  0  0
 20 33  1  0  0  0  0
 20 35  2  0  0  0  0
 20 36  1  0  0  0  0
 21 23  2  0  0  0  0
 21 41  1  0  0  0  0
 22 24  2  0  0  0  0
 22 42  1  0  0  0  0
 23 50  1  0  0  0  0
 24 43  1  0  0  0  0
 25 34  2  0  0  0  0
 25 59  1  0  0  0  0
 26 84  1  0  0  0  0
 27 85  1  0  0  0  0
 28 86  1  0  0  0  0
 29 87  1  0  0  0  0
 30 32  2  0  0  0  0
 30 85  1  0  0  0  0
 31 88  1  0  0  0  0
 32 89  1  0  0  0  0
 33 69  2  0  0  0  0
 34 60  1  0  0  0  0
 34 84  1  0  0  0  0
 35 70  1  0  0  0  0
 35 73  1  0  0  0  0
 36 74  1  0  0  0  0
 36 79  2  0  0  0  0
 37 51  1  0  0  0  0
 37 75  1  0  0  0  0
 37 80  2  0  0  0  0
 38 66  1  0  0  0  0
 38 71  1  0  0  0  0
 38 81  2  0  0  0  0
 39 67  1  0  0  0  0
 39 76  1  0  0  0  0
 39 82  2  0  0  0  0
 40 72  1  0  0  0  0
 40 77  1  0  0  0  0
 40 83  2  0  0  0  0
 41 44  1  0  0  0  0
 42 51  1  0  0  0  0
 43 71  1  0  0  0  0
 44 46  1  0  0  0  0
 45 47  1  0  0  0  0
 45 48  1  0  0  0  0
 46 50  1  0  0  0  0
 47 52  1  0  0  0  0
 48 72  1  0  0  0  0
 49 52  1  0  0  0  0
 49 72  1  0  0  0  0
 50 75  1  0  0  0  0
 51 71  1  0  0  0  0
 52 70  1  0  0  0  0
 53 61  1  0  0  0  0
 54 67  1  0  0  0  0
 55 68  1  0  0  0  0
 56 68  1  0  0  0  0
 57 68  1  0  0  0  0
 58 78  1  0  0  0  0
 59 63  1  0  0  0  0
 60 62  1  0  0  0  0
 61 62  1  0  0  0  0
 63 77  1  0  0  0  0
 64 65  1  0  0  0  0
 64 86  1  0  0  0  0
 65 87  1  0  0  0  0
 66 68  1  0  0  0  0
 66 76  1  0  0  0  0
 67 78  1  0  0  0  0
 69 70  1  0  0  0  0
M  CHG  1  78   1
M  ISO  4  40 100  64 101  77 100  86 101
M  END
> <Batch ID>
0142

> <Smiles>
CCCCc1oc2cccc(OC[101CH2:1][101O:1]c3ccc4c(c3)CN(C(=O)C(NC(=O)C(C)NC)C(C)(C)C)C(C(=O)NC3CCCc5ccccc53)C4)c2c1CC[100NH:0][100C:0](=O)N1CCCC(n2nc(-c3ccc(Oc4ccc(F)cc4F)cc3)c(C(N)=O)c2N)C1

> <Shape>
0.152

> <Color>
0.167

> <Negative vol penalty>
0.000

$$$$

  -OEChem-04052321182D

  0  0  0     0  0  0  0  0  0999 V2000
M  END
$$$$

  -OEChem-04052321183D

 91100  0     1  0  0  0  0  0999 V2000
  -17.0053  -30.5655   24.4808 C   0  0  0  0  0  0  0  0  0  0  0  0
  -18.2488  -30.5407   25.1040 C   0  0  0  0  0  0  0  0  0  0  0  0
  -24.6641   -9.0584   22.0207 C   0  0  0  0  0  0  0  0  0  0  0  0
  -23.4273   -9.6145   20.0212 C   0  0  0  0  0  0  0  0  0  0  0  0
  -16.8100  -29.8683   23.2893 C   0  0  0  0  0  0  0  0  0  0  0  0
  -19.2975  -29.8176   24.5367 C   0  0  0  0  0  0  0  0  0  0  0  0
  -26.4246  -29.9453   23.8261 C   0  0  0  0  0  0  0  0  0  0  0  0
  -23.5390   -8.4166   22.5381 C   0  0  0  0  0  0  0  0  0  0  0  0
  -22.3022   -8.9726   20.5386 C   0  0  0  0  0  0  0  0  0  0  0  0
  -27.5415  -29.1351   24.0255 C   0  0  0  0  0  0  0  0  0  0  0  0
  -21.9629   -5.4508   22.1469 C   0  0  0  0  0  0  0  0  0  0  0  0
  -22.1448   -4.2017   22.7404 C   0  0  0  0  0  0  0  0  0  0  0  0
  -27.1102  -28.0335   21.9232 C   0  0  0  0  0  0  0  0  0  0  0  0
  -29.0453  -23.6291   20.1831 C   0  0  0  0  0  0  0  0  0  0  0  0
  -21.2824   -5.0666   24.8250 C   0  0  0  0  0  0  0  0  0  0  0  0
  -24.6082   -9.6574   20.7622 C   0  0  0  0  0  0  0  0  0  0  0  0
  -26.7874   -9.7507   19.4392 C   0  0  0  0  0  0  0  0  0  0  0  0
  -17.8595  -29.1442   22.7020 C   0  0  0  0  0  0  0  0  0  0  0  0
  -25.6344  -29.7980   22.6770 C   0  0  0  0  0  0  0  0  0  0  0  0
  -19.1157  -29.1089   23.3370 C   0  0  0  0  0  0  0  0  0  0  0  0
  -25.9852  -28.8448   21.7104 C   0  0  0  0  0  0  0  0  0  0  0  0
  -27.9864  -23.2932   21.0194 C   0  0  0  0  0  0  0  0  0  0  0  0
  -28.0275  -23.6517   22.3621 C   0  0  0  0  0  0  0  0  0  0  0  0
  -22.3580   -8.3736   21.7971 C   0  0  0  0  0  0  0  0  0  0  0  0
  -27.8828  -28.1771   23.0754 C   0  0  0  0  0  0  0  0  0  0  0  0
  -21.4408   -6.5078   22.8925 C   0  0  0  0  0  0  0  0  0  0  0  0
  -21.8045   -4.0096   24.0794 C   0  0  0  0  0  0  0  0  0  0  0  0
  -21.1005   -6.3157   24.2315 C   0  0  0  0  0  0  0  0  0  0  0  0
  -25.7699  -10.3211   20.2274 C   0  0  0  0  0  0  0  0  0  0  0  0
  -30.1134  -24.3185   20.7342 C   0  0  0  0  0  0  0  0  0  0  0  0
  -29.1413  -24.3399   22.8157 C   0  0  0  0  0  0  0  0  0  0  0  0
  -27.6525  -10.7884   19.1917 C   0  0  0  0  0  0  0  0  0  0  0  0
  -26.9370   -8.4033   18.9725 C   0  0  0  0  0  0  0  0  0  0  0  0
  -22.6045  -29.0123   22.1239 C   0  0  0  0  0  0  0  0  0  0  0  0
  -23.3791  -29.7515   19.0619 C   0  0  0  0  0  0  0  0  0  0  0  0
  -25.8080  -30.0871   16.6882 C   0  0  0  0  0  0  0  0  0  0  0  0
  -27.0349  -16.5289   18.8464 C   0  0  0  0  0  0  0  0  0  0  0  0
  -17.5873  -28.3674   21.4382 C   0  0  0  0  0  0  0  0  0  0  0  0
  -24.4481  -30.6979   22.4641 C   0  0  0  0  0  0  0  0  0  0  0  0
  -25.1815  -28.6606   20.4500 C   0  0  0  0  0  0  0  0  0  0  0  0
  -18.8542  -27.9321   20.7061 C   0  0  0  0  0  0  0  0  0  0  0  0
  -29.2175  -14.8964   21.0653 C   0  0  0  0  0  0  0  0  0  0  0  0
  -19.8559  -27.3285   21.6854 C   0  0  0  0  0  0  0  0  0  0  0  0
  -28.6764  -13.4676   21.0274 C   0  0  0  0  0  0  0  0  0  0  0  0
  -25.9466  -19.5978   20.1782 C   0  0  0  0  0  0  0  0  0  0  0  0
  -28.0940  -15.9345   21.0716 C   0  0  0  0  0  0  0  0  0  0  0  0
  -27.0993  -18.5987   20.3047 C   0  0  0  0  0  0  0  0  0  0  0  0
  -27.5236  -18.7521   17.8706 C   0  0  0  0  0  0  0  0  0  0  0  0
  -26.5825  -14.3459   19.9264 C   0  0  0  0  0  0  0  0  0  0  0  0
  -20.2847  -28.3562   22.7396 C   0  0  1  0  0  0  0  0  0  0  0  0
  -23.4186  -30.1119   21.5028 C   0  0  1  0  0  0  0  0  0  0  0  0
  -26.1066  -20.5549   18.9832 C   0  0  2  0  0  0  0  0  0  0  0  0
  -26.3604  -19.7374   17.6923 C   0  0  1  0  0  0  0  0  0  0  0  0
  -27.6889  -13.2815   19.8617 C   0  0  2  0  0  0  0  0  0  0  0  0
  -26.8992  -23.3002   23.2749 C   0  0  0  0  0  0  0  0  0  0  0  0
  -31.2671  -24.6963   19.8663 C   0  0  0  0  0  0  0  0  0  0  0  0
  -26.5861  -20.6160   16.4618 C   0  0  0  0  0  0  0  0  0  0  0  0
  -25.7040  -23.5150   20.0036 C   0  0  0  0  0  0  0  0  0  0  0  0
  -26.1307  -30.6679   14.2682 C   0  0  0  0  0  0  0  0  0  0  0  0
  -22.3294  -26.9998   18.2641 C   0  0  0  0  0  0  0  0  0  0  0  0
  -23.5228  -27.2553   16.0780 C   0  0  0  0  0  0  0  0  0  0  0  0
  -21.7062  -28.8481   16.6989 C   0  0  0  0  0  0  0  0  0  0  0  0
  -27.5155  -32.4111   17.3536 C   0  0  0  0  0  0  0  0  0  0  0  0
  -27.1793  -21.6111   19.2749 C   0  0  0  0  0  0  0  0  0  0  0  0
  -30.0409  -25.7432   24.6724 C   0  0  0  0  0  0  0  0  0  0  0  0
  -29.3274  -27.0836   24.6160 C   0  0  0  0  0  0  0  0  0  1  0  0
  -26.8010  -22.5378   20.4435 C   0  0  1  0  0  0  0  0  0  0  0  0
  -23.9346  -28.9862   17.8851 C   0  0  1  0  0  0  0  0  0  0  0  0
  -26.0981  -31.1968   15.6937 C   0  0  2  0  0  0  0  0  0  0  0  0
  -22.8875  -28.0243   17.2561 C   0  0  0  0  0  0  0  0  0  0  0  0
  -25.9690  -11.6204   20.4650 N   0  0  0  0  0  0  0  0  0  0  0  0
  -30.1890  -24.6839   22.0336 N   0  0  0  0  0  0  0  0  0  0  0  0
  -27.1215  -11.8749   19.8224 N   0  0  0  0  0  0  0  0  0  0  0  0
  -24.0270  -29.5602   20.2905 N   0  0  0  0  0  0  0  0  0  0  0  0
  -27.1557  -15.6929   19.9666 N   0  0  0  0  0  0  0  0  0  0  0  0
  -27.3141  -17.8912   19.0357 N   0  0  0  0  0  0  0  0  0  0  0  0
  -28.8080  -10.8683   18.4983 N   0  0  0  0  0  0  0  0  0  0  0  0
  -25.9565   -7.4636   19.3186 N   0  0  0  0  0  0  0  0  0  0  0  0
  -29.1898  -24.7081   24.1836 N   0  0  0  0  0  0  0  0  0  0  0  0
  -21.2499  -29.2793   22.1822 N   0  0  0  0  0  0  0  0  0  0  0  0
  -24.4602  -29.9846   16.9603 N   0  0  0  0  0  0  0  0  0  0  0  0
  -27.4151  -31.8276   15.9911 N   0  3  0  0  0  0  0  0  0  0  0  0
  -27.9198   -8.0395   18.2831 O   0  0  0  0  0  0  0  0  0  0  0  0
  -23.1637  -27.9962   22.5195 O   0  0  0  0  0  0  0  0  0  0  0  0
  -22.4107  -30.4972   18.8956 O   0  0  0  0  0  0  0  0  0  0  0  0
  -26.6886  -29.3794   17.1721 O   0  0  0  0  0  0  0  0  0  0  0  0
  -26.6974  -16.0847   17.7419 O   0  0  0  0  0  0  0  0  0  0  0  0
  -21.2600   -7.7471   22.3016 O   0  0  0  0  0  0  0  0  0  0  0  0
  -28.9798  -27.3790   23.2691 O   0  0  0  0  0  0  0  0  0  1  0  0
  -21.9778   -2.8096   24.6488 F   0  0  0  0  0  0  0  0  0  0  0  0
  -20.5974   -7.3271   24.9525 F   0  0  0  0  0  0  0  0  0  0  0  0
  1  2  1  0  0  0  0
  1  5  2  0  0  0  0
  2  6  2  0  0  0  0
  3  8  2  0  0  0  0
  3 16  1  0  0  0  0
  4  9  1  0  0  0  0
  4 16  2  0  0  0  0
  5 18  1  0  0  0  0
  6 20  1  0  0  0  0
  7 10  2  0  0  0  0
  7 19  1  0  0  0  0
  8 24  1  0  0  0  0
  9 24  2  0  0  0  0
 10 25  1  0  0  0  0
 11 12  2  0  0  0  0
 11 26  1  0  0  0  0
 12 27  1  0  0  0  0
 13 21  1  0  0  0  0
 13 25  2  0  0  0  0
 14 22  2  0  0  0  0
 14 30  1  0  0  0  0
 15 27  2  0  0  0  0
 15 28  1  0  0  0  0
 16 29  1  0  0  0  0
 17 29  1  0  0  0  0
 17 32  2  0  0  0  0
 17 33  1  0  0  0  0
 18 20  2  0  0  0  0
 18 38  1  0  0  0  0
 19 21  2  0  0  0  0
 19 39  1  0  0  0  0
 20 50  1  0  0  0  0
 21 40  1  0  0  0  0
 22 23  1  0  0  0  0
 22 67  1  0  0  0  0
 23 31  2  0  0  0  0
 23 55  1  0  0  0  0
 24 88  1  0  0  0  0
 25 89  1  0  0  0  0
 26 28  2  0  0  0  0
 26 88  1  0  0  0  0
 27 90  1  0  0  0  0
 28 91  1  0  0  0  0
 29 71  2  0  0  0  0
 30 56  1  0  0  0  0
 30 72  2  0  0  0  0
 31 72  1  0  0  0  0
 31 79  1  0  0  0  0
 32 73  1  0  0  0  0
 32 77  1  0  0  0  0
 33 78  1  0  0  0  0
 33 83  2  0  0  0  0
 34 51  1  0  0  0  0
 34 80  1  0  0  0  0
 34 84  2  0  0  0  0
 35 68  1  0  0  0  0
 35 74  1  0  0  0  0
 35 85  2  0  0  0  0
 36 69  1  0  0  0  0
 36 81  1  0  0  0  0
 36 86  2  0  0  0  0
 37 75  1  0  0  0  0
 37 76  1  0  0  0  0
 37 87  2  0  0  0  0
 38 41  1  0  0  0  0
 39 51  1  0  0  0  0
 40 74  1  0  0  0  0
 41 43  1  0  0  0  0
 42 44  1  0  0  0  0
 42 46  1  0  0  0  0
 43 50  1  0  0  0  0
 44 54  1  0  0  0  0
 45 47  1  0  0  0  0
 45 52  1  0  0  0  0
 46 75  1  0  0  0  0
 47 76  1  0  0  0  0
 48 53  1  0  0  0  0
 48 76  1  0  0  0  0
 49 54  1  0  0  0  0
 49 75  1  0  0  0  0
 50 80  1  0  0  0  0
 51 74  1  0  0  0  0
 52 53  1  0  0  0  0
 52 64  1  0  0  0  0
 53 57  1  0  0  0  0
 54 73  1  0  0  0  0
 58 67  1  0  0  0  0
 59 69  1  0  0  0  0
 60 70  1  0  0  0  0
 61 70  1  0  0  0  0
 62 70  1  0  0  0  0
 63 82  1  0  0  0  0
 64 67  1  0  0  0  0
 65 66  1  0  0  0  0
 65 79  1  0  0  0  0
 66 89  1  0  0  0  0
 68 70  1  0  0  0  0
 68 81  1  0  0  0  0
 69 82  1  0  0  0  0
 71 73  1  0  0  0  0
M  CHG  1  82   1
M  ISO  4  37 100  66 101  76 100  89 101
M  END
> <Batch ID>
0142

> <Smiles>
CNC(C)C(=O)NC(C(=O)N1Cc2cc([101O:1][101CH2:1]CNc3nc(C)cc(C(C)CC4CC[100N:0]([100C:0](=O)N5CCCC(n6nc(-c7ccc(Oc8ccc(F)cc8F)cc7)c(C(N)=O)c6N)C5)CC4C)c3C)ccc2CC1C(=O)NC1CCCc2ccccc21)C(C)(C)C

> <Shape>
0.277

> <Color>
0.115

> <Negative vol penalty>
0.000

$$$$

  -OEChem-04052321183D

 87 96  0     1  0  0  0  0  0999 V2000
  -20.2285  -28.1695   23.2738 C   0  0  0  0  0  0  0  0  0  0  0  0
  -20.8466  -26.9278   23.3809 C   0  0  0  0  0  0  0  0  0  0  0  0
  -28.4881  -23.3976   19.9071 C   0  0  0  0  0  0  0  0  0  0  0  0
  -30.5077  -22.9416   18.6619 C   0  0  0  0  0  0  0  0  0  0  0  0
  -19.2331  -28.3713   22.3186 C   0  0  0  0  0  0  0  0  0  0  0  0
  -20.4689  -25.8867   22.5335 C   0  0  0  0  0  0  0  0  0  0  0  0
  -24.0886  -21.5156   20.2320 C   0  0  0  0  0  0  0  0  0  0  0  0
  -26.6033  -12.1319   22.7314 C   0  0  0  0  0  0  0  0  0  0  0  0
  -28.9045  -24.7147   20.1002 C   0  0  0  0  0  0  0  0  0  0  0  0
  -30.9241  -24.2588   18.8550 C   0  0  0  0  0  0  0  0  0  0  0  0
  -24.3268  -20.1966   20.6158 C   0  0  0  0  0  0  0  0  0  0  0  0
  -26.9522  -11.0898   23.5904 C   0  0  0  0  0  0  0  0  0  0  0  0
  -31.0536  -26.3778   22.1103 C   0  0  0  0  0  0  0  0  0  0  0  0
  -30.9198  -26.9180   23.3893 C   0  0  0  0  0  0  0  0  0  0  0  0
  -22.6967  -19.4404   19.0064 C   0  0  0  0  0  0  0  0  0  0  0  0
  -28.5537  -10.2889   21.9683 C   0  0  0  0  0  0  0  0  0  0  0  0
  -29.4707  -28.6398   22.5105 C   0  0  0  0  0  0  0  0  0  0  0  0
  -29.2897  -22.5110   19.1879 C   0  0  0  0  0  0  0  0  0  0  0  0
  -28.0899  -20.6494   17.9220 C   0  0  0  0  0  0  0  0  0  0  0  0
  -18.8498  -27.3350   21.4526 C   0  0  0  0  0  0  0  0  0  0  0  0
  -23.1432  -21.8082   19.2385 C   0  0  0  0  0  0  0  0  0  0  0  0
  -19.4666  -26.0745   21.5667 C   0  0  0  0  0  0  0  0  0  0  0  0
  -27.2295  -12.2524   21.4907 C   0  0  0  0  0  0  0  0  0  0  0  0
  -22.4503  -20.7637   18.6100 C   0  0  0  0  0  0  0  0  0  0  0  0
  -28.2047  -11.3310   21.1093 C   0  0  0  0  0  0  0  0  0  0  0  0
  -30.1225  -25.1454   19.5742 C   0  0  0  0  0  0  0  0  0  0  0  0
  -23.6287  -19.1589   20.0050 C   0  0  0  0  0  0  0  0  0  0  0  0
  -27.9274  -10.1684   23.2089 C   0  0  0  0  0  0  0  0  0  0  0  0
  -30.3959  -26.9686   21.0313 C   0  0  0  0  0  0  0  0  0  0  0  0
  -30.1284  -28.0490   23.5894 C   0  0  0  0  0  0  0  0  0  0  0  0
  -29.6045  -28.0996   21.2315 C   0  0  0  0  0  0  0  0  0  0  0  0
  -28.8603  -21.1501   18.9885 C   0  0  0  0  0  0  0  0  0  0  0  0
  -27.9563  -19.3098   18.1942 C   0  0  0  0  0  0  0  0  0  0  0  0
  -27.5439  -21.3340   16.7866 C   0  0  0  0  0  0  0  0  0  0  0  0
  -20.4271  -23.4566   19.1425 C   0  0  0  0  0  0  0  0  0  0  0  0
  -20.6114  -22.8265   15.9658 C   0  0  0  0  0  0  0  0  0  0  0  0
  -21.8084  -20.8257   13.4737 C   0  0  0  0  0  0  0  0  0  0  0  0
  -30.1437  -14.5125   19.6599 C   0  0  0  0  0  0  0  0  0  0  0  0
  -17.7359  -27.5869   20.4675 C   0  0  0  0  0  0  0  0  0  0  0  0
  -22.9172  -23.2343   18.8172 C   0  0  0  0  0  0  0  0  0  0  0  0
  -21.4396  -21.0232   17.5239 C   0  0  0  0  0  0  0  0  0  0  0  0
  -17.6561  -26.5416   19.3579 C   0  0  0  0  0  0  0  0  0  0  0  0
  -29.0703  -16.6677   22.3618 C   0  0  0  0  0  0  0  0  0  0  0  0
  -17.7577  -25.1356   19.9407 C   0  0  0  0  0  0  0  0  0  0  0  0
  -28.8559  -17.9924   21.6274 C   0  0  0  0  0  0  0  0  0  0  0  0
  -25.8100  -13.1269   19.5157 C   0  0  0  0  0  0  0  0  0  0  0  0
  -30.2762  -15.9162   21.8058 C   0  0  0  0  0  0  0  0  0  0  0  0
  -30.0077  -16.9865   19.6022 C   0  0  0  0  0  0  0  0  0  0  0  0
  -26.8428  -13.3684   20.5942 C   0  0  1  0  0  0  0  0  0  0  0  0
  -19.1017  -24.9277   20.6491 C   0  0  1  0  0  0  0  0  0  0  0  0
  -21.5602  -23.4540   18.1557 C   0  0  1  0  0  0  0  0  0  0  0  0
  -28.7894  -17.7835   20.1029 C   0  0  2  0  0  0  0  0  0  0  0  0
  -25.4550  -13.9608   20.7084 C   0  0  1  0  0  0  0  0  0  0  0  0
  -21.7587  -20.5407   10.9810 C   0  0  0  0  0  0  0  0  0  0  0  0
  -17.7859  -21.6905   16.1545 C   0  0  0  0  0  0  0  0  0  0  0  0
  -18.1556  -20.5889   13.9369 C   0  0  0  0  0  0  0  0  0  0  0  0
  -18.2194  -23.0760   14.1181 C   0  0  0  0  0  0  0  0  0  0  0  0
  -24.7396  -21.1735   13.2590 C   0  0  0  0  0  0  0  0  0  0  0  0
  -27.5895   -9.0892   25.3011 C   0  0  0  0  0  0  0  0  0  0  0  0
  -28.8910  -11.4391   19.7870 C   0  0  0  0  0  0  0  0  0  0  0  0
  -30.2958  -12.0452   19.8745 C   0  0  0  0  0  0  0  0  0  0  0  0
  -24.9050  -16.1751   21.7248 C   0  0  0  0  0  0  0  0  0  0  0  0
  -24.8291  -17.6544   21.4019 C   0  0  0  0  0  0  0  0  0  1  0  0
  -20.1272  -21.7148   15.0665 C   0  0  1  0  0  0  0  0  0  0  0  0
  -22.4963  -21.1542   12.1609 C   0  0  2  0  0  0  0  0  0  0  0  0
  -18.5896  -21.7625   14.8408 C   0  0  0  0  0  0  0  0  0  0  0  0
  -29.1927  -20.2056   19.8725 N   0  0  0  0  0  0  0  0  0  0  0  0
  -28.6284  -19.0979   19.3619 N   0  0  0  0  0  0  0  0  0  0  0  0
  -21.2494  -22.4348   17.1513 N   0  0  0  0  0  0  0  0  0  0  0  0
  -30.1418  -15.7341   20.3536 N   0  0  0  0  0  0  0  0  0  0  0  0
  -27.3307  -18.3043   17.5462 N   0  0  0  0  0  0  0  0  0  0  0  0
  -27.7764  -22.7104   16.6610 N   0  0  0  0  0  0  0  0  0  0  0  0
  -20.1531  -24.6992   19.6812 N   0  0  0  0  0  0  0  0  0  0  0  0
  -20.9141  -21.8085   13.8417 N   0  0  0  0  0  0  0  0  0  0  0  0
  -30.2821  -13.3741   20.4444 N   0  0  0  0  0  0  0  0  0  0  0  0
  -25.3162  -15.4287   20.5090 N   0  3  0  0  0  0  0  0  0  0  0  0
  -23.8930  -20.6344   12.1637 N   0  3  0  0  0  0  0  0  0  0  0  0
  -26.8561  -20.7457   15.9181 O   0  0  0  0  0  0  0  0  0  0  0  0
  -19.8436  -22.4091   19.3952 O   0  0  0  0  0  0  0  0  0  0  0  0
  -20.4367  -23.9992   15.6254 O   0  0  0  0  0  0  0  0  0  0  0  0
  -22.0385  -19.7980   14.1073 O   0  0  0  0  0  0  0  0  0  0  0  0
  -30.0253  -14.4411   18.4319 O   0  0  0  0  0  0  0  0  0  0  0  0
  -30.5291  -26.4306   19.7623 O   0  0  0  0  0  0  0  0  0  0  0  0
  -28.2685   -9.1523   24.0478 O   0  0  0  0  0  0  0  0  0  0  0  0
  -23.8588  -17.8706   20.3782 O   0  0  0  0  0  0  0  0  0  1  0  0
  -29.9988  -28.5668   24.8179 F   0  0  0  0  0  0  0  0  0  0  0  0
  -28.9693  -28.6709   20.1990 F   0  0  0  0  0  0  0  0  0  0  0  0
  1  2  1  0  0  0  0
  1  5  2  0  0  0  0
  2  6  2  0  0  0  0
  3  9  2  0  0  0  0
  3 18  1  0  0  0  0
  4 10  1  0  0  0  0
  4 18  2  0  0  0  0
  5 20  1  0  0  0  0
  6 22  1  0  0  0  0
  7 11  2  0  0  0  0
  7 21  1  0  0  0  0
  8 12  2  0  0  0  0
  8 23  1  0  0  0  0
  9 26  1  0  0  0  0
 10 26  2  0  0  0  0
 11 27  1  0  0  0  0
 12 28  1  0  0  0  0
 13 14  2  0  0  0  0
 13 29  1  0  0  0  0
 14 30  1  0  0  0  0
 15 24  1  0  0  0  0
 15 27  2  0  0  0  0
 16 25  1  0  0  0  0
 16 28  2  0  0  0  0
 17 30  2  0  0  0  0
 17 31  1  0  0  0  0
 18 32  1  0  0  0  0
 19 32  1  0  0  0  0
 19 33  2  0  0  0  0
 19 34  1  0  0  0  0
 20 22  2  0  0  0  0
 20 39  1  0  0  0  0
 21 24  2  0  0  0  0
 21 40  1  0  0  0  0
 22 50  1  0  0  0  0
 23 25  2  0  0  0  0
 23 49  1  0  0  0  0
 24 41  1  0  0  0  0
 25 60  1  0  0  0  0
 26 83  1  0  0  0  0
 27 85  1  0  0  0  0
 28 84  1  0  0  0  0
 29 31  2  0  0  0  0
 29 83  1  0  0  0  0
 30 86  1  0  0  0  0
 31 87  1  0  0  0  0
 32 67  2  0  0  0  0
 33 68  1  0  0  0  0
 33 71  1  0  0  0  0
 34 72  1  0  0  0  0
 34 78  2  0  0  0  0
 35 51  1  0  0  0  0
 35 73  1  0  0  0  0
 35 79  2  0  0  0  0
 36 64  1  0  0  0  0
 36 69  1  0  0  0  0
 36 80  2  0  0  0  0
 37 65  1  0  0  0  0
 37 74  1  0  0  0  0
 37 81  2  0  0  0  0
 38 70  1  0  0  0  0
 38 75  1  0  0  0  0
 38 82  2  0  0  0  0
 39 42  1  0  0  0  0
 40 51  1  0  0  0  0
 41 69  1  0  0  0  0
 42 44  1  0  0  0  0
 43 45  1  0  0  0  0
 43 47  1  0  0  0  0
 44 50  1  0  0  0  0
 45 52  1  0  0  0  0
 46 49  1  0  0  0  0
 46 53  1  0  0  0  0
 47 70  1  0  0  0  0
 48 52  1  0  0  0  0
 48 70  1  0  0  0  0
 49 53  1  0  0  0  0
 50 73  1  0  0  0  0
 51 69  1  0  0  0  0
 52 68  1  0  0  0  0
 53 76  1  0  0  0  0
 54 65  1  0  0  0  0
 55 66  1  0  0  0  0
 56 66  1  0  0  0  0
 57 66  1  0  0  0  0
 58 77  1  0  0  0  0
 59 84  1  0  0  0  0
 60 61  1  0  0  0  0
 61 75  1  0  0  0  0
 62 63  1  0  0  0  0
 62 76  1  0  0  0  0
 63 85  1  0  0  0  0
 64 66  1  0  0  0  0
 64 74  1  0  0  0  0
 65 77  1  0  0  0  0
 67 68  1  0  0  0  0
M  CHG  2  76   1  77   1
M  ISO  4  38 100  63 101  75 100  85 101
M  END
> <Batch ID>
0142

> <Smiles>
CNC(C)C(=O)NC(C(=O)N1Cc2cc([101O:1][101CH2:1]CNC3CC3c3ccc(OC)cc3CC[100NH:0][100C:0](=O)N3CCCC(n4nc(-c5ccc(Oc6ccc(F)cc6F)cc5)c(C(N)=O)c4N)C3)ccc2CC1C(=O)NC1CCCc2ccccc21)C(C)(C)C

> <Shape>
0.204

> <Color>
0.050

> <Negative vol penalty>
0.000

$$$$

  -OEChem-04052321183D

 87 96  0     1  0  0  0  0  0999 V2000
  -26.2851  -30.2356   15.5420 C   0  0  0  0  0  0  0  0  0  0  0  0
  -26.6412  -28.9832   16.0322 C   0  0  0  0  0  0  0  0  0  0  0  0
  -23.0402   -9.8781   20.0900 C   0  0  0  0  0  0  0  0  0  0  0  0
  -23.7571  -10.0465   22.3910 C   0  0  0  0  0  0  0  0  0  0  0  0
  -26.0822  -31.2962   16.4240 C   0  0  0  0  0  0  0  0  0  0  0  0
  -26.7957  -28.7911   17.4047 C   0  0  0  0  0  0  0  0  0  0  0  0
  -25.4582  -23.7328   20.5875 C   0  0  0  0  0  0  0  0  0  0  0  0
  -22.2616   -8.7670   20.4139 C   0  0  0  0  0  0  0  0  0  0  0  0
  -22.9784   -8.9355   22.7150 C   0  0  0  0  0  0  0  0  0  0  0  0
  -26.2461  -22.6794   21.0493 C   0  0  0  0  0  0  0  0  0  0  0  0
  -19.7196   -8.2683   23.3111 C   0  0  0  0  0  0  0  0  0  0  0  0
  -18.9402   -8.3394   24.4657 C   0  0  0  0  0  0  0  0  0  0  0  0
  -26.4263  -23.7636   23.1967 C   0  0  0  0  0  0  0  0  0  0  0  0
  -20.1159   -6.4356   25.3768 C   0  0  0  0  0  0  0  0  0  0  0  0
  -23.7881  -10.5178   21.0786 C   0  0  0  0  0  0  0  0  0  0  0  0
  -24.1988  -13.0164   20.7686 C   0  0  0  0  0  0  0  0  0  0  0  0
  -26.2248  -31.1146   17.8086 C   0  0  0  0  0  0  0  0  0  0  0  0
  -25.1569  -24.8166   21.4247 C   0  0  0  0  0  0  0  0  0  0  0  0
  -26.5958  -29.8506   18.3059 C   0  0  0  0  0  0  0  0  0  0  0  0
  -25.6322  -24.8283   22.7439 C   0  0  0  0  0  0  0  0  0  0  0  0
  -30.8028  -18.7945   23.1684 C   0  0  0  0  0  0  0  0  0  0  0  0
  -30.2061  -17.8364   22.3369 C   0  0  0  0  0  0  0  0  0  0  0  0
  -31.9768  -18.5015   23.8488 C   0  0  0  0  0  0  0  0  0  0  0  0
  -32.5449  -17.2353   23.6901 C   0  0  0  0  0  0  0  0  0  0  0  0
  -30.7697  -16.5822   22.1642 C   0  0  0  0  0  0  0  0  0  0  0  0
  -22.2307   -8.2958   21.7264 C   0  0  0  0  0  0  0  0  0  0  0  0
  -26.7327  -22.6961   22.3531 C   0  0  0  0  0  0  0  0  0  0  0  0
  -20.6972   -7.2807   23.1894 C   0  0  0  0  0  0  0  0  0  0  0  0
  -31.9458  -16.2825   22.8532 C   0  0  0  0  0  0  0  0  0  0  0  0
  -19.1383   -7.4232   25.4985 C   0  0  0  0  0  0  0  0  0  0  0  0
  -20.8954   -6.3644   24.2222 C   0  0  0  0  0  0  0  0  0  0  0  0
  -24.5931  -11.6652   20.7445 C   0  0  0  0  0  0  0  0  0  0  0  0
  -25.3169  -13.7075   20.3705 C   0  0  0  0  0  0  0  0  0  0  0  0
  -22.9348  -13.5950   21.1195 C   0  0  0  0  0  0  0  0  0  0  0  0
  -25.7468  -27.9391   21.3519 C   0  0  0  0  0  0  0  0  0  0  0  0
  -23.8202  -27.9688   23.9614 C   0  0  0  0  0  0  0  0  0  0  0  0
  -22.4886  -26.2611   26.5991 C   0  0  0  0  0  0  0  0  0  0  0  0
  -30.8047  -14.6271   20.5759 C   0  0  0  0  0  0  0  0  0  0  0  0
  -26.0413  -32.3027   18.7193 C   0  0  0  0  0  0  0  0  0  0  0  0
  -24.2834  -25.9322   20.9199 C   0  0  0  0  0  0  0  0  0  0  0  0
  -28.9759  -18.3770   21.6797 C   0  0  0  0  0  0  0  0  0  0  0  0
  -25.3205  -25.9587   23.6891 C   0  0  0  0  0  0  0  0  0  0  0  0
  -25.8590  -31.9230   20.1866 C   0  0  0  0  0  0  0  0  0  0  0  0
  -29.6712  -12.0630   18.3811 C   0  0  0  0  0  0  0  0  0  0  0  0
  -26.8989  -30.8878   20.6033 C   0  0  0  0  0  0  0  0  0  0  0  0
  -28.2166  -11.8420   18.8023 C   0  0  0  0  0  0  0  0  0  0  0  0
  -30.5694  -12.3628   19.5798 C   0  0  0  0  0  0  0  0  0  0  0  0
  -28.6569  -13.2409   20.8605 C   0  0  0  0  0  0  0  0  0  0  0  0
  -26.7487  -29.5966   19.7898 C   0  0  1  0  0  0  0  0  0  0  0  0
  -24.4664  -27.2325   21.6965 C   0  0  1  0  0  0  0  0  0  0  0  0
  -28.6462  -19.5704   22.6023 C   0  0  1  0  0  0  0  0  0  0  0  0
  -27.7020  -12.9998   19.6800 C   0  0  2  0  0  0  0  0  0  0  0  0
  -30.0177  -20.0904   23.1524 C   0  0  0  0  0  0  0  0  0  0  0  0
  -32.6609  -19.5073   24.7127 C   0  0  0  0  0  0  0  0  0  0  0  0
  -33.8111  -16.8861   24.4089 C   0  0  0  0  0  0  0  0  0  0  0  0
  -29.8469  -20.7013   24.5486 C   0  0  0  0  0  0  0  0  0  0  0  0
  -30.7150  -21.0977   22.2252 C   0  0  0  0  0  0  0  0  0  0  0  0
  -20.9780  -26.5622   28.5802 C   0  0  0  0  0  0  0  0  0  0  0  0
  -26.0526  -29.4337   25.4380 C   0  0  0  0  0  0  0  0  0  0  0  0
  -24.9070  -28.8654   27.5904 C   0  0  0  0  0  0  0  0  0  0  0  0
  -23.7520  -30.2962   25.9048 C   0  0  0  0  0  0  0  0  0  0  0  0
  -20.5750  -24.2397   25.5936 C   0  0  0  0  0  0  0  0  0  0  0  0
  -32.1168  -14.0384   23.6216 C   0  0  0  0  0  0  0  0  0  0  0  0
  -27.7764  -20.6073   21.9019 C   0  0  0  0  0  0  0  0  0  1  0  0
  -24.0330  -27.8253   25.4491 C   0  0  1  0  0  0  0  0  0  0  0  0
  -21.0654  -26.1575   27.1168 C   0  0  2  0  0  0  0  0  0  0  0  0
  -24.6938  -29.0846   26.0774 C   0  0  0  0  0  0  0  0  0  0  0  0
  -25.8625  -11.5053   20.3612 N   0  0  0  0  0  0  0  0  0  0  0  0
  -26.2756  -12.7650   20.1408 N   0  0  0  0  0  0  0  0  0  0  0  0
  -24.4678  -27.0293   23.1467 N   0  0  0  0  0  0  0  0  0  0  0  0
  -30.0217  -13.4730   20.3622 N   0  0  0  0  0  0  0  0  0  0  0  0
  -25.5638  -15.0234   20.1980 N   0  0  0  0  0  0  0  0  0  0  0  0
  -21.8930  -12.7407   21.5059 N   0  0  0  0  0  0  0  0  0  0  0  0
  -30.1668  -15.6295   21.3059 N   0  0  0  0  0  0  0  0  0  0  0  0
  -25.6383  -28.8125   20.2866 N   0  0  0  0  0  0  0  0  0  0  0  0
  -22.7323  -27.4869   26.0167 N   0  0  0  0  0  0  0  0  0  0  0  0
  -20.5668  -24.7593   26.9853 N   0  3  0  0  0  0  0  0  0  0  0  0
  -22.7301  -14.8318   21.0756 O   0  0  0  0  0  0  0  0  0  0  0  0
  -26.7580  -27.7101   22.0051 O   0  0  0  0  0  0  0  0  0  0  0  0
  -23.1001  -28.8765   23.5383 O   0  0  0  0  0  0  0  0  0  0  0  0
  -23.3039  -25.3474   26.7044 O   0  0  0  0  0  0  0  0  0  0  0  0
  -31.9464  -14.7304   20.1200 O   0  0  0  0  0  0  0  0  0  0  0  0
  -21.4708   -7.2118   22.0429 O   0  0  0  0  0  0  0  0  0  0  0  0
  -32.5237  -15.0531   22.7084 O   0  0  0  0  0  0  0  0  0  0  0  0
  -27.5094  -21.6603   22.8103 O   0  0  0  0  0  0  0  0  0  1  0  0
  -18.3908   -7.4926   26.6078 F   0  0  0  0  0  0  0  0  0  0  0  0
  -21.8338   -5.4142   24.1115 F   0  0  0  0  0  0  0  0  0  0  0  0
  1  2  1  0  0  0  0
  1  5  2  0  0  0  0
  2  6  2  0  0  0  0
  3  8  2  0  0  0  0
  3 15  1  0  0  0  0
  4  9  1  0  0  0  0
  4 15  2  0  0  0  0
  5 17  1  0  0  0  0
  6 19  1  0  0  0  0
  7 10  2  0  0  0  0
  7 18  1  0  0  0  0
  8 26  1  0  0  0  0
  9 26  2  0  0  0  0
 10 27  1  0  0  0  0
 11 12  2  0  0  0  0
 11 28  1  0  0  0  0
 12 30  1  0  0  0  0
 13 20  1  0  0  0  0
 13 27  2  0  0  0  0
 14 30  2  0  0  0  0
 14 31  1  0  0  0  0
 15 32  1  0  0  0  0
 16 32  1  0  0  0  0
 16 33  2  0  0  0  0
 16 34  1  0  0  0  0
 17 19  2  0  0  0  0
 17 39  1  0  0  0  0
 18 20  2  0  0  0  0
 18 40  1  0  0  0  0
 19 49  1  0  0  0  0
 20 42  1  0  0  0  0
 21 22  2  0  0  0  0
 21 23  1  0  0  0  0
 21 53  1  0  0  0  0
 22 25  1  0  0  0  0
 22 41  1  0  0  0  0
 23 24  2  0  0  0  0
 23 54  1  0  0  0  0
 24 29  1  0  0  0  0
 24 55  1  0  0  0  0
 25 29  2  0  0  0  0
 25 74  1  0  0  0  0
 26 83  1  0  0  0  0
 27 85  1  0  0  0  0
 28 31  2  0  0  0  0
 28 83  1  0  0  0  0
 29 84  1  0  0  0  0
 30 86  1  0  0  0  0
 31 87  1  0  0  0  0
 32 68  2  0  0  0  0
 33 69  1  0  0  0  0
 33 72  1  0  0  0  0
 34 73  1  0  0  0  0
 34 78  2  0  0  0  0
 35 50  1  0  0  0  0
 35 75  1  0  0  0  0
 35 79  2  0  0  0  0
 36 65  1  0  0  0  0
 36 70  1  0  0  0  0
 36 80  2  0  0  0  0
 37 66  1  0  0  0  0
 37 76  1  0  0  0  0
 37 81  2  0  0  0  0
 38 71  1  0  0  0  0
 38 74  1  0  0  0  0
 38 82  2  0  0  0  0
 39 43  1  0  0  0  0
 40 50  1  0  0  0  0
 41 51  1  0  0  0  0
 42 70  1  0  0  0  0
 43 45  1  0  0  0  0
 44 46  1  0  0  0  0
 44 47  1  0  0  0  0
 45 49  1  0  0  0  0
 46 52  1  0  0  0  0
 47 71  1  0  0  0  0
 48 52  1  0  0  0  0
 48 71  1  0  0  0  0
 49 75  1  0  0  0  0
 50 70  1  0  0  0  0
 51 53  1  0  0  0  0
 51 64  1  0  0  0  0
 52 69  1  0  0  0  0
 53 56  1  0  0  0  0
 53 57  1  0  0  0  0
 58 66  1  0  0  0  0
 59 67  1  0  0  0  0
 60 67  1  0  0  0  0
 61 67  1  0  0  0  0
 62 77  1  0  0  0  0
 63 84  1  0  0  0  0
 64 85  1  0  0  0  0
 65 67  1  0  0  0  0
 65 76  1  0  0  0  0
 66 77  1  0  0  0  0
 68 69  1  0  0  0  0
M  CHG  1  77   1
M  ISO  4  38 100  64 101  74 100  85 101
M  END
> <Batch ID>
0142

> <Smiles>
CNC(C)C(=O)NC(C(=O)N1Cc2cc([101O:1][101CH2:1]C3Cc4c([100NH:0][100C:0](=O)N5CCCC(n6nc(-c7ccc(Oc8ccc(F)cc8F)cc7)c(C(N)=O)c6N)C5)c(OC)c(C)c(C)c4C3(C)C)ccc2CC1C(=O)NC1CCCc2ccccc21)C(C)(C)C

> <Shape>
0.223

> <Color>
0.199

> <Negative vol penalty>
0.000

$$$$

  -OEChem-04052321183D

 90100  0     1  0  0  0  0  0999 V2000
  -16.8921  -28.2965   23.8500 C   0  0  0  0  0  0  0  0  0  0  0  0
  -17.9792  -27.4589   23.6217 C   0  0  0  0  0  0  0  0  0  0  0  0
  -24.5559   -9.7473   18.8535 C   0  0  0  0  0  0  0  0  0  0  0  0
  -24.7215   -9.3111   21.2241 C   0  0  0  0  0  0  0  0  0  0  0  0
  -16.9126  -29.6079   23.3769 C   0  0  0  0  0  0  0  0  0  0  0  0
  -19.0870  -27.9319   22.9193 C   0  0  0  0  0  0  0  0  0  0  0  0
  -23.4693  -26.6318   25.0986 C   0  0  0  0  0  0  0  0  0  0  0  0
  -24.2966   -8.3963   18.6230 C   0  0  0  0  0  0  0  0  0  0  0  0
  -24.4622   -7.9601   20.9936 C   0  0  0  0  0  0  0  0  0  0  0  0
  -23.9137  -25.3245   24.9048 C   0  0  0  0  0  0  0  0  0  0  0  0
  -21.7716   -6.0131   20.3691 C   0  0  0  0  0  0  0  0  0  0  0  0
  -20.8540   -5.3787   21.2065 C   0  0  0  0  0  0  0  0  0  0  0  0
  -25.4223  -26.0982   23.1887 C   0  0  0  0  0  0  0  0  0  0  0  0
  -25.7828  -19.9840   21.0888 C   0  0  0  0  0  0  0  0  0  0  0  0
  -25.9165  -22.0002   19.7337 C   0  0  0  0  0  0  0  0  0  0  0  0
  -22.5665   -3.8245   21.9056 C   0  0  0  0  0  0  0  0  0  0  0  0
  -24.7684  -10.2047   20.1541 C   0  0  0  0  0  0  0  0  0  0  0  0
  -24.0953  -12.6158   20.6456 C   0  0  0  0  0  0  0  0  0  0  0  0
  -18.0252  -30.1002   22.6767 C   0  0  0  0  0  0  0  0  0  0  0  0
  -23.9912  -27.6822   24.3300 C   0  0  0  0  0  0  0  0  0  0  0  0
  -19.1218  -29.2507   22.4352 C   0  0  0  0  0  0  0  0  0  0  0  0
  -24.9848  -27.4182   23.3765 C   0  0  0  0  0  0  0  0  0  0  0  0
  -26.6031  -19.3559   20.1677 C   0  0  0  0  0  0  0  0  0  0  0  0
  -27.0737  -20.0307   19.0363 C   0  0  0  0  0  0  0  0  0  0  0  0
  -26.7412  -21.3559   18.8088 C   0  0  0  0  0  0  0  0  0  0  0  0
  -24.2498   -7.5027   19.6930 C   0  0  0  0  0  0  0  0  0  0  0  0
  -24.8882  -25.0571   23.9478 C   0  0  0  0  0  0  0  0  0  0  0  0
  -23.0866   -5.5530   20.2998 C   0  0  0  0  0  0  0  0  0  0  0  0
  -25.4405  -21.3190   20.8653 C   0  0  0  0  0  0  0  0  0  0  0  0
  -21.2515   -4.2845   21.9748 C   0  0  0  0  0  0  0  0  0  0  0  0
  -23.4841   -4.4588   21.0681 C   0  0  0  0  0  0  0  0  0  0  0  0
  -25.0368  -11.6001   20.3927 C   0  0  0  0  0  0  0  0  0  0  0  0
  -24.8503  -13.7523   20.8028 C   0  0  0  0  0  0  0  0  0  0  0  0
  -22.6662  -12.5387   20.7309 C   0  0  0  0  0  0  0  0  0  0  0  0
  -22.7767  -29.7631   22.2568 C   0  0  0  0  0  0  0  0  0  0  0  0
  -25.7630  -31.0248   22.3690 C   0  0  0  0  0  0  0  0  0  0  0  0
  -29.0847  -30.5555   22.9958 C   0  0  0  0  0  0  0  0  0  0  0  0
  -29.0353  -16.9599   18.8301 C   0  0  0  0  0  0  0  0  0  0  0  0
  -17.9817  -31.5104   22.1436 C   0  0  0  0  0  0  0  0  0  0  0  0
  -23.5206  -29.0905   24.5698 C   0  0  0  0  0  0  0  0  0  0  0  0
  -25.5918  -28.5134   22.5396 C   0  0  0  0  0  0  0  0  0  0  0  0
  -27.0894  -17.9437   20.1743 C   0  0  0  0  0  0  0  0  0  0  0  0
  -19.3499  -32.0490   21.7335 C   0  0  0  0  0  0  0  0  0  0  0  0
  -29.8490  -14.3634   21.2913 C   0  0  0  0  0  0  0  0  0  0  0  0
  -20.1009  -31.0176   20.8973 C   0  0  0  0  0  0  0  0  0  0  0  0
  -24.7870  -19.0221   16.9426 C   0  0  0  0  0  0  0  0  0  0  0  0
  -25.1206  -18.2514   15.6957 C   0  0  0  0  0  0  0  0  0  0  0  0
  -28.6050  -13.4730   21.2607 C   0  0  0  0  0  0  0  0  0  0  0  0
  -30.1081  -15.0330   19.9432 C   0  0  0  0  0  0  0  0  0  0  0  0
  -27.7203  -14.8690   19.3580 C   0  0  0  0  0  0  0  0  0  0  0  0
  -20.3521  -29.7347   21.6989 C   0  0  1  0  0  0  0  0  0  0  0  0
  -27.9441  -19.1258   18.2145 C   0  0  2  0  0  0  0  0  0  0  0  0
  -23.7509  -30.0093   23.3739 C   0  0  1  0  0  0  0  0  0  0  0  0
  -26.0454  -18.2015   16.8803 C   0  0  0  0  0  0  0  0  0  0  0  0
  -27.3839  -14.2388   20.7160 C   0  0  1  0  0  0  0  0  0  0  0  0
  -31.2851  -31.7616   22.9633 C   0  0  0  0  0  0  0  0  0  0  0  0
  -25.8317  -30.8124   19.3260 C   0  0  0  0  0  0  0  0  0  0  0  0
  -28.3150  -31.1131   19.4306 C   0  0  0  0  0  0  0  0  0  0  0  0
  -26.8057  -32.9239   20.2466 C   0  0  0  0  0  0  0  0  0  0  0  0
  -29.4864  -30.1416   25.8986 C   0  0  0  0  0  0  0  0  0  0  0  0
  -29.9742  -24.1026   19.1551 C   0  0  0  0  0  0  0  0  0  0  0  0
  -27.2572  -22.1089   17.6322 C   0  0  0  0  0  0  0  0  0  0  0  0
  -27.3790  -18.8718   16.8216 C   0  0  0  0  0  0  0  0  0  0  0  0
  -28.0592  -23.3552   18.0163 C   0  0  0  0  0  0  0  0  0  0  0  0
  -24.3916  -22.7323   24.0125 C   0  0  0  0  0  0  0  0  0  1  0  0
  -24.7066  -21.5508   23.1155 C   0  0  0  0  0  0  0  0  0  0  0  0
  -27.0460  -30.8047   21.6044 C   0  0  1  0  0  0  0  0  0  0  0  0
  -30.0815  -31.3660   23.8045 C   0  0  2  0  0  0  0  0  0  0  0  0
  -26.9870  -31.3924   20.1662 C   0  0  0  0  0  0  0  0  0  0  0  0
  -26.2938  -12.0517   20.3885 N   0  0  0  0  0  0  0  0  0  0  0  0
  -26.1475  -13.3636   20.6406 N   0  0  0  0  0  0  0  0  0  0  0  0
  -25.0941  -29.8730   22.8069 N   0  0  0  0  0  0  0  0  0  0  0  0
  -27.9934  -17.8766   19.0076 N   0  0  0  0  0  0  0  0  0  0  0  0
  -28.9092  -15.7199   19.4653 N   0  0  0  0  0  0  0  0  0  0  0  0
  -24.5244  -15.0364   21.0626 N   0  0  0  0  0  0  0  0  0  0  0  0
  -22.0519  -11.2929   20.5438 N   0  0  0  0  0  0  0  0  0  0  0  0
  -21.4528  -29.9215   22.6197 N   0  0  0  0  0  0  0  0  0  0  0  0
  -28.1138  -31.3558   22.4317 N   0  0  0  0  0  0  0  0  0  0  0  0
  -30.5638  -30.5769   24.9731 N   0  3  0  0  0  0  0  0  0  0  0  0
  -21.9538  -13.5477   20.9497 O   0  0  0  0  0  0  0  0  0  0  0  0
  -23.1952  -29.4540   21.1473 O   0  0  0  0  0  0  0  0  0  0  0  0
  -25.3726  -32.1764   22.5765 O   0  0  0  0  0  0  0  0  0  0  0  0
  -29.1620  -29.3350   22.8734 O   0  0  0  0  0  0  0  0  0  0  0  0
  -30.0474  -17.2511   18.1802 O   0  0  0  0  0  0  0  0  0  0  0  0
  -23.9966   -6.1843   19.4685 O   0  0  0  0  0  0  0  0  0  0  0  0
  -25.3261  -23.7733   23.7548 O   0  0  0  0  0  0  0  0  0  1  0  0
  -24.6368  -21.9683   21.7537 O   0  0  0  0  0  0  0  0  0  0  0  0
  -29.1985  -22.9738   18.7767 O   0  0  0  0  0  0  0  0  0  0  0  0
  -20.3706   -3.6764   22.7801 F   0  0  0  0  0  0  0  0  0  0  0  0
  -24.7464   -4.0130   21.0067 F   0  0  0  0  0  0  0  0  0  0  0  0
  1  2  1  0  0  0  0
  1  5  2  0  0  0  0
  2  6  2  0  0  0  0
  3  8  2  0  0  0  0
  3 17  1  0  0  0  0
  4  9  1  0  0  0  0
  4 17  2  0  0  0  0
  5 19  1  0  0  0  0
  6 21  1  0  0  0  0
  7 10  2  0  0  0  0
  7 20  1  0  0  0  0
  8 26  1  0  0  0  0
  9 26  2  0  0  0  0
 10 27  1  0  0  0  0
 11 12  2  0  0  0  0
 11 28  1  0  0  0  0
 12 30  1  0  0  0  0
 13 22  1  0  0  0  0
 13 27  2  0  0  0  0
 14 23  1  0  0  0  0
 14 29  2  0  0  0  0
 15 25  2  0  0  0  0
 15 29  1  0  0  0  0
 16 30  2  0  0  0  0
 16 31  1  0  0  0  0
 17 32  1  0  0  0  0
 18 32  1  0  0  0  0
 18 33  2  0  0  0  0
 18 34  1  0  0  0  0
 19 21  2  0  0  0  0
 19 39  1  0  0  0  0
 20 22  2  0  0  0  0
 20 40  1  0  0  0  0
 21 51  1  0  0  0  0
 22 41  1  0  0  0  0
 23 24  2  0  0  0  0
 23 42  1  0  0  0  0
 24 25  1  0  0  0  0
 24 52  1  0  0  0  0
 25 62  1  0  0  0  0
 26 85  1  0  0  0  0
 27 86  1  0  0  0  0
 28 31  2  0  0  0  0
 28 85  1  0  0  0  0
 29 87  1  0  0  0  0
 30 89  1  0  0  0  0
 31 90  1  0  0  0  0
 32 70  2  0  0  0  0
 33 71  1  0  0  0  0
 33 75  1  0  0  0  0
 34 76  1  0  0  0  0
 34 80  2  0  0  0  0
 35 53  1  0  0  0  0
 35 77  1  0  0  0  0
 35 81  2  0  0  0  0
 36 67  1  0  0  0  0
 36 72  1  0  0  0  0
 36 82  2  0  0  0  0
 37 68  1  0  0  0  0
 37 78  1  0  0  0  0
 37 83  2  0  0  0  0
 38 73  1  0  0  0  0
 38 74  1  0  0  0  0
 38 84  2  0  0  0  0
 39 43  1  0  0  0  0
 40 53  1  0  0  0  0
 41 72  1  0  0  0  0
 42 73  1  0  0  0  0
 43 45  1  0  0  0  0
 44 48  1  0  0  0  0
 44 49  1  0  0  0  0
 45 51  1  0  0  0  0
 46 47  1  0  0  0  0
 46 54  1  0  0  0  0
 47 54  1  0  0  0  0
 48 55  1  0  0  0  0
 49 74  1  0  0  0  0
 50 55  1  0  0  0  0
 50 74  1  0  0  0  0
 51 77  1  0  0  0  0
 52 63  1  0  0  0  0
 52 73  1  0  0  0  0
 53 72  1  0  0  0  0
 54 63  1  0  0  0  0
 55 71  1  0  0  0  0
 56 68  1  0  0  0  0
 57 69  1  0  0  0  0
 58 69  1  0  0  0  0
 59 69  1  0  0  0  0
 60 79  1  0  0  0  0
 61 88  1  0  0  0  0
 62 64  1  0  0  0  0
 64 88  1  0  0  0  0
 65 66  1  0  0  0  0
 65 86  1  0  0  0  0
 66 87  1  0  0  0  0
 67 69  1  0  0  0  0
 67 78  1  0  0  0  0
 68 79  1  0  0  0  0
 70 71  1  0  0  0  0
M  CHG  1  79   1
M  ISO  4  38 100  65 101  73 100  86 101
M  END
> <Batch ID>
0142

> <Smiles>
CNC(C)C(=O)NC(C(=O)N1Cc2cc([101O:1][101CH2:1]COc3cc(CCOC)c4c(c3)C[100N:0]([100C:0](=O)N3CCCC(n5nc(-c6ccc(Oc7ccc(F)cc7F)cc6)c(C(N)=O)c5N)C3)C4CC3CC3)ccc2CC1C(=O)NC1CCCc2ccccc21)C(C)(C)C

> <Shape>
0.232

> <Color>
0.097

> <Negative vol penalty>
0.000

$$$$

  -OEChem-04052321183D

 85 94  0     1  0  0  0  0  0999 V2000
  -27.2160  -28.4495   37.0996 C   0  0  0  0  0  0  0  0  0  0  0  0
  -27.2529  -27.3673   36.2262 C   0  0  0  0  0  0  0  0  0  0  0  0
  -23.0684   -9.8714   19.9509 C   0  0  0  0  0  0  0  0  0  0  0  0
  -23.8591   -9.8761   22.2338 C   0  0  0  0  0  0  0  0  0  0  0  0
  -27.0786  -29.7435   36.5991 C   0  0  0  0  0  0  0  0  0  0  0  0
  -27.1512  -27.5784   34.8516 C   0  0  0  0  0  0  0  0  0  0  0  0
  -30.5235  -24.8720   32.2157 C   0  0  0  0  0  0  0  0  0  0  0  0
  -29.3116  -19.7978   27.5158 C   0  0  0  0  0  0  0  0  0  0  0  0
  -31.4630  -20.8840   27.6839 C   0  0  0  0  0  0  0  0  0  0  0  0
  -22.3313   -8.7156   20.2085 C   0  0  0  0  0  0  0  0  0  0  0  0
  -23.1220   -8.7203   22.4915 C   0  0  0  0  0  0  0  0  0  0  0  0
  -30.2430  -23.5202   32.0215 C   0  0  0  0  0  0  0  0  0  0  0  0
  -28.9272  -20.3716   28.7276 C   0  0  0  0  0  0  0  0  0  0  0  0
  -31.0786  -21.4578   28.8958 C   0  0  0  0  0  0  0  0  0  0  0  0
  -19.9046   -7.9117   23.1358 C   0  0  0  0  0  0  0  0  0  0  0  0
  -19.1636   -7.8673   24.3167 C   0  0  0  0  0  0  0  0  0  0  0  0
  -29.4505  -24.0105   29.7964 C   0  0  0  0  0  0  0  0  0  0  0  0
  -20.4205   -5.9320   25.0325 C   0  0  0  0  0  0  0  0  0  0  0  0
  -23.8323  -10.4516   20.9635 C   0  0  0  0  0  0  0  0  0  0  0  0
  -24.1651  -12.9780   20.8440 C   0  0  0  0  0  0  0  0  0  0  0  0
  -26.9848  -29.9714   35.2171 C   0  0  0  0  0  0  0  0  0  0  0  0
  -30.2590  -25.8063   31.2039 C   0  0  0  0  0  0  0  0  0  0  0  0
  -27.0110  -28.8766   34.3321 C   0  0  0  0  0  0  0  0  0  0  0  0
  -29.7310  -25.3732   29.9793 C   0  0  0  0  0  0  0  0  0  0  0  0
  -30.5795  -20.0540   26.9939 C   0  0  0  0  0  0  0  0  0  0  0  0
  -22.3581   -8.1400   21.4788 C   0  0  0  0  0  0  0  0  0  0  0  0
  -29.8107  -21.2016   29.4176 C   0  0  0  0  0  0  0  0  0  1  0  0
  -29.7037  -23.0896   30.8128 C   0  0  0  0  0  0  0  0  0  0  0  0
  -20.9035   -6.9663   22.9032 C   0  0  0  0  0  0  0  0  0  0  0  0
  -19.4215   -6.8774   25.2651 C   0  0  0  0  0  0  0  0  0  0  0  0
  -21.1614   -5.9765   23.8516 C   0  0  0  0  0  0  0  0  0  0  0  0
  -24.5944  -11.6453   20.6979 C   0  0  0  0  0  0  0  0  0  0  0  0
  -25.2501  -13.7314   20.4675 C   0  0  0  0  0  0  0  0  0  0  0  0
  -22.8989  -13.4893   21.2810 C   0  0  0  0  0  0  0  0  0  0  0  0
  -28.3721  -28.3504   30.9375 C   0  0  0  0  0  0  0  0  0  0  0  0
  -30.7552  -14.6998   20.6806 C   0  0  0  0  0  0  0  0  0  0  0  0
  -29.8952  -28.6972   28.0946 C   0  0  0  0  0  0  0  0  0  0  0  0
  -31.6413  -27.2451   25.5471 C   0  0  0  0  0  0  0  0  0  0  0  0
  -26.7899  -31.3840   34.7259 C   0  0  0  0  0  0  0  0  0  0  0  0
  -30.5922  -27.2572   31.4193 C   0  0  0  0  0  0  0  0  0  0  0  0
  -29.4476  -26.3333   28.8540 C   0  0  0  0  0  0  0  0  0  0  0  0
  -27.0651  -31.5535   33.2339 C   0  0  0  0  0  0  0  0  0  0  0  0
  -29.5636  -12.4046   18.2002 C   0  0  0  0  0  0  0  0  0  0  0  0
  -26.3852  -30.4451   32.4364 C   0  0  0  0  0  0  0  0  0  0  0  0
  -31.9927  -15.2914   23.3436 C   0  0  0  0  0  0  0  0  0  0  0  0
  -28.1402  -12.0888   18.6577 C   0  0  0  0  0  0  0  0  0  0  0  0
  -32.1501  -15.9149   24.7342 C   0  0  0  0  0  0  0  0  0  0  0  0
  -30.6715  -17.3288   23.5051 C   0  0  0  0  0  0  0  0  0  0  0  0
  -30.4996  -12.6076   19.3875 C   0  0  0  0  0  0  0  0  0  0  0  0
  -28.6132  -13.3340   20.8142 C   0  0  0  0  0  0  0  0  0  0  0  0
  -26.9286  -29.0671   32.8331 C   0  0  1  0  0  0  0  0  0  0  0  0
  -29.8035  -28.1929   30.5085 C   0  0  1  0  0  0  0  0  0  0  0  0
  -31.2208  -16.3175   22.4961 C   0  0  2  0  0  0  0  0  0  0  0  0
  -27.6284  -13.1519   19.6457 C   0  0  2  0  0  0  0  0  0  0  0  0
  -31.7832  -17.3762   24.5375 C   0  0  1  0  0  0  0  0  0  0  0  0
  -29.3760  -16.7399   20.8361 C   0  0  0  0  0  0  0  0  0  0  0  0
  -32.7190  -27.7763   23.3440 C   0  0  0  0  0  0  0  0  0  0  0  0
  -27.1456  -28.7931   26.7754 C   0  0  0  0  0  0  0  0  0  0  0  0
  -28.2630  -28.3667   24.5759 C   0  0  0  0  0  0  0  0  0  0  0  0
  -28.7977  -30.4348   25.8643 C   0  0  0  0  0  0  0  0  0  0  0  0
  -34.3134  -26.4337   26.5270 C   0  0  0  0  0  0  0  0  0  0  0  0
  -30.9907  -19.4409   25.6984 C   0  0  0  0  0  0  0  0  0  0  0  0
  -30.1370  -15.6901   21.6351 C   0  0  1  0  0  0  0  0  0  0  0  0
  -29.6579  -28.2045   26.6875 C   0  0  1  0  0  0  0  0  0  0  0  0
  -32.9247  -27.6516   24.8456 C   0  0  2  0  0  0  0  0  0  0  0  0
  -28.4695  -28.9317   25.9975 C   0  0  0  0  0  0  0  0  0  0  0  0
  -25.8538  -11.5540   20.2624 N   0  0  0  0  0  0  0  0  0  0  0  0
  -26.2251  -12.8390   20.1316 N   0  0  0  0  0  0  0  0  0  0  0  0
  -29.7846  -27.7424   29.1153 N   0  0  0  0  0  0  0  0  0  0  0  0
  -29.9673  -13.6086   20.3138 N   0  0  0  0  0  0  0  0  0  0  0  0
  -25.4556  -15.0637   20.3944 N   0  0  0  0  0  0  0  0  0  0  0  0
  -21.8943  -12.5764   21.6300 N   0  0  0  0  0  0  0  0  0  0  0  0
  -28.2200  -28.8378   32.2216 N   0  0  0  0  0  0  0  0  0  0  0  0
  -30.9303  -28.3416   25.9870 N   0  0  0  0  0  0  0  0  0  0  0  0
  -31.3163  -17.9919   25.8069 N   0  3  0  0  0  0  0  0  0  0  0  0
  -33.9918  -26.6408   25.0915 N   0  3  0  0  0  0  0  0  0  0  0  0
  -22.6598  -14.7190   21.3440 O   0  0  0  0  0  0  0  0  0  0  0  0
  -27.4723  -28.0531   30.1606 O   0  0  0  0  0  0  0  0  0  0  0  0
  -31.9031  -14.8935   20.2720 O   0  0  0  0  0  0  0  0  0  0  0  0
  -30.1757  -29.8840   28.2806 O   0  0  0  0  0  0  0  0  0  0  0  0
  -31.3014  -26.0724   25.6873 O   0  0  0  0  0  0  0  0  0  0  0  0
  -29.4284  -21.7708   30.6209 O   0  0  0  0  0  0  0  0  0  1  0  0
  -21.6388   -7.0123   21.7307 O   0  0  0  0  0  0  0  0  0  0  0  0
  -18.7109   -6.8358   26.3997 F   0  0  0  0  0  0  0  0  0  0  0  0
  -22.1206   -5.0663   23.6342 F   0  0  0  0  0  0  0  0  0  0  0  0
  1  2  1  0  0  0  0
  1  5  2  0  0  0  0
  2  6  2  0  0  0  0
  3 10  2  0  0  0  0
  3 19  1  0  0  0  0
  4 11  1  0  0  0  0
  4 19  2  0  0  0  0
  5 21  1  0  0  0  0
  6 23  1  0  0  0  0
  7 12  2  0  0  0  0
  7 22  1  0  0  0  0
  8 13  2  0  0  0  0
  8 25  1  0  0  0  0
  9 14  1  0  0  0  0
  9 25  2  0  0  0  0
 10 26  1  0  0  0  0
 11 26  2  0  0  0  0
 12 28  1  0  0  0  0
 13 27  1  0  0  0  0
 14 27  2  0  0  0  0
 15 16  2  0  0  0  0
 15 29  1  0  0  0  0
 16 30  1  0  0  0  0
 17 24  1  0  0  0  0
 17 28  2  0  0  0  0
 18 30  2  0  0  0  0
 18 31  1  0  0  0  0
 19 32  1  0  0  0  0
 20 32  1  0  0  0  0
 20 33  2  0  0  0  0
 20 34  1  0  0  0  0
 21 23  2  0  0  0  0
 21 39  1  0  0  0  0
 22 24  2  0  0  0  0
 22 40  1  0  0  0  0
 23 51  1  0  0  0  0
 24 41  1  0  0  0  0
 25 62  1  0  0  0  0
 26 83  1  0  0  0  0
 27 82  1  0  0  0  0
 28 82  1  0  0  0  0
 29 31  2  0  0  0  0
 29 83  1  0  0  0  0
 30 84  1  0  0  0  0
 31 85  1  0  0  0  0
 32 67  2  0  0  0  0
 33 68  1  0  0  0  0
 33 71  1  0  0  0  0
 34 72  1  0  0  0  0
 34 77  2  0  0  0  0
 35 52  1  0  0  0  0
 35 73  1  0  0  0  0
 35 78  2  0  0  0  0
 36 63  1  0  0  0  0
 36 70  1  0  0  0  0
 36 79  2  0  0  0  0
 37 64  1  0  0  0  0
 37 69  1  0  0  0  0
 37 80  2  0  0  0  0
 38 65  1  0  0  0  0
 38 74  1  0  0  0  0
 38 81  2  0  0  0  0
 39 42  1  0  0  0  0
 40 52  1  0  0  0  0
 41 69  1  0  0  0  0
 42 44  1  0  0  0  0
 43 46  1  0  0  0  0
 43 49  1  0  0  0  0
 44 51  1  0  0  0  0
 45 47  1  0  0  0  0
 45 53  1  0  0  0  0
 46 54  1  0  0  0  0
 47 55  1  0  0  0  0
 48 53  1  0  0  0  0
 48 55  1  0  0  0  0
 49 70  1  0  0  0  0
 50 54  1  0  0  0  0
 50 70  1  0  0  0  0
 51 73  1  0  0  0  0
 52 69  1  0  0  0  0
 53 63  1  0  0  0  0
 54 68  1  0  0  0  0
 55 75  1  0  0  0  0
 56 63  1  0  0  0  0
 57 65  1  0  0  0  0
 58 66  1  0  0  0  0
 59 66  1  0  0  0  0
 60 66  1  0  0  0  0
 61 76  1  0  0  0  0
 62 75  1  0  0  0  0
 64 66  1  0  0  0  0
 64 74  1  0  0  0  0
 65 76  1  0  0  0  0
 67 68  1  0  0  0  0
M  CHG  2  75   1  76   1
M  ISO  4  27 101  36 100  63 100  82 101
M  END
> <Batch ID>
0142

> <Smiles>
CNC(C)C(=O)NC(C(=O)N1Cc2cc([101O:1][101c:1]3ccc(CNC4CCC([100CH:0](C)[100C:0](=O)N5CCCC(n6nc(-c7ccc(Oc8ccc(F)cc8F)cc7)c(C(N)=O)c6N)C5)C4)cc3)ccc2CC1C(=O)NC1CCCc2ccccc21)C(C)(C)C

> <Shape>
0.173

> <Color>
0.187

> <Negative vol penalty>
0.000

$$$$

  -OEChem-04052321183D

 84 93  0     1  0  0  0  0  0999 V2000
  -16.6418  -28.8121   23.7269 C   0  0  0  0  0  0  0  0  0  0  0  0
  -17.3039  -28.1543   22.6952 C   0  0  0  0  0  0  0  0  0  0  0  0
  -26.3850  -11.6693   20.6009 C   0  0  0  0  0  0  0  0  0  0  0  0
  -25.0087  -13.6236   20.2493 C   0  0  0  0  0  0  0  0  0  0  0  0
  -17.1796  -29.9801   24.2658 C   0  0  0  0  0  0  0  0  0  0  0  0
  -18.5037  -28.6648   22.2011 C   0  0  0  0  0  0  0  0  0  0  0  0
  -22.0203  -25.0788   21.5531 C   0  0  0  0  0  0  0  0  0  0  0  0
  -25.3101  -11.0219   21.2102 C   0  0  0  0  0  0  0  0  0  0  0  0
  -23.9338  -12.9762   20.8585 C   0  0  0  0  0  0  0  0  0  0  0  0
  -21.9060  -24.2720   20.4218 C   0  0  0  0  0  0  0  0  0  0  0  0
  -22.9093  -12.2675   24.0016 C   0  0  0  0  0  0  0  0  0  0  0  0
  -22.1630  -12.9879   24.9341 C   0  0  0  0  0  0  0  0  0  0  0  0
  -26.8479  -23.3259   16.8138 C   0  0  0  0  0  0  0  0  0  0  0  0
  -23.5864  -25.6002   19.3122 C   0  0  0  0  0  0  0  0  0  0  0  0
  -26.6430  -21.0029   17.4021 C   0  0  0  0  0  0  0  0  0  0  0  0
  -20.1847  -12.6926   23.5791 C   0  0  0  0  0  0  0  0  0  0  0  0
  -27.9677  -23.3777   17.6281 C   0  0  0  0  0  0  0  0  0  0  0  0
  -26.2343  -12.9701   20.1205 C   0  0  0  0  0  0  0  0  0  0  0  0
  -28.0419  -13.2301   18.3393 C   0  0  0  0  0  0  0  0  0  0  0  0
  -18.3916  -30.4998   23.7845 C   0  0  0  0  0  0  0  0  0  0  0  0
  -22.9121  -26.1608   21.5685 C   0  0  0  0  0  0  0  0  0  0  0  0
  -19.0576  -29.8416   22.7331 C   0  0  0  0  0  0  0  0  0  0  0  0
  -26.1786  -22.1121   16.7041 C   0  0  0  0  0  0  0  0  0  0  0  0
  -23.7120  -26.4176   20.4458 C   0  0  0  0  0  0  0  0  0  0  0  0
  -24.0846  -11.6754   21.3390 C   0  0  0  0  0  0  0  0  0  0  0  0
  -22.6870  -24.5343   19.3001 C   0  0  0  0  0  0  0  0  0  0  0  0
  -22.2933  -11.7597   22.8577 C   0  0  0  0  0  0  0  0  0  0  0  0
  -20.8008  -13.2005   24.7229 C   0  0  0  0  0  0  0  0  0  0  0  0
  -20.9310  -11.9722   22.6465 C   0  0  0  0  0  0  0  0  0  0  0  0
  -27.3444  -13.6396   19.4915 C   0  0  0  0  0  0  0  0  0  0  0  0
  -27.7721  -21.1586   18.1899 C   0  0  0  0  0  0  0  0  0  0  0  0
  -28.9982  -14.1985   18.1545 C   0  0  0  0  0  0  0  0  0  0  0  0
  -27.8431  -12.0774   17.5101 C   0  0  0  0  0  0  0  0  0  0  0  0
  -22.6130  -29.3101   21.8790 C   0  0  0  0  0  0  0  0  0  0  0  0
  -25.8554  -29.2223   21.9182 C   0  0  0  0  0  0  0  0  0  0  0  0
  -28.7196  -27.5749   21.0643 C   0  0  0  0  0  0  0  0  0  0  0  0
  -29.3450  -19.9487   19.7419 C   0  0  0  0  0  0  0  0  0  0  0  0
  -18.9097  -31.7912   24.3665 C   0  0  0  0  0  0  0  0  0  0  0  0
  -23.0429  -27.0054   22.8062 C   0  0  0  0  0  0  0  0  0  0  0  0
  -24.6994  -27.5547   20.4189 C   0  0  0  0  0  0  0  0  0  0  0  0
  -20.3765  -32.0609   24.0407 C   0  0  0  0  0  0  0  0  0  0  0  0
  -31.6420  -17.3635   20.5891 C   0  0  0  0  0  0  0  0  0  0  0  0
  -20.6490  -31.8122   22.5606 C   0  0  0  0  0  0  0  0  0  0  0  0
  -30.8662  -16.0779   20.2932 C   0  0  0  0  0  0  0  0  0  0  0  0
  -24.9468  -22.9586   14.6129 C   0  0  0  0  0  0  0  0  0  0  0  0
  -30.7362  -18.4542   21.1582 C   0  0  0  0  0  0  0  0  0  0  0  0
  -28.7652  -17.4633   20.0617 C   0  0  0  0  0  0  0  0  0  0  0  0
  -23.9463  -22.3792   13.6285 C   0  0  0  0  0  0  0  0  0  0  0  0
  -24.8347  -20.6469   15.0921 C   0  0  0  0  0  0  0  0  0  0  0  0
  -20.3740  -30.3506   22.1870 C   0  0  1  0  0  0  0  0  0  0  0  0
  -23.6121  -28.3927   22.5255 C   0  0  1  0  0  0  0  0  0  0  0  0
  -29.6229  -16.3569   19.4260 C   0  0  2  0  0  0  0  0  0  0  0  0
  -24.9381  -21.9983   15.8201 C   0  0  1  0  0  0  0  0  0  0  0  0
  -31.2180  -27.7689   21.1975 C   0  0  0  0  0  0  0  0  0  0  0  0
  -25.8136  -31.2773   19.6632 C   0  0  0  0  0  0  0  0  0  0  0  0
  -28.2119  -30.7222   19.2068 C   0  0  0  0  0  0  0  0  0  0  0  0
  -27.5540  -31.6835   21.4126 C   0  0  0  0  0  0  0  0  0  0  0  0
  -28.9425  -25.0983   22.6693 C   0  0  0  0  0  0  0  0  0  0  0  0
  -23.6963  -22.2400   16.7031 C   0  0  0  0  0  0  0  0  0  0  0  0
  -23.7432  -23.5984   17.3858 C   0  0  0  0  0  0  0  0  0  1  0  0
  -26.9395  -29.2918   20.8700 C   0  0  1  0  0  0  0  0  0  0  0  0
  -29.9621  -27.2325   21.8666 C   0  0  2  0  0  0  0  0  0  0  0  0
  -27.1098  -30.7234   20.2876 C   0  0  0  0  0  0  0  0  0  0  0  0
  -28.4488  -22.3216   18.3215 N   0  0  0  0  0  0  0  0  0  0  0  0
  -27.8175  -14.7792   20.0028 N   0  0  0  0  0  0  0  0  0  0  0  0
  -28.8225  -15.0941   19.1680 N   0  0  0  0  0  0  0  0  0  0  0  0
  -24.7861  -28.3557   21.6511 N   0  0  0  0  0  0  0  0  0  0  0  0
  -29.5822  -18.6669   20.2819 N   0  0  0  0  0  0  0  0  0  0  0  0
  -29.9639  -14.3627   17.2256 N   0  0  0  0  0  0  0  0  0  0  0  0
  -26.9663  -12.1807   16.4215 N   0  0  0  0  0  0  0  0  0  0  0  0
  -28.2379  -20.0226   18.8973 N   0  0  0  0  0  0  0  0  0  0  0  0
  -21.4641  -29.5039   22.6220 N   0  0  0  0  0  0  0  0  0  0  0  0
  -28.1440  -28.7526   21.4920 N   0  0  0  0  0  0  0  0  0  0  0  0
  -23.9464  -20.9096   13.9116 N   0  3  0  0  0  0  0  0  0  0  0  0
  -30.0980  -25.7550   22.0056 N   0  3  0  0  0  0  0  0  0  0  0  0
  -28.4130  -10.9834   17.7377 O   0  0  0  0  0  0  0  0  0  0  0  0
  -22.8664  -29.8065   20.7877 O   0  0  0  0  0  0  0  0  0  0  0  0
  -25.9572  -29.9062   22.9398 O   0  0  0  0  0  0  0  0  0  0  0  0
  -28.3036  -26.8701   20.1474 O   0  0  0  0  0  0  0  0  0  0  0  0
  -30.0863  -20.9037   19.9875 O   0  0  0  0  0  0  0  0  0  0  0  0
  -23.0354  -11.0440   21.9333 O   0  0  0  0  0  0  0  0  0  0  0  0
  -22.5770  -23.7488   18.1944 O   0  0  0  0  0  0  0  0  0  1  0  0
  -20.0839  -13.8910   25.6193 F   0  0  0  0  0  0  0  0  0  0  0  0
  -20.3334  -11.4858   21.5501 F   0  0  0  0  0  0  0  0  0  0  0  0
  1  2  1  0  0  0  0
  1  5  2  0  0  0  0
  2  6  2  0  0  0  0
  3  8  2  0  0  0  0
  3 18  1  0  0  0  0
  4  9  1  0  0  0  0
  4 18  2  0  0  0  0
  5 20  1  0  0  0  0
  6 22  1  0  0  0  0
  7 10  2  0  0  0  0
  7 21  1  0  0  0  0
  8 25  1  0  0  0  0
  9 25  2  0  0  0  0
 10 26  1  0  0  0  0
 11 12  2  0  0  0  0
 11 27  1  0  0  0  0
 12 28  1  0  0  0  0
 13 17  2  0  0  0  0
 13 23  1  0  0  0  0
 14 24  1  0  0  0  0
 14 26  2  0  0  0  0
 15 23  2  0  0  0  0
 15 31  1  0  0  0  0
 16 28  2  0  0  0  0
 16 29  1  0  0  0  0
 17 64  1  0  0  0  0
 18 30  1  0  0  0  0
 19 30  1  0  0  0  0
 19 32  2  0  0  0  0
 19 33  1  0  0  0  0
 20 22  2  0  0  0  0
 20 38  1  0  0  0  0
 21 24  2  0  0  0  0
 21 39  1  0  0  0  0
 22 50  1  0  0  0  0
 23 53  1  0  0  0  0
 24 40  1  0  0  0  0
 25 81  1  0  0  0  0
 26 82  1  0  0  0  0
 27 29  2  0  0  0  0
 27 81  1  0  0  0  0
 28 83  1  0  0  0  0
 29 84  1  0  0  0  0
 30 65  2  0  0  0  0
 31 64  2  0  0  0  0
 31 71  1  0  0  0  0
 32 66  1  0  0  0  0
 32 69  1  0  0  0  0
 33 70  1  0  0  0  0
 33 76  2  0  0  0  0
 34 51  1  0  0  0  0
 34 72  1  0  0  0  0
 34 77  2  0  0  0  0
 35 61  1  0  0  0  0
 35 67  1  0  0  0  0
 35 78  2  0  0  0  0
 36 62  1  0  0  0  0
 36 73  1  0  0  0  0
 36 79  2  0  0  0  0
 37 68  1  0  0  0  0
 37 71  1  0  0  0  0
 37 80  2  0  0  0  0
 38 41  1  0  0  0  0
 39 51  1  0  0  0  0
 40 67  1  0  0  0  0
 41 43  1  0  0  0  0
 42 44  1  0  0  0  0
 42 46  1  0  0  0  0
 43 50  1  0  0  0  0
 44 52  1  0  0  0  0
 45 48  1  0  0  0  0
 45 53  1  0  0  0  0
 46 68  1  0  0  0  0
 47 52  1  0  0  0  0
 47 68  1  0  0  0  0
 48 74  1  0  0  0  0
 49 53  1  0  0  0  0
 49 74  1  0  0  0  0
 50 72  1  0  0  0  0
 51 67  1  0  0  0  0
 52 66  1  0  0  0  0
 53 59  1  0  0  0  0
 54 62  1  0  0  0  0
 55 63  1  0  0  0  0
 56 63  1  0  0  0  0
 57 63  1  0  0  0  0
 58 75  1  0  0  0  0
 59 60  1  0  0  0  0
 60 82  1  0  0  0  0
 61 63  1  0  0  0  0
 61 73  1  0  0  0  0
 62 75  1  0  0  0  0
 65 66  1  0  0  0  0
M  CHG  2  74   1  75   1
M  ISO  4  37 100  60 101  71 100  82 101
M  END
> <Batch ID>
0142

> <Smiles>
CNC(C)C(=O)NC(C(=O)N1Cc2cc([101O:1][101CH2:1]CC3(c4ccnc([100NH:0][100C:0](=O)N5CCCC(n6nc(-c7ccc(Oc8ccc(F)cc8F)cc7)c(C(N)=O)c6N)C5)c4)CCNC3)ccc2CC1C(=O)NC1CCCc2ccccc21)C(C)(C)C

> <Shape>
0.253

> <Color>
0.086

> <Negative vol penalty>
0.000

$$$$

  -OEChem-04052321183D

 85 94  0     1  0  0  0  0  0999 V2000
  -23.4001   -9.2652   16.6515 C   0  0  0  0  0  0  0  0  0  0  0  0
  -24.5894   -9.9846   16.7102 C   0  0  0  0  0  0  0  0  0  0  0  0
  -22.4550  -27.3629   20.4059 C   0  0  0  0  0  0  0  0  0  0  0  0
  -22.7821  -28.8964   22.2440 C   0  0  0  0  0  0  0  0  0  0  0  0
  -22.3110   -9.6564   17.4291 C   0  0  0  0  0  0  0  0  0  0  0  0
  -24.6899  -11.0964   17.5459 C   0  0  0  0  0  0  0  0  0  0  0  0
  -29.6507  -12.9566   20.6176 C   0  0  0  0  0  0  0  0  0  0  0  0
  -31.0920  -19.7888   20.5682 C   0  0  0  0  0  0  0  0  0  0  0  0
  -21.1973  -27.0291   20.9081 C   0  0  0  0  0  0  0  0  0  0  0  0
  -21.5244  -28.5626   22.7462 C   0  0  0  0  0  0  0  0  0  0  0  0
  -30.6086  -13.9335   20.3492 C   0  0  0  0  0  0  0  0  0  0  0  0
  -18.2990  -29.3312   22.0931 C   0  0  0  0  0  0  0  0  0  0  0  0
  -17.4751  -30.3734   22.5181 C   0  0  0  0  0  0  0  0  0  0  0  0
  -31.5696  -18.5282   20.9090 C   0  0  0  0  0  0  0  0  0  0  0  0
  -29.3928  -15.4958   21.7276 C   0  0  0  0  0  0  0  0  0  0  0  0
  -17.4253  -29.4276   24.7407 C   0  0  0  0  0  0  0  0  0  0  0  0
  -23.2475  -28.2965   21.0738 C   0  0  0  0  0  0  0  0  0  0  0  0
  -24.8534  -29.6693   19.6440 C   0  0  0  0  0  0  0  0  0  0  0  0
  -22.4013  -10.7678   18.2820 C   0  0  0  0  0  0  0  0  0  0  0  0
  -28.5491  -13.2458   21.4356 C   0  0  0  0  0  0  0  0  0  0  0  0
  -23.6005  -11.5036   18.3346 C   0  0  0  0  0  0  0  0  0  0  0  0
  -30.0453  -19.9077   19.6606 C   0  0  0  0  0  0  0  0  0  0  0  0
  -28.4237  -14.5201   22.0070 C   0  0  0  0  0  0  0  0  0  0  0  0
  -20.7320  -27.6289   22.0783 C   0  0  0  0  0  0  0  0  0  0  0  0
  -30.4782  -15.2041   20.9019 C   0  0  0  0  0  0  0  0  0  0  0  0
  -18.6860  -28.3372   22.9919 C   0  0  0  0  0  0  0  0  0  0  0  0
  -17.0382  -30.4216   23.8419 C   0  0  0  0  0  0  0  0  0  0  0  0
  -18.2491  -28.3854   24.3157 C   0  0  0  0  0  0  0  0  0  0  0  0
  -24.5470  -28.6414   20.5558 C   0  0  0  0  0  0  0  0  0  0  0  0
  -29.5150  -18.7444   19.1264 C   0  0  0  0  0  0  0  0  0  0  0  0
  -30.9712  -17.4267   20.3189 C   0  0  0  0  0  0  0  0  0  1  0  0
  -26.2136  -29.5837   19.4744 C   0  0  0  0  0  0  0  0  0  0  0  0
  -23.9859  -30.6168   19.0073 C   0  0  0  0  0  0  0  0  0  0  0  0
  -25.3981  -13.2955   21.0199 C   0  0  0  0  0  0  0  0  0  0  0  0
  -25.3766  -13.8429   24.2171 C   0  0  0  0  0  0  0  0  0  0  0  0
  -27.0339  -14.9892   26.9715 C   0  0  0  0  0  0  0  0  0  0  0  0
  -30.1643  -25.2723   19.9742 C   0  0  0  0  0  0  0  0  0  0  0  0
  -21.1821  -11.1806   19.0680 C   0  0  0  0  0  0  0  0  0  0  0  0
  -27.5387  -12.1731   21.7371 C   0  0  0  0  0  0  0  0  0  0  0  0
  -27.2704  -14.8752   22.9082 C   0  0  0  0  0  0  0  0  0  0  0  0
  -21.4911  -12.1471   20.2085 C   0  0  0  0  0  0  0  0  0  0  0  0
  -30.2017  -28.2450   21.7378 C   0  0  0  0  0  0  0  0  0  0  0  0
  -22.4131  -13.2631   19.7275 C   0  0  0  0  0  0  0  0  0  0  0  0
  -28.7882  -28.7959   21.5513 C   0  0  0  0  0  0  0  0  0  0  0  0
  -28.9323  -22.0271   20.4919 C   0  0  0  0  0  0  0  0  0  0  0  0
  -30.5972  -22.1364   18.5877 C   0  0  0  0  0  0  0  0  0  0  0  0
  -30.1740  -26.7386   21.9693 C   0  0  0  0  0  0  0  0  0  0  0  0
  -28.4360  -23.4242   20.1090 C   0  0  0  0  0  0  0  0  0  0  0  0
  -30.0459  -23.5148   18.2348 C   0  0  0  0  0  0  0  0  0  0  0  0
  -28.0710  -26.5135   20.6869 C   0  0  0  0  0  0  0  0  0  0  0  0
  -29.5223  -21.2805   19.2819 C   0  0  0  0  0  0  0  0  0  0  0  0
  -23.7564  -12.7005   19.2475 C   0  0  1  0  0  0  0  0  0  0  0  0
  -26.1857  -12.7308   22.1682 C   0  0  1  0  0  0  0  0  0  0  0  0
  -28.0404  -28.0358   20.4415 C   0  0  1  0  0  0  0  0  0  0  0  0
  -26.6686  -18.0044   19.8190 C   0  0  0  0  0  0  0  0  0  0  0  0
  -26.7442  -15.3445   29.4387 C   0  0  0  0  0  0  0  0  0  0  0  0
  -23.6534  -16.2982   23.6587 C   0  0  0  0  0  0  0  0  0  0  0  0
  -24.1895  -17.1127   25.9647 C   0  0  0  0  0  0  0  0  0  0  0  0
  -22.9555  -14.9666   25.6572 C   0  0  0  0  0  0  0  0  0  0  0  0
  -29.2580  -13.1460   27.6157 C   0  0  0  0  0  0  0  0  0  0  0  0
  -28.3901  -18.8118   18.1461 C   0  0  0  0  0  0  0  0  0  0  0  0
  -27.0459  -19.0971   18.8313 C   0  0  0  0  0  0  0  0  0  0  0  0
  -25.4174  -15.0729   25.0915 C   0  0  1  0  0  0  0  0  0  0  0  0
  -27.2231  -14.3920   28.3542 C   0  0  2  0  0  0  0  0  0  0  0  0
  -24.0748  -15.8568   25.0745 C   0  0  0  0  0  0  0  0  0  0  0  0
  -25.6259  -27.9532   20.9385 N   0  0  0  0  0  0  0  0  0  0  0  0
  -29.9526  -17.5026   19.4332 N   0  0  0  0  0  0  0  0  0  0  0  0
  -26.6234  -28.5498   20.2639 N   0  0  0  0  0  0  0  0  0  0  0  0
  -26.3053  -13.7942   23.1678 N   0  0  0  0  0  0  0  0  0  0  0  0
  -29.4526  -26.0537   20.8969 N   0  0  0  0  0  0  0  0  0  0  0  0
  -29.4895  -24.1771   19.4142 N   0  0  0  0  0  0  0  0  0  0  0  0
  -27.0873  -30.2927   18.7284 N   0  0  0  0  0  0  0  0  0  0  0  0
  -22.6148  -30.5649   19.2936 N   0  0  0  0  0  0  0  0  0  0  0  0
  -24.5985  -12.3698   20.3770 N   0  0  0  0  0  0  0  0  0  0  0  0
  -25.8275  -14.6188   26.4159 N   0  0  0  0  0  0  0  0  0  0  0  0
  -28.6624  -14.0904   28.5957 N   0  3  0  0  0  0  0  0  0  0  0  0
  -24.4116  -31.4732   18.1956 O   0  0  0  0  0  0  0  0  0  0  0  0
  -25.5067  -14.4833   20.7390 O   0  0  0  0  0  0  0  0  0  0  0  0
  -24.5560  -12.9547   24.4607 O   0  0  0  0  0  0  0  0  0  0  0  0
  -27.8708  -15.7148   26.4391 O   0  0  0  0  0  0  0  0  0  0  0  0
  -31.3334  -25.5375   19.6676 O   0  0  0  0  0  0  0  0  0  0  0  0
  -19.5046  -27.3036   22.5686 O   0  0  0  0  0  0  0  0  0  0  0  0
  -31.4249  -16.1735   20.6372 O   0  0  0  0  0  0  0  0  0  1  0  0
  -16.2483  -31.4233   24.2503 F   0  0  0  0  0  0  0  0  0  0  0  0
  -18.6186  -27.4339   25.1840 F   0  0  0  0  0  0  0  0  0  0  0  0
  1  2  1  0  0  0  0
  1  5  2  0  0  0  0
  2  6  2  0  0  0  0
  3  9  2  0  0  0  0
  3 17  1  0  0  0  0
  4 10  1  0  0  0  0
  4 17  2  0  0  0  0
  5 19  1  0  0  0  0
  6 21  1  0  0  0  0
  7 11  2  0  0  0  0
  7 20  1  0  0  0  0
  8 14  2  0  0  0  0
  8 22  1  0  0  0  0
  9 24  1  0  0  0  0
 10 24  2  0  0  0  0
 11 25  1  0  0  0  0
 12 13  2  0  0  0  0
 12 26  1  0  0  0  0
 13 27  1  0  0  0  0
 14 31  1  0  0  0  0
 15 23  1  0  0  0  0
 15 25  2  0  0  0  0
 16 27  2  0  0  0  0
 16 28  1  0  0  0  0
 17 29  1  0  0  0  0
 18 29  1  0  0  0  0
 18 32  2  0  0  0  0
 18 33  1  0  0  0  0
 19 21  2  0  0  0  0
 19 38  1  0  0  0  0
 20 23  2  0  0  0  0
 20 39  1  0  0  0  0
 21 52  1  0  0  0  0
 22 30  2  0  0  0  0
 22 51  1  0  0  0  0
 23 40  1  0  0  0  0
 24 82  1  0  0  0  0
 25 83  1  0  0  0  0
 26 28  2  0  0  0  0
 26 82  1  0  0  0  0
 27 84  1  0  0  0  0
 28 85  1  0  0  0  0
 29 66  2  0  0  0  0
 30 61  1  0  0  0  0
 30 67  1  0  0  0  0
 31 67  2  0  0  0  0
 31 83  1  0  0  0  0
 32 68  1  0  0  0  0
 32 72  1  0  0  0  0
 33 73  1  0  0  0  0
 33 77  2  0  0  0  0
 34 53  1  0  0  0  0
 34 74  1  0  0  0  0
 34 78  2  0  0  0  0
 35 63  1  0  0  0  0
 35 69  1  0  0  0  0
 35 79  2  0  0  0  0
 36 64  1  0  0  0  0
 36 75  1  0  0  0  0
 36 80  2  0  0  0  0
 37 70  1  0  0  0  0
 37 71  1  0  0  0  0
 37 81  2  0  0  0  0
 38 41  1  0  0  0  0
 39 53  1  0  0  0  0
 40 69  1  0  0  0  0
 41 43  1  0  0  0  0
 42 44  1  0  0  0  0
 42 47  1  0  0  0  0
 43 52  1  0  0  0  0
 44 54  1  0  0  0  0
 45 48  1  0  0  0  0
 45 51  1  0  0  0  0
 46 49  1  0  0  0  0
 46 51  1  0  0  0  0
 47 70  1  0  0  0  0
 48 71  1  0  0  0  0
 49 71  1  0  0  0  0
 50 54  1  0  0  0  0
 50 70  1  0  0  0  0
 52 74  1  0  0  0  0
 53 69  1  0  0  0  0
 54 68  1  0  0  0  0
 55 62  1  0  0  0  0
 56 64  1  0  0  0  0
 57 65  1  0  0  0  0
 58 65  1  0  0  0  0
 59 65  1  0  0  0  0
 60 76  1  0  0  0  0
 61 62  1  0  0  0  0
 63 65  1  0  0  0  0
 63 75  1  0  0  0  0
 64 76  1  0  0  0  0
 66 68  1  0  0  0  0
M  CHG  1  76   1
M  ISO  4  31 101  37 100  71 100  83 101
M  END
> <Batch ID>
0142

> <Smiles>
CCCc1n[101c:1]([101O:1]c2ccc3c(c2)CN(C(=O)C(NC(=O)C(C)NC)C(C)(C)C)C(C(=O)NC2CCCc4ccccc42)C3)ccc1C1CC[100N:0]([100C:0](=O)N2CCCC(n3nc(-c4ccc(Oc5ccc(F)cc5F)cc4)c(C(N)=O)c3N)C2)CC1

> <Shape>
0.270

> <Color>
0.067

> <Negative vol penalty>
0.000

$$$$

  -OEChem-04052321183D

 87 96  0     1  0  0  0  0  0999 V2000
  -28.0824  -32.4599   26.2260 C   0  0  0  0  0  0  0  0  0  0  0  0
  -28.2210  -31.3802   25.3598 C   0  0  0  0  0  0  0  0  0  0  0  0
  -22.8067  -10.5959   22.6020 C   0  0  0  0  0  0  0  0  0  0  0  0
  -24.5055  -10.1124   20.9536 C   0  0  0  0  0  0  0  0  0  0  0  0
  -26.8647  -32.6868   26.8661 C   0  0  0  0  0  0  0  0  0  0  0  0
  -27.1422  -30.5261   25.1339 C   0  0  0  0  0  0  0  0  0  0  0  0
  -26.5319  -29.4225   20.2293 C   0  0  0  0  0  0  0  0  0  0  0  0
  -22.2131   -9.3585   22.3533 C   0  0  0  0  0  0  0  0  0  0  0  0
  -23.9119   -8.8749   20.7048 C   0  0  0  0  0  0  0  0  0  0  0  0
  -27.3905  -28.4719   19.6790 C   0  0  0  0  0  0  0  0  0  0  0  0
  -20.4580   -6.1755   22.4108 C   0  0  0  0  0  0  0  0  0  0  0  0
  -20.0640   -5.4125   23.5100 C   0  0  0  0  0  0  0  0  0  0  0  0
  -25.6644  -26.7999   19.8895 C   0  0  0  0  0  0  0  0  0  0  0  0
  -30.1542  -18.1591   20.9760 C   0  0  0  0  0  0  0  0  0  0  0  0
  -22.3486   -5.3629   24.2944 C   0  0  0  0  0  0  0  0  0  0  0  0
  -23.9529  -10.9729   21.9021 C   0  0  0  0  0  0  0  0  0  0  0  0
  -25.5674  -12.5394   23.1051 C   0  0  0  0  0  0  0  0  0  0  0  0
  -25.7676  -31.8407   26.6404 C   0  0  0  0  0  0  0  0  0  0  0  0
  -25.2346  -29.0658   20.6247 C   0  0  0  0  0  0  0  0  0  0  0  0
  -25.9091  -30.7411   25.7725 C   0  0  0  0  0  0  0  0  0  0  0  0
  -24.7905  -27.7484   20.4423 C   0  0  0  0  0  0  0  0  0  0  0  0
  -31.3169  -18.9218   21.1233 C   0  0  0  0  0  0  0  0  0  0  0  0
  -31.3217  -20.2484   20.6737 C   0  0  0  0  0  0  0  0  0  0  0  0
  -22.7657   -8.4979   21.4047 C   0  0  0  0  0  0  0  0  0  0  0  0
  -26.9578  -27.1597   19.5117 C   0  0  0  0  0  0  0  0  0  0  0  0
  -21.7973   -6.5321   22.2533 C   0  0  0  0  0  0  0  0  0  0  0  0
  -21.0093   -5.0063   24.4518 C   0  0  0  0  0  0  0  0  0  0  0  0
  -22.7426   -6.1259   23.1952 C   0  0  0  0  0  0  0  0  0  0  0  0
  -24.5663  -12.2513   22.1582 C   0  0  0  0  0  0  0  0  0  0  0  0
  -29.0385  -18.7558   20.4116 C   0  0  0  0  0  0  0  0  0  0  0  0
  -30.1404  -20.7480   20.1303 C   0  0  0  0  0  0  0  0  0  0  0  0
  -25.8055  -13.8837   22.9549 C   0  0  0  0  0  0  0  0  0  0  0  0
  -26.2236  -11.6696   24.0371 C   0  0  0  0  0  0  0  0  0  0  0  0
  -23.6552  -29.0488   23.3831 C   0  0  0  0  0  0  0  0  0  0  0  0
  -21.1460  -28.2382   21.4940 C   0  0  0  0  0  0  0  0  0  0  0  0
  -20.0459  -26.8686   18.5681 C   0  0  0  0  0  0  0  0  0  0  0  0
  -26.6440  -18.3525   19.7409 C   0  0  0  0  0  0  0  0  0  0  0  0
  -24.4854  -32.0986   27.3915 C   0  0  0  0  0  0  0  0  0  0  0  0
  -24.3116  -30.1092   21.1920 C   0  0  0  0  0  0  0  0  0  0  0  0
  -32.5528  -18.2778   21.7039 C   0  0  0  0  0  0  0  0  0  0  0  0
  -32.5209  -21.1407   20.8192 C   0  0  0  0  0  0  0  0  0  0  0  0
  -23.4003  -27.3191   20.8317 C   0  0  0  0  0  0  0  0  0  0  0  0
  -23.2801  -31.3648   26.8091 C   0  0  0  0  0  0  0  0  0  0  0  0
  -33.8117  -20.3722   21.1056 C   0  0  0  0  0  0  0  0  0  0  0  0
  -23.2666  -17.4082   20.3561 C   0  0  0  0  0  0  0  0  0  0  0  0
  -23.6302  -29.9085   26.5204 C   0  0  0  0  0  0  0  0  0  0  0  0
  -23.3860  -16.0061   20.9577 C   0  0  0  0  0  0  0  0  0  0  0  0
  -24.3089  -17.6480   19.2653 C   0  0  0  0  0  0  0  0  0  0  0  0
  -25.8159  -15.9742   20.2636 C   0  0  0  0  0  0  0  0  0  0  0  0
  -24.7546  -29.8066   25.4826 C   0  0  1  0  0  0  0  0  0  0  0  0
  -23.1862  -29.5168   22.0345 C   0  0  1  0  0  0  0  0  0  0  0  0
  -24.8285  -15.7087   21.4118 C   0  0  2  0  0  0  0  0  0  0  0  0
  -33.6331  -19.2784   22.1792 C   0  0  0  0  0  0  0  0  0  0  0  0
  -33.2438  -19.8892   23.5398 C   0  0  0  0  0  0  0  0  0  0  0  0
  -34.9673  -18.5298   22.3579 C   0  0  0  0  0  0  0  0  0  0  0  0
  -17.9394  -26.3097   17.3240 C   0  0  0  0  0  0  0  0  0  0  0  0
  -20.7054  -25.8366   23.3237 C   0  0  0  0  0  0  0  0  0  0  0  0
  -19.2581  -24.8341   21.5436 C   0  0  0  0  0  0  0  0  0  0  0  0
  -18.6106  -26.9974   22.6034 C   0  0  0  0  0  0  0  0  0  0  0  0
  -20.7630  -28.6533   16.3188 C   0  0  0  0  0  0  0  0  0  0  0  0
  -28.9464  -24.1393   19.3274 C   0  0  0  0  0  0  0  0  0  0  0  0
  -27.6193  -24.8781   19.3985 C   0  0  0  0  0  0  0  0  0  1  0  0
  -28.8193  -22.6957   19.7881 C   0  0  0  0  0  0  0  0  0  0  0  0
  -20.5596  -26.9400   20.9941 C   0  0  1  0  0  0  0  0  0  0  0  0
  -19.0259  -27.3492   17.5517 C   0  0  2  0  0  0  0  0  0  0  0  0
  -19.8104  -26.1593   22.1106 C   0  0  0  0  0  0  0  0  0  0  0  0
  -24.1938  -13.3262   21.4584 N   0  0  0  0  0  0  0  0  0  0  0  0
  -29.0008  -20.0355   19.9863 N   0  0  0  0  0  0  0  0  0  0  0  0
  -24.9650  -14.3029   21.9659 N   0  0  0  0  0  0  0  0  0  0  0  0
  -22.5374  -28.3743   21.3880 N   0  0  0  0  0  0  0  0  0  0  0  0
  -25.6515  -17.3501   19.7689 N   0  0  0  0  0  0  0  0  0  0  0  0
  -26.6496  -14.7364   23.5736 N   0  0  0  0  0  0  0  0  0  0  0  0
  -25.8587  -10.3166   24.0591 N   0  0  0  0  0  0  0  0  0  0  0  0
  -27.8716  -17.9636   20.2760 N   0  0  0  0  0  0  0  0  0  0  0  0
  -24.2364  -30.0394   24.1515 N   0  0  0  0  0  0  0  0  0  0  0  0
  -19.7294  -27.2830   19.8445 N   0  0  0  0  0  0  0  0  0  0  0  0
  -19.6880  -27.6306   16.2466 N   0  3  0  0  0  0  0  0  0  0  0  0
  -27.0956  -12.0834   24.8383 O   0  0  0  0  0  0  0  0  0  0  0  0
  -23.4999  -27.8762   23.7034 O   0  0  0  0  0  0  0  0  0  0  0  0
  -20.3962  -29.1026   21.9547 O   0  0  0  0  0  0  0  0  0  0  0  0
  -21.0235  -26.1900   18.2610 O   0  0  0  0  0  0  0  0  0  0  0  0
  -26.4134  -19.4820   19.3013 O   0  0  0  0  0  0  0  0  0  0  0  0
  -22.1868   -7.2902   21.1619 O   0  0  0  0  0  0  0  0  0  0  0  0
  -27.7940  -26.2296   18.9753 O   0  0  0  0  0  0  0  0  0  1  0  0
  -30.0831  -22.0506   19.7078 O   0  0  0  0  0  0  0  0  0  0  0  0
  -20.6305   -4.2750   25.5082 F   0  0  0  0  0  0  0  0  0  0  0  0
  -24.0305   -6.4664   23.0499 F   0  0  0  0  0  0  0  0  0  0  0  0
  1  2  1  0  0  0  0
  1  5  2  0  0  0  0
  2  6  2  0  0  0  0
  3  8  2  0  0  0  0
  3 16  1  0  0  0  0
  4  9  1  0  0  0  0
  4 16  2  0  0  0  0
  5 18  1  0  0  0  0
  6 20  1  0  0  0  0
  7 10  2  0  0  0  0
  7 19  1  0  0  0  0
  8 24  1  0  0  0  0
  9 24  2  0  0  0  0
 10 25  1  0  0  0  0
 11 12  2  0  0  0  0
 11 26  1  0  0  0  0
 12 27  1  0  0  0  0
 13 21  1  0  0  0  0
 13 25  2  0  0  0  0
 14 22  2  0  0  0  0
 14 30  1  0  0  0  0
 15 27  2  0  0  0  0
 15 28  1  0  0  0  0
 16 29  1  0  0  0  0
 17 29  1  0  0  0  0
 17 32  2  0  0  0  0
 17 33  1  0  0  0  0
 18 20  2  0  0  0  0
 18 38  1  0  0  0  0
 19 21  2  0  0  0  0
 19 39  1  0  0  0  0
 20 50  1  0  0  0  0
 21 42  1  0  0  0  0
 22 23  1  0  0  0  0
 22 40  1  0  0  0  0
 23 31  2  0  0  0  0
 23 41  1  0  0  0  0
 24 83  1  0  0  0  0
 25 84  1  0  0  0  0
 26 28  2  0  0  0  0
 26 83  1  0  0  0  0
 27 86  1  0  0  0  0
 28 87  1  0  0  0  0
 29 67  2  0  0  0  0
 30 68  2  0  0  0  0
 30 74  1  0  0  0  0
 31 68  1  0  0  0  0
 31 85  1  0  0  0  0
 32 69  1  0  0  0  0
 32 72  1  0  0  0  0
 33 73  1  0  0  0  0
 33 78  2  0  0  0  0
 34 51  1  0  0  0  0
 34 75  1  0  0  0  0
 34 79  2  0  0  0  0
 35 64  1  0  0  0  0
 35 70  1  0  0  0  0
 35 80  2  0  0  0  0
 36 65  1  0  0  0  0
 36 76  1  0  0  0  0
 36 81  2  0  0  0  0
 37 71  1  0  0  0  0
 37 74  1  0  0  0  0
 37 82  2  0  0  0  0
 38 43  1  0  0  0  0
 39 51  1  0  0  0  0
 40 53  1  0  0  0  0
 41 44  1  0  0  0  0
 42 70  1  0  0  0  0
 43 46  1  0  0  0  0
 44 53  1  0  0  0  0
 45 47  1  0  0  0  0
 45 48  1  0  0  0  0
 46 50  1  0  0  0  0
 47 52  1  0  0  0  0
 48 71  1  0  0  0  0
 49 52  1  0  0  0  0
 49 71  1  0  0  0  0
 50 75  1  0  0  0  0
 51 70  1  0  0  0  0
 52 69  1  0  0  0  0
 53 54  1  0  0  0  0
 53 55  1  0  0  0  0
 56 65  1  0  0  0  0
 57 66  1  0  0  0  0
 58 66  1  0  0  0  0
 59 66  1  0  0  0  0
 60 77  1  0  0  0  0
 61 62  1  0  0  0  0
 61 63  1  0  0  0  0
 62 84  1  0  0  0  0
 63 85  1  0  0  0  0
 64 66  1  0  0  0  0
 64 76  1  0  0  0  0
 65 77  1  0  0  0  0
 67 69  1  0  0  0  0
M  CHG  1  77   1
M  ISO  4  37 100  62 101  74 100  84 101
M  END
> <Batch ID>
0142

> <Smiles>
CNC(C)C(=O)NC(C(=O)N1Cc2cc([101O:1][101CH2:1]CCOc3nc([100NH:0][100C:0](=O)N4CCCC(n5nc(-c6ccc(Oc7ccc(F)cc7F)cc6)c(C(N)=O)c5N)C4)cc4c3CCC(C)(C)C4)ccc2CC1C(=O)NC1CCCc2ccccc21)C(C)(C)C

> <Shape>
0.286

> <Color>
0.080

> <Negative vol penalty>
0.000

$$$$

  -OEChem-04052321183D

 85 94  0     1  0  0  0  0  0999 V2000
  -26.7259  -36.2923   25.1281 C   0  0  0  0  0  0  0  0  0  0  0  0
  -27.3839  -35.2670   24.4563 C   0  0  0  0  0  0  0  0  0  0  0  0
  -23.5369   -9.7538   21.3208 C   0  0  0  0  0  0  0  0  0  0  0  0
  -24.1712  -10.7223   23.4414 C   0  0  0  0  0  0  0  0  0  0  0  0
  -25.5344  -36.0298   25.8029 C   0  0  0  0  0  0  0  0  0  0  0  0
  -26.8513  -33.9783   24.4599 C   0  0  0  0  0  0  0  0  0  0  0  0
  -27.1003  -29.8792   19.9167 C   0  0  0  0  0  0  0  0  0  0  0  0
  -22.9337   -8.6877   21.9881 C   0  0  0  0  0  0  0  0  0  0  0  0
  -23.5680   -9.6562   24.1087 C   0  0  0  0  0  0  0  0  0  0  0  0
  -27.9373  -28.7893   19.6815 C   0  0  0  0  0  0  0  0  0  0  0  0
  -20.0401   -8.0962   23.6343 C   0  0  0  0  0  0  0  0  0  0  0  0
  -18.7763   -7.6933   23.2031 C   0  0  0  0  0  0  0  0  0  0  0  0
  -26.2961  -27.3234   20.6700 C   0  0  0  0  0  0  0  0  0  0  0  0
  -30.9934  -22.7941   21.0046 C   0  0  0  0  0  0  0  0  0  0  0  0
  -29.3617  -22.1354   19.3491 C   0  0  0  0  0  0  0  0  0  0  0  0
  -19.6453   -5.4930   22.7121 C   0  0  0  0  0  0  0  0  0  0  0  0
  -24.1557  -10.7711   22.0475 C   0  0  0  0  0  0  0  0  0  0  0  0
  -24.1797  -13.0891   20.9827 C   0  0  0  0  0  0  0  0  0  0  0  0
  -24.9819  -34.7393   25.8067 C   0  0  0  0  0  0  0  0  0  0  0  0
  -25.8575  -29.7006   20.5411 C   0  0  0  0  0  0  0  0  0  0  0  0
  -25.6520  -33.6980   25.1365 C   0  0  0  0  0  0  0  0  0  0  0  0
  -25.4441  -28.4124   20.9096 C   0  0  0  0  0  0  0  0  0  0  0  0
  -30.1582  -20.5274   20.9668 C   0  0  0  0  0  0  0  0  0  0  0  0
  -30.9804  -21.5025   21.5313 C   0  0  0  0  0  0  0  0  0  0  0  0
  -29.3488  -20.8438   19.8757 C   0  0  0  0  0  0  0  0  0  0  0  0
  -22.9492   -8.6389   23.3820 C   0  0  0  0  0  0  0  0  0  0  0  0
  -27.5365  -27.5116   20.0608 C   0  0  0  0  0  0  0  0  0  0  0  0
  -21.1066   -7.1976   23.6043 C   0  0  0  0  0  0  0  0  0  0  0  0
  -30.1840  -23.1105   19.9136 C   0  0  0  0  0  0  0  0  0  0  0  0
  -18.5788   -6.3917   22.7420 C   0  0  0  0  0  0  0  0  0  0  0  0
  -20.9091   -5.8960   23.1433 C   0  0  0  0  0  0  0  0  0  0  0  0
  -24.7795  -11.8723   21.3588 C   0  0  0  0  0  0  0  0  0  0  0  0
  -25.1850  -13.7902   20.3627 C   0  0  0  0  0  0  0  0  0  0  0  0
  -22.8342  -13.5449   21.1764 C   0  0  0  0  0  0  0  0  0  0  0  0
  -24.5377  -30.7260   23.2449 C   0  0  0  0  0  0  0  0  0  0  0  0
  -30.5021  -15.5247   20.2644 C   0  0  0  0  0  0  0  0  0  0  0  0
  -21.8960  -29.2706   22.0509 C   0  0  0  0  0  0  0  0  0  0  0  0
  -20.5815  -26.9039   19.9730 C   0  0  0  0  0  0  0  0  0  0  0  0
  -23.7165  -34.4937   26.5897 C   0  0  0  0  0  0  0  0  0  0  0  0
  -24.9548  -30.8830   20.7635 C   0  0  0  0  0  0  0  0  0  0  0  0
  -24.1109  -28.1645   21.5648 C   0  0  0  0  0  0  0  0  0  0  0  0
  -23.0233  -33.1818   26.2311 C   0  0  0  0  0  0  0  0  0  0  0  0
  -29.7677  -12.3264   18.8249 C   0  0  0  0  0  0  0  0  0  0  0  0
  -24.0344  -32.0410   26.1774 C   0  0  0  0  0  0  0  0  0  0  0  0
  -28.3678  -12.0097   19.3494 C   0  0  0  0  0  0  0  0  0  0  0  0
  -31.4494  -18.3973   21.6600 C   0  0  0  0  0  0  0  0  0  0  0  0
  -30.5923  -13.0871   19.8586 C   0  0  0  0  0  0  0  0  0  0  0  0
  -28.5419  -14.0240   20.8782 C   0  0  0  0  0  0  0  0  0  0  0  0
  -30.1456  -19.1423   21.5310 C   0  0  2  0  0  0  0  0  0  0  0  0
  -25.0929  -32.2924   25.0967 C   0  0  1  0  0  0  0  0  0  0  0  0
  -23.9318  -30.6537   21.8718 C   0  0  1  0  0  0  0  0  0  0  0  0
  -30.4547  -17.9831   20.6168 C   0  0  2  0  0  0  0  0  0  0  0  0
  -27.6651  -13.2827   19.8534 C   0  0  2  0  0  0  0  0  0  0  0  0
  -31.8570  -21.1925   22.7006 C   0  0  0  0  0  0  0  0  0  0  0  0
  -28.4585  -19.8190   19.2520 C   0  0  0  0  0  0  0  0  0  0  0  0
  -18.3908  -25.9234   19.2404 C   0  0  0  0  0  0  0  0  0  0  0  0
  -21.7070  -27.7344   24.6804 C   0  0  0  0  0  0  0  0  0  0  0  0
  -20.1387  -26.1396   23.5554 C   0  0  0  0  0  0  0  0  0  0  0  0
  -19.5166  -28.5444   23.7856 C   0  0  0  0  0  0  0  0  0  0  0  0
  -21.0288  -27.7101   17.1607 C   0  0  0  0  0  0  0  0  0  0  0  0
  -29.7053  -16.7036   20.7636 C   0  0  0  0  0  0  0  0  0  0  0  0
  -29.7577  -26.6907   19.8406 C   0  0  0  0  0  0  0  0  0  1  0  0
  -30.4758  -25.4382   20.3042 C   0  0  0  0  0  0  0  0  0  0  0  0
  -21.3115  -27.8812   22.1332 C   0  0  1  0  0  0  0  0  0  0  0  0
  -19.4571  -26.9695   18.9552 C   0  0  2  0  0  0  0  0  0  0  0  0
  -20.6945  -27.5795   23.5281 C   0  0  0  0  0  0  0  0  0  0  0  0
  -26.0661  -11.8011   21.0070 N   0  0  0  0  0  0  0  0  0  0  0  0
  -26.2830  -12.9820   20.4033 N   0  0  0  0  0  0  0  0  0  0  0  0
  -23.2665  -29.3535   21.7667 N   0  0  0  0  0  0  0  0  0  0  0  0
  -29.8811  -14.2772   20.3288 N   0  0  0  0  0  0  0  0  0  0  0  0
  -25.2281  -15.0129   19.7922 N   0  0  0  0  0  0  0  0  0  0  0  0
  -21.9301  -12.6986   21.8325 N   0  0  0  0  0  0  0  0  0  0  0  0
  -24.5562  -31.9976   23.7854 N   0  0  0  0  0  0  0  0  0  0  0  0
  -20.3686  -27.7687   21.0257 N   0  0  0  0  0  0  0  0  0  0  0  0
  -19.9874  -26.7379   17.5819 N   0  3  0  0  0  0  0  0  0  0  0  0
  -22.4410  -14.6627   20.7649 O   0  0  0  0  0  0  0  0  0  0  0  0
  -24.9560  -29.7036   23.7754 O   0  0  0  0  0  0  0  0  0  0  0  0
  -31.6412  -15.7093   19.8279 O   0  0  0  0  0  0  0  0  0  0  0  0
  -21.1621  -30.2467   22.2251 O   0  0  0  0  0  0  0  0  0  0  0  0
  -21.5498  -26.1573   19.8487 O   0  0  0  0  0  0  0  0  0  0  0  0
  -22.3605   -7.5990   24.0335 O   0  0  0  0  0  0  0  0  0  0  0  0
  -28.3518  -26.4461   19.8331 O   0  0  0  0  0  0  0  0  0  1  0  0
  -30.1960  -24.3793   19.3966 O   0  0  0  0  0  0  0  0  0  0  0  0
  -17.3648   -6.0044   22.3294 F   0  0  0  0  0  0  0  0  0  0  0  0
  -21.9296   -5.0279   23.1133 F   0  0  0  0  0  0  0  0  0  0  0  0
  1  2  1  0  0  0  0
  1  5  2  0  0  0  0
  2  6  2  0  0  0  0
  3  8  2  0  0  0  0
  3 17  1  0  0  0  0
  4  9  1  0  0  0  0
  4 17  2  0  0  0  0
  5 19  1  0  0  0  0
  6 21  1  0  0  0  0
  7 10  2  0  0  0  0
  7 20  1  0  0  0  0
  8 26  1  0  0  0  0
  9 26  2  0  0  0  0
 10 27  1  0  0  0  0
 11 12  2  0  0  0  0
 11 28  1  0  0  0  0
 12 30  1  0  0  0  0
 13 22  1  0  0  0  0
 13 27  2  0  0  0  0
 14 24  2  0  0  0  0
 14 29  1  0  0  0  0
 15 25  1  0  0  0  0
 15 29  2  0  0  0  0
 16 30  2  0  0  0  0
 16 31  1  0  0  0  0
 17 32  1  0  0  0  0
 18 32  1  0  0  0  0
 18 33  2  0  0  0  0
 18 34  1  0  0  0  0
 19 21  2  0  0  0  0
 19 39  1  0  0  0  0
 20 22  2  0  0  0  0
 20 40  1  0  0  0  0
 21 50  1  0  0  0  0
 22 41  1  0  0  0  0
 23 24  1  0  0  0  0
 23 25  2  0  0  0  0
 23 49  1  0  0  0  0
 24 54  1  0  0  0  0
 25 55  1  0  0  0  0
 26 81  1  0  0  0  0
 27 82  1  0  0  0  0
 28 31  2  0  0  0  0
 28 81  1  0  0  0  0
 29 83  1  0  0  0  0
 30 84  1  0  0  0  0
 31 85  1  0  0  0  0
 32 67  2  0  0  0  0
 33 68  1  0  0  0  0
 33 71  1  0  0  0  0
 34 72  1  0  0  0  0
 34 76  2  0  0  0  0
 35 51  1  0  0  0  0
 35 73  1  0  0  0  0
 35 77  2  0  0  0  0
 36 61  1  0  0  0  0
 36 70  1  0  0  0  0
 36 78  2  0  0  0  0
 37 64  1  0  0  0  0
 37 69  1  0  0  0  0
 37 79  2  0  0  0  0
 38 65  1  0  0  0  0
 38 74  1  0  0  0  0
 38 80  2  0  0  0  0
 39 42  1  0  0  0  0
 40 51  1  0  0  0  0
 41 69  1  0  0  0  0
 42 44  1  0  0  0  0
 43 45  1  0  0  0  0
 43 47  1  0  0  0  0
 44 50  1  0  0  0  0
 45 53  1  0  0  0  0
 46 49  1  0  0  0  0
 46 52  1  0  0  0  0
 47 70  1  0  0  0  0
 48 53  1  0  0  0  0
 48 70  1  0  0  0  0
 49 52  1  0  0  0  0
 50 73  1  0  0  0  0
 51 69  1  0  0  0  0
 52 61  1  0  0  0  0
 53 68  1  0  0  0  0
 56 65  1  0  0  0  0
 57 66  1  0  0  0  0
 58 66  1  0  0  0  0
 59 66  1  0  0  0  0
 60 75  1  0  0  0  0
 62 63  1  0  0  0  0
 62 82  1  0  0  0  0
 63 83  1  0  0  0  0
 64 66  1  0  0  0  0
 64 74  1  0  0  0  0
 65 75  1  0  0  0  0
 67 68  1  0  0  0  0
M  CHG  1  75   1
M  ISO  4  36 100  61 100  62 101  82 101
M  END
> <Batch ID>
0142

> <Smiles>
CNC(C)C(=O)NC(C(=O)N1Cc2cc([101O:1][101CH2:1]COc3cc(C)c(C4CC4[100CH2:0][100C:0](=O)N4CCCC(n5nc(-c6ccc(Oc7ccc(F)cc7F)cc6)c(C(N)=O)c5N)C4)c(C)c3)ccc2CC1C(=O)NC1CCCc2ccccc21)C(C)(C)C

> <Shape>
0.386

> <Color>
0.190

> <Negative vol penalty>
0.000

$$$$

  -OEChem-04052321183D

 85 95  0     1  0  0  0  0  0999 V2000
  -24.2656  -22.5884   18.2563 C   0  0  0  0  0  0  0  0  0  0  0  0
  -25.4120  -21.9175   18.6699 C   0  0  0  0  0  0  0  0  0  0  0  0
  -23.3384   -9.7788   20.0122 C   0  0  0  0  0  0  0  0  0  0  0  0
  -23.7828  -10.0382   22.3727 C   0  0  0  0  0  0  0  0  0  0  0  0
  -24.3306  -23.9430   17.9327 C   0  0  0  0  0  0  0  0  0  0  0  0
  -26.6244  -22.6006   18.7590 C   0  0  0  0  0  0  0  0  0  0  0  0
  -29.1395  -21.5460   23.0259 C   0  0  0  0  0  0  0  0  0  0  0  0
  -22.6300   -8.6062   20.2743 C   0  0  0  0  0  0  0  0  0  0  0  0
  -23.0743   -8.8656   22.6349 C   0  0  0  0  0  0  0  0  0  0  0  0
  -29.8268  -20.3341   23.0769 C   0  0  0  0  0  0  0  0  0  0  0  0
  -19.8414   -7.9154   22.8918 C   0  0  0  0  0  0  0  0  0  0  0  0
  -18.9377   -7.9299   23.9541 C   0  0  0  0  0  0  0  0  0  0  0  0
  -31.8870  -21.4888   22.5853 C   0  0  0  0  0  0  0  0  0  0  0  0
  -20.1702   -6.1503   25.0270 C   0  0  0  0  0  0  0  0  0  0  0  0
  -23.9149  -10.4947   21.0614 C   0  0  0  0  0  0  0  0  0  0  0  0
  -24.1354  -13.0163   20.7437 C   0  0  0  0  0  0  0  0  0  0  0  0
  -25.5424  -24.6454   18.0271 C   0  0  0  0  0  0  0  0  0  0  0  0
  -29.8201  -22.7389   22.7430 C   0  0  0  0  0  0  0  0  0  0  0  0
  -26.7059  -23.9656   18.4350 C   0  0  0  0  0  0  0  0  0  0  0  0
  -31.2064  -22.7148   22.5338 C   0  0  0  0  0  0  0  0  0  0  0  0
  -22.4979   -8.1496   21.5857 C   0  0  0  0  0  0  0  0  0  0  0  0
  -31.2003  -20.3049   22.8537 C   0  0  0  0  0  0  0  0  0  0  0  0
  -20.9096   -7.0182   22.8970 C   0  0  0  0  0  0  0  0  0  0  0  0
  -19.1020   -7.0474   25.0217 C   0  0  0  0  0  0  0  0  0  0  0  0
  -21.0739   -6.1357   23.9646 C   0  0  0  0  0  0  0  0  0  0  0  0
  -24.6474  -11.7058   20.7911 C   0  0  0  0  0  0  0  0  0  0  0  0
  -25.2251  -13.8003   20.4533 C   0  0  0  0  0  0  0  0  0  0  0  0
  -22.7947  -13.4832   20.9443 C   0  0  0  0  0  0  0  0  0  0  0  0
  -29.6681  -24.9137   20.4299 C   0  0  0  0  0  0  0  0  0  0  0  0
  -31.8007  -26.4859   22.3014 C   0  0  0  0  0  0  0  0  0  0  0  0
  -34.2020  -26.3259   24.7210 C   0  0  0  0  0  0  0  0  0  0  0  0
  -29.6618  -14.7506   17.3789 C   0  0  0  0  0  0  0  0  0  0  0  0
  -25.5732  -26.0976   17.6213 C   0  0  0  0  0  0  0  0  0  0  0  0
  -29.0685  -24.0416   22.7180 C   0  0  0  0  0  0  0  0  0  0  0  0
  -31.9869  -23.9704   22.2463 C   0  0  0  0  0  0  0  0  0  0  0  0
  -26.8187  -26.8380   18.1018 C   0  0  0  0  0  0  0  0  0  0  0  0
  -30.1477  -12.7362   20.4030 C   0  0  0  0  0  0  0  0  0  0  0  0
  -28.0715  -26.0151   17.8184 C   0  0  0  0  0  0  0  0  0  0  0  0
  -34.2816  -18.2597   15.7288 C   0  0  0  0  0  0  0  0  0  0  0  0
  -34.1802  -17.2450   14.6242 C   0  0  0  0  0  0  0  0  0  0  0  0
  -28.7096  -12.3480   20.7301 C   0  0  0  0  0  0  0  0  0  0  0  0
  -31.8650  -14.5621   14.8510 C   0  0  0  0  0  0  0  0  0  0  0  0
  -30.3950  -12.8360   18.8973 C   0  0  0  0  0  0  0  0  0  0  0  0
  -31.6010  -13.6249   16.0335 C   0  0  0  0  0  0  0  0  0  0  0  0
  -27.9939  -13.3374   18.5273 C   0  0  0  0  0  0  0  0  0  0  0  0
  -31.5372  -16.5348   18.8906 C   0  0  0  0  0  0  0  0  0  0  0  0
  -32.6471  -18.2421   18.4244 C   0  0  0  0  0  0  0  0  0  0  0  0
  -28.0344  -24.6779   18.5680 C   0  0  1  0  0  0  0  0  0  0  0  0
  -29.7786  -25.1258   21.9133 C   0  0  1  0  0  0  0  0  0  0  0  0
  -32.9598  -17.6118   15.4222 C   0  0  0  0  0  0  0  0  0  0  0  0
  -31.7161  -17.3404   17.5863 C   0  0  0  0  0  0  0  0  0  0  0  0
  -27.7245  -13.3017   20.0382 C   0  0  1  0  0  0  0  0  0  0  0  0
  -31.3316  -15.7219   15.7058 C   0  0  2  0  0  0  0  0  0  0  0  0
  -35.7924  -27.7714   26.0167 C   0  0  0  0  0  0  0  0  0  0  0  0
  -33.6179  -26.6730   19.8575 C   0  0  0  0  0  0  0  0  0  0  0  0
  -35.5104  -27.2416   21.3949 C   0  0  0  0  0  0  0  0  0  0  0  0
  -33.5269  -28.7476   21.2511 C   0  0  0  0  0  0  0  0  0  0  0  0
  -32.9486  -25.5939   27.3002 C   0  0  0  0  0  0  0  0  0  0  0  0
  -32.1283  -16.9335   21.9472 C   0  0  0  0  0  0  0  0  0  0  0  0
  -32.8821  -17.4400   20.7267 C   0  0  0  0  0  0  0  0  0  0  0  0
  -31.1539  -17.9491   22.5310 C   0  0  0  0  0  0  0  0  0  1  0  0
  -33.3057  -26.5144   22.4155 C   0  0  1  0  0  0  0  0  0  0  0  0
  -34.4111  -27.1358   25.9879 C   0  0  2  0  0  0  0  0  0  0  0  0
  -32.3482  -16.6059   16.4010 C   0  0  1  0  0  0  0  0  0  0  0  0
  -33.9755  -27.2701   21.2332 C   0  0  0  0  0  0  0  0  0  0  0  0
  -25.9602  -11.6560   20.5499 N   0  0  0  0  0  0  0  0  0  0  0  0
  -26.2823  -12.9450   20.3481 N   0  0  0  0  0  0  0  0  0  0  0  0
  -31.2061  -25.2184   22.2262 N   0  0  0  0  0  0  0  0  0  0  0  0
  -29.3913  -13.6748   18.2315 N   0  0  0  0  0  0  0  0  0  0  0  0
  -30.8023  -14.6973   16.6087 N   0  0  0  0  0  0  0  0  0  0  0  0
  -25.3725  -15.1310   20.2801 N   0  0  0  0  0  0  0  0  0  0  0  0
  -21.7964  -12.5433   21.2348 N   0  0  0  0  0  0  0  0  0  0  0  0
  -28.3682  -24.8711   19.9629 N   0  0  0  0  0  0  0  0  0  0  0  0
  -33.6050  -27.0746   23.7289 N   0  0  0  0  0  0  0  0  0  0  0  0
  -31.9435  -17.7495   19.6262 N   0  3  0  0  0  0  0  0  0  0  0  0
  -34.2693  -26.2649   27.1888 N   0  3  0  0  0  0  0  0  0  0  0  0
  -22.4880  -14.6960   20.8521 O   0  0  0  0  0  0  0  0  0  0  0  0
  -30.6867  -24.7989   19.7584 O   0  0  0  0  0  0  0  0  0  0  0  0
  -31.1751  -27.5490   22.2870 O   0  0  0  0  0  0  0  0  0  0  0  0
  -34.5384  -25.1481   24.6204 O   0  0  0  0  0  0  0  0  0  0  0  0
  -28.8945  -15.7175   17.2825 O   0  0  0  0  0  0  0  0  0  0  0  0
  -21.8064   -7.0056   21.8419 O   0  0  0  0  0  0  0  0  0  0  0  0
  -31.8783  -19.1150   22.9025 O   0  0  0  0  0  0  0  0  0  1  0  0
  -18.2349   -7.0625   26.0425 F   0  0  0  0  0  0  0  0  0  0  0  0
  -22.0988   -5.2724   23.9758 F   0  0  0  0  0  0  0  0  0  0  0  0
  1  2  1  0  0  0  0
  1  5  2  0  0  0  0
  2  6  2  0  0  0  0
  3  8  2  0  0  0  0
  3 15  1  0  0  0  0
  4  9  1  0  0  0  0
  4 15  2  0  0  0  0
  5 17  1  0  0  0  0
  6 19  1  0  0  0  0
  7 10  2  0  0  0  0
  7 18  1  0  0  0  0
  8 21  1  0  0  0  0
  9 21  2  0  0  0  0
 10 22  1  0  0  0  0
 11 12  2  0  0  0  0
 11 23  1  0  0  0  0
 12 24  1  0  0  0  0
 13 20  1  0  0  0  0
 13 22  2  0  0  0  0
 14 24  2  0  0  0  0
 14 25  1  0  0  0  0
 15 26  1  0  0  0  0
 16 26  1  0  0  0  0
 16 27  2  0  0  0  0
 16 28  1  0  0  0  0
 17 19  2  0  0  0  0
 17 33  1  0  0  0  0
 18 20  2  0  0  0  0
 18 34  1  0  0  0  0
 19 48  1  0  0  0  0
 20 35  1  0  0  0  0
 21 82  1  0  0  0  0
 22 83  1  0  0  0  0
 23 25  2  0  0  0  0
 23 82  1  0  0  0  0
 24 84  1  0  0  0  0
 25 85  1  0  0  0  0
 26 66  2  0  0  0  0
 27 67  1  0  0  0  0
 27 71  1  0  0  0  0
 28 72  1  0  0  0  0
 28 77  2  0  0  0  0
 29 49  1  0  0  0  0
 29 73  1  0  0  0  0
 29 78  2  0  0  0  0
 30 62  1  0  0  0  0
 30 68  1  0  0  0  0
 30 79  2  0  0  0  0
 31 63  1  0  0  0  0
 31 74  1  0  0  0  0
 31 80  2  0  0  0  0
 32 69  1  0  0  0  0
 32 70  1  0  0  0  0
 32 81  2  0  0  0  0
 33 36  1  0  0  0  0
 34 49  1  0  0  0  0
 35 68  1  0  0  0  0
 36 38  1  0  0  0  0
 37 41  1  0  0  0  0
 37 43  1  0  0  0  0
 38 48  1  0  0  0  0
 39 40  1  0  0  0  0
 39 50  1  0  0  0  0
 40 50  1  0  0  0  0
 41 52  1  0  0  0  0
 42 44  1  0  0  0  0
 42 53  1  0  0  0  0
 43 69  1  0  0  0  0
 44 70  1  0  0  0  0
 45 52  1  0  0  0  0
 45 69  1  0  0  0  0
 46 51  1  0  0  0  0
 46 75  1  0  0  0  0
 47 51  1  0  0  0  0
 47 75  1  0  0  0  0
 48 73  1  0  0  0  0
 49 68  1  0  0  0  0
 50 64  1  0  0  0  0
 51 64  1  0  0  0  0
 52 67  1  0  0  0  0
 53 64  1  0  0  0  0
 53 70  1  0  0  0  0
 54 63  1  0  0  0  0
 55 65  1  0  0  0  0
 56 65  1  0  0  0  0
 57 65  1  0  0  0  0
 58 76  1  0  0  0  0
 59 60  1  0  0  0  0
 59 61  1  0  0  0  0
 60 75  1  0  0  0  0
 61 83  1  0  0  0  0
 62 65  1  0  0  0  0
 62 74  1  0  0  0  0
 63 76  1  0  0  0  0
 66 67  1  0  0  0  0
M  CHG  2  75   1  76   1
M  ISO  4  32 100  61 101  70 100  83 101
M  END
> <Batch ID>
0142

> <Smiles>
CNC(C)C(=O)NC(C(=O)N1Cc2cc([101O:1][101CH2:1]CCN3CC(C(C4CC4)C4CC[100N:0]4[100C:0](=O)N4CCCC(n5nc(-c6ccc(Oc7ccc(F)cc7F)cc6)c(C(N)=O)c5N)C4)C3)ccc2CC1C(=O)NC1CCCc2ccccc21)C(C)(C)C

> <Shape>
0.176

> <Color>
0.186

> <Negative vol penalty>
0.000

$$$$

  -OEChem-04052321183D

 84 93  0     1  0  0  0  0  0999 V2000
  -44.3280  -22.5860   23.3598 C   0  0  0  0  0  0  0  0  0  0  0  0
  -42.9844  -22.5740   23.7207 C   0  0  0  0  0  0  0  0  0  0  0  0
  -22.9988   -9.8947   19.9755 C   0  0  0  0  0  0  0  0  0  0  0  0
  -23.6519   -9.9606   22.3006 C   0  0  0  0  0  0  0  0  0  0  0  0
  -44.7330  -23.2576   22.2071 C   0  0  0  0  0  0  0  0  0  0  0  0
  -42.0453  -23.2347   22.9296 C   0  0  0  0  0  0  0  0  0  0  0  0
  -37.8740  -20.4712   22.1493 C   0  0  0  0  0  0  0  0  0  0  0  0
  -22.2058   -8.7758   20.2299 C   0  0  0  0  0  0  0  0  0  0  0  0
  -22.8588   -8.8417   22.5551 C   0  0  0  0  0  0  0  0  0  0  0  0
  -36.9462  -20.4116   23.1882 C   0  0  0  0  0  0  0  0  0  0  0  0
  -21.2895   -5.7870   23.7450 C   0  0  0  0  0  0  0  0  0  0  0  0
  -21.8347   -4.7707   24.5296 C   0  0  0  0  0  0  0  0  0  0  0  0
  -35.6028  -22.0782   22.0761 C   0  0  0  0  0  0  0  0  0  0  0  0
  -30.5690  -16.8284   23.8359 C   0  0  0  0  0  0  0  0  0  0  0  0
  -23.6085   -4.4765   22.9158 C   0  0  0  0  0  0  0  0  0  0  0  0
  -23.7220  -10.4871   21.0108 C   0  0  0  0  0  0  0  0  0  0  0  0
  -24.1540  -12.9939   20.8193 C   0  0  0  0  0  0  0  0  0  0  0  0
  -43.7970  -23.9188   21.3963 C   0  0  0  0  0  0  0  0  0  0  0  0
  -37.6783  -21.3443   21.0695 C   0  0  0  0  0  0  0  0  0  0  0  0
  -42.4384  -23.9170   21.7657 C   0  0  0  0  0  0  0  0  0  0  0  0
  -36.5283  -22.1452   21.0235 C   0  0  0  0  0  0  0  0  0  0  0  0
  -32.1521  -18.6317   23.6728 C   0  0  0  0  0  0  0  0  0  0  0  0
  -31.1397  -17.9794   24.3677 C   0  0  0  0  0  0  0  0  0  0  0  0
  -22.1357   -8.2494   21.5197 C   0  0  0  0  0  0  0  0  0  0  0  0
  -35.8118  -21.2172   23.1531 C   0  0  0  0  0  0  0  0  0  0  0  0
  -21.9038   -6.1480   22.5458 C   0  0  0  0  0  0  0  0  0  0  0  0
  -22.9942   -4.1155   24.1150 C   0  0  0  0  0  0  0  0  0  0  0  0
  -23.0632   -5.4928   22.1312 C   0  0  0  0  0  0  0  0  0  0  0  0
  -24.5419  -11.6425   20.7485 C   0  0  0  0  0  0  0  0  0  0  0  0
  -32.5547  -18.0969   22.4597 C   0  0  0  0  0  0  0  0  0  0  0  0
  -31.0423  -16.3744   22.6154 C   0  0  0  0  0  0  0  0  0  0  0  0
  -25.2864  -13.6943   20.4823 C   0  0  0  0  0  0  0  0  0  0  0  0
  -22.8837  -13.5651   21.1595 C   0  0  0  0  0  0  0  0  0  0  0  0
  -39.2638  -23.8279   19.8771 C   0  0  0  0  0  0  0  0  0  0  0  0
  -37.0261  -23.6356   17.5365 C   0  0  0  0  0  0  0  0  0  0  0  0
  -33.9062  -22.6305   16.5865 C   0  0  0  0  0  0  0  0  0  0  0  0
  -30.7709  -14.5697   20.8789 C   0  0  0  0  0  0  0  0  0  0  0  0
  -44.2889  -24.6711   20.1852 C   0  0  0  0  0  0  0  0  0  0  0  0
  -38.6752  -21.3773   19.9436 C   0  0  0  0  0  0  0  0  0  0  0  0
  -36.2615  -23.0845   19.8768 C   0  0  0  0  0  0  0  0  0  0  0  0
  -43.1800  -25.0304   19.1995 C   0  0  0  0  0  0  0  0  0  0  0  0
  -29.6861  -12.1084   18.5459 C   0  0  0  0  0  0  0  0  0  0  0  0
  -41.9800  -25.6168   19.9364 C   0  0  0  0  0  0  0  0  0  0  0  0
  -28.2192  -11.8790   18.9168 C   0  0  0  0  0  0  0  0  0  0  0  0
  -33.3765  -19.8364   25.6029 C   0  0  0  0  0  0  0  0  0  0  0  0
  -30.5520  -12.3512   19.7808 C   0  0  0  0  0  0  0  0  0  0  0  0
  -28.6089  -13.1862   21.0443 C   0  0  0  0  0  0  0  0  0  0  0  0
  -32.7789  -19.8605   24.2155 C   0  0  1  0  0  0  0  0  0  0  0  0
  -41.3863  -24.6012   20.9200 C   0  0  1  0  0  0  0  0  0  0  0  0
  -38.6326  -22.6770   19.1458 C   0  0  1  0  0  0  0  0  0  0  0  0
  -27.6861  -13.0016   19.8285 C   0  0  2  0  0  0  0  0  0  0  0  0
  -34.2790  -19.9022   24.4089 C   0  0  1  0  0  0  0  0  0  1  0  0
  -30.6492  -18.4918   25.6818 C   0  0  0  0  0  0  0  0  0  0  0  0
  -31.9670  -22.1907   15.0557 C   0  0  0  0  0  0  0  0  0  0  0  0
  -36.4295  -26.5857   18.0373 C   0  0  0  0  0  0  0  0  0  0  0  0
  -34.2883  -26.2956   16.7727 C   0  0  0  0  0  0  0  0  0  0  0  0
  -36.4723  -25.9248   15.6257 C   0  0  0  0  0  0  0  0  0  0  0  0
  -34.9243  -19.9431   15.8794 C   0  0  0  0  0  0  0  0  0  0  0  0
  -34.6431  -18.8301   19.5438 C   0  0  0  0  0  0  0  0  0  0  0  0
  -33.6377  -18.7526   21.6665 C   0  0  0  0  0  0  0  0  0  0  0  0
  -35.6563  -24.2305   17.3155 C   0  0  1  0  0  0  0  0  0  0  0  0
  -33.4210  -21.8704   15.3653 C   0  0  2  0  0  0  0  0  0  0  0  0
  -35.7173  -25.7430   16.9605 C   0  0  0  0  0  0  0  0  0  0  0  0
  -25.8207  -11.4910   20.3941 N   0  0  0  0  0  0  0  0  0  0  0  0
  -32.0240  -16.9810   21.9111 N   0  0  0  0  0  0  0  0  0  0  0  0
  -26.2463  -12.7563   20.2392 N   0  0  0  0  0  0  0  0  0  0  0  0
  -37.2687  -23.0853   18.8030 N   0  0  0  0  0  0  0  0  0  0  0  0
  -29.9883  -13.4307   20.5944 N   0  0  0  0  0  0  0  0  0  0  0  0
  -25.5448  -15.0148   20.3730 N   0  0  0  0  0  0  0  0  0  0  0  0
  -21.8272  -12.7017   21.4800 N   0  0  0  0  0  0  0  0  0  0  0  0
  -30.4545  -15.2009   22.0814 N   0  0  0  0  0  0  0  0  0  0  0  0
  -40.5878  -23.6218   20.2145 N   0  0  0  0  0  0  0  0  0  0  0  0
  -35.0113  -23.4041   16.3009 N   0  0  0  0  0  0  0  0  0  0  0  0
  -33.5417  -20.4018   15.5876 N   0  3  0  0  0  0  0  0  0  0  0  0
  -22.6867  -14.8039   21.1628 O   0  0  0  0  0  0  0  0  0  0  0  0
  -38.5992  -24.8293   20.1161 O   0  0  0  0  0  0  0  0  0  0  0  0
  -37.8481  -23.6520   16.6168 O   0  0  0  0  0  0  0  0  0  0  0  0
  -33.3573  -22.5492   17.6832 O   0  0  0  0  0  0  0  0  0  0  0  0
  -31.6381  -14.9724   20.0993 O   0  0  0  0  0  0  0  0  0  0  0  0
  -21.3617   -7.1577   21.7684 O   0  0  0  0  0  0  0  0  0  0  0  0
  -34.9050  -21.1614   24.1662 O   0  0  0  0  0  0  0  0  0  1  0  0
  -33.6281  -18.2366   20.3420 O   0  0  0  0  0  0  0  0  0  0  0  0
  -23.5185   -3.1406   24.8692 F   0  0  0  0  0  0  0  0  0  0  0  0
  -23.6585   -5.8360   20.9807 F   0  0  0  0  0  0  0  0  0  0  0  0
  1  2  1  0  0  0  0
  1  5  2  0  0  0  0
  2  6  2  0  0  0  0
  3  8  2  0  0  0  0
  3 16  1  0  0  0  0
  4  9  1  0  0  0  0
  4 16  2  0  0  0  0
  5 18  1  0  0  0  0
  6 20  1  0  0  0  0
  7 10  2  0  0  0  0
  7 19  1  0  0  0  0
  8 24  1  0  0  0  0
  9 24  2  0  0  0  0
 10 25  1  0  0  0  0
 11 12  2  0  0  0  0
 11 26  1  0  0  0  0
 12 27  1  0  0  0  0
 13 21  1  0  0  0  0
 13 25  2  0  0  0  0
 14 23  2  0  0  0  0
 14 31  1  0  0  0  0
 15 27  2  0  0  0  0
 15 28  1  0  0  0  0
 16 29  1  0  0  0  0
 17 29  1  0  0  0  0
 17 32  2  0  0  0  0
 17 33  1  0  0  0  0
 18 20  2  0  0  0  0
 18 38  1  0  0  0  0
 19 21  2  0  0  0  0
 19 39  1  0  0  0  0
 20 49  1  0  0  0  0
 21 40  1  0  0  0  0
 22 23  1  0  0  0  0
 22 30  2  0  0  0  0
 22 48  1  0  0  0  0
 23 53  1  0  0  0  0
 24 80  1  0  0  0  0
 25 81  1  0  0  0  0
 26 28  2  0  0  0  0
 26 80  1  0  0  0  0
 27 83  1  0  0  0  0
 28 84  1  0  0  0  0
 29 64  2  0  0  0  0
 30 60  1  0  0  0  0
 30 65  1  0  0  0  0
 31 65  2  0  0  0  0
 31 71  1  0  0  0  0
 32 66  1  0  0  0  0
 32 69  1  0  0  0  0
 33 70  1  0  0  0  0
 33 75  2  0  0  0  0
 34 50  1  0  0  0  0
 34 72  1  0  0  0  0
 34 76  2  0  0  0  0
 35 61  1  0  0  0  0
 35 67  1  0  0  0  0
 35 77  2  0  0  0  0
 36 62  1  0  0  0  0
 36 73  1  0  0  0  0
 36 78  2  0  0  0  0
 37 68  1  0  0  0  0
 37 71  1  0  0  0  0
 37 79  2  0  0  0  0
 38 41  1  0  0  0  0
 39 50  1  0  0  0  0
 40 67  1  0  0  0  0
 41 43  1  0  0  0  0
 42 44  1  0  0  0  0
 42 46  1  0  0  0  0
 43 49  1  0  0  0  0
 44 51  1  0  0  0  0
 45 48  1  0  0  0  0
 45 52  1  0  0  0  0
 46 68  1  0  0  0  0
 47 51  1  0  0  0  0
 47 68  1  0  0  0  0
 48 52  1  0  0  0  0
 49 72  1  0  0  0  0
 50 67  1  0  0  0  0
 51 66  1  0  0  0  0
 52 81  1  0  0  0  0
 54 62  1  0  0  0  0
 55 63  1  0  0  0  0
 56 63  1  0  0  0  0
 57 63  1  0  0  0  0
 58 74  1  0  0  0  0
 59 82  1  0  0  0  0
 60 82  1  0  0  0  0
 61 63  1  0  0  0  0
 61 73  1  0  0  0  0
 62 74  1  0  0  0  0
 64 66  1  0  0  0  0
M  CHG  1  74   1
M  ISO  4  37 100  52 101  71 100  81 101
M  END
> <Batch ID>
0142

> <Smiles>
CNC(C)C(=O)NC(C(=O)N1Cc2cc([101O:1][101CH:1]3CC3c3c(C)cc([100NH:0][100C:0](=O)N4CCCC(n5nc(-c6ccc(Oc7ccc(F)cc7F)cc6)c(C(N)=O)c5N)C4)nc3COC)ccc2CC1C(=O)NC1CCCc2ccccc21)C(C)(C)C

> <Shape>
0.168

> <Color>
0.196

> <Negative vol penalty>
0.000

$$$$

  -OEChem-04052321183D

 93103  0     1  0  0  0  0  0999 V2000
  -28.0637  -33.5568   26.8247 C   0  0  0  0  0  0  0  0  0  0  0  0
  -28.3013  -32.6145   25.8291 C   0  0  0  0  0  0  0  0  0  0  0  0
  -24.8524   -8.4281   20.8154 C   0  0  0  0  0  0  0  0  0  0  0  0
  -22.9085   -9.5651   19.9405 C   0  0  0  0  0  0  0  0  0  0  0  0
  -26.7915  -33.6737   27.3830 C   0  0  0  0  0  0  0  0  0  0  0  0
  -27.2669  -31.7878   25.3921 C   0  0  0  0  0  0  0  0  0  0  0  0
  -27.0964  -31.3921   20.3463 C   0  0  0  0  0  0  0  0  0  0  0  0
  -28.2750  -22.7097   21.3674 C   0  0  0  0  0  0  0  0  0  0  0  0
  -24.0247   -7.5096   21.4609 C   0  0  0  0  0  0  0  0  0  0  0  0
  -22.0807   -8.6465   20.5860 C   0  0  0  0  0  0  0  0  0  0  0  0
  -28.0215  -30.5415   19.7427 C   0  0  0  0  0  0  0  0  0  0  0  0
  -28.9844  -23.8771   21.0856 C   0  0  0  0  0  0  0  0  0  0  0  0
  -22.2324   -4.7633   20.6372 C   0  0  0  0  0  0  0  0  0  0  0  0
  -22.5673   -3.4124   20.5451 C   0  0  0  0  0  0  0  0  0  0  0  0
  -26.3265  -28.8344   19.5641 C   0  0  0  0  0  0  0  0  0  0  0  0
  -30.3802  -22.6553   19.5376 C   0  0  0  0  0  0  0  0  0  0  0  0
  -22.7657   -3.2975   22.9502 C   0  0  0  0  0  0  0  0  0  0  0  0
  -24.2943   -9.4559   20.0552 C   0  0  0  0  0  0  0  0  0  0  0  0
  -25.6766  -10.3069   18.0872 C   0  0  0  0  0  0  0  0  0  0  0  0
  -25.7386  -32.8546   26.9457 C   0  0  0  0  0  0  0  0  0  0  0  0
  -25.7800  -30.9656   20.5736 C   0  0  0  0  0  0  0  0  0  0  0  0
  -25.9797  -31.8929   25.9459 C   0  0  0  0  0  0  0  0  0  0  0  0
  -25.3859  -29.6824   20.1684 C   0  0  0  0  0  0  0  0  0  0  0  0
  -29.6707  -21.4878   19.8195 C   0  0  0  0  0  0  0  0  0  0  0  0
  -28.6182  -21.5150   20.7344 C   0  0  0  0  0  0  0  0  0  0  0  0
  -22.6388   -7.6187   21.3462 C   0  0  0  0  0  0  0  0  0  0  0  0
  -27.6375  -29.2614   19.3541 C   0  0  0  0  0  0  0  0  0  0  0  0
  -30.0370  -23.8499   20.1707 C   0  0  0  0  0  0  0  0  0  0  0  0
  -22.1642   -5.3814   21.8858 C   0  0  0  0  0  0  0  0  0  0  0  0
  -22.8339   -2.6795   21.7015 C   0  0  0  0  0  0  0  0  0  0  0  0
  -22.4309   -4.6485   23.0423 C   0  0  0  0  0  0  0  0  0  0  0  0
  -25.1488  -10.4054   19.3886 C   0  0  0  0  0  0  0  0  0  0  0  0
  -26.4170  -11.4529   17.9293 C   0  0  0  0  0  0  0  0  0  0  0  0
  -25.5123   -9.2719   17.1087 C   0  0  0  0  0  0  0  0  0  0  0  0
  -23.9766  -30.5323   23.1551 C   0  0  0  0  0  0  0  0  0  0  0  0
  -21.6551  -29.9690   20.9606 C   0  0  0  0  0  0  0  0  0  0  0  0
  -20.8380  -29.0195   17.7861 C   0  0  0  0  0  0  0  0  0  0  0  0
  -25.8240  -16.6830   20.9967 C   0  0  0  0  0  0  0  0  0  0  0  0
  -24.3921  -32.9854   27.6123 C   0  0  0  0  0  0  0  0  0  0  0  0
  -24.7869  -31.9047   21.2016 C   0  0  0  0  0  0  0  0  0  0  0  0
  -23.9793  -29.1837   20.3716 C   0  0  0  0  0  0  0  0  0  0  0  0
  -23.2585  -32.3273   26.8298 C   0  0  0  0  0  0  0  0  0  0  0  0
  -28.9292  -14.6721   20.4032 C   0  0  0  0  0  0  0  0  0  0  0  0
  -23.6680  -30.9322   26.3686 C   0  0  0  0  0  0  0  0  0  0  0  0
  -33.5119  -17.7218   20.9200 C   0  0  0  0  0  0  0  0  0  0  0  0
  -33.4796  -16.5929   19.9279 C   0  0  0  0  0  0  0  0  0  0  0  0
  -28.3286  -13.3153   20.0386 C   0  0  0  0  0  0  0  0  0  0  0  0
  -27.9962  -15.4623   21.3126 C   0  0  0  0  0  0  0  0  0  0  0  0
  -26.4526  -20.3301   20.7641 C   0  0  0  0  0  0  0  0  0  0  0  0
  -28.4814  -19.2830   21.8362 C   0  0  0  0  0  0  0  0  0  0  0  0
  -25.7678  -19.1753   21.4852 C   0  0  0  0  0  0  0  0  0  0  0  0
  -27.8932  -17.9151   21.4860 C   0  0  0  0  0  0  0  0  0  0  0  0
  -26.0192  -14.3026   20.3866 C   0  0  0  0  0  0  0  0  0  0  0  0
  -24.8773  -30.9949   25.4278 C   0  0  1  0  0  0  0  0  0  0  0  0
  -23.6102  -31.1830   21.8512 C   0  0  1  0  0  0  0  0  0  0  0  0
  -33.1261  -17.9876   19.4912 C   0  0  0  0  0  0  0  0  0  0  0  0
  -26.9174  -13.4795   19.4490 C   0  0  2  0  0  0  0  0  0  0  0  0
  -29.9747  -20.3186   17.5984 C   0  0  0  0  0  0  0  0  0  0  0  0
  -18.8575  -28.6179   16.2982 C   0  0  0  0  0  0  0  0  0  0  0  0
  -21.1237  -27.3240   22.3860 C   0  0  0  0  0  0  0  0  0  0  0  0
  -19.8559  -26.5688   20.3635 C   0  0  0  0  0  0  0  0  0  0  0  0
  -19.0679  -28.5491   21.6598 C   0  0  0  0  0  0  0  0  0  0  0  0
  -21.6955  -31.1179   15.8832 C   0  0  0  0  0  0  0  0  0  0  0  0
  -31.6964  -18.3361   19.1396 C   0  0  0  0  0  0  0  0  0  0  0  0
  -30.6268  -27.2489   19.0576 C   0  0  0  0  0  0  0  0  0  0  0  0
  -29.9071  -28.5863   19.1331 C   0  0  0  0  0  0  0  0  0  1  0  0
  -30.0192  -26.2219   20.0001 C   0  0  0  0  0  0  0  0  0  0  0  0
  -30.0592  -20.2225   19.1263 C   0  0  1  0  0  0  0  0  0  0  0  0
  -21.1454  -28.7485   20.2328 C   0  0  1  0  0  0  0  0  0  0  0  0
  -19.8947  -29.6279   16.7640 C   0  0  2  0  0  0  0  0  0  0  0  0
  -20.3253  -27.8060   21.1583 C   0  0  0  0  0  0  0  0  0  0  0  0
  -25.5223  -11.5256   20.0130 N   0  0  0  0  0  0  0  0  0  0  0  0
  -26.2927  -12.1413   19.1001 N   0  0  0  0  0  0  0  0  0  0  0  0
  -27.8962  -20.3551   21.0288 N   0  0  0  0  0  0  0  0  0  0  0  0
  -23.0466  -30.1369   20.9955 N   0  0  0  0  0  0  0  0  0  0  0  0
  -26.6480  -15.5759   20.7427 N   0  0  0  0  0  0  0  0  0  0  0  0
  -26.4592  -17.9157   21.2181 N   0  0  0  0  0  0  0  0  0  0  0  0
  -27.1557  -11.9289   16.9045 N   0  0  0  0  0  0  0  0  0  0  0  0
  -24.7184   -8.1640   17.4349 N   0  0  0  0  0  0  0  0  0  0  0  0
  -24.4665  -31.4097   24.1036 N   0  0  0  0  0  0  0  0  0  0  0  0
  -20.4057  -29.2422   19.0763 N   0  0  0  0  0  0  0  0  0  0  0  0
  -20.6563  -30.1023   15.5741 N   0  3  0  0  0  0  0  0  0  0  0  0
  -31.4452  -19.7573   19.4713 N   0  3  0  0  0  0  0  0  0  0  0  0
  -26.0668   -9.3202   15.9845 O   0  0  0  0  0  0  0  0  0  0  0  0
  -23.8246  -29.3240   23.2910 O   0  0  0  0  0  0  0  0  0  0  0  0
  -20.8480  -30.7485   21.4730 O   0  0  0  0  0  0  0  0  0  0  0  0
  -21.8547  -28.4048   17.4712 O   0  0  0  0  0  0  0  0  0  0  0  0
  -24.5909  -16.5774   21.0138 O   0  0  0  0  0  0  0  0  0  0  0  0
  -21.8308   -6.7224   21.9757 O   0  0  0  0  0  0  0  0  0  0  0  0
  -28.5452  -28.4229   18.7611 O   0  0  0  0  0  0  0  0  0  1  0  0
  -30.7298  -24.9892   19.8962 O   0  0  0  0  0  0  0  0  0  0  0  0
  -23.1540   -1.3819   21.6130 F   0  0  0  0  0  0  0  0  0  0  0  0
  -22.3658   -5.2365   24.2447 F   0  0  0  0  0  0  0  0  0  0  0  0
  1  2  1  0  0  0  0
  1  5  2  0  0  0  0
  2  6  2  0  0  0  0
  3  9  2  0  0  0  0
  3 18  1  0  0  0  0
  4 10  1  0  0  0  0
  4 18  2  0  0  0  0
  5 20  1  0  0  0  0
  6 22  1  0  0  0  0
  7 11  2  0  0  0  0
  7 21  1  0  0  0  0
  8 12  2  0  0  0  0
  8 25  1  0  0  0  0
  9 26  1  0  0  0  0
 10 26  2  0  0  0  0
 11 27  1  0  0  0  0
 12 28  1  0  0  0  0
 13 14  2  0  0  0  0
 13 29  1  0  0  0  0
 14 30  1  0  0  0  0
 15 23  1  0  0  0  0
 15 27  2  0  0  0  0
 16 24  1  0  0  0  0
 16 28  2  0  0  0  0
 17 30  2  0  0  0  0
 17 31  1  0  0  0  0
 18 32  1  0  0  0  0
 19 32  1  0  0  0  0
 19 33  2  0  0  0  0
 19 34  1  0  0  0  0
 20 22  2  0  0  0  0
 20 39  1  0  0  0  0
 21 23  2  0  0  0  0
 21 40  1  0  0  0  0
 22 54  1  0  0  0  0
 23 41  1  0  0  0  0
 24 25  2  0  0  0  0
 24 68  1  0  0  0  0
 25 74  1  0  0  0  0
 26 89  1  0  0  0  0
 27 90  1  0  0  0  0
 28 91  1  0  0  0  0
 29 31  2  0  0  0  0
 29 89  1  0  0  0  0
 30 92  1  0  0  0  0
 31 93  1  0  0  0  0
 32 72  2  0  0  0  0
 33 73  1  0  0  0  0
 33 78  1  0  0  0  0
 34 79  1  0  0  0  0
 34 84  2  0  0  0  0
 35 55  1  0  0  0  0
 35 80  1  0  0  0  0
 35 85  2  0  0  0  0
 36 69  1  0  0  0  0
 36 75  1  0  0  0  0
 36 86  2  0  0  0  0
 37 70  1  0  0  0  0
 37 81  1  0  0  0  0
 37 87  2  0  0  0  0
 38 76  1  0  0  0  0
 38 77  1  0  0  0  0
 38 88  2  0  0  0  0
 39 42  1  0  0  0  0
 40 55  1  0  0  0  0
 41 75  1  0  0  0  0
 42 44  1  0  0  0  0
 43 47  1  0  0  0  0
 43 48  1  0  0  0  0
 44 54  1  0  0  0  0
 45 46  1  0  0  0  0
 45 56  1  0  0  0  0
 46 56  1  0  0  0  0
 47 57  1  0  0  0  0
 48 76  1  0  0  0  0
 49 51  1  0  0  0  0
 49 74  1  0  0  0  0
 50 52  1  0  0  0  0
 50 74  1  0  0  0  0
 51 77  1  0  0  0  0
 52 77  1  0  0  0  0
 53 57  1  0  0  0  0
 53 76  1  0  0  0  0
 54 80  1  0  0  0  0
 55 75  1  0  0  0  0
 56 64  1  0  0  0  0
 57 73  1  0  0  0  0
 58 68  1  0  0  0  0
 59 70  1  0  0  0  0
 60 71  1  0  0  0  0
 61 71  1  0  0  0  0
 62 71  1  0  0  0  0
 63 82  1  0  0  0  0
 64 83  1  0  0  0  0
 65 66  1  0  0  0  0
 65 67  1  0  0  0  0
 66 90  1  0  0  0  0
 67 91  1  0  0  0  0
 68 83  1  0  0  0  0
 69 71  1  0  0  0  0
 69 81  1  0  0  0  0
 70 82  1  0  0  0  0
 72 73  1  0  0  0  0
M  CHG  2  82   1  83   1
M  ISO  4  38 100  66 101  77 100  90 101
M  END
> <Batch ID>
0142

> <Smiles>
CNC(C)C(=O)NC(C(=O)N1Cc2cc([101O:1][101CH2:1]CCOc3ccc(N4CC[100N:0]([100C:0](=O)N5CCCC(n6nc(-c7ccc(Oc8ccc(F)cc8F)cc7)c(C(N)=O)c6N)C5)CC4)c(C(C)NCC4CC4)c3)ccc2CC1C(=O)NC1CCCc2ccccc21)C(C)(C)C

> <Shape>
0.306

> <Color>
0.076

> <Negative vol penalty>
0.000

$$$$

  -OEChem-04052321183D

 88 97  0     1  0  0  0  0  0999 V2000
  -17.2151  -27.3063   24.8887 C   0  0  0  0  0  0  0  0  0  0  0  0
  -18.0456  -26.4546   24.1673 C   0  0  0  0  0  0  0  0  0  0  0  0
  -23.4691  -10.3022   22.9667 C   0  0  0  0  0  0  0  0  0  0  0  0
  -23.5073  -11.9382   24.7441 C   0  0  0  0  0  0  0  0  0  0  0  0
  -17.2589  -28.6807   24.6586 C   0  0  0  0  0  0  0  0  0  0  0  0
  -18.9196  -26.9769   23.2145 C   0  0  0  0  0  0  0  0  0  0  0  0
  -23.5525  -24.9538   23.5122 C   0  0  0  0  0  0  0  0  0  0  0  0
  -22.7230   -9.4431   23.7734 C   0  0  0  0  0  0  0  0  0  0  0  0
  -22.7611  -11.0791   25.5508 C   0  0  0  0  0  0  0  0  0  0  0  0
  -23.7286  -23.6830   22.9666 C   0  0  0  0  0  0  0  0  0  0  0  0
  -19.5035   -9.1153   24.7533 C   0  0  0  0  0  0  0  0  0  0  0  0
  -18.4040   -8.4780   24.1785 C   0  0  0  0  0  0  0  0  0  0  0  0
  -24.6905  -24.6724   20.9879 C   0  0  0  0  0  0  0  0  0  0  0  0
  -25.6854  -21.3785   19.3331 C   0  0  0  0  0  0  0  0  0  0  0  0
  -19.3974   -6.3291   24.6606 C   0  0  0  0  0  0  0  0  0  0  0  0
  -23.8614  -11.5498   23.4520 C   0  0  0  0  0  0  0  0  0  0  0  0
  -24.1400  -13.4131   21.7322 C   0  0  0  0  0  0  0  0  0  0  0  0
  -18.1408  -29.2210   23.7094 C   0  0  0  0  0  0  0  0  0  0  0  0
  -23.9347  -26.0960   22.7939 C   0  0  0  0  0  0  0  0  0  0  0  0
  -18.9742  -28.3597   22.9705 C   0  0  0  0  0  0  0  0  0  0  0  0
  -24.5205  -25.9564   21.5277 C   0  0  0  0  0  0  0  0  0  0  0  0
  -26.9188  -21.1221   18.7445 C   0  0  0  0  0  0  0  0  0  0  0  0
  -28.0863  -21.5092   19.3931 C   0  0  0  0  0  0  0  0  0  0  0  0
  -22.3690   -9.8316   25.0654 C   0  0  0  0  0  0  0  0  0  0  0  0
  -24.2950  -23.5422   21.7030 C   0  0  0  0  0  0  0  0  0  0  0  0
  -20.5501   -8.3595   25.2818 C   0  0  0  0  0  0  0  0  0  0  0  0
  -18.3509   -7.0849   24.1322 C   0  0  0  0  0  0  0  0  0  0  0  0
  -20.4970   -6.9664   25.2354 C   0  0  0  0  0  0  0  0  0  0  0  0
  -24.6327  -12.4374   22.6194 C   0  0  0  0  0  0  0  0  0  0  0  0
  -27.9672  -22.1445   20.6187 C   0  0  0  0  0  0  0  0  0  0  0  0
  -25.6737  -22.0196   20.5614 C   0  0  0  0  0  0  0  0  0  1  0  0
  -25.2655  -13.9807   21.1867 C   0  0  0  0  0  0  0  0  0  0  0  0
  -22.7861  -13.7741   21.4284 C   0  0  0  0  0  0  0  0  0  0  0  0
  -22.4083  -28.6314   21.6340 C   0  0  0  0  0  0  0  0  0  0  0  0
  -25.4119  -29.6256   20.9184 C   0  0  0  0  0  0  0  0  0  0  0  0
  -28.6616  -28.8013   20.2804 C   0  0  0  0  0  0  0  0  0  0  0  0
  -30.3859  -16.1700   22.1241 C   0  0  0  0  0  0  0  0  0  0  0  0
  -18.1186  -30.7086   23.4620 C   0  0  0  0  0  0  0  0  0  0  0  0
  -23.7626  -27.4584   23.4077 C   0  0  0  0  0  0  0  0  0  0  0  0
  -24.9664  -27.1498   20.7243 C   0  0  0  0  0  0  0  0  0  0  0  0
  -19.3400  -31.2177   22.7008 C   0  0  0  0  0  0  0  0  0  0  0  0
  -30.1177  -12.5778   21.4044 C   0  0  0  0  0  0  0  0  0  0  0  0
  -19.6326  -30.3225   21.5009 C   0  0  0  0  0  0  0  0  0  0  0  0
  -28.6325  -12.2961   21.6350 C   0  0  0  0  0  0  0  0  0  0  0  0
  -29.2860  -18.0670   19.2291 C   0  0  0  0  0  0  0  0  0  0  0  0
  -30.6263  -13.7163   22.2856 C   0  0  0  0  0  0  0  0  0  0  0  0
  -28.9421  -16.9157   20.1666 C   0  0  0  0  0  0  0  0  0  0  0  0
  -28.3588  -14.6793   22.4150 C   0  0  0  0  0  0  0  0  0  0  0  0
  -19.9535  -28.8906   21.9461 C   0  0  1  0  0  0  0  0  0  0  0  0
  -23.7156  -28.5783   22.3728 C   0  0  1  0  0  0  0  0  0  0  0  0
  -27.7970  -13.5825   21.4997 C   0  0  2  0  0  0  0  0  0  0  0  0
  -29.4927  -19.2081   20.2123 C   0  0  1  0  0  0  0  0  0  0  0  0
  -30.2407  -18.5517   21.3745 C   0  0  1  0  0  0  0  0  0  0  0  0
  -26.9627  -20.4332   17.4205 C   0  0  0  0  0  0  0  0  0  0  0  0
  -29.1861  -22.5837   21.3624 C   0  0  0  0  0  0  0  0  0  0  0  0
  -29.9698  -19.2527   22.7004 C   0  0  0  0  0  0  0  0  0  0  0  0
  -30.2467  -22.5202   18.5546 C   0  0  0  0  0  0  0  0  0  0  0  0
  -30.8750  -29.8270   19.6919 C   0  0  0  0  0  0  0  0  0  0  0  0
  -24.4622  -30.0208   18.0458 C   0  0  0  0  0  0  0  0  0  0  0  0
  -26.8621  -30.1138   17.3389 C   0  0  0  0  0  0  0  0  0  0  0  0
  -25.9585  -31.8296   18.9080 C   0  0  0  0  0  0  0  0  0  0  0  0
  -29.9214  -27.7881   22.7594 C   0  0  0  0  0  0  0  0  0  0  0  0
  -31.4642  -19.7919   18.8082 C   0  0  0  0  0  0  0  0  0  0  0  0
  -29.4408  -21.2430   18.7781 C   0  0  1  0  0  0  0  0  0  0  0  0
  -26.3359  -29.4703   19.7347 C   0  0  1  0  0  0  0  0  0  0  0  0
  -29.9667  -29.3596   20.8185 C   0  0  2  0  0  0  0  0  0  0  0  0
  -25.8946  -30.3360   18.5209 C   0  0  0  0  0  0  0  0  0  0  0  0
  -25.9672  -12.3853   22.6393 N   0  0  0  0  0  0  0  0  0  0  0  0
  -26.7868  -22.4107   21.2216 N   0  0  0  0  0  0  0  0  0  0  0  0
  -26.3227  -13.3354   21.7578 N   0  0  0  0  0  0  0  0  0  0  0  0
  -24.7712  -28.4611   21.3647 N   0  0  0  0  0  0  0  0  0  0  0  0
  -29.7843  -14.9048   22.1477 N   0  0  0  0  0  0  0  0  0  0  0  0
  -29.7627  -17.1600   21.3584 N   0  0  0  0  0  0  0  0  0  0  0  0
  -25.4441  -14.9638   20.2789 N   0  0  0  0  0  0  0  0  0  0  0  0
  -21.7502  -13.0902   22.0791 N   0  0  0  0  0  0  0  0  0  0  0  0
  -21.3076  -28.8096   22.4502 N   0  0  0  0  0  0  0  0  0  0  0  0
  -27.6784  -29.7663   20.2231 N   0  0  0  0  0  0  0  0  0  0  0  0
  -30.6897  -28.3203   21.6046 N   0  3  0  0  0  0  0  0  0  0  0  0
  -30.2814  -20.2957   19.6051 N   0  3  1  0  0  0  0  0  0  0  0  0
  -22.5031  -14.6652   20.5921 O   0  0  0  0  0  0  0  0  0  0  0  0
  -22.3990  -28.5205   20.4136 O   0  0  0  0  0  0  0  0  0  0  0  0
  -25.2696  -30.7377   21.4327 O   0  0  0  0  0  0  0  0  0  0  0  0
  -28.5288  -27.6275   19.9411 O   0  0  0  0  0  0  0  0  0  0  0  0
  -31.4422  -16.3940   22.7286 O   0  0  0  0  0  0  0  0  0  0  0  0
  -21.6407   -8.9936   25.8528 O   0  0  0  0  0  0  0  0  0  0  0  0
  -24.4699  -22.2851   21.1602 O   0  0  0  0  0  0  0  0  0  1  0  0
  -17.2942   -6.4730   23.5815 F   0  0  0  0  0  0  0  0  0  0  0  0
  -21.4988   -6.2349   25.7425 F   0  0  0  0  0  0  0  0  0  0  0  0
  1  2  1  0  0  0  0
  1  5  2  0  0  0  0
  2  6  2  0  0  0  0
  3  8  2  0  0  0  0
  3 16  1  0  0  0  0
  4  9  1  0  0  0  0
  4 16  2  0  0  0  0
  5 18  1  0  0  0  0
  6 20  1  0  0  0  0
  7 10  2  0  0  0  0
  7 19  1  0  0  0  0
  8 24  1  0  0  0  0
  9 24  2  0  0  0  0
 10 25  1  0  0  0  0
 11 12  2  0  0  0  0
 11 26  1  0  0  0  0
 12 27  1  0  0  0  0
 13 21  1  0  0  0  0
 13 25  2  0  0  0  0
 14 22  2  0  0  0  0
 14 31  1  0  0  0  0
 15 27  2  0  0  0  0
 15 28  1  0  0  0  0
 16 29  1  0  0  0  0
 17 29  1  0  0  0  0
 17 32  2  0  0  0  0
 17 33  1  0  0  0  0
 18 20  2  0  0  0  0
 18 38  1  0  0  0  0
 19 21  2  0  0  0  0
 19 39  1  0  0  0  0
 20 49  1  0  0  0  0
 21 40  1  0  0  0  0
 22 23  1  0  0  0  0
 22 54  1  0  0  0  0
 23 30  2  0  0  0  0
 23 64  1  0  0  0  0
 24 85  1  0  0  0  0
 25 86  1  0  0  0  0
 26 28  2  0  0  0  0
 26 85  1  0  0  0  0
 27 87  1  0  0  0  0
 28 88  1  0  0  0  0
 29 68  2  0  0  0  0
 30 55  1  0  0  0  0
 30 69  1  0  0  0  0
 31 69  2  0  0  0  0
 31 86  1  0  0  0  0
 32 70  1  0  0  0  0
 32 74  1  0  0  0  0
 33 75  1  0  0  0  0
 33 80  2  0  0  0  0
 34 50  1  0  0  0  0
 34 76  1  0  0  0  0
 34 81  2  0  0  0  0
 35 65  1  0  0  0  0
 35 71  1  0  0  0  0
 35 82  2  0  0  0  0
 36 66  1  0  0  0  0
 36 77  1  0  0  0  0
 36 83  2  0  0  0  0
 37 72  1  0  0  0  0
 37 73  1  0  0  0  0
 37 84  2  0  0  0  0
 38 41  1  0  0  0  0
 39 50  1  0  0  0  0
 40 71  1  0  0  0  0
 41 43  1  0  0  0  0
 42 44  1  0  0  0  0
 42 46  1  0  0  0  0
 43 49  1  0  0  0  0
 44 51  1  0  0  0  0
 45 47  1  0  0  0  0
 45 52  1  0  0  0  0
 46 72  1  0  0  0  0
 47 73  1  0  0  0  0
 48 51  1  0  0  0  0
 48 72  1  0  0  0  0
 49 76  1  0  0  0  0
 50 71  1  0  0  0  0
 51 70  1  0  0  0  0
 52 53  1  0  0  0  0
 52 79  1  0  0  0  0
 53 56  1  0  0  0  0
 53 73  1  0  0  0  0
 57 64  1  0  0  0  0
 58 66  1  0  0  0  0
 59 67  1  0  0  0  0
 60 67  1  0  0  0  0
 61 67  1  0  0  0  0
 62 78  1  0  0  0  0
 63 79  1  0  0  0  0
 64 79  1  0  0  0  0
 65 67  1  0  0  0  0
 65 77  1  0  0  0  0
 66 78  1  0  0  0  0
 68 70  1  0  0  0  0
M  CHG  2  78   1  79   1
M  ISO  4  31 101  37 100  73 100  86 101
M  END
> <Batch ID>
0142

> <Smiles>
CNC(C)C(=O)NC(C(=O)N1Cc2cc([101O:1][101c:1]3cc(C)c(C(C)N(C)C4CC[100N:0]([100C:0](=O)N5CCCC(n6nc(-c7ccc(Oc8ccc(F)cc8F)cc7)c(C(N)=O)c6N)C5)C4C)c(C)n3)ccc2CC1C(=O)NC1CCCc2ccccc21)C(C)(C)C

> <Shape>
0.247

> <Color>
0.101

> <Negative vol penalty>
0.000

$$$$

  -OEChem-04052321183D

 83 92  0     1  0  0  0  0  0999 V2000
  -28.9383  -32.9365   25.9742 C   0  0  0  0  0  0  0  0  0  0  0  0
  -28.8911  -31.8033   25.1686 C   0  0  0  0  0  0  0  0  0  0  0  0
  -25.1158   -9.7114   22.7579 C   0  0  0  0  0  0  0  0  0  0  0  0
  -26.9075   -9.4247   21.1627 C   0  0  0  0  0  0  0  0  0  0  0  0
  -27.7726  -33.4153   26.5708 C   0  0  0  0  0  0  0  0  0  0  0  0
  -27.6783  -31.1476   24.9599 C   0  0  0  0  0  0  0  0  0  0  0  0
  -26.9528  -29.9034   20.1049 C   0  0  0  0  0  0  0  0  0  0  0  0
  -25.5082   -8.5419   23.4089 C   0  0  0  0  0  0  0  0  0  0  0  0
  -27.3000   -8.2552   21.8138 C   0  0  0  0  0  0  0  0  0  0  0  0
  -27.6321  -28.7840   19.6261 C   0  0  0  0  0  0  0  0  0  0  0  0
  -29.0351   -7.4137   24.5890 C   0  0  0  0  0  0  0  0  0  0  0  0
  -30.3973   -7.2332   24.8288 C   0  0  0  0  0  0  0  0  0  0  0  0
  -25.6272  -27.4666   19.8790 C   0  0  0  0  0  0  0  0  0  0  0  0
  -30.3612   -5.2089   23.5104 C   0  0  0  0  0  0  0  0  0  0  0  0
  -25.8154  -10.1527   21.6347 C   0  0  0  0  0  0  0  0  0  0  0  0
  -24.1632  -11.6224   20.3627 C   0  0  0  0  0  0  0  0  0  0  0  0
  -26.5432  -32.7708   26.3615 C   0  0  0  0  0  0  0  0  0  0  0  0
  -25.6063  -29.8101   20.4853 C   0  0  0  0  0  0  0  0  0  0  0  0
  -26.4953  -31.6175   25.5552 C   0  0  0  0  0  0  0  0  0  0  0  0
  -24.9324  -28.5869   20.3599 C   0  0  0  0  0  0  0  0  0  0  0  0
  -26.6004   -7.8138   22.9369 C   0  0  0  0  0  0  0  0  0  0  0  0
  -26.9702  -27.5647   19.5158 C   0  0  0  0  0  0  0  0  0  0  0  0
  -28.3359   -6.4917   23.8099 C   0  0  0  0  0  0  0  0  0  0  0  0
  -31.0603   -6.1309   24.2895 C   0  0  0  0  0  0  0  0  0  0  0  0
  -28.9990   -5.3894   23.2706 C   0  0  0  0  0  0  0  0  0  0  0  0
  -25.4101  -11.3604   20.9614 C   0  0  0  0  0  0  0  0  0  0  0  0
  -24.2821  -12.8973   19.8656 C   0  0  0  0  0  0  0  0  0  0  0  0
  -23.0014  -10.7880   20.2647 C   0  0  0  0  0  0  0  0  0  0  0  0
  -24.0079  -30.2320   23.2002 C   0  0  0  0  0  0  0  0  0  0  0  0
  -21.4224  -29.7862   21.2927 C   0  0  0  0  0  0  0  0  0  0  0  0
  -20.1364  -28.4789   18.4145 C   0  0  0  0  0  0  0  0  0  0  0  0
  -27.9886  -17.3416   21.5279 C   0  0  0  0  0  0  0  0  0  0  0  0
  -25.3181  -33.2979   27.0656 C   0  0  0  0  0  0  0  0  0  0  0  0
  -24.8803  -31.0331   20.9746 C   0  0  0  0  0  0  0  0  0  0  0  0
  -23.4814  -28.4388   20.7358 C   0  0  0  0  0  0  0  0  0  0  0  0
  -24.0084  -32.7635   26.4916 C   0  0  0  0  0  0  0  0  0  0  0  0
  -28.3528  -14.9435   18.5454 C   0  0  0  0  0  0  0  0  0  0  0  0
  -24.0916  -31.2541   26.2873 C   0  0  0  0  0  0  0  0  0  0  0  0
  -30.6263  -21.4204   22.5183 C   0  0  0  0  0  0  0  0  0  0  0  0
  -28.1468  -21.8982   22.4102 C   0  0  0  0  0  0  0  0  0  0  0  0
  -26.8561  -14.6565   18.4725 C   0  0  0  0  0  0  0  0  0  0  0  0
  -30.4161  -20.1364   21.7150 C   0  0  0  0  0  0  0  0  0  0  0  0
  -27.9321  -20.6146   21.6075 C   0  0  0  0  0  0  0  0  0  0  0  0
  -28.7410  -24.2208   20.5691 C   0  0  0  0  0  0  0  0  0  0  0  0
  -28.6270  -16.2124   19.3467 C   0  0  0  0  0  0  0  0  0  0  0  0
  -27.1399  -15.0713   20.9925 C   0  0  0  0  0  0  0  0  0  0  0  0
  -31.0563  -23.8626   20.7205 C   0  0  0  0  0  0  0  0  0  0  0  0
  -25.1945  -30.8930   25.2849 C   0  0  1  0  0  0  0  0  0  0  0  0
  -23.6529  -30.7020   21.8179 C   0  0  1  0  0  0  0  0  0  0  0  0
  -29.5555  -22.4857   22.2428 C   0  0  0  0  0  0  0  0  0  0  0  0
  -29.7378  -23.1240   20.8791 C   0  0  1  0  0  0  0  0  0  0  0  0
  -26.1851  -14.6448   19.8634 C   0  0  2  0  0  0  0  0  0  0  0  0
  -29.0081  -19.5729   21.9192 C   0  0  0  0  0  0  0  0  0  0  0  0
  -29.4419  -24.9475   19.4326 C   0  0  1  0  0  0  0  0  0  0  0  0
  -17.9827  -28.2430   17.1482 C   0  0  0  0  0  0  0  0  0  0  0  0
  -20.5233  -27.6090   23.2321 C   0  0  0  0  0  0  0  0  0  0  0  0
  -18.9452  -26.7885   21.4702 C   0  0  0  0  0  0  0  0  0  0  0  0
  -18.6866  -29.0886   22.4004 C   0  0  0  0  0  0  0  0  0  0  0  0
  -21.2014  -29.9771   16.0950 C   0  0  0  0  0  0  0  0  0  0  0  0
  -29.0338  -26.4020   19.3024 C   0  0  0  0  0  0  0  0  0  1  0  0
  -20.6171  -28.5901   20.8458 C   0  0  1  0  0  0  0  0  0  0  0  0
  -19.2368  -29.0794   17.3493 C   0  0  2  0  0  0  0  0  0  0  0  0
  -19.7209  -28.0210   21.9818 C   0  0  0  0  0  0  0  0  0  0  0  0
  -26.2587  -12.3864   20.8553 N   0  0  0  0  0  0  0  0  0  0  0  0
  -25.5439  -13.3054   20.1841 N   0  0  0  0  0  0  0  0  0  0  0  0
  -22.8168  -29.6620   21.2149 N   0  0  0  0  0  0  0  0  0  0  0  0
  -27.9110  -16.2611   20.6278 N   0  0  0  0  0  0  0  0  0  0  0  0
  -23.4294  -13.6978   19.1915 N   0  0  0  0  0  0  0  0  0  0  0  0
  -23.0495   -9.5065   20.8300 N   0  0  0  0  0  0  0  0  0  0  0  0
  -24.7480  -31.1419   23.9309 N   0  0  0  0  0  0  0  0  0  0  0  0
  -19.8810  -29.0137   19.6595 N   0  0  0  0  0  0  0  0  0  0  0  0
  -28.8113  -18.3872   21.1166 N   0  0  0  0  0  0  0  0  0  0  0  0
  -19.9592  -29.1636   16.0485 N   0  3  0  0  0  0  0  0  0  0  0  0
  -21.9572  -11.1616   19.6784 O   0  0  0  0  0  0  0  0  0  0  0  0
  -23.6366  -29.1265   23.5765 O   0  0  0  0  0  0  0  0  0  0  0  0
  -20.8357  -30.7963   21.6892 O   0  0  0  0  0  0  0  0  0  0  0  0
  -20.9786  -27.6185   18.1675 O   0  0  0  0  0  0  0  0  0  0  0  0
  -27.3812  -17.3699   22.6024 O   0  0  0  0  0  0  0  0  0  0  0  0
  -30.8510  -24.8589   19.7059 O   0  0  0  0  0  0  0  0  0  0  0  0
  -26.9838   -6.6727   23.5721 O   0  0  0  0  0  0  0  0  0  0  0  0
  -27.6310  -26.4704   19.0494 O   0  0  0  0  0  0  0  0  0  1  0  0
  -32.3687   -5.9585   24.5186 F   0  0  0  0  0  0  0  0  0  0  0  0
  -28.3329   -4.5010   22.5204 F   0  0  0  0  0  0  0  0  0  0  0  0
  1  2  1  0  0  0  0
  1  5  2  0  0  0  0
  2  6  2  0  0  0  0
  3  8  2  0  0  0  0
  3 15  1  0  0  0  0
  4  9  1  0  0  0  0
  4 15  2  0  0  0  0
  5 17  1  0  0  0  0
  6 19  1  0  0  0  0
  7 10  2  0  0  0  0
  7 18  1  0  0  0  0
  8 21  1  0  0  0  0
  9 21  2  0  0  0  0
 10 22  1  0  0  0  0
 11 12  2  0  0  0  0
 11 23  1  0  0  0  0
 12 24  1  0  0  0  0
 13 20  1  0  0  0  0
 13 22  2  0  0  0  0
 14 24  2  0  0  0  0
 14 25  1  0  0  0  0
 15 26  1  0  0  0  0
 16 26  1  0  0  0  0
 16 27  2  0  0  0  0
 16 28  1  0  0  0  0
 17 19  2  0  0  0  0
 17 33  1  0  0  0  0
 18 20  2  0  0  0  0
 18 34  1  0  0  0  0
 19 48  1  0  0  0  0
 20 35  1  0  0  0  0
 21 80  1  0  0  0  0
 22 81  1  0  0  0  0
 23 25  2  0  0  0  0
 23 80  1  0  0  0  0
 24 82  1  0  0  0  0
 25 83  1  0  0  0  0
 26 64  2  0  0  0  0
 27 65  1  0  0  0  0
 27 68  1  0  0  0  0
 28 69  1  0  0  0  0
 28 74  2  0  0  0  0
 29 49  1  0  0  0  0
 29 70  1  0  0  0  0
 29 75  2  0  0  0  0
 30 61  1  0  0  0  0
 30 66  1  0  0  0  0
 30 76  2  0  0  0  0
 31 62  1  0  0  0  0
 31 71  1  0  0  0  0
 31 77  2  0  0  0  0
 32 67  1  0  0  0  0
 32 72  1  0  0  0  0
 32 78  2  0  0  0  0
 33 36  1  0  0  0  0
 34 49  1  0  0  0  0
 35 66  1  0  0  0  0
 36 38  1  0  0  0  0
 37 41  1  0  0  0  0
 37 45  1  0  0  0  0
 38 48  1  0  0  0  0
 39 42  1  0  0  0  0
 39 50  1  0  0  0  0
 40 43  1  0  0  0  0
 40 50  1  0  0  0  0
 41 52  1  0  0  0  0
 42 53  1  0  0  0  0
 43 53  1  0  0  0  0
 44 51  1  0  0  0  0
 44 54  1  0  0  0  0
 45 67  1  0  0  0  0
 46 52  1  0  0  0  0
 46 67  1  0  0  0  0
 47 51  1  0  0  0  0
 47 79  1  0  0  0  0
 48 70  1  0  0  0  0
 49 66  1  0  0  0  0
 50 51  1  0  0  0  0
 52 65  1  0  0  0  0
 53 72  1  0  0  0  0
 54 60  1  0  0  0  0
 54 79  1  0  0  0  0
 55 62  1  0  0  0  0
 56 63  1  0  0  0  0
 57 63  1  0  0  0  0
 58 63  1  0  0  0  0
 59 73  1  0  0  0  0
 60 81  1  0  0  0  0
 61 63  1  0  0  0  0
 61 71  1  0  0  0  0
 62 73  1  0  0  0  0
 64 65  1  0  0  0  0
M  CHG  1  73   1
M  ISO  4  32 100  60 101  72 100  81 101
M  END
> <Batch ID>
0142

> <Smiles>
CNC(C)C(=O)NC(C(=O)N1Cc2cc([101O:1][101CH2:1]C3CC(C4CCC([100NH:0][100C:0](=O)N5CCCC(n6nc(-c7ccc(Oc8ccc(F)cc8F)cc7)c(C(N)=O)c6N)C5)CC4)CO3)ccc2CC1C(=O)NC1CCCc2ccccc21)C(C)(C)C

> <Shape>
0.277

> <Color>
0.088

> <Negative vol penalty>
0.000

$$$$

  -OEChem-04052321183D

 87 96  0     1  0  0  0  0  0999 V2000
  -21.4176  -23.6346   20.9211 C   0  0  0  0  0  0  0  0  0  0  0  0
  -22.6805  -24.1574   20.6620 C   0  0  0  0  0  0  0  0  0  0  0  0
  -25.4042  -13.0123   21.7189 C   0  0  0  0  0  0  0  0  0  0  0  0
  -25.6723  -13.3293   19.3388 C   0  0  0  0  0  0  0  0  0  0  0  0
  -20.3324  -24.4919   21.0983 C   0  0  0  0  0  0  0  0  0  0  0  0
  -22.8587  -25.5379   20.5788 C   0  0  0  0  0  0  0  0  0  0  0  0
  -26.9593  -27.1224   23.0927 C   0  0  0  0  0  0  0  0  0  0  0  0
  -27.9520  -20.6559   16.2821 C   0  0  0  0  0  0  0  0  0  0  0  0
  -24.4374  -12.0357   21.4800 C   0  0  0  0  0  0  0  0  0  0  0  0
  -24.7054  -12.3526   19.0999 C   0  0  0  0  0  0  0  0  0  0  0  0
  -28.1960  -26.9329   22.4775 C   0  0  0  0  0  0  0  0  0  0  0  0
  -28.6868  -21.2299   15.2448 C   0  0  0  0  0  0  0  0  0  0  0  0
  -24.3575   -8.7768   20.5822 C   0  0  0  0  0  0  0  0  0  0  0  0
  -24.4345   -7.5946   21.3184 C   0  0  0  0  0  0  0  0  0  0  0  0
  -28.5404  -22.5046   17.7219 C   0  0  0  0  0  0  0  0  0  0  0  0
  -28.1919  -29.2398   21.7723 C   0  0  0  0  0  0  0  0  0  0  0  0
  -22.2368   -8.0180   22.2284 C   0  0  0  0  0  0  0  0  0  0  0  0
  -26.0216  -13.6591   20.6483 C   0  0  0  0  0  0  0  0  0  0  0  0
  -28.4085  -14.4767   21.0251 C   0  0  0  0  0  0  0  0  0  0  0  0
  -20.4992  -25.8839   21.0268 C   0  0  0  0  0  0  0  0  0  0  0  0
  -26.3235  -28.3712   23.0429 C   0  0  0  0  0  0  0  0  0  0  0  0
  -21.7745  -26.4146   20.7538 C   0  0  0  0  0  0  0  0  0  0  0  0
  -29.2753  -23.0786   16.6845 C   0  0  0  0  0  0  0  0  0  0  0  0
  -26.9484  -29.4432   22.3899 C   0  0  0  0  0  0  0  0  0  0  0  0
  -27.8787  -21.2933   17.5207 C   0  0  0  0  0  0  0  0  0  0  0  0
  -24.0880  -11.7058   20.1705 C   0  0  0  0  0  0  0  0  0  0  0  0
  -28.8111  -27.9909   21.8147 C   0  0  0  0  0  0  0  0  0  0  0  0
  -29.3485  -22.4412   15.4459 C   0  0  0  0  0  0  0  0  0  0  0  0
  -23.2201   -9.5797   20.6691 C   0  0  0  0  0  0  0  0  0  0  0  0
  -23.3742   -7.2152   22.1414 C   0  0  0  0  0  0  0  0  0  0  0  0
  -22.1598   -9.2003   21.4922 C   0  0  0  0  0  0  0  0  0  0  0  0
  -27.0200  -14.6685   20.8945 C   0  0  0  0  0  0  0  0  0  0  0  0
  -28.9095  -15.7359   21.2483 C   0  0  0  0  0  0  0  0  0  0  0  0
  -29.1768  -13.2684   20.9511 C   0  0  0  0  0  0  0  0  0  0  0  0
  -23.5820  -29.4465   21.8463 C   0  0  0  0  0  0  0  0  0  0  0  0
  -24.4624  -32.1938   23.3293 C   0  0  0  0  0  0  0  0  0  0  0  0
  -26.9754  -34.1310   24.5857 C   0  0  0  0  0  0  0  0  0  0  0  0
  -26.9570  -21.2109   19.8638 C   0  0  0  0  0  0  0  0  0  0  0  0
  -19.2875  -26.7690   21.1783 C   0  0  0  0  0  0  0  0  0  0  0  0
  -25.0021  -28.5664   23.7344 C   0  0  0  0  0  0  0  0  0  0  0  0
  -26.3170  -30.8091   22.3251 C   0  0  0  0  0  0  0  0  0  0  0  0
  -19.6315  -28.2319   21.4462 C   0  0  0  0  0  0  0  0  0  0  0  0
  -27.6928  -19.9728   23.1199 C   0  0  0  0  0  0  0  0  0  0  0  0
  -20.7193  -28.7085   20.4889 C   0  0  0  0  0  0  0  0  0  0  0  0
  -27.7362  -18.4549   22.9294 C   0  0  0  0  0  0  0  0  0  0  0  0
  -28.9623  -25.4755   17.2713 C   0  0  0  0  0  0  0  0  0  0  0  0
  -31.0201  -24.2244   18.0372 C   0  0  0  0  0  0  0  0  0  0  0  0
  -26.6152  -20.6226   22.2538 C   0  0  0  0  0  0  0  0  0  0  0  0
  -26.7235  -18.7684   20.6352 C   0  0  0  0  0  0  0  0  0  0  0  0
  -29.6544  -26.7931   17.5960 C   0  0  0  0  0  0  0  0  0  0  0  0
  -31.6966  -25.5516   18.3558 C   0  0  0  0  0  0  0  0  0  0  0  0
  -29.9780  -24.3771   16.9176 C   0  0  0  0  0  0  0  0  0  0  0  0
  -22.0126  -27.9072   20.6807 C   0  0  1  0  0  0  0  0  0  0  0  0
  -24.2060  -29.7440   23.1804 C   0  0  1  0  0  0  0  0  0  0  0  0
  -27.8369  -18.0767   21.4386 C   0  0  2  0  0  0  0  0  0  0  0  0
  -27.3897  -36.3403   25.7014 C   0  0  0  0  0  0  0  0  0  0  0  0
  -24.0761  -33.6133   20.6562 C   0  0  0  0  0  0  0  0  0  0  0  0
  -25.3845  -35.5421   21.5705 C   0  0  0  0  0  0  0  0  0  0  0  0
  -23.2312  -34.8787   22.6409 C   0  0  0  0  0  0  0  0  0  0  0  0
  -28.1024  -32.8341   26.9955 C   0  0  0  0  0  0  0  0  0  0  0  0
  -30.0826  -22.2689   13.1905 C   0  0  0  0  0  0  0  0  0  0  0  0
  -31.2683  -27.8722   19.1598 C   0  0  0  0  0  0  0  0  0  0  0  0
  -30.2977  -28.6066   20.0635 C   0  0  0  0  0  0  0  0  0  1  0  0
  -25.2672  -33.4095   22.9378 C   0  0  1  0  0  0  0  0  0  0  0  0
  -27.1205  -34.8582   25.9103 C   0  0  2  0  0  0  0  0  0  0  0  0
  -24.5010  -34.3348   21.9507 C   0  0  0  0  0  0  0  0  0  0  0  0
  -26.6618  -15.9487   21.0241 N   0  0  0  0  0  0  0  0  0  0  0  0
  -27.8326  -16.5727   21.2386 N   0  0  0  0  0  0  0  0  0  0  0  0
  -25.0218  -30.9482   23.0111 N   0  0  0  0  0  0  0  0  0  0  0  0
  -26.7763  -20.2224   20.8542 N   0  0  0  0  0  0  0  0  0  0  0  0
  -30.1618  -16.1979   21.4502 N   0  0  0  0  0  0  0  0  0  0  0  0
  -28.5035  -12.0620   20.7154 N   0  0  0  0  0  0  0  0  0  0  0  0
  -27.1321  -20.7099   18.5742 N   0  0  0  0  0  0  0  0  0  0  0  0
  -22.7214  -28.3654   21.8563 N   0  0  0  0  0  0  0  0  0  0  0  0
  -25.6583  -34.0589   24.1842 N   0  0  0  0  0  0  0  0  0  0  0  0
  -30.6555  -26.5940   18.7183 N   0  3  0  0  0  0  0  0  0  0  0  0
  -28.2477  -34.2821   26.6968 N   0  3  0  0  0  0  0  0  0  0  0  0
  -30.4215  -13.2566   21.1063 O   0  0  0  0  0  0  0  0  0  0  0  0
  -23.8595  -30.1468   20.8798 O   0  0  0  0  0  0  0  0  0  0  0  0
  -23.3807  -32.3438   23.9029 O   0  0  0  0  0  0  0  0  0  0  0  0
  -27.9350  -33.6759   23.9671 O   0  0  0  0  0  0  0  0  0  0  0  0
  -26.9836  -22.4123   20.1432 O   0  0  0  0  0  0  0  0  0  0  0  0
  -23.1448  -10.7527   19.9370 O   0  0  0  0  0  0  0  0  0  0  0  0
  -30.0617  -22.9880   14.4219 O   0  0  0  0  0  0  0  0  0  0  0  0
  -30.0179  -27.8085   21.2128 O   0  0  0  0  0  0  0  0  0  1  0  0
  -23.4477   -6.0791   22.8472 F   0  0  0  0  0  0  0  0  0  0  0  0
  -21.0641   -9.9669   21.5789 F   0  0  0  0  0  0  0  0  0  0  0  0
  1  2  1  0  0  0  0
  1  5  2  0  0  0  0
  2  6  2  0  0  0  0
  3  9  2  0  0  0  0
  3 18  1  0  0  0  0
  4 10  1  0  0  0  0
  4 18  2  0  0  0  0
  5 20  1  0  0  0  0
  6 22  1  0  0  0  0
  7 11  2  0  0  0  0
  7 21  1  0  0  0  0
  8 12  2  0  0  0  0
  8 25  1  0  0  0  0
  9 26  1  0  0  0  0
 10 26  2  0  0  0  0
 11 27  1  0  0  0  0
 12 28  1  0  0  0  0
 13 14  2  0  0  0  0
 13 29  1  0  0  0  0
 14 30  1  0  0  0  0
 15 23  1  0  0  0  0
 15 25  2  0  0  0  0
 16 24  1  0  0  0  0
 16 27  2  0  0  0  0
 17 30  2  0  0  0  0
 17 31  1  0  0  0  0
 18 32  1  0  0  0  0
 19 32  1  0  0  0  0
 19 33  2  0  0  0  0
 19 34  1  0  0  0  0
 20 22  2  0  0  0  0
 20 39  1  0  0  0  0
 21 24  2  0  0  0  0
 21 40  1  0  0  0  0
 22 53  1  0  0  0  0
 23 28  2  0  0  0  0
 23 52  1  0  0  0  0
 24 41  1  0  0  0  0
 25 73  1  0  0  0  0
 26 83  1  0  0  0  0
 27 85  1  0  0  0  0
 28 84  1  0  0  0  0
 29 31  2  0  0  0  0
 29 83  1  0  0  0  0
 30 86  1  0  0  0  0
 31 87  1  0  0  0  0
 32 67  2  0  0  0  0
 33 68  1  0  0  0  0
 33 71  1  0  0  0  0
 34 72  1  0  0  0  0
 34 78  2  0  0  0  0
 35 54  1  0  0  0  0
 35 74  1  0  0  0  0
 35 79  2  0  0  0  0
 36 64  1  0  0  0  0
 36 69  1  0  0  0  0
 36 80  2  0  0  0  0
 37 65  1  0  0  0  0
 37 75  1  0  0  0  0
 37 81  2  0  0  0  0
 38 70  1  0  0  0  0
 38 73  1  0  0  0  0
 38 82  2  0  0  0  0
 39 42  1  0  0  0  0
 40 54  1  0  0  0  0
 41 69  1  0  0  0  0
 42 44  1  0  0  0  0
 43 45  1  0  0  0  0
 43 48  1  0  0  0  0
 44 53  1  0  0  0  0
 45 55  1  0  0  0  0
 46 50  1  0  0  0  0
 46 52  1  0  0  0  0
 47 51  1  0  0  0  0
 47 52  1  0  0  0  0
 48 70  1  0  0  0  0
 49 55  1  0  0  0  0
 49 70  1  0  0  0  0
 50 76  1  0  0  0  0
 51 76  1  0  0  0  0
 53 74  1  0  0  0  0
 54 69  1  0  0  0  0
 55 68  1  0  0  0  0
 56 65  1  0  0  0  0
 57 66  1  0  0  0  0
 58 66  1  0  0  0  0
 59 66  1  0  0  0  0
 60 77  1  0  0  0  0
 61 84  1  0  0  0  0
 62 63  1  0  0  0  0
 62 76  1  0  0  0  0
 63 85  1  0  0  0  0
 64 66  1  0  0  0  0
 64 75  1  0  0  0  0
 65 77  1  0  0  0  0
 67 68  1  0  0  0  0
M  CHG  2  76   1  77   1
M  ISO  4  38 100  63 101  73 100  85 101
M  END
> <Batch ID>
0142

> <Smiles>
CNC(C)C(=O)NC(C(=O)N1Cc2cc([101O:1][101CH2:1]CN3CCC(c4cc([100NH:0][100C:0](=O)N5CCCC(n6nc(-c7ccc(Oc8ccc(F)cc8F)cc7)c(C(N)=O)c6N)C5)ccc4OC)CC3)ccc2CC1C(=O)NC1CCCc2ccccc21)C(C)(C)C

> <Shape>
0.286

> <Color>
0.063

> <Negative vol penalty>
0.000

$$$$

  -OEChem-04052321183D

 89 98  0     1  0  0  0  0  0999 V2000
  -23.2058  -33.0163   18.8739 C   0  0  0  0  0  0  0  0  0  0  0  0
  -23.6289  -31.7087   19.0893 C   0  0  0  0  0  0  0  0  0  0  0  0
  -23.0193   -9.8282   19.9860 C   0  0  0  0  0  0  0  0  0  0  0  0
  -23.7221   -9.9265   22.2955 C   0  0  0  0  0  0  0  0  0  0  0  0
  -22.5134  -33.6974   19.8742 C   0  0  0  0  0  0  0  0  0  0  0  0
  -23.3608  -31.0817   20.3056 C   0  0  0  0  0  0  0  0  0  0  0  0
  -21.6731  -26.3434   19.7182 C   0  0  0  0  0  0  0  0  0  0  0  0
  -29.4802  -21.2961   21.4701 C   0  0  0  0  0  0  0  0  0  0  0  0
  -22.2555   -8.6954   20.2666 C   0  0  0  0  0  0  0  0  0  0  0  0
  -22.9582   -8.7937   22.5761 C   0  0  0  0  0  0  0  0  0  0  0  0
  -22.6197  -25.3615   19.4291 C   0  0  0  0  0  0  0  0  0  0  0  0
  -28.6913  -22.1960   20.7536 C   0  0  0  0  0  0  0  0  0  0  0  0
  -23.2223   -5.4475   22.1703 C   0  0  0  0  0  0  0  0  0  0  0  0
  -23.8072   -4.4477   22.9473 C   0  0  0  0  0  0  0  0  0  0  0  0
  -22.6140  -24.6829   21.7439 C   0  0  0  0  0  0  0  0  0  0  0  0
  -22.0662   -4.7142   24.6010 C   0  0  0  0  0  0  0  0  0  0  0  0
  -23.7527  -10.4438   21.0004 C   0  0  0  0  0  0  0  0  0  0  0  0
  -24.1282  -12.9574   20.7801 C   0  0  0  0  0  0  0  0  0  0  0  0
  -22.2281  -33.0752   21.0998 C   0  0  0  0  0  0  0  0  0  0  0  0
  -21.1971  -26.5098   21.0267 C   0  0  0  0  0  0  0  0  0  0  0  0
  -22.6650  -31.7556   21.3237 C   0  0  0  0  0  0  0  0  0  0  0  0
  -21.6594  -25.6658   22.0466 C   0  0  0  0  0  0  0  0  0  0  0  0
  -27.9426  -21.4281   23.3290 C   0  0  0  0  0  0  0  0  0  0  0  0
  -29.1058  -20.9121   22.7578 C   0  0  0  0  0  0  0  0  0  0  0  0
  -22.2248   -8.1781   21.5617 C   0  0  0  0  0  0  0  0  0  0  0  0
  -23.0925  -24.5330   20.4425 C   0  0  0  0  0  0  0  0  0  0  0  0
  -27.5281  -22.7121   21.3248 C   0  0  0  0  0  0  0  0  0  0  0  0
  -22.0593   -6.0809   22.6088 C   0  0  0  0  0  0  0  0  0  0  0  0
  -27.1537  -22.3281   22.6125 C   0  0  0  0  0  0  0  0  0  0  0  0
  -23.2292   -4.0810   24.1626 C   0  0  0  0  0  0  0  0  0  0  0  0
  -21.4813   -5.7142   23.8241 C   0  0  0  0  0  0  0  0  0  0  0  0
  -24.5424  -11.6137   20.7110 C   0  0  0  0  0  0  0  0  0  0  0  0
  -25.2381  -13.6782   20.4126 C   0  0  0  0  0  0  0  0  0  0  0  0
  -22.8541  -13.5050   21.1441 C   0  0  0  0  0  0  0  0  0  0  0  0
  -21.2731  -28.8662   23.1587 C   0  0  0  0  0  0  0  0  0  0  0  0
  -19.3579  -26.8708   24.8536 C   0  0  0  0  0  0  0  0  0  0  0  0
  -18.3114  -23.6794   25.4587 C   0  0  0  0  0  0  0  0  0  0  0  0
  -30.7275  -14.6434   20.6956 C   0  0  0  0  0  0  0  0  0  0  0  0
  -21.5182  -33.8679   22.1685 C   0  0  0  0  0  0  0  0  0  0  0  0
  -20.1561  -27.5559   21.3171 C   0  0  0  0  0  0  0  0  0  0  0  0
  -21.1652  -25.7902   23.4639 C   0  0  0  0  0  0  0  0  0  0  0  0
  -20.9465  -33.0036   23.2894 C   0  0  0  0  0  0  0  0  0  0  0  0
  -29.6205  -12.1701   18.3860 C   0  0  0  0  0  0  0  0  0  0  0  0
  -21.9803  -31.9844   23.7578 C   0  0  0  0  0  0  0  0  0  0  0  0
  -28.1692  -11.9115   18.7946 C   0  0  0  0  0  0  0  0  0  0  0  0
  -31.4435  -18.1142   23.8234 C   0  0  0  0  0  0  0  0  0  0  0  0
  -31.5654  -16.7403   23.1536 C   0  0  0  0  0  0  0  0  0  0  0  0
  -29.8291  -18.0102   22.0534 C   0  0  0  0  0  0  0  0  0  0  0  0
  -30.5101  -12.4328   19.5990 C   0  0  0  0  0  0  0  0  0  0  0  0
  -28.5836  -13.2445   20.9042 C   0  0  0  0  0  0  0  0  0  0  0  0
  -22.3715  -31.0329   22.6206 C   0  0  1  0  0  0  0  0  0  0  0  0
  -20.1230  -27.9750   22.7836 C   0  0  1  0  0  0  0  0  0  0  0  0
  -27.6369  -13.0298   19.7109 C   0  0  2  0  0  0  0  0  0  0  0  0
  -30.7011  -18.9947   22.8213 C   0  0  1  0  0  0  0  0  0  0  0  0
  -30.7889  -16.8448   21.8397 C   0  0  2  0  0  0  0  0  0  0  0  0
  -27.5332  -21.0224   24.7096 C   0  0  0  0  0  0  0  0  0  0  0  0
  -16.7648  -22.3588   26.9289 C   0  0  0  0  0  0  0  0  0  0  0  0
  -21.3179  -27.1629   27.1737 C   0  0  0  0  0  0  0  0  0  0  0  0
  -20.2720  -25.1433   28.2203 C   0  0  0  0  0  0  0  0  0  0  0  0
  -18.9063  -27.1950   27.8351 C   0  0  0  0  0  0  0  0  0  0  0  0
  -16.7545  -22.7013   23.1396 C   0  0  0  0  0  0  0  0  0  0  0  0
  -26.1423  -24.0458   23.9096 C   0  0  0  0  0  0  0  0  0  0  0  0
  -24.9250  -23.8393   19.0947 C   0  0  0  0  0  0  0  0  0  1  0  0
  -26.2367  -23.1307   19.3722 C   0  0  0  0  0  0  0  0  0  0  0  0
  -19.5858  -25.7695   25.8606 C   0  0  1  0  0  0  0  0  0  0  0  0
  -16.9219  -23.0850   25.6020 C   0  0  2  0  0  0  0  0  0  0  0  0
  -20.0315  -26.3164   27.2462 C   0  0  0  0  0  0  0  0  0  0  0  0
  -25.8160  -11.4857   20.3294 N   0  0  0  0  0  0  0  0  0  0  0  0
  -26.2116  -12.7582   20.1554 N   0  0  0  0  0  0  0  0  0  0  0  0
  -20.1521  -26.8323   23.6988 N   0  0  0  0  0  0  0  0  0  0  0  0
  -29.9503  -13.5049   20.4255 N   0  0  0  0  0  0  0  0  0  0  0  0
  -25.4665  -15.0028   20.2875 N   0  0  0  0  0  0  0  0  0  0  0  0
  -21.8231  -12.6227   21.4946 N   0  0  0  0  0  0  0  0  0  0  0  0
  -29.9175  -19.9999   23.4677 N   0  0  0  0  0  0  0  0  0  0  0  0
  -21.3441  -30.0332   22.4221 N   0  0  0  0  0  0  0  0  0  0  0  0
  -18.3552  -24.9867   25.8949 N   0  0  0  0  0  0  0  0  0  0  0  0
  -30.1190  -15.6146   21.4813 N   0  0  0  0  0  0  0  0  0  0  0  0
  -16.6571  -22.1157   24.5014 N   0  3  0  0  0  0  0  0  0  0  0  0
  -22.6315  -14.7395   21.1422 O   0  0  0  0  0  0  0  0  0  0  0  0
  -22.0386  -28.5213   24.0513 O   0  0  0  0  0  0  0  0  0  0  0  0
  -18.5016  -27.7295   25.0798 O   0  0  0  0  0  0  0  0  0  0  0  0
  -19.2636  -23.0460   25.0085 O   0  0  0  0  0  0  0  0  0  0  0  0
  -31.8764  -14.7863   20.2637 O   0  0  0  0  0  0  0  0  0  0  0  0
  -21.4794   -7.0728   21.8359 O   0  0  0  0  0  0  0  0  0  0  0  0
  -26.0151  -22.8367   23.1654 O   0  0  0  0  0  0  0  0  0  0  0  0
  -24.0170  -23.5743   20.1632 O   0  0  0  0  0  0  0  0  0  1  0  0
  -26.7631  -23.5952   20.6092 O   0  0  0  0  0  0  0  0  0  0  0  0
  -23.7901   -3.1197   24.9079 F   0  0  0  0  0  0  0  0  0  0  0  0
  -20.3634   -6.3182   24.2500 F   0  0  0  0  0  0  0  0  0  0  0  0
  1  2  1  0  0  0  0
  1  5  2  0  0  0  0
  2  6  2  0  0  0  0
  3  9  2  0  0  0  0
  3 17  1  0  0  0  0
  4 10  1  0  0  0  0
  4 17  2  0  0  0  0
  5 19  1  0  0  0  0
  6 21  1  0  0  0  0
  7 11  2  0  0  0  0
  7 20  1  0  0  0  0
  8 12  2  0  0  0  0
  8 24  1  0  0  0  0
  9 25  1  0  0  0  0
 10 25  2  0  0  0  0
 11 26  1  0  0  0  0
 12 27  1  0  0  0  0
 13 14  2  0  0  0  0
 13 28  1  0  0  0  0
 14 30  1  0  0  0  0
 15 22  1  0  0  0  0
 15 26  2  0  0  0  0
 16 30  2  0  0  0  0
 16 31  1  0  0  0  0
 17 32  1  0  0  0  0
 18 32  1  0  0  0  0
 18 33  2  0  0  0  0
 18 34  1  0  0  0  0
 19 21  2  0  0  0  0
 19 39  1  0  0  0  0
 20 22  2  0  0  0  0
 20 40  1  0  0  0  0
 21 51  1  0  0  0  0
 22 41  1  0  0  0  0
 23 24  2  0  0  0  0
 23 29  1  0  0  0  0
 23 56  1  0  0  0  0
 24 74  1  0  0  0  0
 25 84  1  0  0  0  0
 26 86  1  0  0  0  0
 27 29  2  0  0  0  0
 27 87  1  0  0  0  0
 28 31  2  0  0  0  0
 28 84  1  0  0  0  0
 29 85  1  0  0  0  0
 30 88  1  0  0  0  0
 31 89  1  0  0  0  0
 32 68  2  0  0  0  0
 33 69  1  0  0  0  0
 33 72  1  0  0  0  0
 34 73  1  0  0  0  0
 34 79  2  0  0  0  0
 35 52  1  0  0  0  0
 35 75  1  0  0  0  0
 35 80  2  0  0  0  0
 36 65  1  0  0  0  0
 36 70  1  0  0  0  0
 36 81  2  0  0  0  0
 37 66  1  0  0  0  0
 37 76  1  0  0  0  0
 37 82  2  0  0  0  0
 38 71  1  0  0  0  0
 38 77  1  0  0  0  0
 38 83  2  0  0  0  0
 39 42  1  0  0  0  0
 40 52  1  0  0  0  0
 41 70  1  0  0  0  0
 42 44  1  0  0  0  0
 43 45  1  0  0  0  0
 43 49  1  0  0  0  0
 44 51  1  0  0  0  0
 45 53  1  0  0  0  0
 46 47  1  0  0  0  0
 46 54  1  0  0  0  0
 47 55  1  0  0  0  0
 48 54  1  0  0  0  0
 48 55  1  0  0  0  0
 49 71  1  0  0  0  0
 50 53  1  0  0  0  0
 50 71  1  0  0  0  0
 51 75  1  0  0  0  0
 52 70  1  0  0  0  0
 53 69  1  0  0  0  0
 54 74  1  0  0  0  0
 55 77  1  0  0  0  0
 57 66  1  0  0  0  0
 58 67  1  0  0  0  0
 59 67  1  0  0  0  0
 60 67  1  0  0  0  0
 61 78  1  0  0  0  0
 62 85  1  0  0  0  0
 63 64  1  0  0  0  0
 63 86  1  0  0  0  0
 64 87  1  0  0  0  0
 65 67  1  0  0  0  0
 65 76  1  0  0  0  0
 66 78  1  0  0  0  0
 68 69  1  0  0  0  0
M  CHG  1  78   1
M  ISO  4  38 100  63 101  77 100  86 101
M  END
> <Batch ID>
0142

> <Smiles>
CNC(C)C(=O)NC(C(=O)N1Cc2cc([101O:1][101CH2:1]COc3ccc(NC4CCC([100NH:0][100C:0](=O)N5CCCC(n6nc(-c7ccc(Oc8ccc(F)cc8F)cc7)c(C(N)=O)c6N)C5)C4)c(C)c3OC)ccc2CC1C(=O)NC1CCCc2ccccc21)C(C)(C)C

> <Shape>
0.268

> <Color>
0.207

> <Negative vol penalty>
0.000

$$$$

  -OEChem-04052321183D

 85 93  0     1  0  0  0  0  0999 V2000
  -26.1122   -8.5823   23.0905 C   0  0  0  0  0  0  0  0  0  0  0  0
  -26.8899   -9.6747   23.4610 C   0  0  0  0  0  0  0  0  0  0  0  0
  -21.6133  -28.5705   20.3667 C   0  0  0  0  0  0  0  0  0  0  0  0
  -22.9772  -27.1582   21.7747 C   0  0  0  0  0  0  0  0  0  0  0  0
  -25.4340   -8.5920   21.8724 C   0  0  0  0  0  0  0  0  0  0  0  0
  -26.9907  -10.7771   22.6131 C   0  0  0  0  0  0  0  0  0  0  0  0
  -27.7269  -17.9007   22.7808 C   0  0  0  0  0  0  0  0  0  0  0  0
  -20.5824  -27.6327   20.4247 C   0  0  0  0  0  0  0  0  0  0  0  0
  -21.9463  -26.2205   21.8328 C   0  0  0  0  0  0  0  0  0  0  0  0
  -28.5270  -18.9135   22.2538 C   0  0  0  0  0  0  0  0  0  0  0  0
  -17.4577  -25.7764   20.4981 C   0  0  0  0  0  0  0  0  0  0  0  0
  -16.1643  -26.2477   20.7233 C   0  0  0  0  0  0  0  0  0  0  0  0
  -27.2476  -18.8523   20.2096 C   0  0  0  0  0  0  0  0  0  0  0  0
  -30.7696  -21.5608   17.8368 C   0  0  0  0  0  0  0  0  0  0  0  0
  -16.8740  -27.1870   22.8331 C   0  0  0  0  0  0  0  0  0  0  0  0
  -22.8108  -28.3332   21.0416 C   0  0  0  0  0  0  0  0  0  0  0  0
  -24.0929  -30.3825   21.8566 C   0  0  0  0  0  0  0  0  0  0  0  0
  -25.5188   -9.6991   21.0134 C   0  0  0  0  0  0  0  0  0  0  0  0
  -26.6862  -17.3476   22.0209 C   0  0  0  0  0  0  0  0  0  0  0  0
  -26.3141  -10.8010   21.3817 C   0  0  0  0  0  0  0  0  0  0  0  0
  -26.4341  -17.8343   20.7303 C   0  0  0  0  0  0  0  0  0  0  0  0
  -29.7500  -21.8772   18.7277 C   0  0  0  0  0  0  0  0  0  0  0  0
  -29.6539  -23.1680   19.2356 C   0  0  0  0  0  0  0  0  0  0  0  0
  -20.7488  -26.4578   21.1578 C   0  0  0  0  0  0  0  0  0  0  0  0
  -28.2893  -19.3875   20.9669 C   0  0  0  0  0  0  0  0  0  0  0  0
  -18.4592  -26.0104   21.4404 C   0  0  0  0  0  0  0  0  0  0  0  0
  -15.8725  -26.9530   21.8908 C   0  0  0  0  0  0  0  0  0  0  0  0
  -18.1674  -26.7157   22.6078 C   0  0  0  0  0  0  0  0  0  0  0  0
  -23.8763  -29.3012   20.9815 C   0  0  0  0  0  0  0  0  0  0  0  0
  -31.6606  -22.5630   17.4883 C   0  0  0  0  0  0  0  0  0  0  0  0
  -30.5950  -24.0982   18.8247 C   0  0  0  0  0  0  0  0  0  0  0  0
  -25.2246  -30.9932   21.3743 C   0  0  0  0  0  0  0  0  0  0  0  0
  -23.3385  -30.7977   23.0030 C   0  0  0  0  0  0  0  0  0  0  0  0
  -26.0320  -14.4516   20.8854 C   0  0  0  0  0  0  0  0  0  0  0  0
  -23.2440  -15.8543   20.0012 C   0  0  0  0  0  0  0  0  0  0  0  0
  -21.5623  -18.7194   19.2202 C   0  0  0  0  0  0  0  0  0  0  0  0
  -29.8407  -29.0279   18.1062 C   0  0  0  0  0  0  0  0  0  0  0  0
  -24.8057   -9.6439   19.6856 C   0  0  0  0  0  0  0  0  0  0  0  0
  -25.8153  -16.2742   22.6138 C   0  0  0  0  0  0  0  0  0  0  0  0
  -25.3165  -17.2881   19.8811 C   0  0  0  0  0  0  0  0  0  0  0  0
  -24.6642  -11.0070   19.0131 C   0  0  0  0  0  0  0  0  0  0  0  0
  -27.6469  -31.7175   17.3124 C   0  0  0  0  0  0  0  0  0  0  0  0
  -25.9884  -11.7629   19.0548 C   0  0  0  0  0  0  0  0  0  0  0  0
  -26.4514  -31.5008   18.2417 C   0  0  0  0  0  0  0  0  0  0  0  0
  -28.2245  -30.3933   16.8177 C   0  0  0  0  0  0  0  0  0  0  0  0
  -27.3783  -29.2172   18.8113 C   0  0  0  0  0  0  0  0  0  0  0  0
  -26.4285  -12.0257   20.5001 C   0  0  1  0  0  0  0  0  0  0  0  0
  -25.1093  -15.4273   21.5594 C   0  0  1  0  0  0  0  0  0  0  0  0
  -26.7965  -30.5224   19.3805 C   0  0  2  0  0  0  0  0  0  0  0  0
  -32.7679  -22.2594   16.5352 C   0  0  0  0  0  0  0  0  0  0  0  0
  -27.6387  -24.6289   19.6334 C   0  0  0  0  0  0  0  0  0  0  0  0
  -29.1258  -23.9800   21.5628 C   0  0  0  0  0  0  0  0  0  0  0  0
  -19.3039  -19.5443   18.5013 C   0  0  0  0  0  0  0  0  0  0  0  0
  -23.7790  -14.8457   17.1716 C   0  0  0  0  0  0  0  0  0  0  0  0
  -22.0532  -16.4601   16.3447 C   0  0  0  0  0  0  0  0  0  0  0  0
  -21.4018  -14.6394   17.9206 C   0  0  0  0  0  0  0  0  0  0  0  0
  -21.2643  -20.3764   21.6542 C   0  0  0  0  0  0  0  0  0  0  0  0
  -28.7694  -20.8134   19.1252 C   0  0  0  0  0  0  0  0  0  1  0  0
  -31.3417  -27.6335   19.5068 C   0  0  0  0  0  0  0  0  0  0  0  0
  -31.5328  -26.2837   18.8385 C   0  0  0  0  0  0  0  0  0  0  0  0
  -28.5731  -23.5402   20.1940 C   0  0  0  0  0  0  0  0  0  0  0  0
  -22.7600  -16.5926   18.7766 C   0  0  1  0  0  0  0  0  0  0  0  0
  -20.2194  -19.2566   19.6811 C   0  0  2  0  0  0  0  0  0  0  0  0
  -22.5209  -15.6436   17.5684 C   0  0  0  0  0  0  0  0  0  0  0  0
  -24.7965  -29.2268   20.0163 N   0  0  0  0  0  0  0  0  0  0  0  0
  -31.5994  -23.8281   17.9610 N   0  0  0  0  0  0  0  0  0  0  0  0
  -25.6023  -30.2691   20.2819 N   0  0  0  0  0  0  0  0  0  0  0  0
  -24.4966  -16.2352   20.5029 N   0  0  0  0  0  0  0  0  0  0  0  0
  -28.5317  -29.5118   17.9467 N   0  0  0  0  0  0  0  0  0  0  0  0
  -25.9236  -32.0737   21.7821 N   0  0  0  0  0  0  0  0  0  0  0  0
  -22.2029  -30.0575   23.3594 N   0  0  0  0  0  0  0  0  0  0  0  0
  -25.6789  -13.1277   21.0642 N   0  0  0  0  0  0  0  0  0  0  0  0
  -21.5784  -17.3409   19.1916 N   0  0  0  0  0  0  0  0  0  0  0  0
  -30.0476  -28.2039   19.2057 N   0  0  0  0  0  0  0  0  0  0  0  0
  -20.4034  -20.5188   20.4519 N   0  3  0  0  0  0  0  0  0  0  0  0
  -23.6525  -31.8051   23.6813 O   0  0  0  0  0  0  0  0  0  0  0  0
  -26.9924  -14.8692   20.2490 O   0  0  0  0  0  0  0  0  0  0  0  0
  -22.5337  -14.9770   20.4986 O   0  0  0  0  0  0  0  0  0  0  0  0
  -22.5018  -19.4496   18.9124 O   0  0  0  0  0  0  0  0  0  0  0  0
  -30.7583  -29.3137   17.3295 O   0  0  0  0  0  0  0  0  0  0  0  0
  -19.7429  -25.5426   21.2149 O   0  0  0  0  0  0  0  0  0  0  0  0
  -29.0691  -20.3755   20.4499 O   0  0  0  0  0  0  0  0  0  1  0  0
  -30.5355  -25.3815   19.3022 O   0  0  0  0  0  0  0  0  0  0  0  0
  -14.6308  -27.4068   22.1062 F   0  0  0  0  0  0  0  0  0  0  0  0
  -19.1256  -26.9447   23.5162 F   0  0  0  0  0  0  0  0  0  0  0  0
  1  2  1  0  0  0  0
  1  5  2  0  0  0  0
  2  6  2  0  0  0  0
  3  8  2  0  0  0  0
  3 16  1  0  0  0  0
  4  9  1  0  0  0  0
  4 16  2  0  0  0  0
  5 18  1  0  0  0  0
  6 20  1  0  0  0  0
  7 10  2  0  0  0  0
  7 19  1  0  0  0  0
  8 24  1  0  0  0  0
  9 24  2  0  0  0  0
 10 25  1  0  0  0  0
 11 12  2  0  0  0  0
 11 26  1  0  0  0  0
 12 27  1  0  0  0  0
 13 21  1  0  0  0  0
 13 25  2  0  0  0  0
 14 22  1  0  0  0  0
 14 30  2  0  0  0  0
 15 27  2  0  0  0  0
 15 28  1  0  0  0  0
 16 29  1  0  0  0  0
 17 29  1  0  0  0  0
 17 32  2  0  0  0  0
 17 33  1  0  0  0  0
 18 20  2  0  0  0  0
 18 38  1  0  0  0  0
 19 21  2  0  0  0  0
 19 39  1  0  0  0  0
 20 47  1  0  0  0  0
 21 40  1  0  0  0  0
 22 23  2  0  0  0  0
 22 58  1  0  0  0  0
 23 31  1  0  0  0  0
 23 61  1  0  0  0  0
 24 81  1  0  0  0  0
 25 82  1  0  0  0  0
 26 28  2  0  0  0  0
 26 81  1  0  0  0  0
 27 84  1  0  0  0  0
 28 85  1  0  0  0  0
 29 65  2  0  0  0  0
 30 50  1  0  0  0  0
 30 66  1  0  0  0  0
 31 66  2  0  0  0  0
 31 83  1  0  0  0  0
 32 67  1  0  0  0  0
 32 70  1  0  0  0  0
 33 71  1  0  0  0  0
 33 76  2  0  0  0  0
 34 48  1  0  0  0  0
 34 72  1  0  0  0  0
 34 77  2  0  0  0  0
 35 62  1  0  0  0  0
 35 68  1  0  0  0  0
 35 78  2  0  0  0  0
 36 63  1  0  0  0  0
 36 73  1  0  0  0  0
 36 79  2  0  0  0  0
 37 69  1  0  0  0  0
 37 74  1  0  0  0  0
 37 80  2  0  0  0  0
 38 41  1  0  0  0  0
 39 48  1  0  0  0  0
 40 68  1  0  0  0  0
 41 43  1  0  0  0  0
 42 44  1  0  0  0  0
 42 45  1  0  0  0  0
 43 47  1  0  0  0  0
 44 49  1  0  0  0  0
 45 69  1  0  0  0  0
 46 49  1  0  0  0  0
 46 69  1  0  0  0  0
 47 72  1  0  0  0  0
 48 68  1  0  0  0  0
 49 67  1  0  0  0  0
 51 61  1  0  0  0  0
 52 61  1  0  0  0  0
 53 63  1  0  0  0  0
 54 64  1  0  0  0  0
 55 64  1  0  0  0  0
 56 64  1  0  0  0  0
 57 75  1  0  0  0  0
 58 82  1  0  0  0  0
 59 60  1  0  0  0  0
 59 74  1  0  0  0  0
 60 83  1  0  0  0  0
 62 64  1  0  0  0  0
 62 73  1  0  0  0  0
 63 75  1  0  0  0  0
 65 67  1  0  0  0  0
M  CHG  1  75   1
M  ISO  4  37 100  58 101  74 100  82 101
M  END
> <Batch ID>
0142

> <Smiles>
CNC(C)C(=O)NC(C(=O)N1Cc2cc([101O:1][101CH2:1]c3cc(C)nc(OCC[100NH:0][100C:0](=O)N4CCCC(n5nc(-c6ccc(Oc7ccc(F)cc7F)cc6)c(C(N)=O)c5N)C4)c3C(C)C)ccc2CC1C(=O)NC1CCCc2ccccc21)C(C)(C)C

> <Shape>
0.229

> <Color>
0.086

> <Negative vol penalty>
0.000

$$$$

  -OEChem-04052321183D

 83 92  0     1  0  0  0  0  0999 V2000
  -30.7619  -34.6052   24.1512 C   0  0  0  0  0  0  0  0  0  0  0  0
  -30.6807  -33.9692   22.9166 C   0  0  0  0  0  0  0  0  0  0  0  0
  -24.7078   -9.5231   21.7762 C   0  0  0  0  0  0  0  0  0  0  0  0
  -23.5049  -11.3705   22.7647 C   0  0  0  0  0  0  0  0  0  0  0  0
  -30.1240  -34.0536   25.2615 C   0  0  0  0  0  0  0  0  0  0  0  0
  -29.9624  -32.7805   22.7919 C   0  0  0  0  0  0  0  0  0  0  0  0
  -26.0524  -20.7106   17.7711 C   0  0  0  0  0  0  0  0  0  0  0  0
  -25.9329  -29.1580   18.1060 C   0  0  0  0  0  0  0  0  0  0  0  0
  -26.4106  -19.3976   18.0895 C   0  0  0  0  0  0  0  0  0  0  0  0
  -24.0924   -8.6450   22.6683 C   0  0  0  0  0  0  0  0  0  0  0  0
  -22.8894  -10.4924   23.6568 C   0  0  0  0  0  0  0  0  0  0  0  0
  -25.8330  -27.8967   17.5204 C   0  0  0  0  0  0  0  0  0  0  0  0
  -21.0962   -7.1103   22.9855 C   0  0  0  0  0  0  0  0  0  0  0  0
  -20.5911   -5.9150   22.4741 C   0  0  0  0  0  0  0  0  0  0  0  0
  -24.7057  -27.0782   19.4898 C   0  0  0  0  0  0  0  0  0  0  0  0
  -28.3607  -20.1786   19.3152 C   0  0  0  0  0  0  0  0  0  0  0  0
  -22.0582   -4.6699   23.9351 C   0  0  0  0  0  0  0  0  0  0  0  0
  -24.4141  -10.8858   21.8244 C   0  0  0  0  0  0  0  0  0  0  0  0
  -24.5876  -12.1743   19.6296 C   0  0  0  0  0  0  0  0  0  0  0  0
  -29.3895  -32.8627   25.1482 C   0  0  0  0  0  0  0  0  0  0  0  0
  -25.4288  -29.3864   19.3945 C   0  0  0  0  0  0  0  0  0  0  0  0
  -29.3152  -32.2117   23.9020 C   0  0  0  0  0  0  0  0  0  0  0  0
  -26.8624  -21.7389   18.2201 C   0  0  0  0  0  0  0  0  0  0  0  0
  -24.7982  -28.3440   20.0885 C   0  0  0  0  0  0  0  0  0  0  0  0
  -27.5564  -19.1336   18.8579 C   0  0  0  0  0  0  0  0  0  0  0  0
  -27.9950  -21.4671   18.9765 C   0  0  0  0  0  0  0  0  0  0  0  0
  -23.1832   -9.1296   23.6086 C   0  0  0  0  0  0  0  0  0  0  0  0
  -25.2219  -26.8558   18.2135 C   0  0  0  0  0  0  0  0  0  0  0  0
  -22.0824   -7.0855   23.9717 C   0  0  0  0  0  0  0  0  0  0  0  0
  -21.0721   -4.6948   22.9489 C   0  0  0  0  0  0  0  0  0  0  0  0
  -22.5633   -5.8653   24.4466 C   0  0  0  0  0  0  0  0  0  0  0  0
  -25.0499  -11.7935   20.9035 C   0  0  0  0  0  0  0  0  0  0  0  0
  -25.5419  -13.0457   19.1643 C   0  0  0  0  0  0  0  0  0  0  0  0
  -23.4015  -11.7761   18.9294 C   0  0  0  0  0  0  0  0  0  0  0  0
  -26.6947  -30.2607   22.1760 C   0  0  0  0  0  0  0  0  0  0  0  0
  -23.5920  -30.3415   23.1189 C   0  0  0  0  0  0  0  0  0  0  0  0
  -20.3918  -29.2530   22.6489 C   0  0  0  0  0  0  0  0  0  0  0  0
  -28.9875  -17.3536   19.9209 C   0  0  0  0  0  0  0  0  0  0  0  0
  -28.7565  -32.2796   26.3868 C   0  0  0  0  0  0  0  0  0  0  0  0
  -25.5206  -30.7596   20.0014 C   0  0  0  0  0  0  0  0  0  0  0  0
  -24.2227  -28.5426   21.4661 C   0  0  0  0  0  0  0  0  0  0  0  0
  -27.7033  -31.2154   26.0892 C   0  0  0  0  0  0  0  0  0  0  0  0
  -30.1470  -14.1492   20.9525 C   0  0  0  0  0  0  0  0  0  0  0  0
  -28.2214  -30.2280   25.0483 C   0  0  0  0  0  0  0  0  0  0  0  0
  -28.8862  -13.2820   20.9270 C   0  0  0  0  0  0  0  0  0  0  0  0
  -29.8477  -15.5712   21.4236 C   0  0  0  0  0  0  0  0  0  0  0  0
  -27.5099  -15.3858   20.6690 C   0  0  0  0  0  0  0  0  0  0  0  0
  -28.1186  -23.6317   18.5195 C   0  0  0  0  0  0  0  0  0  0  0  0
  -26.7027  -23.2115   18.0999 C   0  0  1  0  0  0  0  0  0  0  0  0
  -28.5249  -30.9339   23.7213 C   0  0  1  0  0  0  0  0  0  0  0  0
  -25.4311  -30.7469   21.5243 C   0  0  1  0  0  0  0  0  0  0  0  0
  -27.7499  -13.9627   20.1390 C   0  0  2  0  0  0  0  0  0  0  0  0
  -18.0794  -29.4641   23.6006 C   0  0  0  0  0  0  0  0  0  0  0  0
  -27.3578  -23.3062   15.6891 C   0  0  0  0  0  0  0  0  0  0  0  0
  -24.3741  -28.4986   25.4216 C   0  0  0  0  0  0  0  0  0  0  0  0
  -21.9443  -27.9918   25.7493 C   0  0  0  0  0  0  0  0  0  0  0  0
  -22.7806  -30.3238   26.0412 C   0  0  0  0  0  0  0  0  0  0  0  0
  -19.3317  -30.3831   20.1274 C   0  0  0  0  0  0  0  0  0  0  0  0
  -26.1494  -25.2486   16.7259 C   0  0  0  0  0  0  0  0  0  1  0  0
  -22.6297  -29.3431   23.7158 C   0  0  1  0  0  0  0  0  0  0  0  0
  -19.0728  -30.0015   22.5822 C   0  0  2  0  0  0  0  0  0  0  0  0
  -26.3171  -23.7268   16.7246 C   0  0  2  0  0  0  0  0  0  0  0  0
  -22.9446  -29.0347   25.2068 C   0  0  0  0  0  0  0  0  0  0  0  0
  -26.2080  -12.3751   21.2269 N   0  0  0  0  0  0  0  0  0  0  0  0
  -26.4814  -13.1303   20.1494 N   0  0  0  0  0  0  0  0  0  0  0  0
  -24.3427  -29.9016   22.0195 N   0  0  0  0  0  0  0  0  0  0  0  0
  -28.7641  -16.1539   20.6291 N   0  0  0  0  0  0  0  0  0  0  0  0
  -25.6607  -13.7401   18.0128 N   0  0  0  0  0  0  0  0  0  0  0  0
  -22.5290  -10.8735   19.5526 N   0  0  0  0  0  0  0  0  0  0  0  0
  -27.8951  -17.7947   19.1748 N   0  0  0  0  0  0  0  0  0  0  0  0
  -27.3002  -31.1941   22.9955 N   0  0  0  0  0  0  0  0  0  0  0  0
  -21.2919  -29.8779   23.4859 N   0  0  0  0  0  0  0  0  0  0  0  0
  -18.4713  -29.8712   21.2249 N   0  3  0  0  0  0  0  0  0  0  0  0
  -23.1319  -12.1951   17.7782 O   0  0  0  0  0  0  0  0  0  0  0  0
  -27.0901  -29.1225   21.9530 O   0  0  0  0  0  0  0  0  0  0  0  0
  -23.6693  -31.4723   23.6057 O   0  0  0  0  0  0  0  0  0  0  0  0
  -20.6013  -28.2156   22.0240 O   0  0  0  0  0  0  0  0  0  0  0  0
  -30.0770  -17.9316   19.9508 O   0  0  0  0  0  0  0  0  0  0  0  0
  -28.6823  -22.5929   19.3561 O   0  0  0  0  0  0  0  0  0  0  0  0
  -22.5823   -8.2731   24.4791 O   0  0  0  0  0  0  0  0  0  0  0  0
  -25.1237  -25.6236   17.6445 O   0  0  0  0  0  0  0  0  0  1  0  0
  -20.5858   -3.5469   22.4587 F   0  0  0  0  0  0  0  0  0  0  0  0
  -23.5098   -5.8351   25.3948 F   0  0  0  0  0  0  0  0  0  0  0  0
  1  2  1  0  0  0  0
  1  5  2  0  0  0  0
  2  6  2  0  0  0  0
  3 10  2  0  0  0  0
  3 18  1  0  0  0  0
  4 11  1  0  0  0  0
  4 18  2  0  0  0  0
  5 20  1  0  0  0  0
  6 22  1  0  0  0  0
  7  9  2  0  0  0  0
  7 23  1  0  0  0  0
  8 12  2  0  0  0  0
  8 21  1  0  0  0  0
  9 25  1  0  0  0  0
 10 27  1  0  0  0  0
 11 27  2  0  0  0  0
 12 28  1  0  0  0  0
 13 14  2  0  0  0  0
 13 29  1  0  0  0  0
 14 30  1  0  0  0  0
 15 24  1  0  0  0  0
 15 28  2  0  0  0  0
 16 25  2  0  0  0  0
 16 26  1  0  0  0  0
 17 30  2  0  0  0  0
 17 31  1  0  0  0  0
 18 32  1  0  0  0  0
 19 32  1  0  0  0  0
 19 33  2  0  0  0  0
 19 34  1  0  0  0  0
 20 22  2  0  0  0  0
 20 39  1  0  0  0  0
 21 24  2  0  0  0  0
 21 40  1  0  0  0  0
 22 50  1  0  0  0  0
 23 26  2  0  0  0  0
 23 49  1  0  0  0  0
 24 41  1  0  0  0  0
 25 70  1  0  0  0  0
 26 79  1  0  0  0  0
 27 80  1  0  0  0  0
 28 81  1  0  0  0  0
 29 31  2  0  0  0  0
 29 80  1  0  0  0  0
 30 82  1  0  0  0  0
 31 83  1  0  0  0  0
 32 64  2  0  0  0  0
 33 65  1  0  0  0  0
 33 68  1  0  0  0  0
 34 69  1  0  0  0  0
 34 74  2  0  0  0  0
 35 51  1  0  0  0  0
 35 71  1  0  0  0  0
 35 75  2  0  0  0  0
 36 60  1  0  0  0  0
 36 66  1  0  0  0  0
 36 76  2  0  0  0  0
 37 61  1  0  0  0  0
 37 72  1  0  0  0  0
 37 77  2  0  0  0  0
 38 67  1  0  0  0  0
 38 70  1  0  0  0  0
 38 78  2  0  0  0  0
 39 42  1  0  0  0  0
 40 51  1  0  0  0  0
 41 66  1  0  0  0  0
 42 44  1  0  0  0  0
 43 45  1  0  0  0  0
 43 46  1  0  0  0  0
 44 50  1  0  0  0  0
 45 52  1  0  0  0  0
 46 67  1  0  0  0  0
 47 52  1  0  0  0  0
 47 67  1  0  0  0  0
 48 49  1  0  0  0  0
 48 79  1  0  0  0  0
 49 62  1  0  0  0  0
 50 71  1  0  0  0  0
 51 66  1  0  0  0  0
 52 65  1  0  0  0  0
 53 61  1  0  0  0  0
 54 62  1  0  0  0  0
 55 63  1  0  0  0  0
 56 63  1  0  0  0  0
 57 63  1  0  0  0  0
 58 73  1  0  0  0  0
 59 62  1  0  0  0  0
 59 81  1  0  0  0  0
 60 63  1  0  0  0  0
 60 72  1  0  0  0  0
 61 73  1  0  0  0  0
 64 65  1  0  0  0  0
M  CHG  1  73   1
M  ISO  4  38 100  59 101  70 100  81 101
M  END
> <Batch ID>
0142

> <Smiles>
CNC(C)C(=O)NC(C(=O)N1Cc2cc([101O:1][101CH2:1]C(C)C3COc4cc([100NH:0][100C:0](=O)N5CCCC(n6nc(-c7ccc(Oc8ccc(F)cc8F)cc7)c(C(N)=O)c6N)C5)ccc43)ccc2CC1C(=O)NC1CCCc2ccccc21)C(C)(C)C

> <Shape>
0.280

> <Color>
0.093

> <Negative vol penalty>
0.000

$$$$

  -OEChem-04052321183D

 86 96  0     1  0  0  0  0  0999 V2000
  -21.7952  -12.2322   19.4918 C   0  0  0  0  0  0  0  0  0  0  0  0
  -21.6558  -13.4976   20.0528 C   0  0  0  0  0  0  0  0  0  0  0  0
  -24.4989  -26.5523   15.3902 C   0  0  0  0  0  0  0  0  0  0  0  0
  -26.8681  -26.2783   15.7758 C   0  0  0  0  0  0  0  0  0  0  0  0
  -23.0351  -11.5948   19.5120 C   0  0  0  0  0  0  0  0  0  0  0  0
  -22.7559  -14.1259   20.6354 C   0  0  0  0  0  0  0  0  0  0  0  0
  -19.3239  -23.4580   24.3774 C   0  0  0  0  0  0  0  0  0  0  0  0
  -23.1463  -18.9945   19.2974 C   0  0  0  0  0  0  0  0  0  0  0  0
  -20.3052  -22.6346   23.8256 C   0  0  0  0  0  0  0  0  0  0  0  0
  -24.7052  -26.4055   14.0185 C   0  0  0  0  0  0  0  0  0  0  0  0
  -27.0744  -26.1315   14.4041 C   0  0  0  0  0  0  0  0  0  0  0  0
  -22.3002  -19.9001   19.9359 C   0  0  0  0  0  0  0  0  0  0  0  0
  -25.2252  -23.8773   11.8343 C   0  0  0  0  0  0  0  0  0  0  0  0
  -24.3539  -23.0436   11.1333 C   0  0  0  0  0  0  0  0  0  0  0  0
  -21.6321  -24.5794   23.2833 C   0  0  0  0  0  0  0  0  0  0  0  0
  -24.1042  -20.5419   21.4032 C   0  0  0  0  0  0  0  0  0  0  0  0
  -23.6891  -24.9058    9.7450 C   0  0  0  0  0  0  0  0  0  0  0  0
  -25.5804  -26.4888   16.2689 C   0  0  0  0  0  0  0  0  0  0  0  0
  -25.0985  -25.6222   18.6193 C   0  0  0  0  0  0  0  0  0  0  0  0
  -24.1532  -12.2197   20.0865 C   0  0  0  0  0  0  0  0  0  0  0  0
  -24.4770  -18.8477   19.7149 C   0  0  0  0  0  0  0  0  0  0  0  0
  -19.4966  -24.8422   24.3821 C   0  0  0  0  0  0  0  0  0  0  0  0
  -24.0116  -13.4957   20.6644 C   0  0  0  0  0  0  0  0  0  0  0  0
  -20.6507  -25.4029   23.8351 C   0  0  0  0  0  0  0  0  0  0  0  0
  -24.9659  -19.6355   20.7667 C   0  0  0  0  0  0  0  0  0  0  0  0
  -21.4594  -23.1953   23.2786 C   0  0  0  0  0  0  0  0  0  0  0  0
  -25.9929  -26.1950   13.5255 C   0  0  0  0  0  0  0  0  0  0  0  0
  -22.7782  -20.6719   20.9909 C   0  0  0  0  0  0  0  0  0  0  0  0
  -25.3284  -25.2253   11.4907 C   0  0  0  0  0  0  0  0  0  0  0  0
  -23.5858  -23.5579   10.0887 C   0  0  0  0  0  0  0  0  0  0  0  0
  -24.5604  -25.7395   10.4460 C   0  0  0  0  0  0  0  0  0  0  0  0
  -25.3680  -26.6409   17.6859 C   0  0  0  0  0  0  0  0  0  0  0  0
  -24.9799  -26.2789   19.8197 C   0  0  0  0  0  0  0  0  0  0  0  0
  -24.9671  -24.2085   18.4191 C   0  0  0  0  0  0  0  0  0  0  0  0
  -26.2025  -16.4609   20.9106 C   0  0  0  0  0  0  0  0  0  0  0  0
  -28.6379  -18.5799   20.5937 C   0  0  0  0  0  0  0  0  0  0  0  0
  -29.6352  -21.8366   20.3781 C   0  0  0  0  0  0  0  0  0  0  0  0
  -23.2107  -30.4037   22.9454 C   0  0  0  0  0  0  0  0  0  0  0  0
  -25.4621  -11.4714   20.1267 C   0  0  0  0  0  0  0  0  0  0  0  0
  -25.3844  -17.8856   18.9983 C   0  0  0  0  0  0  0  0  0  0  0  0
  -26.3919  -19.5304   21.2397 C   0  0  0  0  0  0  0  0  0  0  0  0
  -26.6640  -12.3624   20.4296 C   0  0  0  0  0  0  0  0  0  0  0  0
  -26.0675  -31.0412   21.1060 C   0  0  0  0  0  0  0  0  0  0  0  0
  -18.5632  -26.1346   26.4149 C   0  0  0  0  0  0  0  0  0  0  0  0
  -17.5273  -25.1245   26.0316 C   0  0  0  0  0  0  0  0  0  0  0  0
  -26.3607  -13.2867   21.6046 C   0  0  0  0  0  0  0  0  0  0  0  0
  -26.1316  -29.8737   20.1212 C   0  0  0  0  0  0  0  0  0  0  0  0
  -22.0954  -27.3163   24.6540 C   0  0  0  0  0  0  0  0  0  0  0  0
  -20.9565  -27.4678   22.3999 C   0  0  0  0  0  0  0  0  0  0  0  0
  -24.6364  -31.5407   21.2691 C   0  0  0  0  0  0  0  0  0  0  0  0
  -22.3139  -28.8270   24.6194 C   0  0  0  0  0  0  0  0  0  0  0  0
  -21.1989  -28.9743   22.4169 C   0  0  0  0  0  0  0  0  0  0  0  0
  -23.7258  -29.3086   20.7188 C   0  0  0  0  0  0  0  0  0  0  0  0
  -18.4334  -25.7042   24.9782 C   0  0  0  0  0  0  0  0  0  0  0  0
  -20.8635  -26.9051   23.8292 C   0  0  0  0  0  0  0  0  0  0  0  0
  -25.1872  -14.2202   21.2835 C   0  0  1  0  0  0  0  0  0  0  0  0
  -26.5778  -17.4485   19.8422 C   0  0  1  0  0  0  0  0  0  0  0  0
  -25.1524  -28.7571   20.5244 C   0  0  1  0  0  0  0  0  0  0  0  0
  -31.6931  -23.2565   20.1632 C   0  0  0  0  0  0  0  0  0  0  0  0
  -29.2778  -18.0939   23.5372 C   0  0  0  0  0  0  0  0  0  0  0  0
  -30.6678  -20.1760   23.5070 C   0  0  0  0  0  0  0  0  0  0  0  0
  -31.2797  -18.2486   22.0463 C   0  0  0  0  0  0  0  0  0  0  0  0
  -28.7227  -22.9734   17.8025 C   0  0  0  0  0  0  0  0  0  0  0  0
  -22.5092  -22.3147   22.6893 C   0  0  0  0  0  0  0  0  0  1  0  0
  -29.2507  -19.6436   21.4724 C   0  0  1  0  0  0  0  0  0  0  0  0
  -30.5776  -22.5401   19.4182 C   0  0  2  0  0  0  0  0  0  0  0  0
  -30.0915  -19.0413   22.6333 C   0  0  0  0  0  0  0  0  0  0  0  0
  -25.4176  -27.8528   18.2452 N   0  0  0  0  0  0  0  0  0  0  0  0
  -25.1776  -27.5998   19.5431 N   0  0  0  0  0  0  0  0  0  0  0  0
  -27.2383  -18.5710   20.5113 N   0  0  0  0  0  0  0  0  0  0  0  0
  -23.7373  -30.4501   21.6456 N   0  0  0  0  0  0  0  0  0  0  0  0
  -22.3589  -29.3281   23.2462 N   0  0  0  0  0  0  0  0  0  0  0  0
  -24.7268  -25.8497   21.0743 N   0  0  0  0  0  0  0  0  0  0  0  0
  -25.1188  -23.7005   17.1217 N   0  0  0  0  0  0  0  0  0  0  0  0
  -25.6223  -15.3033   20.4280 N   0  0  0  0  0  0  0  0  0  0  0  0
  -30.0024  -20.5236   20.5842 N   0  0  0  0  0  0  0  0  0  0  0  0
  -29.8346  -23.5443   18.6056 N   0  3  0  0  0  0  0  0  0  0  0  0
  -24.7063  -23.4212   19.3602 O   0  0  0  0  0  0  0  0  0  0  0  0
  -26.4242  -16.7287   22.0857 O   0  0  0  0  0  0  0  0  0  0  0  0
  -29.3743  -17.7907   19.9967 O   0  0  0  0  0  0  0  0  0  0  0  0
  -28.6719  -22.3969   20.8965 O   0  0  0  0  0  0  0  0  0  0  0  0
  -23.4872  -31.2657   23.7889 O   0  0  0  0  0  0  0  0  0  0  0  0
  -26.1945  -26.0515   12.1871 O   0  0  0  0  0  0  0  0  0  0  0  0
  -21.9486  -21.5622   21.6206 O   0  0  0  0  0  0  0  0  0  1  0  0
  -22.7503  -22.7568    9.4146 F   0  0  0  0  0  0  0  0  0  0  0  0
  -24.6561  -27.0334   10.1106 F   0  0  0  0  0  0  0  0  0  0  0  0
  1  2  1  0  0  0  0
  1  5  2  0  0  0  0
  2  6  2  0  0  0  0
  3 10  2  0  0  0  0
  3 18  1  0  0  0  0
  4 11  1  0  0  0  0
  4 18  2  0  0  0  0
  5 20  1  0  0  0  0
  6 23  1  0  0  0  0
  7  9  2  0  0  0  0
  7 22  1  0  0  0  0
  8 12  2  0  0  0  0
  8 21  1  0  0  0  0
  9 26  1  0  0  0  0
 10 27  1  0  0  0  0
 11 27  2  0  0  0  0
 12 28  1  0  0  0  0
 13 14  2  0  0  0  0
 13 29  1  0  0  0  0
 14 30  1  0  0  0  0
 15 24  1  0  0  0  0
 15 26  2  0  0  0  0
 16 25  1  0  0  0  0
 16 28  2  0  0  0  0
 17 30  2  0  0  0  0
 17 31  1  0  0  0  0
 18 32  1  0  0  0  0
 19 32  1  0  0  0  0
 19 33  2  0  0  0  0
 19 34  1  0  0  0  0
 20 23  2  0  0  0  0
 20 39  1  0  0  0  0
 21 25  2  0  0  0  0
 21 40  1  0  0  0  0
 22 24  2  0  0  0  0
 22 54  1  0  0  0  0
 23 56  1  0  0  0  0
 24 55  1  0  0  0  0
 25 41  1  0  0  0  0
 26 64  1  0  0  0  0
 27 83  1  0  0  0  0
 28 84  1  0  0  0  0
 29 31  2  0  0  0  0
 29 83  1  0  0  0  0
 30 85  1  0  0  0  0
 31 86  1  0  0  0  0
 32 68  2  0  0  0  0
 33 69  1  0  0  0  0
 33 73  1  0  0  0  0
 34 74  1  0  0  0  0
 34 78  2  0  0  0  0
 35 57  1  0  0  0  0
 35 75  1  0  0  0  0
 35 79  2  0  0  0  0
 36 65  1  0  0  0  0
 36 70  1  0  0  0  0
 36 80  2  0  0  0  0
 37 66  1  0  0  0  0
 37 76  1  0  0  0  0
 37 81  2  0  0  0  0
 38 71  1  0  0  0  0
 38 72  1  0  0  0  0
 38 82  2  0  0  0  0
 39 42  1  0  0  0  0
 40 57  1  0  0  0  0
 41 70  1  0  0  0  0
 42 46  1  0  0  0  0
 43 47  1  0  0  0  0
 43 50  1  0  0  0  0
 44 45  1  0  0  0  0
 44 54  1  0  0  0  0
 45 54  1  0  0  0  0
 46 56  1  0  0  0  0
 47 58  1  0  0  0  0
 48 51  1  0  0  0  0
 48 55  1  0  0  0  0
 49 52  1  0  0  0  0
 49 55  1  0  0  0  0
 50 71  1  0  0  0  0
 51 72  1  0  0  0  0
 52 72  1  0  0  0  0
 53 58  1  0  0  0  0
 53 71  1  0  0  0  0
 56 75  1  0  0  0  0
 57 70  1  0  0  0  0
 58 69  1  0  0  0  0
 59 66  1  0  0  0  0
 60 67  1  0  0  0  0
 61 67  1  0  0  0  0
 62 67  1  0  0  0  0
 63 77  1  0  0  0  0
 64 84  1  0  0  0  0
 65 67  1  0  0  0  0
 65 76  1  0  0  0  0
 66 77  1  0  0  0  0
 68 69  1  0  0  0  0
M  CHG  1  77   1
M  ISO  4  38 100  64 101  72 100  84 101
M  END
> <Batch ID>
0142

> <Smiles>
CNC(C)C(=O)NC(C(=O)N1Cc2cc([101O:1][101CH2:1]c3ccc(C4CC4)c(C4CC[100N:0]([100C:0](=O)N5CCCC(n6nc(-c7ccc(Oc8ccc(F)cc8F)cc7)c(C(N)=O)c6N)C5)CC4)c3)ccc2CC1C(=O)NC1CCCc2ccccc21)C(C)(C)C

> <Shape>
0.195

> <Color>
0.075

> <Negative vol penalty>
0.000

$$$$

  -OEChem-04052321183D

 90 99  0     1  0  0  0  0  0999 V2000
  -22.1598  -33.7850   25.4910 C   0  0  0  0  0  0  0  0  0  0  0  0
  -23.2548  -33.0473   25.0527 C   0  0  0  0  0  0  0  0  0  0  0  0
  -23.4523   -9.9365   19.8035 C   0  0  0  0  0  0  0  0  0  0  0  0
  -24.4713   -9.6653   21.9772 C   0  0  0  0  0  0  0  0  0  0  0  0
  -20.8781  -33.2418   25.4126 C   0  0  0  0  0  0  0  0  0  0  0  0
  -23.0688  -31.7653   24.5366 C   0  0  0  0  0  0  0  0  0  0  0  0
  -26.2525  -29.1149   20.0260 C   0  0  0  0  0  0  0  0  0  0  0  0
  -22.9883   -8.6222   19.8570 C   0  0  0  0  0  0  0  0  0  0  0  0
  -24.0072   -8.3509   22.0308 C   0  0  0  0  0  0  0  0  0  0  0  0
  -27.3139  -28.2110   20.0328 C   0  0  0  0  0  0  0  0  0  0  0  0
  -21.1003   -6.7628   22.7000 C   0  0  0  0  0  0  0  0  0  0  0  0
  -20.5158   -6.3315   23.8907 C   0  0  0  0  0  0  0  0  0  0  0  0
  -25.7565  -26.3894   19.7579 C   0  0  0  0  0  0  0  0  0  0  0  0
  -34.1011  -20.6974   21.9765 C   0  0  0  0  0  0  0  0  0  0  0  0
  -32.1803  -20.6751   23.4417 C   0  0  0  0  0  0  0  0  0  0  0  0
  -31.8737  -20.5906   21.0468 C   0  0  0  0  0  0  0  0  0  0  0  0
  -22.1976   -4.6086   24.0922 C   0  0  0  0  0  0  0  0  0  0  0  0
  -24.1938  -10.4580   20.8636 C   0  0  0  0  0  0  0  0  0  0  0  0
  -24.0107  -12.9708   21.2639 C   0  0  0  0  0  0  0  0  0  0  0  0
  -20.6753  -31.9562   24.8863 C   0  0  0  0  0  0  0  0  0  0  0  0
  -24.9320  -28.6612   19.8959 C   0  0  0  0  0  0  0  0  0  0  0  0
  -21.7834  -31.2038   24.4523 C   0  0  0  0  0  0  0  0  0  0  0  0
  -24.6803  -27.2898   19.7472 C   0  0  0  0  0  0  0  0  0  0  0  0
  -33.5630  -20.7182   23.2632 C   0  0  0  0  0  0  0  0  0  0  0  0
  -33.2564  -20.6336   20.8683 C   0  0  0  0  0  0  0  0  0  0  0  0
  -31.3356  -20.6113   22.3335 C   0  0  0  0  0  0  0  0  0  0  0  0
  -23.2657   -7.8294   20.9706 C   0  0  0  0  0  0  0  0  0  0  0  0
  -27.0658  -26.8478   19.9016 C   0  0  0  0  0  0  0  0  0  0  0  0
  -22.2334   -6.1170   22.2052 C   0  0  0  0  0  0  0  0  0  0  0  0
  -21.0645   -5.2544   24.5869 C   0  0  0  0  0  0  0  0  0  0  0  0
  -22.7821   -5.0400   22.9013 C   0  0  0  0  0  0  0  0  0  0  0  0
  -24.6739  -11.8155   20.8087 C   0  0  0  0  0  0  0  0  0  0  0  0
  -24.8795  -13.9975   20.9857 C   0  0  0  0  0  0  0  0  0  0  0  0
  -22.7244  -13.1039   21.8830 C   0  0  0  0  0  0  0  0  0  0  0  0
  -22.3294  -28.7806   21.7168 C   0  0  0  0  0  0  0  0  0  0  0  0
  -20.9151  -27.4808   19.1029 C   0  0  0  0  0  0  0  0  0  0  0  0
  -21.2457  -25.6705   16.2288 C   0  0  0  0  0  0  0  0  0  0  0  0
  -30.0331  -16.1389   20.9560 C   0  0  0  0  0  0  0  0  0  0  0  0
  -19.2765  -31.3927   24.8654 C   0  0  0  0  0  0  0  0  0  0  0  0
  -23.8002  -29.6513   19.8635 C   0  0  0  0  0  0  0  0  0  0  0  0
  -23.2825  -26.7532   19.5842 C   0  0  0  0  0  0  0  0  0  0  0  0
  -19.1243  -30.1740   23.9590 C   0  0  0  0  0  0  0  0  0  0  0  0
  -29.1069  -14.0720   18.2089 C   0  0  0  0  0  0  0  0  0  0  0  0
  -20.2628  -29.1869   24.1960 C   0  0  0  0  0  0  0  0  0  0  0  0
  -27.8204  -13.3918   18.6803 C   0  0  0  0  0  0  0  0  0  0  0  0
  -28.7680  -24.7378   23.5002 C   0  0  0  0  0  0  0  0  0  0  0  0
  -30.1023  -14.2516   19.3529 C   0  0  0  0  0  0  0  0  0  0  0  0
  -28.2781  -14.2644   21.0101 C   0  0  0  0  0  0  0  0  0  0  0  0
  -28.8728  -23.2525   23.8791 C   0  0  0  0  0  0  0  0  0  0  0  0
  -21.6196  -29.8194   23.8634 C   0  0  1  0  0  0  0  0  0  0  0  0
  -22.4566  -29.0354   20.2415 C   0  0  1  0  0  0  0  0  0  0  0  0
  -27.2209  -14.1120   19.9031 C   0  0  2  0  0  0  0  0  0  0  0  0
  -28.9728  -24.2581   22.0478 C   0  0  1  0  0  0  0  0  0  0  0  0
  -34.4667  -20.7860   24.4478 C   0  0  0  0  0  0  0  0  0  0  0  0
  -33.8312  -20.6110   19.4922 C   0  0  0  0  0  0  0  0  0  0  0  0
  -19.9058  -24.7385   14.3227 C   0  0  0  0  0  0  0  0  0  0  0  0
  -27.6837  -19.1922   22.0983 C   0  0  0  0  0  0  0  0  0  0  0  0
  -19.8661  -25.2694   20.9247 C   0  0  0  0  0  0  0  0  0  0  0  0
  -19.3741  -23.9130   18.8787 C   0  0  0  0  0  0  0  0  0  0  0  0
  -18.2200  -26.0959   19.2330 C   0  0  0  0  0  0  0  0  0  0  0  0
  -22.7570  -27.2564   14.2389 C   0  0  0  0  0  0  0  0  0  0  0  0
  -29.9296  -25.0609   21.1902 C   0  0  0  0  0  0  0  0  0  0  0  0
  -29.8224  -17.9698   22.6181 C   0  0  0  0  0  0  0  0  0  0  0  0
  -29.1488  -21.8112   21.9194 C   0  0  0  0  0  0  0  0  0  0  0  0
  -29.2552  -26.3206   20.6663 C   0  0  0  0  0  0  0  0  0  1  0  0
  -29.8226  -20.5643   22.5293 C   0  0  1  0  0  0  0  0  0  0  0  0
  -20.6696  -26.0761   18.6075 C   0  0  1  0  0  0  0  0  0  0  0  0
  -20.7330  -25.9134   14.8208 C   0  0  2  0  0  0  0  0  0  0  0  0
  -29.2146  -19.2336   21.9701 C   0  0  2  0  0  0  0  0  0  0  0  0
  -19.5588  -25.3482   19.4160 C   0  0  0  0  0  0  0  0  0  0  0  0
  -25.8716  -12.0825   20.2811 N   0  0  0  0  0  0  0  0  0  0  0  0
  -25.9678  -13.4174   20.4031 N   0  0  0  0  0  0  0  0  0  0  0  0
  -22.2089  -27.7606   19.5651 N   0  0  0  0  0  0  0  0  0  0  0  0
  -29.4716  -14.9424   20.4803 N   0  0  0  0  0  0  0  0  0  0  0  0
  -24.8111  -15.3310   21.1849 N   0  0  0  0  0  0  0  0  0  0  0  0
  -21.9621  -11.9471   22.0952 N   0  0  0  0  0  0  0  0  0  0  0  0
  -21.8252  -29.8506   22.4312 N   0  0  0  0  0  0  0  0  0  0  0  0
  -20.3925  -26.1894   17.1796 N   0  0  0  0  0  0  0  0  0  0  0  0
  -29.3696  -16.7323   22.0230 N   0  0  0  0  0  0  0  0  0  0  0  0
  -29.6014  -23.0382   22.6121 N   0  3  2  0  0  0  0  0  0  0  0  0
  -21.8728  -26.1171   13.8825 N   0  3  0  0  0  0  0  0  0  0  0  0
  -22.2576  -14.2176   22.2226 O   0  0  0  0  0  0  0  0  0  0  0  0
  -22.6626  -27.6931   22.1730 O   0  0  0  0  0  0  0  0  0  0  0  0
  -19.9948  -28.3017   19.0739 O   0  0  0  0  0  0  0  0  0  0  0  0
  -22.2960  -25.0764   16.4620 O   0  0  0  0  0  0  0  0  0  0  0  0
  -31.0472  -16.6439   20.4627 O   0  0  0  0  0  0  0  0  0  0  0  0
  -22.8129   -6.5469   21.0233 O   0  0  0  0  0  0  0  0  0  0  0  0
  -28.1000  -25.9633   19.9086 O   0  0  0  0  0  0  0  0  0  1  0  0
  -20.5040   -4.8413   25.7311 F   0  0  0  0  0  0  0  0  0  0  0  0
  -23.8712   -4.4163   22.4316 F   0  0  0  0  0  0  0  0  0  0  0  0
  1  2  1  0  0  0  0
  1  5  2  0  0  0  0
  2  6  2  0  0  0  0
  3  8  2  0  0  0  0
  3 18  1  0  0  0  0
  4  9  1  0  0  0  0
  4 18  2  0  0  0  0
  5 20  1  0  0  0  0
  6 22  1  0  0  0  0
  7 10  2  0  0  0  0
  7 21  1  0  0  0  0
  8 27  1  0  0  0  0
  9 27  2  0  0  0  0
 10 28  1  0  0  0  0
 11 12  2  0  0  0  0
 11 29  1  0  0  0  0
 12 30  1  0  0  0  0
 13 23  1  0  0  0  0
 13 28  2  0  0  0  0
 14 24  1  0  0  0  0
 14 25  2  0  0  0  0
 15 24  2  0  0  0  0
 15 26  1  0  0  0  0
 16 25  1  0  0  0  0
 16 26  2  0  0  0  0
 17 30  2  0  0  0  0
 17 31  1  0  0  0  0
 18 32  1  0  0  0  0
 19 32  1  0  0  0  0
 19 33  2  0  0  0  0
 19 34  1  0  0  0  0
 20 22  2  0  0  0  0
 20 39  1  0  0  0  0
 21 23  2  0  0  0  0
 21 40  1  0  0  0  0
 22 50  1  0  0  0  0
 23 41  1  0  0  0  0
 24 54  1  0  0  0  0
 25 55  1  0  0  0  0
 26 66  1  0  0  0  0
 27 87  1  0  0  0  0
 28 88  1  0  0  0  0
 29 31  2  0  0  0  0
 29 87  1  0  0  0  0
 30 89  1  0  0  0  0
 31 90  1  0  0  0  0
 32 71  2  0  0  0  0
 33 72  1  0  0  0  0
 33 75  1  0  0  0  0
 34 76  1  0  0  0  0
 34 82  2  0  0  0  0
 35 51  1  0  0  0  0
 35 77  1  0  0  0  0
 35 83  2  0  0  0  0
 36 67  1  0  0  0  0
 36 73  1  0  0  0  0
 36 84  2  0  0  0  0
 37 68  1  0  0  0  0
 37 78  1  0  0  0  0
 37 85  2  0  0  0  0
 38 74  1  0  0  0  0
 38 79  1  0  0  0  0
 38 86  2  0  0  0  0
 39 42  1  0  0  0  0
 40 51  1  0  0  0  0
 41 73  1  0  0  0  0
 42 44  1  0  0  0  0
 43 45  1  0  0  0  0
 43 47  1  0  0  0  0
 44 50  1  0  0  0  0
 45 52  1  0  0  0  0
 46 49  1  0  0  0  0
 46 53  1  0  0  0  0
 47 74  1  0  0  0  0
 48 52  1  0  0  0  0
 48 74  1  0  0  0  0
 49 80  1  0  0  0  0
 50 77  1  0  0  0  0
 51 73  1  0  0  0  0
 52 72  1  0  0  0  0
 53 62  1  0  0  0  0
 53 80  1  0  0  0  0
 56 68  1  0  0  0  0
 57 69  1  0  0  0  0
 58 70  1  0  0  0  0
 59 70  1  0  0  0  0
 60 70  1  0  0  0  0
 61 81  1  0  0  0  0
 62 65  1  0  0  0  0
 63 69  1  0  0  0  0
 63 79  1  0  0  0  0
 64 66  1  0  0  0  0
 64 80  1  0  0  0  0
 65 88  1  0  0  0  0
 66 69  1  0  0  0  0
 67 70  1  0  0  0  0
 67 78  1  0  0  0  0
 68 81  1  0  0  0  0
 71 72  1  0  0  0  0
M  CHG  2  80   1  81   1
M  ISO  4  38 100  65 101  79 100  88 101
M  END
> <Batch ID>
0142

> <Smiles>
CNC(C)C(=O)NC(C(=O)N1Cc2cc([101O:1][101CH2:1]CC3CCN3CC(c3cc(C)cc(C)c3)C(C)C[100NH:0][100C:0](=O)N3CCCC(n4nc(-c5ccc(Oc6ccc(F)cc6F)cc5)c(C(N)=O)c4N)C3)ccc2CC1C(=O)NC1CCCc2ccccc21)C(C)(C)C

> <Shape>
0.276

> <Color>
0.134

> <Negative vol penalty>
0.000

$$$$

  -OEChem-04052321183D

 88 97  0     1  0  0  0  0  0999 V2000
  -35.8246   -9.5118   22.0561 C   0  0  0  0  0  0  0  0  0  0  0  0
  -35.8263  -10.8775   22.3209 C   0  0  0  0  0  0  0  0  0  0  0  0
  -24.5119  -26.5056   21.4189 C   0  0  0  0  0  0  0  0  0  0  0  0
  -23.7929  -26.9914   19.1641 C   0  0  0  0  0  0  0  0  0  0  0  0
  -34.9627   -8.9909   21.0918 C   0  0  0  0  0  0  0  0  0  0  0  0
  -34.9668  -11.7234   21.6208 C   0  0  0  0  0  0  0  0  0  0  0  0
  -31.1529  -17.7313   22.4427 C   0  0  0  0  0  0  0  0  0  0  0  0
  -24.3098  -25.1446   21.1902 C   0  0  0  0  0  0  0  0  0  0  0  0
  -23.5908  -25.6303   18.9353 C   0  0  0  0  0  0  0  0  0  0  0  0
  -30.9532  -18.9715   21.8379 C   0  0  0  0  0  0  0  0  0  0  0  0
  -23.6397  -21.5726   21.3149 C   0  0  0  0  0  0  0  0  0  0  0  0
  -22.9827  -20.8381   22.3021 C   0  0  0  0  0  0  0  0  0  0  0  0
  -29.4518  -17.9491   20.2506 C   0  0  0  0  0  0  0  0  0  0  0  0
  -28.4492  -26.3507   22.1771 C   0  0  0  0  0  0  0  0  0  0  0  0
  -28.1600  -24.0241   22.7135 C   0  0  0  0  0  0  0  0  0  0  0  0
  -21.0437  -22.2606   22.0699 C   0  0  0  0  0  0  0  0  0  0  0  0
  -24.2535  -27.4290   20.4058 C   0  0  0  0  0  0  0  0  0  0  0  0
  -23.8342  -29.6359   21.6148 C   0  0  0  0  0  0  0  0  0  0  0  0
  -34.0853   -9.8295   20.3864 C   0  0  0  0  0  0  0  0  0  0  0  0
  -30.5109  -16.5868   21.9483 C   0  0  0  0  0  0  0  0  0  0  0  0
  -34.0933  -11.2135   20.6453 C   0  0  0  0  0  0  0  0  0  0  0  0
  -29.6430  -16.6960   20.8524 C   0  0  0  0  0  0  0  0  0  0  0  0
  -28.2525  -25.3499   23.1221 C   0  0  0  0  0  0  0  0  0  0  0  0
  -23.8492  -24.7069   19.9484 C   0  0  0  0  0  0  0  0  0  0  0  0
  -30.1049  -19.0801   20.7399 C   0  0  0  0  0  0  0  0  0  0  0  0
  -22.9987  -22.6512   20.7053 C   0  0  0  0  0  0  0  0  0  0  0  0
  -21.6847  -21.1821   22.6795 C   0  0  0  0  0  0  0  0  0  0  0  0
  -21.7007  -22.9951   21.0828 C   0  0  0  0  0  0  0  0  0  0  0  0
  -24.4616  -28.8351   20.6417 C   0  0  0  0  0  0  0  0  0  0  0  0
  -28.5462  -25.9764   20.8466 C   0  0  0  0  0  0  0  0  0  0  0  0
  -28.2698  -23.7539   21.3589 C   0  0  0  0  0  0  0  0  0  0  0  0
  -24.3712  -30.8863   21.4288 C   0  0  0  0  0  0  0  0  0  0  0  0
  -22.8536  -29.2812   22.5988 C   0  0  0  0  0  0  0  0  0  0  0  0
  -31.4856  -13.8307   20.7003 C   0  0  0  0  0  0  0  0  0  0  0  0
  -28.3264  -13.1051   20.8241 C   0  0  0  0  0  0  0  0  0  0  0  0
  -25.1002  -14.2145   20.9104 C   0  0  0  0  0  0  0  0  0  0  0  0
  -28.0249  -29.6508   17.4812 C   0  0  0  0  0  0  0  0  0  0  0  0
  -33.2055   -9.2270   19.3199 C   0  0  0  0  0  0  0  0  0  0  0  0
  -30.7159  -15.2610   22.6285 C   0  0  0  0  0  0  0  0  0  0  0  0
  -28.9142  -15.5012   20.2960 C   0  0  0  0  0  0  0  0  0  0  0  0
  -32.0606  -10.1395   18.8876 C   0  0  0  0  0  0  0  0  0  0  0  0
  -25.3303  -31.9947   17.3703 C   0  0  0  0  0  0  0  0  0  0  0  0
  -31.5231  -29.3684   18.3938 C   0  0  0  0  0  0  0  0  0  0  0  0
  -32.5703  -11.5563   18.6431 C   0  0  0  0  0  0  0  0  0  0  0  0
  -25.3437  -32.6704   18.7371 C   0  0  0  0  0  0  0  0  0  0  0  0
  -31.1334  -27.8998   18.4869 C   0  0  0  0  0  0  0  0  0  0  0  0
  -26.7469  -31.6847   16.9119 C   0  0  0  0  0  0  0  0  0  0  0  0
  -30.2153  -30.0795   18.7050 C   0  0  0  0  0  0  0  0  0  0  0  0
  -27.4978  -31.3926   19.2649 C   0  0  0  0  0  0  0  0  0  0  0  0
  -33.1581  -12.1599   19.9243 C   0  0  1  0  0  0  0  0  0  0  0  0
  -30.4115  -14.0715   21.7230 C   0  0  1  0  0  0  0  0  0  0  0  0
  -26.1197  -31.8599   19.7876 C   0  0  2  0  0  0  0  0  0  0  0  0
  -29.7257  -27.8709   17.8854 C   0  0  1  0  0  0  0  0  0  0  0  0
  -28.1410  -25.6971   24.5677 C   0  0  0  0  0  0  0  0  0  0  0  0
  -22.7327  -13.3847   20.9700 C   0  0  0  0  0  0  0  0  0  0  0  0
  -26.9346  -22.2540   18.9079 C   0  0  0  0  0  0  0  0  0  0  0  0
  -28.4978  -12.4103   17.8580 C   0  0  0  0  0  0  0  0  0  0  0  0
  -25.9983  -12.5166   17.7601 C   0  0  0  0  0  0  0  0  0  0  0  0
  -27.1170  -10.8323   19.2210 C   0  0  0  0  0  0  0  0  0  0  0  0
  -24.5833  -15.5267   23.5123 C   0  0  0  0  0  0  0  0  0  0  0  0
  -28.8644  -26.7780   18.5053 C   0  0  0  0  0  0  0  0  0  0  0  0
  -28.6418  -20.5108   19.5281 C   0  0  0  0  0  0  0  0  0  1  0  0
  -27.1540  -13.2708   19.8877 C   0  0  1  0  0  0  0  0  0  0  0  0
  -23.9276  -13.8343   21.7963 C   0  0  2  0  0  0  0  0  0  0  0  0
  -28.2684  -21.9901   19.5941 C   0  0  2  0  0  0  0  0  0  0  0  0
  -27.2069  -12.2799   18.6908 C   0  0  0  0  0  0  0  0  0  0  0  0
  -25.3306  -29.5194   19.8930 N   0  0  0  0  0  0  0  0  0  0  0  0
  -28.4613  -24.6992   20.4116 N   0  0  0  0  0  0  0  0  0  0  0  0
  -25.2531  -30.7633   20.3957 N   0  0  0  0  0  0  0  0  0  0  0  0
  -29.1523  -14.2257   20.9916 N   0  0  0  0  0  0  0  0  0  0  0  0
  -27.4735  -30.8743   17.8895 N   0  0  0  0  0  0  0  0  0  0  0  0
  -29.1873  -29.2159   18.1220 N   0  0  0  0  0  0  0  0  0  0  0  0
  -24.1704  -32.0680   22.0499 N   0  0  0  0  0  0  0  0  0  0  0  0
  -21.4979  -29.3829   22.2582 N   0  0  0  0  0  0  0  0  0  0  0  0
  -28.7437  -26.9919   19.9094 N   0  0  0  0  0  0  0  0  0  0  0  0
  -28.1734  -22.3983   20.9578 N   0  0  0  0  0  0  0  0  0  0  0  0
  -32.0994  -12.5974   20.8087 N   0  0  0  0  0  0  0  0  0  0  0  0
  -25.9548  -13.1512   20.7099 N   0  0  0  0  0  0  0  0  0  0  0  0
  -23.5111  -14.9963   22.6314 N   0  3  0  0  0  0  0  0  0  0  0  0
  -23.1701  -28.9013   23.7517 O   0  0  0  0  0  0  0  0  0  0  0  0
  -31.7379  -14.6989   19.8731 O   0  0  0  0  0  0  0  0  0  0  0  0
  -28.4989  -12.0236   21.3918 O   0  0  0  0  0  0  0  0  0  0  0  0
  -25.2418  -15.3411   20.4399 O   0  0  0  0  0  0  0  0  0  0  0  0
  -27.5078  -28.9812   16.5771 O   0  0  0  0  0  0  0  0  0  0  0  0
  -23.6520  -23.3789   19.7248 O   0  0  0  0  0  0  0  0  0  0  0  0
  -29.9075  -20.2972   20.1435 O   0  0  0  0  0  0  0  0  0  1  0  0
  -21.0533  -20.4757   23.6264 F   0  0  0  0  0  0  0  0  0  0  0  0
  -21.0794  -24.0295   20.4998 F   0  0  0  0  0  0  0  0  0  0  0  0
  1  2  1  0  0  0  0
  1  5  2  0  0  0  0
  2  6  2  0  0  0  0
  3  8  2  0  0  0  0
  3 17  1  0  0  0  0
  4  9  1  0  0  0  0
  4 17  2  0  0  0  0
  5 19  1  0  0  0  0
  6 21  1  0  0  0  0
  7 10  2  0  0  0  0
  7 20  1  0  0  0  0
  8 24  1  0  0  0  0
  9 24  2  0  0  0  0
 10 25  1  0  0  0  0
 11 12  2  0  0  0  0
 11 26  1  0  0  0  0
 12 27  1  0  0  0  0
 13 22  1  0  0  0  0
 13 25  2  0  0  0  0
 14 23  1  0  0  0  0
 14 30  2  0  0  0  0
 15 23  2  0  0  0  0
 15 31  1  0  0  0  0
 16 27  2  0  0  0  0
 16 28  1  0  0  0  0
 17 29  1  0  0  0  0
 18 29  1  0  0  0  0
 18 32  2  0  0  0  0
 18 33  1  0  0  0  0
 19 21  2  0  0  0  0
 19 38  1  0  0  0  0
 20 22  2  0  0  0  0
 20 39  1  0  0  0  0
 21 50  1  0  0  0  0
 22 40  1  0  0  0  0
 23 54  1  0  0  0  0
 24 85  1  0  0  0  0
 25 86  1  0  0  0  0
 26 28  2  0  0  0  0
 26 85  1  0  0  0  0
 27 87  1  0  0  0  0
 28 88  1  0  0  0  0
 29 67  2  0  0  0  0
 30 68  1  0  0  0  0
 30 75  1  0  0  0  0
 31 68  2  0  0  0  0
 31 76  1  0  0  0  0
 32 69  1  0  0  0  0
 32 73  1  0  0  0  0
 33 74  1  0  0  0  0
 33 80  2  0  0  0  0
 34 51  1  0  0  0  0
 34 77  1  0  0  0  0
 34 81  2  0  0  0  0
 35 63  1  0  0  0  0
 35 70  1  0  0  0  0
 35 82  2  0  0  0  0
 36 64  1  0  0  0  0
 36 78  1  0  0  0  0
 36 83  2  0  0  0  0
 37 71  1  0  0  0  0
 37 72  1  0  0  0  0
 37 84  2  0  0  0  0
 38 41  1  0  0  0  0
 39 51  1  0  0  0  0
 40 70  1  0  0  0  0
 41 44  1  0  0  0  0
 42 45  1  0  0  0  0
 42 47  1  0  0  0  0
 43 46  1  0  0  0  0
 43 48  1  0  0  0  0
 44 50  1  0  0  0  0
 45 52  1  0  0  0  0
 46 53  1  0  0  0  0
 47 71  1  0  0  0  0
 48 72  1  0  0  0  0
 49 52  1  0  0  0  0
 49 71  1  0  0  0  0
 50 77  1  0  0  0  0
 51 70  1  0  0  0  0
 52 69  1  0  0  0  0
 53 61  1  0  0  0  0
 53 72  1  0  0  0  0
 55 64  1  0  0  0  0
 56 65  1  0  0  0  0
 57 66  1  0  0  0  0
 58 66  1  0  0  0  0
 59 66  1  0  0  0  0
 60 79  1  0  0  0  0
 61 75  1  0  0  0  0
 62 65  1  0  0  0  0
 62 86  1  0  0  0  0
 63 66  1  0  0  0  0
 63 78  1  0  0  0  0
 64 79  1  0  0  0  0
 65 76  1  0  0  0  0
 67 69  1  0  0  0  0
M  CHG  1  79   1
M  ISO  4  37 100  62 101  72 100  86 101
M  END
> <Batch ID>
0142

> <Smiles>
CNC(C)C(=O)NC(C(=O)N1Cc2cc([101O:1][101CH2:1]C(C)Nc3cc(C)cc(NCC4CCC[100N:0]4[100C:0](=O)N4CCCC(n5nc(-c6ccc(Oc7ccc(F)cc7F)cc6)c(C(N)=O)c5N)C4)n3)ccc2CC1C(=O)NC1CCCc2ccccc21)C(C)(C)C

> <Shape>
0.224

> <Color>
0.103

> <Negative vol penalty>
0.000

$$$$

  -OEChem-04052321183D

 87 96  0     1  0  0  0  0  0999 V2000
  -16.8788  -29.1893   24.3290 C   0  0  0  0  0  0  0  0  0  0  0  0
  -17.4498  -28.1856   23.5531 C   0  0  0  0  0  0  0  0  0  0  0  0
  -28.4504  -10.5385   20.9517 C   0  0  0  0  0  0  0  0  0  0  0  0
  -26.4435  -11.8779   20.8262 C   0  0  0  0  0  0  0  0  0  0  0  0
  -17.3858  -30.4868   24.2714 C   0  0  0  0  0  0  0  0  0  0  0  0
  -18.5274  -28.4791   22.7183 C   0  0  0  0  0  0  0  0  0  0  0  0
  -26.7993  -18.2839   18.6330 C   0  0  0  0  0  0  0  0  0  0  0  0
  -22.2090  -25.0139   23.0077 C   0  0  0  0  0  0  0  0  0  0  0  0
  -26.0707  -17.1790   18.1927 C   0  0  0  0  0  0  0  0  0  0  0  0
  -27.7050   -9.4679   21.4453 C   0  0  0  0  0  0  0  0  0  0  0  0
  -25.6981  -10.8071   21.3197 C   0  0  0  0  0  0  0  0  0  0  0  0
  -22.0121  -23.8169   22.3206 C   0  0  0  0  0  0  0  0  0  0  0  0
  -23.2094   -8.3095   22.2064 C   0  0  0  0  0  0  0  0  0  0  0  0
  -22.0004   -8.0149   21.5763 C   0  0  0  0  0  0  0  0  0  0  0  0
  -23.4158  -24.6203   20.5308 C   0  0  0  0  0  0  0  0  0  0  0  0
  -24.0574  -18.1348   19.1255 C   0  0  0  0  0  0  0  0  0  0  0  0
  -23.1755   -7.6324   19.5003 C   0  0  0  0  0  0  0  0  0  0  0  0
  -27.8197  -11.7436   20.6422 C   0  0  0  0  0  0  0  0  0  0  0  0
  -28.8683  -13.1422   18.7843 C   0  0  0  0  0  0  0  0  0  0  0  0
  -18.4764  -30.7943   23.4427 C   0  0  0  0  0  0  0  0  0  0  0  0
  -23.0033  -26.0292   22.4555 C   0  0  0  0  0  0  0  0  0  0  0  0
  -19.0487  -29.7822   22.6486 C   0  0  0  0  0  0  0  0  0  0  0  0
  -26.1569  -19.3142   19.3197 C   0  0  0  0  0  0  0  0  0  0  0  0
  -23.6232  -25.8283   21.2140 C   0  0  0  0  0  0  0  0  0  0  0  0
  -24.6998  -17.1044   18.4388 C   0  0  0  0  0  0  0  0  0  0  0  0
  -26.3289   -9.6021   21.6293 C   0  0  0  0  0  0  0  0  0  0  0  0
  -22.6132  -23.6210   21.0807 C   0  0  0  0  0  0  0  0  0  0  0  0
  -24.4015   -8.2656   21.4834 C   0  0  0  0  0  0  0  0  0  0  0  0
  -24.7860  -19.2397   19.5659 C   0  0  0  0  0  0  0  0  0  0  0  0
  -21.9834   -7.6764   20.2233 C   0  0  0  0  0  0  0  0  0  0  0  0
  -24.3846   -7.9270   20.1304 C   0  0  0  0  0  0  0  0  0  0  0  0
  -28.5892  -12.8501   20.1329 C   0  0  0  0  0  0  0  0  0  0  0  0
  -29.6276  -14.2858   18.8307 C   0  0  0  0  0  0  0  0  0  0  0  0
  -28.4762  -12.4425   17.5959 C   0  0  0  0  0  0  0  0  0  0  0  0
  -22.4907  -29.0285   21.5364 C   0  0  0  0  0  0  0  0  0  0  0  0
  -25.7058  -29.0344   21.1057 C   0  0  0  0  0  0  0  0  0  0  0  0
  -28.5567  -27.2451   20.5421 C   0  0  0  0  0  0  0  0  0  0  0  0
  -30.6147  -19.3935   20.8513 C   0  0  0  0  0  0  0  0  0  0  0  0
  -18.9596  -32.2216   23.3784 C   0  0  0  0  0  0  0  0  0  0  0  0
  -23.2274  -27.3041   23.2215 C   0  0  0  0  0  0  0  0  0  0  0  0
  -24.5017  -26.8788   20.5871 C   0  0  0  0  0  0  0  0  0  0  0  0
  -20.3430  -32.3686   22.7501 C   0  0  0  0  0  0  0  0  0  0  0  0
  -31.8169  -16.6275   22.7435 C   0  0  0  0  0  0  0  0  0  0  0  0
  -20.4361  -31.5496   21.4666 C   0  0  0  0  0  0  0  0  0  0  0  0
  -31.1029  -15.4239   22.1260 C   0  0  0  0  0  0  0  0  0  0  0  0
  -26.5131  -21.8744   19.3800 C   0  0  0  0  0  0  0  0  0  0  0  0
  -30.9184  -17.8619   22.7744 C   0  0  0  0  0  0  0  0  0  0  0  0
  -29.6148  -17.0278   20.8565 C   0  0  0  0  0  0  0  0  0  0  0  0
  -26.9514  -20.4887   19.7852 C   0  0  2  0  0  0  0  0  0  0  0  0
  -20.2347  -30.0560   21.7494 C   0  0  1  0  0  0  0  0  0  0  0  0
  -23.6386  -28.4721   22.3304 C   0  0  1  0  0  0  0  0  0  0  0  0
  -27.7481  -21.2773   18.7737 C   0  0  2  0  0  0  0  0  0  0  0  0
  -30.4996  -15.7738   20.7524 C   0  0  2  0  0  0  0  0  0  0  0  0
  -23.9211  -15.9229   17.9681 C   0  0  0  0  0  0  0  0  0  0  0  0
  -31.0263  -27.5305   20.1998 C   0  0  0  0  0  0  0  0  0  0  0  0
  -29.3939  -23.1169   18.4199 C   0  0  0  0  0  0  0  0  0  0  0  0
  -25.1967  -30.0030   18.2574 C   0  0  0  0  0  0  0  0  0  0  0  0
  -27.5505  -29.3631   17.6934 C   0  0  0  0  0  0  0  0  0  0  0  0
  -27.1146  -31.1184   19.4114 C   0  0  0  0  0  0  0  0  0  0  0  0
  -29.1930  -25.6325   22.9408 C   0  0  0  0  0  0  0  0  0  0  0  0
  -30.2365  -20.8054   18.8456 C   0  0  0  0  0  0  0  0  0  0  0  0
  -22.2023  -21.2811   21.1905 C   0  0  0  0  0  0  0  0  0  1  0  0
  -22.7394  -20.0774   20.4408 C   0  0  0  0  0  0  0  0  0  0  0  0
  -26.6318  -28.6985   19.9617 C   0  0  1  0  0  0  0  0  0  0  0  0
  -29.9185  -27.2827   21.2119 C   0  0  2  0  0  0  0  0  0  0  0  0
  -29.0920  -21.8081   19.1375 C   0  0  2  0  0  0  0  0  0  0  0  0
  -26.6053  -29.7765   18.8416 C   0  0  0  0  0  0  0  0  0  0  0  0
  -29.1275  -13.7366   20.9746 N   0  0  0  0  0  0  0  0  0  0  0  0
  -29.7526  -14.5969   20.1528 N   0  0  0  0  0  0  0  0  0  0  0  0
  -24.6852  -28.1108   21.3721 N   0  0  0  0  0  0  0  0  0  0  0  0
  -30.3801  -18.1403   21.4408 N   0  0  0  0  0  0  0  0  0  0  0  0
  -30.1939  -15.0456   17.8692 N   0  0  0  0  0  0  0  0  0  0  0  0
  -27.6965  -11.2854   17.7285 N   0  0  0  0  0  0  0  0  0  0  0  0
  -21.4387  -29.4808   22.3098 N   0  0  0  0  0  0  0  0  0  0  0  0
  -27.9483  -28.4824   20.5521 N   0  0  0  0  0  0  0  0  0  0  0  0
  -30.0748  -19.5725   19.5835 N   0  0  0  0  0  0  0  0  0  0  0  0
  -30.1924  -25.9903   21.9015 N   0  3  0  0  0  0  0  0  0  0  0  0
  -28.8211  -12.8226   16.4514 O   0  0  0  0  0  0  0  0  0  0  0  0
  -22.5554  -29.0476   20.3129 O   0  0  0  0  0  0  0  0  0  0  0  0
  -25.8859  -30.0745   21.7440 O   0  0  0  0  0  0  0  0  0  0  0  0
  -28.0819  -26.2214   20.0553 O   0  0  0  0  0  0  0  0  0  0  0  0
  -31.2622  -20.2848   21.4110 O   0  0  0  0  0  0  0  0  0  0  0  0
  -25.6012   -8.5575   22.1106 O   0  0  0  0  0  0  0  0  0  0  0  0
  -22.4221  -22.4538   20.4076 O   0  0  0  0  0  0  0  0  0  1  0  0
  -24.1376  -20.2421   20.2380 O   0  0  0  0  0  0  0  0  0  0  0  0
  -20.8224   -7.3921   19.6187 F   0  0  0  0  0  0  0  0  0  0  0  0
  -25.5267   -7.8820   19.4309 F   0  0  0  0  0  0  0  0  0  0  0  0
  1  2  1  0  0  0  0
  1  5  2  0  0  0  0
  2  6  2  0  0  0  0
  3 10  2  0  0  0  0
  3 18  1  0  0  0  0
  4 11  1  0  0  0  0
  4 18  2  0  0  0  0
  5 20  1  0  0  0  0
  6 22  1  0  0  0  0
  7  9  2  0  0  0  0
  7 23  1  0  0  0  0
  8 12  2  0  0  0  0
  8 21  1  0  0  0  0
  9 25  1  0  0  0  0
 10 26  1  0  0  0  0
 11 26  2  0  0  0  0
 12 27  1  0  0  0  0
 13 14  2  0  0  0  0
 13 28  1  0  0  0  0
 14 30  1  0  0  0  0
 15 24  1  0  0  0  0
 15 27  2  0  0  0  0
 16 25  2  0  0  0  0
 16 29  1  0  0  0  0
 17 30  2  0  0  0  0
 17 31  1  0  0  0  0
 18 32  1  0  0  0  0
 19 32  1  0  0  0  0
 19 33  2  0  0  0  0
 19 34  1  0  0  0  0
 20 22  2  0  0  0  0
 20 39  1  0  0  0  0
 21 24  2  0  0  0  0
 21 40  1  0  0  0  0
 22 50  1  0  0  0  0
 23 29  2  0  0  0  0
 23 49  1  0  0  0  0
 24 41  1  0  0  0  0
 25 54  1  0  0  0  0
 26 83  1  0  0  0  0
 27 84  1  0  0  0  0
 28 31  2  0  0  0  0
 28 83  1  0  0  0  0
 29 85  1  0  0  0  0
 30 86  1  0  0  0  0
 31 87  1  0  0  0  0
 32 68  2  0  0  0  0
 33 69  1  0  0  0  0
 33 72  1  0  0  0  0
 34 73  1  0  0  0  0
 34 78  2  0  0  0  0
 35 51  1  0  0  0  0
 35 74  1  0  0  0  0
 35 79  2  0  0  0  0
 36 64  1  0  0  0  0
 36 70  1  0  0  0  0
 36 80  2  0  0  0  0
 37 65  1  0  0  0  0
 37 75  1  0  0  0  0
 37 81  2  0  0  0  0
 38 71  1  0  0  0  0
 38 76  1  0  0  0  0
 38 82  2  0  0  0  0
 39 42  1  0  0  0  0
 40 51  1  0  0  0  0
 41 70  1  0  0  0  0
 42 44  1  0  0  0  0
 43 45  1  0  0  0  0
 43 47  1  0  0  0  0
 44 50  1  0  0  0  0
 45 53  1  0  0  0  0
 46 49  1  0  0  0  0
 46 52  1  0  0  0  0
 47 71  1  0  0  0  0
 48 53  1  0  0  0  0
 48 71  1  0  0  0  0
 49 52  1  0  0  0  0
 50 74  1  0  0  0  0
 51 70  1  0  0  0  0
 52 66  1  0  0  0  0
 53 69  1  0  0  0  0
 55 65  1  0  0  0  0
 56 66  1  0  0  0  0
 57 67  1  0  0  0  0
 58 67  1  0  0  0  0
 59 67  1  0  0  0  0
 60 77  1  0  0  0  0
 61 66  1  0  0  0  0
 61 76  1  0  0  0  0
 62 63  1  0  0  0  0
 62 84  1  0  0  0  0
 63 85  1  0  0  0  0
 64 67  1  0  0  0  0
 64 75  1  0  0  0  0
 65 77  1  0  0  0  0
 68 69  1  0  0  0  0
M  CHG  1  77   1
M  ISO  4  38 100  62 101  76 100  84 101
M  END
> <Batch ID>
0142

> <Smiles>
CNC(C)C(=O)NC(C(=O)N1Cc2cc([101O:1][101CH2:1]COc3cc(C)ccc3C3CC3C(C)C[100NH:0][100C:0](=O)N3CCCC(n4nc(-c5ccc(Oc6ccc(F)cc6F)cc5)c(C(N)=O)c4N)C3)ccc2CC1C(=O)NC1CCCc2ccccc21)C(C)(C)C

> <Shape>
0.264

> <Color>
0.061

> <Negative vol penalty>
0.000

$$$$

  -OEChem-04052321183D

 87 98  0     1  0  0  0  0  0999 V2000
  -28.2783  -37.4131   23.4614 C   0  0  0  0  0  0  0  0  0  0  0  0
  -28.7401  -36.3677   22.6681 C   0  0  0  0  0  0  0  0  0  0  0  0
  -26.4439   -8.7452   20.5746 C   0  0  0  0  0  0  0  0  0  0  0  0
  -27.5087   -9.9466   22.3801 C   0  0  0  0  0  0  0  0  0  0  0  0
  -27.3456  -37.1638   24.4673 C   0  0  0  0  0  0  0  0  0  0  0  0
  -28.2702  -35.0722   22.8809 C   0  0  0  0  0  0  0  0  0  0  0  0
  -26.7647  -21.3308   19.4562 C   0  0  0  0  0  0  0  0  0  0  0  0
  -26.7455  -29.0344   19.3402 C   0  0  0  0  0  0  0  0  0  0  0  0
  -26.6437  -22.7121   19.3050 C   0  0  0  0  0  0  0  0  0  0  0  0
  -27.4077   -7.7419   20.6737 C   0  0  0  0  0  0  0  0  0  0  0  0
  -28.4725   -8.9432   22.4793 C   0  0  0  0  0  0  0  0  0  0  0  0
  -27.0249  -27.6688   19.3695 C   0  0  0  0  0  0  0  0  0  0  0  0
  -30.6095   -7.2597   19.7039 C   0  0  0  0  0  0  0  0  0  0  0  0
  -31.1731   -6.7842   18.5200 C   0  0  0  0  0  0  0  0  0  0  0  0
  -28.9587  -22.9845   19.9401 C   0  0  0  0  0  0  0  0  0  0  0  0
  -25.3548  -27.3700   21.0843 C   0  0  0  0  0  0  0  0  0  0  0  0
  -30.3619   -4.5652   19.0251 C   0  0  0  0  0  0  0  0  0  0  0  0
  -26.4944   -9.8476   21.4278 C   0  0  0  0  0  0  0  0  0  0  0  0
  -24.2690  -10.9525   22.0062 C   0  0  0  0  0  0  0  0  0  0  0  0
  -26.8568  -35.8662   24.6863 C   0  0  0  0  0  0  0  0  0  0  0  0
  -25.7746  -29.5807   20.1920 C   0  0  0  0  0  0  0  0  0  0  0  0
  -27.9828  -20.7763   19.8495 C   0  0  0  0  0  0  0  0  0  0  0  0
  -27.3311  -34.8052   23.8916 C   0  0  0  0  0  0  0  0  0  0  0  0
  -29.0798  -21.6032   20.0914 C   0  0  0  0  0  0  0  0  0  0  0  0
  -25.0631  -28.7424   21.0621 C   0  0  0  0  0  0  0  0  0  0  0  0
  -27.7407  -23.5390   19.5469 C   0  0  0  0  0  0  0  0  0  0  0  0
  -28.4220   -7.8408   21.6261 C   0  0  0  0  0  0  0  0  0  0  0  0
  -26.3315  -26.8369   20.2437 C   0  0  0  0  0  0  0  0  0  0  0  0
  -29.9222   -6.3880   20.5486 C   0  0  0  0  0  0  0  0  0  0  0  0
  -31.0492   -5.4369   18.1805 C   0  0  0  0  0  0  0  0  0  0  0  0
  -29.7984   -5.0408   20.2092 C   0  0  0  0  0  0  0  0  0  0  0  0
  -25.4993  -10.8847   21.3255 C   0  0  0  0  0  0  0  0  0  0  0  0
  -23.6973  -12.1214   21.5667 C   0  0  0  0  0  0  0  0  0  0  0  0
  -23.6943  -10.0403   22.9514 C   0  0  0  0  0  0  0  0  0  0  0  0
  -25.7988  -31.7288   22.5348 C   0  0  0  0  0  0  0  0  0  0  0  0
  -22.5830  -31.3202   22.4158 C   0  0  0  0  0  0  0  0  0  0  0  0
  -19.9453  -29.3217   21.5821 C   0  0  0  0  0  0  0  0  0  0  0  0
  -25.8750  -17.1711   19.3640 C   0  0  0  0  0  0  0  0  0  0  0  0
  -25.8847  -35.6378   25.8165 C   0  0  0  0  0  0  0  0  0  0  0  0
  -25.4662  -31.0516   20.1293 C   0  0  0  0  0  0  0  0  0  0  0  0
  -23.9971  -29.2762   21.9825 C   0  0  0  0  0  0  0  0  0  0  0  0
  -25.1557  -34.2993   25.7318 C   0  0  0  0  0  0  0  0  0  0  0  0
  -23.5732  -15.0592   17.8079 C   0  0  0  0  0  0  0  0  0  0  0  0
  -31.6221  -21.3558   19.7051 C   0  0  0  0  0  0  0  0  0  0  0  0
  -31.0410  -19.9773   19.6570 C   0  0  0  0  0  0  0  0  0  0  0  0
  -26.1397  -33.1737   25.4293 C   0  0  0  0  0  0  0  0  0  0  0  0
  -23.6888  -13.7475   18.5819 C   0  0  0  0  0  0  0  0  0  0  0  0
  -27.2583  -16.3255   22.8624 C   0  0  0  0  0  0  0  0  0  0  0  0
  -26.1147  -15.4945   22.3620 C   0  0  0  0  0  0  0  0  0  0  0  0
  -28.5764  -18.7301   21.3101 C   0  0  0  0  0  0  0  0  0  0  0  0
  -24.9433  -15.6959   17.6113 C   0  0  0  0  0  0  0  0  0  0  0  0
  -25.7970  -14.6516   19.6878 C   0  0  0  0  0  0  0  0  0  0  0  0
  -28.0875  -19.2950   20.0046 C   0  0  1  0  0  0  0  0  0  0  0  0
  -30.3937  -21.0330   20.5130 C   0  0  0  0  0  0  0  0  0  0  0  0
  -26.8266  -33.3903   24.0755 C   0  0  1  0  0  0  0  0  0  0  0  0
  -24.8191  -31.5813   21.4052 C   0  0  1  0  0  0  0  0  0  0  0  0
  -24.4365  -13.9586   19.9092 C   0  0  2  0  0  0  0  0  0  0  0  0
  -27.0272  -16.1811   21.3831 C   0  0  0  0  0  0  0  0  0  0  0  0
  -27.1304  -18.5898   20.9362 C   0  0  1  0  0  0  0  0  0  0  0  0
  -17.4377  -29.2438   21.6387 C   0  0  0  0  0  0  0  0  0  0  0  0
  -22.6709  -30.7449   25.4110 C   0  0  0  0  0  0  0  0  0  0  0  0
  -20.3747  -29.7657   25.2197 C   0  0  0  0  0  0  0  0  0  0  0  0
  -20.7518  -32.1715   24.6787 C   0  0  0  0  0  0  0  0  0  0  0  0
  -19.7697  -29.1076   18.6355 C   0  0  0  0  0  0  0  0  0  0  0  0
  -27.6099  -25.0249   19.3844 C   0  0  0  0  0  0  0  0  0  1  0  0
  -21.5970  -30.3964   23.0891 C   0  0  1  0  0  0  0  0  0  0  0  0
  -18.6651  -29.6097   20.8188 C   0  0  2  0  0  0  0  0  0  0  0  0
  -21.3700  -30.7596   24.5838 C   0  0  0  0  0  0  0  0  0  0  0  0
  -25.6983  -11.9275   20.5149 N   0  0  0  0  0  0  0  0  0  0  0  0
  -24.5852  -12.6616   20.6835 N   0  0  0  0  0  0  0  0  0  0  0  0
  -23.7363  -30.7221   21.8885 N   0  0  0  0  0  0  0  0  0  0  0  0
  -25.6377  -15.8746   18.8872 N   0  0  0  0  0  0  0  0  0  0  0  0
  -22.5267  -12.7297   21.8533 N   0  0  0  0  0  0  0  0  0  0  0  0
  -24.4159   -8.8880   23.2916 N   0  0  0  0  0  0  0  0  0  0  0  0
  -25.9376  -33.0248   22.9936 N   0  0  0  0  0  0  0  0  0  0  0  0
  -20.3863  -30.4287   22.2758 N   0  0  0  0  0  0  0  0  0  0  0  0
  -26.5664  -17.2989   20.5807 N   0  0  0  0  0  0  0  0  0  0  0  0
  -18.6321  -28.8293   19.5495 N   0  3  0  0  0  0  0  0  0  0  0  0
  -22.5668  -10.2330   23.4663 O   0  0  0  0  0  0  0  0  0  0  0  0
  -26.3842  -30.7397   22.9599 O   0  0  0  0  0  0  0  0  0  0  0  0
  -22.3355  -32.5271   22.3535 O   0  0  0  0  0  0  0  0  0  0  0  0
  -20.4967  -28.2234   21.5676 O   0  0  0  0  0  0  0  0  0  0  0  0
  -25.5101  -18.1698   18.7295 O   0  0  0  0  0  0  0  0  0  0  0  0
  -29.3626   -6.8618   21.7233 O   0  0  0  0  0  0  0  0  0  0  0  0
  -26.6027  -25.5037   20.2747 O   0  0  0  0  0  0  0  0  0  1  0  0
  -31.5891   -4.9807   17.0427 F   0  0  0  0  0  0  0  0  0  0  0  0
  -29.1382   -4.1988   21.0160 F   0  0  0  0  0  0  0  0  0  0  0  0
  1  2  1  0  0  0  0
  1  5  2  0  0  0  0
  2  6  2  0  0  0  0
  3 10  2  0  0  0  0
  3 18  1  0  0  0  0
  4 11  1  0  0  0  0
  4 18  2  0  0  0  0
  5 20  1  0  0  0  0
  6 23  1  0  0  0  0
  7  9  2  0  0  0  0
  7 22  1  0  0  0  0
  8 12  2  0  0  0  0
  8 21  1  0  0  0  0
  9 26  1  0  0  0  0
 10 27  1  0  0  0  0
 11 27  2  0  0  0  0
 12 28  1  0  0  0  0
 13 14  2  0  0  0  0
 13 29  1  0  0  0  0
 14 30  1  0  0  0  0
 15 24  1  0  0  0  0
 15 26  2  0  0  0  0
 16 25  1  0  0  0  0
 16 28  2  0  0  0  0
 17 30  2  0  0  0  0
 17 31  1  0  0  0  0
 18 32  1  0  0  0  0
 19 32  1  0  0  0  0
 19 33  2  0  0  0  0
 19 34  1  0  0  0  0
 20 23  2  0  0  0  0
 20 39  1  0  0  0  0
 21 25  2  0  0  0  0
 21 40  1  0  0  0  0
 22 24  2  0  0  0  0
 22 53  1  0  0  0  0
 23 55  1  0  0  0  0
 24 54  1  0  0  0  0
 25 41  1  0  0  0  0
 26 65  1  0  0  0  0
 27 84  1  0  0  0  0
 28 85  1  0  0  0  0
 29 31  2  0  0  0  0
 29 84  1  0  0  0  0
 30 86  1  0  0  0  0
 31 87  1  0  0  0  0
 32 69  2  0  0  0  0
 33 70  1  0  0  0  0
 33 73  1  0  0  0  0
 34 74  1  0  0  0  0
 34 79  2  0  0  0  0
 35 56  1  0  0  0  0
 35 75  1  0  0  0  0
 35 80  2  0  0  0  0
 36 66  1  0  0  0  0
 36 71  1  0  0  0  0
 36 81  2  0  0  0  0
 37 67  1  0  0  0  0
 37 76  1  0  0  0  0
 37 82  2  0  0  0  0
 38 72  1  0  0  0  0
 38 77  1  0  0  0  0
 38 83  2  0  0  0  0
 39 42  1  0  0  0  0
 40 56  1  0  0  0  0
 41 71  1  0  0  0  0
 42 46  1  0  0  0  0
 43 47  1  0  0  0  0
 43 51  1  0  0  0  0
 44 45  1  0  0  0  0
 44 54  1  0  0  0  0
 45 54  1  0  0  0  0
 46 55  1  0  0  0  0
 47 57  1  0  0  0  0
 48 49  1  0  0  0  0
 48 58  1  0  0  0  0
 49 58  1  0  0  0  0
 50 53  1  0  0  0  0
 50 59  1  0  0  0  0
 51 72  1  0  0  0  0
 52 57  1  0  0  0  0
 52 72  1  0  0  0  0
 53 59  1  0  0  0  0
 55 75  1  0  0  0  0
 56 71  1  0  0  0  0
 57 70  1  0  0  0  0
 58 77  1  0  0  0  0
 59 77  1  0  0  0  0
 60 67  1  0  0  0  0
 61 68  1  0  0  0  0
 62 68  1  0  0  0  0
 63 68  1  0  0  0  0
 64 78  1  0  0  0  0
 65 85  1  0  0  0  0
 66 68  1  0  0  0  0
 66 76  1  0  0  0  0
 67 78  1  0  0  0  0
 69 70  1  0  0  0  0
M  CHG  1  78   1
M  ISO  4  38 100  65 101  77 100  85 101
M  END
> <Batch ID>
0142

> <Smiles>
CNC(C)C(=O)NC(C(=O)N1Cc2cc([101O:1][101CH2:1]c3ccc(C4CC4[100N:0](C4CC4)[100C:0](=O)N4CCCC(n5nc(-c6ccc(Oc7ccc(F)cc7F)cc6)c(C(N)=O)c5N)C4)c(C4CC4)c3)ccc2CC1C(=O)NC1CCCc2ccccc21)C(C)(C)C

> <Shape>
0.236

> <Color>
0.085

> <Negative vol penalty>
0.000

$$$$

  -OEChem-04052321183D

 87 95  0     1  0  0  0  0  0999 V2000
  -33.2098  -10.8500   23.9013 C   0  0  0  0  0  0  0  0  0  0  0  0
  -33.1650  -12.1800   23.4957 C   0  0  0  0  0  0  0  0  0  0  0  0
  -22.6509  -10.2770   20.3019 C   0  0  0  0  0  0  0  0  0  0  0  0
  -24.3181   -9.5838   21.9072 C   0  0  0  0  0  0  0  0  0  0  0  0
  -32.7307  -10.4898   25.1602 C   0  0  0  0  0  0  0  0  0  0  0  0
  -32.6401  -13.1505   24.3483 C   0  0  0  0  0  0  0  0  0  0  0  0
  -34.4987  -18.9596   24.9012 C   0  0  0  0  0  0  0  0  0  0  0  0
  -21.9095   -9.1277   20.5756 C   0  0  0  0  0  0  0  0  0  0  0  0
  -23.5766   -8.4345   22.1810 C   0  0  0  0  0  0  0  0  0  0  0  0
  -34.0156  -20.1538   24.3680 C   0  0  0  0  0  0  0  0  0  0  0  0
  -29.9404  -20.0893   18.7682 C   0  0  0  0  0  0  0  0  0  0  0  0
  -30.2591  -18.9020   18.1092 C   0  0  0  0  0  0  0  0  0  0  0  0
  -21.9947   -5.8525   19.7450 C   0  0  0  0  0  0  0  0  0  0  0  0
  -21.4777   -5.1423   18.6615 C   0  0  0  0  0  0  0  0  0  0  0  0
  -32.7720  -20.5495   26.3969 C   0  0  0  0  0  0  0  0  0  0  0  0
  -29.1738  -18.8237   20.6781 C   0  0  0  0  0  0  0  0  0  0  0  0
  -19.2396   -5.4863   19.5039 C   0  0  0  0  0  0  0  0  0  0  0  0
  -23.8553  -10.5051   20.9676 C   0  0  0  0  0  0  0  0  0  0  0  0
  -24.2101  -13.0283   20.8457 C   0  0  0  0  0  0  0  0  0  0  0  0
  -32.2085  -11.4579   26.0324 C   0  0  0  0  0  0  0  0  0  0  0  0
  -34.1128  -18.5453   26.1841 C   0  0  0  0  0  0  0  0  0  0  0  0
  -32.1524  -12.8027   25.6195 C   0  0  0  0  0  0  0  0  0  0  0  0
  -33.2537  -19.3509   26.9450 C   0  0  0  0  0  0  0  0  0  0  0  0
  -29.4925  -17.6363   20.0191 C   0  0  0  0  0  0  0  0  0  0  0  0
  -22.3723   -8.2065   21.5152 C   0  0  0  0  0  0  0  0  0  0  0  0
  -33.1498  -20.9475   25.1147 C   0  0  0  0  0  0  0  0  0  0  0  0
  -29.3978  -20.0502   20.0526 C   0  0  0  0  0  0  0  0  0  0  0  0
  -30.0352  -17.6755   18.7347 C   0  0  0  0  0  0  0  0  0  0  0  0
  -21.1341   -6.3795   20.7080 C   0  0  0  0  0  0  0  0  0  0  0  0
  -20.1002   -4.9593   18.5409 C   0  0  0  0  0  0  0  0  0  0  0  0
  -19.7566   -6.1965   20.5874 C   0  0  0  0  0  0  0  0  0  0  0  0
  -24.6219  -11.6918   20.6849 C   0  0  0  0  0  0  0  0  0  0  0  0
  -25.2922  -13.7720   20.4426 C   0  0  0  0  0  0  0  0  0  0  0  0
  -22.9610  -13.5509   21.3174 C   0  0  0  0  0  0  0  0  0  0  0  0
  -32.5449  -16.0407   27.3556 C   0  0  0  0  0  0  0  0  0  0  0  0
  -33.3614  -17.3557   30.2063 C   0  0  0  0  0  0  0  0  0  0  0  0
  -34.2434  -20.1451   31.9638 C   0  0  0  0  0  0  0  0  0  0  0  0
  -30.9233  -14.4428   20.8395 C   0  0  0  0  0  0  0  0  0  0  0  0
  -31.6591  -11.0135   27.3648 C   0  0  0  0  0  0  0  0  0  0  0  0
  -34.6640  -17.2677   26.7554 C   0  0  0  0  0  0  0  0  0  0  0  0
  -32.8251  -18.9610   28.3353 C   0  0  0  0  0  0  0  0  0  0  0  0
  -31.4630  -12.1585   28.3553 C   0  0  0  0  0  0  0  0  0  0  0  0
  -29.5374  -12.4201   18.0665 C   0  0  0  0  0  0  0  0  0  0  0  0
  -30.7672  -13.3357   27.6793 C   0  0  0  0  0  0  0  0  0  0  0  0
  -28.1250  -12.1061   18.5569 C   0  0  0  0  0  0  0  0  0  0  0  0
  -30.5085  -12.6220   19.2258 C   0  0  0  0  0  0  0  0  0  0  0  0
  -28.6551  -13.3343   20.6995 C   0  0  0  0  0  0  0  0  0  0  0  0
  -31.6131  -13.8881   26.5257 C   0  0  1  0  0  0  0  0  0  0  0  0
  -33.7984  -16.6896   27.8708 C   0  0  1  0  0  0  0  0  0  0  0  0
  -27.6418  -13.1711   19.5566 C   0  0  2  0  0  0  0  0  0  0  0  0
  -34.9998  -21.5217   33.9209 C   0  0  0  0  0  0  0  0  0  0  0  0
  -30.4067  -17.2487   30.9601 C   0  0  0  0  0  0  0  0  0  0  0  0
  -30.8944  -18.8537   32.8187 C   0  0  0  0  0  0  0  0  0  0  0  0
  -31.9762  -16.6060   32.7981 C   0  0  0  0  0  0  0  0  0  0  0  0
  -31.3987  -16.6314   21.8708 C   0  0  0  0  0  0  0  0  0  0  0  0
  -37.0976  -19.7314   31.2997 C   0  0  0  0  0  0  0  0  0  0  0  0
  -30.9011  -16.6580   16.7672 C   0  0  0  0  0  0  0  0  0  0  0  0
  -29.2460  -16.3325   20.7036 C   0  0  0  0  0  0  0  0  0  0  0  0
  -30.7397  -23.3817   23.9455 C   0  0  0  0  0  0  0  0  0  0  0  0
  -29.9384  -23.2800   21.5820 C   0  0  0  0  0  0  0  0  0  0  0  0
  -31.3843  -22.5385   25.0280 C   0  0  0  0  0  0  0  0  0  1  0  0
  -29.8717  -22.3574   20.3809 C   0  0  0  0  0  0  0  0  0  0  0  0
  -32.7303  -18.3598   31.1405 C   0  0  1  0  0  0  0  0  0  0  0  0
  -35.3575  -20.3949   32.9642 C   0  0  2  0  0  0  0  0  0  0  0  0
  -31.5083  -17.7737   31.9024 C   0  0  0  0  0  0  0  0  0  0  0  0
  -25.8684  -11.5892   20.2160 N   0  0  0  0  0  0  0  0  0  0  0  0
  -26.2490  -12.8708   20.0786 N   0  0  0  0  0  0  0  0  0  0  0  0
  -33.3860  -17.6998   28.8473 N   0  0  0  0  0  0  0  0  0  0  0  0
  -30.0046  -13.6075   20.1829 N   0  0  0  0  0  0  0  0  0  0  0  0
  -25.5090  -15.1023   20.3673 N   0  0  0  0  0  0  0  0  0  0  0  0
  -22.8123  -13.7892   22.6905 N   0  0  0  0  0  0  0  0  0  0  0  0
  -32.6933  -14.7044   27.0368 N   0  0  0  0  0  0  0  0  0  0  0  0
  -33.8009  -18.8398   32.0075 N   0  0  0  0  0  0  0  0  0  0  0  0
  -30.4793  -15.7245   21.1984 N   0  0  0  0  0  0  0  0  0  0  0  0
  -36.6167  -20.7613   32.2563 N   0  3  0  0  0  0  0  0  0  0  0  0
  -30.5896  -22.5665   22.7138 N   0  3  0  0  0  0  0  0  0  0  0  0
  -21.9995  -13.7837   20.5462 O   0  0  0  0  0  0  0  0  0  0  0  0
  -31.5187  -16.7031   27.2562 O   0  0  0  0  0  0  0  0  0  0  0  0
  -33.8223  -16.3081   30.6664 O   0  0  0  0  0  0  0  0  0  0  0  0
  -33.8065  -21.0211   31.2207 O   0  0  0  0  0  0  0  0  0  0  0  0
  -32.0776  -14.0679   21.0822 O   0  0  0  0  0  0  0  0  0  0  0  0
  -21.6489   -7.0850   21.7827 O   0  0  0  0  0  0  0  0  0  0  0  0
  -30.3510  -16.5252   18.0763 O   0  0  0  0  0  0  0  0  0  0  0  0
  -32.6763  -22.1133   24.5964 O   0  0  0  0  0  0  0  0  0  1  0  0
  -29.0852  -21.2171   20.6998 O   0  0  0  0  0  0  0  0  0  0  0  0
  -19.6038   -4.2786   17.4995 F   0  0  0  0  0  0  0  0  0  0  0  0
  -18.9248   -6.7015   21.5088 F   0  0  0  0  0  0  0  0  0  0  0  0
  1  2  1  0  0  0  0
  1  5  2  0  0  0  0
  2  6  2  0  0  0  0
  3  8  2  0  0  0  0
  3 18  1  0  0  0  0
  4  9  1  0  0  0  0
  4 18  2  0  0  0  0
  5 20  1  0  0  0  0
  6 22  1  0  0  0  0
  7 10  2  0  0  0  0
  7 21  1  0  0  0  0
  8 25  1  0  0  0  0
  9 25  2  0  0  0  0
 10 26  1  0  0  0  0
 11 12  2  0  0  0  0
 11 27  1  0  0  0  0
 12 28  1  0  0  0  0
 13 14  2  0  0  0  0
 13 29  1  0  0  0  0
 14 30  1  0  0  0  0
 15 23  1  0  0  0  0
 15 26  2  0  0  0  0
 16 24  1  0  0  0  0
 16 27  2  0  0  0  0
 17 30  2  0  0  0  0
 17 31  1  0  0  0  0
 18 32  1  0  0  0  0
 19 32  1  0  0  0  0
 19 33  2  0  0  0  0
 19 34  1  0  0  0  0
 20 22  2  0  0  0  0
 20 39  1  0  0  0  0
 21 23  2  0  0  0  0
 21 40  1  0  0  0  0
 22 48  1  0  0  0  0
 23 41  1  0  0  0  0
 24 28  2  0  0  0  0
 24 58  1  0  0  0  0
 25 82  1  0  0  0  0
 26 84  1  0  0  0  0
 27 85  1  0  0  0  0
 28 83  1  0  0  0  0
 29 31  2  0  0  0  0
 29 82  1  0  0  0  0
 30 86  1  0  0  0  0
 31 87  1  0  0  0  0
 32 66  2  0  0  0  0
 33 67  1  0  0  0  0
 33 70  1  0  0  0  0
 34 71  1  0  0  0  0
 34 77  2  0  0  0  0
 35 49  1  0  0  0  0
 35 72  1  0  0  0  0
 35 78  2  0  0  0  0
 36 63  1  0  0  0  0
 36 68  1  0  0  0  0
 36 79  2  0  0  0  0
 37 64  1  0  0  0  0
 37 73  1  0  0  0  0
 37 80  2  0  0  0  0
 38 69  1  0  0  0  0
 38 74  1  0  0  0  0
 38 81  2  0  0  0  0
 39 42  1  0  0  0  0
 40 49  1  0  0  0  0
 41 68  1  0  0  0  0
 42 44  1  0  0  0  0
 43 45  1  0  0  0  0
 43 46  1  0  0  0  0
 44 48  1  0  0  0  0
 45 50  1  0  0  0  0
 46 69  1  0  0  0  0
 47 50  1  0  0  0  0
 47 69  1  0  0  0  0
 48 72  1  0  0  0  0
 49 68  1  0  0  0  0
 50 67  1  0  0  0  0
 51 64  1  0  0  0  0
 52 65  1  0  0  0  0
 53 65  1  0  0  0  0
 54 65  1  0  0  0  0
 55 74  1  0  0  0  0
 56 75  1  0  0  0  0
 57 83  1  0  0  0  0
 58 74  1  0  0  0  0
 59 61  1  0  0  0  0
 59 76  1  0  0  0  0
 60 62  1  0  0  0  0
 60 76  1  0  0  0  0
 61 84  1  0  0  0  0
 62 85  1  0  0  0  0
 63 65  1  0  0  0  0
 63 73  1  0  0  0  0
 64 75  1  0  0  0  0
 66 67  1  0  0  0  0
M  CHG  2  75   1  76   1
M  ISO  4  38 100  61 101  74 100  84 101
M  END
> <Batch ID>
0142

> <Smiles>
CNC(C)C(=O)NC(C(=O)N1Cc2cc([101O:1][101CH2:1]CNCCOc3ccc(OC)c(C[100N:0](C)[100C:0](=O)N4CCCC(n5nc(-c6ccc(Oc7ccc(F)cc7F)cc6)c(C(N)=O)c5N)C4)c3)ccc2CC1C(=O)NC1CCCc2ccccc21)C(C)(C)C

> <Shape>
0.191

> <Color>
0.155

> <Negative vol penalty>
0.000

$$$$

  -OEChem-04052321183D

 88 98  0     1  0  0  0  0  0999 V2000
  -29.7295  -31.8668   25.5621 C   0  0  0  0  0  0  0  0  0  0  0  0
  -29.3499  -30.6545   24.9948 C   0  0  0  0  0  0  0  0  0  0  0  0
  -23.9436  -10.1865   22.5429 C   0  0  0  0  0  0  0  0  0  0  0  0
  -24.1224  -11.7017   24.4162 C   0  0  0  0  0  0  0  0  0  0  0  0
  -28.7577  -32.7891   25.9482 C   0  0  0  0  0  0  0  0  0  0  0  0
  -27.9982  -30.3635   24.8142 C   0  0  0  0  0  0  0  0  0  0  0  0
  -27.0298  -28.3822   20.2555 C   0  0  0  0  0  0  0  0  0  0  0  0
  -23.3425   -9.2365   23.3686 C   0  0  0  0  0  0  0  0  0  0  0  0
  -23.5212  -10.7517   25.2419 C   0  0  0  0  0  0  0  0  0  0  0  0
  -27.3375  -27.0353   20.0682 C   0  0  0  0  0  0  0  0  0  0  0  0
  -20.2856   -8.6685   24.6975 C   0  0  0  0  0  0  0  0  0  0  0  0
  -19.1550   -8.0110   24.2128 C   0  0  0  0  0  0  0  0  0  0  0  0
  -25.0170  -26.4654   20.3995 C   0  0  0  0  0  0  0  0  0  0  0  0
  -20.2989   -5.8929   24.4179 C   0  0  0  0  0  0  0  0  0  0  0  0
  -24.3336  -11.4191   23.0667 C   0  0  0  0  0  0  0  0  0  0  0  0
  -24.3130  -13.4040   21.4645 C   0  0  0  0  0  0  0  0  0  0  0  0
  -27.3938  -32.5132   25.7633 C   0  0  0  0  0  0  0  0  0  0  0  0
  -25.7130  -28.7804   20.5274 C   0  0  0  0  0  0  0  0  0  0  0  0
  -27.0073  -31.2824   25.1993 C   0  0  0  0  0  0  0  0  0  0  0  0
  -24.6948  -27.8182   20.5873 C   0  0  0  0  0  0  0  0  0  0  0  0
  -23.1312   -9.5191   24.7181 C   0  0  0  0  0  0  0  0  0  0  0  0
  -26.3315  -26.0764   20.1430 C   0  0  0  0  0  0  0  0  0  0  0  0
  -21.4230   -7.9383   25.0422 C   0  0  0  0  0  0  0  0  0  0  0  0
  -19.1616   -6.6232   24.0730 C   0  0  0  0  0  0  0  0  0  0  0  0
  -21.4296   -6.5504   24.9025 C   0  0  0  0  0  0  0  0  0  0  0  0
  -24.9552  -12.4006   22.2145 C   0  0  0  0  0  0  0  0  0  0  0  0
  -25.3357  -14.0672   20.8315 C   0  0  0  0  0  0  0  0  0  0  0  0
  -22.9167  -13.7093   21.3502 C   0  0  0  0  0  0  0  0  0  0  0  0
  -30.4058  -16.4220   21.0289 C   0  0  0  0  0  0  0  0  0  0  0  0
  -24.2653  -30.2341   22.9553 C   0  0  0  0  0  0  0  0  0  0  0  0
  -21.7126  -30.1847   20.9544 C   0  0  0  0  0  0  0  0  0  0  0  0
  -20.1480  -28.7369   18.2893 C   0  0  0  0  0  0  0  0  0  0  0  0
  -26.3782  -33.5213   26.2397 C   0  0  0  0  0  0  0  0  0  0  0  0
  -25.3931  -30.2399   20.7005 C   0  0  0  0  0  0  0  0  0  0  0  0
  -23.2618  -28.1958   20.8565 C   0  0  0  0  0  0  0  0  0  0  0  0
  -24.9804  -33.2936   25.6700 C   0  0  0  0  0  0  0  0  0  0  0  0
  -30.2282  -12.9066   20.3575 C   0  0  0  0  0  0  0  0  0  0  0  0
  -24.5942  -31.8217   25.7755 C   0  0  0  0  0  0  0  0  0  0  0  0
  -26.5043  -21.9389   16.3655 C   0  0  0  0  0  0  0  0  0  0  0  0
  -25.7014  -23.1806   16.6361 C   0  0  0  0  0  0  0  0  0  0  0  0
  -28.7973  -12.5385   20.7477 C   0  0  0  0  0  0  0  0  0  0  0  0
  -29.3393  -22.9226   20.0508 C   0  0  0  0  0  0  0  0  0  0  0  0
  -29.0169  -24.4052   19.9155 C   0  0  0  0  0  0  0  0  0  0  0  0
  -30.1056  -18.8741   20.7219 C   0  0  0  0  0  0  0  0  0  0  0  0
  -30.7938  -13.9917   21.2685 C   0  0  0  0  0  0  0  0  0  0  0  0
  -28.5229  -14.8603   21.7269 C   0  0  0  0  0  0  0  0  0  0  0  0
  -28.3097  -17.4023   20.0897 C   0  0  0  0  0  0  0  0  0  0  0  0
  -25.5519  -30.9406   24.9644 C   0  0  1  0  0  0  0  0  0  0  0  0
  -29.4340  -17.5621   21.0993 C   0  0  1  0  0  0  0  0  0  0  0  0
  -24.1051  -30.4806   21.4818 C   0  0  1  0  0  0  0  0  0  0  0  0
  -27.1496  -23.1201   17.0357 C   0  0  0  0  0  0  0  0  0  0  0  0
  -27.5315  -23.0518   18.4875 C   0  0  1  0  0  0  0  0  0  0  0  0
  -27.9028  -13.7891   20.8123 C   0  0  2  0  0  0  0  0  0  0  0  0
  -28.8809  -22.3534   18.7128 C   0  0  2  0  0  0  0  0  0  0  0  0
  -27.7235  -24.4561   19.0978 C   0  0  1  0  0  0  0  0  0  1  0  0
  -30.0378  -18.8899   19.2020 C   0  0  2  0  0  0  0  0  0  0  0  0
  -18.0567  -28.8909   16.9108 C   0  0  0  0  0  0  0  0  0  0  0  0
  -31.9233  -19.7180   16.8763 C   0  0  0  0  0  0  0  0  0  0  0  0
  -29.5088  -19.5067   16.2367 C   0  0  0  0  0  0  0  0  0  0  0  0
  -20.1376  -28.8462   23.1988 C   0  0  0  0  0  0  0  0  0  0  0  0
  -18.4221  -28.1780   21.5021 C   0  0  0  0  0  0  0  0  0  0  0  0
  -18.8716  -30.5933   21.9342 C   0  0  0  0  0  0  0  0  0  0  0  0
  -21.6779  -29.3128   15.8222 C   0  0  0  0  0  0  0  0  0  0  0  0
  -20.5852  -29.2181   20.6834 C   0  0  1  0  0  0  0  0  0  0  0  0
  -19.5041  -29.3360   17.0520 C   0  0  2  0  0  0  0  0  0  0  0  0
  -30.0772  -20.2763   18.5913 C   0  0  1  0  0  0  0  0  0  0  0  0
  -30.5131  -20.2702   17.1078 C   0  0  0  0  0  0  0  0  0  0  0  0
  -19.5313  -29.2013   21.8265 C   0  0  0  0  0  0  0  0  0  0  0  0
  -26.2831  -12.4207   22.0721 N   0  0  0  0  0  0  0  0  0  0  0  0
  -26.4836  -13.4448   21.2253 N   0  0  0  0  0  0  0  0  0  0  0  0
  -29.9043  -15.1533   21.3205 N   0  0  0  0  0  0  0  0  0  0  0  0
  -23.0004  -29.6348   21.0250 N   0  0  0  0  0  0  0  0  0  0  0  0
  -25.3561  -15.1162   19.9821 N   0  0  0  0  0  0  0  0  0  0  0  0
  -22.0011  -12.9282   22.0684 N   0  0  0  0  0  0  0  0  0  0  0  0
  -25.2353  -31.0150   23.5542 N   0  0  0  0  0  0  0  0  0  0  0  0
  -20.0442  -29.5778   19.3771 N   0  0  0  0  0  0  0  0  0  0  0  0
  -28.7718  -20.9031   18.7531 N   0  0  0  0  0  0  0  0  0  0  0  0
  -28.7233  -18.2282   18.9015 N   0  3  0  0  0  0  0  0  0  0  0  0
  -20.2456  -28.9187   15.8285 N   0  3  0  0  0  0  0  0  0  0  0  0
  -22.4925  -14.6366   20.6197 O   0  0  0  0  0  0  0  0  0  0  0  0
  -31.5787  -16.6489   20.7205 O   0  0  0  0  0  0  0  0  0  0  0  0
  -23.5600  -29.3983   23.5083 O   0  0  0  0  0  0  0  0  0  0  0  0
  -21.4608  -31.3845   21.0910 O   0  0  0  0  0  0  0  0  0  0  0  0
  -20.6859  -27.6318   18.2915 O   0  0  0  0  0  0  0  0  0  0  0  0
  -22.5444   -8.5925   25.5240 O   0  0  0  0  0  0  0  0  0  0  0  0
  -26.6291  -24.7610   19.9613 O   0  0  0  0  0  0  0  0  0  1  0  0
  -18.0752   -5.9917   23.6091 F   0  0  0  0  0  0  0  0  0  0  0  0
  -22.5189   -5.8434   25.2332 F   0  0  0  0  0  0  0  0  0  0  0  0
  1  2  1  0  0  0  0
  1  5  2  0  0  0  0
  2  6  2  0  0  0  0
  3  8  2  0  0  0  0
  3 15  1  0  0  0  0
  4  9  1  0  0  0  0
  4 15  2  0  0  0  0
  5 17  1  0  0  0  0
  6 19  1  0  0  0  0
  7 10  2  0  0  0  0
  7 18  1  0  0  0  0
  8 21  1  0  0  0  0
  9 21  2  0  0  0  0
 10 22  1  0  0  0  0
 11 12  2  0  0  0  0
 11 23  1  0  0  0  0
 12 24  1  0  0  0  0
 13 20  1  0  0  0  0
 13 22  2  0  0  0  0
 14 24  2  0  0  0  0
 14 25  1  0  0  0  0
 15 26  1  0  0  0  0
 16 26  1  0  0  0  0
 16 27  2  0  0  0  0
 16 28  1  0  0  0  0
 17 19  2  0  0  0  0
 17 33  1  0  0  0  0
 18 20  2  0  0  0  0
 18 34  1  0  0  0  0
 19 48  1  0  0  0  0
 20 35  1  0  0  0  0
 21 85  1  0  0  0  0
 22 86  1  0  0  0  0
 23 25  2  0  0  0  0
 23 85  1  0  0  0  0
 24 87  1  0  0  0  0
 25 88  1  0  0  0  0
 26 69  2  0  0  0  0
 27 70  1  0  0  0  0
 27 73  1  0  0  0  0
 28 74  1  0  0  0  0
 28 80  2  0  0  0  0
 29 49  1  0  0  0  0
 29 71  1  0  0  0  0
 29 81  2  0  0  0  0
 30 50  1  0  0  0  0
 30 75  1  0  0  0  0
 30 82  2  0  0  0  0
 31 64  1  0  0  0  0
 31 72  1  0  0  0  0
 31 83  2  0  0  0  0
 32 65  1  0  0  0  0
 32 76  1  0  0  0  0
 32 84  2  0  0  0  0
 33 36  1  0  0  0  0
 34 50  1  0  0  0  0
 35 72  1  0  0  0  0
 36 38  1  0  0  0  0
 37 41  1  0  0  0  0
 37 45  1  0  0  0  0
 38 48  1  0  0  0  0
 39 40  1  0  0  0  0
 39 51  1  0  0  0  0
 40 51  1  0  0  0  0
 41 53  1  0  0  0  0
 42 43  1  0  0  0  0
 42 54  1  0  0  0  0
 43 55  1  0  0  0  0
 44 49  1  0  0  0  0
 44 56  1  0  0  0  0
 45 71  1  0  0  0  0
 46 53  1  0  0  0  0
 46 71  1  0  0  0  0
 47 49  1  0  0  0  0
 47 78  1  0  0  0  0
 48 75  1  0  0  0  0
 50 72  1  0  0  0  0
 51 52  1  0  0  0  0
 52 54  1  0  0  0  0
 52 55  1  0  0  0  0
 53 70  1  0  0  0  0
 54 77  1  0  0  0  0
 55 86  1  0  0  0  0
 56 66  1  0  0  0  0
 56 78  1  0  0  0  0
 57 65  1  0  0  0  0
 58 67  1  0  0  0  0
 59 67  1  0  0  0  0
 60 68  1  0  0  0  0
 61 68  1  0  0  0  0
 62 68  1  0  0  0  0
 63 79  1  0  0  0  0
 64 68  1  0  0  0  0
 64 76  1  0  0  0  0
 65 79  1  0  0  0  0
 66 67  1  0  0  0  0
 66 77  1  0  0  0  0
 69 70  1  0  0  0  0
M  CHG  2  78   1  79   1
M  ISO  4  29 100  49 100  55 101  86 101
M  END
> <Batch ID>
0142

> <Smiles>
CNC(C)C(=O)NC(C(=O)N1Cc2cc([101O:1][101CH:1]3CCC(NC(C(C)C)C4C[100CH:0]([100C:0](=O)N5CCCC(n6nc(-c7ccc(Oc8ccc(F)cc8F)cc7)c(C(N)=O)c6N)C5)CN4)C3C3CC3)ccc2CC1C(=O)NC1CCCc2ccccc21)C(C)(C)C

> <Shape>
0.312

> <Color>
0.105

> <Negative vol penalty>
0.000

$$$$

  -OEChem-04052321183D

 87 96  0     1  0  0  0  0  0999 V2000
  -21.7324  -12.2616   21.0491 C   0  0  0  0  0  0  0  0  0  0  0  0
  -21.7848  -13.5833   21.4801 C   0  0  0  0  0  0  0  0  0  0  0  0
  -28.0234  -23.7863   22.0333 C   0  0  0  0  0  0  0  0  0  0  0  0
  -27.7287  -25.1785   23.9858 C   0  0  0  0  0  0  0  0  0  0  0  0
  -22.9047  -11.6024   20.6816 C   0  0  0  0  0  0  0  0  0  0  0  0
  -23.0099  -14.2462   21.5449 C   0  0  0  0  0  0  0  0  0  0  0  0
  -22.7875  -18.9304   19.6334 C   0  0  0  0  0  0  0  0  0  0  0  0
  -28.0325  -22.6513   22.8440 C   0  0  0  0  0  0  0  0  0  0  0  0
  -27.7379  -24.0435   24.7965 C   0  0  0  0  0  0  0  0  0  0  0  0
  -22.2184  -19.9189   20.4350 C   0  0  0  0  0  0  0  0  0  0  0  0
  -25.5834  -21.5904   25.6690 C   0  0  0  0  0  0  0  0  0  0  0  0
  -24.6131  -21.5009   26.6670 C   0  0  0  0  0  0  0  0  0  0  0  0
  -24.4229  -20.6756   21.0567 C   0  0  0  0  0  0  0  0  0  0  0  0
  -21.6621  -23.9885   22.1263 C   0  0  0  0  0  0  0  0  0  0  0  0
  -26.3484  -21.3962   28.3447 C   0  0  0  0  0  0  0  0  0  0  0  0
  -22.2922  -24.3348   19.4942 C   0  0  0  0  0  0  0  0  0  0  0  0
  -27.8715  -25.0500   22.6042 C   0  0  0  0  0  0  0  0  0  0  0  0
  -28.8903  -26.6656   20.9132 C   0  0  0  0  0  0  0  0  0  0  0  0
  -24.1435  -12.2606   20.7328 C   0  0  0  0  0  0  0  0  0  0  0  0
  -24.1810  -18.7999   19.5457 C   0  0  0  0  0  0  0  0  0  0  0  0
  -24.2000  -13.5948   21.1791 C   0  0  0  0  0  0  0  0  0  0  0  0
  -25.0073  -19.6863   20.2512 C   0  0  0  0  0  0  0  0  0  0  0  0
  -21.4132  -25.2153   21.5211 C   0  0  0  0  0  0  0  0  0  0  0  0
  -27.8898  -22.7798   24.2255 C   0  0  0  0  0  0  0  0  0  0  0  0
  -23.0360  -20.7899   21.1492 C   0  0  0  0  0  0  0  0  0  0  0  0
  -26.9363  -21.5827   26.0088 C   0  0  0  0  0  0  0  0  0  0  0  0
  -21.7319  -25.4001   20.1803 C   0  0  0  0  0  0  0  0  0  0  0  0
  -24.9956  -21.4038   28.0049 C   0  0  0  0  0  0  0  0  0  0  0  0
  -27.3187  -21.4857   27.3467 C   0  0  0  0  0  0  0  0  0  0  0  0
  -27.8626  -26.2229   21.7673 C   0  0  0  0  0  0  0  0  0  0  0  0
  -22.2265  -22.9865   21.3534 C   0  0  0  0  0  0  0  0  0  1  0  0
  -28.3950  -27.8148   20.3470 C   0  0  0  0  0  0  0  0  0  0  0  0
  -30.1775  -26.0895   20.6546 C   0  0  0  0  0  0  0  0  0  0  0  0
  -26.2707  -16.5190   20.2767 C   0  0  0  0  0  0  0  0  0  0  0  0
  -19.3699  -28.3819   22.0451 C   0  0  0  0  0  0  0  0  0  0  0  0
  -28.3778  -18.5356   18.8570 C   0  0  0  0  0  0  0  0  0  0  0  0
  -29.1633  -21.7262   17.9352 C   0  0  0  0  0  0  0  0  0  0  0  0
  -22.8350  -29.8020   19.3530 C   0  0  0  0  0  0  0  0  0  0  0  0
  -25.3895  -11.4918   20.3706 C   0  0  0  0  0  0  0  0  0  0  0  0
  -24.7794  -17.7455   18.6556 C   0  0  0  0  0  0  0  0  0  0  0  0
  -26.5091  -19.6011   20.1754 C   0  0  0  0  0  0  0  0  0  0  0  0
  -26.6013  -12.3832   20.1111 C   0  0  0  0  0  0  0  0  0  0  0  0
  -25.3861  -31.4283   21.2301 C   0  0  0  0  0  0  0  0  0  0  0  0
  -26.7338  -13.4363   21.2066 C   0  0  0  0  0  0  0  0  0  0  0  0
  -26.4028  -30.3186   21.5036 C   0  0  0  0  0  0  0  0  0  0  0  0
  -19.5205  -26.0706   23.0552 C   0  0  0  0  0  0  0  0  0  0  0  0
  -23.9528  -30.9029   21.2700 C   0  0  0  0  0  0  0  0  0  0  0  0
  -24.7093  -28.6364   20.6663 C   0  0  0  0  0  0  0  0  0  0  0  0
  -20.8096  -26.3199   22.3218 C   0  0  2  0  0  0  0  0  0  0  0  0
  -25.5068  -14.3556   21.2394 C   0  0  1  0  0  0  0  0  0  0  0  0
  -26.2077  -17.3759   19.0440 C   0  0  1  0  0  0  0  0  0  0  0  0
  -19.5209  -26.9543   21.8395 C   0  0  2  0  0  0  0  0  0  0  0  0
  -26.1715  -29.1065   20.5813 C   0  0  2  0  0  0  0  0  0  0  0  0
  -30.9703  -23.0676   16.8249 C   0  0  0  0  0  0  0  0  0  0  0  0
  -30.0647  -18.3581   21.3934 C   0  0  0  0  0  0  0  0  0  0  0  0
  -31.3060  -20.3927   20.6267 C   0  0  0  0  0  0  0  0  0  0  0  0
  -31.3744  -18.3047   19.2636 C   0  0  0  0  0  0  0  0  0  0  0  0
  -27.3459  -22.5966   15.7676 C   0  0  0  0  0  0  0  0  0  0  0  0
  -20.4904  -27.9750   17.8783 C   0  0  0  0  0  0  0  0  0  0  0  0
  -21.8216  -28.5761   17.4479 C   0  0  0  0  0  0  0  0  0  0  0  0
  -20.6275  -26.5575   18.4206 C   0  0  0  0  0  0  0  0  0  0  0  0
  -29.2503  -19.6744   19.3269 C   0  0  1  0  0  0  0  0  0  0  0  0
  -29.6729  -22.2997   16.6253 C   0  0  2  0  0  0  0  0  0  0  0  0
  -30.4706  -19.1831   20.1558 C   0  0  0  0  0  0  0  0  0  0  0  0
  -22.5488  -23.1285   20.0481 N   0  0  0  0  0  0  0  0  0  0  0  0
  -26.7951  -27.0255   21.7488 N   0  0  0  0  0  0  0  0  0  0  0  0
  -27.1494  -27.9841   20.8761 N   0  0  0  0  0  0  0  0  0  0  0  0
  -27.0464  -18.5493   19.2964 N   0  0  0  0  0  0  0  0  0  0  0  0
  -23.8000  -29.7552   20.3726 N   0  0  0  0  0  0  0  0  0  0  0  0
  -28.9079  -28.6869   19.4533 N   0  0  0  0  0  0  0  0  0  0  0  0
  -31.2584  -26.4823   21.4557 N   0  0  0  0  0  0  0  0  0  0  0  0
  -25.5760  -15.3292   20.1709 N   0  0  0  0  0  0  0  0  0  0  0  0
  -29.6057  -20.4355   18.1341 N   0  0  0  0  0  0  0  0  0  0  0  0
  -22.7603  -28.6753   18.5433 N   0  0  0  0  0  0  0  0  0  0  0  0
  -28.6640  -23.2262   16.0381 N   0  3  0  0  0  0  0  0  0  0  0  0
  -20.2748  -29.0987   21.5349 O   0  5  0  0  0  0  0  0  0  0  0  0
  -30.3671  -25.2636   19.7297 O   0  0  0  0  0  0  0  0  0  0  0  0
  -26.9039  -16.9079   21.2511 O   0  0  0  0  0  0  0  0  0  0  0  0
  -18.3491  -28.7163   22.7095 O   0  0  0  0  0  0  0  0  0  0  0  0
  -28.8579  -17.6697   18.1212 O   0  0  0  0  0  0  0  0  0  0  0  0
  -28.4476  -22.3612   18.7067 O   0  0  0  0  0  0  0  0  0  0  0  0
  -22.0985  -30.7779   19.1739 O   0  0  0  0  0  0  0  0  0  0  0  0
  -27.8984  -21.6725   25.0169 O   0  0  0  0  0  0  0  0  0  0  0  0
  -22.4831  -21.7552   21.9329 O   0  0  0  0  0  0  0  0  0  1  0  0
  -21.5058  -26.5791   19.5470 O   0  0  0  0  0  0  0  0  0  0  0  0
  -24.0636  -21.3194   28.9633 F   0  0  0  0  0  0  0  0  0  0  0  0
  -28.6168  -21.4791   27.6794 F   0  0  0  0  0  0  0  0  0  0  0  0
  1  2  1  0  0  0  0
  1  5  2  0  0  0  0
  2  6  2  0  0  0  0
  3  8  2  0  0  0  0
  3 17  1  0  0  0  0
  4  9  1  0  0  0  0
  4 17  2  0  0  0  0
  5 19  1  0  0  0  0
  6 21  1  0  0  0  0
  7 10  2  0  0  0  0
  7 20  1  0  0  0  0
  8 24  1  0  0  0  0
  9 24  2  0  0  0  0
 10 25  1  0  0  0  0
 11 12  2  0  0  0  0
 11 26  1  0  0  0  0
 12 28  1  0  0  0  0
 13 22  1  0  0  0  0
 13 25  2  0  0  0  0
 14 23  2  0  0  0  0
 14 31  1  0  0  0  0
 15 28  2  0  0  0  0
 15 29  1  0  0  0  0
 16 27  2  0  0  0  0
 16 65  1  0  0  0  0
 17 30  1  0  0  0  0
 18 30  1  0  0  0  0
 18 32  2  0  0  0  0
 18 33  1  0  0  0  0
 19 21  2  0  0  0  0
 19 39  1  0  0  0  0
 20 22  2  0  0  0  0
 20 40  1  0  0  0  0
 21 50  1  0  0  0  0
 22 41  1  0  0  0  0
 23 27  1  0  0  0  0
 23 49  1  0  0  0  0
 24 83  1  0  0  0  0
 25 84  1  0  0  0  0
 26 29  2  0  0  0  0
 26 83  1  0  0  0  0
 27 85  1  0  0  0  0
 28 86  1  0  0  0  0
 29 87  1  0  0  0  0
 30 66  2  0  0  0  0
 31 65  2  0  0  0  0
 31 84  1  0  0  0  0
 32 67  1  0  0  0  0
 32 70  1  0  0  0  0
 33 71  1  0  0  0  0
 33 77  2  0  0  0  0
 34 51  1  0  0  0  0
 34 72  1  0  0  0  0
 34 78  2  0  0  0  0
 35 52  1  0  0  0  0
 35 76  1  0  0  0  0
 35 79  2  0  0  0  0
 36 62  1  0  0  0  0
 36 68  1  0  0  0  0
 36 80  2  0  0  0  0
 37 63  1  0  0  0  0
 37 73  1  0  0  0  0
 37 81  2  0  0  0  0
 38 69  1  0  0  0  0
 38 74  1  0  0  0  0
 38 82  2  0  0  0  0
 39 42  1  0  0  0  0
 40 51  1  0  0  0  0
 41 68  1  0  0  0  0
 42 44  1  0  0  0  0
 43 45  1  0  0  0  0
 43 47  1  0  0  0  0
 44 50  1  0  0  0  0
 45 53  1  0  0  0  0
 46 49  1  0  0  0  0
 46 52  1  0  0  0  0
 47 69  1  0  0  0  0
 48 53  1  0  0  0  0
 48 69  1  0  0  0  0
 49 52  1  0  0  0  0
 50 72  1  0  0  0  0
 51 68  1  0  0  0  0
 53 67  1  0  0  0  0
 54 63  1  0  0  0  0
 55 64  1  0  0  0  0
 56 64  1  0  0  0  0
 57 64  1  0  0  0  0
 58 75  1  0  0  0  0
 59 60  1  0  0  0  0
 59 61  1  0  0  0  0
 60 74  1  0  0  0  0
 61 85  1  0  0  0  0
 62 64  1  0  0  0  0
 62 73  1  0  0  0  0
 63 75  1  0  0  0  0
 66 67  1  0  0  0  0
M  CHG  2  75   1  76  -1
M  ISO  4  31 101  38 100  74 100  84 101
M  END
> <Batch ID>
0142

> <Smiles>
CNC(C)C(=O)NC(C(=O)N1Cc2cc([101O:1][101c:1]3cc(C4CC4C(=O)O)c(OCCC[100NH:0][100C:0](=O)N4CCCC(n5nc(-c6ccc(Oc7ccc(F)cc7F)cc6)c(C(N)=O)c5N)C4)cn3)ccc2CC1C(=O)NC1CCCc2ccccc21)C(C)(C)C

> <Shape>
0.224

> <Color>
0.072

> <Negative vol penalty>
0.000

$$$$

  -OEChem-04052321183D

 84 93  0     1  0  0  0  0  0999 V2000
  -29.4036  -35.3506   19.1517 C   0  0  0  0  0  0  0  0  0  0  0  0
  -30.1002  -34.1720   18.9048 C   0  0  0  0  0  0  0  0  0  0  0  0
  -22.9186  -10.1388   19.8529 C   0  0  0  0  0  0  0  0  0  0  0  0
  -24.0184   -9.5452   21.9205 C   0  0  0  0  0  0  0  0  0  0  0  0
  -28.2671  -35.3312   19.9591 C   0  0  0  0  0  0  0  0  0  0  0  0
  -29.6614  -32.9733   19.4662 C   0  0  0  0  0  0  0  0  0  0  0  0
  -29.3717  -25.9465   18.1036 C   0  0  0  0  0  0  0  0  0  0  0  0
  -22.1650   -8.9669   19.9173 C   0  0  0  0  0  0  0  0  0  0  0  0
  -23.2648   -8.3733   21.9850 C   0  0  0  0  0  0  0  0  0  0  0  0
  -29.7069  -24.7227   18.6813 C   0  0  0  0  0  0  0  0  0  0  0  0
  -20.1304   -7.4751   22.8736 C   0  0  0  0  0  0  0  0  0  0  0  0
  -19.5597   -7.1401   24.1014 C   0  0  0  0  0  0  0  0  0  0  0  0
  -27.6854  -24.7961   19.9955 C   0  0  0  0  0  0  0  0  0  0  0  0
  -28.7671  -19.9777   20.8979 C   0  0  0  0  0  0  0  0  0  0  0  0
  -29.3925  -21.0736   22.9581 C   0  0  0  0  0  0  0  0  0  0  0  0
  -20.8007   -5.0673   24.1127 C   0  0  0  0  0  0  0  0  0  0  0  0
  -23.8454  -10.4280   20.8545 C   0  0  0  0  0  0  0  0  0  0  0  0
  -24.2903  -12.8951   21.3271 C   0  0  0  0  0  0  0  0  0  0  0  0
  -27.8085  -34.1301   20.5228 C   0  0  0  0  0  0  0  0  0  0  0  0
  -28.1942  -26.6107   18.4763 C   0  0  0  0  0  0  0  0  0  0  0  0
  -28.5185  -32.9380   20.2830 C   0  0  0  0  0  0  0  0  0  0  0  0
  -27.3362  -26.0270   19.4192 C   0  0  0  0  0  0  0  0  0  0  0  0
  -29.8383  -18.7180   22.6593 C   0  0  0  0  0  0  0  0  0  0  0  0
  -28.8269  -21.1282   21.6842 C   0  0  0  0  0  0  0  0  0  0  0  0
  -29.2727  -18.7726   21.3854 C   0  0  0  0  0  0  0  0  0  0  0  0
  -29.8982  -19.8685   23.4457 C   0  0  0  0  0  0  0  0  0  0  0  0
  -22.3381   -8.0841   20.9833 C   0  0  0  0  0  0  0  0  0  0  0  0
  -28.8652  -24.1487   19.6294 C   0  0  0  0  0  0  0  0  0  0  0  0
  -21.0363   -6.6062   22.2652 C   0  0  0  0  0  0  0  0  0  0  0  0
  -19.8948   -5.9362   24.7210 C   0  0  0  0  0  0  0  0  0  0  0  0
  -21.3714   -5.4022   22.8848 C   0  0  0  0  0  0  0  0  0  0  0  0
  -24.6246  -11.6382   20.7882 C   0  0  0  0  0  0  0  0  0  0  0  0
  -25.3503  -13.7034   20.9963 C   0  0  0  0  0  0  0  0  0  0  0  0
  -23.1258  -13.2960   22.0611 C   0  0  0  0  0  0  0  0  0  0  0  0
  -27.5299  -29.4059   19.8362 C   0  0  0  0  0  0  0  0  0  0  0  0
  -24.4677  -28.5471   19.1979 C   0  0  0  0  0  0  0  0  0  0  0  0
  -22.2240  -26.0448   18.6051 C   0  0  0  0  0  0  0  0  0  0  0  0
  -30.8334  -14.6052   20.5443 C   0  0  0  0  0  0  0  0  0  0  0  0
  -26.6023  -34.1667   21.4275 C   0  0  0  0  0  0  0  0  0  0  0  0
  -27.8336  -27.9173   17.8242 C   0  0  0  0  0  0  0  0  0  0  0  0
  -26.0504  -26.6898   19.8387 C   0  0  0  0  0  0  0  0  0  0  0  0
  -25.9879  -32.7921   21.6794 C   0  0  0  0  0  0  0  0  0  0  0  0
  -29.2399  -12.9141   17.8587 C   0  0  0  0  0  0  0  0  0  0  0  0
  -31.7126  -17.3820   24.0746 C   0  0  0  0  0  0  0  0  0  0  0  0
  -27.0740  -31.7758   22.0174 C   0  0  0  0  0  0  0  0  0  0  0  0
  -27.8709  -12.5328   18.4248 C   0  0  0  0  0  0  0  0  0  0  0  0
  -32.0736  -16.0132   23.4685 C   0  0  0  0  0  0  0  0  0  0  0  0
  -30.3369  -12.8085   18.9159 C   0  0  0  0  0  0  0  0  0  0  0  0
  -28.7063  -13.1733   20.7253 C   0  0  0  0  0  0  0  0  0  0  0  0
  -30.4134  -17.3467   23.2135 C   0  0  2  0  0  0  0  0  0  0  0  0
  -28.0595  -31.6138   20.8538 C   0  0  1  0  0  0  0  0  0  0  0  0
  -26.8663  -28.7535   18.6565 C   0  0  1  0  0  0  0  0  0  0  0  0
  -27.5574  -13.3184   19.7126 C   0  0  2  0  0  0  0  0  0  0  0  0
  -31.2120  -16.4099   22.2496 C   0  0  2  0  0  0  0  0  0  0  0  0
  -29.1983  -17.5534   20.5265 C   0  0  0  0  0  0  0  0  0  0  0  0
  -30.4982  -19.8334   24.8126 C   0  0  0  0  0  0  0  0  0  0  0  0
  -19.7868  -25.6498   18.1565 C   0  0  0  0  0  0  0  0  0  0  0  0
  -23.8485  -29.0351   22.1456 C   0  0  0  0  0  0  0  0  0  0  0  0
  -21.7242  -27.7456   21.8410 C   0  0  0  0  0  0  0  0  0  0  0  0
  -22.0952  -29.8548   20.5617 C   0  0  0  0  0  0  0  0  0  0  0  0
  -22.7879  -24.8262   15.9677 C   0  0  0  0  0  0  0  0  0  0  0  0
  -28.2821  -22.4241   21.1598 C   0  0  0  0  0  0  0  0  0  1  0  0
  -23.3967  -27.7798   19.9351 C   0  0  1  0  0  0  0  0  0  0  0  0
  -21.1568  -25.8808   17.5380 C   0  0  2  0  0  0  0  0  0  0  0  0
  -22.7913  -28.5920   21.1146 C   0  0  0  0  0  0  0  0  0  0  0  0
  -25.8046  -11.6428   20.1625 N   0  0  0  0  0  0  0  0  0  0  0  0
  -26.2210  -12.9124   20.3060 N   0  0  0  0  0  0  0  0  0  0  0  0
  -25.7449  -27.9691   19.1773 N   0  0  0  0  0  0  0  0  0  0  0  0
  -29.9780  -13.5813   20.1078 N   0  0  0  0  0  0  0  0  0  0  0  0
  -25.6132  -15.0065   21.2314 N   0  0  0  0  0  0  0  0  0  0  0  0
  -22.1330  -12.3395   22.3137 N   0  0  0  0  0  0  0  0  0  0  0  0
  -27.4836  -30.7868   19.8151 N   0  0  0  0  0  0  0  0  0  0  0  0
  -22.4225  -27.3702   18.9294 N   0  0  0  0  0  0  0  0  0  0  0  0
  -30.4222  -15.3006   21.6767 N   0  0  0  0  0  0  0  0  0  0  0  0
  -21.4772  -24.7208   16.6590 N   0  3  0  0  0  0  0  0  0  0  0  0
  -22.9626  -14.4719   22.4664 O   0  0  0  0  0  0  0  0  0  0  0  0
  -28.0445  -28.7081   20.7022 O   0  0  0  0  0  0  0  0  0  0  0  0
  -24.1798  -29.6163   18.6542 O   0  0  0  0  0  0  0  0  0  0  0  0
  -22.8192  -25.0922   19.1039 O   0  0  0  0  0  0  0  0  0  0  0  0
  -31.8875  -14.8908   19.9659 O   0  0  0  0  0  0  0  0  0  0  0  0
  -21.6027   -6.9405   21.0466 O   0  0  0  0  0  0  0  0  0  0  0  0
  -29.1903  -22.9545   20.1953 O   0  0  0  0  0  0  0  0  0  1  0  0
  -19.3478   -5.6154   25.9008 F   0  0  0  0  0  0  0  0  0  0  0  0
  -22.2420   -4.5639   22.3059 F   0  0  0  0  0  0  0  0  0  0  0  0
  1  2  1  0  0  0  0
  1  5  2  0  0  0  0
  2  6  2  0  0  0  0
  3  8  2  0  0  0  0
  3 17  1  0  0  0  0
  4  9  1  0  0  0  0
  4 17  2  0  0  0  0
  5 19  1  0  0  0  0
  6 21  1  0  0  0  0
  7 10  2  0  0  0  0
  7 20  1  0  0  0  0
  8 27  1  0  0  0  0
  9 27  2  0  0  0  0
 10 28  1  0  0  0  0
 11 12  2  0  0  0  0
 11 29  1  0  0  0  0
 12 30  1  0  0  0  0
 13 22  1  0  0  0  0
 13 28  2  0  0  0  0
 14 24  1  0  0  0  0
 14 25  2  0  0  0  0
 15 24  2  0  0  0  0
 15 26  1  0  0  0  0
 16 30  2  0  0  0  0
 16 31  1  0  0  0  0
 17 32  1  0  0  0  0
 18 32  1  0  0  0  0
 18 33  2  0  0  0  0
 18 34  1  0  0  0  0
 19 21  2  0  0  0  0
 19 39  1  0  0  0  0
 20 22  2  0  0  0  0
 20 40  1  0  0  0  0
 21 51  1  0  0  0  0
 22 41  1  0  0  0  0
 23 25  1  0  0  0  0
 23 26  2  0  0  0  0
 23 50  1  0  0  0  0
 24 62  1  0  0  0  0
 25 55  1  0  0  0  0
 26 56  1  0  0  0  0
 27 81  1  0  0  0  0
 28 82  1  0  0  0  0
 29 31  2  0  0  0  0
 29 81  1  0  0  0  0
 30 83  1  0  0  0  0
 31 84  1  0  0  0  0
 32 66  2  0  0  0  0
 33 67  1  0  0  0  0
 33 70  1  0  0  0  0
 34 71  1  0  0  0  0
 34 76  2  0  0  0  0
 35 52  1  0  0  0  0
 35 72  1  0  0  0  0
 35 77  2  0  0  0  0
 36 63  1  0  0  0  0
 36 68  1  0  0  0  0
 36 78  2  0  0  0  0
 37 64  1  0  0  0  0
 37 73  1  0  0  0  0
 37 79  2  0  0  0  0
 38 69  1  0  0  0  0
 38 74  1  0  0  0  0
 38 80  2  0  0  0  0
 39 42  1  0  0  0  0
 40 52  1  0  0  0  0
 41 68  1  0  0  0  0
 42 45  1  0  0  0  0
 43 46  1  0  0  0  0
 43 48  1  0  0  0  0
 44 47  1  0  0  0  0
 44 50  1  0  0  0  0
 45 51  1  0  0  0  0
 46 53  1  0  0  0  0
 47 54  1  0  0  0  0
 48 69  1  0  0  0  0
 49 53  1  0  0  0  0
 49 69  1  0  0  0  0
 50 54  1  0  0  0  0
 51 72  1  0  0  0  0
 52 68  1  0  0  0  0
 53 67  1  0  0  0  0
 54 74  1  0  0  0  0
 57 64  1  0  0  0  0
 58 65  1  0  0  0  0
 59 65  1  0  0  0  0
 60 65  1  0  0  0  0
 61 75  1  0  0  0  0
 62 82  1  0  0  0  0
 63 65  1  0  0  0  0
 63 73  1  0  0  0  0
 64 75  1  0  0  0  0
 66 67  1  0  0  0  0
M  CHG  1  75   1
M  ISO  4  38 100  62 101  74 100  82 101
M  END
> <Batch ID>
0142

> <Smiles>
CNC(C)C(=O)NC(C(=O)N1Cc2cc([101O:1][101CH2:1]c3cc(C)c(C4CCC4[100NH:0][100C:0](=O)N4CCCC(n5nc(-c6ccc(Oc7ccc(F)cc7F)cc6)c(C(N)=O)c5N)C4)c(C)c3)ccc2CC1C(=O)NC1CCCc2ccccc21)C(C)(C)C

> <Shape>
0.319

> <Color>
0.154

> <Negative vol penalty>
0.000

$$$$

  -OEChem-04052321183D

 87 96  0     1  0  0  0  0  0999 V2000
  -22.0486  -23.5012   21.8065 C   0  0  0  0  0  0  0  0  0  0  0  0
  -22.8906  -22.7248   22.5963 C   0  0  0  0  0  0  0  0  0  0  0  0
  -22.6665  -10.2173   20.1719 C   0  0  0  0  0  0  0  0  0  0  0  0
  -24.3189   -9.4302   21.7489 C   0  0  0  0  0  0  0  0  0  0  0  0
  -22.5388  -24.6507   21.1881 C   0  0  0  0  0  0  0  0  0  0  0  0
  -24.2236  -23.0968   22.7671 C   0  0  0  0  0  0  0  0  0  0  0  0
  -27.6354  -22.3602   27.7993 C   0  0  0  0  0  0  0  0  0  0  0  0
  -28.5855  -19.2159   23.8711 C   0  0  0  0  0  0  0  0  0  0  0  0
  -21.9268   -9.0506   20.3646 C   0  0  0  0  0  0  0  0  0  0  0  0
  -23.5792   -8.2635   21.9417 C   0  0  0  0  0  0  0  0  0  0  0  0
  -28.5762  -21.3974   28.1620 C   0  0  0  0  0  0  0  0  0  0  0  0
  -27.9397  -19.8292   22.7983 C   0  0  0  0  0  0  0  0  0  0  0  0
  -20.8312   -7.3146   23.6647 C   0  0  0  0  0  0  0  0  0  0  0  0
  -20.6474   -6.8748   24.9755 C   0  0  0  0  0  0  0  0  0  0  0  0
  -30.3458  -22.8464   27.3948 C   0  0  0  0  0  0  0  0  0  0  0  0
  -29.2276  -18.4870   21.2662 C   0  0  0  0  0  0  0  0  0  0  0  0
  -21.7595   -4.7992   24.4349 C   0  0  0  0  0  0  0  0  0  0  0  0
  -23.8626  -10.4071   20.8640 C   0  0  0  0  0  0  0  0  0  0  0  0
  -24.2085  -12.9343   20.9047 C   0  0  0  0  0  0  0  0  0  0  0  0
  -23.8759  -25.0422   21.3593 C   0  0  0  0  0  0  0  0  0  0  0  0
  -28.0426  -23.5709   27.2206 C   0  0  0  0  0  0  0  0  0  0  0  0
  -29.5655  -18.2301   23.6578 C   0  0  0  0  0  0  0  0  0  0  0  0
  -24.7324  -24.2518   22.1493 C   0  0  0  0  0  0  0  0  0  0  0  0
  -29.4082  -23.8239   27.0281 C   0  0  0  0  0  0  0  0  0  0  0  0
  -29.8877  -17.8584   22.3373 C   0  0  0  0  0  0  0  0  0  0  0  0
  -22.3831   -8.0737   21.2495 C   0  0  0  0  0  0  0  0  0  0  0  0
  -28.2628  -19.4667   21.4956 C   0  0  0  0  0  0  0  0  0  0  0  0
  -29.9315  -21.6392   27.9571 C   0  0  0  0  0  0  0  0  0  0  0  0
  -21.4791   -6.4967   22.7389 C   0  0  0  0  0  0  0  0  0  0  0  0
  -21.1116   -5.6170   25.3606 C   0  0  0  0  0  0  0  0  0  0  0  0
  -21.9433   -5.2390   23.1240 C   0  0  0  0  0  0  0  0  0  0  0  0
  -24.6275  -11.6119   20.6649 C   0  0  0  0  0  0  0  0  0  0  0  0
  -25.2919  -13.7054   20.5612 C   0  0  0  0  0  0  0  0  0  0  0  0
  -22.9522  -13.4219   21.3944 C   0  0  0  0  0  0  0  0  0  0  0  0
  -27.5452  -25.0003   24.4255 C   0  0  0  0  0  0  0  0  0  0  0  0
  -29.1408  -27.4478   25.8347 C   0  0  0  0  0  0  0  0  0  0  0  0
  -31.3578  -28.4690   28.2199 C   0  0  0  0  0  0  0  0  0  0  0  0
  -30.7818  -14.7036   20.6579 C   0  0  0  0  0  0  0  0  0  0  0  0
  -24.3725  -26.2669   20.6324 C   0  0  0  0  0  0  0  0  0  0  0  0
  -27.0170  -24.6102   26.8596 C   0  0  0  0  0  0  0  0  0  0  0  0
  -29.8986  -25.1159   26.4291 C   0  0  0  0  0  0  0  0  0  0  0  0
  -25.7005  -26.7962   21.1677 C   0  0  0  0  0  0  0  0  0  0  0  0
  -29.5682  -12.4870   18.1498 C   0  0  0  0  0  0  0  0  0  0  0  0
  -30.9892  -16.3080   24.5120 C   0  0  0  0  0  0  0  0  0  0  0  0
  -26.6941  -25.6540   21.3546 C   0  0  0  0  0  0  0  0  0  0  0  0
  -31.7963  -16.4363   23.2243 C   0  0  0  0  0  0  0  0  0  0  0  0
  -28.1431  -12.1662   18.6037 C   0  0  0  0  0  0  0  0  0  0  0  0
  -30.5205  -12.6252   19.3356 C   0  0  0  0  0  0  0  0  0  0  0  0
  -28.6620  -13.2630   20.8233 C   0  0  0  0  0  0  0  0  0  0  0  0
  -30.2666  -17.6196   24.8579 C   0  0  1  0  0  0  0  0  0  0  0  0
  -26.1781  -24.6360   22.3788 C   0  0  1  0  0  0  0  0  0  0  0  0
  -30.8900  -16.7657   22.0346 C   0  0  1  0  0  0  0  0  0  0  0  0
  -27.5106  -25.5955   25.8047 C   0  0  1  0  0  0  0  0  0  0  0  0
  -27.6536  -13.1694   19.6654 C   0  0  2  0  0  0  0  0  0  0  0  0
  -32.4917  -30.5257   29.1039 C   0  0  0  0  0  0  0  0  0  0  0  0
  -31.0181  -27.4438   23.4294 C   0  0  0  0  0  0  0  0  0  0  0  0
  -32.6302  -28.8087   24.7733 C   0  0  0  0  0  0  0  0  0  0  0  0
  -30.3689  -29.7180   24.2421 C   0  0  0  0  0  0  0  0  0  0  0  0
  -30.1439  -28.1284   30.8975 C   0  0  0  0  0  0  0  0  0  0  0  0
  -26.6552  -21.0542   20.7532 C   0  0  0  0  0  0  0  0  0  0  0  0
  -31.2339  -18.6323   25.4855 C   0  0  0  0  0  0  0  0  0  0  0  0
  -31.6059  -18.2398   26.9156 C   0  0  0  0  0  0  0  0  0  0  0  0
  -32.6023  -19.2319   27.5223 C   0  0  0  0  0  0  0  0  0  0  0  0
  -32.0570  -20.6545   27.5469 C   0  0  0  0  0  0  0  0  0  1  0  0
  -30.5895  -27.8590   25.9413 C   0  0  1  0  0  0  0  0  0  0  0  0
  -31.2963  -29.5949   29.2362 C   0  0  2  0  0  0  0  0  0  0  0  0
  -31.1426  -28.4321   24.6061 C   0  0  0  0  0  0  0  0  0  0  0  0
  -25.8794  -11.5432   20.2044 N   0  0  0  0  0  0  0  0  0  0  0  0
  -26.2563  -12.8321   20.1520 N   0  0  0  0  0  0  0  0  0  0  0  0
  -28.8567  -26.0982   26.0867 N   0  0  0  0  0  0  0  0  0  0  0  0
  -29.9990  -13.5921   20.3047 N   0  0  0  0  0  0  0  0  0  0  0  0
  -25.5041  -15.0386   20.5721 N   0  0  0  0  0  0  0  0  0  0  0  0
  -22.7876  -13.5730   22.7780 N   0  0  0  0  0  0  0  0  0  0  0  0
  -26.3620  -25.1354   23.7246 N   0  0  0  0  0  0  0  0  0  0  0  0
  -30.6697  -28.7834   27.0671 N   0  0  0  0  0  0  0  0  0  0  0  0
  -30.2102  -15.5741   21.5778 N   0  0  0  0  0  0  0  0  0  0  0  0
  -31.2813  -29.0430   30.6205 N   0  3  0  0  0  0  0  0  0  0  0  0
  -21.9982  -13.6995   20.6287 O   0  0  0  0  0  0  0  0  0  0  0  0
  -28.5700  -24.4599   24.0262 O   0  0  0  0  0  0  0  0  0  0  0  0
  -28.2916  -28.2946   25.5458 O   0  0  0  0  0  0  0  0  0  0  0  0
  -31.9594  -27.4173   28.4264 O   0  0  0  0  0  0  0  0  0  0  0  0
  -31.9047  -14.9082   20.1842 O   0  0  0  0  0  0  0  0  0  0  0  0
  -21.6614   -6.9352   21.4380 O   0  0  0  0  0  0  0  0  0  0  0  0
  -27.6354  -20.0636   20.4462 O   0  0  0  0  0  0  0  0  0  0  0  0
  -30.8519  -20.7009   28.3097 O   0  0  0  0  0  0  0  0  0  1  0  0
  -20.9364   -5.1954   26.6199 F   0  0  0  0  0  0  0  0  0  0  0  0
  -22.5675   -4.4493   22.2394 F   0  0  0  0  0  0  0  0  0  0  0  0
  1  2  1  0  0  0  0
  1  5  2  0  0  0  0
  2  6  2  0  0  0  0
  3  9  2  0  0  0  0
  3 18  1  0  0  0  0
  4 10  1  0  0  0  0
  4 18  2  0  0  0  0
  5 20  1  0  0  0  0
  6 23  1  0  0  0  0
  7 11  2  0  0  0  0
  7 21  1  0  0  0  0
  8 12  2  0  0  0  0
  8 22  1  0  0  0  0
  9 26  1  0  0  0  0
 10 26  2  0  0  0  0
 11 28  1  0  0  0  0
 12 27  1  0  0  0  0
 13 14  2  0  0  0  0
 13 29  1  0  0  0  0
 14 30  1  0  0  0  0
 15 24  1  0  0  0  0
 15 28  2  0  0  0  0
 16 25  1  0  0  0  0
 16 27  2  0  0  0  0
 17 30  2  0  0  0  0
 17 31  1  0  0  0  0
 18 32  1  0  0  0  0
 19 32  1  0  0  0  0
 19 33  2  0  0  0  0
 19 34  1  0  0  0  0
 20 23  2  0  0  0  0
 20 39  1  0  0  0  0
 21 24  2  0  0  0  0
 21 40  1  0  0  0  0
 22 25  2  0  0  0  0
 22 50  1  0  0  0  0
 23 51  1  0  0  0  0
 24 41  1  0  0  0  0
 25 52  1  0  0  0  0
 26 83  1  0  0  0  0
 27 84  1  0  0  0  0
 28 85  1  0  0  0  0
 29 31  2  0  0  0  0
 29 83  1  0  0  0  0
 30 86  1  0  0  0  0
 31 87  1  0  0  0  0
 32 68  2  0  0  0  0
 33 69  1  0  0  0  0
 33 72  1  0  0  0  0
 34 73  1  0  0  0  0
 34 78  2  0  0  0  0
 35 53  1  0  0  0  0
 35 74  1  0  0  0  0
 35 79  2  0  0  0  0
 36 65  1  0  0  0  0
 36 70  1  0  0  0  0
 36 80  2  0  0  0  0
 37 66  1  0  0  0  0
 37 75  1  0  0  0  0
 37 81  2  0  0  0  0
 38 71  1  0  0  0  0
 38 76  1  0  0  0  0
 38 82  2  0  0  0  0
 39 42  1  0  0  0  0
 40 53  1  0  0  0  0
 41 70  1  0  0  0  0
 42 45  1  0  0  0  0
 43 47  1  0  0  0  0
 43 48  1  0  0  0  0
 44 46  1  0  0  0  0
 44 50  1  0  0  0  0
 45 51  1  0  0  0  0
 46 52  1  0  0  0  0
 47 54  1  0  0  0  0
 48 71  1  0  0  0  0
 49 54  1  0  0  0  0
 49 71  1  0  0  0  0
 50 61  1  0  0  0  0
 51 74  1  0  0  0  0
 52 76  1  0  0  0  0
 53 70  1  0  0  0  0
 54 69  1  0  0  0  0
 55 66  1  0  0  0  0
 56 67  1  0  0  0  0
 57 67  1  0  0  0  0
 58 67  1  0  0  0  0
 59 77  1  0  0  0  0
 60 84  1  0  0  0  0
 61 62  1  0  0  0  0
 62 63  1  0  0  0  0
 63 64  1  0  0  0  0
 64 85  1  0  0  0  0
 65 67  1  0  0  0  0
 65 75  1  0  0  0  0
 66 77  1  0  0  0  0
 68 69  1  0  0  0  0
M  CHG  1  77   1
M  ISO  4  38 100  64 101  76 100  85 101
M  END
> <Batch ID>
0142

> <Smiles>
CNC(C)C(=O)NC(C(=O)N1Cc2cc([101O:1][101CH2:1]CCCC3CCC([100NH:0][100C:0](=O)N4CCCC(n5nc(-c6ccc(Oc7ccc(F)cc7F)cc6)c(C(N)=O)c5N)C4)c4cc(OC)ccc43)ccc2CC1C(=O)NC1CCCc2ccccc21)C(C)(C)C

> <Shape>
0.210

> <Color>
0.180

> <Negative vol penalty>
0.000

$$$$

  -OEChem-04052321183D

 86 95  0     1  0  0  0  0  0999 V2000
  -19.4189  -28.4240   22.9324 C   0  0  0  0  0  0  0  0  0  0  0  0
  -20.7095  -27.9051   22.9559 C   0  0  0  0  0  0  0  0  0  0  0  0
  -23.3288   -9.7853   19.9522 C   0  0  0  0  0  0  0  0  0  0  0  0
  -23.6717  -10.0452   22.3295 C   0  0  0  0  0  0  0  0  0  0  0  0
  -18.3403  -27.5937   22.6307 C   0  0  0  0  0  0  0  0  0  0  0  0
  -20.9221  -26.5552   22.6787 C   0  0  0  0  0  0  0  0  0  0  0  0
  -25.7367  -24.1027   19.7959 C   0  0  0  0  0  0  0  0  0  0  0  0
  -22.6065   -8.6149   20.1843 C   0  0  0  0  0  0  0  0  0  0  0  0
  -22.9493   -8.8748   22.5617 C   0  0  0  0  0  0  0  0  0  0  0  0
  -26.8924  -23.4789   20.2640 C   0  0  0  0  0  0  0  0  0  0  0  0
  -30.3058  -18.8515   23.9438 C   0  0  0  0  0  0  0  0  0  0  0  0
  -30.6881  -17.5538   24.2834 C   0  0  0  0  0  0  0  0  0  0  0  0
  -20.3648   -5.7531   20.1740 C   0  0  0  0  0  0  0  0  0  0  0  0
  -19.1691   -5.5799   19.4768 C   0  0  0  0  0  0  0  0  0  0  0  0
  -25.8458  -21.3266   19.9623 C   0  0  0  0  0  0  0  0  0  0  0  0
  -28.0176  -18.1145   23.7032 C   0  0  0  0  0  0  0  0  0  0  0  0
  -18.2914   -7.5940   20.4819 C   0  0  0  0  0  0  0  0  0  0  0  0
  -23.8615  -10.5005   21.0248 C   0  0  0  0  0  0  0  0  0  0  0  0
  -24.1024  -13.0212   20.7153 C   0  0  0  0  0  0  0  0  0  0  0  0
  -18.5409  -26.2350   22.3402 C   0  0  0  0  0  0  0  0  0  0  0  0
  -24.6211  -23.3422   19.4171 C   0  0  0  0  0  0  0  0  0  0  0  0
  -19.8451  -25.7055   22.3741 C   0  0  0  0  0  0  0  0  0  0  0  0
  -24.6780  -21.9430   19.4873 C   0  0  0  0  0  0  0  0  0  0  0  0
  -28.3999  -16.8167   24.0427 C   0  0  0  0  0  0  0  0  0  0  0  0
  -22.4167   -8.1597   21.4890 C   0  0  0  0  0  0  0  0  0  0  0  0
  -26.9460  -22.0908   20.3500 C   0  0  0  0  0  0  0  0  0  0  0  0
  -28.9705  -19.1319   23.6537 C   0  0  0  0  0  0  0  0  0  0  0  0
  -29.7352  -16.5364   24.3328 C   0  0  0  0  0  0  0  0  0  0  0  0
  -20.5237   -6.8467   21.0251 C   0  0  0  0  0  0  0  0  0  0  0  0
  -18.1324   -6.5004   19.6308 C   0  0  0  0  0  0  0  0  0  0  0  0
  -19.4870   -7.7672   21.1790 C   0  0  0  0  0  0  0  0  0  0  0  0
  -24.6083  -11.7093   20.7856 C   0  0  0  0  0  0  0  0  0  0  0  0
  -25.2058  -13.8020   20.4717 C   0  0  0  0  0  0  0  0  0  0  0  0
  -22.7557  -13.4919   20.8577 C   0  0  0  0  0  0  0  0  0  0  0  0
  -21.6156  -23.1127   20.4260 C   0  0  0  0  0  0  0  0  0  0  0  0
  -21.3102  -21.1652   17.8498 C   0  0  0  0  0  0  0  0  0  0  0  0
  -22.8096  -19.0929   15.5906 C   0  0  0  0  0  0  0  0  0  0  0  0
  -31.0430  -13.0747   21.5894 C   0  0  0  0  0  0  0  0  0  0  0  0
  -17.3389  -25.3662   22.0660 C   0  0  0  0  0  0  0  0  0  0  0  0
  -23.3915  -24.0290   18.8890 C   0  0  0  0  0  0  0  0  0  0  0  0
  -23.5148  -21.0802   19.0738 C   0  0  0  0  0  0  0  0  0  0  0  0
  -17.6888  -24.0297   21.4166 C   0  0  0  0  0  0  0  0  0  0  0  0
  -29.5250  -13.6448   18.4196 C   0  0  0  0  0  0  0  0  0  0  0  0
  -26.1561  -15.9289   24.9653 C   0  0  0  0  0  0  0  0  0  0  0  0
  -27.2071  -14.9372   25.3553 C   0  0  0  0  0  0  0  0  0  0  0  0
  -18.8627  -23.3763   22.1390 C   0  0  0  0  0  0  0  0  0  0  0  0
  -28.0471  -13.3318   18.6602 C   0  0  0  0  0  0  0  0  0  0  0  0
  -30.4361  -12.7126   19.2151 C   0  0  0  0  0  0  0  0  0  0  0  0
  -28.6779  -12.3459   20.9027 C   0  0  0  0  0  0  0  0  0  0  0  0
  -27.3677  -15.7400   24.0916 C   0  0  0  0  0  0  0  0  0  0  0  0
  -20.1188  -24.2519   22.0547 C   0  0  1  0  0  0  0  0  0  0  0  0
  -22.1311  -23.1790   19.0162 C   0  0  1  0  0  0  0  0  0  0  0  0
  -27.7193  -13.2962   20.1650 C   0  0  2  0  0  0  0  0  0  0  0  0
  -22.2952  -17.6166   13.6277 C   0  0  0  0  0  0  0  0  0  0  0  0
  -20.1812  -19.0514   19.7386 C   0  0  0  0  0  0  0  0  0  0  0  0
  -20.5797  -17.3428   17.9525 C   0  0  0  0  0  0  0  0  0  0  0  0
  -18.9975  -19.2274   17.5426 C   0  0  0  0  0  0  0  0  0  0  0  0
  -24.5351  -20.6877   13.7911 C   0  0  0  0  0  0  0  0  0  0  0  0
  -31.4944  -13.4109   24.0065 C   0  0  0  0  0  0  0  0  0  0  0  0
  -31.4576  -14.8966   24.3169 C   0  0  0  0  0  0  0  0  0  0  0  0
  -28.8627  -22.1977   21.7540 C   0  0  0  0  0  0  0  0  0  1  0  0
  -29.5684  -21.2089   22.6615 C   0  0  0  0  0  0  0  0  0  0  0  0
  -21.4831  -19.6863   17.6012 C   0  0  1  0  0  0  0  0  0  0  0  0
  -22.7079  -19.0092   14.0783 C   0  0  2  0  0  0  0  0  0  0  0  0
  -20.3318  -18.8430   18.2184 C   0  0  0  0  0  0  0  0  0  0  0  0
  -25.9301  -11.6558   20.6013 N   0  0  0  0  0  0  0  0  0  0  0  0
  -26.2642  -12.9438   20.4127 N   0  0  0  0  0  0  0  0  0  0  0  0
  -22.3328  -21.7989   18.5700 N   0  0  0  0  0  0  0  0  0  0  0  0
  -30.0737  -12.7262   20.6344 N   0  0  0  0  0  0  0  0  0  0  0  0
  -25.3642  -15.1321   20.3041 N   0  0  0  0  0  0  0  0  0  0  0  0
  -21.7431  -12.5550   21.1054 N   0  0  0  0  0  0  0  0  0  0  0  0
  -20.7354  -24.1270   20.7514 N   0  0  0  0  0  0  0  0  0  0  0  0
  -21.6314  -19.5295   16.1584 N   0  0  0  0  0  0  0  0  0  0  0  0
  -30.6146  -13.0687   22.9112 N   0  0  0  0  0  0  0  0  0  0  0  0
  -24.0201  -19.3362   13.4520 N   0  3  0  0  0  0  0  0  0  0  0  0
  -22.4566  -14.7055   20.7516 O   0  0  0  0  0  0  0  0  0  0  0  0
  -21.9875  -22.2074   21.1634 O   0  0  0  0  0  0  0  0  0  0  0  0
  -20.3084  -21.7385   17.4147 O   0  0  0  0  0  0  0  0  0  0  0  0
  -23.8309  -18.7968   16.2069 O   0  0  0  0  0  0  0  0  0  0  0  0
  -32.2028  -13.3745   21.2860 O   0  0  0  0  0  0  0  0  0  0  0  0
  -21.7117   -7.0177   21.7160 O   0  0  0  0  0  0  0  0  0  0  0  0
  -28.0726  -21.4795   20.8072 O   0  0  0  0  0  0  0  0  0  1  0  0
  -28.5958  -20.4069   23.3204 O   0  0  0  0  0  0  0  0  0  0  0  0
  -30.1276  -15.2747   24.6660 O   0  0  0  0  0  0  0  0  0  0  0  0
  -16.9849   -6.3348   18.9600 F   0  0  0  0  0  0  0  0  0  0  0  0
  -19.6343   -8.8204   21.9944 F   0  0  0  0  0  0  0  0  0  0  0  0
  1  2  1  0  0  0  0
  1  5  2  0  0  0  0
  2  6  2  0  0  0  0
  3  8  2  0  0  0  0
  3 18  1  0  0  0  0
  4  9  1  0  0  0  0
  4 18  2  0  0  0  0
  5 20  1  0  0  0  0
  6 22  1  0  0  0  0
  7 10  2  0  0  0  0
  7 21  1  0  0  0  0
  8 25  1  0  0  0  0
  9 25  2  0  0  0  0
 10 26  1  0  0  0  0
 11 12  2  0  0  0  0
 11 27  1  0  0  0  0
 12 28  1  0  0  0  0
 13 14  2  0  0  0  0
 13 29  1  0  0  0  0
 14 30  1  0  0  0  0
 15 23  1  0  0  0  0
 15 26  2  0  0  0  0
 16 24  1  0  0  0  0
 16 27  2  0  0  0  0
 17 30  2  0  0  0  0
 17 31  1  0  0  0  0
 18 32  1  0  0  0  0
 19 32  1  0  0  0  0
 19 33  2  0  0  0  0
 19 34  1  0  0  0  0
 20 22  2  0  0  0  0
 20 39  1  0  0  0  0
 21 23  2  0  0  0  0
 21 40  1  0  0  0  0
 22 51  1  0  0  0  0
 23 41  1  0  0  0  0
 24 28  2  0  0  0  0
 24 50  1  0  0  0  0
 25 81  1  0  0  0  0
 26 82  1  0  0  0  0
 27 83  1  0  0  0  0
 28 84  1  0  0  0  0
 29 31  2  0  0  0  0
 29 81  1  0  0  0  0
 30 85  1  0  0  0  0
 31 86  1  0  0  0  0
 32 66  2  0  0  0  0
 33 67  1  0  0  0  0
 33 70  1  0  0  0  0
 34 71  1  0  0  0  0
 34 76  2  0  0  0  0
 35 52  1  0  0  0  0
 35 72  1  0  0  0  0
 35 77  2  0  0  0  0
 36 63  1  0  0  0  0
 36 68  1  0  0  0  0
 36 78  2  0  0  0  0
 37 64  1  0  0  0  0
 37 73  1  0  0  0  0
 37 79  2  0  0  0  0
 38 69  1  0  0  0  0
 38 74  1  0  0  0  0
 38 80  2  0  0  0  0
 39 42  1  0  0  0  0
 40 52  1  0  0  0  0
 41 68  1  0  0  0  0
 42 46  1  0  0  0  0
 43 47  1  0  0  0  0
 43 48  1  0  0  0  0
 44 45  1  0  0  0  0
 44 50  1  0  0  0  0
 45 50  1  0  0  0  0
 46 51  1  0  0  0  0
 47 53  1  0  0  0  0
 48 69  1  0  0  0  0
 49 53  1  0  0  0  0
 49 69  1  0  0  0  0
 51 72  1  0  0  0  0
 52 68  1  0  0  0  0
 53 67  1  0  0  0  0
 54 64  1  0  0  0  0
 55 65  1  0  0  0  0
 56 65  1  0  0  0  0
 57 65  1  0  0  0  0
 58 75  1  0  0  0  0
 59 60  1  0  0  0  0
 59 74  1  0  0  0  0
 60 84  1  0  0  0  0
 61 62  1  0  0  0  0
 61 82  1  0  0  0  0
 62 83  1  0  0  0  0
 63 65  1  0  0  0  0
 63 73  1  0  0  0  0
 64 75  1  0  0  0  0
 66 67  1  0  0  0  0
M  CHG  1  75   1
M  ISO  4  38 100  61 101  74 100  82 101
M  END
> <Batch ID>
0142

> <Smiles>
CNC(C)C(=O)NC(C(=O)N1Cc2cc([101O:1][101CH2:1]COc3ccc(OCC[100NH:0][100C:0](=O)N4CCCC(n5nc(-c6ccc(Oc7ccc(F)cc7F)cc6)c(C(N)=O)c5N)C4)c(C4CC4)c3)ccc2CC1C(=O)NC1CCCc2ccccc21)C(C)(C)C

> <Shape>
0.183

> <Color>
0.188

> <Negative vol penalty>
0.000

$$$$

  -OEChem-04052321183D

 84 92  0     1  0  0  0  0  0999 V2000
  -16.6865  -23.2257   14.7944 C   0  0  0  0  0  0  0  0  0  0  0  0
  -17.8506  -22.9396   15.5003 C   0  0  0  0  0  0  0  0  0  0  0  0
  -23.0510   -9.9185   19.9087 C   0  0  0  0  0  0  0  0  0  0  0  0
  -23.8453   -9.8327   22.1888 C   0  0  0  0  0  0  0  0  0  0  0  0
  -16.5954  -24.4007   14.0494 C   0  0  0  0  0  0  0  0  0  0  0  0
  -18.9248  -23.8279   15.4608 C   0  0  0  0  0  0  0  0  0  0  0  0
  -20.9508  -24.6312   20.0319 C   0  0  0  0  0  0  0  0  0  0  0  0
  -22.3004   -8.7632   20.1267 C   0  0  0  0  0  0  0  0  0  0  0  0
  -23.0946   -8.6774   22.4068 C   0  0  0  0  0  0  0  0  0  0  0  0
  -21.7955  -23.6435   20.5364 C   0  0  0  0  0  0  0  0  0  0  0  0
  -19.8687   -7.8854   23.0285 C   0  0  0  0  0  0  0  0  0  0  0  0
  -19.1291   -7.8081   24.2086 C   0  0  0  0  0  0  0  0  0  0  0  0
  -23.7110  -24.9478   19.8664 C   0  0  0  0  0  0  0  0  0  0  0  0
  -27.2668  -19.5647   20.3374 C   0  0  0  0  0  0  0  0  0  0  0  0
  -20.3635   -5.8337   24.8528 C   0  0  0  0  0  0  0  0  0  0  0  0
  -29.4312  -20.1207   19.5234 C   0  0  0  0  0  0  0  0  0  0  0  0
  -23.8235  -10.4532   20.9397 C   0  0  0  0  0  0  0  0  0  0  0  0
  -24.1867  -12.9780   20.9091 C   0  0  0  0  0  0  0  0  0  0  0  0
  -17.6654  -25.3085   14.0085 C   0  0  0  0  0  0  0  0  0  0  0  0
  -21.4807  -25.7816   19.4300 C   0  0  0  0  0  0  0  0  0  0  0  0
  -18.8484  -25.0154   14.7134 C   0  0  0  0  0  0  0  0  0  0  0  0
  -22.8709  -25.9498   19.3573 C   0  0  0  0  0  0  0  0  0  0  0  0
  -28.6344  -19.3144   20.3201 C   0  0  0  0  0  0  0  0  0  0  0  0
  -22.3222   -8.1427   21.3757 C   0  0  0  0  0  0  0  0  0  0  0  0
  -23.1758  -23.8003   20.4512 C   0  0  0  0  0  0  0  0  0  0  0  0
  -20.8557   -6.9369   22.7605 C   0  0  0  0  0  0  0  0  0  0  0  0
  -26.7452  -20.5990   19.5683 C   0  0  0  0  0  0  0  0  0  0  0  0
  -19.3765   -6.7822   25.1207 C   0  0  0  0  0  0  0  0  0  0  0  0
  -21.1031   -5.9110   23.6727 C   0  0  0  0  0  0  0  0  0  0  0  0
  -24.5996  -11.6463   20.7150 C   0  0  0  0  0  0  0  0  0  0  0  0
  -27.6266  -21.3479   18.8054 C   0  0  0  0  0  0  0  0  0  0  0  0
  -25.2801  -13.7312   20.5574 C   0  0  0  0  0  0  0  0  0  0  0  0
  -22.9275  -13.4887   21.3665 C   0  0  0  0  0  0  0  0  0  0  0  0
  -21.3324  -27.0646   16.5255 C   0  0  0  0  0  0  0  0  0  0  0  0
  -22.9291  -29.5044   17.9467 C   0  0  0  0  0  0  0  0  0  0  0  0
  -24.9683  -30.5483   20.4763 C   0  0  0  0  0  0  0  0  0  0  0  0
  -30.7752  -14.6951   20.6997 C   0  0  0  0  0  0  0  0  0  0  0  0
  -17.5378  -26.5427   13.1512 C   0  0  0  0  0  0  0  0  0  0  0  0
  -20.5561  -26.8501   18.9146 C   0  0  0  0  0  0  0  0  0  0  0  0
  -23.4900  -27.1756   18.7388 C   0  0  0  0  0  0  0  0  0  0  0  0
  -18.5816  -27.6119   13.4636 C   0  0  0  0  0  0  0  0  0  0  0  0
  -29.5801  -12.4119   18.2430 C   0  0  0  0  0  0  0  0  0  0  0  0
  -19.9691  -26.9875   13.5730 C   0  0  0  0  0  0  0  0  0  0  0  0
  -28.1466  -12.1145   18.6867 C   0  0  0  0  0  0  0  0  0  0  0  0
  -30.5171  -12.5795   19.4371 C   0  0  0  0  0  0  0  0  0  0  0  0
  -28.6432  -13.2743   20.8791 C   0  0  0  0  0  0  0  0  0  0  0  0
  -20.0259  -25.9660   14.7153 C   0  0  1  0  0  0  0  0  0  0  0  0
  -21.2034  -27.7427   17.8601 C   0  0  1  0  0  0  0  0  0  0  0  0
  -27.6499  -13.1525   19.7109 C   0  0  2  0  0  0  0  0  0  0  0  0
  -27.1167  -22.4685   17.9597 C   0  0  0  0  0  0  0  0  0  0  0  0
  -26.1327  -32.5915   21.3521 C   0  0  0  0  0  0  0  0  0  0  0  0
  -25.0204  -29.2561   15.7389 C   0  0  0  0  0  0  0  0  0  0  0  0
  -26.5764  -30.6121   17.1561 C   0  0  0  0  0  0  0  0  0  0  0  0
  -24.4320  -31.6064   16.3588 C   0  0  0  0  0  0  0  0  0  0  0  0
  -23.4906  -30.4343   23.0380 C   0  0  0  0  0  0  0  0  0  0  0  0
  -30.5918  -17.9796   21.1027 C   0  0  0  0  0  0  0  0  0  0  0  0
  -30.8794  -16.7970   22.0151 C   0  0  0  0  0  0  0  0  0  0  0  0
  -23.5212  -21.4943   20.9190 C   0  0  0  0  0  0  0  0  0  1  0  0
  -24.6983  -20.5487   20.7781 C   0  0  0  0  0  0  0  0  0  0  0  0
  -24.3829  -29.8439   18.1708 C   0  0  1  0  0  0  0  0  0  0  0  0
  -24.8777  -31.7351   21.4186 C   0  0  2  0  0  0  0  0  0  0  0  0
  -25.0916  -30.3055   16.8661 C   0  0  0  0  0  0  0  0  0  0  0  0
  -28.9609  -21.1346   18.7629 N   0  0  0  0  0  0  0  0  0  0  0  0
  -25.8571  -11.5553   20.2741 N   0  0  0  0  0  0  0  0  0  0  0  0
  -26.2438  -12.8395   20.1881 N   0  0  0  0  0  0  0  0  0  0  0  0
  -22.5442  -28.1893   18.2435 N   0  0  0  0  0  0  0  0  0  0  0  0
  -29.9894  -13.5787   20.3693 N   0  0  0  0  0  0  0  0  0  0  0  0
  -25.5017  -15.0626   20.5311 N   0  0  0  0  0  0  0  0  0  0  0  0
  -21.9124  -12.5763   21.6850 N   0  0  0  0  0  0  0  0  0  0  0  0
  -29.1896  -18.2770   21.0867 N   0  0  0  0  0  0  0  0  0  0  0  0
  -20.1306  -26.6403   15.9915 N   0  0  0  0  0  0  0  0  0  0  0  0
  -24.4110  -30.8288   19.2466 N   0  0  0  0  0  0  0  0  0  0  0  0
  -30.1973  -15.5968   21.5850 N   0  0  0  0  0  0  0  0  0  0  0  0
  -24.7005  -31.2691   22.8230 N   0  3  0  0  0  0  0  0  0  0  0  0
  -22.7034  -14.7183   21.4735 O   0  0  0  0  0  0  0  0  0  0  0  0
  -22.4401  -26.9371   16.0172 O   0  0  0  0  0  0  0  0  0  0  0  0
  -22.1618  -30.3761   17.5307 O   0  0  0  0  0  0  0  0  0  0  0  0
  -25.4853  -29.4806   20.7976 O   0  0  0  0  0  0  0  0  0  0  0  0
  -31.9058  -14.8777   20.2356 O   0  0  0  0  0  0  0  0  0  0  0  0
  -21.5897   -7.0155   21.5889 O   0  0  0  0  0  0  0  0  0  0  0  0
  -24.0026  -22.8375   20.9423 O   0  0  0  0  0  0  0  0  0  1  0  0
  -25.3992  -20.8549   19.5789 O   0  0  0  0  0  0  0  0  0  0  0  0
  -18.6672   -6.7090   26.2546 F   0  0  0  0  0  0  0  0  0  0  0  0
  -22.0508   -4.9976   23.4213 F   0  0  0  0  0  0  0  0  0  0  0  0
  1  2  1  0  0  0  0
  1  5  2  0  0  0  0
  2  6  2  0  0  0  0
  3  8  2  0  0  0  0
  3 17  1  0  0  0  0
  4  9  1  0  0  0  0
  4 17  2  0  0  0  0
  5 19  1  0  0  0  0
  6 21  1  0  0  0  0
  7 10  2  0  0  0  0
  7 20  1  0  0  0  0
  8 24  1  0  0  0  0
  9 24  2  0  0  0  0
 10 25  1  0  0  0  0
 11 12  2  0  0  0  0
 11 26  1  0  0  0  0
 12 28  1  0  0  0  0
 13 22  1  0  0  0  0
 13 25  2  0  0  0  0
 14 23  2  0  0  0  0
 14 27  1  0  0  0  0
 15 28  2  0  0  0  0
 15 29  1  0  0  0  0
 16 23  1  0  0  0  0
 16 63  2  0  0  0  0
 17 30  1  0  0  0  0
 18 30  1  0  0  0  0
 18 32  2  0  0  0  0
 18 33  1  0  0  0  0
 19 21  2  0  0  0  0
 19 38  1  0  0  0  0
 20 22  2  0  0  0  0
 20 39  1  0  0  0  0
 21 47  1  0  0  0  0
 22 40  1  0  0  0  0
 23 70  1  0  0  0  0
 24 80  1  0  0  0  0
 25 81  1  0  0  0  0
 26 29  2  0  0  0  0
 26 80  1  0  0  0  0
 27 31  2  0  0  0  0
 27 82  1  0  0  0  0
 28 83  1  0  0  0  0
 29 84  1  0  0  0  0
 30 64  2  0  0  0  0
 31 50  1  0  0  0  0
 31 63  1  0  0  0  0
 32 65  1  0  0  0  0
 32 68  1  0  0  0  0
 33 69  1  0  0  0  0
 33 75  2  0  0  0  0
 34 48  1  0  0  0  0
 34 71  1  0  0  0  0
 34 76  2  0  0  0  0
 35 60  1  0  0  0  0
 35 66  1  0  0  0  0
 35 77  2  0  0  0  0
 36 61  1  0  0  0  0
 36 72  1  0  0  0  0
 36 78  2  0  0  0  0
 37 67  1  0  0  0  0
 37 73  1  0  0  0  0
 37 79  2  0  0  0  0
 38 41  1  0  0  0  0
 39 48  1  0  0  0  0
 40 66  1  0  0  0  0
 41 43  1  0  0  0  0
 42 44  1  0  0  0  0
 42 45  1  0  0  0  0
 43 47  1  0  0  0  0
 44 49  1  0  0  0  0
 45 67  1  0  0  0  0
 46 49  1  0  0  0  0
 46 67  1  0  0  0  0
 47 71  1  0  0  0  0
 48 66  1  0  0  0  0
 49 65  1  0  0  0  0
 51 61  1  0  0  0  0
 52 62  1  0  0  0  0
 53 62  1  0  0  0  0
 54 62  1  0  0  0  0
 55 74  1  0  0  0  0
 56 57  1  0  0  0  0
 56 70  1  0  0  0  0
 57 73  1  0  0  0  0
 58 59  1  0  0  0  0
 58 81  1  0  0  0  0
 59 82  1  0  0  0  0
 60 62  1  0  0  0  0
 60 72  1  0  0  0  0
 61 74  1  0  0  0  0
 64 65  1  0  0  0  0
M  CHG  1  74   1
M  ISO  4  37 100  58 101  73 100  81 101
M  END
> <Batch ID>
0142

> <Smiles>
CNC(C)C(=O)NC(C(=O)N1Cc2cc([101O:1][101CH2:1]COc3cc(NCC[100NH:0][100C:0](=O)N4CCCC(n5nc(-c6ccc(Oc7ccc(F)cc7F)cc6)c(C(N)=O)c5N)C4)cnc3C)ccc2CC1C(=O)NC1CCCc2ccccc21)C(C)(C)C

> <Shape>
0.252

> <Color>
0.190

> <Negative vol penalty>
0.000

$$$$

  -OEChem-04052321183D

 87 96  0     1  0  0  0  0  0999 V2000
  -31.2996  -18.9634   20.5472 C   0  0  0  0  0  0  0  0  0  0  0  0
  -29.9717  -19.3725   20.4788 C   0  0  0  0  0  0  0  0  0  0  0  0
  -27.4433  -27.1523   21.3217 C   0  0  0  0  0  0  0  0  0  0  0  0
  -28.1329  -28.8760   19.7756 C   0  0  0  0  0  0  0  0  0  0  0  0
  -31.6247  -17.6207   20.3595 C   0  0  0  0  0  0  0  0  0  0  0  0
  -28.9682  -18.4392   20.2215 C   0  0  0  0  0  0  0  0  0  0  0  0
  -24.9559  -19.0141   23.2574 C   0  0  0  0  0  0  0  0  0  0  0  0
  -28.5239  -26.3644   20.9254 C   0  0  0  0  0  0  0  0  0  0  0  0
  -29.2136  -28.0881   19.3793 C   0  0  0  0  0  0  0  0  0  0  0  0
  -24.0673  -20.0435   22.9501 C   0  0  0  0  0  0  0  0  0  0  0  0
  -31.8466  -26.2069   21.5317 C   0  0  0  0  0  0  0  0  0  0  0  0
  -32.5935  -25.5815   22.5300 C   0  0  0  0  0  0  0  0  0  0  0  0
  -22.5871  -18.4473   21.9106 C   0  0  0  0  0  0  0  0  0  0  0  0
  -16.1547  -21.9760   22.5592 C   0  0  0  0  0  0  0  0  0  0  0  0
  -17.9691  -23.5300   22.9197 C   0  0  0  0  0  0  0  0  0  0  0  0
  -32.0561  -23.4254   21.5815 C   0  0  0  0  0  0  0  0  0  0  0  0
  -27.2477  -28.4080   20.7468 C   0  0  0  0  0  0  0  0  0  0  0  0
  -26.1053  -30.1678   22.1978 C   0  0  0  0  0  0  0  0  0  0  0  0
  -30.6237  -16.6688   20.1094 C   0  0  0  0  0  0  0  0  0  0  0  0
  -24.6714  -17.6929   22.8833 C   0  0  0  0  0  0  0  0  0  0  0  0
  -29.2803  -17.0826   20.0290 C   0  0  0  0  0  0  0  0  0  0  0  0
  -23.4725  -17.4026   22.2166 C   0  0  0  0  0  0  0  0  0  0  0  0
  -15.2357  -22.9734   22.8848 C   0  0  0  0  0  0  0  0  0  0  0  0
  -15.6834  -24.2492   23.2279 C   0  0  0  0  0  0  0  0  0  0  0  0
  -17.0501  -24.5275   23.2453 C   0  0  0  0  0  0  0  0  0  0  0  0
  -29.4091  -26.8323   19.9542 C   0  0  0  0  0  0  0  0  0  0  0  0
  -22.8840  -19.7606   22.2741 C   0  0  0  0  0  0  0  0  0  0  0  0
  -31.2043  -25.4415   20.5583 C   0  0  0  0  0  0  0  0  0  0  0  0
  -17.5215  -22.2542   22.5767 C   0  0  0  0  0  0  0  0  0  0  0  0
  -32.6983  -24.1908   22.5549 C   0  0  0  0  0  0  0  0  0  0  0  0
  -31.3091  -24.0508   20.5832 C   0  0  0  0  0  0  0  0  0  0  0  0
  -26.1313  -29.2221   21.1554 C   0  0  0  0  0  0  0  0  0  0  0  0
  -24.8248  -30.6644   22.1790 C   0  0  0  0  0  0  0  0  0  0  0  0
  -27.1455  -30.5622   23.1023 C   0  0  0  0  0  0  0  0  0  0  0  0
  -26.0590  -15.5492   20.9904 C   0  0  0  0  0  0  0  0  0  0  0  0
  -23.7643  -13.5892   22.1799 C   0  0  0  0  0  0  0  0  0  0  0  0
  -20.6848  -13.2712   23.6162 C   0  0  0  0  0  0  0  0  0  0  0  0
  -19.7317  -28.1540   19.9960 C   0  0  0  0  0  0  0  0  0  0  0  0
  -31.0285  -15.2364   19.8662 C   0  0  0  0  0  0  0  0  0  0  0  0
  -25.6278  -16.5899   23.2458 C   0  0  0  0  0  0  0  0  0  0  0  0
  -23.1108  -15.9979   21.8109 C   0  0  0  0  0  0  0  0  0  0  0  0
  -29.8683  -14.2497   19.9697 C   0  0  0  0  0  0  0  0  0  0  0  0
  -21.1475  -31.4499   19.2177 C   0  0  0  0  0  0  0  0  0  0  0  0
  -28.6581  -14.7658   19.1979 C   0  0  0  0  0  0  0  0  0  0  0  0
  -22.5995  -31.3120   19.6775 C   0  0  0  0  0  0  0  0  0  0  0  0
  -18.9500  -27.7860   23.5695 C   0  0  0  0  0  0  0  0  0  0  0  0
  -20.5657  -30.1166   18.7536 C   0  0  0  0  0  0  0  0  0  0  0  0
  -19.9339  -28.3405   22.5445 C   0  0  0  0  0  0  0  0  0  0  0  0
  -22.1489  -28.8830   20.1837 C   0  0  0  0  0  0  0  0  0  0  0  0
  -18.6824  -26.5434   21.5600 C   0  0  0  0  0  0  0  0  0  0  0  0
  -28.1610  -16.0960   19.7765 C   0  0  1  0  0  0  0  0  0  0  0  0
  -25.4782  -15.3551   22.3625 C   0  0  1  0  0  0  0  0  0  0  0  0
  -22.7470  -30.1900   20.7223 C   0  0  1  0  0  0  0  0  0  0  0  0
  -18.7319  -26.3622   23.0696 C   0  0  2  0  0  0  0  0  0  0  0  0
  -13.7779  -22.6489   22.8589 C   0  0  0  0  0  0  0  0  0  0  0  0
  -14.6941  -25.3166   23.5768 C   0  0  0  0  0  0  0  0  0  0  0  0
  -19.0634  -11.5410   24.4374 C   0  0  0  0  0  0  0  0  0  0  0  0
  -22.9999  -12.9412   19.2980 C   0  0  0  0  0  0  0  0  0  0  0  0
  -20.8419  -12.0044   20.1544 C   0  0  0  0  0  0  0  0  0  0  0  0
  -23.0071  -10.9745   20.8427 C   0  0  0  0  0  0  0  0  0  0  0  0
  -20.7772  -14.3282   26.3790 C   0  0  0  0  0  0  0  0  0  0  0  0
  -20.6305  -20.4261   21.9070 C   0  0  0  0  0  0  0  0  0  1  0  0
  -19.8001  -21.6338   22.2961 C   0  0  0  0  0  0  0  0  0  0  0  0
  -22.3535  -13.2293   21.7809 C   0  0  1  0  0  0  0  0  0  0  0  0
  -20.2097  -12.4671   24.8129 C   0  0  2  0  0  0  0  0  0  0  0  0
  -22.3080  -12.3142   20.5248 C   0  0  0  0  0  0  0  0  0  0  0  0
  -24.9603  -29.1220   20.5207 N   0  0  0  0  0  0  0  0  0  0  0  0
  -24.1865  -30.0112   21.1661 N   0  0  0  0  0  0  0  0  0  0  0  0
  -24.0812  -14.9550   22.1822 N   0  0  0  0  0  0  0  0  0  0  0  0
  -20.7559  -29.0796   19.7682 N   0  0  0  0  0  0  0  0  0  0  0  0
  -19.5778  -27.6666   21.2932 N   0  0  0  0  0  0  0  0  0  0  0  0
  -24.1939  -31.5917   22.9303 N   0  0  0  0  0  0  0  0  0  0  0  0
  -28.4015  -29.9518   22.9830 N   0  0  0  0  0  0  0  0  0  0  0  0
  -17.5152  -25.7910   23.5838 N   0  0  0  0  0  0  0  0  0  0  0  0
  -27.4034  -15.8684   20.9885 N   0  0  0  0  0  0  0  0  0  0  0  0
  -21.7295  -12.6497   22.9654 N   0  0  0  0  0  0  0  0  0  0  0  0
  -19.7427  -13.3775   25.8964 N   0  3  0  0  0  0  0  0  0  0  0  0
  -26.9619  -31.4184   24.0004 O   0  0  0  0  0  0  0  0  0  0  0  0
  -25.3408  -15.4176   20.0062 O   0  0  0  0  0  0  0  0  0  0  0  0
  -24.5538  -12.6920   22.4855 O   0  0  0  0  0  0  0  0  0  0  0  0
  -20.1774  -14.3418   23.2891 O   0  0  0  0  0  0  0  0  0  0  0  0
  -18.9583  -27.8134   19.0910 O   0  0  0  0  0  0  0  0  0  0  0  0
  -30.4638  -26.0639   19.5674 O   0  0  0  0  0  0  0  0  0  0  0  0
  -22.0093  -20.7704   21.9703 O   0  0  0  0  0  0  0  0  0  1  0  0
  -18.4182  -21.2811   22.2580 O   0  0  0  0  0  0  0  0  0  0  0  0
  -33.4169  -23.5905   23.5127 F   0  0  0  0  0  0  0  0  0  0  0  0
  -30.6953  -23.3103   19.6501 F   0  0  0  0  0  0  0  0  0  0  0  0
  1  2  1  0  0  0  0
  1  5  2  0  0  0  0
  2  6  2  0  0  0  0
  3  8  2  0  0  0  0
  3 17  1  0  0  0  0
  4  9  1  0  0  0  0
  4 17  2  0  0  0  0
  5 19  1  0  0  0  0
  6 21  1  0  0  0  0
  7 10  2  0  0  0  0
  7 20  1  0  0  0  0
  8 26  1  0  0  0  0
  9 26  2  0  0  0  0
 10 27  1  0  0  0  0
 11 12  2  0  0  0  0
 11 28  1  0  0  0  0
 12 30  1  0  0  0  0
 13 22  1  0  0  0  0
 13 27  2  0  0  0  0
 14 23  2  0  0  0  0
 14 29  1  0  0  0  0
 15 25  1  0  0  0  0
 15 29  2  0  0  0  0
 16 30  2  0  0  0  0
 16 31  1  0  0  0  0
 17 32  1  0  0  0  0
 18 32  1  0  0  0  0
 18 33  2  0  0  0  0
 18 34  1  0  0  0  0
 19 21  2  0  0  0  0
 19 39  1  0  0  0  0
 20 22  2  0  0  0  0
 20 40  1  0  0  0  0
 21 51  1  0  0  0  0
 22 41  1  0  0  0  0
 23 24  1  0  0  0  0
 23 55  1  0  0  0  0
 24 25  2  0  0  0  0
 24 56  1  0  0  0  0
 25 74  1  0  0  0  0
 26 83  1  0  0  0  0
 27 84  1  0  0  0  0
 28 31  2  0  0  0  0
 28 83  1  0  0  0  0
 29 85  1  0  0  0  0
 30 86  1  0  0  0  0
 31 87  1  0  0  0  0
 32 67  2  0  0  0  0
 33 68  1  0  0  0  0
 33 72  1  0  0  0  0
 34 73  1  0  0  0  0
 34 78  2  0  0  0  0
 35 52  1  0  0  0  0
 35 75  1  0  0  0  0
 35 79  2  0  0  0  0
 36 64  1  0  0  0  0
 36 69  1  0  0  0  0
 36 80  2  0  0  0  0
 37 65  1  0  0  0  0
 37 76  1  0  0  0  0
 37 81  2  0  0  0  0
 38 70  1  0  0  0  0
 38 71  1  0  0  0  0
 38 82  2  0  0  0  0
 39 42  1  0  0  0  0
 40 52  1  0  0  0  0
 41 69  1  0  0  0  0
 42 44  1  0  0  0  0
 43 45  1  0  0  0  0
 43 47  1  0  0  0  0
 44 51  1  0  0  0  0
 45 53  1  0  0  0  0
 46 48  1  0  0  0  0
 46 54  1  0  0  0  0
 47 70  1  0  0  0  0
 48 71  1  0  0  0  0
 49 53  1  0  0  0  0
 49 70  1  0  0  0  0
 50 54  1  0  0  0  0
 50 71  1  0  0  0  0
 51 75  1  0  0  0  0
 52 69  1  0  0  0  0
 53 68  1  0  0  0  0
 54 74  1  0  0  0  0
 57 65  1  0  0  0  0
 58 66  1  0  0  0  0
 59 66  1  0  0  0  0
 60 66  1  0  0  0  0
 61 77  1  0  0  0  0
 62 63  1  0  0  0  0
 62 84  1  0  0  0  0
 63 85  1  0  0  0  0
 64 66  1  0  0  0  0
 64 76  1  0  0  0  0
 65 77  1  0  0  0  0
 67 68  1  0  0  0  0
M  CHG  1  77   1
M  ISO  4  38 100  62 101  71 100  84 101
M  END
> <Batch ID>
0142

> <Smiles>
CNC(C)C(=O)NC(C(=O)N1Cc2cc([101O:1][101CH2:1]COc3cc(C)c(C)c(NC4CC[100N:0]([100C:0](=O)N5CCCC(n6nc(-c7ccc(Oc8ccc(F)cc8F)cc7)c(C(N)=O)c6N)C5)C4)c3)ccc2CC1C(=O)NC1CCCc2ccccc21)C(C)(C)C

> <Shape>
0.225

> <Color>
0.064

> <Negative vol penalty>
0.000

$$$$

  -OEChem-04052321183D

 88 96  0     1  0  0  0  0  0999 V2000
  -21.1741  -12.8931   20.9362 C   0  0  0  0  0  0  0  0  0  0  0  0
  -21.4973  -14.1332   21.4777 C   0  0  0  0  0  0  0  0  0  0  0  0
  -29.9722  -26.5611   18.9779 C   0  0  0  0  0  0  0  0  0  0  0  0
  -29.9191  -25.7922   21.2677 C   0  0  0  0  0  0  0  0  0  0  0  0
  -22.1872  -12.0254   20.5306 C   0  0  0  0  0  0  0  0  0  0  0  0
  -22.8340  -14.5058   21.6148 C   0  0  0  0  0  0  0  0  0  0  0  0
  -23.6900  -19.2622   20.1018 C   0  0  0  0  0  0  0  0  0  0  0  0
  -31.3488  -26.3404   18.9357 C   0  0  0  0  0  0  0  0  0  0  0  0
  -31.2958  -25.5715   21.2255 C   0  0  0  0  0  0  0  0  0  0  0  0
  -23.3229  -20.2842   20.9760 C   0  0  0  0  0  0  0  0  0  0  0  0
  -34.1221  -27.4147   21.4381 C   0  0  0  0  0  0  0  0  0  0  0  0
  -34.8821  -27.8521   22.5228 C   0  0  0  0  0  0  0  0  0  0  0  0
  -25.6181  -20.4903   21.6892 C   0  0  0  0  0  0  0  0  0  0  0  0
  -21.1148  -23.1825   25.8307 C   0  0  0  0  0  0  0  0  0  0  0  0
  -22.5115  -25.1466   25.6614 C   0  0  0  0  0  0  0  0  0  0  0  0
  -35.6148  -25.5850   22.9236 C   0  0  0  0  0  0  0  0  0  0  0  0
  -29.2573  -26.2870   20.1440 C   0  0  0  0  0  0  0  0  0  0  0  0
  -26.8169  -25.6013   19.8581 C   0  0  0  0  0  0  0  0  0  0  0  0
  -23.5368  -12.3915   20.6539 C   0  0  0  0  0  0  0  0  0  0  0  0
  -25.0244  -18.8383   20.0225 C   0  0  0  0  0  0  0  0  0  0  0  0
  -23.8662  -13.6416   21.2117 C   0  0  0  0  0  0  0  0  0  0  0  0
  -26.0000  -19.4644   20.8113 C   0  0  0  0  0  0  0  0  0  0  0  0
  -20.0378  -23.9815   26.2146 C   0  0  0  0  0  0  0  0  0  0  0  0
  -20.1976  -25.3630   26.3217 C   0  0  0  0  0  0  0  0  0  0  0  0
  -21.4344  -25.9456   26.0451 C   0  0  0  0  0  0  0  0  0  0  0  0
  -32.0106  -25.8456   20.0594 C   0  0  0  0  0  0  0  0  0  0  0  0
  -24.2865  -20.8965   21.7720 C   0  0  0  0  0  0  0  0  0  0  0  0
  -34.1083  -26.0624   21.0962 C   0  0  0  0  0  0  0  0  0  0  0  0
  -22.3517  -23.7651   25.5542 C   0  0  0  0  0  0  0  0  0  0  0  0
  -35.6285  -26.9373   23.2655 C   0  0  0  0  0  0  0  0  0  0  0  0
  -34.8547  -25.1476   21.8389 C   0  0  0  0  0  0  0  0  0  0  0  0
  -27.8354  -26.5153   20.1884 C   0  0  0  0  0  0  0  0  0  0  0  0
  -25.6508  -26.2968   20.0655 C   0  0  0  0  0  0  0  0  0  0  0  0
  -26.9160  -24.2448   19.4044 C   0  0  0  0  0  0  0  0  0  0  0  0
  -26.5474  -16.1061   20.5871 C   0  0  0  0  0  0  0  0  0  0  0  0
  -29.0845  -17.7208   19.3711 C   0  0  0  0  0  0  0  0  0  0  0  0
  -30.5698  -20.7262   18.7321 C   0  0  0  0  0  0  0  0  0  0  0  0
  -24.2491  -30.9593   23.5508 C   0  0  0  0  0  0  0  0  0  0  0  0
  -24.5980  -11.4008   20.2452 C   0  0  0  0  0  0  0  0  0  0  0  0
  -25.4086  -17.7527   19.0549 C   0  0  0  0  0  0  0  0  0  0  0  0
  -27.4495  -19.0602   20.7490 C   0  0  0  0  0  0  0  0  0  0  0  0
  -25.9814  -12.0241   20.0782 C   0  0  0  0  0  0  0  0  0  0  0  0
  -23.8832  -30.7424   20.0158 C   0  0  0  0  0  0  0  0  0  0  0  0
  -26.3036  -12.9329   21.2603 C   0  0  0  0  0  0  0  0  0  0  0  0
  -24.7627  -29.5520   19.6294 C   0  0  0  0  0  0  0  0  0  0  0  0
  -24.4963  -31.5500   21.1577 C   0  0  0  0  0  0  0  0  0  0  0  0
  -25.7232  -29.5727   21.9694 C   0  0  0  0  0  0  0  0  0  0  0  0
  -25.3039  -14.0919   21.3537 C   0  0  1  0  0  0  0  0  0  0  0  0
  -26.7101  -17.0510   19.4302 C   0  0  1  0  0  0  0  0  0  0  0  0
  -25.1192  -28.6956   20.8593 C   0  0  2  0  0  0  0  0  0  0  0  0
  -18.7244  -23.3323   26.5056 C   0  0  0  0  0  0  0  0  0  0  0  0
  -18.6361  -27.2207   25.6404 C   0  0  0  0  0  0  0  0  0  0  0  0
  -19.3014  -26.9561   28.0575 C   0  0  0  0  0  0  0  0  0  0  0  0
  -32.2640  -22.3401   17.8254 C   0  0  0  0  0  0  0  0  0  0  0  0
  -30.6120  -16.9793   21.9063 C   0  0  0  0  0  0  0  0  0  0  0  0
  -32.2874  -18.7486   21.3307 C   0  0  0  0  0  0  0  0  0  0  0  0
  -31.9459  -16.8106   19.7976 C   0  0  0  0  0  0  0  0  0  0  0  0
  -29.1495  -20.9432   16.1447 C   0  0  0  0  0  0  0  0  0  0  0  0
  -22.7770  -29.4860   26.1392 C   0  0  0  0  0  0  0  0  0  0  0  0
  -22.8640  -27.9834   25.8741 C   0  0  0  0  0  0  0  0  0  0  0  0
  -24.0903  -30.2336   25.9187 C   0  0  0  0  0  0  0  0  0  0  0  0
  -24.9811  -22.4990   23.4358 C   0  0  0  0  0  0  0  0  0  1  0  0
  -24.3720  -23.5746   24.3142 C   0  0  0  0  0  0  0  0  0  0  0  0
  -19.0396  -26.2167   26.7340 C   0  0  0  0  0  0  0  0  0  0  0  0
  -30.1672  -18.6011   19.9471 C   0  0  1  0  0  0  0  0  0  0  0  0
  -31.2324  -21.2767   17.4822 C   0  0  2  0  0  0  0  0  0  0  0  0
  -31.2256  -17.7914   20.7482 C   0  0  0  0  0  0  0  0  0  0  0  0
  -27.3582  -27.7011   20.5760 N   0  0  0  0  0  0  0  0  0  0  0  0
  -26.0271  -27.5369   20.4905 N   0  0  0  0  0  0  0  0  0  0  0  0
  -27.7743  -17.9896   19.7919 N   0  0  0  0  0  0  0  0  0  0  0  0
  -24.8096  -30.6795   22.2936 N   0  0  0  0  0  0  0  0  0  0  0  0
  -24.3506  -25.9625   19.9239 N   0  0  0  0  0  0  0  0  0  0  0  0
  -28.1910  -23.6850   19.2452 N   0  0  0  0  0  0  0  0  0  0  0  0
  -21.6163  -27.3425   26.1476 N   0  0  0  0  0  0  0  0  0  0  0  0
  -25.6157  -15.1086   20.3720 N   0  0  0  0  0  0  0  0  0  0  0  0
  -30.7162  -19.3584   18.8276 N   0  0  0  0  0  0  0  0  0  0  0  0
  -24.5924  -30.0811   24.5714 N   0  0  0  0  0  0  0  0  0  0  0  0
  -30.2133  -21.8842   16.5804 N   0  3  0  0  0  0  0  0  0  0  0  0
  -25.9043  -23.5550   19.1321 O   0  0  0  0  0  0  0  0  0  0  0  0
  -27.2186  -16.2691   21.5993 O   0  0  0  0  0  0  0  0  0  0  0  0
  -29.3891  -16.8321   18.5716 O   0  0  0  0  0  0  0  0  0  0  0  0
  -29.9843  -21.4387   19.5445 O   0  0  0  0  0  0  0  0  0  0  0  0
  -23.4941  -31.9175   23.7478 O   0  0  0  0  0  0  0  0  0  0  0  0
  -33.3539  -25.6299   20.0185 O   0  0  0  0  0  0  0  0  0  0  0  0
  -23.9308  -21.8940   22.6267 O   0  0  0  0  0  0  0  0  0  1  0  0
  -23.4093  -22.9804   25.1763 O   0  0  0  0  0  0  0  0  0  0  0  0
  -36.3596  -27.3577   24.3062 F   0  0  0  0  0  0  0  0  0  0  0  0
  -34.8464  -23.8474   21.5145 F   0  0  0  0  0  0  0  0  0  0  0  0
  1  2  1  0  0  0  0
  1  5  2  0  0  0  0
  2  6  2  0  0  0  0
  3  8  2  0  0  0  0
  3 17  1  0  0  0  0
  4  9  1  0  0  0  0
  4 17  2  0  0  0  0
  5 19  1  0  0  0  0
  6 21  1  0  0  0  0
  7 10  2  0  0  0  0
  7 20  1  0  0  0  0
  8 26  1  0  0  0  0
  9 26  2  0  0  0  0
 10 27  1  0  0  0  0
 11 12  2  0  0  0  0
 11 28  1  0  0  0  0
 12 30  1  0  0  0  0
 13 22  1  0  0  0  0
 13 27  2  0  0  0  0
 14 23  2  0  0  0  0
 14 29  1  0  0  0  0
 15 25  1  0  0  0  0
 15 29  2  0  0  0  0
 16 30  2  0  0  0  0
 16 31  1  0  0  0  0
 17 32  1  0  0  0  0
 18 32  1  0  0  0  0
 18 33  2  0  0  0  0
 18 34  1  0  0  0  0
 19 21  2  0  0  0  0
 19 39  1  0  0  0  0
 20 22  2  0  0  0  0
 20 40  1  0  0  0  0
 21 48  1  0  0  0  0
 22 41  1  0  0  0  0
 23 24  1  0  0  0  0
 23 51  1  0  0  0  0
 24 25  2  0  0  0  0
 24 64  1  0  0  0  0
 25 74  1  0  0  0  0
 26 84  1  0  0  0  0
 27 85  1  0  0  0  0
 28 31  2  0  0  0  0
 28 84  1  0  0  0  0
 29 86  1  0  0  0  0
 30 87  1  0  0  0  0
 31 88  1  0  0  0  0
 32 68  2  0  0  0  0
 33 69  1  0  0  0  0
 33 72  1  0  0  0  0
 34 73  1  0  0  0  0
 34 79  2  0  0  0  0
 35 49  1  0  0  0  0
 35 75  1  0  0  0  0
 35 80  2  0  0  0  0
 36 65  1  0  0  0  0
 36 70  1  0  0  0  0
 36 81  2  0  0  0  0
 37 66  1  0  0  0  0
 37 76  1  0  0  0  0
 37 82  2  0  0  0  0
 38 71  1  0  0  0  0
 38 77  1  0  0  0  0
 38 83  2  0  0  0  0
 39 42  1  0  0  0  0
 40 49  1  0  0  0  0
 41 70  1  0  0  0  0
 42 44  1  0  0  0  0
 43 45  1  0  0  0  0
 43 46  1  0  0  0  0
 44 48  1  0  0  0  0
 45 50  1  0  0  0  0
 46 71  1  0  0  0  0
 47 50  1  0  0  0  0
 47 71  1  0  0  0  0
 48 75  1  0  0  0  0
 49 70  1  0  0  0  0
 50 69  1  0  0  0  0
 52 64  1  0  0  0  0
 53 64  1  0  0  0  0
 54 66  1  0  0  0  0
 55 67  1  0  0  0  0
 56 67  1  0  0  0  0
 57 67  1  0  0  0  0
 58 78  1  0  0  0  0
 59 60  1  0  0  0  0
 59 61  1  0  0  0  0
 60 74  1  0  0  0  0
 61 77  1  0  0  0  0
 62 63  1  0  0  0  0
 62 85  1  0  0  0  0
 63 86  1  0  0  0  0
 65 67  1  0  0  0  0
 65 76  1  0  0  0  0
 66 78  1  0  0  0  0
 68 69  1  0  0  0  0
M  CHG  1  78   1
M  ISO  4  38 100  62 101  77 100  85 101
M  END
> <Batch ID>
0142

> <Smiles>
CNC(C)C(=O)NC(C(=O)N1Cc2cc([101O:1][101CH2:1]COc3cc(C)c(C(C)C)c(NCCC[100NH:0][100C:0](=O)N4CCCC(n5nc(-c6ccc(Oc7ccc(F)cc7F)cc6)c(C(N)=O)c5N)C4)c3)ccc2CC1C(=O)NC1CCCc2ccccc21)C(C)(C)C

> <Shape>
0.200

> <Color>
0.079

> <Negative vol penalty>
0.000

$$$$

  -OEChem-04052321183D

 90 99  0     1  0  0  0  0  0999 V2000
  -29.2936  -32.8592   24.8284 C   0  0  0  0  0  0  0  0  0  0  0  0
  -29.1257  -31.5637   24.3500 C   0  0  0  0  0  0  0  0  0  0  0  0
  -22.6228  -12.0492   21.9187 C   0  0  0  0  0  0  0  0  0  0  0  0
  -24.0607  -10.1533   22.3368 C   0  0  0  0  0  0  0  0  0  0  0  0
  -28.1867  -33.5937   25.2518 C   0  0  0  0  0  0  0  0  0  0  0  0
  -27.8508  -31.0014   24.2959 C   0  0  0  0  0  0  0  0  0  0  0  0
  -26.9733  -28.5940   19.9279 C   0  0  0  0  0  0  0  0  0  0  0  0
  -26.9317  -19.1013   14.3103 C   0  0  0  0  0  0  0  0  0  0  0  0
  -21.8128  -11.6711   22.9894 C   0  0  0  0  0  0  0  0  0  0  0  0
  -23.2507   -9.7752   23.4076 C   0  0  0  0  0  0  0  0  0  0  0  0
  -27.5313  -27.3253   19.7768 C   0  0  0  0  0  0  0  0  0  0  0  0
  -26.9384  -19.8211   13.1155 C   0  0  0  0  0  0  0  0  0  0  0  0
  -20.2928   -8.2013   23.8597 C   0  0  0  0  0  0  0  0  0  0  0  0
  -19.9497   -6.8537   23.9684 C   0  0  0  0  0  0  0  0  0  0  0  0
  -25.4033  -26.3306   20.3254 C   0  0  0  0  0  0  0  0  0  0  0  0
  -27.0473  -21.8882   14.3615 C   0  0  0  0  0  0  0  0  0  0  0  0
  -21.0159   -6.7571   26.1343 C   0  0  0  0  0  0  0  0  0  0  0  0
  -23.7467  -11.2903   21.5923 C   0  0  0  0  0  0  0  0  0  0  0  0
  -24.2034  -11.8084   19.1366 C   0  0  0  0  0  0  0  0  0  0  0  0
  -26.8965  -33.0436   25.1937 C   0  0  0  0  0  0  0  0  0  0  0  0
  -25.6265  -28.7407   20.2901 C   0  0  0  0  0  0  0  0  0  0  0  0
  -26.7258  -31.7287   24.7201 C   0  0  0  0  0  0  0  0  0  0  0  0
  -24.8299  -27.6022   20.4780 C   0  0  0  0  0  0  0  0  0  0  0  0
  -27.0406  -21.1683   15.5563 C   0  0  0  0  0  0  0  0  0  0  0  0
  -26.9827  -19.7749   15.5307 C   0  0  0  0  0  0  0  0  0  0  0  0
  -22.1268  -10.5341   23.7339 C   0  0  0  0  0  0  0  0  0  0  0  0
  -26.7471  -26.1934   19.9784 C   0  0  0  0  0  0  0  0  0  0  0  0
  -26.9962  -21.2145   13.1411 C   0  0  0  0  0  0  0  0  0  0  0  0
  -20.9975   -8.8268   24.8882 C   0  0  0  0  0  0  0  0  0  0  0  0
  -20.3112   -6.1316   25.1058 C   0  0  0  0  0  0  0  0  0  0  0  0
  -21.3591   -8.1047   26.0255 C   0  0  0  0  0  0  0  0  0  0  0  0
  -24.5835  -11.6800   20.4860 C   0  0  0  0  0  0  0  0  0  0  0  0
  -25.3516  -12.1993   18.4922 C   0  0  0  0  0  0  0  0  0  0  0  0
  -22.9266  -11.5936   18.5207 C   0  0  0  0  0  0  0  0  0  0  0  0
  -24.0957  -30.0257   22.7617 C   0  0  0  0  0  0  0  0  0  0  0  0
  -21.4670  -29.3523   20.9844 C   0  0  0  0  0  0  0  0  0  0  0  0
  -20.3108  -26.6282   18.9205 C   0  0  0  0  0  0  0  0  0  0  0  0
  -30.2884  -15.0482   20.3260 C   0  0  0  0  0  0  0  0  0  0  0  0
  -25.7360  -33.8589   25.7069 C   0  0  0  0  0  0  0  0  0  0  0  0
  -25.0328  -30.1162   20.4230 C   0  0  0  0  0  0  0  0  0  0  0  0
  -23.3736  -27.7056   20.8481 C   0  0  0  0  0  0  0  0  0  0  0  0
  -24.3751  -33.3259   25.2663 C   0  0  0  0  0  0  0  0  0  0  0  0
  -30.1141  -11.8447   18.7820 C   0  0  0  0  0  0  0  0  0  0  0  0
  -25.8659  -22.8284   17.0647 C   0  0  0  0  0  0  0  0  0  0  0  0
  -28.4009  -22.7256   17.0170 C   0  0  0  0  0  0  0  0  0  0  0  0
  -24.3018  -31.8159   25.4700 C   0  0  0  0  0  0  0  0  0  0  0  0
  -28.6426  -11.4508   18.9219 C   0  0  0  0  0  0  0  0  0  0  0  0
  -25.9277  -23.5763   18.3940 C   0  0  0  0  0  0  0  0  0  0  0  0
  -28.4494  -23.4735   18.3468 C   0  0  0  0  0  0  0  0  0  0  0  0
  -30.6113  -12.6133   20.0043 C   0  0  0  0  0  0  0  0  0  0  0  0
  -28.3294  -13.3971   20.5070 C   0  0  0  0  0  0  0  0  0  0  0  0
  -27.0956  -21.9232   16.8719 C   0  0  0  0  0  0  0  0  0  0  0  0
  -25.3559  -31.0931   24.6228 C   0  0  1  0  0  0  0  0  0  0  0  0
  -23.7827  -30.1456   21.2970 C   0  0  1  0  0  0  0  0  0  0  0  0
  -27.7673  -12.6685   19.2743 C   0  0  2  0  0  0  0  0  0  0  0  0
  -27.2265  -24.3678   18.5364 C   0  0  0  0  0  0  0  0  0  1  0  0
  -18.7222  -26.6134   16.9780 C   0  0  0  0  0  0  0  0  0  0  0  0
  -19.3579  -28.6892   23.0872 C   0  0  0  0  0  0  0  0  0  0  0  0
  -18.2980  -27.1365   21.4338 C   0  0  0  0  0  0  0  0  0  0  0  0
  -18.4428  -29.5765   20.9355 C   0  0  0  0  0  0  0  0  0  0  0  0
  -22.2967  -25.3222   17.1570 C   0  0  0  0  0  0  0  0  0  0  0  0
  -27.0628  -23.3391   12.0746 C   0  0  0  0  0  0  0  0  0  0  0  0
  -26.9744  -18.9826   16.7965 C   0  0  0  0  0  0  0  0  0  0  0  0
  -29.7260  -18.1573   19.3064 C   0  0  0  0  0  0  0  0  0  0  0  0
  -29.8044  -17.4593   20.6599 C   0  0  0  0  0  0  0  0  0  0  0  0
  -28.3082  -18.1795   18.7496 C   0  0  0  0  0  0  0  0  0  0  0  0
  -20.5406  -28.1677   20.8522 C   0  0  1  0  0  0  0  0  0  0  0  0
  -20.1808  -26.6257   17.4080 C   0  0  2  0  0  0  0  0  0  0  0  0
  -19.1871  -28.3893   21.5846 C   0  0  0  0  0  0  0  0  0  0  0  0
  -25.8725  -11.9660   20.6881 N   0  0  0  0  0  0  0  0  0  0  0  0
  -26.3123  -12.2779   19.4571 N   0  0  0  0  0  0  0  0  0  0  0  0
  -22.8408  -29.0724   20.9725 N   0  0  0  0  0  0  0  0  0  0  0  0
  -29.7387  -13.7563   20.2837 N   0  0  0  0  0  0  0  0  0  0  0  0
  -25.6231  -12.4799   17.1999 N   0  0  0  0  0  0  0  0  0  0  0  0
  -21.8536  -11.1944   19.3292 N   0  0  0  0  0  0  0  0  0  0  0  0
  -24.9295  -31.0176   23.2419 N   0  0  0  0  0  0  0  0  0  0  0  0
  -20.4109  -27.9086   19.4224 N   0  0  0  0  0  0  0  0  0  0  0  0
  -29.3909  -16.0755   20.5906 N   0  0  0  0  0  0  0  0  0  0  0  0
  -20.8506  -25.4252   16.8326 N   0  3  0  0  0  0  0  0  0  0  0  0
  -28.3057  -18.9156   17.4582 N   0  3  0  0  0  0  0  0  0  0  0  0
  -22.7466  -11.7351   17.2874 O   0  0  0  0  0  0  0  0  0  0  0  0
  -23.6150  -29.1027   23.4087 O   0  0  0  0  0  0  0  0  0  0  0  0
  -20.9894  -30.4850   21.0870 O   0  0  0  0  0  0  0  0  0  0  0  0
  -20.3188  -25.5976   19.5901 O   0  0  0  0  0  0  0  0  0  0  0  0
  -31.4891  -15.2703   20.1364 O   0  0  0  0  0  0  0  0  0  0  0  0
  -21.3368  -10.1650   24.7790 O   0  0  0  0  0  0  0  0  0  0  0  0
  -27.2894  -24.9539   19.8322 O   0  0  0  0  0  0  0  0  0  1  0  0
  -27.0023  -21.9171   11.9754 O   0  0  0  0  0  0  0  0  0  0  0  0
  -19.9803   -4.8379   25.2108 F   0  0  0  0  0  0  0  0  0  0  0  0
  -22.0351   -8.7005   27.0173 F   0  0  0  0  0  0  0  0  0  0  0  0
  1  2  1  0  0  0  0
  1  5  2  0  0  0  0
  2  6  2  0  0  0  0
  3  9  2  0  0  0  0
  3 18  1  0  0  0  0
  4 10  1  0  0  0  0
  4 18  2  0  0  0  0
  5 20  1  0  0  0  0
  6 22  1  0  0  0  0
  7 11  2  0  0  0  0
  7 21  1  0  0  0  0
  8 12  2  0  0  0  0
  8 25  1  0  0  0  0
  9 26  1  0  0  0  0
 10 26  2  0  0  0  0
 11 27  1  0  0  0  0
 12 28  1  0  0  0  0
 13 14  2  0  0  0  0
 13 29  1  0  0  0  0
 14 30  1  0  0  0  0
 15 23  1  0  0  0  0
 15 27  2  0  0  0  0
 16 24  1  0  0  0  0
 16 28  2  0  0  0  0
 17 30  2  0  0  0  0
 17 31  1  0  0  0  0
 18 32  1  0  0  0  0
 19 32  1  0  0  0  0
 19 33  2  0  0  0  0
 19 34  1  0  0  0  0
 20 22  2  0  0  0  0
 20 39  1  0  0  0  0
 21 23  2  0  0  0  0
 21 40  1  0  0  0  0
 22 53  1  0  0  0  0
 23 41  1  0  0  0  0
 24 25  2  0  0  0  0
 24 52  1  0  0  0  0
 25 63  1  0  0  0  0
 26 86  1  0  0  0  0
 27 87  1  0  0  0  0
 28 88  1  0  0  0  0
 29 31  2  0  0  0  0
 29 86  1  0  0  0  0
 30 89  1  0  0  0  0
 31 90  1  0  0  0  0
 32 70  2  0  0  0  0
 33 71  1  0  0  0  0
 33 74  1  0  0  0  0
 34 75  1  0  0  0  0
 34 81  2  0  0  0  0
 35 54  1  0  0  0  0
 35 76  1  0  0  0  0
 35 82  2  0  0  0  0
 36 67  1  0  0  0  0
 36 72  1  0  0  0  0
 36 83  2  0  0  0  0
 37 68  1  0  0  0  0
 37 77  1  0  0  0  0
 37 84  2  0  0  0  0
 38 73  1  0  0  0  0
 38 78  1  0  0  0  0
 38 85  2  0  0  0  0
 39 42  1  0  0  0  0
 40 54  1  0  0  0  0
 41 72  1  0  0  0  0
 42 46  1  0  0  0  0
 43 47  1  0  0  0  0
 43 50  1  0  0  0  0
 44 48  1  0  0  0  0
 44 52  1  0  0  0  0
 45 49  1  0  0  0  0
 45 52  1  0  0  0  0
 46 53  1  0  0  0  0
 47 55  1  0  0  0  0
 48 56  1  0  0  0  0
 49 56  1  0  0  0  0
 50 73  1  0  0  0  0
 51 55  1  0  0  0  0
 51 73  1  0  0  0  0
 53 76  1  0  0  0  0
 54 72  1  0  0  0  0
 55 71  1  0  0  0  0
 56 87  1  0  0  0  0
 57 68  1  0  0  0  0
 58 69  1  0  0  0  0
 59 69  1  0  0  0  0
 60 69  1  0  0  0  0
 61 79  1  0  0  0  0
 62 88  1  0  0  0  0
 63 80  1  0  0  0  0
 64 65  1  0  0  0  0
 64 66  1  0  0  0  0
 65 78  1  0  0  0  0
 66 80  1  0  0  0  0
 67 69  1  0  0  0  0
 67 77  1  0  0  0  0
 68 79  1  0  0  0  0
 70 71  1  0  0  0  0
M  CHG  2  79   1  80   1
M  ISO  4  38 100  56 101  78 100  87 101
M  END
> <Batch ID>
0142

> <Smiles>
CNC(C)C(=O)NC(C(=O)N1Cc2cc([101O:1][101CH:1]3CCC(c4cc(OC)ccc4CNCCC[100NH:0][100C:0](=O)N4CCCC(n5nc(-c6ccc(Oc7ccc(F)cc7F)cc6)c(C(N)=O)c5N)C4)CC3)ccc2CC1C(=O)NC1CCCc2ccccc21)C(C)(C)C

> <Shape>
0.282

> <Color>
0.081

> <Negative vol penalty>
0.000

$$$$

  -OEChem-04052321183D

 85 93  0     1  0  0  0  0  0999 V2000
  -34.6995  -23.4620   17.9887 C   0  0  0  0  0  0  0  0  0  0  0  0
  -33.8565  -22.6530   18.7439 C   0  0  0  0  0  0  0  0  0  0  0  0
  -23.2879   -9.7972   19.9197 C   0  0  0  0  0  0  0  0  0  0  0  0
  -23.7349   -9.9485   22.2891 C   0  0  0  0  0  0  0  0  0  0  0  0
  -34.7863  -24.8259   18.2647 C   0  0  0  0  0  0  0  0  0  0  0  0
  -33.1005  -23.2073   19.7762 C   0  0  0  0  0  0  0  0  0  0  0  0
  -28.3071  -21.5739   19.7672 C   0  0  0  0  0  0  0  0  0  0  0  0
  -30.5934  -19.1925   23.7524 C   0  0  0  0  0  0  0  0  0  0  0  0
  -22.5607   -8.6259   20.1316 C   0  0  0  0  0  0  0  0  0  0  0  0
  -23.0077   -8.7772   22.5011 C   0  0  0  0  0  0  0  0  0  0  0  0
  -28.0670  -20.3016   20.2842 C   0  0  0  0  0  0  0  0  0  0  0  0
  -31.8981  -19.6602   23.5957 C   0  0  0  0  0  0  0  0  0  0  0  0
  -19.4772   -7.7717   21.2247 C   0  0  0  0  0  0  0  0  0  0  0  0
  -18.2491   -7.6447   20.5756 C   0  0  0  0  0  0  0  0  0  0  0  0
  -27.3372  -21.2897   22.3604 C   0  0  0  0  0  0  0  0  0  0  0  0
  -32.7098  -17.3848   23.5632 C   0  0  0  0  0  0  0  0  0  0  0  0
  -19.0517   -5.6664   19.4445 C   0  0  0  0  0  0  0  0  0  0  0  0
  -23.8751  -10.4584   20.9984 C   0  0  0  0  0  0  0  0  0  0  0  0
  -24.1358  -12.9874   20.7887 C   0  0  0  0  0  0  0  0  0  0  0  0
  -34.0237  -25.3989   19.2946 C   0  0  0  0  0  0  0  0  0  0  0  0
  -28.0740  -22.7152   20.5480 C   0  0  0  0  0  0  0  0  0  0  0  0
  -33.1782  -24.5799   20.0671 C   0  0  0  0  0  0  0  0  0  0  0  0
  -27.5727  -22.5754   21.8500 C   0  0  0  0  0  0  0  0  0  0  0  0
  -30.3468  -17.8210   23.8145 C   0  0  0  0  0  0  0  0  0  0  0  0
  -31.4050  -16.9172   23.7199 C   0  0  0  0  0  0  0  0  0  0  0  0
  -22.4206   -8.1159   21.4223 C   0  0  0  0  0  0  0  0  0  0  0  0
  -27.5847  -20.1592   21.5820 C   0  0  0  0  0  0  0  0  0  0  0  0
  -32.9563  -18.7563   23.5011 C   0  0  0  0  0  0  0  0  0  0  0  0
  -20.4925   -6.8461   20.9837 C   0  0  0  0  0  0  0  0  0  0  0  0
  -18.0364   -6.5921   19.6855 C   0  0  0  0  0  0  0  0  0  0  0  0
  -20.2797   -5.7935   20.0936 C   0  0  0  0  0  0  0  0  0  0  0  0
  -24.6269  -11.6681   20.7801 C   0  0  0  0  0  0  0  0  0  0  0  0
  -25.2380  -13.7657   20.5319 C   0  0  0  0  0  0  0  0  0  0  0  0
  -22.8026  -13.4666   21.0091 C   0  0  0  0  0  0  0  0  0  0  0  0
  -29.8851  -25.0750   21.6682 C   0  0  0  0  0  0  0  0  0  0  0  0
  -27.0341  -26.2786   22.6405 C   0  0  0  0  0  0  0  0  0  0  0  0
  -23.7828  -25.6935   23.4969 C   0  0  0  0  0  0  0  0  0  0  0  0
  -31.1074  -12.9240   21.3648 C   0  0  0  0  0  0  0  0  0  0  0  0
  -34.1867  -26.8696   19.5864 C   0  0  0  0  0  0  0  0  0  0  0  0
  -28.3127  -24.0816   19.9662 C   0  0  0  0  0  0  0  0  0  0  0  0
  -27.2868  -23.7696   22.7221 C   0  0  0  0  0  0  0  0  0  0  0  0
  -33.0704  -27.4458   20.4537 C   0  0  0  0  0  0  0  0  0  0  0  0
  -29.4637  -13.6501   18.2911 C   0  0  0  0  0  0  0  0  0  0  0  0
  -32.7933  -26.5324   21.6435 C   0  0  0  0  0  0  0  0  0  0  0  0
  -27.9934  -13.3435   18.5812 C   0  0  0  0  0  0  0  0  0  0  0  0
  -30.3954  -12.6735   19.0054 C   0  0  0  0  0  0  0  0  0  0  0  0
  -28.7058  -12.2528   20.7495 C   0  0  0  0  0  0  0  0  0  0  0  0
  -32.3236  -25.1485   21.1790 C   0  0  1  0  0  0  0  0  0  0  0  0
  -28.5275  -25.1544   21.0294 C   0  0  1  0  0  0  0  0  0  0  0  0
  -27.7293  -13.2455   20.0958 C   0  0  2  0  0  0  0  0  0  0  0  0
  -21.7106  -26.8701   24.2837 C   0  0  0  0  0  0  0  0  0  0  0  0
  -28.2206  -26.4882   25.4438 C   0  0  0  0  0  0  0  0  0  0  0  0
  -25.8946  -26.7463   26.3334 C   0  0  0  0  0  0  0  0  0  0  0  0
  -26.8197  -28.4421   24.7551 C   0  0  0  0  0  0  0  0  0  0  0  0
  -22.2659  -24.8782   21.0899 C   0  0  0  0  0  0  0  0  0  0  0  0
  -34.4095  -20.6273   23.2924 C   0  0  0  0  0  0  0  0  0  0  0  0
  -28.9266  -17.3438   23.9843 C   0  0  0  0  0  0  0  0  0  0  0  0
  -28.3011  -16.8013   22.6974 C   0  0  0  0  0  0  0  0  0  0  0  0
  -32.2245  -14.5607   23.6887 C   0  0  0  0  0  0  0  0  0  0  0  0
  -31.6654  -13.1486   23.7726 C   0  0  0  0  0  0  0  0  0  0  0  0
  -28.1649  -17.8529   21.6024 C   0  0  0  0  0  0  0  0  0  1  0  0
  -26.1895  -26.1533   23.8854 C   0  0  1  0  0  0  0  0  0  0  0  0
  -22.4925  -26.3742   23.0772 C   0  0  2  0  0  0  0  0  0  0  0  0
  -26.7882  -26.9347   25.0889 C   0  0  0  0  0  0  0  0  0  0  0  0
  -25.9388  -11.6078   20.5369 N   0  0  0  0  0  0  0  0  0  0  0  0
  -26.2815  -12.8989   20.3903 N   0  0  0  0  0  0  0  0  0  0  0  0
  -27.5422  -25.0841   22.1104 N   0  0  0  0  0  0  0  0  0  0  0  0
  -30.0938  -12.6288   20.4382 N   0  0  0  0  0  0  0  0  0  0  0  0
  -25.4067  -15.1000   20.4156 N   0  0  0  0  0  0  0  0  0  0  0  0
  -21.7893  -12.5312   21.2593 N   0  0  0  0  0  0  0  0  0  0  0  0
  -31.1740  -15.5253   23.7809 N   0  0  0  0  0  0  0  0  0  0  0  0
  -30.9342  -25.1951   20.7768 N   0  0  0  0  0  0  0  0  0  0  0  0
  -24.8439  -26.5739   23.5098 N   0  0  0  0  0  0  0  0  0  0  0  0
  -30.7355  -12.8648   22.7023 N   0  0  0  0  0  0  0  0  0  0  0  0
  -21.6306  -25.4263   22.3158 N   0  3  0  0  0  0  0  0  0  0  0  0
  -22.5153  -14.6870   20.9688 O   0  0  0  0  0  0  0  0  0  0  0  0
  -29.9743  -24.9179   22.8802 O   0  0  0  0  0  0  0  0  0  0  0  0
  -27.2298  -27.3943   22.1522 O   0  0  0  0  0  0  0  0  0  0  0  0
  -23.8426  -24.5009   23.7880 O   0  0  0  0  0  0  0  0  0  0  0  0
  -32.2570  -13.2238   21.0251 O   0  0  0  0  0  0  0  0  0  0  0  0
  -21.7109   -6.9732   21.6295 O   0  0  0  0  0  0  0  0  0  0  0  0
  -34.2294  -19.2130   23.3482 O   0  0  0  0  0  0  0  0  0  0  0  0
  -27.3501  -18.9185   22.0894 O   0  0  0  0  0  0  0  0  0  1  0  0
  -16.8565   -6.4693   19.0634 F   0  0  0  0  0  0  0  0  0  0  0  0
  -21.2510   -4.9005   19.8589 F   0  0  0  0  0  0  0  0  0  0  0  0
  1  2  1  0  0  0  0
  1  5  2  0  0  0  0
  2  6  2  0  0  0  0
  3  9  2  0  0  0  0
  3 18  1  0  0  0  0
  4 10  1  0  0  0  0
  4 18  2  0  0  0  0
  5 20  1  0  0  0  0
  6 22  1  0  0  0  0
  7 11  2  0  0  0  0
  7 21  1  0  0  0  0
  8 12  2  0  0  0  0
  8 24  1  0  0  0  0
  9 26  1  0  0  0  0
 10 26  2  0  0  0  0
 11 27  1  0  0  0  0
 12 28  1  0  0  0  0
 13 14  2  0  0  0  0
 13 29  1  0  0  0  0
 14 30  1  0  0  0  0
 15 23  1  0  0  0  0
 15 27  2  0  0  0  0
 16 25  1  0  0  0  0
 16 28  2  0  0  0  0
 17 30  2  0  0  0  0
 17 31  1  0  0  0  0
 18 32  1  0  0  0  0
 19 32  1  0  0  0  0
 19 33  2  0  0  0  0
 19 34  1  0  0  0  0
 20 22  2  0  0  0  0
 20 39  1  0  0  0  0
 21 23  2  0  0  0  0
 21 40  1  0  0  0  0
 22 48  1  0  0  0  0
 23 41  1  0  0  0  0
 24 25  2  0  0  0  0
 24 57  1  0  0  0  0
 25 71  1  0  0  0  0
 26 81  1  0  0  0  0
 27 83  1  0  0  0  0
 28 82  1  0  0  0  0
 29 31  2  0  0  0  0
 29 81  1  0  0  0  0
 30 84  1  0  0  0  0
 31 85  1  0  0  0  0
 32 65  2  0  0  0  0
 33 66  1  0  0  0  0
 33 69  1  0  0  0  0
 34 70  1  0  0  0  0
 34 76  2  0  0  0  0
 35 49  1  0  0  0  0
 35 72  1  0  0  0  0
 35 77  2  0  0  0  0
 36 62  1  0  0  0  0
 36 67  1  0  0  0  0
 36 78  2  0  0  0  0
 37 63  1  0  0  0  0
 37 73  1  0  0  0  0
 37 79  2  0  0  0  0
 38 68  1  0  0  0  0
 38 74  1  0  0  0  0
 38 80  2  0  0  0  0
 39 42  1  0  0  0  0
 40 49  1  0  0  0  0
 41 67  1  0  0  0  0
 42 44  1  0  0  0  0
 43 45  1  0  0  0  0
 43 46  1  0  0  0  0
 44 48  1  0  0  0  0
 45 50  1  0  0  0  0
 46 68  1  0  0  0  0
 47 50  1  0  0  0  0
 47 68  1  0  0  0  0
 48 72  1  0  0  0  0
 49 67  1  0  0  0  0
 50 66  1  0  0  0  0
 51 63  1  0  0  0  0
 52 64  1  0  0  0  0
 53 64  1  0  0  0  0
 54 64  1  0  0  0  0
 55 75  1  0  0  0  0
 56 82  1  0  0  0  0
 57 58  1  0  0  0  0
 58 61  1  0  0  0  0
 59 60  1  0  0  0  0
 59 71  1  0  0  0  0
 60 74  1  0  0  0  0
 61 83  1  0  0  0  0
 62 64  1  0  0  0  0
 62 73  1  0  0  0  0
 63 75  1  0  0  0  0
 65 66  1  0  0  0  0
M  CHG  1  75   1
M  ISO  4  38 100  61 101  74 100  83 101
M  END
> <Batch ID>
0142

> <Smiles>
CNC(C)C(=O)NC(C(=O)N1Cc2cc([101O:1][101CH2:1]CCc3ccc(OC)cc3NCC[100NH:0][100C:0](=O)N3CCCC(n4nc(-c5ccc(Oc6ccc(F)cc6F)cc5)c(C(N)=O)c4N)C3)ccc2CC1C(=O)NC1CCCc2ccccc21)C(C)(C)C

> <Shape>
0.185

> <Color>
0.174

> <Negative vol penalty>
0.000

$$$$

  -OEChem-04052321183D

 83 91  0     1  0  0  0  0  0999 V2000
  -19.3833  -22.4447   19.9170 C   0  0  0  0  0  0  0  0  0  0  0  0
  -20.7179  -22.0558   19.9712 C   0  0  0  0  0  0  0  0  0  0  0  0
  -22.6014  -26.5071   23.2232 C   0  0  0  0  0  0  0  0  0  0  0  0
  -22.4930  -25.9086   20.8850 C   0  0  0  0  0  0  0  0  0  0  0  0
  -18.4141  -21.7022   20.5902 C   0  0  0  0  0  0  0  0  0  0  0  0
  -21.0843  -20.9246   20.6996 C   0  0  0  0  0  0  0  0  0  0  0  0
  -24.3368  -17.9655   18.1876 C   0  0  0  0  0  0  0  0  0  0  0  0
  -21.2177  -26.6817   23.2427 C   0  0  0  0  0  0  0  0  0  0  0  0
  -21.1092  -26.0831   20.9045 C   0  0  0  0  0  0  0  0  0  0  0  0
  -25.6710  -18.3688   18.1566 C   0  0  0  0  0  0  0  0  0  0  0  0
  -17.7552  -27.6337   23.8158 C   0  0  0  0  0  0  0  0  0  0  0  0
  -31.1445  -21.4647   19.5782 C   0  0  0  0  0  0  0  0  0  0  0  0
  -17.2521  -28.7690   24.4510 C   0  0  0  0  0  0  0  0  0  0  0  0
  -31.8482  -22.4846   18.9474 C   0  0  0  0  0  0  0  0  0  0  0  0
  -26.1795  -16.8015   19.9184 C   0  0  0  0  0  0  0  0  0  0  0  0
  -18.4850  -30.1725   22.9189 C   0  0  0  0  0  0  0  0  0  0  0  0
  -23.2391  -26.1206   22.0443 C   0  0  0  0  0  0  0  0  0  0  0  0
  -25.3803  -24.7565   22.2934 C   0  0  0  0  0  0  0  0  0  0  0  0
  -18.7675  -20.5558   21.3194 C   0  0  0  0  0  0  0  0  0  0  0  0
  -23.9110  -16.9833   19.0934 C   0  0  0  0  0  0  0  0  0  0  0  0
  -20.1191  -20.1668   21.3844 C   0  0  0  0  0  0  0  0  0  0  0  0
  -24.8398  -16.3857   19.9572 C   0  0  0  0  0  0  0  0  0  0  0  0
  -20.4716  -26.4696   22.0834 C   0  0  0  0  0  0  0  0  0  0  0  0
  -26.5920  -17.7888   19.0240 C   0  0  0  0  0  0  0  0  0  0  0  0
  -18.6232  -27.7677   22.7321 C   0  0  0  0  0  0  0  0  0  0  0  0
  -29.7547  -21.4579   19.5369 C   0  0  0  0  0  0  0  0  0  0  0  0
  -17.6169  -30.0384   24.0025 C   0  0  0  0  0  0  0  0  0  0  0  0
  -18.9881  -29.0371   22.2837 C   0  0  0  0  0  0  0  0  0  0  0  0
  -24.6685  -25.9407   22.0234 C   0  0  0  0  0  0  0  0  0  0  0  0
  -31.1210  -23.4664   18.2940 C   0  0  0  0  0  0  0  0  0  0  0  0
  -29.1212  -22.4858   18.8573 C   0  0  0  0  0  0  0  0  0  0  0  0
  -26.6997  -25.1068   22.1416 C   0  0  0  0  0  0  0  0  0  0  0  0
  -24.8925  -23.4561   22.6493 C   0  0  0  0  0  0  0  0  0  0  0  0
  -21.8491  -16.9043   21.5112 C   0  0  0  0  0  0  0  0  0  0  0  0
  -22.5481  -13.7367   21.4934 C   0  0  0  0  0  0  0  0  0  0  0  0
  -24.7524  -11.2608   20.6825 C   0  0  0  0  0  0  0  0  0  0  0  0
  -30.7511  -27.7069   19.3183 C   0  0  0  0  0  0  0  0  0  0  0  0
  -17.6910  -19.8123   22.0696 C   0  0  0  0  0  0  0  0  0  0  0  0
  -22.4736  -16.5403   19.0960 C   0  0  0  0  0  0  0  0  0  0  0  0
  -24.4375  -15.3125   20.9345 C   0  0  0  0  0  0  0  0  0  0  0  0
  -18.1118  -18.4127   22.5107 C   0  0  0  0  0  0  0  0  0  0  0  0
  -28.8613  -29.6509   21.6261 C   0  0  0  0  0  0  0  0  0  0  0  0
  -19.4981  -18.4475   23.1462 C   0  0  0  0  0  0  0  0  0  0  0  0
  -27.6583  -28.7641   21.9523 C   0  0  0  0  0  0  0  0  0  0  0  0
  -29.2835  -29.5141   20.1650 C   0  0  0  0  0  0  0  0  0  0  0  0
  -28.3319  -27.2438   20.0461 C   0  0  0  0  0  0  0  0  0  0  0  0
  -20.5526  -18.9316   22.1436 C   0  0  1  0  0  0  0  0  0  0  0  0
  -22.0485  -15.8984   20.4130 C   0  0  1  0  0  0  0  0  0  0  0  0
  -27.9040  -27.3053   21.5224 C   0  0  2  0  0  0  0  0  0  0  0  0
  -27.6298  -22.5254   18.7839 C   0  0  0  0  0  0  0  0  0  0  0  0
  -25.0630   -8.7748   20.8267 C   0  0  0  0  0  0  0  0  0  0  0  0
  -23.2123  -13.9943   24.4603 C   0  0  0  0  0  0  0  0  0  0  0  0
  -24.3921  -11.7908   24.3161 C   0  0  0  0  0  0  0  0  0  0  0  0
  -21.9452  -11.9262   23.8506 C   0  0  0  0  0  0  0  0  0  0  0  0
  -24.8835  -10.9897   17.7383 C   0  0  0  0  0  0  0  0  0  0  0  0
  -31.8437  -24.5759   17.6059 C   0  0  0  0  0  0  0  0  0  0  0  0
  -32.1020  -25.7904   18.5052 C   0  0  0  0  0  0  0  0  0  0  0  0
  -28.6229  -18.1029   20.2210 C   0  0  0  0  0  0  0  0  0  1  0  0
  -29.6842  -19.1859   20.2361 C   0  0  0  0  0  0  0  0  0  0  0  0
  -23.5809  -12.8660   22.1674 C   0  0  1  0  0  0  0  0  0  0  0  0
  -24.5584   -9.9307   19.9770 C   0  0  2  0  0  0  0  0  0  0  0  0
  -23.2901  -12.6659   23.6817 C   0  0  0  0  0  0  0  0  0  0  0  0
  -25.4694  -26.9666   21.7232 N   0  0  0  0  0  0  0  0  0  0  0  0
  -29.7708  -23.4934   18.2325 N   0  0  0  0  0  0  0  0  0  0  0  0
  -26.6980  -26.4281   21.8036 N   0  0  0  0  0  0  0  0  0  0  0  0
  -23.0195  -14.9180   20.9032 N   0  0  0  0  0  0  0  0  0  0  0  0
  -29.5023  -28.1068   19.8219 N   0  0  0  0  0  0  0  0  0  0  0  0
  -27.8495  -24.4104   22.2659 N   0  0  0  0  0  0  0  0  0  0  0  0
  -23.5080  -23.2697   22.7620 N   0  0  0  0  0  0  0  0  0  0  0  0
  -20.9021  -17.8691   21.2253 N   0  0  0  0  0  0  0  0  0  0  0  0
  -23.6332  -11.6264   21.4001 N   0  0  0  0  0  0  0  0  0  0  0  0
  -30.8762  -26.3545   19.0247 N   0  0  0  0  0  0  0  0  0  0  0  0
  -25.2958   -9.9189   18.6820 N   0  3  0  0  0  0  0  0  0  0  0  0
  -25.6623  -22.4923   22.8772 O   0  0  0  0  0  0  0  0  0  0  0  0
  -22.5047  -16.8111   22.5423 O   0  0  0  0  0  0  0  0  0  0  0  0
  -21.3678  -13.3784   21.4845 O   0  0  0  0  0  0  0  0  0  0  0  0
  -25.7941  -11.9088   20.6077 O   0  0  0  0  0  0  0  0  0  0  0  0
  -31.6870  -28.4956   19.1482 O   0  0  0  0  0  0  0  0  0  0  0  0
  -19.1213  -26.6396   22.1021 O   0  0  0  0  0  0  0  0  0  0  0  0
  -27.8948  -18.1810   18.9962 O   0  0  0  0  0  0  0  0  0  1  0  0
  -29.0518  -20.4574   20.1550 O   0  0  0  0  0  0  0  0  0  0  0  0
  -17.1325  -31.1286   24.6116 F   0  0  0  0  0  0  0  0  0  0  0  0
  -19.8208  -29.1723   21.2424 F   0  0  0  0  0  0  0  0  0  0  0  0
  1  2  1  0  0  0  0
  1  5  2  0  0  0  0
  2  6  2  0  0  0  0
  3  8  2  0  0  0  0
  3 17  1  0  0  0  0
  4  9  1  0  0  0  0
  4 17  2  0  0  0  0
  5 19  1  0  0  0  0
  6 21  1  0  0  0  0
  7 10  2  0  0  0  0
  7 20  1  0  0  0  0
  8 23  1  0  0  0  0
  9 23  2  0  0  0  0
 10 24  1  0  0  0  0
 11 13  2  0  0  0  0
 11 25  1  0  0  0  0
 12 14  2  0  0  0  0
 12 26  1  0  0  0  0
 13 27  1  0  0  0  0
 14 30  1  0  0  0  0
 15 22  1  0  0  0  0
 15 24  2  0  0  0  0
 16 27  2  0  0  0  0
 16 28  1  0  0  0  0
 17 29  1  0  0  0  0
 18 29  1  0  0  0  0
 18 32  2  0  0  0  0
 18 33  1  0  0  0  0
 19 21  2  0  0  0  0
 19 38  1  0  0  0  0
 20 22  2  0  0  0  0
 20 39  1  0  0  0  0
 21 47  1  0  0  0  0
 22 40  1  0  0  0  0
 23 79  1  0  0  0  0
 24 80  1  0  0  0  0
 25 28  2  0  0  0  0
 25 79  1  0  0  0  0
 26 31  2  0  0  0  0
 26 81  1  0  0  0  0
 27 82  1  0  0  0  0
 28 83  1  0  0  0  0
 29 63  2  0  0  0  0
 30 56  1  0  0  0  0
 30 64  2  0  0  0  0
 31 50  1  0  0  0  0
 31 64  1  0  0  0  0
 32 65  1  0  0  0  0
 32 68  1  0  0  0  0
 33 69  1  0  0  0  0
 33 74  2  0  0  0  0
 34 48  1  0  0  0  0
 34 70  1  0  0  0  0
 34 75  2  0  0  0  0
 35 60  1  0  0  0  0
 35 66  1  0  0  0  0
 35 76  2  0  0  0  0
 36 61  1  0  0  0  0
 36 71  1  0  0  0  0
 36 77  2  0  0  0  0
 37 67  1  0  0  0  0
 37 72  1  0  0  0  0
 37 78  2  0  0  0  0
 38 41  1  0  0  0  0
 39 48  1  0  0  0  0
 40 66  1  0  0  0  0
 41 43  1  0  0  0  0
 42 44  1  0  0  0  0
 42 45  1  0  0  0  0
 43 47  1  0  0  0  0
 44 49  1  0  0  0  0
 45 67  1  0  0  0  0
 46 49  1  0  0  0  0
 46 67  1  0  0  0  0
 47 70  1  0  0  0  0
 48 66  1  0  0  0  0
 49 65  1  0  0  0  0
 51 61  1  0  0  0  0
 52 62  1  0  0  0  0
 53 62  1  0  0  0  0
 54 62  1  0  0  0  0
 55 73  1  0  0  0  0
 56 57  1  0  0  0  0
 57 72  1  0  0  0  0
 58 59  1  0  0  0  0
 58 80  1  0  0  0  0
 59 81  1  0  0  0  0
 60 62  1  0  0  0  0
 60 71  1  0  0  0  0
 61 73  1  0  0  0  0
 63 65  1  0  0  0  0
M  CHG  1  73   1
M  ISO  4  37 100  58 101  72 100  80 101
M  END
> <Batch ID>
0142

> <Smiles>
CNC(C)C(=O)NC(C(=O)N1Cc2cc([101O:1][101CH2:1]COc3ccc(CC[100NH:0][100C:0](=O)N4CCCC(n5nc(-c6ccc(Oc7ccc(F)cc7F)cc6)c(C(N)=O)c5N)C4)nc3C)ccc2CC1C(=O)NC1CCCc2ccccc21)C(C)(C)C

> <Shape>
0.204

> <Color>
0.054

> <Negative vol penalty>
0.000

$$$$

  -OEChem-04052321183D

 88 97  0     1  0  0  0  0  0999 V2000
  -16.4254  -29.1698   23.3494 C   0  0  0  0  0  0  0  0  0  0  0  0
  -17.3283  -28.2714   23.9087 C   0  0  0  0  0  0  0  0  0  0  0  0
  -24.0701   -9.7032   22.0260 C   0  0  0  0  0  0  0  0  0  0  0  0
  -22.8770   -9.7559   19.9258 C   0  0  0  0  0  0  0  0  0  0  0  0
  -16.8848  -30.1956   22.5244 C   0  0  0  0  0  0  0  0  0  0  0  0
  -18.6913  -28.3976   23.6425 C   0  0  0  0  0  0  0  0  0  0  0  0
  -23.3178  -27.1683   27.4622 C   0  0  0  0  0  0  0  0  0  0  0  0
  -23.4049   -8.5277   22.3744 C   0  0  0  0  0  0  0  0  0  0  0  0
  -22.2118   -8.5804   20.2742 C   0  0  0  0  0  0  0  0  0  0  0  0
  -24.1504  -26.0586   27.6005 C   0  0  0  0  0  0  0  0  0  0  0  0
  -23.6259   -5.2322   21.6507 C   0  0  0  0  0  0  0  0  0  0  0  0
  -24.3834   -4.1964   22.1972 C   0  0  0  0  0  0  0  0  0  0  0  0
  -25.8118  -27.1416   26.2272 C   0  0  0  0  0  0  0  0  0  0  0  0
  -28.3472  -20.8121   25.9481 C   0  0  0  0  0  0  0  0  0  0  0  0
  -29.8796  -21.6251   27.6298 C   0  0  0  0  0  0  0  0  0  0  0  0
  -23.0454   -4.2785   24.2072 C   0  0  0  0  0  0  0  0  0  0  0  0
  -23.8061  -10.3173   20.8017 C   0  0  0  0  0  0  0  0  0  0  0  0
  -25.7138  -11.6452   19.7503 C   0  0  0  0  0  0  0  0  0  0  0  0
  -18.2550  -30.3402   22.2557 C   0  0  0  0  0  0  0  0  0  0  0  0
  -23.7221  -28.2703   26.6951 C   0  0  0  0  0  0  0  0  0  0  0  0
  -19.1694  -29.4254   22.8120 C   0  0  0  0  0  0  0  0  0  0  0  0
  -24.9835  -28.2651   26.0828 C   0  0  0  0  0  0  0  0  0  0  0  0
  -29.2962  -19.8767   25.5356 C   0  0  0  0  0  0  0  0  0  0  0  0
  -30.8286  -20.6896   27.2173 C   0  0  0  0  0  0  0  0  0  0  0  0
  -30.5368  -19.8154   26.1702 C   0  0  0  0  0  0  0  0  0  0  0  0
  -22.4757   -7.9663   21.4985 C   0  0  0  0  0  0  0  0  0  0  0  0
  -25.3964  -26.0440   26.9806 C   0  0  0  0  0  0  0  0  0  0  0  0
  -22.5782   -5.7914   22.3824 C   0  0  0  0  0  0  0  0  0  0  0  0
  -28.6390  -21.6863   26.9952 C   0  0  0  0  0  0  0  0  0  0  0  0
  -24.0931   -3.7195   23.4755 C   0  0  0  0  0  0  0  0  0  0  0  0
  -22.2879   -5.3145   23.6606 C   0  0  0  0  0  0  0  0  0  0  0  0
  -24.4926  -11.5319   20.4415 C   0  0  0  0  0  0  0  0  0  0  0  0
  -25.9324  -12.9981   19.6591 C   0  0  0  0  0  0  0  0  0  0  0  0
  -26.5736  -10.6193   19.2366 C   0  0  0  0  0  0  0  0  0  0  0  0
  -22.6311  -29.7007   24.0745 C   0  0  0  0  0  0  0  0  0  0  0  0
  -24.9683  -31.8480   24.7444 C   0  0  0  0  0  0  0  0  0  0  0  0
  -27.9512  -32.5026   26.2677 C   0  0  0  0  0  0  0  0  0  0  0  0
  -25.9551  -18.0698   21.7324 C   0  0  0  0  0  0  0  0  0  0  0  0
  -18.6995  -31.4362   21.3198 C   0  0  0  0  0  0  0  0  0  0  0  0
  -22.8234  -29.4707   26.5777 C   0  0  0  0  0  0  0  0  0  0  0  0
  -25.4729  -29.4314   25.2651 C   0  0  0  0  0  0  0  0  0  0  0  0
  -20.1966  -31.7265   21.3891 C   0  0  0  0  0  0  0  0  0  0  0  0
  -22.8889  -16.9083   20.6382 C   0  0  0  0  0  0  0  0  0  0  0  0
  -20.9944  -30.4267   21.3586 C   0  0  0  0  0  0  0  0  0  0  0  0
  -23.1212  -15.4124   20.4272 C   0  0  0  0  0  0  0  0  0  0  0  0
  -27.7633  -18.0222   24.7400 C   0  0  0  0  0  0  0  0  0  0  0  0
  -28.6902  -19.6955   23.0815 C   0  0  0  0  0  0  0  0  0  0  0  0
  -23.5795  -17.3941   21.9072 C   0  0  0  0  0  0  0  0  0  0  0  0
  -27.4011  -17.0992   23.5729 C   0  0  0  0  0  0  0  0  0  0  0  0
  -28.3315  -18.7253   21.9596 C   0  0  0  0  0  0  0  0  0  0  0  0
  -25.2953  -15.6213   21.7312 C   0  0  0  0  0  0  0  0  0  0  0  0
  -28.9523  -18.9371   24.3953 C   0  0  0  0  0  0  0  0  0  0  0  0
  -20.6579  -29.5444   22.5668 C   0  0  1  0  0  0  0  0  0  0  0  0
  -23.1239  -30.3244   25.3496 C   0  0  1  0  0  0  0  0  0  0  0  0
  -24.6229  -15.0767   20.4546 C   0  0  1  0  0  0  0  0  0  0  0  0
  -32.1504  -20.6453   27.9115 C   0  0  0  0  0  0  0  0  0  0  0  0
  -31.2395  -17.4095   26.2349 C   0  0  0  0  0  0  0  0  0  0  0  0
  -29.6289  -34.3377   26.6072 C   0  0  0  0  0  0  0  0  0  0  0  0
  -25.9825  -31.4447   21.8950 C   0  0  0  0  0  0  0  0  0  0  0  0
  -28.1346  -32.5234   22.5826 C   0  0  0  0  0  0  0  0  0  0  0  0
  -26.0046  -33.8177   22.6841 C   0  0  0  0  0  0  0  0  0  0  0  0
  -27.5850  -32.4523   29.2041 C   0  0  0  0  0  0  0  0  0  0  0  0
  -31.5543  -18.8125   25.7273 C   0  0  0  0  0  0  0  0  0  0  0  0
  -25.5821  -23.6929   27.2873 C   0  0  0  0  0  0  0  0  0  1  0  0
  -26.4670  -22.6094   26.7020 C   0  0  0  0  0  0  0  0  0  0  0  0
  -26.4263  -31.9899   24.3793 C   0  0  1  0  0  0  0  0  0  0  0  0
  -28.3953  -33.6444   27.1642 C   0  0  2  0  0  0  0  0  0  0  0  0
  -26.6273  -32.4210   22.8990 C   0  0  0  0  0  0  0  0  0  0  0  0
  -23.9720  -12.7182   20.7664 N   0  0  0  0  0  0  0  0  0  0  0  0
  -24.8704  -13.5898   20.2774 N   0  0  0  0  0  0  0  0  0  0  0  0
  -24.5553  -30.5791   25.1748 N   0  0  0  0  0  0  0  0  0  0  0  0
  -25.0020  -17.0534   21.8966 N   0  0  0  0  0  0  0  0  0  0  0  0
  -27.2045  -17.8741   22.3399 N   0  0  0  0  0  0  0  0  0  0  0  0
  -26.9276  -13.7274   19.1113 N   0  0  0  0  0  0  0  0  0  0  0  0
  -26.1985   -9.2809   19.4169 N   0  0  0  0  0  0  0  0  0  0  0  0
  -21.3291  -30.0332   23.7521 N   0  0  0  0  0  0  0  0  0  0  0  0
  -27.0032  -32.9103   25.3532 N   0  0  0  0  0  0  0  0  0  0  0  0
  -28.7169  -33.1371   28.5281 N   0  3  0  0  0  0  0  0  0  0  0  0
  -27.6509  -10.8812   18.6499 O   0  0  0  0  0  0  0  0  0  0  0  0
  -23.3772  -28.9729   23.4301 O   0  0  0  0  0  0  0  0  0  0  0  0
  -24.2250  -32.8285   24.6578 O   0  0  0  0  0  0  0  0  0  0  0  0
  -28.4032  -31.3639   26.3661 O   0  0  0  0  0  0  0  0  0  0  0  0
  -25.7056  -19.0917   21.0808 O   0  0  0  0  0  0  0  0  0  0  0  0
  -21.8266   -6.8192   21.8381 O   0  0  0  0  0  0  0  0  0  0  0  0
  -26.2163  -24.9545   27.1143 O   0  0  0  0  0  0  0  0  0  1  0  0
  -27.7136  -22.6003   27.3959 O   0  0  0  0  0  0  0  0  0  0  0  0
  -24.8196   -2.7236   23.9996 F   0  0  0  0  0  0  0  0  0  0  0  0
  -21.2819   -5.8468   24.3679 F   0  0  0  0  0  0  0  0  0  0  0  0
  1  2  1  0  0  0  0
  1  5  2  0  0  0  0
  2  6  2  0  0  0  0
  3  8  2  0  0  0  0
  3 17  1  0  0  0  0
  4  9  1  0  0  0  0
  4 17  2  0  0  0  0
  5 19  1  0  0  0  0
  6 21  1  0  0  0  0
  7 10  2  0  0  0  0
  7 20  1  0  0  0  0
  8 26  1  0  0  0  0
  9 26  2  0  0  0  0
 10 27  1  0  0  0  0
 11 12  2  0  0  0  0
 11 28  1  0  0  0  0
 12 30  1  0  0  0  0
 13 22  1  0  0  0  0
 13 27  2  0  0  0  0
 14 23  1  0  0  0  0
 14 29  2  0  0  0  0
 15 24  2  0  0  0  0
 15 29  1  0  0  0  0
 16 30  2  0  0  0  0
 16 31  1  0  0  0  0
 17 32  1  0  0  0  0
 18 32  1  0  0  0  0
 18 33  2  0  0  0  0
 18 34  1  0  0  0  0
 19 21  2  0  0  0  0
 19 39  1  0  0  0  0
 20 22  2  0  0  0  0
 20 40  1  0  0  0  0
 21 53  1  0  0  0  0
 22 41  1  0  0  0  0
 23 25  2  0  0  0  0
 23 52  1  0  0  0  0
 24 25  1  0  0  0  0
 24 56  1  0  0  0  0
 25 63  1  0  0  0  0
 26 84  1  0  0  0  0
 27 85  1  0  0  0  0
 28 31  2  0  0  0  0
 28 84  1  0  0  0  0
 29 86  1  0  0  0  0
 30 87  1  0  0  0  0
 31 88  1  0  0  0  0
 32 69  2  0  0  0  0
 33 70  1  0  0  0  0
 33 74  1  0  0  0  0
 34 75  1  0  0  0  0
 34 79  2  0  0  0  0
 35 54  1  0  0  0  0
 35 76  1  0  0  0  0
 35 80  2  0  0  0  0
 36 66  1  0  0  0  0
 36 71  1  0  0  0  0
 36 81  2  0  0  0  0
 37 67  1  0  0  0  0
 37 77  1  0  0  0  0
 37 82  2  0  0  0  0
 38 72  1  0  0  0  0
 38 73  1  0  0  0  0
 38 83  2  0  0  0  0
 39 42  1  0  0  0  0
 40 54  1  0  0  0  0
 41 71  1  0  0  0  0
 42 44  1  0  0  0  0
 43 45  1  0  0  0  0
 43 48  1  0  0  0  0
 44 53  1  0  0  0  0
 45 55  1  0  0  0  0
 46 49  1  0  0  0  0
 46 52  1  0  0  0  0
 47 50  1  0  0  0  0
 47 52  1  0  0  0  0
 48 72  1  0  0  0  0
 49 73  1  0  0  0  0
 50 73  1  0  0  0  0
 51 55  1  0  0  0  0
 51 72  1  0  0  0  0
 53 76  1  0  0  0  0
 54 71  1  0  0  0  0
 55 70  1  0  0  0  0
 57 63  1  0  0  0  0
 58 67  1  0  0  0  0
 59 68  1  0  0  0  0
 60 68  1  0  0  0  0
 61 68  1  0  0  0  0
 62 78  1  0  0  0  0
 64 65  1  0  0  0  0
 64 85  1  0  0  0  0
 65 86  1  0  0  0  0
 66 68  1  0  0  0  0
 66 77  1  0  0  0  0
 67 78  1  0  0  0  0
 69 70  1  0  0  0  0
M  CHG  1  78   1
M  ISO  4  38 100  64 101  73 100  85 101
M  END
> <Batch ID>
0142

> <Smiles>
CCc1c(C)cc(OC[101CH2:1][101O:1]c2ccc3c(c2)CN(C(=O)C(NC(=O)C(C)NC)C(C)(C)C)C(C(=O)NC2CCCc4ccccc42)C3)cc1C1CC[100N:0]([100C:0](=O)N2CCCC(n3nc(-c4ccc(Oc5ccc(F)cc5F)cc4)c(C(N)=O)c3N)C2)CC1

> <Shape>
0.216

> <Color>
0.091

> <Negative vol penalty>
0.000

$$$$

  -OEChem-04052321183D

 85 94  0     1  0  0  0  0  0999 V2000
  -23.9768  -35.9404   27.9670 C   0  0  0  0  0  0  0  0  0  0  0  0
  -23.4608  -34.6570   28.1152 C   0  0  0  0  0  0  0  0  0  0  0  0
  -23.0614   -9.7533   20.3252 C   0  0  0  0  0  0  0  0  0  0  0  0
  -23.7195  -10.1810   22.6101 C   0  0  0  0  0  0  0  0  0  0  0  0
  -24.3826  -36.3865   26.7099 C   0  0  0  0  0  0  0  0  0  0  0  0
  -23.3492  -33.8193   27.0061 C   0  0  0  0  0  0  0  0  0  0  0  0
  -26.6792  -27.4339   26.8320 C   0  0  0  0  0  0  0  0  0  0  0  0
  -22.3095   -8.6569   20.7470 C   0  0  0  0  0  0  0  0  0  0  0  0
  -22.9675   -9.0845   23.0320 C   0  0  0  0  0  0  0  0  0  0  0  0
  -27.1130  -26.1083   26.8089 C   0  0  0  0  0  0  0  0  0  0  0  0
  -23.2892   -5.7195   23.0964 C   0  0  0  0  0  0  0  0  0  0  0  0
  -23.8744   -4.8465   24.0134 C   0  0  0  0  0  0  0  0  0  0  0  0
  -26.2687  -25.8601   24.5564 C   0  0  0  0  0  0  0  0  0  0  0  0
  -22.0991   -5.3081   25.5858 C   0  0  0  0  0  0  0  0  0  0  0  0
  -23.7665  -10.5154   21.2568 C   0  0  0  0  0  0  0  0  0  0  0  0
  -24.1084  -12.9808   20.6978 C   0  0  0  0  0  0  0  0  0  0  0  0
  -24.2849  -35.5504   25.5866 C   0  0  0  0  0  0  0  0  0  0  0  0
  -26.0515  -27.9830   25.7104 C   0  0  0  0  0  0  0  0  0  0  0  0
  -23.7528  -34.2550   25.7326 C   0  0  0  0  0  0  0  0  0  0  0  0
  -25.8432  -27.1911   24.5692 C   0  0  0  0  0  0  0  0  0  0  0  0
  -22.2625   -8.3225   22.1003 C   0  0  0  0  0  0  0  0  0  0  0  0
  -26.9080  -25.3233   25.6740 C   0  0  0  0  0  0  0  0  0  0  0  0
  -22.1089   -6.3869   23.4241 C   0  0  0  0  0  0  0  0  0  0  0  0
  -23.2794   -4.6408   25.2581 C   0  0  0  0  0  0  0  0  0  0  0  0
  -21.5139   -6.1812   24.6688 C   0  0  0  0  0  0  0  0  0  0  0  0
  -24.5438  -11.6479   20.8216 C   0  0  0  0  0  0  0  0  0  0  0  0
  -25.2140  -13.6633   20.2525 C   0  0  0  0  0  0  0  0  0  0  0  0
  -22.8196  -13.5512   20.9617 C   0  0  0  0  0  0  0  0  0  0  0  0
  -24.4569  -30.9951   24.1419 C   0  0  0  0  0  0  0  0  0  0  0  0
  -26.1519  -29.6502   21.9674 C   0  0  0  0  0  0  0  0  0  0  0  0
  -28.4604  -28.1089   19.9843 C   0  0  0  0  0  0  0  0  0  0  0  0
  -30.6821  -14.7536   20.4894 C   0  0  0  0  0  0  0  0  0  0  0  0
  -24.6924  -36.0934   24.2398 C   0  0  0  0  0  0  0  0  0  0  0  0
  -25.5129  -29.3879   25.7130 C   0  0  0  0  0  0  0  0  0  0  0  0
  -25.1326  -27.8137   23.3986 C   0  0  0  0  0  0  0  0  0  0  0  0
  -24.8896  -35.0115   23.1811 C   0  0  0  0  0  0  0  0  0  0  0  0
  -29.6554  -11.9669   18.5255 C   0  0  0  0  0  0  0  0  0  0  0  0
  -23.7277  -34.0236   23.2044 C   0  0  0  0  0  0  0  0  0  0  0  0
  -31.0968  -19.3783   20.3199 C   0  0  0  0  0  0  0  0  0  0  0  0
  -30.8338  -19.1213   22.8204 C   0  0  0  0  0  0  0  0  0  0  0  0
  -29.6432  -22.4136   23.1690 C   0  0  0  0  0  0  0  0  0  0  0  0
  -27.2807  -21.5994   22.7791 C   0  0  0  0  0  0  0  0  0  0  0  0
  -28.2009  -11.7418   18.9422 C   0  0  0  0  0  0  0  0  0  0  0  0
  -30.4645  -18.0021   20.1097 C   0  0  0  0  0  0  0  0  0  0  0  0
  -30.2017  -17.7443   22.6146 C   0  0  0  0  0  0  0  0  0  0  0  0
  -29.1903  -23.1011   24.4535 C   0  0  0  0  0  0  0  0  0  0  0  0
  -26.8342  -22.2898   24.0644 C   0  0  0  0  0  0  0  0  0  0  0  0
  -30.5183  -12.4096   19.7051 C   0  0  0  0  0  0  0  0  0  0  0  0
  -28.5559  -13.3598   20.8539 C   0  0  0  0  0  0  0  0  0  0  0  0
  -23.6391  -33.3079   24.5578 C   0  0  1  0  0  0  0  0  0  0  0  0
  -25.6299  -30.0816   24.3440 C   0  0  1  0  0  0  0  0  0  0  0  0
  -30.6422  -20.0583   21.6193 C   0  0  0  0  0  0  0  0  0  0  0  0
  -28.7622  -21.2014   22.8360 C   0  0  0  0  0  0  0  0  0  0  0  0
  -27.6349  -12.9662   19.6864 C   0  0  2  0  0  0  0  0  0  0  0  0
  -30.6892  -17.0924   21.3194 C   0  0  0  0  0  0  0  0  0  0  0  0
  -27.7161  -23.4923   24.3945 C   0  0  0  0  0  0  0  0  0  1  0  0
  -29.4658  -28.2104   17.6873 C   0  0  0  0  0  0  0  0  0  0  0  0
  -29.0556  -21.5539   20.3675 C   0  0  0  0  0  0  0  0  0  0  0  0
  -23.6277  -28.3877   20.8108 C   0  0  0  0  0  0  0  0  0  0  0  0
  -24.9830  -27.6573   18.8365 C   0  0  0  0  0  0  0  0  0  0  0  0
  -24.7156  -30.0871   19.3334 C   0  0  0  0  0  0  0  0  0  0  0  0
  -31.1705  -28.6028   21.0661 C   0  0  0  0  0  0  0  0  0  0  0  0
  -26.1937  -28.6734   20.8196 C   0  0  1  0  0  0  0  0  0  0  0  0
  -29.5889  -28.6634   19.1338 C   0  0  2  0  0  0  0  0  0  0  0  0
  -29.1997  -20.5622   21.5195 C   0  0  1  0  0  0  0  0  0  0  0  0
  -24.8875  -28.6937   19.9764 C   0  0  0  0  0  0  0  0  0  0  0  0
  -25.8261  -11.4907   20.4823 N   0  0  0  0  0  0  0  0  0  0  0  0
  -26.2058  -12.7338   20.1407 N   0  0  0  0  0  0  0  0  0  0  0  0
  -25.6293  -29.1810   23.1786 N   0  0  0  0  0  0  0  0  0  0  0  0
  -29.9273  -13.5754   20.3664 N   0  0  0  0  0  0  0  0  0  0  0  0
  -25.4248  -14.9618   19.9494 N   0  0  0  0  0  0  0  0  0  0  0  0
  -21.7956  -12.7077   21.4137 N   0  0  0  0  0  0  0  0  0  0  0  0
  -24.6419  -32.2682   24.6463 N   0  0  0  0  0  0  0  0  0  0  0  0
  -27.3997  -28.9866   20.0607 N   0  0  0  0  0  0  0  0  0  0  0  0
  -30.0447  -15.8130   21.1234 N   0  0  0  0  0  0  0  0  0  0  0  0
  -30.9064  -28.2058   19.6591 N   0  3  0  0  0  0  0  0  0  0  0  0
  -22.5787  -14.7696   20.7858 O   0  0  0  0  0  0  0  0  0  0  0  0
  -23.4573  -30.5773   23.5692 O   0  0  0  0  0  0  0  0  0  0  0  0
  -26.5656  -30.8004   21.7959 O   0  0  0  0  0  0  0  0  0  0  0  0
  -28.5129  -27.0058   20.5237 O   0  0  0  0  0  0  0  0  0  0  0  0
  -31.8366  -14.8556   20.0608 O   0  0  0  0  0  0  0  0  0  0  0  0
  -21.5287   -7.2527   22.5123 O   0  0  0  0  0  0  0  0  0  0  0  0
  -27.3380  -24.0312   25.6565 O   0  0  0  0  0  0  0  0  0  1  0  0
  -23.8407   -3.8012   26.1380 F   0  0  0  0  0  0  0  0  0  0  0  0
  -20.3794   -6.8185   24.9888 F   0  0  0  0  0  0  0  0  0  0  0  0
  1  2  1  0  0  0  0
  1  5  2  0  0  0  0
  2  6  2  0  0  0  0
  3  8  2  0  0  0  0
  3 15  1  0  0  0  0
  4  9  1  0  0  0  0
  4 15  2  0  0  0  0
  5 17  1  0  0  0  0
  6 19  1  0  0  0  0
  7 10  2  0  0  0  0
  7 18  1  0  0  0  0
  8 21  1  0  0  0  0
  9 21  2  0  0  0  0
 10 22  1  0  0  0  0
 11 12  2  0  0  0  0
 11 23  1  0  0  0  0
 12 24  1  0  0  0  0
 13 20  1  0  0  0  0
 13 22  2  0  0  0  0
 14 24  2  0  0  0  0
 14 25  1  0  0  0  0
 15 26  1  0  0  0  0
 16 26  1  0  0  0  0
 16 27  2  0  0  0  0
 16 28  1  0  0  0  0
 17 19  2  0  0  0  0
 17 33  1  0  0  0  0
 18 20  2  0  0  0  0
 18 34  1  0  0  0  0
 19 50  1  0  0  0  0
 20 35  1  0  0  0  0
 21 82  1  0  0  0  0
 22 83  1  0  0  0  0
 23 25  2  0  0  0  0
 23 82  1  0  0  0  0
 24 84  1  0  0  0  0
 25 85  1  0  0  0  0
 26 67  2  0  0  0  0
 27 68  1  0  0  0  0
 27 71  1  0  0  0  0
 28 72  1  0  0  0  0
 28 77  2  0  0  0  0
 29 51  1  0  0  0  0
 29 73  1  0  0  0  0
 29 78  2  0  0  0  0
 30 63  1  0  0  0  0
 30 69  1  0  0  0  0
 30 79  2  0  0  0  0
 31 64  1  0  0  0  0
 31 74  1  0  0  0  0
 31 80  2  0  0  0  0
 32 70  1  0  0  0  0
 32 75  1  0  0  0  0
 32 81  2  0  0  0  0
 33 36  1  0  0  0  0
 34 51  1  0  0  0  0
 35 69  1  0  0  0  0
 36 38  1  0  0  0  0
 37 43  1  0  0  0  0
 37 48  1  0  0  0  0
 38 50  1  0  0  0  0
 39 44  1  0  0  0  0
 39 52  1  0  0  0  0
 40 45  1  0  0  0  0
 40 52  1  0  0  0  0
 41 46  1  0  0  0  0
 41 53  1  0  0  0  0
 42 47  1  0  0  0  0
 42 53  1  0  0  0  0
 43 54  1  0  0  0  0
 44 55  1  0  0  0  0
 45 55  1  0  0  0  0
 46 56  1  0  0  0  0
 47 56  1  0  0  0  0
 48 70  1  0  0  0  0
 49 54  1  0  0  0  0
 49 70  1  0  0  0  0
 50 73  1  0  0  0  0
 51 69  1  0  0  0  0
 52 65  1  0  0  0  0
 53 65  1  0  0  0  0
 54 68  1  0  0  0  0
 55 75  1  0  0  0  0
 56 83  1  0  0  0  0
 57 64  1  0  0  0  0
 58 65  1  0  0  0  0
 59 66  1  0  0  0  0
 60 66  1  0  0  0  0
 61 66  1  0  0  0  0
 62 76  1  0  0  0  0
 63 66  1  0  0  0  0
 63 74  1  0  0  0  0
 64 76  1  0  0  0  0
 67 68  1  0  0  0  0
M  CHG  1  76   1
M  ISO  4  32 100  56 101  75 100  83 101
M  END
> <Batch ID>
0142

> <Smiles>
CNC(C)C(=O)NC(C(=O)N1Cc2cc([101O:1][101CH:1]3CCC(C(C)C4CCC([100NH:0][100C:0](=O)N5CCCC(n6nc(-c7ccc(Oc8ccc(F)cc8F)cc7)c(C(N)=O)c6N)C5)CC4)CC3)ccc2CC1C(=O)NC1CCCc2ccccc21)C(C)(C)C

> <Shape>
0.317

> <Color>
0.191

> <Negative vol penalty>
0.000

$$$$

  -OEChem-04052321183D

 86 94  0     1  0  0  0  0  0999 V2000
  -16.8518  -30.9790   23.3778 C   0  0  0  0  0  0  0  0  0  0  0  0
  -18.0058  -31.4734   22.7784 C   0  0  0  0  0  0  0  0  0  0  0  0
  -27.8608  -13.5549   22.1115 C   0  0  0  0  0  0  0  0  0  0  0  0
  -27.1982  -14.4496   19.9672 C   0  0  0  0  0  0  0  0  0  0  0  0
  -16.9127  -29.8257   24.1589 C   0  0  0  0  0  0  0  0  0  0  0  0
  -19.2216  -30.8154   22.9606 C   0  0  0  0  0  0  0  0  0  0  0  0
  -25.3601  -29.3842   19.5568 C   0  0  0  0  0  0  0  0  0  0  0  0
  -27.0038  -12.4706   21.9239 C   0  0  0  0  0  0  0  0  0  0  0  0
  -26.3412  -13.3651   19.7796 C   0  0  0  0  0  0  0  0  0  0  0  0
  -26.7393  -29.4833   19.7355 C   0  0  0  0  0  0  0  0  0  0  0  0
  -23.6932  -11.8393   22.1803 C   0  0  0  0  0  0  0  0  0  0  0  0
  -22.8880  -11.4574   23.2533 C   0  0  0  0  0  0  0  0  0  0  0  0
  -26.7098  -27.4549   21.0409 C   0  0  0  0  0  0  0  0  0  0  0  0
  -31.4660  -24.8924   18.3362 C   0  0  0  0  0  0  0  0  0  0  0  0
  -30.3283  -24.2673   20.3738 C   0  0  0  0  0  0  0  0  0  0  0  0
  -23.9137   -9.2699   23.2444 C   0  0  0  0  0  0  0  0  0  0  0  0
  -27.9580  -14.5445   21.1332 C   0  0  0  0  0  0  0  0  0  0  0  0
  -30.1951  -15.7562   20.9465 C   0  0  0  0  0  0  0  0  0  0  0  0
  -18.1280  -29.1477   24.3429 C   0  0  0  0  0  0  0  0  0  0  0  0
  -24.6427  -28.3238   20.1289 C   0  0  0  0  0  0  0  0  0  0  0  0
  -19.2990  -29.6527   23.7460 C   0  0  0  0  0  0  0  0  0  0  0  0
  -25.3220  -27.3432   20.8658 C   0  0  0  0  0  0  0  0  0  0  0  0
  -31.1706  -25.1343   19.6778 C   0  0  0  0  0  0  0  0  0  0  0  0
  -30.9189  -23.7835   17.6906 C   0  0  0  0  0  0  0  0  0  0  0  0
  -29.7813  -23.1584   19.7282 C   0  0  0  0  0  0  0  0  0  0  0  0
  -26.2440  -12.3756   20.7579 C   0  0  0  0  0  0  0  0  0  0  0  0
  -27.4139  -28.5202   20.4801 C   0  0  0  0  0  0  0  0  0  0  0  0
  -24.6086  -10.9365   21.6392 C   0  0  0  0  0  0  0  0  0  0  0  0
  -30.0766  -22.9165   18.3866 C   0  0  0  0  0  0  0  0  0  0  0  0
  -22.9982  -10.1727   23.7854 C   0  0  0  0  0  0  0  0  0  0  0  0
  -24.7189   -9.6519   22.1713 C   0  0  0  0  0  0  0  0  0  0  0  0
  -28.8427  -15.6652   21.3266 C   0  0  0  0  0  0  0  0  0  0  0  0
  -30.5814  -17.0110   21.3497 C   0  0  0  0  0  0  0  0  0  0  0  0
  -31.0276  -14.7926   20.2877 C   0  0  0  0  0  0  0  0  0  0  0  0
  -22.3088  -28.0941   22.2745 C   0  0  0  0  0  0  0  0  0  0  0  0
  -22.3912  -24.9571   21.4533 C   0  0  0  0  0  0  0  0  0  0  0  0
  -24.1723  -22.3440   20.1700 C   0  0  0  0  0  0  0  0  0  0  0  0
  -28.5424  -22.3974   21.7855 C   0  0  0  0  0  0  0  0  0  0  0  0
  -18.1531  -27.9316   25.2346 C   0  0  0  0  0  0  0  0  0  0  0  0
  -23.1593  -28.2166   19.9044 C   0  0  0  0  0  0  0  0  0  0  0  0
  -24.6010  -26.1741   21.4837 C   0  0  0  0  0  0  0  0  0  0  0  0
  -19.4112  -27.0826   25.0714 C   0  0  0  0  0  0  0  0  0  0  0  0
  -28.8786  -20.2931   24.6379 C   0  0  0  0  0  0  0  0  0  0  0  0
  -20.6550  -27.9656   25.0729 C   0  0  0  0  0  0  0  0  0  0  0  0
  -29.0360  -18.8934   24.0393 C   0  0  0  0  0  0  0  0  0  0  0  0
  -27.8992  -21.1467   23.8342 C   0  0  0  0  0  0  0  0  0  0  0  0
  -28.3430  -19.8331   21.7979 C   0  0  0  0  0  0  0  0  0  0  0  0
  -20.6320  -28.9530   23.8998 C   0  0  1  0  0  0  0  0  0  0  0  0
  -22.4540  -27.3748   20.9633 C   0  0  1  0  0  0  0  0  0  0  0  0
  -29.3691  -18.9577   22.5358 C   0  0  2  0  0  0  0  0  0  0  0  0
  -31.2471  -23.5417   16.2539 C   0  0  0  0  0  0  0  0  0  0  0  0
  -23.9848  -19.8942   19.6596 C   0  0  0  0  0  0  0  0  0  0  0  0
  -22.7037  -24.3175   24.4203 C   0  0  0  0  0  0  0  0  0  0  0  0
  -23.4531  -22.0177   23.7742 C   0  0  0  0  0  0  0  0  0  0  0  0
  -21.1570  -22.7918   23.1815 C   0  0  0  0  0  0  0  0  0  0  0  0
  -27.3678  -18.3170   17.0036 C   0  0  0  0  0  0  0  0  0  0  0  0
  -24.6283  -22.7928   17.2805 C   0  0  0  0  0  0  0  0  0  0  0  0
  -31.7620  -26.3330   20.3756 C   0  0  0  0  0  0  0  0  0  0  0  0
  -30.8966  -27.5913   20.2783 C   0  0  0  0  0  0  0  0  0  0  0  0
  -29.5490  -19.5331   17.0532 C   0  0  0  0  0  0  0  0  0  0  0  0
  -29.4822  -27.3940   20.8113 C   0  0  0  0  0  0  0  0  0  1  0  0
  -30.2950  -20.6228   17.7976 C   0  0  0  0  0  0  0  0  0  0  0  0
  -23.1445  -23.7435   21.9419 C   0  0  1  0  0  0  0  0  0  0  0  0
  -23.8224  -21.3063   19.1188 C   0  0  2  0  0  0  0  0  0  0  0  0
  -22.6282  -23.2406   23.3196 C   0  0  0  0  0  0  0  0  0  0  0  0
  -28.3997  -16.7739   21.9255 N   0  0  0  0  0  0  0  0  0  0  0  0
  -29.4799  -17.5734   21.9248 N   0  0  0  0  0  0  0  0  0  0  0  0
  -23.1500  -26.1169   21.2412 N   0  0  0  0  0  0  0  0  0  0  0  0
  -28.2803  -21.1648   22.4202 N   0  0  0  0  0  0  0  0  0  0  0  0
  -31.7525  -17.6772   21.2650 N   0  0  0  0  0  0  0  0  0  0  0  0
  -30.4713  -13.5532   19.9433 N   0  0  0  0  0  0  0  0  0  0  0  0
  -28.9275  -22.2876   20.4497 N   0  0  0  0  0  0  0  0  0  0  0  0
  -20.9984  -28.2848   22.6695 N   0  0  0  0  0  0  0  0  0  0  0  0
  -23.0595  -22.7530   20.8741 N   0  0  0  0  0  0  0  0  0  0  0  0
  -28.2111  -19.3463   17.6693 N   0  3  0  0  0  0  0  0  0  0  0  0
  -24.7050  -21.4577   17.9276 N   0  3  0  0  0  0  0  0  0  0  0  0
  -32.2339  -15.0177   20.0272 O   0  0  0  0  0  0  0  0  0  0  0  0
  -23.3114  -28.4485   22.8835 O   0  0  0  0  0  0  0  0  0  0  0  0
  -21.1756  -24.8769   21.2598 O   0  0  0  0  0  0  0  0  0  0  0  0
  -25.3186  -22.7485   20.3512 O   0  0  0  0  0  0  0  0  0  0  0  0
  -28.4597  -23.4694   22.3904 O   0  0  0  0  0  0  0  0  0  0  0  0
  -25.4078  -11.3175   20.5744 O   0  0  0  0  0  0  0  0  0  0  0  0
  -28.7599  -28.6149   20.6567 O   0  0  0  0  0  0  0  0  0  1  0  0
  -29.5434  -21.8327   17.7515 O   0  0  0  0  0  0  0  0  0  0  0  0
  -22.2261   -9.8066   24.8168 F   0  0  0  0  0  0  0  0  0  0  0  0
  -25.5973   -8.7806   21.6565 F   0  0  0  0  0  0  0  0  0  0  0  0
  1  2  1  0  0  0  0
  1  5  2  0  0  0  0
  2  6  2  0  0  0  0
  3  8  2  0  0  0  0
  3 17  1  0  0  0  0
  4  9  1  0  0  0  0
  4 17  2  0  0  0  0
  5 19  1  0  0  0  0
  6 21  1  0  0  0  0
  7 10  2  0  0  0  0
  7 20  1  0  0  0  0
  8 26  1  0  0  0  0
  9 26  2  0  0  0  0
 10 27  1  0  0  0  0
 11 12  2  0  0  0  0
 11 28  1  0  0  0  0
 12 30  1  0  0  0  0
 13 22  1  0  0  0  0
 13 27  2  0  0  0  0
 14 23  1  0  0  0  0
 14 24  2  0  0  0  0
 15 23  2  0  0  0  0
 15 25  1  0  0  0  0
 16 30  2  0  0  0  0
 16 31  1  0  0  0  0
 17 32  1  0  0  0  0
 18 32  1  0  0  0  0
 18 33  2  0  0  0  0
 18 34  1  0  0  0  0
 19 21  2  0  0  0  0
 19 39  1  0  0  0  0
 20 22  2  0  0  0  0
 20 40  1  0  0  0  0
 21 48  1  0  0  0  0
 22 41  1  0  0  0  0
 23 58  1  0  0  0  0
 24 29  1  0  0  0  0
 24 51  1  0  0  0  0
 25 29  2  0  0  0  0
 25 72  1  0  0  0  0
 26 82  1  0  0  0  0
 27 83  1  0  0  0  0
 28 31  2  0  0  0  0
 28 82  1  0  0  0  0
 29 84  1  0  0  0  0
 30 85  1  0  0  0  0
 31 86  1  0  0  0  0
 32 66  2  0  0  0  0
 33 67  1  0  0  0  0
 33 70  1  0  0  0  0
 34 71  1  0  0  0  0
 34 77  2  0  0  0  0
 35 49  1  0  0  0  0
 35 73  1  0  0  0  0
 35 78  2  0  0  0  0
 36 63  1  0  0  0  0
 36 68  1  0  0  0  0
 36 79  2  0  0  0  0
 37 64  1  0  0  0  0
 37 74  1  0  0  0  0
 37 80  2  0  0  0  0
 38 69  1  0  0  0  0
 38 72  1  0  0  0  0
 38 81  2  0  0  0  0
 39 42  1  0  0  0  0
 40 49  1  0  0  0  0
 41 68  1  0  0  0  0
 42 44  1  0  0  0  0
 43 45  1  0  0  0  0
 43 46  1  0  0  0  0
 44 48  1  0  0  0  0
 45 50  1  0  0  0  0
 46 69  1  0  0  0  0
 47 50  1  0  0  0  0
 47 69  1  0  0  0  0
 48 73  1  0  0  0  0
 49 68  1  0  0  0  0
 50 67  1  0  0  0  0
 52 64  1  0  0  0  0
 53 65  1  0  0  0  0
 54 65  1  0  0  0  0
 55 65  1  0  0  0  0
 56 75  1  0  0  0  0
 57 76  1  0  0  0  0
 58 59  1  0  0  0  0
 59 61  1  0  0  0  0
 60 62  1  0  0  0  0
 60 75  1  0  0  0  0
 61 83  1  0  0  0  0
 62 84  1  0  0  0  0
 63 65  1  0  0  0  0
 63 74  1  0  0  0  0
 64 76  1  0  0  0  0
 66 67  1  0  0  0  0
M  CHG  2  75   1  76   1
M  ISO  4  38 100  61 101  72 100  83 101
M  END
> <Batch ID>
0142

> <Smiles>
CNCCOc1c(C)cc(CC[101CH2:1][101O:1]c2ccc3c(c2)CN(C(=O)C(NC(=O)C(C)NC)C(C)(C)C)C(C(=O)NC2CCCc4ccccc42)C3)cc1[100NH:0][100C:0](=O)N1CCCC(n2nc(-c3ccc(Oc4ccc(F)cc4F)cc3)c(C(N)=O)c2N)C1

> <Shape>
0.266

> <Color>
0.073

> <Negative vol penalty>
0.000

$$$$

  -OEChem-04052321183D

 85 95  0     1  0  0  0  0  0999 V2000
  -24.2564  -34.9809   26.4231 C   0  0  0  0  0  0  0  0  0  0  0  0
  -25.1686  -34.0771   25.8880 C   0  0  0  0  0  0  0  0  0  0  0  0
  -26.4642  -11.4785   20.9929 C   0  0  0  0  0  0  0  0  0  0  0  0
  -25.4334  -13.4299   20.0098 C   0  0  0  0  0  0  0  0  0  0  0  0
  -22.8985  -34.6658   26.4498 C   0  0  0  0  0  0  0  0  0  0  0  0
  -24.7235  -32.8571   25.3802 C   0  0  0  0  0  0  0  0  0  0  0  0
  -29.7827  -21.3359   21.1822 C   0  0  0  0  0  0  0  0  0  0  0  0
  -28.7436  -22.1175   20.6785 C   0  0  0  0  0  0  0  0  0  0  0  0
  -27.0225  -29.8019   20.5962 C   0  0  0  0  0  0  0  0  0  0  0  0
  -25.2752  -11.1871   21.6613 C   0  0  0  0  0  0  0  0  0  0  0  0
  -24.2443  -13.1384   20.6782 C   0  0  0  0  0  0  0  0  0  0  0  0
  -27.9100  -28.7304   20.5062 C   0  0  0  0  0  0  0  0  0  0  0  0
  -22.2833   -9.7923   20.9290 C   0  0  0  0  0  0  0  0  0  0  0  0
  -21.8384   -8.4704   20.9141 C   0  0  0  0  0  0  0  0  0  0  0  0
  -31.3787  -22.9759   20.4205 C   0  0  0  0  0  0  0  0  0  0  0  0
  -26.0458  -27.2072   20.3512 C   0  0  0  0  0  0  0  0  0  0  0  0
  -21.9545   -8.4041   23.3264 C   0  0  0  0  0  0  0  0  0  0  0  0
  -26.5434  -12.5999   20.1672 C   0  0  0  0  0  0  0  0  0  0  0  0
  -28.1577  -12.4611   18.1968 C   0  0  0  0  0  0  0  0  0  0  0  0
  -31.0999  -21.7662   21.0555 C   0  0  0  0  0  0  0  0  0  0  0  0
  -22.4354  -33.4453   25.9333 C   0  0  0  0  0  0  0  0  0  0  0  0
  -29.0097  -23.3419   20.0458 C   0  0  0  0  0  0  0  0  0  0  0  0
  -25.6376  -29.5827   20.5753 C   0  0  0  0  0  0  0  0  0  0  0  0
  -23.3583  -32.5247   25.4012 C   0  0  0  0  0  0  0  0  0  0  0  0
  -30.3427  -23.7665   19.8996 C   0  0  0  0  0  0  0  0  0  0  0  0
  -25.1429  -28.2778   20.4385 C   0  0  0  0  0  0  0  0  0  0  0  0
  -24.1652  -12.0170   21.5040 C   0  0  0  0  0  0  0  0  0  0  0  0
  -27.4217  -27.4326   20.3866 C   0  0  0  0  0  0  0  0  0  0  0  0
  -22.5638  -10.4202   22.1427 C   0  0  0  0  0  0  0  0  0  0  0  0
  -21.6740   -7.7763   22.1128 C   0  0  0  0  0  0  0  0  0  0  0  0
  -22.3994   -9.7261   23.3413 C   0  0  0  0  0  0  0  0  0  0  0  0
  -27.7716  -12.9018   19.4769 C   0  0  0  0  0  0  0  0  0  0  0  0
  -29.3977  -13.0186   18.0013 C   0  0  0  0  0  0  0  0  0  0  0  0
  -27.4582  -11.6228   17.2676 C   0  0  0  0  0  0  0  0  0  0  0  0
  -23.2531  -30.1041   22.6115 C   0  0  0  0  0  0  0  0  0  0  0  0
  -21.4262  -29.1215   20.1176 C   0  0  0  0  0  0  0  0  0  0  0  0
  -21.2033  -27.3443   17.2127 C   0  0  0  0  0  0  0  0  0  0  0  0
  -31.8096  -17.9260   20.3888 C   0  0  0  0  0  0  0  0  0  0  0  0
  -20.9637  -33.1290   26.0271 C   0  0  0  0  0  0  0  0  0  0  0  0
  -24.6937  -30.7516   20.6465 C   0  0  0  0  0  0  0  0  0  0  0  0
  -27.8533  -24.1407   19.4905 C   0  0  0  0  0  0  0  0  0  0  0  0
  -30.6851  -25.0828   19.2502 C   0  0  0  0  0  0  0  0  0  0  0  0
  -23.6651  -27.9910   20.3908 C   0  0  0  0  0  0  0  0  0  0  0  0
  -20.5305  -31.9740   25.1279 C   0  0  0  0  0  0  0  0  0  0  0  0
  -29.5512  -25.6411   18.3901 C   0  0  0  0  0  0  0  0  0  0  0  0
  -33.2543  -14.5215   20.3628 C   0  0  0  0  0  0  0  0  0  0  0  0
  -21.4983  -30.8024   25.2601 C   0  0  0  0  0  0  0  0  0  0  0  0
  -32.0148  -13.6813   20.0727 C   0  0  0  0  0  0  0  0  0  0  0  0
  -32.9275  -15.7621   21.1933 C   0  0  0  0  0  0  0  0  0  0  0  0
  -30.6101  -15.7648   20.3074 C   0  0  0  0  0  0  0  0  0  0  0  0
  -34.2820  -20.6938   21.3517 C   0  0  0  0  0  0  0  0  0  0  0  0
  -22.9114  -31.2017   24.8182 C   0  0  1  0  0  0  0  0  0  0  0  0
  -32.2565  -20.9015   21.6201 C   0  0  1  0  0  0  0  0  0  0  0  0
  -23.3001  -30.3656   21.1327 C   0  0  1  0  0  0  0  0  0  0  0  0
  -30.9167  -14.5418   19.4301 C   0  0  2  0  0  0  0  0  0  0  0  0
  -33.0864  -20.0762   20.6277 C   0  0  2  0  0  0  0  0  0  0  0  0
  -28.2153  -25.5819   19.1228 C   0  0  2  0  0  0  0  0  0  1  0  0
  -19.5709  -26.6959   15.4204 C   0  0  0  0  0  0  0  0  0  0  0  0
  -20.1670  -27.0820   22.0057 C   0  0  0  0  0  0  0  0  0  0  0  0
  -19.2827  -25.8741   19.9990 C   0  0  0  0  0  0  0  0  0  0  0  0
  -18.5535  -28.2135   20.4660 C   0  0  0  0  0  0  0  0  0  0  0  0
  -22.7951  -28.6926   15.1133 C   0  0  0  0  0  0  0  0  0  0  0  0
  -20.9033  -27.7903   19.6346 C   0  0  1  0  0  0  0  0  0  0  0  0
  -20.6256  -27.7016   15.8551 C   0  0  2  0  0  0  0  0  0  0  0  0
  -19.7545  -27.2449   20.5291 C   0  0  0  0  0  0  0  0  0  0  0  0
  -28.6917  -13.6792   20.0539 N   0  0  0  0  0  0  0  0  0  0  0  0
  -29.6684  -13.7313   19.1323 N   0  0  0  0  0  0  0  0  0  0  0  0
  -22.7825  -29.1666   20.4703 N   0  0  0  0  0  0  0  0  0  0  0  0
  -31.8231  -16.5364   20.6048 N   0  0  0  0  0  0  0  0  0  0  0  0
  -30.2719  -12.9638   16.9742 N   0  0  0  0  0  0  0  0  0  0  0  0
  -26.1943  -11.1356   17.6276 N   0  0  0  0  0  0  0  0  0  0  0  0
  -23.0006  -31.2285   23.3740 N   0  0  0  0  0  0  0  0  0  0  0  0
  -20.5331  -27.9802   18.2363 N   0  0  0  0  0  0  0  0  0  0  0  0
  -32.9539  -18.6131   20.7824 N   0  0  0  0  0  0  0  0  0  0  0  0
  -21.7022  -27.7285   14.8249 N   0  3  0  0  0  0  0  0  0  0  0  0
  -27.9466  -11.3015   16.1578 O   0  0  0  0  0  0  0  0  0  0  0  0
  -23.4312  -28.9661   23.0298 O   0  0  0  0  0  0  0  0  0  0  0  0
  -20.6613  -30.0877   20.1730 O   0  0  0  0  0  0  0  0  0  0  0  0
  -22.1517  -26.5750   17.3515 O   0  0  0  0  0  0  0  0  0  0  0  0
  -30.8478  -18.5192   19.8886 O   0  0  0  0  0  0  0  0  0  0  0  0
  -33.4301  -21.6750   21.9930 O   0  0  0  0  0  0  0  0  0  0  0  0
  -23.0047  -11.7329   22.1559 O   0  0  0  0  0  0  0  0  0  0  0  0
  -28.2857  -26.3849   20.2992 O   0  0  0  0  0  0  0  0  0  1  0  0
  -21.2453   -6.5074   22.0984 F   0  0  0  0  0  0  0  0  0  0  0  0
  -22.6661  -10.3243   24.5104 F   0  0  0  0  0  0  0  0  0  0  0  0
  1  2  1  0  0  0  0
  1  5  2  0  0  0  0
  2  6  2  0  0  0  0
  3 10  2  0  0  0  0
  3 18  1  0  0  0  0
  4 11  1  0  0  0  0
  4 18  2  0  0  0  0
  5 21  1  0  0  0  0
  6 24  1  0  0  0  0
  7  8  2  0  0  0  0
  7 20  1  0  0  0  0
  8 22  1  0  0  0  0
  9 12  2  0  0  0  0
  9 23  1  0  0  0  0
 10 27  1  0  0  0  0
 11 27  2  0  0  0  0
 12 28  1  0  0  0  0
 13 14  2  0  0  0  0
 13 29  1  0  0  0  0
 14 30  1  0  0  0  0
 15 20  2  0  0  0  0
 15 25  1  0  0  0  0
 16 26  1  0  0  0  0
 16 28  2  0  0  0  0
 17 30  2  0  0  0  0
 17 31  1  0  0  0  0
 18 32  1  0  0  0  0
 19 32  1  0  0  0  0
 19 33  2  0  0  0  0
 19 34  1  0  0  0  0
 20 53  1  0  0  0  0
 21 24  2  0  0  0  0
 21 39  1  0  0  0  0
 22 25  2  0  0  0  0
 22 41  1  0  0  0  0
 23 26  2  0  0  0  0
 23 40  1  0  0  0  0
 24 52  1  0  0  0  0
 25 42  1  0  0  0  0
 26 43  1  0  0  0  0
 27 82  1  0  0  0  0
 28 83  1  0  0  0  0
 29 31  2  0  0  0  0
 29 82  1  0  0  0  0
 30 84  1  0  0  0  0
 31 85  1  0  0  0  0
 32 66  2  0  0  0  0
 33 67  1  0  0  0  0
 33 70  1  0  0  0  0
 34 71  1  0  0  0  0
 34 76  2  0  0  0  0
 35 54  1  0  0  0  0
 35 72  1  0  0  0  0
 35 77  2  0  0  0  0
 36 63  1  0  0  0  0
 36 68  1  0  0  0  0
 36 78  2  0  0  0  0
 37 64  1  0  0  0  0
 37 73  1  0  0  0  0
 37 79  2  0  0  0  0
 38 69  1  0  0  0  0
 38 74  1  0  0  0  0
 38 80  2  0  0  0  0
 39 44  1  0  0  0  0
 40 54  1  0  0  0  0
 41 57  1  0  0  0  0
 42 45  1  0  0  0  0
 43 68  1  0  0  0  0
 44 47  1  0  0  0  0
 45 57  1  0  0  0  0
 46 48  1  0  0  0  0
 46 49  1  0  0  0  0
 47 52  1  0  0  0  0
 48 55  1  0  0  0  0
 49 69  1  0  0  0  0
 50 55  1  0  0  0  0
 50 69  1  0  0  0  0
 51 56  1  0  0  0  0
 51 81  1  0  0  0  0
 52 72  1  0  0  0  0
 53 56  1  0  0  0  0
 53 81  1  0  0  0  0
 54 68  1  0  0  0  0
 55 67  1  0  0  0  0
 56 74  1  0  0  0  0
 57 83  1  0  0  0  0
 58 64  1  0  0  0  0
 59 65  1  0  0  0  0
 60 65  1  0  0  0  0
 61 65  1  0  0  0  0
 62 75  1  0  0  0  0
 63 65  1  0  0  0  0
 63 73  1  0  0  0  0
 64 75  1  0  0  0  0
 66 67  1  0  0  0  0
M  CHG  1  75   1
M  ISO  4  38 100  57 101  74 100  83 101
M  END
> <Batch ID>
0142

> <Smiles>
CNC(C)C(=O)NC(C(=O)N1Cc2cc([101O:1][101CH:1]3CCc4cc(C5OCC5[100NH:0][100C:0](=O)N5CCCC(n6nc(-c7ccc(Oc8ccc(F)cc8F)cc7)c(C(N)=O)c6N)C5)ccc4C3)ccc2CC1C(=O)NC1CCCc2ccccc21)C(C)(C)C

> <Shape>
0.287

> <Color>
0.089

> <Negative vol penalty>
0.000

$$$$

  -OEChem-04052321183D

 90100  0     1  0  0  0  0  0999 V2000
  -31.5089  -36.6105   16.3787 C   0  0  0  0  0  0  0  0  0  0  0  0
  -31.4507  -35.2215   16.4289 C   0  0  0  0  0  0  0  0  0  0  0  0
  -23.0971  -10.0641   20.1133 C   0  0  0  0  0  0  0  0  0  0  0  0
  -24.1579   -9.2608   22.1299 C   0  0  0  0  0  0  0  0  0  0  0  0
  -31.1519  -37.3629   17.4969 C   0  0  0  0  0  0  0  0  0  0  0  0
  -31.0363  -34.5839   17.5978 C   0  0  0  0  0  0  0  0  0  0  0  0
  -27.8127  -29.3936   18.0161 C   0  0  0  0  0  0  0  0  0  0  0  0
  -22.3360   -8.8970   20.0487 C   0  0  0  0  0  0  0  0  0  0  0  0
  -23.3968   -8.0937   22.0653 C   0  0  0  0  0  0  0  0  0  0  0  0
  -28.1896  -28.0715   18.2481 C   0  0  0  0  0  0  0  0  0  0  0  0
  -20.2427   -7.1346   22.8085 C   0  0  0  0  0  0  0  0  0  0  0  0
  -19.6490   -6.6839   23.9874 C   0  0  0  0  0  0  0  0  0  0  0  0
  -27.7009  -28.3503   20.5939 C   0  0  0  0  0  0  0  0  0  0  0  0
  -30.5425  -23.5986   18.8834 C   0  0  0  0  0  0  0  0  0  0  0  0
  -28.2717  -23.3113   19.6566 C   0  0  0  0  0  0  0  0  0  0  0  0
  -20.8782   -4.6111   23.8138 C   0  0  0  0  0  0  0  0  0  0  0  0
  -24.0081  -10.2460   21.1539 C   0  0  0  0  0  0  0  0  0  0  0  0
  -24.4585  -12.6509   21.8759 C   0  0  0  0  0  0  0  0  0  0  0  0
  -30.7237  -36.7346   18.6769 C   0  0  0  0  0  0  0  0  0  0  0  0
  -27.3868  -30.2086   19.0748 C   0  0  0  0  0  0  0  0  0  0  0  0
  -30.6745  -35.3286   18.7333 C   0  0  0  0  0  0  0  0  0  0  0  0
  -27.3168  -29.6816   20.3723 C   0  0  0  0  0  0  0  0  0  0  0  0
  -29.2566  -24.1058   19.0698 C   0  0  0  0  0  0  0  0  0  0  0  0
  -30.8436  -22.2968   19.2837 C   0  0  0  0  0  0  0  0  0  0  0  0
  -28.5728  -22.0094   20.0570 C   0  0  0  0  0  0  0  0  0  0  0  0
  -29.8587  -21.5022   19.8706 C   0  0  0  0  0  0  0  0  0  0  0  0
  -22.4858   -7.9118   21.0247 C   0  0  0  0  0  0  0  0  0  0  0  0
  -28.1364  -27.5505   19.5376 C   0  0  0  0  0  0  0  0  0  0  0  0
  -21.1540   -6.3237   22.1321 C   0  0  0  0  0  0  0  0  0  0  0  0
  -19.9668   -5.4221   24.4901 C   0  0  0  0  0  0  0  0  0  0  0  0
  -21.4718   -5.0619   22.6348 C   0  0  0  0  0  0  0  0  0  0  0  0
  -24.7951  -11.4512   21.2208 C   0  0  0  0  0  0  0  0  0  0  0  0
  -25.5286  -13.4803   21.6445 C   0  0  0  0  0  0  0  0  0  0  0  0
  -23.2838  -12.9856   22.6267 C   0  0  0  0  0  0  0  0  0  0  0  0
  -28.4383  -32.9019   20.3956 C   0  0  0  0  0  0  0  0  0  0  0  0
  -25.6900  -32.6787   22.1041 C   0  0  0  0  0  0  0  0  0  0  0  0
  -23.2022  -30.6988   23.3443 C   0  0  0  0  0  0  0  0  0  0  0  0
  -29.1248  -15.4800   17.7170 C   0  0  0  0  0  0  0  0  0  0  0  0
  -30.3932  -37.5886   19.8753 C   0  0  0  0  0  0  0  0  0  0  0  0
  -26.9583  -31.6247   18.8036 C   0  0  0  0  0  0  0  0  0  0  0  0
  -26.8474  -30.5090   21.5400 C   0  0  0  0  0  0  0  0  0  0  0  0
  -29.6067  -36.8472   20.9533 C   0  0  0  0  0  0  0  0  0  0  0  0
  -30.1032  -12.5297   19.7342 C   0  0  0  0  0  0  0  0  0  0  0  0
  -30.2331  -35.4839   21.2286 C   0  0  0  0  0  0  0  0  0  0  0  0
  -31.6633  -15.6973   22.5569 C   0  0  0  0  0  0  0  0  0  0  0  0
  -30.6896  -16.6255   23.2280 C   0  0  0  0  0  0  0  0  0  0  0  0
  -28.7630  -12.0488   20.2878 C   0  0  0  0  0  0  0  0  0  0  0  0
  -29.9384  -13.2531   18.4014 C   0  0  0  0  0  0  0  0  0  0  0  0
  -28.7811  -17.9210   17.4918 C   0  0  0  0  0  0  0  0  0  0  0  0
  -27.6281  -13.9043   19.0020 C   0  0  0  0  0  0  0  0  0  0  0  0
  -28.2075  -16.8559   19.6398 C   0  0  0  0  0  0  0  0  0  0  0  0
  -29.7660  -18.8577   18.1723 C   0  0  0  0  0  0  0  0  0  0  0  0
  -30.2064  -34.6012   19.9750 C   0  0  1  0  0  0  0  0  0  0  0  0
  -27.0303  -32.5176   20.0384 C   0  0  1  0  0  0  0  0  0  0  0  0
  -30.4237  -16.1400   21.8300 C   0  0  0  0  0  0  0  0  0  0  0  0
  -27.7550  -13.2083   20.3657 C   0  0  1  0  0  0  0  0  0  0  0  0
  -29.1819  -17.7699   20.3980 C   0  0  1  0  0  0  0  0  0  0  0  0
  -32.2287  -21.7779   19.0739 C   0  0  0  0  0  0  0  0  0  0  0  0
  -27.5003  -21.1790   20.6831 C   0  0  0  0  0  0  0  0  0  0  0  0
  -21.1154  -30.7963   24.7346 C   0  0  0  0  0  0  0  0  0  0  0  0
  -27.3862  -32.9261   24.6283 C   0  0  0  0  0  0  0  0  0  0  0  0
  -25.4309  -32.0773   25.9416 C   0  0  0  0  0  0  0  0  0  0  0  0
  -25.2468  -34.2203   24.6781 C   0  0  0  0  0  0  0  0  0  0  0  0
  -21.5293  -29.7114   21.1114 C   0  0  0  0  0  0  0  0  0  0  0  0
  -30.1830  -20.1022   20.3015 C   0  0  0  0  0  0  0  0  0  0  0  0
  -28.9345  -25.4974   18.6411 C   0  0  0  0  0  0  0  0  0  1  0  0
  -30.5253  -17.0910   20.6642 C   0  0  0  0  0  0  0  0  0  0  0  0
  -25.2922  -32.0337   23.4098 C   0  0  1  0  0  0  0  0  0  0  0  0
  -21.6918  -30.8504   23.3284 C   0  0  2  0  0  0  0  0  0  0  0  0
  -25.8498  -32.7991   24.6430 C   0  0  0  0  0  0  0  0  0  0  0  0
  -25.9857  -11.5092   20.6182 N   0  0  0  0  0  0  0  0  0  0  0  0
  -26.4066  -12.7553   20.8937 N   0  0  0  0  0  0  0  0  0  0  0  0
  -26.4451  -31.8897   21.2248 N   0  0  0  0  0  0  0  0  0  0  0  0
  -28.9421  -14.3208   18.4887 N   0  0  0  0  0  0  0  0  0  0  0  0
  -28.6168  -16.6782   18.2411 N   0  0  0  0  0  0  0  0  0  0  0  0
  -25.7946  -14.7518   22.0119 N   0  0  0  0  0  0  0  0  0  0  0  0
  -22.2816  -12.0159   22.7668 N   0  0  0  0  0  0  0  0  0  0  0  0
  -28.8830  -34.0519   19.7717 N   0  0  0  0  0  0  0  0  0  0  0  0
  -23.8378  -31.9218   23.3835 N   0  0  0  0  0  0  0  0  0  0  0  0
  -29.3432  -19.0631   19.6099 N   0  3  1  0  0  0  0  0  0  0  0  0
  -21.0703  -29.7611   22.5234 N   0  3  0  0  0  0  0  0  0  0  0  0
  -23.1202  -14.1167   23.1438 O   0  0  0  0  0  0  0  0  0  0  0  0
  -29.0736  -32.2073   21.1802 O   0  0  0  0  0  0  0  0  0  0  0  0
  -25.3374  -33.8373   21.8699 O   0  0  0  0  0  0  0  0  0  0  0  0
  -23.7620  -29.6048   23.3276 O   0  0  0  0  0  0  0  0  0  0  0  0
  -29.7130  -15.4462   16.6289 O   0  0  0  0  0  0  0  0  0  0  0  0
  -21.7431   -6.7729   20.9622 O   0  0  0  0  0  0  0  0  0  0  0  0
  -28.5068  -26.2517   19.7686 O   0  0  0  0  0  0  0  0  0  1  0  0
  -19.3978   -4.9900   25.6231 F   0  0  0  0  0  0  0  0  0  0  0  0
  -22.3475   -4.2788   21.9901 F   0  0  0  0  0  0  0  0  0  0  0  0
  1  2  1  0  0  0  0
  1  5  2  0  0  0  0
  2  6  2  0  0  0  0
  3  8  2  0  0  0  0
  3 17  1  0  0  0  0
  4  9  1  0  0  0  0
  4 17  2  0  0  0  0
  5 19  1  0  0  0  0
  6 21  1  0  0  0  0
  7 10  2  0  0  0  0
  7 20  1  0  0  0  0
  8 27  1  0  0  0  0
  9 27  2  0  0  0  0
 10 28  1  0  0  0  0
 11 12  2  0  0  0  0
 11 29  1  0  0  0  0
 12 30  1  0  0  0  0
 13 22  1  0  0  0  0
 13 28  2  0  0  0  0
 14 23  1  0  0  0  0
 14 24  2  0  0  0  0
 15 23  2  0  0  0  0
 15 25  1  0  0  0  0
 16 30  2  0  0  0  0
 16 31  1  0  0  0  0
 17 32  1  0  0  0  0
 18 32  1  0  0  0  0
 18 33  2  0  0  0  0
 18 34  1  0  0  0  0
 19 21  2  0  0  0  0
 19 39  1  0  0  0  0
 20 22  2  0  0  0  0
 20 40  1  0  0  0  0
 21 53  1  0  0  0  0
 22 41  1  0  0  0  0
 23 66  1  0  0  0  0
 24 26  1  0  0  0  0
 24 58  1  0  0  0  0
 25 26  2  0  0  0  0
 25 59  1  0  0  0  0
 26 65  1  0  0  0  0
 27 87  1  0  0  0  0
 28 88  1  0  0  0  0
 29 31  2  0  0  0  0
 29 87  1  0  0  0  0
 30 89  1  0  0  0  0
 31 90  1  0  0  0  0
 32 71  2  0  0  0  0
 33 72  1  0  0  0  0
 33 76  1  0  0  0  0
 34 77  1  0  0  0  0
 34 82  2  0  0  0  0
 35 54  1  0  0  0  0
 35 78  1  0  0  0  0
 35 83  2  0  0  0  0
 36 68  1  0  0  0  0
 36 73  1  0  0  0  0
 36 84  2  0  0  0  0
 37 69  1  0  0  0  0
 37 79  1  0  0  0  0
 37 85  2  0  0  0  0
 38 74  1  0  0  0  0
 38 75  1  0  0  0  0
 38 86  2  0  0  0  0
 39 42  1  0  0  0  0
 40 54  1  0  0  0  0
 41 73  1  0  0  0  0
 42 44  1  0  0  0  0
 43 47  1  0  0  0  0
 43 48  1  0  0  0  0
 44 53  1  0  0  0  0
 45 46  1  0  0  0  0
 45 55  1  0  0  0  0
 46 55  1  0  0  0  0
 47 56  1  0  0  0  0
 48 74  1  0  0  0  0
 49 52  1  0  0  0  0
 49 75  1  0  0  0  0
 50 56  1  0  0  0  0
 50 74  1  0  0  0  0
 51 57  1  0  0  0  0
 51 75  1  0  0  0  0
 52 80  1  0  0  0  0
 53 78  1  0  0  0  0
 54 73  1  0  0  0  0
 55 67  1  0  0  0  0
 56 72  1  0  0  0  0
 57 67  1  0  0  0  0
 57 80  1  0  0  0  0
 60 69  1  0  0  0  0
 61 70  1  0  0  0  0
 62 70  1  0  0  0  0
 63 70  1  0  0  0  0
 64 81  1  0  0  0  0
 65 80  1  0  0  0  0
 66 88  1  0  0  0  0
 68 70  1  0  0  0  0
 68 79  1  0  0  0  0
 69 81  1  0  0  0  0
 71 72  1  0  0  0  0
M  CHG  2  80   1  81   1
M  ISO  4  38 100  66 101  75 100  88 101
M  END
> <Batch ID>
0142

> <Smiles>
CNC(C)C(=O)NC(C(=O)N1Cc2cc([101O:1][101CH2:1]c3cc(C)c(CN4CC[100N:0]([100C:0](=O)N5CCCC(n6nc(-c7ccc(Oc8ccc(F)cc8F)cc7)c(C(N)=O)c6N)C5)CC4CC4CC4)c(C)c3)ccc2CC1C(=O)NC1CCCc2ccccc21)C(C)(C)C

> <Shape>
0.341

> <Color>
0.137

> <Negative vol penalty>
0.000

$$$$

  -OEChem-04052321183D

 88 97  0     1  0  0  0  0  0999 V2000
  -17.0578  -29.3439   24.5459 C   0  0  0  0  0  0  0  0  0  0  0  0
  -17.5963  -28.1335   24.1214 C   0  0  0  0  0  0  0  0  0  0  0  0
  -23.1375  -10.1827   22.8637 C   0  0  0  0  0  0  0  0  0  0  0  0
  -21.7834  -10.6330   20.9141 C   0  0  0  0  0  0  0  0  0  0  0  0
  -17.5107  -30.5400   23.9909 C   0  0  0  0  0  0  0  0  0  0  0  0
  -18.5875  -28.1184   23.1406 C   0  0  0  0  0  0  0  0  0  0  0  0
  -25.0470  -25.2072   24.4407 C   0  0  0  0  0  0  0  0  0  0  0  0
  -30.8725  -16.1979   22.0102 C   0  0  0  0  0  0  0  0  0  0  0  0
  -23.0184   -8.8128   22.6300 C   0  0  0  0  0  0  0  0  0  0  0  0
  -21.6643   -9.2630   20.6804 C   0  0  0  0  0  0  0  0  0  0  0  0
  -26.2344  -24.4820   24.5425 C   0  0  0  0  0  0  0  0  0  0  0  0
  -22.7711   -5.1868   22.7515 C   0  0  0  0  0  0  0  0  0  0  0  0
  -22.4869   -4.3638   23.8412 C   0  0  0  0  0  0  0  0  0  0  0  0
  -31.4687  -17.3002   21.4079 C   0  0  0  0  0  0  0  0  0  0  0  0
  -26.8745  -25.1980   22.3232 C   0  0  0  0  0  0  0  0  0  0  0  0
  -20.4256   -5.5678   24.2130 C   0  0  0  0  0  0  0  0  0  0  0  0
  -22.5199  -11.0929   22.0058 C   0  0  0  0  0  0  0  0  0  0  0  0
  -22.2279  -13.2142   23.3923 C   0  0  0  0  0  0  0  0  0  0  0  0
  -18.5147  -30.5402   23.0098 C   0  0  0  0  0  0  0  0  0  0  0  0
  -24.7757  -25.9440   23.2844 C   0  0  0  0  0  0  0  0  0  0  0  0
  -19.0533  -29.3156   22.5709 C   0  0  0  0  0  0  0  0  0  0  0  0
  -25.6926  -25.9365   22.2205 C   0  0  0  0  0  0  0  0  0  0  0  0
  -29.5531  -15.8777   21.7103 C   0  0  0  0  0  0  0  0  0  0  0  0
  -22.2819   -8.3529   21.5384 C   0  0  0  0  0  0  0  0  0  0  0  0
  -27.1457  -24.4772   23.4862 C   0  0  0  0  0  0  0  0  0  0  0  0
  -21.8825   -6.2004   22.3925 C   0  0  0  0  0  0  0  0  0  0  0  0
  -21.3142   -4.5542   24.5719 C   0  0  0  0  0  0  0  0  0  0  0  0
  -20.7098   -6.3909   23.1233 C   0  0  0  0  0  0  0  0  0  0  0  0
  -22.6421  -12.5081   22.2469 C   0  0  0  0  0  0  0  0  0  0  0  0
  -30.7086  -18.0441   20.5198 C   0  0  0  0  0  0  0  0  0  0  0  0
  -28.8787  -16.6854   20.8088 C   0  0  0  0  0  0  0  0  0  0  0  0
  -22.5649  -14.5199   23.1312 C   0  0  0  0  0  0  0  0  0  0  0  0
  -21.5952  -12.7328   24.5854 C   0  0  0  0  0  0  0  0  0  0  0  0
  -22.4128  -28.2318   21.4793 C   0  0  0  0  0  0  0  0  0  0  0  0
  -25.2493  -29.2548   20.9149 C   0  0  0  0  0  0  0  0  0  0  0  0
  -28.4954  -30.3031   20.8826 C   0  0  0  0  0  0  0  0  0  0  0  0
  -26.6869  -17.0486   19.6213 C   0  0  0  0  0  0  0  0  0  0  0  0
  -18.9386  -31.8553   22.4052 C   0  0  0  0  0  0  0  0  0  0  0  0
  -23.4813  -26.6901   23.1066 C   0  0  0  0  0  0  0  0  0  0  0  0
  -25.3428  -26.7156   20.9821 C   0  0  0  0  0  0  0  0  0  0  0  0
  -20.2571  -31.7770   21.6398 C   0  0  0  0  0  0  0  0  0  0  0  0
  -23.1680  -17.5764   19.4942 C   0  0  0  0  0  0  0  0  0  0  0  0
  -20.2698  -30.5590   20.7217 C   0  0  0  0  0  0  0  0  0  0  0  0
  -22.5964  -16.4042   20.2950 C   0  0  0  0  0  0  0  0  0  0  0  0
  -30.7651  -21.8476   21.5008 C   0  0  0  0  0  0  0  0  0  0  0  0
  -28.4476  -21.6198   20.5017 C   0  0  0  0  0  0  0  0  0  0  0  0
  -30.1656  -22.5318   22.7269 C   0  0  0  0  0  0  0  0  0  0  0  0
  -27.8538  -22.3051   21.7300 C   0  0  0  0  0  0  0  0  0  0  0  0
  -24.3909  -17.1625   18.6775 C   0  0  0  0  0  0  0  0  0  0  0  0
  -24.8815  -15.3258   20.2443 C   0  0  0  0  0  0  0  0  0  0  0  0
  -20.1475  -29.2598   21.5270 C   0  0  1  0  0  0  0  0  0  0  0  0
  -23.6420  -27.9952   22.3066 C   0  0  1  0  0  0  0  0  0  0  0  0
  -23.6873  -15.7093   21.1334 C   0  0  2  0  0  0  0  0  0  0  0  0
  -29.7507  -20.9059   20.8550 C   0  0  0  0  0  0  0  0  0  0  0  0
  -28.8588  -23.2488   22.3909 C   0  0  0  0  0  0  0  0  0  1  0  0
  -27.9707  -15.0904   23.4887 C   0  0  0  0  0  0  0  0  0  0  0  0
  -31.9782  -18.9060   18.5103 C   0  0  0  0  0  0  0  0  0  0  0  0
  -29.9743  -32.1048   19.9530 C   0  0  0  0  0  0  0  0  0  0  0  0
  -25.1691  -27.9048   18.1809 C   0  0  0  0  0  0  0  0  0  0  0  0
  -27.2953  -29.0966   17.6089 C   0  0  0  0  0  0  0  0  0  0  0  0
  -25.2305  -30.4039   18.1094 C   0  0  0  0  0  0  0  0  0  0  0  0
  -29.2522  -31.2381   23.5867 C   0  0  0  0  0  0  0  0  0  0  0  0
  -28.9174  -14.6949   22.3582 C   0  0  0  0  0  0  0  0  0  0  0  0
  -31.3242  -19.2489   19.8464 C   0  0  1  0  0  0  0  0  0  0  0  0
  -26.4423  -29.2315   19.9933 C   0  0  1  0  0  0  0  0  0  0  0  0
  -29.1165  -31.6661   21.1297 C   0  0  2  0  0  0  0  0  0  0  0  0
  -26.0329  -29.1424   18.4960 C   0  0  0  0  0  0  0  0  0  0  0  0
  -23.1994  -13.2997   21.3267 N   0  0  0  0  0  0  0  0  0  0  0  0
  -29.4244  -17.7641   20.2036 N   0  0  0  0  0  0  0  0  0  0  0  0
  -23.1377  -14.5167   21.8935 N   0  0  0  0  0  0  0  0  0  0  0  0
  -24.7648  -28.0166   21.3537 N   0  0  0  0  0  0  0  0  0  0  0  0
  -25.3833  -16.5151   19.5382 N   0  0  0  0  0  0  0  0  0  0  0  0
  -22.4240  -15.6589   23.8420 N   0  0  0  0  0  0  0  0  0  0  0  0
  -20.1950  -12.6912   24.6290 N   0  0  0  0  0  0  0  0  0  0  0  0
  -27.5336  -16.3684   20.4959 N   0  0  0  0  0  0  0  0  0  0  0  0
  -21.4150  -28.9233   22.1392 N   0  0  0  0  0  0  0  0  0  0  0  0
  -27.2382  -30.4080   20.3260 N   0  0  0  0  0  0  0  0  0  0  0  0
  -30.3416  -20.3403   19.6132 N   0  3  0  0  0  0  0  0  0  0  0  0
  -29.9730  -31.6318   22.3488 N   0  3  0  0  0  0  0  0  0  0  0  0
  -22.2519  -12.3663   25.5894 O   0  0  0  0  0  0  0  0  0  0  0  0
  -22.3721  -27.8191   20.3261 O   0  0  0  0  0  0  0  0  0  0  0  0
  -24.7549  -30.3396   21.2343 O   0  0  0  0  0  0  0  0  0  0  0  0
  -29.0697  -29.2506   21.1527 O   0  0  0  0  0  0  0  0  0  0  0  0
  -27.0190  -18.0523   18.9856 O   0  0  0  0  0  0  0  0  0  0  0  0
  -22.1657   -7.0161   21.3099 O   0  0  0  0  0  0  0  0  0  0  0  0
  -28.3050  -23.7707   23.5940 O   0  0  0  0  0  0  0  0  0  1  0  0
  -21.0407   -3.7628   25.6174 F   0  0  0  0  0  0  0  0  0  0  0  0
  -19.8517   -7.3622   22.7825 F   0  0  0  0  0  0  0  0  0  0  0  0
  1  2  1  0  0  0  0
  1  5  2  0  0  0  0
  2  6  2  0  0  0  0
  3  9  2  0  0  0  0
  3 17  1  0  0  0  0
  4 10  1  0  0  0  0
  4 17  2  0  0  0  0
  5 19  1  0  0  0  0
  6 21  1  0  0  0  0
  7 11  2  0  0  0  0
  7 20  1  0  0  0  0
  8 14  2  0  0  0  0
  8 23  1  0  0  0  0
  9 24  1  0  0  0  0
 10 24  2  0  0  0  0
 11 25  1  0  0  0  0
 12 13  2  0  0  0  0
 12 26  1  0  0  0  0
 13 27  1  0  0  0  0
 14 30  1  0  0  0  0
 15 22  1  0  0  0  0
 15 25  2  0  0  0  0
 16 27  2  0  0  0  0
 16 28  1  0  0  0  0
 17 29  1  0  0  0  0
 18 29  1  0  0  0  0
 18 32  2  0  0  0  0
 18 33  1  0  0  0  0
 19 21  2  0  0  0  0
 19 38  1  0  0  0  0
 20 22  2  0  0  0  0
 20 39  1  0  0  0  0
 21 51  1  0  0  0  0
 22 40  1  0  0  0  0
 23 31  2  0  0  0  0
 23 63  1  0  0  0  0
 24 85  1  0  0  0  0
 25 86  1  0  0  0  0
 26 28  2  0  0  0  0
 26 85  1  0  0  0  0
 27 87  1  0  0  0  0
 28 88  1  0  0  0  0
 29 68  2  0  0  0  0
 30 64  1  0  0  0  0
 30 69  2  0  0  0  0
 31 69  1  0  0  0  0
 31 75  1  0  0  0  0
 32 70  1  0  0  0  0
 32 73  1  0  0  0  0
 33 74  1  0  0  0  0
 33 80  2  0  0  0  0
 34 52  1  0  0  0  0
 34 76  1  0  0  0  0
 34 81  2  0  0  0  0
 35 65  1  0  0  0  0
 35 71  1  0  0  0  0
 35 82  2  0  0  0  0
 36 66  1  0  0  0  0
 36 77  1  0  0  0  0
 36 83  2  0  0  0  0
 37 72  1  0  0  0  0
 37 75  1  0  0  0  0
 37 84  2  0  0  0  0
 38 41  1  0  0  0  0
 39 52  1  0  0  0  0
 40 71  1  0  0  0  0
 41 43  1  0  0  0  0
 42 44  1  0  0  0  0
 42 49  1  0  0  0  0
 43 51  1  0  0  0  0
 44 53  1  0  0  0  0
 45 47  1  0  0  0  0
 45 54  1  0  0  0  0
 46 48  1  0  0  0  0
 46 54  1  0  0  0  0
 47 55  1  0  0  0  0
 48 55  1  0  0  0  0
 49 72  1  0  0  0  0
 50 53  1  0  0  0  0
 50 72  1  0  0  0  0
 51 76  1  0  0  0  0
 52 71  1  0  0  0  0
 53 70  1  0  0  0  0
 54 78  1  0  0  0  0
 55 86  1  0  0  0  0
 56 63  1  0  0  0  0
 57 64  1  0  0  0  0
 58 66  1  0  0  0  0
 59 67  1  0  0  0  0
 60 67  1  0  0  0  0
 61 67  1  0  0  0  0
 62 79  1  0  0  0  0
 64 78  1  0  0  0  0
 65 67  1  0  0  0  0
 65 77  1  0  0  0  0
 66 79  1  0  0  0  0
 68 70  1  0  0  0  0
M  CHG  2  78   1  79   1
M  ISO  4  37 100  55 101  75 100  86 101
M  END
> <Batch ID>
0142

> <Smiles>
CCc1ccc(C(C)NC2CC[101CH:1]([101O:1]c3ccc4c(c3)CN(C(=O)C(NC(=O)C(C)NC)C(C)(C)C)C(C(=O)NC3CCCc5ccccc53)C4)CC2)nc1[100NH:0][100C:0](=O)N1CCCC(n2nc(-c3ccc(Oc4ccc(F)cc4F)cc3)c(C(N)=O)c2N)C1

> <Shape>
0.242

> <Color>
0.077

> <Negative vol penalty>
0.000

$$$$

  -OEChem-04052321183D

 87 96  0     1  0  0  0  0  0999 V2000
  -26.5469  -38.0970   20.3975 C   0  0  0  0  0  0  0  0  0  0  0  0
  -27.1131  -36.9870   19.7787 C   0  0  0  0  0  0  0  0  0  0  0  0
  -25.8136  -18.0804   18.4785 C   0  0  0  0  0  0  0  0  0  0  0  0
  -26.1588  -16.0079   17.2858 C   0  0  0  0  0  0  0  0  0  0  0  0
  -25.9256  -37.9606   21.6382 C   0  0  0  0  0  0  0  0  0  0  0  0
  -27.0592  -35.7402   20.4008 C   0  0  0  0  0  0  0  0  0  0  0  0
  -26.5710  -28.7575   18.8777 C   0  0  0  0  0  0  0  0  0  0  0  0
  -25.8638  -18.7820   17.2740 C   0  0  0  0  0  0  0  0  0  0  0  0
  -26.2089  -16.7094   16.0812 C   0  0  0  0  0  0  0  0  0  0  0  0
  -27.2082  -27.5482   19.1519 C   0  0  0  0  0  0  0  0  0  0  0  0
  -28.4516  -18.5827   14.3807 C   0  0  0  0  0  0  0  0  0  0  0  0
  -29.4645  -18.2529   13.4803 C   0  0  0  0  0  0  0  0  0  0  0  0
  -26.0395  -27.4169   21.2581 C   0  0  0  0  0  0  0  0  0  0  0  0
  -30.4013  -23.7361   20.2557 C   0  0  0  0  0  0  0  0  0  0  0  0
  -28.1679  -22.8163   20.3090 C   0  0  0  0  0  0  0  0  0  0  0  0
  -27.8036  -17.6618   11.8283 C   0  0  0  0  0  0  0  0  0  0  0  0
  -25.9612  -16.6934   18.4844 C   0  0  0  0  0  0  0  0  0  0  0  0
  -24.7699  -15.4218   20.3477 C   0  0  0  0  0  0  0  0  0  0  0  0
  -25.8556  -36.7097   22.2714 C   0  0  0  0  0  0  0  0  0  0  0  0
  -25.6699  -29.3120   19.7980 C   0  0  0  0  0  0  0  0  0  0  0  0
  -26.4375  -35.5873   21.6518 C   0  0  0  0  0  0  0  0  0  0  0  0
  -25.3902  -28.6321   20.9920 C   0  0  0  0  0  0  0  0  0  0  0  0
  -30.0582  -21.4336   20.9024 C   0  0  0  0  0  0  0  0  0  0  0  0
  -29.0268  -23.8904   20.0757 C   0  0  0  0  0  0  0  0  0  0  0  0
  -30.9170  -22.5077   20.6690 C   0  0  0  0  0  0  0  0  0  0  0  0
  -28.6836  -21.5879   20.7224 C   0  0  0  0  0  0  0  0  0  0  0  0
  -26.0614  -18.0965   16.0753 C   0  0  0  0  0  0  0  0  0  0  0  0
  -26.9447  -26.8791   20.3436 C   0  0  0  0  0  0  0  0  0  0  0  0
  -27.1146  -18.4521   14.0050 C   0  0  0  0  0  0  0  0  0  0  0  0
  -29.1406  -17.7925   12.2041 C   0  0  0  0  0  0  0  0  0  0  0  0
  -26.7907  -17.9917   12.7288 C   0  0  0  0  0  0  0  0  0  0  0  0
  -25.9100  -15.9682   19.7285 C   0  0  0  0  0  0  0  0  0  0  0  0
  -25.2486  -14.8397   21.4960 C   0  0  0  0  0  0  0  0  0  0  0  0
  -23.4007  -15.4388   19.9228 C   0  0  0  0  0  0  0  0  0  0  0  0
  -25.5611  -32.0014   21.4889 C   0  0  0  0  0  0  0  0  0  0  0  0
  -22.6130  -30.9156   22.2963 C   0  0  0  0  0  0  0  0  0  0  0  0
  -20.5026  -28.2579   22.6560 C   0  0  0  0  0  0  0  0  0  0  0  0
  -30.3302  -16.3694   20.9194 C   0  0  0  0  0  0  0  0  0  0  0  0
  -25.2152  -36.6206   23.6340 C   0  0  0  0  0  0  0  0  0  0  0  0
  -24.9706  -30.6040   19.4753 C   0  0  0  0  0  0  0  0  0  0  0  0
  -24.4158  -29.1749   22.0041 C   0  0  0  0  0  0  0  0  0  0  0  0
  -24.8716  -35.1936   24.0533 C   0  0  0  0  0  0  0  0  0  0  0  0
  -29.2907  -13.0801   21.3819 C   0  0  0  0  0  0  0  0  0  0  0  0
  -26.0460  -34.2593   23.7799 C   0  0  0  0  0  0  0  0  0  0  0  0
  -28.0986  -13.1846   22.3297 C   0  0  0  0  0  0  0  0  0  0  0  0
  -30.3918  -14.0517   21.7800 C   0  0  0  0  0  0  0  0  0  0  0  0
  -30.6459  -18.1461   22.7049 C   0  0  0  0  0  0  0  0  0  0  0  0
  -28.7549  -15.6315   22.7632 C   0  0  0  0  0  0  0  0  0  0  0  0
  -30.6189  -20.0988   21.3521 C   0  0  1  0  0  0  0  0  0  0  0  0
  -26.3776  -34.2134   22.2834 C   0  0  1  0  0  0  0  0  0  0  0  0
  -24.4605  -31.3330   20.7146 C   0  0  1  0  0  0  0  0  0  0  0  0
  -30.1493  -19.5851   22.7313 C   0  0  2  0  0  0  0  0  0  0  0  0
  -27.6021  -14.6252   22.5484 C   0  0  1  0  0  0  0  0  0  0  0  0
  -30.3800  -18.8676   20.3995 C   0  0  0  0  0  0  0  0  0  0  0  0
  -32.3927  -22.3690   20.8556 C   0  0  0  0  0  0  0  0  0  0  0  0
  -27.7426  -20.4534   20.9657 C   0  0  0  0  0  0  0  0  0  0  0  0
  -30.7166  -20.3703   23.9058 C   0  0  0  0  0  0  0  0  0  0  0  0
  -31.5204  -18.8020   19.3674 C   0  0  0  0  0  0  0  0  0  0  0  0
  -29.0283  -18.9062   19.6659 C   0  0  0  0  0  0  0  0  0  0  0  0
  -18.1674  -27.6793   23.3698 C   0  0  0  0  0  0  0  0  0  0  0  0
  -23.4227  -31.2623   25.2177 C   0  0  0  0  0  0  0  0  0  0  0  0
  -21.4825  -29.8138   25.8548 C   0  0  0  0  0  0  0  0  0  0  0  0
  -21.0870  -31.9839   24.6898 C   0  0  0  0  0  0  0  0  0  0  0  0
  -19.8321  -27.1695   19.9867 C   0  0  0  0  0  0  0  0  0  0  0  0
  -28.4755  -25.2034   19.6331 C   0  0  0  0  0  0  0  0  0  1  0  0
  -22.0598  -30.0417   23.3960 C   0  0  1  0  0  0  0  0  0  0  0  0
  -19.0709  -28.0397   22.2008 C   0  0  2  0  0  0  0  0  0  0  0  0
  -22.0329  -30.7659   24.7716 C   0  0  0  0  0  0  0  0  0  0  0  0
  -27.0287  -15.7527   20.4257 N   0  0  0  0  0  0  0  0  0  0  0  0
  -26.5938  -15.0644   21.4950 N   0  0  0  0  0  0  0  0  0  0  0  0
  -23.7622  -30.4445   21.6457 N   0  0  0  0  0  0  0  0  0  0  0  0
  -29.8937  -15.4229   21.8586 N   0  0  0  0  0  0  0  0  0  0  0  0
  -30.3822  -17.7033   21.3354 N   0  0  0  0  0  0  0  0  0  0  0  0
  -24.6458  -14.1628   22.4964 N   0  0  0  0  0  0  0  0  0  0  0  0
  -23.0829  -16.0801   18.7178 N   0  0  0  0  0  0  0  0  0  0  0  0
  -25.4305  -33.3740   21.5814 N   0  0  0  0  0  0  0  0  0  0  0  0
  -20.7530  -29.5847   22.9357 N   0  0  0  0  0  0  0  0  0  0  0  0
  -19.0078  -26.9368   21.2005 N   0  3  0  0  0  0  0  0  0  0  0  0
  -22.4837  -14.9153   20.6001 O   0  0  0  0  0  0  0  0  0  0  0  0
  -26.4613  -31.3221   21.9682 O   0  0  0  0  0  0  0  0  0  0  0  0
  -22.0424  -31.9737   22.0199 O   0  0  0  0  0  0  0  0  0  0  0  0
  -21.3162  -27.3423   22.7572 O   0  0  0  0  0  0  0  0  0  0  0  0
  -30.6431  -16.0249   19.7739 O   0  0  0  0  0  0  0  0  0  0  0  0
  -26.1101  -18.7807   14.8997 O   0  0  0  0  0  0  0  0  0  0  0  0
  -27.5701  -25.6908   20.6159 O   0  0  0  0  0  0  0  0  0  1  0  0
  -30.1134  -17.4772   11.3391 F   0  0  0  0  0  0  0  0  0  0  0  0
  -25.5081  -17.8652   12.3616 F   0  0  0  0  0  0  0  0  0  0  0  0
  1  2  1  0  0  0  0
  1  5  2  0  0  0  0
  2  6  2  0  0  0  0
  3  8  2  0  0  0  0
  3 17  1  0  0  0  0
  4  9  1  0  0  0  0
  4 17  2  0  0  0  0
  5 19  1  0  0  0  0
  6 21  1  0  0  0  0
  7 10  2  0  0  0  0
  7 20  1  0  0  0  0
  8 27  1  0  0  0  0
  9 27  2  0  0  0  0
 10 28  1  0  0  0  0
 11 12  2  0  0  0  0
 11 29  1  0  0  0  0
 12 30  1  0  0  0  0
 13 22  1  0  0  0  0
 13 28  2  0  0  0  0
 14 24  1  0  0  0  0
 14 25  2  0  0  0  0
 15 24  2  0  0  0  0
 15 26  1  0  0  0  0
 16 30  2  0  0  0  0
 16 31  1  0  0  0  0
 17 32  1  0  0  0  0
 18 32  1  0  0  0  0
 18 33  2  0  0  0  0
 18 34  1  0  0  0  0
 19 21  2  0  0  0  0
 19 39  1  0  0  0  0
 20 22  2  0  0  0  0
 20 40  1  0  0  0  0
 21 50  1  0  0  0  0
 22 41  1  0  0  0  0
 23 25  1  0  0  0  0
 23 26  2  0  0  0  0
 23 49  1  0  0  0  0
 24 65  1  0  0  0  0
 25 55  1  0  0  0  0
 26 56  1  0  0  0  0
 27 84  1  0  0  0  0
 28 85  1  0  0  0  0
 29 31  2  0  0  0  0
 29 84  1  0  0  0  0
 30 86  1  0  0  0  0
 31 87  1  0  0  0  0
 32 69  2  0  0  0  0
 33 70  1  0  0  0  0
 33 74  1  0  0  0  0
 34 75  1  0  0  0  0
 34 79  2  0  0  0  0
 35 51  1  0  0  0  0
 35 76  1  0  0  0  0
 35 80  2  0  0  0  0
 36 66  1  0  0  0  0
 36 71  1  0  0  0  0
 36 81  2  0  0  0  0
 37 67  1  0  0  0  0
 37 77  1  0  0  0  0
 37 82  2  0  0  0  0
 38 72  1  0  0  0  0
 38 73  1  0  0  0  0
 38 83  2  0  0  0  0
 39 42  1  0  0  0  0
 40 51  1  0  0  0  0
 41 71  1  0  0  0  0
 42 44  1  0  0  0  0
 43 45  1  0  0  0  0
 43 46  1  0  0  0  0
 44 50  1  0  0  0  0
 45 53  1  0  0  0  0
 46 72  1  0  0  0  0
 47 52  1  0  0  0  0
 47 73  1  0  0  0  0
 48 53  1  0  0  0  0
 48 72  1  0  0  0  0
 49 52  1  0  0  0  0
 49 54  1  0  0  0  0
 50 76  1  0  0  0  0
 51 71  1  0  0  0  0
 52 57  1  0  0  0  0
 53 70  1  0  0  0  0
 54 58  1  0  0  0  0
 54 59  1  0  0  0  0
 54 73  1  0  0  0  0
 60 67  1  0  0  0  0
 61 68  1  0  0  0  0
 62 68  1  0  0  0  0
 63 68  1  0  0  0  0
 64 78  1  0  0  0  0
 65 85  1  0  0  0  0
 66 68  1  0  0  0  0
 66 77  1  0  0  0  0
 67 78  1  0  0  0  0
 69 70  1  0  0  0  0
M  CHG  1  78   1
M  ISO  4  38 100  65 101  73 100  85 101
M  END
> <Batch ID>
0142

> <Smiles>
CNC(C)C(=O)NC(C(=O)N1Cc2cc([101O:1][101CH2:1]c3cc(C)c(C4C(C)C[100N:0]([100C:0](=O)N5CCCC(n6nc(-c7ccc(Oc8ccc(F)cc8F)cc7)c(C(N)=O)c6N)C5)C4(C)C)c(C)c3)ccc2CC1C(=O)NC1CCCc2ccccc21)C(C)(C)C

> <Shape>
0.268

> <Color>
0.066

> <Negative vol penalty>
0.000

$$$$

  -OEChem-04052321183D

 83 92  0     1  0  0  0  0  0999 V2000
  -28.4739  -24.1126   17.4901 C   0  0  0  0  0  0  0  0  0  0  0  0
  -27.2678  -24.3683   18.1344 C   0  0  0  0  0  0  0  0  0  0  0  0
  -26.2620  -12.1594   18.5106 C   0  0  0  0  0  0  0  0  0  0  0  0
  -24.6808  -13.1139   20.0681 C   0  0  0  0  0  0  0  0  0  0  0  0
  -29.6547  -24.6731   17.9753 C   0  0  0  0  0  0  0  0  0  0  0  0
  -27.2419  -25.1838   19.2652 C   0  0  0  0  0  0  0  0  0  0  0  0
  -23.4531  -28.5420   19.1520 C   0  0  0  0  0  0  0  0  0  0  0  0
  -26.1624  -10.9304   19.1626 C   0  0  0  0  0  0  0  0  0  0  0  0
  -24.5811  -11.8848   20.7201 C   0  0  0  0  0  0  0  0  0  0  0  0
  -22.1783  -28.0746   19.4688 C   0  0  0  0  0  0  0  0  0  0  0  0
  -23.0076   -8.9328   20.2401 C   0  0  0  0  0  0  0  0  0  0  0  0
  -21.7316   -8.4808   20.5762 C   0  0  0  0  0  0  0  0  0  0  0  0
  -22.4111  -28.9679   21.6974 C   0  0  0  0  0  0  0  0  0  0  0  0
  -22.3565   -8.4518   22.9098 C   0  0  0  0  0  0  0  0  0  0  0  0
  -25.5213  -13.2512   18.9634 C   0  0  0  0  0  0  0  0  0  0  0  0
  -24.8405  -14.9792   17.2146 C   0  0  0  0  0  0  0  0  0  0  0  0
  -29.6419  -25.5038   19.1069 C   0  0  0  0  0  0  0  0  0  0  0  0
  -24.2221  -29.2174   20.1106 C   0  0  0  0  0  0  0  0  0  0  0  0
  -28.4238  -25.7549   19.7669 C   0  0  0  0  0  0  0  0  0  0  0  0
  -23.6943  -29.4451   21.3896 C   0  0  0  0  0  0  0  0  0  0  0  0
  -25.3220  -10.7930   20.2673 C   0  0  0  0  0  0  0  0  0  0  0  0
  -21.6583  -28.2850   20.7425 C   0  0  0  0  0  0  0  0  0  0  0  0
  -23.9582   -9.1443   21.2388 C   0  0  0  0  0  0  0  0  0  0  0  0
  -21.4060   -8.2403   21.9110 C   0  0  0  0  0  0  0  0  0  0  0  0
  -23.6326   -8.9038   22.5736 C   0  0  0  0  0  0  0  0  0  0  0  0
  -25.6242  -14.5212   18.2907 C   0  0  0  0  0  0  0  0  0  0  0  0
  -25.3293  -16.2338   16.9434 C   0  0  0  0  0  0  0  0  0  0  0  0
  -23.7666  -14.3288   16.5222 C   0  0  0  0  0  0  0  0  0  0  0  0
  -27.0143  -28.6795   21.5311 C   0  0  0  0  0  0  0  0  0  0  0  0
  -26.5097  -31.6335   22.7728 C   0  0  0  0  0  0  0  0  0  0  0  0
  -24.2840  -34.0745   23.6299 C   0  0  0  0  0  0  0  0  0  0  0  0
  -28.2224  -20.2888   20.2658 C   0  0  0  0  0  0  0  0  0  0  0  0
  -30.9503  -26.0487   19.6223 C   0  0  0  0  0  0  0  0  0  0  0  0
  -25.5847  -29.7388   19.7449 C   0  0  0  0  0  0  0  0  0  0  0  0
  -24.4714  -30.1825   22.4483 C   0  0  0  0  0  0  0  0  0  0  0  0
  -30.7838  -27.2047   20.6052 C   0  0  0  0  0  0  0  0  0  0  0  0
  -29.3389  -18.8299   17.2160 C   0  0  0  0  0  0  0  0  0  0  0  0
  -29.7171  -26.8728   21.6439 C   0  0  0  0  0  0  0  0  0  0  0  0
  -28.4428  -17.6015   17.0485 C   0  0  0  0  0  0  0  0  0  0  0  0
  -19.0916  -25.8653   21.8105 C   0  0  0  0  0  0  0  0  0  0  0  0
  -24.6427  -22.6892   22.6993 C   0  0  0  0  0  0  0  0  0  0  0  0
  -29.6906  -19.0762   18.6814 C   0  0  0  0  0  0  0  0  0  0  0  0
  -27.6361  -17.9346   19.4227 C   0  0  0  0  0  0  0  0  0  0  0  0
  -24.4967  -21.7155   20.5372 C   0  0  0  0  0  0  0  0  0  0  0  0
  -28.3514  -26.6544   20.9817 C   0  0  1  0  0  0  0  0  0  0  0  0
  -26.4838  -29.9627   20.9569 C   0  0  1  0  0  0  0  0  0  0  0  0
  -20.5287  -25.6099   22.1720 C   0  0  2  0  0  0  0  0  0  0  0  0
  -25.1310  -21.4871   21.9001 C   0  0  1  0  0  0  0  0  0  0  0  0
  -27.2087  -17.6782   17.9675 C   0  0  2  0  0  0  0  0  0  0  0  0
  -20.1930  -26.4234   20.9507 C   0  0  2  0  0  0  0  0  0  1  0  0
  -23.1781  -22.7910   22.2934 C   0  0  1  0  0  0  0  0  0  0  0  0
  -24.1666  -36.3602   24.6591 C   0  0  0  0  0  0  0  0  0  0  0  0
  -27.2487  -21.2374   23.2328 C   0  0  0  0  0  0  0  0  0  0  0  0
  -26.9403  -30.4095   25.5343 C   0  0  0  0  0  0  0  0  0  0  0  0
  -25.8954  -32.4562   26.5278 C   0  0  0  0  0  0  0  0  0  0  0  0
  -28.0038  -32.6494   25.2087 C   0  0  0  0  0  0  0  0  0  0  0  0
  -23.1206  -35.2474   21.1743 C   0  0  0  0  0  0  0  0  0  0  0  0
  -21.1069  -24.2449   22.0262 C   0  0  0  0  0  0  0  0  0  0  0  0
  -22.5967  -24.1911   22.4081 C   0  0  0  0  0  0  0  0  0  0  0  0
  -25.8303  -32.1720   24.0087 C   0  0  1  0  0  0  0  0  0  0  0  0
  -24.2767  -35.5692   23.3649 C   0  0  2  0  0  0  0  0  0  0  0  0
  -26.6445  -21.3806   21.8399 C   0  0  1  0  0  0  0  0  0  0  0  0
  -26.6533  -31.9061   25.3008 C   0  0  0  0  0  0  0  0  0  0  0  0
  -26.5413  -15.4123   18.6765 N   0  0  0  0  0  0  0  0  0  0  0  0
  -26.3370  -16.4427   17.8384 N   0  0  0  0  0  0  0  0  0  0  0  0
  -25.8015  -30.6672   22.0443 N   0  0  0  0  0  0  0  0  0  0  0  0
  -28.4765  -19.1399   19.4986 N   0  0  0  0  0  0  0  0  0  0  0  0
  -24.9911  -17.1676   16.0290 N   0  0  0  0  0  0  0  0  0  0  0  0
  -23.3918  -13.0412   16.9296 N   0  0  0  0  0  0  0  0  0  0  0  0
  -27.7481  -27.9239   20.6367 N   0  0  0  0  0  0  0  0  0  0  0  0
  -25.5668  -33.5829   23.7478 N   0  0  0  0  0  0  0  0  0  0  0  0
  -27.0467  -20.2697   21.0062 N   0  0  0  0  0  0  0  0  0  0  0  0
  -23.1667  -22.3401   20.8545 N   0  3  0  0  0  0  0  0  0  0  0  0
  -23.1260  -35.9348   22.4913 N   0  3  0  0  0  0  0  0  0  0  0  0
  -23.1683  -14.8667   15.5599 O   0  0  0  0  0  0  0  0  0  0  0  0
  -26.7767  -28.3967   22.6996 O   0  0  0  0  0  0  0  0  0  0  0  0
  -27.6244  -32.0600   22.4611 O   0  0  0  0  0  0  0  0  0  0  0  0
  -23.2545  -33.4102   23.7266 O   0  0  0  0  0  0  0  0  0  0  0  0
  -28.9839  -21.2617   20.2851 O   0  0  0  0  0  0  0  0  0  0  0  0
  -25.2243   -9.5938   20.9036 O   0  0  0  0  0  0  0  0  0  0  0  0
  -20.4146  -27.8293   21.0545 O   0  0  0  0  0  0  0  0  0  1  0  0
  -20.1801   -7.8077   22.2338 F   0  0  0  0  0  0  0  0  0  0  0  0
  -24.5412   -9.1063   23.5376 F   0  0  0  0  0  0  0  0  0  0  0  0
  1  2  1  0  0  0  0
  1  5  2  0  0  0  0
  2  6  2  0  0  0  0
  3  8  2  0  0  0  0
  3 15  1  0  0  0  0
  4  9  1  0  0  0  0
  4 15  2  0  0  0  0
  5 17  1  0  0  0  0
  6 19  1  0  0  0  0
  7 10  2  0  0  0  0
  7 18  1  0  0  0  0
  8 21  1  0  0  0  0
  9 21  2  0  0  0  0
 10 22  1  0  0  0  0
 11 12  2  0  0  0  0
 11 23  1  0  0  0  0
 12 24  1  0  0  0  0
 13 20  1  0  0  0  0
 13 22  2  0  0  0  0
 14 24  2  0  0  0  0
 14 25  1  0  0  0  0
 15 26  1  0  0  0  0
 16 26  1  0  0  0  0
 16 27  2  0  0  0  0
 16 28  1  0  0  0  0
 17 19  2  0  0  0  0
 17 33  1  0  0  0  0
 18 20  2  0  0  0  0
 18 34  1  0  0  0  0
 19 45  1  0  0  0  0
 20 35  1  0  0  0  0
 21 80  1  0  0  0  0
 22 81  1  0  0  0  0
 23 25  2  0  0  0  0
 23 80  1  0  0  0  0
 24 82  1  0  0  0  0
 25 83  1  0  0  0  0
 26 64  2  0  0  0  0
 27 65  1  0  0  0  0
 27 68  1  0  0  0  0
 28 69  1  0  0  0  0
 28 75  2  0  0  0  0
 29 46  1  0  0  0  0
 29 70  1  0  0  0  0
 29 76  2  0  0  0  0
 30 60  1  0  0  0  0
 30 66  1  0  0  0  0
 30 77  2  0  0  0  0
 31 61  1  0  0  0  0
 31 71  1  0  0  0  0
 31 78  2  0  0  0  0
 32 67  1  0  0  0  0
 32 72  1  0  0  0  0
 32 79  2  0  0  0  0
 33 36  1  0  0  0  0
 34 46  1  0  0  0  0
 35 66  1  0  0  0  0
 36 38  1  0  0  0  0
 37 39  1  0  0  0  0
 37 42  1  0  0  0  0
 38 45  1  0  0  0  0
 39 49  1  0  0  0  0
 40 47  1  0  0  0  0
 40 50  1  0  0  0  0
 41 48  1  0  0  0  0
 41 51  1  0  0  0  0
 42 67  1  0  0  0  0
 43 49  1  0  0  0  0
 43 67  1  0  0  0  0
 44 48  1  0  0  0  0
 44 73  1  0  0  0  0
 45 70  1  0  0  0  0
 46 66  1  0  0  0  0
 47 50  1  0  0  0  0
 47 58  1  0  0  0  0
 48 62  1  0  0  0  0
 49 65  1  0  0  0  0
 50 81  1  0  0  0  0
 51 59  1  0  0  0  0
 51 73  1  0  0  0  0
 52 61  1  0  0  0  0
 53 62  1  0  0  0  0
 54 63  1  0  0  0  0
 55 63  1  0  0  0  0
 56 63  1  0  0  0  0
 57 74  1  0  0  0  0
 58 59  1  0  0  0  0
 60 63  1  0  0  0  0
 60 71  1  0  0  0  0
 61 74  1  0  0  0  0
 62 72  1  0  0  0  0
 64 65  1  0  0  0  0
M  CHG  2  73   1  74   1
M  ISO  4  32 100  50 101  72 100  81 101
M  END
> <Batch ID>
0142

> <Smiles>
CNC(C)C(=O)NC(C(=O)N1Cc2cc([101O:1][101CH:1]3CC3CCC3CC(C(C)[100NH:0][100C:0](=O)N4CCCC(n5nc(-c6ccc(Oc7ccc(F)cc7F)cc6)c(C(N)=O)c5N)C4)CN3)ccc2CC1C(=O)NC1CCCc2ccccc21)C(C)(C)C

> <Shape>
0.306

> <Color>
0.070

> <Negative vol penalty>
0.000

$$$$

  -OEChem-04052321183D

 85 94  0     1  0  0  0  0  0999 V2000
  -18.8382  -23.6953   22.0229 C   0  0  0  0  0  0  0  0  0  0  0  0
  -20.2104  -23.5149   22.1643 C   0  0  0  0  0  0  0  0  0  0  0  0
  -23.3428   -9.9947   22.0710 C   0  0  0  0  0  0  0  0  0  0  0  0
  -24.0479  -11.3973   23.9075 C   0  0  0  0  0  0  0  0  0  0  0  0
  -18.2930  -24.9762   22.1005 C   0  0  0  0  0  0  0  0  0  0  0  0
  -21.0384  -24.6155   22.3822 C   0  0  0  0  0  0  0  0  0  0  0  0
  -24.4567  -23.7840   26.0248 C   0  0  0  0  0  0  0  0  0  0  0  0
  -30.7485  -19.3451   20.9722 C   0  0  0  0  0  0  0  0  0  0  0  0
  -22.7047   -9.1394   22.9693 C   0  0  0  0  0  0  0  0  0  0  0  0
  -23.4098  -10.5420   24.8058 C   0  0  0  0  0  0  0  0  0  0  0  0
  -25.5731  -23.0200   25.6879 C   0  0  0  0  0  0  0  0  0  0  0  0
  -30.2887  -20.3869   21.7776 C   0  0  0  0  0  0  0  0  0  0  0  0
  -23.5783   -6.6710   25.1066 C   0  0  0  0  0  0  0  0  0  0  0  0
  -23.7618   -5.2989   24.9357 C   0  0  0  0  0  0  0  0  0  0  0  0
  -28.4939  -18.9457   20.2015 C   0  0  0  0  0  0  0  0  0  0  0  0
  -26.8722  -25.0377   25.4416 C   0  0  0  0  0  0  0  0  0  0  0  0
  -21.3806   -5.0172   24.6399 C   0  0  0  0  0  0  0  0  0  0  0  0
  -24.0145  -11.1236   22.5401 C   0  0  0  0  0  0  0  0  0  0  0  0
  -24.1212  -13.1298   20.9680 C   0  0  0  0  0  0  0  0  0  0  0  0
  -19.1136  -26.0920   22.3291 C   0  0  0  0  0  0  0  0  0  0  0  0
  -24.5369  -25.1835   26.0621 C   0  0  0  0  0  0  0  0  0  0  0  0
  -20.5038  -25.9127   22.4616 C   0  0  0  0  0  0  0  0  0  0  0  0
  -28.0340  -19.9875   21.0069 C   0  0  0  0  0  0  0  0  0  0  0  0
  -25.7560  -25.8171   25.7818 C   0  0  0  0  0  0  0  0  0  0  0  0
  -29.8511  -18.6245   20.1841 C   0  0  0  0  0  0  0  0  0  0  0  0
  -22.7382   -9.4130   24.3366 C   0  0  0  0  0  0  0  0  0  0  0  0
  -26.7804  -23.6469   25.3934 C   0  0  0  0  0  0  0  0  0  0  0  0
  -28.9314  -20.7081   21.7950 C   0  0  0  0  0  0  0  0  0  0  0  0
  -22.2959   -7.2162   25.0443 C   0  0  0  0  0  0  0  0  0  0  0  0
  -22.6630   -4.4720   24.7023 C   0  0  0  0  0  0  0  0  0  0  0  0
  -21.1970   -6.3893   24.8109 C   0  0  0  0  0  0  0  0  0  0  0  0
  -24.6743  -12.0072   21.6128 C   0  0  0  0  0  0  0  0  0  0  0  0
  -25.1462  -13.6234   20.1985 C   0  0  0  0  0  0  0  0  0  0  0  0
  -22.7991  -13.6774   21.0568 C   0  0  0  0  0  0  0  0  0  0  0  0
  -23.1235  -27.5542   24.4854 C   0  0  0  0  0  0  0  0  0  0  0  0
  -24.7244  -29.4045   26.6151 C   0  0  0  0  0  0  0  0  0  0  0  0
  -27.3615  -29.7386   28.7554 C   0  0  0  0  0  0  0  0  0  0  0  0
  -30.5052  -15.0458   19.5627 C   0  0  0  0  0  0  0  0  0  0  0  0
  -18.4842  -27.4623   22.3580 C   0  0  0  0  0  0  0  0  0  0  0  0
  -23.3305  -25.9922   26.4535 C   0  0  0  0  0  0  0  0  0  0  0  0
  -25.8998  -27.3156   25.8276 C   0  0  0  0  0  0  0  0  0  0  0  0
  -19.3859  -28.5341   22.9649 C   0  0  0  0  0  0  0  0  0  0  0  0
  -29.6485  -11.6296   19.0403 C   0  0  0  0  0  0  0  0  0  0  0  0
  -25.8389  -20.3304   22.3253 C   0  0  0  0  0  0  0  0  0  0  0  0
  -25.5839  -19.2351   21.3377 C   0  0  0  0  0  0  0  0  0  0  0  0
  -20.7955  -28.4338   22.3905 C   0  0  0  0  0  0  0  0  0  0  0  0
  -28.2356  -11.5148   19.6153 C   0  0  0  0  0  0  0  0  0  0  0  0
  -30.5142  -12.5862   19.8573 C   0  0  0  0  0  0  0  0  0  0  0  0
  -28.5223  -13.8130   20.6327 C   0  0  0  0  0  0  0  0  0  0  0  0
  -26.5788  -20.3180   21.0139 C   0  0  0  0  0  0  0  0  0  0  0  0
  -21.4318  -27.0790   22.7238 C   0  0  1  0  0  0  0  0  0  0  0  0
  -23.3916  -27.4341   25.9590 C   0  0  1  0  0  0  0  0  0  0  0  0
  -27.5949  -12.9023   19.8099 C   0  0  2  0  0  0  0  0  0  0  0  0
  -30.0634  -17.7427   17.8306 C   0  0  0  0  0  0  0  0  0  0  0  0
  -28.4277  -31.3792   30.3267 C   0  0  0  0  0  0  0  0  0  0  0  0
  -25.8615  -30.9401   24.2363 C   0  0  0  0  0  0  0  0  0  0  0  0
  -27.5953  -31.8941   25.7699 C   0  0  0  0  0  0  0  0  0  0  0  0
  -25.1798  -32.3700   26.1715 C   0  0  0  0  0  0  0  0  0  0  0  0
  -26.9744  -27.9439   31.0766 C   0  0  0  0  0  0  0  0  0  0  0  0
  -28.8196  -23.4988   24.1787 C   0  0  0  0  0  0  0  0  0  1  0  0
  -29.4864  -22.4091   23.3616 C   0  0  0  0  0  0  0  0  0  0  0  0
  -30.3423  -17.5105   19.3227 C   0  0  2  0  0  0  0  0  0  0  0  0
  -26.0844  -30.0587   26.6528 C   0  0  1  0  0  0  0  0  0  0  0  0
  -27.4391  -30.2319   30.1890 C   0  0  2  0  0  0  0  0  0  0  0  0
  -26.1774  -31.2876   25.7048 C   0  0  0  0  0  0  0  0  0  0  0  0
  -25.9515  -11.7996   21.2816 N   0  0  0  0  0  0  0  0  0  0  0  0
  -26.2095  -12.7984   20.4202 N   0  0  0  0  0  0  0  0  0  0  0  0
  -24.6901  -28.0629   26.2093 N   0  0  0  0  0  0  0  0  0  0  0  0
  -29.8505  -13.8839   20.0036 N   0  0  0  0  0  0  0  0  0  0  0  0
  -25.2328  -14.6783   19.3606 N   0  0  0  0  0  0  0  0  0  0  0  0
  -21.8695  -13.0465   21.8947 N   0  0  0  0  0  0  0  0  0  0  0  0
  -21.8930  -27.0610   24.0954 N   0  0  0  0  0  0  0  0  0  0  0  0
  -26.3520  -30.3635   28.0542 N   0  0  0  0  0  0  0  0  0  0  0  0
  -29.8033  -16.2329   19.7326 N   0  0  0  0  0  0  0  0  0  0  0  0
  -27.8702  -29.1289   31.0936 N   0  3  0  0  0  0  0  0  0  0  0  0
  -22.4476  -14.6864   20.3997 O   0  0  0  0  0  0  0  0  0  0  0  0
  -23.9697  -28.0584   23.7564 O   0  0  0  0  0  0  0  0  0  0  0  0
  -23.7299  -30.0577   26.9408 O   0  0  0  0  0  0  0  0  0  0  0  0
  -28.1228  -28.8870   28.3018 O   0  0  0  0  0  0  0  0  0  0  0  0
  -31.6294  -15.0260   19.0503 O   0  0  0  0  0  0  0  0  0  0  0  0
  -22.1154   -8.5788   25.2134 O   0  0  0  0  0  0  0  0  0  0  0  0
  -27.8715  -22.9035   25.0636 O   0  0  0  0  0  0  0  0  0  1  0  0
  -28.4980  -21.7338   22.5933 O   0  0  0  0  0  0  0  0  0  0  0  0
  -22.8395   -3.1546   24.5367 F   0  0  0  0  0  0  0  0  0  0  0  0
  -19.9628   -6.9076   24.7488 F   0  0  0  0  0  0  0  0  0  0  0  0
  1  2  1  0  0  0  0
  1  5  2  0  0  0  0
  2  6  2  0  0  0  0
  3  9  2  0  0  0  0
  3 18  1  0  0  0  0
  4 10  1  0  0  0  0
  4 18  2  0  0  0  0
  5 20  1  0  0  0  0
  6 22  1  0  0  0  0
  7 11  2  0  0  0  0
  7 21  1  0  0  0  0
  8 12  2  0  0  0  0
  8 25  1  0  0  0  0
  9 26  1  0  0  0  0
 10 26  2  0  0  0  0
 11 27  1  0  0  0  0
 12 28  1  0  0  0  0
 13 14  2  0  0  0  0
 13 29  1  0  0  0  0
 14 30  1  0  0  0  0
 15 23  1  0  0  0  0
 15 25  2  0  0  0  0
 16 24  1  0  0  0  0
 16 27  2  0  0  0  0
 17 30  2  0  0  0  0
 17 31  1  0  0  0  0
 18 32  1  0  0  0  0
 19 32  1  0  0  0  0
 19 33  2  0  0  0  0
 19 34  1  0  0  0  0
 20 22  2  0  0  0  0
 20 39  1  0  0  0  0
 21 24  2  0  0  0  0
 21 40  1  0  0  0  0
 22 51  1  0  0  0  0
 23 28  2  0  0  0  0
 23 50  1  0  0  0  0
 24 41  1  0  0  0  0
 25 62  1  0  0  0  0
 26 81  1  0  0  0  0
 27 82  1  0  0  0  0
 28 83  1  0  0  0  0
 29 31  2  0  0  0  0
 29 81  1  0  0  0  0
 30 84  1  0  0  0  0
 31 85  1  0  0  0  0
 32 66  2  0  0  0  0
 33 67  1  0  0  0  0
 33 70  1  0  0  0  0
 34 71  1  0  0  0  0
 34 76  2  0  0  0  0
 35 52  1  0  0  0  0
 35 72  1  0  0  0  0
 35 77  2  0  0  0  0
 36 63  1  0  0  0  0
 36 68  1  0  0  0  0
 36 78  2  0  0  0  0
 37 64  1  0  0  0  0
 37 73  1  0  0  0  0
 37 79  2  0  0  0  0
 38 69  1  0  0  0  0
 38 74  1  0  0  0  0
 38 80  2  0  0  0  0
 39 42  1  0  0  0  0
 40 52  1  0  0  0  0
 41 68  1  0  0  0  0
 42 46  1  0  0  0  0
 43 47  1  0  0  0  0
 43 48  1  0  0  0  0
 44 45  1  0  0  0  0
 44 50  1  0  0  0  0
 45 50  1  0  0  0  0
 46 51  1  0  0  0  0
 47 53  1  0  0  0  0
 48 69  1  0  0  0  0
 49 53  1  0  0  0  0
 49 69  1  0  0  0  0
 51 72  1  0  0  0  0
 52 68  1  0  0  0  0
 53 67  1  0  0  0  0
 54 62  1  0  0  0  0
 55 64  1  0  0  0  0
 56 65  1  0  0  0  0
 57 65  1  0  0  0  0
 58 65  1  0  0  0  0
 59 75  1  0  0  0  0
 60 61  1  0  0  0  0
 60 82  1  0  0  0  0
 61 83  1  0  0  0  0
 62 74  1  0  0  0  0
 63 65  1  0  0  0  0
 63 73  1  0  0  0  0
 64 75  1  0  0  0  0
 66 67  1  0  0  0  0
M  CHG  1  75   1
M  ISO  4  38 100  60 101  74 100  82 101
M  END
> <Batch ID>
0142

> <Smiles>
CNC(C)C(=O)NC(C(=O)N1Cc2cc([101O:1][101CH2:1]COc3ccc(C(C)[100NH:0][100C:0](=O)N4CCCC(n5nc(-c6ccc(Oc7ccc(F)cc7F)cc6)c(C(N)=O)c5N)C4)cc3C3CC3)ccc2CC1C(=O)NC1CCCc2ccccc21)C(C)(C)C

> <Shape>
0.246

> <Color>
0.144

> <Negative vol penalty>
0.000

$$$$

  -OEChem-04052321183D

 87 96  0     1  0  0  0  0  0999 V2000
  -31.5132  -26.3482   18.3579 C   0  0  0  0  0  0  0  0  0  0  0  0
  -30.7227  -25.3337   18.8882 C   0  0  0  0  0  0  0  0  0  0  0  0
  -27.4643  -17.1964   19.0046 C   0  0  0  0  0  0  0  0  0  0  0  0
  -28.2011  -17.0055   21.2976 C   0  0  0  0  0  0  0  0  0  0  0  0
  -31.3790  -27.6535   18.8292 C   0  0  0  0  0  0  0  0  0  0  0  0
  -29.7982  -25.6237   19.8910 C   0  0  0  0  0  0  0  0  0  0  0  0
  -24.3213  -23.0107   20.7167 C   0  0  0  0  0  0  0  0  0  0  0  0
  -28.2094  -18.3669   18.8626 C   0  0  0  0  0  0  0  0  0  0  0  0
  -28.9463  -18.1761   21.1556 C   0  0  0  0  0  0  0  0  0  0  0  0
  -23.8856  -21.9934   21.5647 C   0  0  0  0  0  0  0  0  0  0  0  0
  -30.7558  -21.3085   21.5067 C   0  0  0  0  0  0  0  0  0  0  0  0
  -30.6814  -22.2526   22.5308 C   0  0  0  0  0  0  0  0  0  0  0  0
  -23.1336  -23.6468   23.1521 C   0  0  0  0  0  0  0  0  0  0  0  0
  -24.4528  -18.1031   27.1345 C   0  0  0  0  0  0  0  0  0  0  0  0
  -22.3929  -17.1654   26.2892 C   0  0  0  0  0  0  0  0  0  0  0  0
  -28.3005  -22.4534   22.1729 C   0  0  0  0  0  0  0  0  0  0  0  0
  -27.4601  -16.5157   20.2221 C   0  0  0  0  0  0  0  0  0  0  0  0
  -27.1203  -13.9894   20.1219 C   0  0  0  0  0  0  0  0  0  0  0  0
  -30.4456  -27.9614   19.8314 C   0  0  0  0  0  0  0  0  0  0  0  0
  -24.1760  -24.3558   21.0856 C   0  0  0  0  0  0  0  0  0  0  0  0
  -29.6523  -26.9341   20.3771 C   0  0  0  0  0  0  0  0  0  0  0  0
  -23.5659  -24.6794   22.3059 C   0  0  0  0  0  0  0  0  0  0  0  0
  -24.6026  -17.0076   27.9848 C   0  0  0  0  0  0  0  0  0  0  0  0
  -22.5427  -16.0699   27.1395 C   0  0  0  0  0  0  0  0  0  0  0  0
  -23.6475  -15.9910   27.9873 C   0  0  0  0  0  0  0  0  0  0  0  0
  -28.9504  -18.8568   19.9380 C   0  0  0  0  0  0  0  0  0  0  0  0
  -23.2943  -22.3113   22.7838 C   0  0  0  0  0  0  0  0  0  0  0  0
  -29.6025  -20.9369   20.8157 C   0  0  0  0  0  0  0  0  0  0  0  0
  -23.3480  -18.1820   26.2867 C   0  0  0  0  0  0  0  0  0  0  0  0
  -29.4538  -22.8250   22.8639 C   0  0  0  0  0  0  0  0  0  0  0  0
  -28.3749  -21.5093   21.1488 C   0  0  0  0  0  0  0  0  0  0  0  0
  -26.6901  -15.3067   20.3696 C   0  0  0  0  0  0  0  0  0  0  0  0
  -26.0259  -13.2110   20.4097 C   0  0  0  0  0  0  0  0  0  0  0  0
  -28.3952  -13.5120   19.6721 C   0  0  0  0  0  0  0  0  0  0  0  0
  -26.1809  -26.7613   21.6310 C   0  0  0  0  0  0  0  0  0  0  0  0
  -23.4393  -28.4778   21.8760 C   0  0  0  0  0  0  0  0  0  0  0  0
  -20.0858  -28.5064   22.5081 C   0  0  0  0  0  0  0  0  0  0  0  0
  -21.2683  -14.0162   23.9549 C   0  0  0  0  0  0  0  0  0  0  0  0
  -30.3698  -29.3785   20.3421 C   0  0  0  0  0  0  0  0  0  0  0  0
  -24.6269  -25.4420   20.1478 C   0  0  0  0  0  0  0  0  0  0  0  0
  -23.3682  -26.1082   22.7394 C   0  0  0  0  0  0  0  0  0  0  0  0
  -29.1035  -29.6703   21.1431 C   0  0  0  0  0  0  0  0  0  0  0  0
  -21.2436  -13.3458   20.4582 C   0  0  0  0  0  0  0  0  0  0  0  0
  -28.8424  -28.5575   22.1531 C   0  0  0  0  0  0  0  0  0  0  0  0
  -22.6755  -13.6535   20.0166 C   0  0  0  0  0  0  0  0  0  0  0  0
  -22.7931  -15.7197   31.0488 C   0  0  0  0  0  0  0  0  0  0  0  0
  -22.9425  -14.2319   31.1690 C   0  0  0  0  0  0  0  0  0  0  0  0
  -20.7695  -14.3072   21.5459 C   0  0  0  0  0  0  0  0  0  0  0  0
  -23.0882  -14.7066   22.2793 C   0  0  0  0  0  0  0  0  0  0  0  0
  -28.6207  -27.2137   21.4485 C   0  0  1  0  0  0  0  0  0  0  0  0
  -24.8951  -26.7675   20.8536 C   0  0  1  0  0  0  0  0  0  0  0  0
  -23.6305  -13.7283   21.2231 C   0  0  2  0  0  0  0  0  0  0  0  0
  -23.8642  -15.0080   30.2704 C   0  0  0  0  0  0  0  0  0  0  0  0
  -25.7965  -16.9508   28.8818 C   0  0  0  0  0  0  0  0  0  0  0  0
  -18.1251  -30.0641   22.6708 C   0  0  0  0  0  0  0  0  0  0  0  0
  -24.4313  -29.4383   24.5969 C   0  0  0  0  0  0  0  0  0  0  0  0
  -22.0966  -30.1848   25.1068 C   0  0  0  0  0  0  0  0  0  0  0  0
  -23.3419  -31.2042   23.2009 C   0  0  0  0  0  0  0  0  0  0  0  0
  -18.6614  -27.1294   20.3095 C   0  0  0  0  0  0  0  0  0  0  0  0
  -21.5033  -14.9963   27.1200 C   0  0  0  0  0  0  0  0  0  0  0  0
  -21.9254  -13.7511   26.3333 C   0  0  0  0  0  0  0  0  0  0  0  0
  -23.0596  -19.9768   23.1721 C   0  0  0  0  0  0  0  0  0  1  0  0
  -22.5190  -19.0281   24.2244 C   0  0  0  0  0  0  0  0  0  0  0  0
  -22.4956  -28.8303   23.0003 C   0  0  1  0  0  0  0  0  0  0  0  0
  -18.9258  -29.1428   21.7638 C   0  0  2  0  0  0  0  0  0  0  0  0
  -23.0967  -29.8874   23.9692 C   0  0  0  0  0  0  0  0  0  0  0  0
  -25.4213  -15.3658   20.7827 N   0  0  0  0  0  0  0  0  0  0  0  0
  -25.0448  -14.0758   20.7968 N   0  0  0  0  0  0  0  0  0  0  0  0
  -23.8313  -27.1343   21.7907 N   0  0  0  0  0  0  0  0  0  0  0  0
  -21.7183  -14.3302   22.6618 N   0  0  0  0  0  0  0  0  0  0  0  0
  -25.8166  -11.8780   20.3667 N   0  0  0  0  0  0  0  0  0  0  0  0
  -29.4090  -14.4472   19.4233 N   0  0  0  0  0  0  0  0  0  0  0  0
  -23.7994  -14.8804   28.8494 N   0  0  0  0  0  0  0  0  0  0  0  0
  -27.2851  -27.1473   20.8953 N   0  0  0  0  0  0  0  0  0  0  0  0
  -21.2451  -29.2399   22.3703 N   0  0  0  0  0  0  0  0  0  0  0  0
  -22.2334  -14.0556   24.9537 N   0  0  0  0  0  0  0  0  0  0  0  0
  -18.0107  -28.0921   21.2351 N   0  3  0  0  0  0  0  0  0  0  0  0
  -28.6234  -12.2935   19.4801 O   0  0  0  0  0  0  0  0  0  0  0  0
  -26.1717  -26.4323   22.8114 O   0  0  0  0  0  0  0  0  0  0  0  0
  -23.8093  -29.3604   21.0978 O   0  0  0  0  0  0  0  0  0  0  0  0
  -19.9736  -27.4648   23.1508 O   0  0  0  0  0  0  0  0  0  0  0  0
  -20.0946  -13.7174   24.2000 O   0  0  0  0  0  0  0  0  0  0  0  0
  -29.6778  -19.9989   19.7998 O   0  0  0  0  0  0  0  0  0  0  0  0
  -22.8688  -21.3203   23.6137 O   0  0  0  0  0  0  0  0  0  1  0  0
  -23.2008  -19.2581   25.4514 O   0  0  0  0  0  0  0  0  0  0  0  0
  -29.3823  -23.7305   23.8484 F   0  0  0  0  0  0  0  0  0  0  0  0
  -27.2633  -21.1554   20.4893 F   0  0  0  0  0  0  0  0  0  0  0  0
  1  2  1  0  0  0  0
  1  5  2  0  0  0  0
  2  6  2  0  0  0  0
  3  8  2  0  0  0  0
  3 17  1  0  0  0  0
  4  9  1  0  0  0  0
  4 17  2  0  0  0  0
  5 19  1  0  0  0  0
  6 21  1  0  0  0  0
  7 10  2  0  0  0  0
  7 20  1  0  0  0  0
  8 26  1  0  0  0  0
  9 26  2  0  0  0  0
 10 27  1  0  0  0  0
 11 12  2  0  0  0  0
 11 28  1  0  0  0  0
 12 30  1  0  0  0  0
 13 22  1  0  0  0  0
 13 27  2  0  0  0  0
 14 23  2  0  0  0  0
 14 29  1  0  0  0  0
 15 24  1  0  0  0  0
 15 29  2  0  0  0  0
 16 30  2  0  0  0  0
 16 31  1  0  0  0  0
 17 32  1  0  0  0  0
 18 32  1  0  0  0  0
 18 33  2  0  0  0  0
 18 34  1  0  0  0  0
 19 21  2  0  0  0  0
 19 39  1  0  0  0  0
 20 22  2  0  0  0  0
 20 40  1  0  0  0  0
 21 50  1  0  0  0  0
 22 41  1  0  0  0  0
 23 25  1  0  0  0  0
 23 54  1  0  0  0  0
 24 25  2  0  0  0  0
 24 60  1  0  0  0  0
 25 73  1  0  0  0  0
 26 83  1  0  0  0  0
 27 84  1  0  0  0  0
 28 31  2  0  0  0  0
 28 83  1  0  0  0  0
 29 85  1  0  0  0  0
 30 86  1  0  0  0  0
 31 87  1  0  0  0  0
 32 67  2  0  0  0  0
 33 68  1  0  0  0  0
 33 71  1  0  0  0  0
 34 72  1  0  0  0  0
 34 78  2  0  0  0  0
 35 51  1  0  0  0  0
 35 74  1  0  0  0  0
 35 79  2  0  0  0  0
 36 64  1  0  0  0  0
 36 69  1  0  0  0  0
 36 80  2  0  0  0  0
 37 65  1  0  0  0  0
 37 75  1  0  0  0  0
 37 81  2  0  0  0  0
 38 70  1  0  0  0  0
 38 76  1  0  0  0  0
 38 82  2  0  0  0  0
 39 42  1  0  0  0  0
 40 51  1  0  0  0  0
 41 69  1  0  0  0  0
 42 44  1  0  0  0  0
 43 45  1  0  0  0  0
 43 48  1  0  0  0  0
 44 50  1  0  0  0  0
 45 52  1  0  0  0  0
 46 47  1  0  0  0  0
 46 53  1  0  0  0  0
 47 53  1  0  0  0  0
 48 70  1  0  0  0  0
 49 52  1  0  0  0  0
 49 70  1  0  0  0  0
 50 74  1  0  0  0  0
 51 69  1  0  0  0  0
 52 68  1  0  0  0  0
 53 73  1  0  0  0  0
 55 65  1  0  0  0  0
 56 66  1  0  0  0  0
 57 66  1  0  0  0  0
 58 66  1  0  0  0  0
 59 77  1  0  0  0  0
 60 61  1  0  0  0  0
 61 76  1  0  0  0  0
 62 63  1  0  0  0  0
 62 84  1  0  0  0  0
 63 85  1  0  0  0  0
 64 66  1  0  0  0  0
 64 75  1  0  0  0  0
 65 77  1  0  0  0  0
 67 68  1  0  0  0  0
M  CHG  1  77   1
M  ISO  4  38 100  62 101  76 100  84 101
M  END
> <Batch ID>
0142

> <Smiles>
CNC(C)C(=O)NC(C(=O)N1Cc2cc([101O:1][101CH2:1]COc3cc(C)c(NC4CC4)c(CC[100NH:0][100C:0](=O)N4CCCC(n5nc(-c6ccc(Oc7ccc(F)cc7F)cc6)c(C(N)=O)c5N)C4)c3)ccc2CC1C(=O)NC1CCCc2ccccc21)C(C)(C)C

> <Shape>
0.225

> <Color>
0.066

> <Negative vol penalty>
0.000

$$$$

  -OEChem-04052321183D

 89 98  0     1  0  0  0  0  0999 V2000
  -25.4226  -33.6972   13.5147 C   0  0  0  0  0  0  0  0  0  0  0  0
  -25.8978  -32.5245   14.0928 C   0  0  0  0  0  0  0  0  0  0  0  0
  -24.2727   -9.7061   21.2282 C   0  0  0  0  0  0  0  0  0  0  0  0
  -24.8266  -10.6437   23.3848 C   0  0  0  0  0  0  0  0  0  0  0  0
  -25.2163  -34.8281   14.3036 C   0  0  0  0  0  0  0  0  0  0  0  0
  -26.1680  -32.4823   15.4601 C   0  0  0  0  0  0  0  0  0  0  0  0
  -25.4167  -27.7034   19.2156 C   0  0  0  0  0  0  0  0  0  0  0  0
  -23.8999   -8.5111   21.8435 C   0  0  0  0  0  0  0  0  0  0  0  0
  -24.4538   -9.4487   24.0001 C   0  0  0  0  0  0  0  0  0  0  0  0
  -26.3061  -26.7509   19.7110 C   0  0  0  0  0  0  0  0  0  0  0  0
  -21.2383   -7.3126   23.5500 C   0  0  0  0  0  0  0  0  0  0  0  0
  -20.0463   -6.7162   23.1388 C   0  0  0  0  0  0  0  0  0  0  0  0
  -26.5750  -28.0565   21.7216 C   0  0  0  0  0  0  0  0  0  0  0  0
  -30.5631  -19.3724   21.3729 C   0  0  0  0  0  0  0  0  0  0  0  0
  -28.1877  -19.6316   21.7299 C   0  0  0  0  0  0  0  0  0  0  0  0
  -21.2658   -4.7409   22.4692 C   0  0  0  0  0  0  0  0  0  0  0  0
  -24.7362  -10.7724   21.9989 C   0  0  0  0  0  0  0  0  0  0  0  0
  -24.2995  -13.1167   21.0928 C   0  0  0  0  0  0  0  0  0  0  0  0
  -25.4750  -34.7969   15.6830 C   0  0  0  0  0  0  0  0  0  0  0  0
  -25.1077  -28.8470   19.9661 C   0  0  0  0  0  0  0  0  0  0  0  0
  -25.9663  -33.6143   16.2680 C   0  0  0  0  0  0  0  0  0  0  0  0
  -25.6794  -29.0208   21.2345 C   0  0  0  0  0  0  0  0  0  0  0  0
  -29.7093  -21.3816   22.4077 C   0  0  0  0  0  0  0  0  0  0  0  0
  -30.7856  -20.6255   21.9437 C   0  0  0  0  0  0  0  0  0  0  0  0
  -28.4103  -20.8847   22.3008 C   0  0  0  0  0  0  0  0  0  0  0  0
  -29.2641  -18.8755   21.2659 C   0  0  0  0  0  0  0  0  0  0  0  0
  -23.9904   -8.3824   23.2294 C   0  0  0  0  0  0  0  0  0  0  0  0
  -26.8876  -26.9287   20.9630 C   0  0  0  0  0  0  0  0  0  0  0  0
  -22.4440   -6.6233   23.4207 C   0  0  0  0  0  0  0  0  0  0  0  0
  -20.0601   -5.4303   22.5985 C   0  0  0  0  0  0  0  0  0  0  0  0
  -22.4578   -5.3374   22.8804 C   0  0  0  0  0  0  0  0  0  0  0  0
  -25.1220  -12.0069   21.3639 C   0  0  0  0  0  0  0  0  0  0  0  0
  -25.1343  -14.0226   20.4855 C   0  0  0  0  0  0  0  0  0  0  0  0
  -22.9054  -13.3114   21.3657 C   0  0  0  0  0  0  0  0  0  0  0  0
  -25.4799  -31.9754   19.5438 C   0  0  0  0  0  0  0  0  0  0  0  0
  -23.7584  -32.1561   22.2871 C   0  0  0  0  0  0  0  0  0  0  0  0
  -22.7474  -30.6496   25.1776 C   0  0  0  0  0  0  0  0  0  0  0  0
  -29.9937  -16.7235   20.1783 C   0  0  0  0  0  0  0  0  0  0  0  0
  -25.2816  -36.0585   16.4866 C   0  0  0  0  0  0  0  0  0  0  0  0
  -24.1258  -29.8519   19.4290 C   0  0  0  0  0  0  0  0  0  0  0  0
  -25.3651  -30.2210   22.0884 C   0  0  0  0  0  0  0  0  0  0  0  0
  -25.2366  -35.8198   17.9937 C   0  0  0  0  0  0  0  0  0  0  0  0
  -29.8425  -13.4851   18.7062 C   0  0  0  0  0  0  0  0  0  0  0  0
  -26.3721  -34.8956   18.4219 C   0  0  0  0  0  0  0  0  0  0  0  0
  -28.5332  -12.9031   19.2441 C   0  0  0  0  0  0  0  0  0  0  0  0
  -29.2249  -23.8388   22.2340 C   0  0  0  0  0  0  0  0  0  0  0  0
  -30.5550  -14.3405   19.7523 C   0  0  0  0  0  0  0  0  0  0  0  0
  -28.4234  -14.8157   20.8925 C   0  0  0  0  0  0  0  0  0  0  0  0
  -29.9477  -22.7230   23.0194 C   0  0  1  0  0  0  0  0  0  0  0  0
  -26.2476  -33.5218   17.7521 C   0  0  1  0  0  0  0  0  0  0  0  0
  -24.2794  -31.2329   20.0587 C   0  0  1  0  0  0  0  0  0  0  0  0
  -28.1682  -24.4067   23.1875 C   0  0  1  0  0  0  0  0  0  0  0  0
  -29.3832  -22.7903   24.4610 C   0  0  2  0  0  0  0  0  0  0  0  0
  -28.8055  -24.2126   24.5707 C   0  0  2  0  0  0  0  0  0  0  0  0
  -27.6375  -13.9995   19.8534 C   0  0  2  0  0  0  0  0  0  0  0  0
  -32.1860  -21.1351   22.0458 C   0  0  0  0  0  0  0  0  0  0  0  0
  -27.2404  -21.6742   22.7900 C   0  0  0  0  0  0  0  0  0  0  0  0
  -30.4447  -22.4866   25.5128 C   0  0  0  0  0  0  0  0  0  0  0  0
  -21.3740  -31.0606   27.2373 C   0  0  0  0  0  0  0  0  0  0  0  0
  -27.5974  -25.8474   26.0443 C   0  0  0  0  0  0  0  0  0  0  0  0
  -26.4853  -23.6969   25.3793 C   0  0  0  0  0  0  0  0  0  0  0  0
  -25.9929  -33.8929   23.4275 C   0  0  0  0  0  0  0  0  0  0  0  0
  -25.0539  -33.4796   25.7113 C   0  0  0  0  0  0  0  0  0  0  0  0
  -23.6816  -34.6608   23.9955 C   0  0  0  0  0  0  0  0  0  0  0  0
  -20.9029  -28.4269   24.5322 C   0  0  0  0  0  0  0  0  0  0  0  0
  -27.8124  -25.8423   22.8657 C   0  0  0  0  0  0  0  0  0  1  0  0
  -24.0921  -32.1774   23.7593 C   0  0  1  0  0  0  0  0  0  0  0  0
  -21.3774  -30.5152   25.8177 C   0  0  2  0  0  0  0  0  0  0  0  0
  -27.8147  -24.3704   25.7175 C   0  0  0  0  0  0  0  0  0  0  0  0
  -24.7127  -33.5309   24.2067 C   0  0  0  0  0  0  0  0  0  0  0  0
  -26.3826  -12.1888   20.9615 N   0  0  0  0  0  0  0  0  0  0  0  0
  -26.3584  -13.4235   20.4314 N   0  0  0  0  0  0  0  0  0  0  0  0
  -24.4040  -31.1786   21.5167 N   0  0  0  0  0  0  0  0  0  0  0  0
  -29.6465  -15.3598   20.2819 N   0  0  0  0  0  0  0  0  0  0  0  0
  -24.9334  -15.2652   19.9977 N   0  0  0  0  0  0  0  0  0  0  0  0
  -22.1974  -12.2789   21.9956 N   0  0  0  0  0  0  0  0  0  0  0  0
  -29.0378  -17.6021   20.6871 N   0  0  0  0  0  0  0  0  0  0  0  0
  -25.2330  -32.7280   18.4115 N   0  0  0  0  0  0  0  0  0  0  0  0
  -22.8637  -31.8221   24.4615 N   0  0  0  0  0  0  0  0  0  0  0  0
  -20.9651  -29.0838   25.8632 N   0  3  0  0  0  0  0  0  0  0  0  0
  -22.3017  -14.3632   21.0452 O   0  0  0  0  0  0  0  0  0  0  0  0
  -26.5507  -31.8741   20.1311 O   0  0  0  0  0  0  0  0  0  0  0  0
  -22.9492  -32.9719   21.8386 O   0  0  0  0  0  0  0  0  0  0  0  0
  -23.6276  -29.8011   25.3036 O   0  0  0  0  0  0  0  0  0  0  0  0
  -31.0483  -17.0863   19.6509 O   0  0  0  0  0  0  0  0  0  0  0  0
  -23.6264   -7.2165   23.8302 O   0  0  0  0  0  0  0  0  0  0  0  0
  -27.7565  -26.0009   21.4486 O   0  0  0  0  0  0  0  0  0  1  0  0
  -18.9152   -4.8570   22.2051 F   0  0  0  0  0  0  0  0  0  0  0  0
  -23.6129   -4.6697   22.7548 F   0  0  0  0  0  0  0  0  0  0  0  0
  1  2  1  0  0  0  0
  1  5  2  0  0  0  0
  2  6  2  0  0  0  0
  3  8  2  0  0  0  0
  3 17  1  0  0  0  0
  4  9  1  0  0  0  0
  4 17  2  0  0  0  0
  5 19  1  0  0  0  0
  6 21  1  0  0  0  0
  7 10  2  0  0  0  0
  7 20  1  0  0  0  0
  8 27  1  0  0  0  0
  9 27  2  0  0  0  0
 10 28  1  0  0  0  0
 11 12  2  0  0  0  0
 11 29  1  0  0  0  0
 12 30  1  0  0  0  0
 13 22  1  0  0  0  0
 13 28  2  0  0  0  0
 14 24  2  0  0  0  0
 14 26  1  0  0  0  0
 15 25  1  0  0  0  0
 15 26  2  0  0  0  0
 16 30  2  0  0  0  0
 16 31  1  0  0  0  0
 17 32  1  0  0  0  0
 18 32  1  0  0  0  0
 18 33  2  0  0  0  0
 18 34  1  0  0  0  0
 19 21  2  0  0  0  0
 19 39  1  0  0  0  0
 20 22  2  0  0  0  0
 20 40  1  0  0  0  0
 21 50  1  0  0  0  0
 22 41  1  0  0  0  0
 23 24  1  0  0  0  0
 23 25  2  0  0  0  0
 23 49  1  0  0  0  0
 24 56  1  0  0  0  0
 25 57  1  0  0  0  0
 26 77  1  0  0  0  0
 27 86  1  0  0  0  0
 28 87  1  0  0  0  0
 29 31  2  0  0  0  0
 29 86  1  0  0  0  0
 30 88  1  0  0  0  0
 31 89  1  0  0  0  0
 32 71  2  0  0  0  0
 33 72  1  0  0  0  0
 33 75  1  0  0  0  0
 34 76  1  0  0  0  0
 34 81  2  0  0  0  0
 35 51  1  0  0  0  0
 35 78  1  0  0  0  0
 35 82  2  0  0  0  0
 36 67  1  0  0  0  0
 36 73  1  0  0  0  0
 36 83  2  0  0  0  0
 37 68  1  0  0  0  0
 37 79  1  0  0  0  0
 37 84  2  0  0  0  0
 38 74  1  0  0  0  0
 38 77  1  0  0  0  0
 38 85  2  0  0  0  0
 39 42  1  0  0  0  0
 40 51  1  0  0  0  0
 41 73  1  0  0  0  0
 42 44  1  0  0  0  0
 43 45  1  0  0  0  0
 43 47  1  0  0  0  0
 44 50  1  0  0  0  0
 45 55  1  0  0  0  0
 46 49  1  0  0  0  0
 46 52  1  0  0  0  0
 47 74  1  0  0  0  0
 48 55  1  0  0  0  0
 48 74  1  0  0  0  0
 49 53  1  0  0  0  0
 50 78  1  0  0  0  0
 51 73  1  0  0  0  0
 52 54  1  0  0  0  0
 52 66  1  0  0  0  0
 53 54  1  0  0  0  0
 53 58  1  0  0  0  0
 54 69  1  0  0  0  0
 55 72  1  0  0  0  0
 59 68  1  0  0  0  0
 60 69  1  0  0  0  0
 61 69  1  0  0  0  0
 62 70  1  0  0  0  0
 63 70  1  0  0  0  0
 64 70  1  0  0  0  0
 65 80  1  0  0  0  0
 66 87  1  0  0  0  0
 67 70  1  0  0  0  0
 67 79  1  0  0  0  0
 68 80  1  0  0  0  0
 71 72  1  0  0  0  0
M  CHG  1  80   1
M  ISO  4  38 100  66 101  77 100  87 101
M  END
> <Batch ID>
0142

> <Smiles>
CNC(C)C(=O)NC(C(=O)N1Cc2cc([101O:1][101CH2:1]C3CC(c4c(C)cc([100NH:0][100C:0](=O)N5CCCC(n6nc(-c7ccc(Oc8ccc(F)cc8F)cc7)c(C(N)=O)c6N)C5)cc4C)C(C)C3C(C)C)ccc2CC1C(=O)NC1CCCc2ccccc21)C(C)(C)C

> <Shape>
0.255

> <Color>
0.140

> <Negative vol penalty>
0.000

$$$$

  -OEChem-04052321183D

 89 98  0     1  0  0  0  0  0999 V2000
  -31.5817  -34.6751   19.9242 C   0  0  0  0  0  0  0  0  0  0  0  0
  -31.2900  -33.3149   19.9349 C   0  0  0  0  0  0  0  0  0  0  0  0
  -22.6572  -10.5415   21.1172 C   0  0  0  0  0  0  0  0  0  0  0  0
  -24.5283   -9.1124   21.6589 C   0  0  0  0  0  0  0  0  0  0  0  0
  -30.8112  -35.5581   20.6795 C   0  0  0  0  0  0  0  0  0  0  0  0
  -30.2282  -32.8367   20.7019 C   0  0  0  0  0  0  0  0  0  0  0  0
  -26.5060  -28.1702   19.3325 C   0  0  0  0  0  0  0  0  0  0  0  0
  -21.8157   -9.4295   21.0901 C   0  0  0  0  0  0  0  0  0  0  0  0
  -23.6867   -8.0003   21.6319 C   0  0  0  0  0  0  0  0  0  0  0  0
  -26.4923  -26.8337   19.7293 C   0  0  0  0  0  0  0  0  0  0  0  0
  -25.4682  -16.6148   18.8711 C   0  0  0  0  0  0  0  0  0  0  0  0
  -25.9858  -15.3810   19.2653 C   0  0  0  0  0  0  0  0  0  0  0  0
  -21.4133   -6.5491   23.6680 C   0  0  0  0  0  0  0  0  0  0  0  0
  -21.5331   -5.6222   24.7034 C   0  0  0  0  0  0  0  0  0  0  0  0
  -24.8906  -27.3679   21.4523 C   0  0  0  0  0  0  0  0  0  0  0  0
  -26.5533  -16.3844   16.7248 C   0  0  0  0  0  0  0  0  0  0  0  0
  -22.0826   -3.9012   23.0992 C   0  0  0  0  0  0  0  0  0  0  0  0
  -24.0136  -10.3830   21.4016 C   0  0  0  0  0  0  0  0  0  0  0  0
  -24.7777  -12.6581   22.2663 C   0  0  0  0  0  0  0  0  0  0  0  0
  -29.7333  -35.0917   21.4486 C   0  0  0  0  0  0  0  0  0  0  0  0
  -25.7190  -29.1192   20.0008 C   0  0  0  0  0  0  0  0  0  0  0  0
  -29.4433  -33.7141   21.4693 C   0  0  0  0  0  0  0  0  0  0  0  0
  -24.8942  -28.7153   21.0604 C   0  0  0  0  0  0  0  0  0  0  0  0
  -27.0708  -15.1505   17.1190 C   0  0  0  0  0  0  0  0  0  0  0  0
  -22.3304   -8.1589   21.3475 C   0  0  0  0  0  0  0  0  0  0  0  0
  -25.6867  -26.4329   20.7912 C   0  0  0  0  0  0  0  0  0  0  0  0
  -25.7519  -17.1165   17.6009 C   0  0  0  0  0  0  0  0  0  0  0  0
  -26.7871  -14.6488   18.3893 C   0  0  0  0  0  0  0  0  0  0  0  0
  -21.6280   -6.1520   22.3481 C   0  0  0  0  0  0  0  0  0  0  0  0
  -21.8678   -4.2983   24.4190 C   0  0  0  0  0  0  0  0  0  0  0  0
  -21.9627   -4.8281   22.0638 C   0  0  0  0  0  0  0  0  0  0  0  0
  -24.8836  -11.5312   21.4292 C   0  0  0  0  0  0  0  0  0  0  0  0
  -25.8351  -13.4560   21.9034 C   0  0  0  0  0  0  0  0  0  0  0  0
  -23.8101  -12.9567   23.2814 C   0  0  0  0  0  0  0  0  0  0  0  0
  -26.3207  -31.7500   21.6802 C   0  0  0  0  0  0  0  0  0  0  0  0
  -23.0894  -32.0340   21.6580 C   0  0  0  0  0  0  0  0  0  0  0  0
  -20.0489  -30.5097   21.3779 C   0  0  0  0  0  0  0  0  0  0  0  0
  -28.9251  -13.5369   16.6195 C   0  0  0  0  0  0  0  0  0  0  0  0
  -28.9585  -36.0782   22.2859 C   0  0  0  0  0  0  0  0  0  0  0  0
  -25.7248  -30.5521   19.5434 C   0  0  0  0  0  0  0  0  0  0  0  0
  -24.0154  -29.6913   21.7977 C   0  0  0  0  0  0  0  0  0  0  0  0
  -27.6176  -35.5390   22.7773 C   0  0  0  0  0  0  0  0  0  0  0  0
  -30.2437  -13.2645   20.0663 C   0  0  0  0  0  0  0  0  0  0  0  0
  -27.7830  -34.1324   23.3439 C   0  0  0  0  0  0  0  0  0  0  0  0
  -26.0416  -21.6568   19.7936 C   0  0  0  0  0  0  0  0  0  0  0  0
  -25.0070  -23.1571   18.0401 C   0  0  0  0  0  0  0  0  0  0  0  0
  -29.0237  -12.8022   20.8607 C   0  0  0  0  0  0  0  0  0  0  0  0
  -25.8938  -22.7693   20.8272 C   0  0  0  0  0  0  0  0  0  0  0  0
  -24.8627  -24.2657   19.0784 C   0  0  0  0  0  0  0  0  0  0  0  0
  -30.1854  -12.7964   18.6154 C   0  0  0  0  0  0  0  0  0  0  0  0
  -27.7095  -12.7385   18.7043 C   0  0  0  0  0  0  0  0  0  0  0  0
  -28.2842  -33.1602   22.2691 C   0  0  1  0  0  0  0  0  0  0  0  0
  -25.2730  -31.5268   20.6265 C   0  0  1  0  0  0  0  0  0  0  0  0
  -24.9806  -21.7666   18.6897 C   0  0  0  0  0  0  0  0  0  0  0  0
  -27.7248  -13.2317   20.1589 C   0  0  1  0  0  0  0  0  0  0  0  0
  -25.9172  -24.1501   20.1771 C   0  0  0  0  0  0  0  0  0  1  0  0
  -17.5879  -30.9968   21.4398 C   0  0  0  0  0  0  0  0  0  0  0  0
  -23.2138  -32.2635   24.6980 C   0  0  0  0  0  0  0  0  0  0  0  0
  -20.7558  -31.7921   24.7645 C   0  0  0  0  0  0  0  0  0  0  0  0
  -21.6023  -33.8285   23.5988 C   0  0  0  0  0  0  0  0  0  0  0  0
  -27.8433  -14.7616   14.7860 C   0  0  0  0  0  0  0  0  0  0  0  0
  -19.6751  -29.5703   18.5963 C   0  0  0  0  0  0  0  0  0  0  0  0
  -26.4849  -12.2939   18.5264 C   0  0  0  0  0  0  0  0  0  0  0  0
  -25.1812  -20.6764   17.6387 C   0  0  0  0  0  0  0  0  0  0  0  0
  -25.0291  -19.2907   18.2382 C   0  0  0  0  0  0  0  0  0  0  0  0
  -21.9681  -31.5576   22.5495 C   0  0  1  0  0  0  0  0  0  0  0  0
  -18.8193  -30.8576   20.5583 C   0  0  2  0  0  0  0  0  0  0  0  0
  -21.9029  -32.3421   23.8903 C   0  0  0  0  0  0  0  0  0  0  0  0
  -25.9258  -11.6032   20.5970 N   0  0  0  0  0  0  0  0  0  0  0  0
  -26.4845  -12.7849   20.9094 N   0  0  0  0  0  0  0  0  0  0  0  0
  -24.0608  -31.0822   21.3171 N   0  0  0  0  0  0  0  0  0  0  0  0
  -28.9187  -13.1599   17.9782 N   0  0  0  0  0  0  0  0  0  0  0  0
  -26.2633  -14.6592   22.3407 N   0  0  0  0  0  0  0  0  0  0  0  0
  -24.0680  -12.5387   24.5940 N   0  0  0  0  0  0  0  0  0  0  0  0
  -27.2004  -32.7755   21.3906 N   0  0  0  0  0  0  0  0  0  0  0  0
  -20.7498  -31.6370   21.7509 N   0  0  0  0  0  0  0  0  0  0  0  0
  -27.8986  -14.4056   16.2021 N   0  0  0  0  0  0  0  0  0  0  0  0
  -18.5548  -29.7970   19.5454 N   0  3  0  0  0  0  0  0  0  0  0  0
  -22.7406  -13.5616   23.0287 O   0  0  0  0  0  0  0  0  0  0  0  0
  -26.3293  -31.0451   22.6825 O   0  0  0  0  0  0  0  0  0  0  0  0
  -23.0990  -33.2057   21.2722 O   0  0  0  0  0  0  0  0  0  0  0  0
  -20.3547  -29.3537   21.6621 O   0  0  0  0  0  0  0  0  0  0  0  0
  -29.7547  -13.0872   15.8195 O   0  0  0  0  0  0  0  0  0  0  0  0
  -21.5094   -7.0736   21.3213 O   0  0  0  0  0  0  0  0  0  0  0  0
  -25.6719  -25.1292   21.1809 O   0  0  0  0  0  0  0  0  0  1  0  0
  -27.2825  -13.4452   18.7939 O   0  0  0  0  0  0  0  0  0  0  0  0
  -25.2439  -18.3295   17.2141 O   0  0  0  0  0  0  0  0  0  0  0  0
  -21.9844   -3.4087   25.4136 F   0  0  0  0  0  0  0  0  0  0  0  0
  -22.1714   -4.4410   20.7979 F   0  0  0  0  0  0  0  0  0  0  0  0
  1  2  1  0  0  0  0
  1  5  2  0  0  0  0
  2  6  2  0  0  0  0
  3  8  2  0  0  0  0
  3 18  1  0  0  0  0
  4  9  1  0  0  0  0
  4 18  2  0  0  0  0
  5 20  1  0  0  0  0
  6 22  1  0  0  0  0
  7 10  2  0  0  0  0
  7 21  1  0  0  0  0
  8 25  1  0  0  0  0
  9 25  2  0  0  0  0
 10 26  1  0  0  0  0
 11 12  2  0  0  0  0
 11 27  1  0  0  0  0
 12 28  1  0  0  0  0
 13 14  2  0  0  0  0
 13 29  1  0  0  0  0
 14 30  1  0  0  0  0
 15 23  1  0  0  0  0
 15 26  2  0  0  0  0
 16 24  1  0  0  0  0
 16 27  2  0  0  0  0
 17 30  2  0  0  0  0
 17 31  1  0  0  0  0
 18 32  1  0  0  0  0
 19 32  1  0  0  0  0
 19 33  2  0  0  0  0
 19 34  1  0  0  0  0
 20 22  2  0  0  0  0
 20 39  1  0  0  0  0
 21 23  2  0  0  0  0
 21 40  1  0  0  0  0
 22 52  1  0  0  0  0
 23 41  1  0  0  0  0
 24 28  2  0  0  0  0
 24 77  1  0  0  0  0
 25 84  1  0  0  0  0
 26 85  1  0  0  0  0
 27 87  1  0  0  0  0
 28 86  1  0  0  0  0
 29 31  2  0  0  0  0
 29 84  1  0  0  0  0
 30 88  1  0  0  0  0
 31 89  1  0  0  0  0
 32 69  2  0  0  0  0
 33 70  1  0  0  0  0
 33 73  1  0  0  0  0
 34 74  1  0  0  0  0
 34 79  2  0  0  0  0
 35 53  1  0  0  0  0
 35 75  1  0  0  0  0
 35 80  2  0  0  0  0
 36 66  1  0  0  0  0
 36 71  1  0  0  0  0
 36 81  2  0  0  0  0
 37 67  1  0  0  0  0
 37 76  1  0  0  0  0
 37 82  2  0  0  0  0
 38 72  1  0  0  0  0
 38 77  1  0  0  0  0
 38 83  2  0  0  0  0
 39 42  1  0  0  0  0
 40 53  1  0  0  0  0
 41 71  1  0  0  0  0
 42 44  1  0  0  0  0
 43 47  1  0  0  0  0
 43 50  1  0  0  0  0
 44 52  1  0  0  0  0
 45 48  1  0  0  0  0
 45 54  1  0  0  0  0
 46 49  1  0  0  0  0
 46 54  1  0  0  0  0
 47 55  1  0  0  0  0
 48 56  1  0  0  0  0
 49 56  1  0  0  0  0
 50 72  1  0  0  0  0
 51 55  1  0  0  0  0
 51 72  1  0  0  0  0
 52 75  1  0  0  0  0
 53 71  1  0  0  0  0
 54 64  1  0  0  0  0
 55 70  1  0  0  0  0
 56 85  1  0  0  0  0
 57 67  1  0  0  0  0
 58 68  1  0  0  0  0
 59 68  1  0  0  0  0
 60 68  1  0  0  0  0
 61 77  1  0  0  0  0
 62 78  1  0  0  0  0
 63 86  1  0  0  0  0
 64 65  1  0  0  0  0
 65 87  1  0  0  0  0
 66 68  1  0  0  0  0
 66 76  1  0  0  0  0
 67 78  1  0  0  0  0
 69 70  1  0  0  0  0
M  CHG  1  78   1
M  ISO  4  38 100  56 101  77 100  85 101
M  END
> <Batch ID>
0142

> <Smiles>
CNC(C)C(=O)NC(C(=O)N1Cc2cc([101O:1][101CH:1]3CCC(CCOc4ccc(OC)c([100N:0](C)[100C:0](=O)N5CCCC(n6nc(-c7ccc(Oc8ccc(F)cc8F)cc7)c(C(N)=O)c6N)C5)c4)CC3)ccc2CC1C(=O)NC1CCCc2ccccc21)C(C)(C)C

> <Shape>
0.242

> <Color>
0.138

> <Negative vol penalty>
0.000

$$$$

  -OEChem-04052321183D

 89 98  0     1  0  0  0  0  0999 V2000
  -31.5453  -33.9875   23.9222 C   0  0  0  0  0  0  0  0  0  0  0  0
  -31.3261  -32.8544   23.1454 C   0  0  0  0  0  0  0  0  0  0  0  0
  -24.4973   -9.1895   21.6246 C   0  0  0  0  0  0  0  0  0  0  0  0
  -22.8659  -10.8172   20.8991 C   0  0  0  0  0  0  0  0  0  0  0  0
  -30.6866  -34.2829   24.9801 C   0  0  0  0  0  0  0  0  0  0  0  0
  -30.2484  -32.0154   23.4268 C   0  0  0  0  0  0  0  0  0  0  0  0
  -26.8645  -28.8896   19.3914 C   0  0  0  0  0  0  0  0  0  0  0  0
  -23.5165   -8.1979   21.6051 C   0  0  0  0  0  0  0  0  0  0  0  0
  -21.8852   -9.8255   20.8795 C   0  0  0  0  0  0  0  0  0  0  0  0
  -26.8987  -27.5618   18.9678 C   0  0  0  0  0  0  0  0  0  0  0  0
  -21.9625   -6.2766   19.2972 C   0  0  0  0  0  0  0  0  0  0  0  0
  -22.2904   -5.0519   18.7156 C   0  0  0  0  0  0  0  0  0  0  0  0
  -25.1739  -27.0146   20.5630 C   0  0  0  0  0  0  0  0  0  0  0  0
  -27.4645  -20.7099   19.9286 C   0  0  0  0  0  0  0  0  0  0  0  0
  -21.8519   -3.9379   20.8141 C   0  0  0  0  0  0  0  0  0  0  0  0
  -27.2868  -20.3312   22.6250 C   0  0  0  0  0  0  0  0  0  0  0  0
  -24.1719  -10.4992   21.2717 C   0  0  0  0  0  0  0  0  0  0  0  0
  -26.0324  -11.9027   20.2342 C   0  0  0  0  0  0  0  0  0  0  0  0
  -29.5923  -33.4523   25.2686 C   0  0  0  0  0  0  0  0  0  0  0  0
  -25.9910  -29.2883   20.4134 C   0  0  0  0  0  0  0  0  0  0  0  0
  -29.3750  -32.2992   24.4905 C   0  0  0  0  0  0  0  0  0  0  0  0
  -25.1288  -28.3486   20.9961 C   0  0  0  0  0  0  0  0  0  0  0  0
  -27.4926  -19.4169   20.4391 C   0  0  0  0  0  0  0  0  0  0  0  0
  -27.4026  -19.2154   21.8119 C   0  0  0  0  0  0  0  0  0  0  0  0
  -22.2105   -8.5158   21.2325 C   0  0  0  0  0  0  0  0  0  0  0  0
  -26.0554  -26.6235   19.5555 C   0  0  0  0  0  0  0  0  0  0  0  0
  -21.5793   -6.3319   20.6373 C   0  0  0  0  0  0  0  0  0  0  0  0
  -22.2351   -3.8826   19.4740 C   0  0  0  0  0  0  0  0  0  0  0  0
  -21.5241   -5.1625   21.3957 C   0  0  0  0  0  0  0  0  0  0  0  0
  -25.1844  -11.5242   21.2922 C   0  0  0  0  0  0  0  0  0  0  0  0
  -27.3458  -21.7589   20.8260 C   0  0  0  0  0  0  0  0  0  0  0  0
  -26.8047  -12.9110   20.7571 C   0  0  0  0  0  0  0  0  0  0  0  0
  -26.1146  -11.3889   18.8982 C   0  0  0  0  0  0  0  0  0  0  0  0
  -26.3540  -30.5227   23.3200 C   0  0  0  0  0  0  0  0  0  0  0  0
  -29.8042  -17.2108   18.9376 C   0  0  0  0  0  0  0  0  0  0  0  0
  -23.1189  -30.7336   23.2098 C   0  0  0  0  0  0  0  0  0  0  0  0
  -20.1848  -29.5979   21.8876 C   0  0  0  0  0  0  0  0  0  0  0  0
  -27.3495  -17.5859   23.7324 C   0  0  0  0  0  0  0  0  0  0  0  0
  -28.7190  -33.7869   26.4519 C   0  0  0  0  0  0  0  0  0  0  0  0
  -25.9473  -30.7299   20.8405 C   0  0  0  0  0  0  0  0  0  0  0  0
  -24.1582  -28.7298   22.0829 C   0  0  0  0  0  0  0  0  0  0  0  0
  -27.3824  -33.0496   26.4503 C   0  0  0  0  0  0  0  0  0  0  0  0
  -27.3421  -14.5118   25.5289 C   0  0  0  0  0  0  0  0  0  0  0  0
  -27.5891  -31.5703   26.1412 C   0  0  0  0  0  0  0  0  0  0  0  0
  -26.8499  -13.4917   24.4998 C   0  0  0  0  0  0  0  0  0  0  0  0
  -26.4415  -18.2308   18.5058 C   0  0  0  0  0  0  0  0  0  0  0  0
  -28.4157  -18.2301   17.1695 C   0  0  0  0  0  0  0  0  0  0  0  0
  -26.6396  -15.8593   25.3725 C   0  0  0  0  0  0  0  0  0  0  0  0
  -26.1942  -15.4106   22.9915 C   0  0  0  0  0  0  0  0  0  0  0  0
  -27.6181  -18.2663   19.4950 C   0  0  1  0  0  0  0  0  0  0  0  0
  -28.2025  -31.3780   24.7490 C   0  0  1  0  0  0  0  0  0  0  0  0
  -25.3824  -30.9201   22.2449 C   0  0  1  0  0  0  0  0  0  0  0  0
  -28.8818  -18.3751   18.6185 C   0  0  1  0  0  0  0  0  0  0  0  0
  -27.0388  -17.5721   17.2658 C   0  0  2  0  0  0  0  0  0  0  0  0
  -26.9197  -14.0572   23.0677 C   0  0  2  0  0  0  0  0  0  0  0  0
  -26.1935  -17.7690   16.0192 C   0  0  0  0  0  0  0  0  0  0  0  0
  -17.7021  -29.9378   22.0205 C   0  0  0  0  0  0  0  0  0  0  0  0
  -23.0546  -29.2121   25.8538 C   0  0  0  0  0  0  0  0  0  0  0  0
  -20.6254  -28.7577   25.4532 C   0  0  0  0  0  0  0  0  0  0  0  0
  -21.4288  -31.1063   25.7004 C   0  0  0  0  0  0  0  0  0  0  0  0
  -20.0231  -30.3844   19.0390 C   0  0  0  0  0  0  0  0  0  0  0  0
  -27.4089  -23.3319   18.8902 C   0  0  0  0  0  0  0  0  0  0  0  0
  -27.3325  -24.8311   18.6542 C   0  0  0  0  0  0  0  0  0  1  0  0
  -21.9747  -29.8252   23.5902 C   0  0  1  0  0  0  0  0  0  0  0  0
  -18.9881  -30.3332   21.3116 C   0  0  2  0  0  0  0  0  0  0  0  0
  -21.7904  -29.7174   25.1303 C   0  0  0  0  0  0  0  0  0  0  0  0
  -27.2560  -21.6024   22.1658 N   0  0  0  0  0  0  0  0  0  0  0  0
  -25.3978  -12.2341   22.4033 N   0  0  0  0  0  0  0  0  0  0  0  0
  -26.3888  -13.0688   22.0464 N   0  0  0  0  0  0  0  0  0  0  0  0
  -24.1575  -30.1501   22.4704 N   0  0  0  0  0  0  0  0  0  0  0  0
  -26.7507  -16.3349   23.9918 N   0  0  0  0  0  0  0  0  0  0  0  0
  -27.7922  -13.6692   20.2352 N   0  0  0  0  0  0  0  0  0  0  0  0
  -25.2473  -10.3527   18.5263 N   0  0  0  0  0  0  0  0  0  0  0  0
  -27.4290  -17.9177   22.3803 N   0  0  0  0  0  0  0  0  0  0  0  0
  -27.3197  -23.0411   20.3028 N   0  0  0  0  0  0  0  0  0  0  0  0
  -27.1934  -31.5430   23.7248 N   0  0  0  0  0  0  0  0  0  0  0  0
  -20.8022  -30.3270   22.8818 N   0  0  0  0  0  0  0  0  0  0  0  0
  -18.8393  -30.0245   19.8613 N   0  3  0  0  0  0  0  0  0  0  0  0
  -29.2884  -16.0653   18.8155 O   0  5  0  0  0  0  0  0  0  0  0  0
  -26.9442  -11.8243   18.0640 O   0  0  0  0  0  0  0  0  0  0  0  0
  -26.3419  -29.3758   23.7514 O   0  0  0  0  0  0  0  0  0  0  0  0
  -30.9727  -17.5407   19.2852 O   0  0  0  0  0  0  0  0  0  0  0  0
  -23.0887  -31.9190   23.5498 O   0  0  0  0  0  0  0  0  0  0  0  0
  -20.5346  -28.4862   21.4972 O   0  0  0  0  0  0  0  0  0  0  0  0
  -27.7860  -18.2973   24.6408 O   0  0  0  0  0  0  0  0  0  0  0  0
  -21.2533   -7.5484   21.2131 O   0  0  0  0  0  0  0  0  0  0  0  0
  -26.0873  -25.3266   19.1443 O   0  0  0  0  0  0  0  0  0  1  0  0
  -22.5486   -2.7064   18.9149 F   0  0  0  0  0  0  0  0  0  0  0  0
  -21.1556   -5.2092   22.6833 F   0  0  0  0  0  0  0  0  0  0  0  0
  1  2  1  0  0  0  0
  1  5  2  0  0  0  0
  2  6  2  0  0  0  0
  3  8  2  0  0  0  0
  3 17  1  0  0  0  0
  4  9  1  0  0  0  0
  4 17  2  0  0  0  0
  5 19  1  0  0  0  0
  6 21  1  0  0  0  0
  7 10  2  0  0  0  0
  7 20  1  0  0  0  0
  8 25  1  0  0  0  0
  9 25  2  0  0  0  0
 10 26  1  0  0  0  0
 11 12  2  0  0  0  0
 11 27  1  0  0  0  0
 12 28  1  0  0  0  0
 13 22  1  0  0  0  0
 13 26  2  0  0  0  0
 14 23  2  0  0  0  0
 14 31  1  0  0  0  0
 15 28  2  0  0  0  0
 15 29  1  0  0  0  0
 16 24  2  0  0  0  0
 16 67  1  0  0  0  0
 17 30  1  0  0  0  0
 18 30  1  0  0  0  0
 18 32  2  0  0  0  0
 18 33  1  0  0  0  0
 19 21  2  0  0  0  0
 19 39  1  0  0  0  0
 20 22  2  0  0  0  0
 20 40  1  0  0  0  0
 21 51  1  0  0  0  0
 22 41  1  0  0  0  0
 23 24  1  0  0  0  0
 23 50  1  0  0  0  0
 24 74  1  0  0  0  0
 25 86  1  0  0  0  0
 26 87  1  0  0  0  0
 27 29  2  0  0  0  0
 27 86  1  0  0  0  0
 28 88  1  0  0  0  0
 29 89  1  0  0  0  0
 30 68  2  0  0  0  0
 31 67  2  0  0  0  0
 31 75  1  0  0  0  0
 32 69  1  0  0  0  0
 32 72  1  0  0  0  0
 33 73  1  0  0  0  0
 33 80  2  0  0  0  0
 34 52  1  0  0  0  0
 34 76  1  0  0  0  0
 34 81  2  0  0  0  0
 35 53  1  0  0  0  0
 35 79  1  0  0  0  0
 35 82  2  0  0  0  0
 36 64  1  0  0  0  0
 36 70  1  0  0  0  0
 36 83  2  0  0  0  0
 37 65  1  0  0  0  0
 37 77  1  0  0  0  0
 37 84  2  0  0  0  0
 38 71  1  0  0  0  0
 38 74  1  0  0  0  0
 38 85  2  0  0  0  0
 39 42  1  0  0  0  0
 40 52  1  0  0  0  0
 41 70  1  0  0  0  0
 42 44  1  0  0  0  0
 43 45  1  0  0  0  0
 43 48  1  0  0  0  0
 44 51  1  0  0  0  0
 45 55  1  0  0  0  0
 46 50  1  0  0  0  0
 46 54  1  0  0  0  0
 47 53  1  0  0  0  0
 47 54  1  0  0  0  0
 48 71  1  0  0  0  0
 49 55  1  0  0  0  0
 49 71  1  0  0  0  0
 50 53  1  0  0  0  0
 51 76  1  0  0  0  0
 52 70  1  0  0  0  0
 54 56  1  0  0  0  0
 55 69  1  0  0  0  0
 57 65  1  0  0  0  0
 58 66  1  0  0  0  0
 59 66  1  0  0  0  0
 60 66  1  0  0  0  0
 61 78  1  0  0  0  0
 62 63  1  0  0  0  0
 62 75  1  0  0  0  0
 63 87  1  0  0  0  0
 64 66  1  0  0  0  0
 64 77  1  0  0  0  0
 65 78  1  0  0  0  0
 68 69  1  0  0  0  0
M  CHG  2  78   1  79  -1
M  ISO  4  38 100  63 101  74 100  87 101
M  END
> <Batch ID>
0142

> <Smiles>
CNC(C)C(=O)NC(C(=O)N1Cc2cc([101O:1][101CH2:1]CNc3cc(C4CC(C)CC4C(=O)O)c([100NH:0][100C:0](=O)N4CCCC(n5nc(-c6ccc(Oc7ccc(F)cc7F)cc6)c(C(N)=O)c5N)C4)cn3)ccc2CC1C(=O)NC1CCCc2ccccc21)C(C)(C)C

> <Shape>
0.250

> <Color>
0.084

> <Negative vol penalty>
0.000

$$$$

  -OEChem-04052321183D

 88 98  0     1  0  0  0  0  0999 V2000
  -20.7637  -36.3870   17.7956 C   0  0  0  0  0  0  0  0  0  0  0  0
  -21.2124  -35.1702   17.2920 C   0  0  0  0  0  0  0  0  0  0  0  0
  -32.1655  -12.8711   18.5681 C   0  0  0  0  0  0  0  0  0  0  0  0
  -32.1460  -11.7195   20.6919 C   0  0  0  0  0  0  0  0  0  0  0  0
  -21.4301  -36.9865   18.8635 C   0  0  0  0  0  0  0  0  0  0  0  0
  -22.3285  -34.5528   17.8555 C   0  0  0  0  0  0  0  0  0  0  0  0
  -25.0138  -28.0560   19.2329 C   0  0  0  0  0  0  0  0  0  0  0  0
  -27.4927  -23.2293   20.1669 C   0  0  0  0  0  0  0  0  0  0  0  0
  -33.5489  -12.7090   18.4929 C   0  0  0  0  0  0  0  0  0  0  0  0
  -33.5293  -11.5573   20.6167 C   0  0  0  0  0  0  0  0  0  0  0  0
  -26.1715  -27.3048   19.0345 C   0  0  0  0  0  0  0  0  0  0  0  0
  -27.6471  -24.5961   20.3981 C   0  0  0  0  0  0  0  0  0  0  0  0
  -36.3017  -14.1595   19.8129 C   0  0  0  0  0  0  0  0  0  0  0  0
  -37.0626  -15.2622   19.4249 C   0  0  0  0  0  0  0  0  0  0  0  0
  -27.1957  -28.3944   20.9274 C   0  0  0  0  0  0  0  0  0  0  0  0
  -37.8943  -14.0204   17.5267 C   0  0  0  0  0  0  0  0  0  0  0  0
  -31.4641  -12.3764   19.6677 C   0  0  0  0  0  0  0  0  0  0  0  0
  -29.0482  -11.6654   19.2608 C   0  0  0  0  0  0  0  0  0  0  0  0
  -22.5492  -36.3714   19.4466 C   0  0  0  0  0  0  0  0  0  0  0  0
  -24.9423  -28.9914   20.2752 C   0  0  0  0  0  0  0  0  0  0  0  0
  -23.0113  -35.1453   18.9313 C   0  0  0  0  0  0  0  0  0  0  0  0
  -27.9634  -22.6650   18.9813 C   0  0  0  0  0  0  0  0  0  0  0  0
  -26.0351  -29.1543   21.1385 C   0  0  0  0  0  0  0  0  0  0  0  0
  -28.7430  -24.8345   18.2584 C   0  0  0  0  0  0  0  0  0  0  0  0
  -28.5887  -23.4676   18.0271 C   0  0  0  0  0  0  0  0  0  0  0  0
  -34.2308  -12.0520   19.5172 C   0  0  0  0  0  0  0  0  0  0  0  0
  -27.2637  -27.4760   19.8800 C   0  0  0  0  0  0  0  0  0  0  0  0
  -28.2723  -25.3987   19.4439 C   0  0  0  0  0  0  0  0  0  1  0  0
  -36.3372  -12.9871   19.0579 C   0  0  0  0  0  0  0  0  0  0  0  0
  -37.8589  -15.1927   18.2817 C   0  0  0  0  0  0  0  0  0  0  0  0
  -37.1335  -12.9176   17.9148 C   0  0  0  0  0  0  0  0  0  0  0  0
  -30.0351  -12.5441   19.7462 C   0  0  0  0  0  0  0  0  0  0  0  0
  -27.8592  -12.2740   19.5809 C   0  0  0  0  0  0  0  0  0  0  0  0
  -29.1931  -10.4111   18.5815 C   0  0  0  0  0  0  0  0  0  0  0  0
  -24.5452  -32.1409   20.4392 C   0  0  0  0  0  0  0  0  0  0  0  0
  -24.4227  -31.5674   23.6296 C   0  0  0  0  0  0  0  0  0  0  0  0
  -25.2495  -29.5320   26.2412 C   0  0  0  0  0  0  0  0  0  0  0  0
  -26.1899  -17.8245   20.5033 C   0  0  0  0  0  0  0  0  0  0  0  0
  -23.2652  -37.0808   20.5685 C   0  0  0  0  0  0  0  0  0  0  0  0
  -23.6767  -29.7747   20.4922 C   0  0  0  0  0  0  0  0  0  0  0  0
  -26.0016  -30.1309   22.2846 C   0  0  0  0  0  0  0  0  0  0  0  0
  -24.2147  -36.1781   21.3521 C   0  0  0  0  0  0  0  0  0  0  0  0
  -31.0385  -27.0915   16.6496 C   0  0  0  0  0  0  0  0  0  0  0  0
  -25.8990  -15.2358   22.7754 C   0  0  0  0  0  0  0  0  0  0  0  0
  -29.7979  -27.2259   17.5530 C   0  0  0  0  0  0  0  0  0  0  0  0
  -30.9802  -25.5771   16.9277 C   0  0  0  0  0  0  0  0  0  0  0  0
  -25.0722  -35.3507   20.3998 C   0  0  0  0  0  0  0  0  0  0  0  0
  -26.8267  -14.1567   22.2174 C   0  0  0  0  0  0  0  0  0  0  0  0
  -28.5376  -20.3375   19.8028 C   0  0  0  0  0  0  0  0  0  0  0  0
  -26.2978  -20.7747   18.7066 C   0  0  0  0  0  0  0  0  0  0  0  0
  -26.5264  -16.6183   22.6394 C   0  0  0  0  0  0  0  0  0  0  0  0
  -28.3251  -18.8363   19.5878 C   0  0  0  0  0  0  0  0  0  0  0  0
  -26.1505  -19.2708   18.4945 C   0  0  0  0  0  0  0  0  0  0  0  0
  -27.8360  -15.9025   20.6669 C   0  0  0  0  0  0  0  0  0  0  0  0
  -27.7833  -21.1758   18.7550 C   0  0  0  0  0  0  0  0  0  0  0  0
  -29.4521  -25.7525   17.1800 C   0  0  0  0  0  0  0  0  0  0  0  0
  -24.2035  -34.4323   19.5318 C   0  0  1  0  0  0  0  0  0  0  0  0
  -23.9003  -31.0679   21.2701 C   0  0  1  0  0  0  0  0  0  0  0  0
  -27.2466  -14.4813   20.7729 C   0  0  1  0  0  0  0  0  0  0  0  0
  -30.4034  -22.1076   16.9576 C   0  0  0  0  0  0  0  0  0  0  0  0
  -25.0444  -29.3460   28.7353 C   0  0  0  0  0  0  0  0  0  0  0  0
  -26.6152  -33.6628   23.9637 C   0  0  0  0  0  0  0  0  0  0  0  0
  -27.0244  -32.7667   26.2654 C   0  0  0  0  0  0  0  0  0  0  0  0
  -24.8089  -33.7586   25.6906 C   0  0  0  0  0  0  0  0  0  0  0  0
  -23.7143  -27.0095   26.0432 C   0  0  0  0  0  0  0  0  0  0  0  0
  -29.0945  -22.8638   16.7560 C   0  0  0  0  0  0  0  0  0  0  0  0
  -25.4393  -31.5007   24.7436 C   0  0  1  0  0  0  0  0  0  0  0  0
  -24.4253  -28.9869   27.3935 C   0  0  2  0  0  0  0  0  0  0  0  0
  -25.9736  -32.9051   25.1432 C   0  0  0  0  0  0  0  0  0  0  0  0
  -29.5181  -13.6284   20.3300 N   0  0  0  0  0  0  0  0  0  0  0  0
  -28.1933  -13.4352   20.2135 N   0  0  0  0  0  0  0  0  0  0  0  0
  -24.7440  -30.8779   22.4518 N   0  0  0  0  0  0  0  0  0  0  0  0
  -26.9145  -16.8871   21.2549 N   0  0  0  0  0  0  0  0  0  0  0  0
  -26.8920  -18.5211   19.5082 N   0  0  0  0  0  0  0  0  0  0  0  0
  -26.5710  -11.9239   19.3799 N   0  0  0  0  0  0  0  0  0  0  0  0
  -30.4864   -9.9317   18.3326 N   0  0  0  0  0  0  0  0  0  0  0  0
  -23.7736  -33.2776   20.2909 N   0  0  0  0  0  0  0  0  0  0  0  0
  -24.8020  -30.7713   25.8346 N   0  0  0  0  0  0  0  0  0  0  0  0
  -24.3271  -27.5025   27.3035 N   0  3  0  0  0  0  0  0  0  0  0  0
  -28.2052   -9.7435   18.1918 O   0  0  0  0  0  0  0  0  0  0  0  0
  -25.6609  -31.9521   19.9688 O   0  0  0  0  0  0  0  0  0  0  0  0
  -23.3787  -32.2017   23.8008 O   0  0  0  0  0  0  0  0  0  0  0  0
  -26.1979  -28.9214   25.7532 O   0  0  0  0  0  0  0  0  0  0  0  0
  -24.9866  -18.0272   20.7082 O   0  0  0  0  0  0  0  0  0  0  0  0
  -35.5806  -11.8934   19.4440 O   0  0  0  0  0  0  0  0  0  0  0  0
  -28.4145  -26.7320   19.6848 O   0  0  0  0  0  0  0  0  0  1  0  0
  -38.5883  -16.2523   17.9083 F   0  0  0  0  0  0  0  0  0  0  0  0
  -37.1707  -11.7944   17.1847 F   0  0  0  0  0  0  0  0  0  0  0  0
  1  2  1  0  0  0  0
  1  5  2  0  0  0  0
  2  6  2  0  0  0  0
  3  9  2  0  0  0  0
  3 17  1  0  0  0  0
  4 10  1  0  0  0  0
  4 17  2  0  0  0  0
  5 19  1  0  0  0  0
  6 21  1  0  0  0  0
  7 11  2  0  0  0  0
  7 20  1  0  0  0  0
  8 12  1  0  0  0  0
  8 22  2  0  0  0  0
  9 26  1  0  0  0  0
 10 26  2  0  0  0  0
 11 27  1  0  0  0  0
 12 28  2  0  0  0  0
 13 14  2  0  0  0  0
 13 29  1  0  0  0  0
 14 30  1  0  0  0  0
 15 23  1  0  0  0  0
 15 27  2  0  0  0  0
 16 30  2  0  0  0  0
 16 31  1  0  0  0  0
 17 32  1  0  0  0  0
 18 32  1  0  0  0  0
 18 33  2  0  0  0  0
 18 34  1  0  0  0  0
 19 21  2  0  0  0  0
 19 39  1  0  0  0  0
 20 23  2  0  0  0  0
 20 40  1  0  0  0  0
 21 57  1  0  0  0  0
 22 25  1  0  0  0  0
 22 55  1  0  0  0  0
 23 41  1  0  0  0  0
 24 25  2  0  0  0  0
 24 28  1  0  0  0  0
 24 56  1  0  0  0  0
 25 66  1  0  0  0  0
 26 85  1  0  0  0  0
 27 86  1  0  0  0  0
 28 86  1  0  0  0  0
 29 31  2  0  0  0  0
 29 85  1  0  0  0  0
 30 87  1  0  0  0  0
 31 88  1  0  0  0  0
 32 70  2  0  0  0  0
 33 71  1  0  0  0  0
 33 75  1  0  0  0  0
 34 76  1  0  0  0  0
 34 80  2  0  0  0  0
 35 58  1  0  0  0  0
 35 77  1  0  0  0  0
 35 81  2  0  0  0  0
 36 67  1  0  0  0  0
 36 72  1  0  0  0  0
 36 82  2  0  0  0  0
 37 68  1  0  0  0  0
 37 78  1  0  0  0  0
 37 83  2  0  0  0  0
 38 73  1  0  0  0  0
 38 74  1  0  0  0  0
 38 84  2  0  0  0  0
 39 42  1  0  0  0  0
 40 58  1  0  0  0  0
 41 72  1  0  0  0  0
 42 47  1  0  0  0  0
 43 45  1  0  0  0  0
 43 46  1  0  0  0  0
 44 48  1  0  0  0  0
 44 51  1  0  0  0  0
 45 56  1  0  0  0  0
 46 56  1  0  0  0  0
 47 57  1  0  0  0  0
 48 59  1  0  0  0  0
 49 52  1  0  0  0  0
 49 55  1  0  0  0  0
 50 53  1  0  0  0  0
 50 55  1  0  0  0  0
 51 73  1  0  0  0  0
 52 74  1  0  0  0  0
 53 74  1  0  0  0  0
 54 59  1  0  0  0  0
 54 73  1  0  0  0  0
 57 77  1  0  0  0  0
 58 72  1  0  0  0  0
 59 71  1  0  0  0  0
 60 66  1  0  0  0  0
 61 68  1  0  0  0  0
 62 69  1  0  0  0  0
 63 69  1  0  0  0  0
 64 69  1  0  0  0  0
 65 79  1  0  0  0  0
 67 69  1  0  0  0  0
 67 78  1  0  0  0  0
 68 79  1  0  0  0  0
 70 71  1  0  0  0  0
M  CHG  1  79   1
M  ISO  4  28 101  38 100  74 100  86 101
M  END
> <Batch ID>
0142

> <Smiles>
CCc1c(C2CC[100N:0]([100C:0](=O)N3CCCC(n4nc(-c5ccc(Oc6ccc(F)cc6F)cc5)c(C(N)=O)c4N)C3)CC2)cc[101c:1]([101O:1]c2ccc3c(c2)CN(C(=O)C(NC(=O)C(C)NC)C(C)(C)C)C(C(=O)NC2CCCc4ccccc42)C3)c1C1CCC1

> <Shape>
0.231

> <Color>
0.095

> <Negative vol penalty>
0.000

$$$$

  -OEChem-04052321183D

 84 92  0     1  0  0  0  0  0999 V2000
  -24.8420  -37.7747   21.3636 C   0  0  0  0  0  0  0  0  0  0  0  0
  -25.6900  -36.7335   20.9998 C   0  0  0  0  0  0  0  0  0  0  0  0
  -24.0886  -10.4437   23.5221 C   0  0  0  0  0  0  0  0  0  0  0  0
  -22.8467   -9.6357   21.6137 C   0  0  0  0  0  0  0  0  0  0  0  0
  -23.8815  -37.5762   22.3544 C   0  0  0  0  0  0  0  0  0  0  0  0
  -25.5785  -35.4934   21.6275 C   0  0  0  0  0  0  0  0  0  0  0  0
  -26.4850  -29.9911   19.0959 C   0  0  0  0  0  0  0  0  0  0  0  0
  -23.4605   -9.4972   24.3316 C   0  0  0  0  0  0  0  0  0  0  0  0
  -22.2186   -8.6891   22.4232 C   0  0  0  0  0  0  0  0  0  0  0  0
  -27.5766  -29.1239   19.1025 C   0  0  0  0  0  0  0  0  0  0  0  0
  -22.9636   -5.6830   23.7755 C   0  0  0  0  0  0  0  0  0  0  0  0
  -22.8621   -4.3802   23.2876 C   0  0  0  0  0  0  0  0  0  0  0  0
  -26.5960  -27.9133   20.9443 C   0  0  0  0  0  0  0  0  0  0  0  0
  -27.9077  -21.4193   18.1988 C   0  0  0  0  0  0  0  0  0  0  0  0
  -20.4539   -4.5165   23.4249 C   0  0  0  0  0  0  0  0  0  0  0  0
  -23.7816  -10.5129   22.1631 C   0  0  0  0  0  0  0  0  0  0  0  0
  -25.6315  -11.3342   20.6104 C   0  0  0  0  0  0  0  0  0  0  0  0
  -23.7517  -36.3301   22.9878 C   0  0  0  0  0  0  0  0  0  0  0  0
  -25.4441  -29.8323   20.0221 C   0  0  0  0  0  0  0  0  0  0  0  0
  -24.6161  -35.2783   22.6287 C   0  0  0  0  0  0  0  0  0  0  0  0
  -25.4911  -28.7783   20.9457 C   0  0  0  0  0  0  0  0  0  0  0  0
  -28.3817  -22.1858   19.2633 C   0  0  0  0  0  0  0  0  0  0  0  0
  -26.9096  -20.4688   18.4137 C   0  0  0  0  0  0  0  0  0  0  0  0
  -27.8578  -22.0018   20.5429 C   0  0  0  0  0  0  0  0  0  0  0  0
  -26.8598  -21.0514   20.7579 C   0  0  0  0  0  0  0  0  0  0  0  0
  -22.5256   -8.6199   23.7822 C   0  0  0  0  0  0  0  0  0  0  0  0
  -27.6336  -28.0866   20.0287 C   0  0  0  0  0  0  0  0  0  0  0  0
  -21.8103   -6.4025   24.0882 C   0  0  0  0  0  0  0  0  0  0  0  0
  -26.3857  -20.2849   19.6933 C   0  0  0  0  0  0  0  0  0  0  0  0
  -21.6073   -3.7970   23.1122 C   0  0  0  0  0  0  0  0  0  0  0  0
  -20.5554   -5.8192   23.9128 C   0  0  0  0  0  0  0  0  0  0  0  0
  -24.4297  -11.4908   21.3265 C   0  0  0  0  0  0  0  0  0  0  0  0
  -25.8148  -12.5403   19.9794 C   0  0  0  0  0  0  0  0  0  0  0  0
  -26.5042  -10.2000   20.5233 C   0  0  0  0  0  0  0  0  0  0  0  0
  -24.2272  -31.6140   22.3562 C   0  0  0  0  0  0  0  0  0  0  0  0
  -22.0234  -29.2377   22.4924 C   0  0  0  0  0  0  0  0  0  0  0  0
  -21.2381  -25.9754   21.8699 C   0  0  0  0  0  0  0  0  0  0  0  0
  -25.8699  -18.0599   20.2336 C   0  0  0  0  0  0  0  0  0  0  0  0
  -22.7298  -36.1771   24.0864 C   0  0  0  0  0  0  0  0  0  0  0  0
  -24.2607  -30.7600   19.9844 C   0  0  0  0  0  0  0  0  0  0  0  0
  -24.3896  -28.5524   21.9478 C   0  0  0  0  0  0  0  0  0  0  0  0
  -22.4280  -34.7229   24.4393 C   0  0  0  0  0  0  0  0  0  0  0  0
  -22.7027  -16.4749   19.4020 C   0  0  0  0  0  0  0  0  0  0  0  0
  -23.7225  -33.9292   24.5849 C   0  0  0  0  0  0  0  0  0  0  0  0
  -22.9639  -15.0255   19.8109 C   0  0  0  0  0  0  0  0  0  0  0  0
  -23.4155  -17.4568   20.3276 C   0  0  0  0  0  0  0  0  0  0  0  0
  -25.1525  -15.7636   20.8489 C   0  0  0  0  0  0  0  0  0  0  0  0
  -24.5097  -33.9113   23.2691 C   0  0  1  0  0  0  0  0  0  0  0  0
  -23.5039  -30.8170   21.3078 C   0  0  1  0  0  0  0  0  0  0  0  0
  -24.4734  -14.7457   19.9177 C   0  0  1  0  0  0  0  0  0  0  0  0
  -26.4149  -19.6584   17.2614 C   0  0  0  0  0  0  0  0  0  0  0  0
  -28.3667  -22.8255   21.6832 C   0  0  0  0  0  0  0  0  0  0  0  0
  -26.2935  -20.8498   22.1274 C   0  0  0  0  0  0  0  0  0  0  0  0
  -19.3743  -24.3146   22.1252 C   0  0  0  0  0  0  0  0  0  0  0  0
  -22.6424  -29.0045   25.4711 C   0  0  0  0  0  0  0  0  0  0  0  0
  -21.5034  -26.7749   25.4621 C   0  0  0  0  0  0  0  0  0  0  0  0
  -20.2151  -28.8340   24.8936 C   0  0  0  0  0  0  0  0  0  0  0  0
  -21.0615  -25.5496   18.9465 C   0  0  0  0  0  0  0  0  0  0  0  0
  -29.4556  -23.2013   19.0051 C   0  0  0  0  0  0  0  0  0  0  0  0
  -29.9964  -25.6317   18.8073 C   0  0  0  0  0  0  0  0  0  0  0  0
  -29.3518  -27.0037   18.7912 C   0  0  0  0  0  0  0  0  0  1  0  0
  -21.9034  -27.9325   23.2416 C   0  0  1  0  0  0  0  0  0  0  0  0
  -20.0280  -25.3387   21.2106 C   0  0  2  0  0  0  0  0  0  0  0  0
  -21.5879  -28.1416   24.7496 C   0  0  0  0  0  0  0  0  0  0  0  0
  -23.8878  -12.7010   21.1661 N   0  0  0  0  0  0  0  0  0  0  0  0
  -24.7531  -13.3159   20.3420 N   0  0  0  0  0  0  0  0  0  0  0  0
  -23.2568  -29.4899   21.8752 N   0  0  0  0  0  0  0  0  0  0  0  0
  -24.8415  -17.1345   20.4397 N   0  0  0  0  0  0  0  0  0  0  0  0
  -26.7790  -13.0026   19.1553 N   0  0  0  0  0  0  0  0  0  0  0  0
  -26.1662   -9.0408   21.2350 N   0  0  0  0  0  0  0  0  0  0  0  0
  -23.9269  -32.9628   22.3444 N   0  0  0  0  0  0  0  0  0  0  0  0
  -20.9073  -27.1417   22.5268 N   0  0  0  0  0  0  0  0  0  0  0  0
  -20.4261  -24.6548   19.9478 N   0  3  0  0  0  0  0  0  0  0  0  0
  -28.9470  -24.5995   19.0009 N   0  3  0  0  0  0  0  0  0  0  0  0
  -27.5610  -10.2195   19.8479 O   0  0  0  0  0  0  0  0  0  0  0  0
  -24.9994  -31.0470   23.1204 O   0  0  0  0  0  0  0  0  0  0  0  0
  -21.0560  -30.0019   22.4503 O   0  0  0  0  0  0  0  0  0  0  0  0
  -22.3636  -25.4850   21.8115 O   0  0  0  0  0  0  0  0  0  0  0  0
  -27.0681  -17.7951   20.3263 O   0  0  0  0  0  0  0  0  0  0  0  0
  -21.9127   -7.6961   24.5718 O   0  0  0  0  0  0  0  0  0  0  0  0
  -25.3864  -19.3301   19.9074 O   0  0  0  0  0  0  0  0  0  0  0  0
  -28.6983  -27.2391   20.0378 O   0  0  0  0  0  0  0  0  0  1  0  0
  -21.5099   -2.5465   22.6422 F   0  0  0  0  0  0  0  0  0  0  0  0
  -19.4437   -6.5059   24.2104 F   0  0  0  0  0  0  0  0  0  0  0  0
  1  2  1  0  0  0  0
  1  5  2  0  0  0  0
  2  6  2  0  0  0  0
  3  8  2  0  0  0  0
  3 16  1  0  0  0  0
  4  9  1  0  0  0  0
  4 16  2  0  0  0  0
  5 18  1  0  0  0  0
  6 20  1  0  0  0  0
  7 10  2  0  0  0  0
  7 19  1  0  0  0  0
  8 26  1  0  0  0  0
  9 26  2  0  0  0  0
 10 27  1  0  0  0  0
 11 12  2  0  0  0  0
 11 28  1  0  0  0  0
 12 30  1  0  0  0  0
 13 21  1  0  0  0  0
 13 27  2  0  0  0  0
 14 22  1  0  0  0  0
 14 23  2  0  0  0  0
 15 30  2  0  0  0  0
 15 31  1  0  0  0  0
 16 32  1  0  0  0  0
 17 32  1  0  0  0  0
 17 33  2  0  0  0  0
 17 34  1  0  0  0  0
 18 20  2  0  0  0  0
 18 39  1  0  0  0  0
 19 21  2  0  0  0  0
 19 40  1  0  0  0  0
 20 48  1  0  0  0  0
 21 41  1  0  0  0  0
 22 24  2  0  0  0  0
 22 59  1  0  0  0  0
 23 29  1  0  0  0  0
 23 51  1  0  0  0  0
 24 25  1  0  0  0  0
 24 52  1  0  0  0  0
 25 29  2  0  0  0  0
 25 53  1  0  0  0  0
 26 80  1  0  0  0  0
 27 82  1  0  0  0  0
 28 31  2  0  0  0  0
 28 80  1  0  0  0  0
 29 81  1  0  0  0  0
 30 83  1  0  0  0  0
 31 84  1  0  0  0  0
 32 65  2  0  0  0  0
 33 66  1  0  0  0  0
 33 69  1  0  0  0  0
 34 70  1  0  0  0  0
 34 75  2  0  0  0  0
 35 49  1  0  0  0  0
 35 71  1  0  0  0  0
 35 76  2  0  0  0  0
 36 62  1  0  0  0  0
 36 67  1  0  0  0  0
 36 77  2  0  0  0  0
 37 63  1  0  0  0  0
 37 72  1  0  0  0  0
 37 78  2  0  0  0  0
 38 68  1  0  0  0  0
 38 79  2  0  0  0  0
 38 81  1  0  0  0  0
 39 42  1  0  0  0  0
 40 49  1  0  0  0  0
 41 67  1  0  0  0  0
 42 44  1  0  0  0  0
 43 45  1  0  0  0  0
 43 46  1  0  0  0  0
 44 48  1  0  0  0  0
 45 50  1  0  0  0  0
 46 68  1  0  0  0  0
 47 50  1  0  0  0  0
 47 68  1  0  0  0  0
 48 71  1  0  0  0  0
 49 67  1  0  0  0  0
 50 66  1  0  0  0  0
 54 63  1  0  0  0  0
 55 64  1  0  0  0  0
 56 64  1  0  0  0  0
 57 64  1  0  0  0  0
 58 73  1  0  0  0  0
 59 74  1  0  0  0  0
 60 61  1  0  0  0  0
 60 74  1  0  0  0  0
 61 82  1  0  0  0  0
 62 64  1  0  0  0  0
 62 72  1  0  0  0  0
 63 73  1  0  0  0  0
 65 66  1  0  0  0  0
M  CHG  2  73   1  74   1
M  ISO  4  38 100  61 101  81 100  82 101
M  END
> <Batch ID>
0142

> <Smiles>
CNC(C)C(=O)NC(C(=O)N1Cc2cc([101O:1][101CH2:1]CNCc3cc(C)c([100O:0][100C:0](=O)N4CCCC(n5nc(-c6ccc(Oc7ccc(F)cc7F)cc6)c(C(N)=O)c5N)C4)c(C)c3C)ccc2CC1C(=O)NC1CCCc2ccccc21)C(C)(C)C

> <Shape>
0.291

> <Color>
0.074

> <Negative vol penalty>
0.000

$$$$

  -OEChem-04052321183D

 85 93  0     1  0  0  0  0  0999 V2000
  -22.7740  -31.4701   16.7200 C   0  0  0  0  0  0  0  0  0  0  0  0
  -23.3585  -30.3497   17.3019 C   0  0  0  0  0  0  0  0  0  0  0  0
  -23.0834   -9.8240   19.8817 C   0  0  0  0  0  0  0  0  0  0  0  0
  -23.9174   -9.7046   22.1460 C   0  0  0  0  0  0  0  0  0  0  0  0
  -22.3120  -32.5110   17.5243 C   0  0  0  0  0  0  0  0  0  0  0  0
  -23.4822  -30.2702   18.6886 C   0  0  0  0  0  0  0  0  0  0  0  0
  -22.1460  -25.7343   20.5012 C   0  0  0  0  0  0  0  0  0  0  0  0
  -22.3613   -8.6482   20.0856 C   0  0  0  0  0  0  0  0  0  0  0  0
  -23.1953   -8.5288   22.3500 C   0  0  0  0  0  0  0  0  0  0  0  0
  -23.0687  -24.6979   20.3666 C   0  0  0  0  0  0  0  0  0  0  0  0
  -19.9979   -7.6533   23.0060 C   0  0  0  0  0  0  0  0  0  0  0  0
  -19.2799   -7.5336   24.1959 C   0  0  0  0  0  0  0  0  0  0  0  0
  -23.7408  -25.0061   22.6628 C   0  0  0  0  0  0  0  0  0  0  0  0
  -27.8554  -22.1686   21.9124 C   0  0  0  0  0  0  0  0  0  0  0  0
  -26.0300  -20.5882   21.9953 C   0  0  0  0  0  0  0  0  0  0  0  0
  -20.5668   -5.5726   24.7750 C   0  0  0  0  0  0  0  0  0  0  0  0
  -23.8615  -10.3522   20.9119 C   0  0  0  0  0  0  0  0  0  0  0  0
  -24.1702  -12.8844   20.9326 C   0  0  0  0  0  0  0  0  0  0  0  0
  -22.4214  -32.4399   18.9220 C   0  0  0  0  0  0  0  0  0  0  0  0
  -22.0212  -26.4229   21.7164 C   0  0  0  0  0  0  0  0  0  0  0  0
  -23.0225  -31.3117   19.5122 C   0  0  0  0  0  0  0  0  0  0  0  0
  -22.8140  -26.0492   22.8109 C   0  0  0  0  0  0  0  0  0  0  0  0
  -26.5030  -21.8948   22.1162 C   0  0  0  0  0  0  0  0  0  0  0  0
  -28.7349  -21.1357   21.5876 C   0  0  0  0  0  0  0  0  0  0  0  0
  -26.9094  -19.5553   21.6705 C   0  0  0  0  0  0  0  0  0  0  0  0
  -28.2619  -19.8291   21.4667 C   0  0  0  0  0  0  0  0  0  0  0  0
  -22.4173   -8.0006   21.3198 C   0  0  0  0  0  0  0  0  0  0  0  0
  -23.8683  -24.3355   21.4466 C   0  0  0  0  0  0  0  0  0  0  0  0
  -21.0002   -6.7326   22.7006 C   0  0  0  0  0  0  0  0  0  0  0  0
  -19.5644   -6.4932   25.0804 C   0  0  0  0  0  0  0  0  0  0  0  0
  -21.2847   -5.6923   23.5851 C   0  0  0  0  0  0  0  0  0  0  0  0
  -24.6080  -11.5665   20.7017 C   0  0  0  0  0  0  0  0  0  0  0  0
  -25.2413  -13.6687   20.5804 C   0  0  0  0  0  0  0  0  0  0  0  0
  -22.9082  -13.3573   21.4219 C   0  0  0  0  0  0  0  0  0  0  0  0
  -22.4419  -29.4347   22.6415 C   0  0  0  0  0  0  0  0  0  0  0  0
  -21.2390  -28.3318   25.4449 C   0  0  0  0  0  0  0  0  0  0  0  0
  -20.6913  -25.6765   27.5177 C   0  0  0  0  0  0  0  0  0  0  0  0
  -30.7083  -14.7593   20.6383 C   0  0  0  0  0  0  0  0  0  0  0  0
  -21.9504  -33.6109   19.7476 C   0  0  0  0  0  0  0  0  0  0  0  0
  -21.0024  -27.5209   21.8533 C   0  0  0  0  0  0  0  0  0  0  0  0
  -22.7045  -26.7434   24.1431 C   0  0  0  0  0  0  0  0  0  0  0  0
  -21.7796  -33.2826   21.2286 C   0  0  0  0  0  0  0  0  0  0  0  0
  -29.5312  -12.4943   18.1693 C   0  0  0  0  0  0  0  0  0  0  0  0
  -22.9905  -32.5141   21.7481 C   0  0  0  0  0  0  0  0  0  0  0  0
  -28.1109  -12.1573   18.6267 C   0  0  0  0  0  0  0  0  0  0  0  0
  -30.4818  -12.6559   19.3536 C   0  0  0  0  0  0  0  0  0  0  0  0
  -28.6173  -13.2777   20.8378 C   0  0  0  0  0  0  0  0  0  0  0  0
  -23.1522  -31.1775   21.0140 C   0  0  1  0  0  0  0  0  0  0  0  0
  -21.3212  -28.4942   22.9840 C   0  0  1  0  0  0  0  0  0  0  0  0
  -27.6083  -13.1606   19.6824 C   0  0  2  0  0  0  0  0  0  0  0  0
  -30.1787  -21.4553   21.3755 C   0  0  0  0  0  0  0  0  0  0  0  0
  -26.3778  -18.1646   21.5471 C   0  0  0  0  0  0  0  0  0  0  0  0
  -19.7200  -25.0928   29.7567 C   0  0  0  0  0  0  0  0  0  0  0  0
  -31.7189  -16.5816   23.1684 C   0  0  0  0  0  0  0  0  0  0  0  0
  -23.7089  -29.4864   26.8147 C   0  0  0  0  0  0  0  0  0  0  0  0
  -23.1703  -28.0813   28.8157 C   0  0  0  0  0  0  0  0  0  0  0  0
  -21.5673  -29.8360   28.0580 C   0  0  0  0  0  0  0  0  0  0  0  0
  -18.6721  -23.8850   26.3042 C   0  0  0  0  0  0  0  0  0  0  0  0
  -25.5569  -23.0059   22.4648 C   0  0  0  0  0  0  0  0  0  1  0  0
  -29.7912  -17.9748   22.3390 C   0  0  0  0  0  0  0  0  0  0  0  0
  -29.2051  -18.7218   21.1189 C   0  0  1  0  0  0  0  0  0  0  0  0
  -21.8272  -27.7227   26.6947 C   0  0  1  0  0  0  0  0  0  0  0  0
  -19.4511  -25.2213   28.2654 C   0  0  2  0  0  0  0  0  0  0  0  0
  -30.8077  -16.8793   21.9815 C   0  0  2  0  0  0  0  0  0  0  0  0
  -22.5721  -28.7696   27.5702 C   0  0  0  0  0  0  0  0  0  0  0  0
  -25.8596  -11.5127   20.2384 N   0  0  0  0  0  0  0  0  0  0  0  0
  -26.2174  -12.8066   20.1753 N   0  0  0  0  0  0  0  0  0  0  0  0
  -21.6981  -27.8148   24.2252 N   0  0  0  0  0  0  0  0  0  0  0  0
  -29.9473  -13.6254   20.3131 N   0  0  0  0  0  0  0  0  0  0  0  0
  -25.4339  -15.0049   20.5806 N   0  0  0  0  0  0  0  0  0  0  0  0
  -21.9183  -12.4162   21.7361 N   0  0  0  0  0  0  0  0  0  0  0  0
  -22.2062  -30.2057   21.5193 N   0  0  0  0  0  0  0  0  0  0  0  0
  -20.7280  -27.0475   27.3761 N   0  0  0  0  0  0  0  0  0  0  0  0
  -30.1320  -15.6388   21.5490 N   0  0  0  0  0  0  0  0  0  0  0  0
  -18.9946  -23.8979   27.7543 N   0  3  0  0  0  0  0  0  0  0  0  0
  -22.6599  -14.5790   21.5604 O   0  0  0  0  0  0  0  0  0  0  0  0
  -23.4454  -29.4600   23.3443 O   0  0  0  0  0  0  0  0  0  0  0  0
  -20.3978  -29.2281   25.5473 O   0  0  0  0  0  0  0  0  0  0  0  0
  -21.5443  -24.8942   27.1040 O   0  0  0  0  0  0  0  0  0  0  0  0
  -31.8209  -14.9832   20.1491 O   0  0  0  0  0  0  0  0  0  0  0  0
  -28.5087  -17.7714   20.3008 O   0  0  0  0  0  0  0  0  0  0  0  0
  -21.7126   -6.8533   21.5192 O   0  0  0  0  0  0  0  0  0  0  0  0
  -24.7702  -23.3246   21.3177 O   0  0  0  0  0  0  0  0  0  1  0  0
  -18.8760   -6.3793   26.2238 F   0  0  0  0  0  0  0  0  0  0  0  0
  -22.2473   -4.8054   23.2977 F   0  0  0  0  0  0  0  0  0  0  0  0
  1  2  1  0  0  0  0
  1  5  2  0  0  0  0
  2  6  2  0  0  0  0
  3  8  2  0  0  0  0
  3 17  1  0  0  0  0
  4  9  1  0  0  0  0
  4 17  2  0  0  0  0
  5 19  1  0  0  0  0
  6 21  1  0  0  0  0
  7 10  2  0  0  0  0
  7 20  1  0  0  0  0
  8 27  1  0  0  0  0
  9 27  2  0  0  0  0
 10 28  1  0  0  0  0
 11 12  2  0  0  0  0
 11 29  1  0  0  0  0
 12 30  1  0  0  0  0
 13 22  1  0  0  0  0
 13 28  2  0  0  0  0
 14 23  1  0  0  0  0
 14 24  2  0  0  0  0
 15 23  2  0  0  0  0
 15 25  1  0  0  0  0
 16 30  2  0  0  0  0
 16 31  1  0  0  0  0
 17 32  1  0  0  0  0
 18 32  1  0  0  0  0
 18 33  2  0  0  0  0
 18 34  1  0  0  0  0
 19 21  2  0  0  0  0
 19 39  1  0  0  0  0
 20 22  2  0  0  0  0
 20 40  1  0  0  0  0
 21 48  1  0  0  0  0
 22 41  1  0  0  0  0
 23 59  1  0  0  0  0
 24 26  1  0  0  0  0
 24 51  1  0  0  0  0
 25 26  2  0  0  0  0
 25 52  1  0  0  0  0
 26 61  1  0  0  0  0
 27 82  1  0  0  0  0
 28 83  1  0  0  0  0
 29 31  2  0  0  0  0
 29 82  1  0  0  0  0
 30 84  1  0  0  0  0
 31 85  1  0  0  0  0
 32 66  2  0  0  0  0
 33 67  1  0  0  0  0
 33 70  1  0  0  0  0
 34 71  1  0  0  0  0
 34 76  2  0  0  0  0
 35 49  1  0  0  0  0
 35 72  1  0  0  0  0
 35 77  2  0  0  0  0
 36 62  1  0  0  0  0
 36 68  1  0  0  0  0
 36 78  2  0  0  0  0
 37 63  1  0  0  0  0
 37 73  1  0  0  0  0
 37 79  2  0  0  0  0
 38 69  1  0  0  0  0
 38 74  1  0  0  0  0
 38 80  2  0  0  0  0
 39 42  1  0  0  0  0
 40 49  1  0  0  0  0
 41 68  1  0  0  0  0
 42 44  1  0  0  0  0
 43 45  1  0  0  0  0
 43 46  1  0  0  0  0
 44 48  1  0  0  0  0
 45 50  1  0  0  0  0
 46 69  1  0  0  0  0
 47 50  1  0  0  0  0
 47 69  1  0  0  0  0
 48 72  1  0  0  0  0
 49 68  1  0  0  0  0
 50 67  1  0  0  0  0
 53 63  1  0  0  0  0
 54 64  1  0  0  0  0
 55 65  1  0  0  0  0
 56 65  1  0  0  0  0
 57 65  1  0  0  0  0
 58 75  1  0  0  0  0
 59 83  1  0  0  0  0
 60 61  1  0  0  0  0
 60 64  1  0  0  0  0
 61 81  1  0  0  0  0
 62 65  1  0  0  0  0
 62 73  1  0  0  0  0
 63 75  1  0  0  0  0
 64 74  1  0  0  0  0
 66 67  1  0  0  0  0
M  CHG  1  75   1
M  ISO  4  38 100  59 101  74 100  83 101
M  END
> <Batch ID>
0142

> <Smiles>
CNC(C)C(=O)NC(C(=O)N1Cc2cc([101O:1][101CH2:1]c3cc(C)c(C(O)CC(C)[100NH:0][100C:0](=O)N4CCCC(n5nc(-c6ccc(Oc7ccc(F)cc7F)cc6)c(C(N)=O)c5N)C4)c(C)c3)ccc2CC1C(=O)NC1CCCc2ccccc21)C(C)(C)C

> <Shape>
0.270

> <Color>
0.207

> <Negative vol penalty>
0.000

$$$$

  -OEChem-04052321183D

 84 93  0     1  0  0  0  0  0999 V2000
  -18.9817  -27.2172   21.5483 C   0  0  0  0  0  0  0  0  0  0  0  0
  -18.8584  -25.8598   21.2698 C   0  0  0  0  0  0  0  0  0  0  0  0
  -27.5689  -23.4055   20.9354 C   0  0  0  0  0  0  0  0  0  0  0  0
  -28.4247  -23.1933   18.6861 C   0  0  0  0  0  0  0  0  0  0  0  0
  -20.2115  -27.7362   21.9510 C   0  0  0  0  0  0  0  0  0  0  0  0
  -19.9653  -25.0207   21.3927 C   0  0  0  0  0  0  0  0  0  0  0  0
  -21.7077  -18.3001   23.1574 C   0  0  0  0  0  0  0  0  0  0  0  0
  -27.7369  -24.7886   20.8689 C   0  0  0  0  0  0  0  0  0  0  0  0
  -28.5928  -24.5764   18.6195 C   0  0  0  0  0  0  0  0  0  0  0  0
  -22.4191  -17.2071   22.6645 C   0  0  0  0  0  0  0  0  0  0  0  0
  -27.6025  -28.4097   21.1594 C   0  0  0  0  0  0  0  0  0  0  0  0
  -26.5621  -29.2126   21.6269 C   0  0  0  0  0  0  0  0  0  0  0  0
  -24.4743  -18.2007   23.4444 C   0  0  0  0  0  0  0  0  0  0  0  0
  -24.7400  -12.7753   21.9641 C   0  0  0  0  0  0  0  0  0  0  0  0
  -25.5008  -14.1503   20.1435 C   0  0  0  0  0  0  0  0  0  0  0  0
  -25.0747  -28.2374   19.9918 C   0  0  0  0  0  0  0  0  0  0  0  0
  -27.9128  -22.6078   19.8440 C   0  0  0  0  0  0  0  0  0  0  0  0
  -26.5974  -20.4425   19.5469 C   0  0  0  0  0  0  0  0  0  0  0  0
  -21.3317  -26.9013   22.0882 C   0  0  0  0  0  0  0  0  0  0  0  0
  -22.3765  -19.3586   23.7888 C   0  0  0  0  0  0  0  0  0  0  0  0
  -21.2116  -25.5292   21.7962 C   0  0  0  0  0  0  0  0  0  0  0  0
  -23.7688  -19.3048   23.9467 C   0  0  0  0  0  0  0  0  0  0  0  0
  -24.6857  -13.9703   21.2554 C   0  0  0  0  0  0  0  0  0  0  0  0
  -28.2488  -25.3740   19.7110 C   0  0  0  0  0  0  0  0  0  0  0  0
  -23.8029  -17.1586   22.8054 C   0  0  0  0  0  0  0  0  0  0  0  0
  -27.3790  -27.5207   20.1081 C   0  0  0  0  0  0  0  0  0  0  0  0
  -25.2982  -29.1264   21.0432 C   0  0  0  0  0  0  0  0  0  0  0  0
  -26.1151  -27.4345   19.5243 C   0  0  0  0  0  0  0  0  0  0  0  0
  -27.7400  -21.1790   19.9124 C   0  0  0  0  0  0  0  0  0  0  0  0
  -25.6194  -11.7994   21.5236 C   0  0  0  0  0  0  0  0  0  0  0  0
  -26.3463  -13.1130   19.7846 C   0  0  0  0  0  0  0  0  0  0  0  0
  -26.9364  -19.1354   19.7983 C   0  0  0  0  0  0  0  0  0  0  0  0
  -25.3417  -20.8989   19.0265 C   0  0  0  0  0  0  0  0  0  0  0  0
  -22.7216  -22.4632   23.2006 C   0  0  0  0  0  0  0  0  0  0  0  0
  -24.2092  -22.4465   26.0832 C   0  0  0  0  0  0  0  0  0  0  0  0
  -25.9018  -20.6761   28.4597 C   0  0  0  0  0  0  0  0  0  0  0  0
  -30.5787  -14.9153   19.5346 C   0  0  0  0  0  0  0  0  0  0  0  0
  -22.6516  -27.5164   22.4807 C   0  0  0  0  0  0  0  0  0  0  0  0
  -21.5918  -20.5179   24.3388 C   0  0  0  0  0  0  0  0  0  0  0  0
  -24.5319  -20.4060   24.6348 C   0  0  0  0  0  0  0  0  0  0  0  0
  -23.6848  -26.4943   22.9481 C   0  0  0  0  0  0  0  0  0  0  0  0
  -30.8937  -17.1770   22.2663 C   0  0  0  0  0  0  0  0  0  0  0  0
  -23.7334  -25.3081   21.9903 C   0  0  0  0  0  0  0  0  0  0  0  0
  -25.9854  -10.5350   23.7465 C   0  0  0  0  0  0  0  0  0  0  0  0
  -27.0279  -10.0427   22.7919 C   0  0  0  0  0  0  0  0  0  0  0  0
  -30.0124  -18.3610   21.8643 C   0  0  0  0  0  0  0  0  0  0  0  0
  -31.6097  -16.5717   21.0609 C   0  0  0  0  0  0  0  0  0  0  0  0
  -29.8455  -17.3768   19.5401 C   0  0  0  0  0  0  0  0  0  0  0  0
  -22.3833  -24.5826   21.9418 C   0  0  1  0  0  0  0  0  0  0  0  0
  -25.6949  -10.5092   22.2692 C   0  0  0  0  0  0  0  0  0  0  0  0
  -22.4306  -21.7810   24.5074 C   0  0  1  0  0  0  0  0  0  0  0  0
  -29.0592  -17.9854   20.7138 C   0  0  2  0  0  0  0  0  0  0  0  0
  -27.0233  -20.9432   30.6887 C   0  0  0  0  0  0  0  0  0  0  0  0
  -26.5886  -23.7872   24.7227 C   0  0  0  0  0  0  0  0  0  0  0  0
  -27.9833  -23.1685   26.7077 C   0  0  0  0  0  0  0  0  0  0  0  0
  -26.0315  -24.6971   26.9846 C   0  0  0  0  0  0  0  0  0  0  0  0
  -24.0586  -18.7520   29.7477 C   0  0  0  0  0  0  0  0  0  0  0  0
  -23.7494  -15.0605   21.6870 C   0  0  0  0  0  0  0  0  0  1  0  0
  -29.4419  -13.3726   17.9575 C   0  0  0  0  0  0  0  0  0  0  0  0
  -28.3988  -12.5691   18.7135 C   0  0  0  0  0  0  0  0  0  0  0  0
  -25.6290  -22.2388   26.5523 C   0  0  1  0  0  0  0  0  0  0  0  0
  -25.7317  -20.5937   29.9659 C   0  0  2  0  0  0  0  0  0  0  0  0
  -26.5442  -23.4529   26.2271 C   0  0  0  0  0  0  0  0  0  0  0  0
  -28.7308  -20.4043   20.3619 N   0  0  0  0  0  0  0  0  0  0  0  0
  -26.4268  -11.9379   20.4482 N   0  0  0  0  0  0  0  0  0  0  0  0
  -28.2117  -19.1673   20.2806 N   0  0  0  0  0  0  0  0  0  0  0  0
  -23.7205  -21.5212   25.1500 N   0  0  0  0  0  0  0  0  0  0  0  0
  -30.6495  -16.2363   20.0067 N   0  0  0  0  0  0  0  0  0  0  0  0
  -26.2650  -17.9735   19.6517 N   0  0  0  0  0  0  0  0  0  0  0  0
  -25.1609  -22.2746   18.8287 N   0  0  0  0  0  0  0  0  0  0  0  0
  -22.2166  -23.7463   23.1112 N   0  0  0  0  0  0  0  0  0  0  0  0
  -25.5465  -21.9162   27.9727 N   0  0  0  0  0  0  0  0  0  0  0  0
  -29.6374  -14.6818   18.5395 N   0  0  0  0  0  0  0  0  0  0  0  0
  -25.3266  -19.2167   30.3668 N   0  3  0  0  0  0  0  0  0  0  0  0
  -24.4020  -20.1117   18.7607 O   0  0  0  0  0  0  0  0  0  0  0  0
  -23.3585  -21.8699   22.3380 O   0  0  0  0  0  0  0  0  0  0  0  0
  -23.5555  -23.3905   26.5337 O   0  0  0  0  0  0  0  0  0  0  0  0
  -26.3126  -19.7358   27.7833 O   0  0  0  0  0  0  0  0  0  0  0  0
  -31.2971  -14.0098   19.9716 O   0  0  0  0  0  0  0  0  0  0  0  0
  -28.4127  -26.7236   19.6456 O   0  0  0  0  0  0  0  0  0  0  0  0
  -24.4998  -16.0932   22.3246 O   0  0  0  0  0  0  0  0  0  1  0  0
  -27.1586  -13.2657   18.6916 O   0  0  0  0  0  0  0  0  0  0  0  0
  -24.2989  -29.8964   21.4932 F   0  0  0  0  0  0  0  0  0  0  0  0
  -25.8940  -26.5814   18.5147 F   0  0  0  0  0  0  0  0  0  0  0  0
  1  2  1  0  0  0  0
  1  5  2  0  0  0  0
  2  6  2  0  0  0  0
  3  8  2  0  0  0  0
  3 17  1  0  0  0  0
  4  9  1  0  0  0  0
  4 17  2  0  0  0  0
  5 19  1  0  0  0  0
  6 21  1  0  0  0  0
  7 10  2  0  0  0  0
  7 20  1  0  0  0  0
  8 24  1  0  0  0  0
  9 24  2  0  0  0  0
 10 25  1  0  0  0  0
 11 12  2  0  0  0  0
 11 26  1  0  0  0  0
 12 27  1  0  0  0  0
 13 22  1  0  0  0  0
 13 25  2  0  0  0  0
 14 23  2  0  0  0  0
 14 30  1  0  0  0  0
 15 23  1  0  0  0  0
 15 31  2  0  0  0  0
 16 27  2  0  0  0  0
 16 28  1  0  0  0  0
 17 29  1  0  0  0  0
 18 29  1  0  0  0  0
 18 32  2  0  0  0  0
 18 33  1  0  0  0  0
 19 21  2  0  0  0  0
 19 38  1  0  0  0  0
 20 22  2  0  0  0  0
 20 39  1  0  0  0  0
 21 49  1  0  0  0  0
 22 40  1  0  0  0  0
 23 58  1  0  0  0  0
 24 80  1  0  0  0  0
 25 81  1  0  0  0  0
 26 28  2  0  0  0  0
 26 80  1  0  0  0  0
 27 83  1  0  0  0  0
 28 84  1  0  0  0  0
 29 64  2  0  0  0  0
 30 50  1  0  0  0  0
 30 65  2  0  0  0  0
 31 65  1  0  0  0  0
 31 82  1  0  0  0  0
 32 66  1  0  0  0  0
 32 69  1  0  0  0  0
 33 70  1  0  0  0  0
 33 75  2  0  0  0  0
 34 51  1  0  0  0  0
 34 71  1  0  0  0  0
 34 76  2  0  0  0  0
 35 61  1  0  0  0  0
 35 67  1  0  0  0  0
 35 77  2  0  0  0  0
 36 62  1  0  0  0  0
 36 72  1  0  0  0  0
 36 78  2  0  0  0  0
 37 68  1  0  0  0  0
 37 73  1  0  0  0  0
 37 79  2  0  0  0  0
 38 41  1  0  0  0  0
 39 51  1  0  0  0  0
 40 67  1  0  0  0  0
 41 43  1  0  0  0  0
 42 46  1  0  0  0  0
 42 47  1  0  0  0  0
 43 49  1  0  0  0  0
 44 45  1  0  0  0  0
 44 50  1  0  0  0  0
 45 50  1  0  0  0  0
 46 52  1  0  0  0  0
 47 68  1  0  0  0  0
 48 52  1  0  0  0  0
 48 68  1  0  0  0  0
 49 71  1  0  0  0  0
 51 67  1  0  0  0  0
 52 66  1  0  0  0  0
 53 62  1  0  0  0  0
 54 63  1  0  0  0  0
 55 63  1  0  0  0  0
 56 63  1  0  0  0  0
 57 74  1  0  0  0  0
 58 81  1  0  0  0  0
 59 60  1  0  0  0  0
 59 73  1  0  0  0  0
 60 82  1  0  0  0  0
 61 63  1  0  0  0  0
 61 72  1  0  0  0  0
 62 74  1  0  0  0  0
 64 66  1  0  0  0  0
M  CHG  1  74   1
M  ISO  4  37 100  58 101  73 100  81 101
M  END
> <Batch ID>
0142

> <Smiles>
CNC(C)C(=O)NC(C(=O)N1Cc2cc([101O:1][101CH2:1]c3cc(OCC[100NH:0][100C:0](=O)N4CCCC(n5nc(-c6ccc(Oc7ccc(F)cc7F)cc6)c(C(N)=O)c5N)C4)nc(C4CC4)c3)ccc2CC1C(=O)NC1CCCc2ccccc21)C(C)(C)C

> <Shape>
0.216

> <Color>
0.082

> <Negative vol penalty>
0.000

$$$$

  -OEChem-04052321183D

 86 96  0     1  0  0  0  0  0999 V2000
  -25.8440  -35.4372   23.3299 C   0  0  0  0  0  0  0  0  0  0  0  0
  -26.4276  -34.1996   23.0788 C   0  0  0  0  0  0  0  0  0  0  0  0
  -26.0426  -12.0913   19.7091 C   0  0  0  0  0  0  0  0  0  0  0  0
  -24.6818  -11.9760   21.7021 C   0  0  0  0  0  0  0  0  0  0  0  0
  -24.5415  -35.5053   23.8226 C   0  0  0  0  0  0  0  0  0  0  0  0
  -25.7094  -33.0292   23.3213 C   0  0  0  0  0  0  0  0  0  0  0  0
  -26.1414  -29.6694   19.5571 C   0  0  0  0  0  0  0  0  0  0  0  0
  -25.2831  -11.0738   19.1317 C   0  0  0  0  0  0  0  0  0  0  0  0
  -23.9223  -10.9585   21.1246 C   0  0  0  0  0  0  0  0  0  0  0  0
  -27.3194  -28.9259   19.4993 C   0  0  0  0  0  0  0  0  0  0  0  0
  -24.2108   -7.6330   20.5872 C   0  0  0  0  0  0  0  0  0  0  0  0
  -23.9103   -6.5219   21.3750 C   0  0  0  0  0  0  0  0  0  0  0  0
  -26.1882  -27.0642   20.5355 C   0  0  0  0  0  0  0  0  0  0  0  0
  -21.5513   -6.9690   21.1058 C   0  0  0  0  0  0  0  0  0  0  0  0
  -25.7419  -12.5424   20.9943 C   0  0  0  0  0  0  0  0  0  0  0  0
  -27.9092  -13.5766   21.8553 C   0  0  0  0  0  0  0  0  0  0  0  0
  -23.8035  -34.3355   24.0622 C   0  0  0  0  0  0  0  0  0  0  0  0
  -24.9789  -29.1187   20.1154 C   0  0  0  0  0  0  0  0  0  0  0  0
  -24.3963  -33.0817   23.8190 C   0  0  0  0  0  0  0  0  0  0  0  0
  -24.9961  -27.8019   20.5969 C   0  0  0  0  0  0  0  0  0  0  0  0
  -24.2230  -10.5074   19.8394 C   0  0  0  0  0  0  0  0  0  0  0  0
  -27.3438  -27.6242   19.9911 C   0  0  0  0  0  0  0  0  0  0  0  0
  -23.1816   -8.4122   20.0588 C   0  0  0  0  0  0  0  0  0  0  0  0
  -22.5806   -6.1898   21.6343 C   0  0  0  0  0  0  0  0  0  0  0  0
  -21.8519   -8.0802   20.3180 C   0  0  0  0  0  0  0  0  0  0  0  0
  -26.5264  -13.5931   21.5916 C   0  0  0  0  0  0  0  0  0  0  0  0
  -28.1652  -14.8011   22.4223 C   0  0  0  0  0  0  0  0  0  0  0  0
  -28.8757  -12.5465   21.6096 C   0  0  0  0  0  0  0  0  0  0  0  0
  -23.1261  -29.8342   22.5971 C   0  0  0  0  0  0  0  0  0  0  0  0
  -21.2734  -27.4543   21.4028 C   0  0  0  0  0  0  0  0  0  0  0  0
  -21.7877  -24.1798   19.9779 C   0  0  0  0  0  0  0  0  0  0  0  0
  -25.4109  -20.1069   22.0849 C   0  0  0  0  0  0  0  0  0  0  0  0
  -22.4157  -34.4581   24.6397 C   0  0  0  0  0  0  0  0  0  0  0  0
  -23.7091  -29.9244   20.1460 C   0  0  0  0  0  0  0  0  0  0  0  0
  -23.7696  -27.1574   21.1875 C   0  0  0  0  0  0  0  0  0  0  0  0
  -21.5893  -33.1807   24.5157 C   0  0  0  0  0  0  0  0  0  0  0  0
  -26.0834  -18.2275   25.0332 C   0  0  0  0  0  0  0  0  0  0  0  0
  -22.4111  -31.9694   24.9449 C   0  0  0  0  0  0  0  0  0  0  0  0
  -29.4403  -23.7061   15.6287 C   0  0  0  0  0  0  0  0  0  0  0  0
  -28.0631  -23.1494   15.3979 C   0  0  0  0  0  0  0  0  0  0  0  0
  -26.3980  -16.8252   24.5093 C   0  0  0  0  0  0  0  0  0  0  0  0
  -27.2887  -21.7081   19.8461 C   0  0  0  0  0  0  0  0  0  0  0  0
  -24.9904  -18.9055   24.2101 C   0  0  0  0  0  0  0  0  0  0  0  0
  -25.5604  -17.5472   22.2342 C   0  0  0  0  0  0  0  0  0  0  0  0
  -30.8763  -25.2605   19.7258 C   0  0  0  0  0  0  0  0  0  0  0  0
  -31.0296  -23.1638   18.4853 C   0  0  0  0  0  0  0  0  0  0  0  0
  -25.5705  -20.8587   18.4395 C   0  0  0  0  0  0  0  0  0  0  0  0
  -23.6406  -31.7904   24.0460 C   0  0  1  0  0  0  0  0  0  0  0  0
  -22.7212  -29.4428   21.2041 C   0  0  1  0  0  0  0  0  0  0  0  0
  -28.4203  -23.7420   16.7328 C   0  0  0  0  0  0  0  0  0  0  0  0
  -29.5541  -24.9466   19.0386 C   0  0  1  0  0  0  0  0  0  0  0  0
  -29.5954  -23.4204   18.9282 C   0  0  1  0  0  0  0  0  0  0  0  0
  -26.6961  -16.8450   22.9980 C   0  0  2  0  0  0  0  0  0  0  0  0
  -25.8724  -21.1573   19.8963 C   0  0  1  0  0  0  0  0  0  0  0  0
  -27.2399  -22.6368   18.6384 C   0  0  1  0  0  0  0  0  0  0  0  0
  -20.9596  -22.4068   18.4069 C   0  0  0  0  0  0  0  0  0  0  0  0
  -20.0521  -26.2034   23.9035 C   0  0  0  0  0  0  0  0  0  0  0  0
  -19.9921  -24.0124   22.6935 C   0  0  0  0  0  0  0  0  0  0  0  0
  -18.6761  -25.9481   21.8308 C   0  0  0  0  0  0  0  0  0  0  0  0
  -23.6435  -25.0434   17.8404 C   0  0  0  0  0  0  0  0  0  0  0  0
  -28.3594  -25.4812   19.8127 C   0  0  0  0  0  0  0  0  0  1  0  0
  -21.1938  -25.9599   21.6006 C   0  0  1  0  0  0  0  0  0  0  0  0
  -21.5999  -23.7811   18.5253 C   0  0  2  0  0  0  0  0  0  0  0  0
  -28.5785  -22.8402   17.9578 C   0  0  1  0  0  0  0  0  0  0  0  0
  -20.0030  -25.5451   22.5102 C   0  0  0  0  0  0  0  0  0  0  0  0
  -25.9447  -14.7374   21.9609 N   0  0  0  0  0  0  0  0  0  0  0  0
  -26.9669  -15.4512   22.4625 N   0  0  0  0  0  0  0  0  0  0  0  0
  -22.5541  -27.9880   21.2008 N   0  0  0  0  0  0  0  0  0  0  0  0
  -25.3351  -18.8923   22.7864 N   0  0  0  0  0  0  0  0  0  0  0  0
  -29.2963  -15.3743   22.8856 N   0  0  0  0  0  0  0  0  0  0  0  0
  -28.4428  -11.3509   21.0201 N   0  0  0  0  0  0  0  0  0  0  0  0
  -23.2604  -31.1970   22.7820 N   0  0  0  0  0  0  0  0  0  0  0  0
  -21.1588  -25.3727   20.2656 N   0  0  0  0  0  0  0  0  0  0  0  0
  -25.7498  -20.0053   20.7412 N   0  0  0  0  0  0  0  0  0  0  0  0
  -31.8249  -24.2292   19.1846 N   0  3  0  0  0  0  0  0  0  0  0  0
  -26.2754  -21.9603   17.6956 N   0  3  0  0  0  0  0  0  0  0  0  0
  -22.9139  -23.7494   17.8228 N   0  3  0  0  0  0  0  0  0  0  0  0
  -30.0844  -12.6759   21.9192 O   0  0  0  0  0  0  0  0  0  0  0  0
  -23.3020  -28.9643   23.4421 O   0  0  0  0  0  0  0  0  0  0  0  0
  -20.2368  -28.1226   21.4195 O   0  0  0  0  0  0  0  0  0  0  0  0
  -22.4252  -23.4991   20.7784 O   0  0  0  0  0  0  0  0  0  0  0  0
  -25.1980  -21.2011   22.6180 O   0  0  0  0  0  0  0  0  0  0  0  0
  -23.4815   -9.5146   19.2762 O   0  0  0  0  0  0  0  0  0  0  0  0
  -28.4924  -26.8965   19.9365 O   0  0  0  0  0  0  0  0  0  1  0  0
  -22.2921   -5.1219   22.3896 F   0  0  0  0  0  0  0  0  0  0  0  0
  -20.8588   -8.8243   19.8121 F   0  0  0  0  0  0  0  0  0  0  0  0
  1  2  1  0  0  0  0
  1  5  2  0  0  0  0
  2  6  2  0  0  0  0
  3  8  2  0  0  0  0
  3 15  1  0  0  0  0
  4  9  1  0  0  0  0
  4 15  2  0  0  0  0
  5 17  1  0  0  0  0
  6 19  1  0  0  0  0
  7 10  2  0  0  0  0
  7 18  1  0  0  0  0
  8 21  1  0  0  0  0
  9 21  2  0  0  0  0
 10 22  1  0  0  0  0
 11 12  2  0  0  0  0
 11 23  1  0  0  0  0
 12 24  1  0  0  0  0
 13 20  1  0  0  0  0
 13 22  2  0  0  0  0
 14 24  2  0  0  0  0
 14 25  1  0  0  0  0
 15 26  1  0  0  0  0
 16 26  1  0  0  0  0
 16 27  2  0  0  0  0
 16 28  1  0  0  0  0
 17 19  2  0  0  0  0
 17 33  1  0  0  0  0
 18 20  2  0  0  0  0
 18 34  1  0  0  0  0
 19 48  1  0  0  0  0
 20 35  1  0  0  0  0
 21 83  1  0  0  0  0
 22 84  1  0  0  0  0
 23 25  2  0  0  0  0
 23 83  1  0  0  0  0
 24 85  1  0  0  0  0
 25 86  1  0  0  0  0
 26 66  2  0  0  0  0
 27 67  1  0  0  0  0
 27 70  1  0  0  0  0
 28 71  1  0  0  0  0
 28 78  2  0  0  0  0
 29 49  1  0  0  0  0
 29 72  1  0  0  0  0
 29 79  2  0  0  0  0
 30 62  1  0  0  0  0
 30 68  1  0  0  0  0
 30 80  2  0  0  0  0
 31 63  1  0  0  0  0
 31 73  1  0  0  0  0
 31 81  2  0  0  0  0
 32 69  1  0  0  0  0
 32 74  1  0  0  0  0
 32 82  2  0  0  0  0
 33 36  1  0  0  0  0
 34 49  1  0  0  0  0
 35 68  1  0  0  0  0
 36 38  1  0  0  0  0
 37 41  1  0  0  0  0
 37 43  1  0  0  0  0
 38 48  1  0  0  0  0
 39 40  1  0  0  0  0
 39 50  1  0  0  0  0
 40 50  1  0  0  0  0
 41 53  1  0  0  0  0
 42 54  1  0  0  0  0
 42 55  1  0  0  0  0
 43 69  1  0  0  0  0
 44 53  1  0  0  0  0
 44 69  1  0  0  0  0
 45 51  1  0  0  0  0
 45 75  1  0  0  0  0
 46 52  1  0  0  0  0
 46 75  1  0  0  0  0
 47 54  1  0  0  0  0
 47 76  1  0  0  0  0
 48 72  1  0  0  0  0
 49 68  1  0  0  0  0
 50 64  1  0  0  0  0
 51 52  1  0  0  0  0
 51 61  1  0  0  0  0
 52 64  1  0  0  0  0
 53 67  1  0  0  0  0
 54 74  1  0  0  0  0
 55 64  1  0  0  0  0
 55 76  1  0  0  0  0
 56 63  1  0  0  0  0
 57 65  1  0  0  0  0
 58 65  1  0  0  0  0
 59 65  1  0  0  0  0
 60 77  1  0  0  0  0
 61 84  1  0  0  0  0
 62 65  1  0  0  0  0
 62 73  1  0  0  0  0
 63 77  1  0  0  0  0
 66 67  1  0  0  0  0
M  CHG  3  75   1  76   1  77   1
M  ISO  4  32 100  61 101  74 100  84 101
M  END
> <Batch ID>
0142

> <Smiles>
CNC(C)C(=O)NC(C(=O)N1Cc2cc([101O:1][101CH2:1]C3CNCC3C(C3CC3)C3CC([100NH:0][100C:0](=O)N4CCCC(n5nc(-c6ccc(Oc7ccc(F)cc7F)cc6)c(C(N)=O)c5N)C4)CN3)ccc2CC1C(=O)NC1CCCc2ccccc21)C(C)(C)C

> <Shape>
0.257

> <Color>
0.058

> <Negative vol penalty>
0.000

$$$$

  -OEChem-04052321183D

 81 90  0     1  0  0  0  0  0999 V2000
  -18.6138  -33.3887   22.0758 C   0  0  0  0  0  0  0  0  0  0  0  0
  -19.9738  -33.2850   21.8021 C   0  0  0  0  0  0  0  0  0  0  0  0
  -25.7778  -13.8627   21.6081 C   0  0  0  0  0  0  0  0  0  0  0  0
  -26.3882  -13.8838   19.2705 C   0  0  0  0  0  0  0  0  0  0  0  0
  -17.9757  -32.3961   22.8184 C   0  0  0  0  0  0  0  0  0  0  0  0
  -20.6968  -32.1891   22.2719 C   0  0  0  0  0  0  0  0  0  0  0  0
  -25.3764  -29.3947   19.4792 C   0  0  0  0  0  0  0  0  0  0  0  0
  -24.7169  -13.0031   21.3233 C   0  0  0  0  0  0  0  0  0  0  0  0
  -25.3272  -13.0242   18.9858 C   0  0  0  0  0  0  0  0  0  0  0  0
  -26.7581  -29.4983   19.6338 C   0  0  0  0  0  0  0  0  0  0  0  0
  -24.2762   -9.7063   20.7155 C   0  0  0  0  0  0  0  0  0  0  0  0
  -24.0861   -8.6103   21.5570 C   0  0  0  0  0  0  0  0  0  0  0  0
  -26.7310  -27.5863   21.1044 C   0  0  0  0  0  0  0  0  0  0  0  0
  -29.3151  -26.0790   18.7988 C   0  0  0  0  0  0  0  0  0  0  0  0
  -21.8765   -9.4171   22.1085 C   0  0  0  0  0  0  0  0  0  0  0  0
  -31.9105  -25.7566   19.7010 C   0  0  0  0  0  0  0  0  0  0  0  0
  -26.6135  -14.3031   20.5817 C   0  0  0  0  0  0  0  0  0  0  0  0
  -29.0271  -14.8322   21.2157 C   0  0  0  0  0  0  0  0  0  0  0  0
  -18.6891  -31.2827   23.2893 C   0  0  0  0  0  0  0  0  0  0  0  0
  -24.6589  -28.3910   20.1458 C   0  0  0  0  0  0  0  0  0  0  0  0
  -20.0679  -31.1813   23.0227 C   0  0  0  0  0  0  0  0  0  0  0  0
  -25.3406  -27.4704   20.9546 C   0  0  0  0  0  0  0  0  0  0  0  0
  -30.0272  -27.1601   19.2780 C   0  0  0  0  0  0  0  0  0  0  0  0
  -31.3371  -27.0059   19.7313 C   0  0  0  0  0  0  0  0  0  0  0  0
  -24.4916  -12.5839   20.0122 C   0  0  0  0  0  0  0  0  0  0  0  0
  -27.4352  -28.5959   20.4487 C   0  0  0  0  0  0  0  0  0  0  0  0
  -23.2665  -10.6578   20.5705 C   0  0  0  0  0  0  0  0  0  0  0  0
  -22.8862   -8.4656   22.2535 C   0  0  0  0  0  0  0  0  0  0  0  0
  -22.0667  -10.5131   21.2670 C   0  0  0  0  0  0  0  0  0  0  0  0
  -27.7093  -15.1915   20.8751 C   0  0  0  0  0  0  0  0  0  0  0  0
  -29.9791  -24.8608   18.7947 C   0  0  0  0  0  0  0  0  0  0  0  0
  -29.6743  -16.0304   21.3946 C   0  0  0  0  0  0  0  0  0  0  0  0
  -29.6138  -13.5317   21.3577 C   0  0  0  0  0  0  0  0  0  0  0  0
  -22.3487  -28.3583   22.3288 C   0  0  0  0  0  0  0  0  0  0  0  0
  -22.4017  -25.1631   21.7717 C   0  0  0  0  0  0  0  0  0  0  0  0
  -24.1511  -22.4391   20.6917 C   0  0  0  0  0  0  0  0  0  0  0  0
  -28.6752  -21.4100   19.1773 C   0  0  0  0  0  0  0  0  0  0  0  0
  -17.9661  -30.2589   24.1283 C   0  0  0  0  0  0  0  0  0  0  0  0
  -23.1723  -28.2762   19.9475 C   0  0  0  0  0  0  0  0  0  0  0  0
  -31.8906  -28.2923   20.2440 C   0  0  0  0  0  0  0  0  0  0  0  0
  -24.6194  -26.3623   21.6760 C   0  0  0  0  0  0  0  0  0  0  0  0
  -18.7249  -28.9420   24.2703 C   0  0  0  0  0  0  0  0  0  0  0  0
  -30.9217  -29.3060   19.6069 C   0  0  0  0  0  0  0  0  0  0  0  0
  -28.8660  -20.5661   22.6914 C   0  0  0  0  0  0  0  0  0  0  0  0
  -20.1889  -29.2035   24.6099 C   0  0  0  0  0  0  0  0  0  0  0  0
  -28.7145  -19.0445   22.6474 C   0  0  0  0  0  0  0  0  0  0  0  0
  -27.9841  -21.2399   21.6443 C   0  0  0  0  0  0  0  0  0  0  0  0
  -28.0562  -19.2410   20.2045 C   0  0  0  0  0  0  0  0  0  0  0  0
  -20.8811  -29.9953   23.4939 C   0  0  1  0  0  0  0  0  0  0  0  0
  -29.5763  -28.5781   19.4323 C   0  0  2  0  0  0  0  0  0  1  0  0
  -22.4741  -27.5310   21.0808 C   0  0  1  0  0  0  0  0  0  0  0  0
  -28.9396  -18.4998   21.2244 C   0  0  2  0  0  0  0  0  0  0  0  0
  -23.9422  -19.9567   20.3899 C   0  0  0  0  0  0  0  0  0  0  0  0
  -22.7446  -24.7712   24.7782 C   0  0  0  0  0  0  0  0  0  0  0  0
  -23.4719  -22.4201   24.3183 C   0  0  0  0  0  0  0  0  0  0  0  0
  -21.1740  -23.1587   23.6884 C   0  0  0  0  0  0  0  0  0  0  0  0
  -24.5764  -22.6417   17.7699 C   0  0  0  0  0  0  0  0  0  0  0  0
  -29.2666  -23.6499   18.2884 C   0  0  0  0  0  0  0  0  0  0  0  0
  -23.1529  -23.9891   22.3517 C   0  0  1  0  0  0  0  0  0  0  0  0
  -23.7825  -21.3198   19.7348 C   0  0  2  0  0  0  0  0  0  0  0  0
  -22.6494  -23.6067   23.7722 C   0  0  0  0  0  0  0  0  0  0  0  0
  -31.2538  -24.6710   19.2315 N   0  0  0  0  0  0  0  0  0  0  0  0
  -27.5284  -16.5143   20.8393 N   0  0  0  0  0  0  0  0  0  0  0  0
  -28.7410  -16.9968   21.1598 N   0  0  0  0  0  0  0  0  0  0  0  0
  -23.1653  -26.2956   21.4551 N   0  0  0  0  0  0  0  0  0  0  0  0
  -28.2609  -20.6896   20.3099 N   0  0  0  0  0  0  0  0  0  0  0  0
  -30.9449  -16.3410   21.7285 N   0  0  0  0  0  0  0  0  0  0  0  0
  -28.8069  -12.4070   21.1376 N   0  0  0  0  0  0  0  0  0  0  0  0
  -21.2013  -29.1265   22.3816 N   0  0  0  0  0  0  0  0  0  0  0  0
  -23.0492  -22.9136   21.3714 N   0  0  0  0  0  0  0  0  0  0  0  0
  -28.8390  -22.7777   19.3596 N   0  0  0  0  0  0  0  0  0  0  0  0
  -24.6521  -21.3648   18.5254 N   0  3  0  0  0  0  0  0  0  0  0  0
  -30.8137  -13.3715   21.6864 O   0  0  0  0  0  0  0  0  0  0  0  0
  -23.2271  -28.3026   23.1814 O   0  0  0  0  0  0  0  0  0  0  0  0
  -21.1834  -25.0759   21.5991 O   0  0  0  0  0  0  0  0  0  0  0  0
  -25.3020  -22.8489   20.8258 O   0  0  0  0  0  0  0  0  0  0  0  0
  -28.8887  -20.8731   18.0849 O   0  0  0  0  0  0  0  0  0  0  0  0
  -23.4565  -11.7449   19.7340 O   0  0  0  0  0  0  0  0  0  0  0  0
  -28.7837  -28.6952   20.6019 O   0  0  0  0  0  0  0  0  0  1  0  0
  -22.7032   -7.4123   23.0604 F   0  0  0  0  0  0  0  0  0  0  0  0
  -21.0926  -11.4233   21.1308 F   0  0  0  0  0  0  0  0  0  0  0  0
  1  2  1  0  0  0  0
  1  5  2  0  0  0  0
  2  6  2  0  0  0  0
  3  8  2  0  0  0  0
  3 17  1  0  0  0  0
  4  9  1  0  0  0  0
  4 17  2  0  0  0  0
  5 19  1  0  0  0  0
  6 21  1  0  0  0  0
  7 10  2  0  0  0  0
  7 20  1  0  0  0  0
  8 25  1  0  0  0  0
  9 25  2  0  0  0  0
 10 26  1  0  0  0  0
 11 12  2  0  0  0  0
 11 27  1  0  0  0  0
 12 28  1  0  0  0  0
 13 22  1  0  0  0  0
 13 26  2  0  0  0  0
 14 23  1  0  0  0  0
 14 31  2  0  0  0  0
 15 28  2  0  0  0  0
 15 29  1  0  0  0  0
 16 24  1  0  0  0  0
 16 62  2  0  0  0  0
 17 30  1  0  0  0  0
 18 30  1  0  0  0  0
 18 32  2  0  0  0  0
 18 33  1  0  0  0  0
 19 21  2  0  0  0  0
 19 38  1  0  0  0  0
 20 22  2  0  0  0  0
 20 39  1  0  0  0  0
 21 49  1  0  0  0  0
 22 41  1  0  0  0  0
 23 24  2  0  0  0  0
 23 50  1  0  0  0  0
 24 40  1  0  0  0  0
 25 78  1  0  0  0  0
 26 79  1  0  0  0  0
 27 29  2  0  0  0  0
 27 78  1  0  0  0  0
 28 80  1  0  0  0  0
 29 81  1  0  0  0  0
 30 63  2  0  0  0  0
 31 58  1  0  0  0  0
 31 62  1  0  0  0  0
 32 64  1  0  0  0  0
 32 67  1  0  0  0  0
 33 68  1  0  0  0  0
 33 73  2  0  0  0  0
 34 51  1  0  0  0  0
 34 69  1  0  0  0  0
 34 74  2  0  0  0  0
 35 59  1  0  0  0  0
 35 65  1  0  0  0  0
 35 75  2  0  0  0  0
 36 60  1  0  0  0  0
 36 70  1  0  0  0  0
 36 76  2  0  0  0  0
 37 66  1  0  0  0  0
 37 71  1  0  0  0  0
 37 77  2  0  0  0  0
 38 42  1  0  0  0  0
 39 51  1  0  0  0  0
 40 43  1  0  0  0  0
 41 65  1  0  0  0  0
 42 45  1  0  0  0  0
 43 50  1  0  0  0  0
 44 46  1  0  0  0  0
 44 47  1  0  0  0  0
 45 49  1  0  0  0  0
 46 52  1  0  0  0  0
 47 66  1  0  0  0  0
 48 52  1  0  0  0  0
 48 66  1  0  0  0  0
 49 69  1  0  0  0  0
 50 79  1  0  0  0  0
 51 65  1  0  0  0  0
 52 64  1  0  0  0  0
 53 60  1  0  0  0  0
 54 61  1  0  0  0  0
 55 61  1  0  0  0  0
 56 61  1  0  0  0  0
 57 72  1  0  0  0  0
 58 71  1  0  0  0  0
 59 61  1  0  0  0  0
 59 70  1  0  0  0  0
 60 72  1  0  0  0  0
 63 64  1  0  0  0  0
M  CHG  1  72   1
M  ISO  4  37 100  50 101  71 100  79 101
M  END
> <Batch ID>
0142

> <Smiles>
CNC(C)C(=O)NC(C(=O)N1Cc2cc([101O:1][101CH:1]3CCc4cnc(C[100NH:0][100C:0](=O)N5CCCC(n6nc(-c7ccc(Oc8ccc(F)cc8F)cc7)c(C(N)=O)c6N)C5)cc43)ccc2CC1C(=O)NC1CCCc2ccccc21)C(C)(C)C

> <Shape>
0.276

> <Color>
0.086

> <Negative vol penalty>
0.000

$$$$

  -OEChem-04052321183D

 88 97  0     1  0  0  0  0  0999 V2000
  -26.8073  -35.1470   20.4373 C   0  0  0  0  0  0  0  0  0  0  0  0
  -26.7712  -33.9035   19.8145 C   0  0  0  0  0  0  0  0  0  0  0  0
  -22.9863   -9.9146   19.9850 C   0  0  0  0  0  0  0  0  0  0  0  0
  -23.7056   -9.9678   22.2909 C   0  0  0  0  0  0  0  0  0  0  0  0
  -26.7290  -35.2320   21.8267 C   0  0  0  0  0  0  0  0  0  0  0  0
  -26.6578  -32.7442   20.5810 C   0  0  0  0  0  0  0  0  0  0  0  0
  -23.6638  -27.6169   19.0801 C   0  0  0  0  0  0  0  0  0  0  0  0
  -22.2096   -8.7875   20.2533 C   0  0  0  0  0  0  0  0  0  0  0  0
  -22.9288   -8.8407   22.5592 C   0  0  0  0  0  0  0  0  0  0  0  0
  -24.0936  -26.3999   18.5527 C   0  0  0  0  0  0  0  0  0  0  0  0
  -23.1464   -5.4982   22.0999 C   0  0  0  0  0  0  0  0  0  0  0  0
  -23.7233   -4.4788   22.8573 C   0  0  0  0  0  0  0  0  0  0  0  0
  -24.1894  -25.4760   20.7790 C   0  0  0  0  0  0  0  0  0  0  0  0
  -28.0017  -20.8031   18.4329 C   0  0  0  0  0  0  0  0  0  0  0  0
  -28.0916  -21.7643   20.6476 C   0  0  0  0  0  0  0  0  0  0  0  0
  -21.9970   -4.7422   24.5269 C   0  0  0  0  0  0  0  0  0  0  0  0
  -23.7344  -10.5047   21.0038 C   0  0  0  0  0  0  0  0  0  0  0  0
  -24.1413  -13.0163   20.8198 C   0  0  0  0  0  0  0  0  0  0  0  0
  -26.6048  -34.0737   22.6100 C   0  0  0  0  0  0  0  0  0  0  0  0
  -23.5038  -27.7761   20.4641 C   0  0  0  0  0  0  0  0  0  0  0  0
  -26.5791  -32.8137   21.9823 C   0  0  0  0  0  0  0  0  0  0  0  0
  -23.7550  -26.6952   21.3212 C   0  0  0  0  0  0  0  0  0  0  0  0
  -28.4727  -19.5918   18.9394 C   0  0  0  0  0  0  0  0  0  0  0  0
  -28.5627  -20.5530   21.1542 C   0  0  0  0  0  0  0  0  0  0  0  0
  -28.7532  -19.4668   20.3000 C   0  0  0  0  0  0  0  0  0  0  0  0
  -22.1808   -8.2506   21.5404 C   0  0  0  0  0  0  0  0  0  0  0  0
  -24.3592  -25.3301   19.4024 C   0  0  0  0  0  0  0  0  0  0  0  0
  -21.9948   -6.1397   22.5561 C   0  0  0  0  0  0  0  0  0  0  0  0
  -27.8112  -21.8893   19.2870 C   0  0  0  0  0  0  0  0  0  0  0  0
  -23.1486   -4.1008   24.0708 C   0  0  0  0  0  0  0  0  0  0  0  0
  -21.4201   -5.7617   23.7695 C   0  0  0  0  0  0  0  0  0  0  0  0
  -24.5374  -11.6686   20.7272 C   0  0  0  0  0  0  0  0  0  0  0  0
  -25.2581  -13.7283   20.4559 C   0  0  0  0  0  0  0  0  0  0  0  0
  -22.8769  -13.5747   21.2009 C   0  0  0  0  0  0  0  0  0  0  0  0
  -24.8294  -29.6341   22.6764 C   0  0  0  0  0  0  0  0  0  0  0  0
  -22.5814  -28.2928   24.5920 C   0  0  0  0  0  0  0  0  0  0  0  0
  -20.4822  -25.6714   25.1992 C   0  0  0  0  0  0  0  0  0  0  0  0
  -30.7614  -14.6176   20.7162 C   0  0  0  0  0  0  0  0  0  0  0  0
  -26.5711  -34.2128   24.1114 C   0  0  0  0  0  0  0  0  0  0  0  0
  -23.0138  -29.0871   21.0150 C   0  0  0  0  0  0  0  0  0  0  0  0
  -23.5793  -26.8083   22.8128 C   0  0  0  0  0  0  0  0  0  0  0  0
  -26.0752  -32.9596   24.8283 C   0  0  0  0  0  0  0  0  0  0  0  0
  -29.6068  -12.1952   18.3763 C   0  0  0  0  0  0  0  0  0  0  0  0
  -27.5082  -17.9907   17.1562 C   0  0  0  0  0  0  0  0  0  0  0  0
  -27.9787  -17.1389   18.2934 C   0  0  0  0  0  0  0  0  0  0  0  0
  -26.7578  -31.7171   24.2651 C   0  0  0  0  0  0  0  0  0  0  0  0
  -28.1551  -11.9491   18.7908 C   0  0  0  0  0  0  0  0  0  0  0  0
  -30.5079  -12.4273   19.5872 C   0  0  0  0  0  0  0  0  0  0  0  0
  -28.6009  -13.2437   20.9178 C   0  0  0  0  0  0  0  0  0  0  0  0
  -28.6671  -18.4450   18.0019 C   0  0  0  0  0  0  0  0  0  0  0  0
  -26.4318  -31.5348   22.7779 C   0  0  1  0  0  0  0  0  0  0  0  0
  -23.3791  -29.2928   22.4818 C   0  0  1  0  0  0  0  0  0  0  0  0
  -27.6435  -13.0598   19.7279 C   0  0  2  0  0  0  0  0  0  0  0  0
  -27.7625  -19.6993   23.3717 C   0  0  0  0  0  0  0  0  0  0  0  0
  -18.7964  -24.8421   26.8628 C   0  0  0  0  0  0  0  0  0  0  0  0
  -24.8398  -27.5278   26.4957 C   0  0  0  0  0  0  0  0  0  0  0  0
  -23.2683  -25.9251   27.6048 C   0  0  0  0  0  0  0  0  0  0  0  0
  -22.7694  -28.3692   27.6181 C   0  0  0  0  0  0  0  0  0  0  0  0
  -18.3218  -25.6559   23.1765 C   0  0  0  0  0  0  0  0  0  0  0  0
  -28.8549  -20.4493   22.6161 C   0  0  0  0  0  0  0  0  0  0  0  0
  -30.6211  -17.9239   20.8969 C   0  0  0  0  0  0  0  0  0  0  0  0
  -30.8592  -16.8000   21.8938 C   0  0  0  0  0  0  0  0  0  0  0  0
  -25.5376  -24.1863   17.6823 C   0  0  0  0  0  0  0  0  0  1  0  0
  -26.4946  -23.0103   17.6542 C   0  0  0  0  0  0  0  0  0  0  0  0
  -22.5174  -27.0645   25.4672 C   0  0  1  0  0  0  0  0  0  0  0  0
  -19.0126  -25.6243   25.5766 C   0  0  2  0  0  0  0  0  0  0  0  0
  -23.3540  -27.2198   26.7686 C   0  0  0  0  0  0  0  0  0  0  0  0
  -25.8067  -11.5301   20.3349 N   0  0  0  0  0  0  0  0  0  0  0  0
  -26.2178  -12.7999   20.1778 N   0  0  0  0  0  0  0  0  0  0  0  0
  -23.1042  -28.1125   23.3036 N   0  0  0  0  0  0  0  0  0  0  0  0
  -29.9677  -13.4937   20.4339 N   0  0  0  0  0  0  0  0  0  0  0  0
  -25.5030  -15.0516   20.3497 N   0  0  0  0  0  0  0  0  0  0  0  0
  -21.8368  -12.7005   21.5448 N   0  0  0  0  0  0  0  0  0  0  0  0
  -29.2307  -18.2392   20.8154 N   0  0  0  0  0  0  0  0  0  0  0  0
  -25.1020  -30.9874   22.6154 N   0  0  0  0  0  0  0  0  0  0  0  0
  -21.1011  -26.7992   25.6955 N   0  0  0  0  0  0  0  0  0  0  0  0
  -30.1709  -15.5843   21.5210 N   0  0  0  0  0  0  0  0  0  0  0  0
  -18.2202  -24.9762   24.4936 N   0  3  0  0  0  0  0  0  0  0  0  0
  -22.6705  -14.8119   21.2196 O   0  0  0  0  0  0  0  0  0  0  0  0
  -25.6408  -28.7362   22.8692 O   0  0  0  0  0  0  0  0  0  0  0  0
  -22.1755  -29.3711   25.0327 O   0  0  0  0  0  0  0  0  0  0  0  0
  -21.0276  -24.7936   24.5339 O   0  0  0  0  0  0  0  0  0  0  0  0
  -31.9092  -14.7523   20.2787 O   0  0  0  0  0  0  0  0  0  0  0  0
  -21.4228   -7.1510   21.8026 O   0  0  0  0  0  0  0  0  0  0  0  0
  -24.7794  -24.1414   18.8904 O   0  0  0  0  0  0  0  0  0  1  0  0
  -27.3489  -23.0792   18.7894 O   0  0  0  0  0  0  0  0  0  0  0  0
  -23.7019   -3.1209   24.7972 F   0  0  0  0  0  0  0  0  0  0  0  0
  -20.3131   -6.3734   24.2123 F   0  0  0  0  0  0  0  0  0  0  0  0
  1  2  1  0  0  0  0
  1  5  2  0  0  0  0
  2  6  2  0  0  0  0
  3  8  2  0  0  0  0
  3 17  1  0  0  0  0
  4  9  1  0  0  0  0
  4 17  2  0  0  0  0
  5 19  1  0  0  0  0
  6 21  1  0  0  0  0
  7 10  2  0  0  0  0
  7 20  1  0  0  0  0
  8 26  1  0  0  0  0
  9 26  2  0  0  0  0
 10 27  1  0  0  0  0
 11 12  2  0  0  0  0
 11 28  1  0  0  0  0
 12 30  1  0  0  0  0
 13 22  1  0  0  0  0
 13 27  2  0  0  0  0
 14 23  2  0  0  0  0
 14 29  1  0  0  0  0
 15 24  1  0  0  0  0
 15 29  2  0  0  0  0
 16 30  2  0  0  0  0
 16 31  1  0  0  0  0
 17 32  1  0  0  0  0
 18 32  1  0  0  0  0
 18 33  2  0  0  0  0
 18 34  1  0  0  0  0
 19 21  2  0  0  0  0
 19 39  1  0  0  0  0
 20 22  2  0  0  0  0
 20 40  1  0  0  0  0
 21 51  1  0  0  0  0
 22 41  1  0  0  0  0
 23 25  1  0  0  0  0
 23 50  1  0  0  0  0
 24 25  2  0  0  0  0
 24 60  1  0  0  0  0
 25 74  1  0  0  0  0
 26 84  1  0  0  0  0
 27 85  1  0  0  0  0
 28 31  2  0  0  0  0
 28 84  1  0  0  0  0
 29 86  1  0  0  0  0
 30 87  1  0  0  0  0
 31 88  1  0  0  0  0
 32 68  2  0  0  0  0
 33 69  1  0  0  0  0
 33 72  1  0  0  0  0
 34 73  1  0  0  0  0
 34 79  2  0  0  0  0
 35 52  1  0  0  0  0
 35 75  1  0  0  0  0
 35 80  2  0  0  0  0
 36 65  1  0  0  0  0
 36 70  1  0  0  0  0
 36 81  2  0  0  0  0
 37 66  1  0  0  0  0
 37 76  1  0  0  0  0
 37 82  2  0  0  0  0
 38 71  1  0  0  0  0
 38 77  1  0  0  0  0
 38 83  2  0  0  0  0
 39 42  1  0  0  0  0
 40 52  1  0  0  0  0
 41 70  1  0  0  0  0
 42 46  1  0  0  0  0
 43 47  1  0  0  0  0
 43 48  1  0  0  0  0
 44 45  1  0  0  0  0
 44 50  1  0  0  0  0
 45 50  1  0  0  0  0
 46 51  1  0  0  0  0
 47 53  1  0  0  0  0
 48 71  1  0  0  0  0
 49 53  1  0  0  0  0
 49 71  1  0  0  0  0
 51 75  1  0  0  0  0
 52 70  1  0  0  0  0
 53 69  1  0  0  0  0
 54 60  1  0  0  0  0
 55 66  1  0  0  0  0
 56 67  1  0  0  0  0
 57 67  1  0  0  0  0
 58 67  1  0  0  0  0
 59 78  1  0  0  0  0
 61 62  1  0  0  0  0
 61 74  1  0  0  0  0
 62 77  1  0  0  0  0
 63 64  1  0  0  0  0
 63 85  1  0  0  0  0
 64 86  1  0  0  0  0
 65 67  1  0  0  0  0
 65 76  1  0  0  0  0
 66 78  1  0  0  0  0
 68 69  1  0  0  0  0
M  CHG  1  78   1
M  ISO  4  38 100  63 101  77 100  85 101
M  END
> <Batch ID>
0142

> <Smiles>
CCc1cc(OC[101CH2:1][101O:1]c2ccc3c(c2)CN(C(=O)C(NC(=O)C(C)NC)C(C)(C)C)C(C(=O)NC2CCCc4ccccc42)C3)cc(C2CC2)c1NCC[100NH:0][100C:0](=O)N1CCCC(n2nc(-c3ccc(Oc4ccc(F)cc4F)cc3)c(C(N)=O)c2N)C1

> <Shape>
0.330

> <Color>
0.195

> <Negative vol penalty>
0.000

$$$$

  -OEChem-04052321183D

 85 94  0     1  0  0  0  0  0999 V2000
  -18.5670  -25.5669   17.1541 C   0  0  0  0  0  0  0  0  0  0  0  0
  -19.5122  -24.7449   17.7592 C   0  0  0  0  0  0  0  0  0  0  0  0
  -23.0730   -9.8704   19.9418 C   0  0  0  0  0  0  0  0  0  0  0  0
  -23.8399   -9.8735   22.2328 C   0  0  0  0  0  0  0  0  0  0  0  0
  -18.3328  -26.8459   17.6573 C   0  0  0  0  0  0  0  0  0  0  0  0
  -20.2248  -25.2019   18.8673 C   0  0  0  0  0  0  0  0  0  0  0  0
  -22.1231  -21.8803   23.6495 C   0  0  0  0  0  0  0  0  0  0  0  0
  -28.7320  -18.4140   21.5352 C   0  0  0  0  0  0  0  0  0  0  0  0
  -22.3306   -8.7163   20.1919 C   0  0  0  0  0  0  0  0  0  0  0  0
  -23.0975   -8.7195   22.4829 C   0  0  0  0  0  0  0  0  0  0  0  0
  -23.3531  -21.3027   23.9613 C   0  0  0  0  0  0  0  0  0  0  0  0
  -28.0293  -19.5294   21.9939 C   0  0  0  0  0  0  0  0  0  0  0  0
  -19.8717   -7.9186   23.0939 C   0  0  0  0  0  0  0  0  0  0  0  0
  -19.1183   -7.8761   24.2670 C   0  0  0  0  0  0  0  0  0  0  0  0
  -23.9076  -23.2254   25.3086 C   0  0  0  0  0  0  0  0  0  0  0  0
  -29.6402  -19.8584   23.7850 C   0  0  0  0  0  0  0  0  0  0  0  0
  -20.3632   -5.9380   24.9960 C   0  0  0  0  0  0  0  0  0  0  0  0
  -23.8277  -10.4490   20.9622 C   0  0  0  0  0  0  0  0  0  0  0  0
  -24.1677  -12.9745   20.8459 C   0  0  0  0  0  0  0  0  0  0  0  0
  -19.0360  -27.3153   18.7780 C   0  0  0  0  0  0  0  0  0  0  0  0
  -21.7800  -23.1417   24.1570 C   0  0  0  0  0  0  0  0  0  0  0  0
  -20.0008  -26.4889   19.3851 C   0  0  0  0  0  0  0  0  0  0  0  0
  -29.8742  -18.0230   22.2187 C   0  0  0  0  0  0  0  0  0  0  0  0
  -22.6716  -23.8156   25.0038 C   0  0  0  0  0  0  0  0  0  0  0  0
  -30.3276  -18.7406   23.3352 C   0  0  0  0  0  0  0  0  0  0  0  0
  -22.3428   -8.1409   21.4624 C   0  0  0  0  0  0  0  0  0  0  0  0
  -24.2468  -21.9765   24.7886 C   0  0  0  0  0  0  0  0  0  0  0  0
  -28.4801  -20.2465   23.1112 C   0  0  0  0  0  0  0  0  0  0  0  0
  -20.8707   -6.9708   22.8718 C   0  0  0  0  0  0  0  0  0  0  0  0
  -19.3641   -6.8858   25.2181 C   0  0  0  0  0  0  0  0  0  0  0  0
  -21.1164   -5.9805   23.8228 C   0  0  0  0  0  0  0  0  0  0  0  0
  -24.5953  -11.6408   20.7043 C   0  0  0  0  0  0  0  0  0  0  0  0
  -25.2583  -13.7253   20.4806 C   0  0  0  0  0  0  0  0  0  0  0  0
  -22.8982  -13.4888   21.2696 C   0  0  0  0  0  0  0  0  0  0  0  0
  -21.1107  -25.9706   22.8712 C   0  0  0  0  0  0  0  0  0  0  0  0
  -20.4273  -26.7677   25.9404 C   0  0  0  0  0  0  0  0  0  0  0  0
  -20.8990  -26.1599   29.2653 C   0  0  0  0  0  0  0  0  0  0  0  0
  -30.7420  -14.7473   20.6540 C   0  0  0  0  0  0  0  0  0  0  0  0
  -18.7823  -28.7227   19.2570 C   0  0  0  0  0  0  0  0  0  0  0  0
  -20.4382  -23.7392   23.8328 C   0  0  0  0  0  0  0  0  0  0  0  0
  -22.3426  -25.1631   25.5908 C   0  0  0  0  0  0  0  0  0  0  0  0
  -19.3118  -28.9923   20.6632 C   0  0  0  0  0  0  0  0  0  0  0  0
  -29.5984  -12.3666   18.2663 C   0  0  0  0  0  0  0  0  0  0  0  0
  -20.7332  -28.4586   20.8098 C   0  0  0  0  0  0  0  0  0  0  0  0
  -28.1625  -12.0712   18.7031 C   0  0  0  0  0  0  0  0  0  0  0  0
  -30.5191  -12.5857   19.4648 C   0  0  0  0  0  0  0  0  0  0  0  0
  -28.6212  -13.3130   20.8586 C   0  0  0  0  0  0  0  0  0  0  0  0
  -31.6129  -18.1569   23.8601 C   0  0  2  0  0  0  0  0  0  0  0  0
  -20.7762  -26.9396   20.6040 C   0  0  1  0  0  0  0  0  0  0  0  0
  -30.8104  -16.8956   21.8947 C   0  0  1  0  0  0  0  0  0  0  0  0
  -20.4061  -25.2564   23.9897 C   0  0  1  0  0  0  0  0  0  0  0  0
  -31.5707  -16.7357   23.2335 C   0  0  1  0  0  0  0  0  0  0  0  0
  -27.6436  -13.1401   19.6836 C   0  0  2  0  0  0  0  0  0  0  0  0
  -31.7200  -18.1217   25.3792 C   0  0  0  0  0  0  0  0  0  0  0  0
  -32.9586  -16.1348   23.0426 C   0  0  0  0  0  0  0  0  0  0  0  0
  -20.2370  -27.0012   31.5349 C   0  0  0  0  0  0  0  0  0  0  0  0
  -22.3427  -29.1215   25.6238 C   0  0  0  0  0  0  0  0  0  0  0  0
  -22.3747  -29.3409   28.1176 C   0  0  0  0  0  0  0  0  0  0  0  0
  -20.2381  -29.6491   26.8675 C   0  0  0  0  0  0  0  0  0  0  0  0
  -19.6346  -23.5813   29.9802 C   0  0  0  0  0  0  0  0  0  0  0  0
  -26.5357  -22.3048   25.3444 C   0  0  0  0  0  0  0  0  0  1  0  0
  -27.8307  -21.6326   24.9313 C   0  0  0  0  0  0  0  0  0  0  0  0
  -21.2145  -27.3287   27.0999 C   0  0  1  0  0  0  0  0  0  0  0  0
  -19.9158  -26.0250   30.4140 C   0  0  2  0  0  0  0  0  0  0  0  0
  -21.5498  -28.8356   26.9148 C   0  0  0  0  0  0  0  0  0  0  0  0
  -25.8589  -11.5465   20.2820 N   0  0  0  0  0  0  0  0  0  0  0  0
  -26.2347  -12.8305   20.1549 N   0  0  0  0  0  0  0  0  0  0  0  0
  -21.0211  -25.7085   25.2394 N   0  0  0  0  0  0  0  0  0  0  0  0
  -29.9707  -13.6122   20.3544 N   0  0  0  0  0  0  0  0  0  0  0  0
  -25.4677  -15.0571   20.4094 N   0  0  0  0  0  0  0  0  0  0  0  0
  -21.8879  -12.5784   21.6083 N   0  0  0  0  0  0  0  0  0  0  0  0
  -20.3016  -26.2556   21.7878 N   0  0  0  0  0  0  0  0  0  0  0  0
  -20.4406  -27.0318   28.3004 N   0  0  0  0  0  0  0  0  0  0  0  0
  -30.1449  -15.6742   21.4996 N   0  0  0  0  0  0  0  0  0  0  0  0
  -19.9546  -24.6425   30.9693 N   0  3  0  0  0  0  0  0  0  0  0  0
  -22.6614  -14.7192   21.3300 O   0  0  0  0  0  0  0  0  0  0  0  0
  -22.2999  -26.2442   22.9834 O   0  0  0  0  0  0  0  0  0  0  0  0
  -19.3229  -27.2467   25.6711 O   0  0  0  0  0  0  0  0  0  0  0  0
  -21.9685  -25.5554   29.2294 O   0  0  0  0  0  0  0  0  0  0  0  0
  -31.8764  -14.9243   20.1972 O   0  0  0  0  0  0  0  0  0  0  0  0
  -21.6183   -7.0149   21.7069 O   0  0  0  0  0  0  0  0  0  0  0  0
  -25.4483  -21.4153   25.0939 O   0  0  0  0  0  0  0  0  0  1  0  0
  -27.7810  -21.3442   23.5393 O   0  0  0  0  0  0  0  0  0  0  0  0
  -18.6416   -6.8460   26.3454 F   0  0  0  0  0  0  0  0  0  0  0  0
  -22.0757   -5.0680   23.6156 F   0  0  0  0  0  0  0  0  0  0  0  0
  1  2  1  0  0  0  0
  1  5  2  0  0  0  0
  2  6  2  0  0  0  0
  3  9  2  0  0  0  0
  3 18  1  0  0  0  0
  4 10  1  0  0  0  0
  4 18  2  0  0  0  0
  5 20  1  0  0  0  0
  6 22  1  0  0  0  0
  7 11  2  0  0  0  0
  7 21  1  0  0  0  0
  8 12  2  0  0  0  0
  8 23  1  0  0  0  0
  9 26  1  0  0  0  0
 10 26  2  0  0  0  0
 11 27  1  0  0  0  0
 12 28  1  0  0  0  0
 13 14  2  0  0  0  0
 13 29  1  0  0  0  0
 14 30  1  0  0  0  0
 15 24  1  0  0  0  0
 15 27  2  0  0  0  0
 16 25  1  0  0  0  0
 16 28  2  0  0  0  0
 17 30  2  0  0  0  0
 17 31  1  0  0  0  0
 18 32  1  0  0  0  0
 19 32  1  0  0  0  0
 19 33  2  0  0  0  0
 19 34  1  0  0  0  0
 20 22  2  0  0  0  0
 20 39  1  0  0  0  0
 21 24  2  0  0  0  0
 21 40  1  0  0  0  0
 22 49  1  0  0  0  0
 23 25  2  0  0  0  0
 23 50  1  0  0  0  0
 24 41  1  0  0  0  0
 25 48  1  0  0  0  0
 26 81  1  0  0  0  0
 27 82  1  0  0  0  0
 28 83  1  0  0  0  0
 29 31  2  0  0  0  0
 29 81  1  0  0  0  0
 30 84  1  0  0  0  0
 31 85  1  0  0  0  0
 32 66  2  0  0  0  0
 33 67  1  0  0  0  0
 33 70  1  0  0  0  0
 34 71  1  0  0  0  0
 34 76  2  0  0  0  0
 35 51  1  0  0  0  0
 35 72  1  0  0  0  0
 35 77  2  0  0  0  0
 36 63  1  0  0  0  0
 36 68  1  0  0  0  0
 36 78  2  0  0  0  0
 37 64  1  0  0  0  0
 37 73  1  0  0  0  0
 37 79  2  0  0  0  0
 38 69  1  0  0  0  0
 38 74  1  0  0  0  0
 38 80  2  0  0  0  0
 39 42  1  0  0  0  0
 40 51  1  0  0  0  0
 41 68  1  0  0  0  0
 42 44  1  0  0  0  0
 43 45  1  0  0  0  0
 43 46  1  0  0  0  0
 44 49  1  0  0  0  0
 45 53  1  0  0  0  0
 46 69  1  0  0  0  0
 47 53  1  0  0  0  0
 47 69  1  0  0  0  0
 48 52  1  0  0  0  0
 48 54  1  0  0  0  0
 49 72  1  0  0  0  0
 50 52  1  0  0  0  0
 50 74  1  0  0  0  0
 51 68  1  0  0  0  0
 52 55  1  0  0  0  0
 53 67  1  0  0  0  0
 56 64  1  0  0  0  0
 57 65  1  0  0  0  0
 58 65  1  0  0  0  0
 59 65  1  0  0  0  0
 60 75  1  0  0  0  0
 61 62  1  0  0  0  0
 61 82  1  0  0  0  0
 62 83  1  0  0  0  0
 63 65  1  0  0  0  0
 63 73  1  0  0  0  0
 64 75  1  0  0  0  0
 66 67  1  0  0  0  0
M  CHG  1  75   1
M  ISO  4  38 100  61 101  74 100  82 101
M  END
> <Batch ID>
0142

> <Smiles>
CNC(C)C(=O)NC(C(=O)N1Cc2cc([101O:1][101CH2:1]COc3ccc4c(c3)C(C)C(C)C4[100NH:0][100C:0](=O)N3CCCC(n4nc(-c5ccc(Oc6ccc(F)cc6F)cc5)c(C(N)=O)c4N)C3)ccc2CC1C(=O)NC1CCCc2ccccc21)C(C)(C)C

> <Shape>
0.210

> <Color>
0.191

> <Negative vol penalty>
0.000

$$$$

  -OEChem-04052321183D

 89 98  0     1  0  0  0  0  0999 V2000
  -29.6548  -39.2910   27.2304 C   0  0  0  0  0  0  0  0  0  0  0  0
  -29.6413  -37.9055   27.1061 C   0  0  0  0  0  0  0  0  0  0  0  0
  -23.3737   -9.5992   20.3759 C   0  0  0  0  0  0  0  0  0  0  0  0
  -24.1753   -9.9506   22.6278 C   0  0  0  0  0  0  0  0  0  0  0  0
  -28.9024  -40.0755   26.3573 C   0  0  0  0  0  0  0  0  0  0  0  0
  -28.8744  -37.3035   26.1092 C   0  0  0  0  0  0  0  0  0  0  0  0
  -31.3789  -33.6315   23.6825 C   0  0  0  0  0  0  0  0  0  0  0  0
  -31.5563  -24.1929   23.9165 C   0  0  0  0  0  0  0  0  0  0  0  0
  -22.7730   -8.4057   20.7759 C   0  0  0  0  0  0  0  0  0  0  0  0
  -23.5745   -8.7570   23.0279 C   0  0  0  0  0  0  0  0  0  0  0  0
  -31.4900  -32.4016   24.3296 C   0  0  0  0  0  0  0  0  0  0  0  0
  -32.0994  -25.4666   24.0844 C   0  0  0  0  0  0  0  0  0  0  0  0
  -20.4730   -7.6754   23.8224 C   0  0  0  0  0  0  0  0  0  0  0  0
  -19.7502   -7.6835   25.0153 C   0  0  0  0  0  0  0  0  0  0  0  0
  -29.6766  -31.5406   22.9919 C   0  0  0  0  0  0  0  0  0  0  0  0
  -29.7289  -25.1390   22.6505 C   0  0  0  0  0  0  0  0  0  0  0  0
  -21.2216   -5.9932   25.9182 C   0  0  0  0  0  0  0  0  0  0  0  0
  -24.0749  -10.3717   21.3018 C   0  0  0  0  0  0  0  0  0  0  0  0
  -24.1211  -12.8894   20.8936 C   0  0  0  0  0  0  0  0  0  0  0  0
  -28.1334  -39.4833   25.3431 C   0  0  0  0  0  0  0  0  0  0  0  0
  -30.4069  -33.8289   22.6912 C   0  0  0  0  0  0  0  0  0  0  0  0
  -28.1099  -38.0807   25.2225 C   0  0  0  0  0  0  0  0  0  0  0  0
  -29.5568  -32.7732   22.3319 C   0  0  0  0  0  0  0  0  0  0  0  0
  -30.3710  -24.0290   23.1995 C   0  0  0  0  0  0  0  0  0  0  0  0
  -30.2721  -26.4127   22.8184 C   0  0  0  0  0  0  0  0  0  0  0  0
  -22.8734   -7.9845   22.1019 C   0  0  0  0  0  0  0  0  0  0  0  0
  -30.6370  -31.3568   23.9863 C   0  0  0  0  0  0  0  0  0  0  0  0
  -31.4573  -26.5765   23.5353 C   0  0  0  0  0  0  0  0  0  0  0  0
  -21.5701   -6.8262   23.6773 C   0  0  0  0  0  0  0  0  0  0  0  0
  -20.1245   -6.8424   26.0633 C   0  0  0  0  0  0  0  0  0  0  0  0
  -21.9444   -5.9851   24.7252 C   0  0  0  0  0  0  0  0  0  0  0  0
  -24.6962  -11.6045   20.8891 C   0  0  0  0  0  0  0  0  0  0  0  0
  -25.1118  -13.7107   20.4137 C   0  0  0  0  0  0  0  0  0  0  0  0
  -22.8086  -13.3035   21.2956 C   0  0  0  0  0  0  0  0  0  0  0  0
  -27.8978  -35.7523   22.3613 C   0  0  0  0  0  0  0  0  0  0  0  0
  -27.7885  -34.4582   19.3888 C   0  0  0  0  0  0  0  0  0  0  0  0
  -28.5727  -31.8483   17.3345 C   0  0  0  0  0  0  0  0  0  0  0  0
  -30.4444  -15.3530   20.3047 C   0  0  0  0  0  0  0  0  0  0  0  0
  -27.2992  -40.3701   24.4530 C   0  0  0  0  0  0  0  0  0  0  0  0
  -30.3174  -35.1533   21.9839 C   0  0  0  0  0  0  0  0  0  0  0  0
  -28.5100  -32.9276   21.2601 C   0  0  0  0  0  0  0  0  0  0  0  0
  -26.8080  -39.6731   23.1868 C   0  0  0  0  0  0  0  0  0  0  0  0
  -29.5396  -12.6016   18.2340 C   0  0  0  0  0  0  0  0  0  0  0  0
  -26.2380  -38.2983   23.5212 C   0  0  0  0  0  0  0  0  0  0  0  0
  -28.1549  -12.1993   18.7446 C   0  0  0  0  0  0  0  0  0  0  0  0
  -29.8697  -18.5705   20.1679 C   0  0  0  0  0  0  0  0  0  0  0  0
  -29.8439  -18.1431   22.6646 C   0  0  0  0  0  0  0  0  0  0  0  0
  -30.3786  -19.9909   20.4173 C   0  0  0  0  0  0  0  0  0  0  0  0
  -30.3538  -19.5634   22.9122 C   0  0  0  0  0  0  0  0  0  0  0  0
  -30.4500  -13.0582   19.3719 C   0  0  0  0  0  0  0  0  0  0  0  0
  -28.5060  -13.7234   20.7328 C   0  0  0  0  0  0  0  0  0  0  0  0
  -27.3100  -37.3918   24.1382 C   0  0  1  0  0  0  0  0  0  0  0  0
  -28.9521  -35.4012   21.3500 C   0  0  1  0  0  0  0  0  0  0  0  0
  -27.5341  -13.3087   19.6148 C   0  0  2  0  0  0  0  0  0  0  0  0
  -30.2867  -17.6206   21.2943 C   0  0  0  0  0  0  0  0  0  0  0  0
  -29.9269  -20.4992   21.7841 C   0  0  0  0  0  0  0  0  0  0  0  0
  -29.5722  -27.5897   22.2228 C   0  0  0  0  0  0  0  0  0  0  0  0
  -28.3184  -31.0608   14.9655 C   0  0  0  0  0  0  0  0  0  0  0  0
  -24.8710  -33.7539   19.9388 C   0  0  0  0  0  0  0  0  0  0  0  0
  -24.9577  -32.1780   17.9952 C   0  0  0  0  0  0  0  0  0  0  0  0
  -25.3188  -34.6200   17.6358 C   0  0  0  0  0  0  0  0  0  0  0  0
  -31.5026  -31.7694   16.9237 C   0  0  0  0  0  0  0  0  0  0  0  0
  -29.7915  -22.6668   23.0192 C   0  0  0  0  0  0  0  0  0  0  0  0
  -32.0373  -29.7802   25.0861 C   0  0  0  0  0  0  0  0  0  1  0  0
  -32.1572  -28.2689   25.0525 C   0  0  0  0  0  0  0  0  0  0  0  0
  -27.1188  -33.2547   18.7707 C   0  0  1  0  0  0  0  0  0  0  0  0
  -29.2013  -31.8072   15.9533 C   0  0  2  0  0  0  0  0  0  0  0  0
  -25.5849  -33.4490   18.6067 C   0  0  0  0  0  0  0  0  0  0  0  0
  -25.9547  -11.6044   20.4417 N   0  0  0  0  0  0  0  0  0  0  0  0
  -26.1785  -12.8994   20.1604 N   0  0  0  0  0  0  0  0  0  0  0  0
  -28.4576  -34.2435   20.6020 N   0  0  0  0  0  0  0  0  0  0  0  0
  -29.8032  -14.1120   20.1574 N   0  0  0  0  0  0  0  0  0  0  0  0
  -25.1659  -15.0406   20.1877 N   0  0  0  0  0  0  0  0  0  0  0  0
  -21.9154  -12.3306   21.7646 N   0  0  0  0  0  0  0  0  0  0  0  0
  -28.1888  -36.8764   23.1103 N   0  0  0  0  0  0  0  0  0  0  0  0
  -27.8247  -32.9915   17.5214 N   0  0  0  0  0  0  0  0  0  0  0  0
  -29.7599  -16.2980   21.0592 N   0  0  0  0  0  0  0  0  0  0  0  0
  -30.5236  -21.8406   22.0198 N   0  3  0  0  0  0  0  0  0  0  0  0
  -30.5260  -31.1266   16.0072 N   0  3  0  0  0  0  0  0  0  0  0  0
  -22.4334  -14.4984   21.2253 O   0  0  0  0  0  0  0  0  0  0  0  0
  -26.8938  -35.0557   22.4541 O   0  0  0  0  0  0  0  0  0  0  0  0
  -27.7263  -35.5472   18.8127 O   0  0  0  0  0  0  0  0  0  0  0  0
  -28.7266  -30.9539   18.1633 O   0  0  0  0  0  0  0  0  0  0  0  0
  -31.5429  -15.6023   19.7967 O   0  0  0  0  0  0  0  0  0  0  0  0
  -22.2871   -6.8200   22.4926 O   0  0  0  0  0  0  0  0  0  0  0  0
  -30.7429  -30.1555   24.6168 O   0  0  0  0  0  0  0  0  0  1  0  0
  -32.0041  -27.8204   23.7114 O   0  0  0  0  0  0  0  0  0  0  0  0
  -19.4313   -6.8514   27.2093 F   0  0  0  0  0  0  0  0  0  0  0  0
  -22.9981   -5.1680   24.5922 F   0  0  0  0  0  0  0  0  0  0  0  0
  1  2  1  0  0  0  0
  1  5  2  0  0  0  0
  2  6  2  0  0  0  0
  3  9  2  0  0  0  0
  3 18  1  0  0  0  0
  4 10  1  0  0  0  0
  4 18  2  0  0  0  0
  5 20  1  0  0  0  0
  6 22  1  0  0  0  0
  7 11  2  0  0  0  0
  7 21  1  0  0  0  0
  8 12  2  0  0  0  0
  8 24  1  0  0  0  0
  9 26  1  0  0  0  0
 10 26  2  0  0  0  0
 11 27  1  0  0  0  0
 12 28  1  0  0  0  0
 13 14  2  0  0  0  0
 13 29  1  0  0  0  0
 14 30  1  0  0  0  0
 15 23  1  0  0  0  0
 15 27  2  0  0  0  0
 16 24  2  0  0  0  0
 16 25  1  0  0  0  0
 17 30  2  0  0  0  0
 17 31  1  0  0  0  0
 18 32  1  0  0  0  0
 19 32  1  0  0  0  0
 19 33  2  0  0  0  0
 19 34  1  0  0  0  0
 20 22  2  0  0  0  0
 20 39  1  0  0  0  0
 21 23  2  0  0  0  0
 21 40  1  0  0  0  0
 22 52  1  0  0  0  0
 23 41  1  0  0  0  0
 24 63  1  0  0  0  0
 25 28  2  0  0  0  0
 25 57  1  0  0  0  0
 26 85  1  0  0  0  0
 27 86  1  0  0  0  0
 28 87  1  0  0  0  0
 29 31  2  0  0  0  0
 29 85  1  0  0  0  0
 30 88  1  0  0  0  0
 31 89  1  0  0  0  0
 32 69  2  0  0  0  0
 33 70  1  0  0  0  0
 33 73  1  0  0  0  0
 34 74  1  0  0  0  0
 34 80  2  0  0  0  0
 35 53  1  0  0  0  0
 35 75  1  0  0  0  0
 35 81  2  0  0  0  0
 36 66  1  0  0  0  0
 36 71  1  0  0  0  0
 36 82  2  0  0  0  0
 37 67  1  0  0  0  0
 37 76  1  0  0  0  0
 37 83  2  0  0  0  0
 38 72  1  0  0  0  0
 38 77  1  0  0  0  0
 38 84  2  0  0  0  0
 39 42  1  0  0  0  0
 40 53  1  0  0  0  0
 41 71  1  0  0  0  0
 42 44  1  0  0  0  0
 43 45  1  0  0  0  0
 43 50  1  0  0  0  0
 44 52  1  0  0  0  0
 45 54  1  0  0  0  0
 46 48  1  0  0  0  0
 46 55  1  0  0  0  0
 47 49  1  0  0  0  0
 47 55  1  0  0  0  0
 48 56  1  0  0  0  0
 49 56  1  0  0  0  0
 50 72  1  0  0  0  0
 51 54  1  0  0  0  0
 51 72  1  0  0  0  0
 52 75  1  0  0  0  0
 53 71  1  0  0  0  0
 54 70  1  0  0  0  0
 55 77  1  0  0  0  0
 56 78  1  0  0  0  0
 58 67  1  0  0  0  0
 59 68  1  0  0  0  0
 60 68  1  0  0  0  0
 61 68  1  0  0  0  0
 62 79  1  0  0  0  0
 63 78  1  0  0  0  0
 64 65  1  0  0  0  0
 64 86  1  0  0  0  0
 65 87  1  0  0  0  0
 66 68  1  0  0  0  0
 66 76  1  0  0  0  0
 67 79  1  0  0  0  0
 69 70  1  0  0  0  0
M  CHG  2  78   1  79   1
M  ISO  4  38 100  64 101  77 100  86 101
M  END
> <Batch ID>
0142

> <Smiles>
CNC(C)C(=O)NC(C(=O)N1Cc2cc([101O:1][101CH2:1]COc3ccc(CNC4CCC([100NH:0][100C:0](=O)N5CCCC(n6nc(-c7ccc(Oc8ccc(F)cc8F)cc7)c(C(N)=O)c6N)C5)CC4)cc3C)ccc2CC1C(=O)NC1CCCc2ccccc21)C(C)(C)C

> <Shape>
0.209

> <Color>
0.166

> <Negative vol penalty>
0.000

$$$$

  -OEChem-04052321183D

 81 89  0     1  0  0  0  0  0999 V2000
  -27.1482  -35.7623   22.3798 C   0  0  0  0  0  0  0  0  0  0  0  0
  -27.5126  -34.4217   22.3065 C   0  0  0  0  0  0  0  0  0  0  0  0
  -24.0340  -13.6912   19.8519 C   0  0  0  0  0  0  0  0  0  0  0  0
  -26.3194  -13.8665   20.6158 C   0  0  0  0  0  0  0  0  0  0  0  0
  -25.8817  -36.1148   22.8443 C   0  0  0  0  0  0  0  0  0  0  0  0
  -26.6111  -33.4328   22.6987 C   0  0  0  0  0  0  0  0  0  0  0  0
  -26.4269  -29.5664   19.4334 C   0  0  0  0  0  0  0  0  0  0  0  0
  -24.1281  -12.3001   19.8896 C   0  0  0  0  0  0  0  0  0  0  0  0
  -26.4135  -12.4753   20.6535 C   0  0  0  0  0  0  0  0  0  0  0  0
  -27.4626  -28.6348   19.4906 C   0  0  0  0  0  0  0  0  0  0  0  0
  -24.0086   -9.8576   22.2247 C   0  0  0  0  0  0  0  0  0  0  0  0
  -22.9501   -9.1515   22.7962 C   0  0  0  0  0  0  0  0  0  0  0  0
  -26.0476  -27.1486   20.7588 C   0  0  0  0  0  0  0  0  0  0  0  0
  -22.5911   -7.9968   20.7045 C   0  0  0  0  0  0  0  0  0  0  0  0
  -25.1297  -14.4745   20.2150 C   0  0  0  0  0  0  0  0  0  0  0  0
  -24.6201  -16.7646   21.2167 C   0  0  0  0  0  0  0  0  0  0  0  0
  -24.9608  -35.1293   23.2332 C   0  0  0  0  0  0  0  0  0  0  0  0
  -25.1953  -29.3002   20.0488 C   0  0  0  0  0  0  0  0  0  0  0  0
  -25.3316  -33.7725   23.1700 C   0  0  0  0  0  0  0  0  0  0  0  0
  -24.9971  -28.0774   20.7058 C   0  0  0  0  0  0  0  0  0  0  0  0
  -25.3178  -11.6921   20.2903 C   0  0  0  0  0  0  0  0  0  0  0  0
  -27.2740  -27.4269   20.1558 C   0  0  0  0  0  0  0  0  0  0  0  0
  -24.3583   -9.6334   20.8931 C   0  0  0  0  0  0  0  0  0  0  0  0
  -22.2414   -8.2211   22.0361 C   0  0  0  0  0  0  0  0  0  0  0  0
  -23.6496   -8.7030   20.1330 C   0  0  0  0  0  0  0  0  0  0  0  0
  -25.0332  -15.9116   20.1758 C   0  0  0  0  0  0  0  0  0  0  0  0
  -24.7035  -18.0262   20.6803 C   0  0  0  0  0  0  0  0  0  0  0  0
  -24.1987  -16.4450   22.5494 C   0  0  0  0  0  0  0  0  0  0  0  0
  -23.5193  -30.6486   22.3891 C   0  0  0  0  0  0  0  0  0  0  0  0
  -21.2790  -28.4734   21.5106 C   0  0  0  0  0  0  0  0  0  0  0  0
  -20.5696  -25.4815   20.0300 C   0  0  0  0  0  0  0  0  0  0  0  0
  -27.9663  -20.3592   16.2348 C   0  0  0  0  0  0  0  0  0  0  0  0
  -23.6204  -35.5610   23.7733 C   0  0  0  0  0  0  0  0  0  0  0  0
  -24.0794  -30.3043   19.9552 C   0  0  0  0  0  0  0  0  0  0  0  0
  -23.6871  -27.7348   21.3653 C   0  0  0  0  0  0  0  0  0  0  0  0
  -22.5897  -34.4357   23.8158 C   0  0  0  0  0  0  0  0  0  0  0  0
  -24.4163  -20.3468   16.5062 C   0  0  0  0  0  0  0  0  0  0  0  0
  -23.2017  -33.1736   24.4153 C   0  0  0  0  0  0  0  0  0  0  0  0
  -30.2127  -22.4348   21.7366 C   0  0  0  0  0  0  0  0  0  0  0  0
  -29.6212  -23.7077   22.3501 C   0  0  0  0  0  0  0  0  0  0  0  0
  -24.1345  -19.2857   17.5713 C   0  0  0  0  0  0  0  0  0  0  0  0
  -29.3968  -23.8356   19.9590 C   0  0  0  0  0  0  0  0  0  0  0  0
  -25.5997  -19.9590   15.6223 C   0  0  0  0  0  0  0  0  0  0  0  0
  -26.5557  -18.5691   17.4190 C   0  0  0  0  0  0  0  0  0  0  0  0
  -24.3726  -32.6697   23.5629 C   0  0  1  0  0  0  0  0  0  0  0  0
  -23.0376  -30.1444   21.0581 C   0  0  1  0  0  0  0  0  0  0  0  0
  -30.4153  -22.7364   20.2489 C   0  0  2  0  0  0  0  0  0  0  0  0
  -29.5013  -24.7143   21.2025 C   0  0  1  0  0  0  0  0  0  0  0  0
  -25.4060  -18.9420   18.3705 C   0  0  2  0  0  0  0  0  0  0  0  0
  -18.6520  -23.9531   19.4967 C   0  0  0  0  0  0  0  0  0  0  0  0
  -28.4670  -26.5222   22.6123 C   0  0  0  0  0  0  0  0  0  0  0  0
  -21.1822  -27.5812   24.4268 C   0  0  0  0  0  0  0  0  0  0  0  0
  -20.0150  -25.4968   23.6777 C   0  0  0  0  0  0  0  0  0  0  0  0
  -18.9518  -27.7223   23.3045 C   0  0  0  0  0  0  0  0  0  0  0  0
  -21.0653  -25.6854   17.1194 C   0  0  0  0  0  0  0  0  0  0  0  0
  -30.2467  -21.5156   19.3608 C   0  0  0  0  0  0  0  0  0  0  0  0
  -30.4226  -21.8699   17.8818 C   0  0  0  0  0  0  0  0  0  0  0  0
  -30.3186  -20.6522   16.9696 C   0  0  0  0  0  0  0  0  0  0  0  0
  -20.9520  -27.0547   21.9097 C   0  0  1  0  0  0  0  0  0  0  0  0
  -19.5286  -25.0908   18.9965 C   0  0  2  0  0  0  0  0  0  0  0  0
  -28.3285  -25.6686   21.3609 C   0  0  1  0  0  0  0  0  0  1  0  0
  -20.3007  -26.9707   23.3190 C   0  0  0  0  0  0  0  0  0  0  0  0
  -25.3550  -16.5753   19.0623 N   0  0  0  0  0  0  0  0  0  0  0  0
  -25.1440  -17.8587   19.4004 N   0  0  0  0  0  0  0  0  0  0  0  0
  -22.6286  -28.7518   21.2517 N   0  0  0  0  0  0  0  0  0  0  0  0
  -26.7734  -19.6469   16.4414 N   0  0  0  0  0  0  0  0  0  0  0  0
  -24.4422  -19.2514   21.1832 N   0  0  0  0  0  0  0  0  0  0  0  0
  -24.1717  -15.0984   22.9368 N   0  0  0  0  0  0  0  0  0  0  0  0
  -23.8829  -31.9818   22.3876 N   0  0  0  0  0  0  0  0  0  0  0  0
  -20.1277  -26.5085   20.8370 N   0  0  0  0  0  0  0  0  0  0  0  0
  -29.0285  -20.0053   17.0578 N   0  0  0  0  0  0  0  0  0  0  0  0
  -20.1900  -24.6545   17.7343 N   0  3  0  0  0  0  0  0  0  0  0  0
  -23.8405  -17.3264   23.3670 O   0  0  0  0  0  0  0  0  0  0  0  0
  -23.5570  -29.8850   23.3468 O   0  0  0  0  0  0  0  0  0  0  0  0
  -20.3695  -29.3023   21.4244 O   0  0  0  0  0  0  0  0  0  0  0  0
  -21.6637  -24.9283   20.1155 O   0  0  0  0  0  0  0  0  0  0  0  0
  -28.0751  -21.2487   15.3839 O   0  0  0  0  0  0  0  0  0  0  0  0
  -25.4099  -10.3346   20.3274 O   0  0  0  0  0  0  0  0  0  0  0  0
  -28.2834  -26.5161   20.2137 O   0  0  0  0  0  0  0  0  0  1  0  0
  -21.2259   -7.5420   22.5855 F   0  0  0  0  0  0  0  0  0  0  0  0
  -23.9816   -8.4824   18.8536 F   0  0  0  0  0  0  0  0  0  0  0  0
  1  2  1  0  0  0  0
  1  5  2  0  0  0  0
  2  6  2  0  0  0  0
  3  8  2  0  0  0  0
  3 15  1  0  0  0  0
  4  9  1  0  0  0  0
  4 15  2  0  0  0  0
  5 17  1  0  0  0  0
  6 19  1  0  0  0  0
  7 10  2  0  0  0  0
  7 18  1  0  0  0  0
  8 21  1  0  0  0  0
  9 21  2  0  0  0  0
 10 22  1  0  0  0  0
 11 12  2  0  0  0  0
 11 23  1  0  0  0  0
 12 24  1  0  0  0  0
 13 20  1  0  0  0  0
 13 22  2  0  0  0  0
 14 24  2  0  0  0  0
 14 25  1  0  0  0  0
 15 26  1  0  0  0  0
 16 26  1  0  0  0  0
 16 27  2  0  0  0  0
 16 28  1  0  0  0  0
 17 19  2  0  0  0  0
 17 33  1  0  0  0  0
 18 20  2  0  0  0  0
 18 34  1  0  0  0  0
 19 45  1  0  0  0  0
 20 35  1  0  0  0  0
 21 78  1  0  0  0  0
 22 79  1  0  0  0  0
 23 25  2  0  0  0  0
 23 78  1  0  0  0  0
 24 80  1  0  0  0  0
 25 81  1  0  0  0  0
 26 63  2  0  0  0  0
 27 64  1  0  0  0  0
 27 67  1  0  0  0  0
 28 68  1  0  0  0  0
 28 73  2  0  0  0  0
 29 46  1  0  0  0  0
 29 69  1  0  0  0  0
 29 74  2  0  0  0  0
 30 59  1  0  0  0  0
 30 65  1  0  0  0  0
 30 75  2  0  0  0  0
 31 60  1  0  0  0  0
 31 70  1  0  0  0  0
 31 76  2  0  0  0  0
 32 66  1  0  0  0  0
 32 71  1  0  0  0  0
 32 77  2  0  0  0  0
 33 36  1  0  0  0  0
 34 46  1  0  0  0  0
 35 65  1  0  0  0  0
 36 38  1  0  0  0  0
 37 41  1  0  0  0  0
 37 43  1  0  0  0  0
 38 45  1  0  0  0  0
 39 40  1  0  0  0  0
 39 47  1  0  0  0  0
 40 48  1  0  0  0  0
 41 49  1  0  0  0  0
 42 47  1  0  0  0  0
 42 48  1  0  0  0  0
 43 66  1  0  0  0  0
 44 49  1  0  0  0  0
 44 66  1  0  0  0  0
 45 69  1  0  0  0  0
 46 65  1  0  0  0  0
 47 56  1  0  0  0  0
 48 61  1  0  0  0  0
 49 64  1  0  0  0  0
 50 60  1  0  0  0  0
 51 61  1  0  0  0  0
 52 62  1  0  0  0  0
 53 62  1  0  0  0  0
 54 62  1  0  0  0  0
 55 72  1  0  0  0  0
 56 57  1  0  0  0  0
 57 58  1  0  0  0  0
 58 71  1  0  0  0  0
 59 62  1  0  0  0  0
 59 70  1  0  0  0  0
 60 72  1  0  0  0  0
 61 79  1  0  0  0  0
 63 64  1  0  0  0  0
M  CHG  1  72   1
M  ISO  4  32 100  61 101  71 100  79 101
M  END
> <Batch ID>
0142

> <Smiles>
CNC(C)C(=O)NC(C(=O)N1Cc2cc([101O:1][101CH:1](C)C3CCC(CCC[100NH:0][100C:0](=O)N4CCCC(n5nc(-c6ccc(Oc7ccc(F)cc7F)cc6)c(C(N)=O)c5N)C4)C3)ccc2CC1C(=O)NC1CCCc2ccccc21)C(C)(C)C

> <Shape>
0.250

> <Color>
0.080

> <Negative vol penalty>
0.000

$$$$

  -OEChem-04052321183D

 90100  0     1  0  0  0  0  0999 V2000
  -32.5487  -12.7245   21.3083 C   0  0  0  0  0  0  0  0  0  0  0  0
  -32.1662  -14.0588   21.4023 C   0  0  0  0  0  0  0  0  0  0  0  0
  -29.3038  -24.6621   19.7484 C   0  0  0  0  0  0  0  0  0  0  0  0
  -27.8817  -23.8100   21.5059 C   0  0  0  0  0  0  0  0  0  0  0  0
  -31.7241  -11.8084   20.6565 C   0  0  0  0  0  0  0  0  0  0  0  0
  -30.9593  -14.4780   20.8436 C   0  0  0  0  0  0  0  0  0  0  0  0
  -25.6695  -19.1967   21.8768 C   0  0  0  0  0  0  0  0  0  0  0  0
  -18.8019  -25.3430   18.7485 C   0  0  0  0  0  0  0  0  0  0  0  0
  -30.3395  -23.8368   20.1864 C   0  0  0  0  0  0  0  0  0  0  0  0
  -28.9174  -22.9847   21.9438 C   0  0  0  0  0  0  0  0  0  0  0  0
  -24.9666  -20.1921   21.1994 C   0  0  0  0  0  0  0  0  0  0  0  0
  -19.9500  -24.6001   19.0230 C   0  0  0  0  0  0  0  0  0  0  0  0
  -30.3113  -20.0439   21.0332 C   0  0  0  0  0  0  0  0  0  0  0  0
  -29.9977  -18.7193   21.3377 C   0  0  0  0  0  0  0  0  0  0  0  0
  -23.5856  -18.5055   20.1662 C   0  0  0  0  0  0  0  0  0  0  0  0
  -20.1038  -25.6412   21.1977 C   0  0  0  0  0  0  0  0  0  0  0  0
  -30.7546  -19.0618   23.6064 C   0  0  0  0  0  0  0  0  0  0  0  0
  -28.0749  -24.6488   20.4082 C   0  0  0  0  0  0  0  0  0  0  0  0
  -26.0146  -25.1915   19.0053 C   0  0  0  0  0  0  0  0  0  0  0  0
  -30.5020  -12.2147   20.0978 C   0  0  0  0  0  0  0  0  0  0  0  0
  -25.3423  -17.8452   21.6953 C   0  0  0  0  0  0  0  0  0  0  0  0
  -18.3047  -26.2352   19.6986 C   0  0  0  0  0  0  0  0  0  0  0  0
  -30.1183  -13.5667   20.1824 C   0  0  0  0  0  0  0  0  0  0  0  0
  -24.2842  -17.4950   20.8444 C   0  0  0  0  0  0  0  0  0  0  0  0
  -18.9557  -26.3842   20.9232 C   0  0  0  0  0  0  0  0  0  0  0  0
  -30.1463  -22.9981   21.2840 C   0  0  0  0  0  0  0  0  0  0  0  0
  -23.9264  -19.8465   20.3418 C   0  0  0  0  0  0  0  0  0  0  0  0
  -20.6010  -24.7491   20.2476 C   0  0  0  0  0  0  0  0  0  0  0  0
  -30.8466  -20.8774   22.0152 C   0  0  0  0  0  0  0  0  0  0  0  0
  -30.2194  -18.2282   22.6243 C   0  0  0  0  0  0  0  0  0  0  0  0
  -31.0682  -20.3864   23.3018 C   0  0  0  0  0  0  0  0  0  0  0  0
  -27.0048  -25.5015   19.9567 C   0  0  0  0  0  0  0  0  0  0  0  0
  -25.2426  -26.3251   18.9314 C   0  0  0  0  0  0  0  0  0  0  0  0
  -25.8107  -23.9865   18.2555 C   0  0  0  0  0  0  0  0  0  0  0  0
  -26.8770  -15.2964   20.5763 C   0  0  0  0  0  0  0  0  0  0  0  0
  -24.2086  -13.7396   21.5655 C   0  0  0  0  0  0  0  0  0  0  0  0
  -20.8834  -13.8818   22.3199 C   0  0  0  0  0  0  0  0  0  0  0  0
  -22.5262  -30.5324   21.3941 C   0  0  0  0  0  0  0  0  0  0  0  0
  -29.6665  -11.1975   19.3617 C   0  0  0  0  0  0  0  0  0  0  0  0
  -26.0927  -16.7851   22.4538 C   0  0  0  0  0  0  0  0  0  0  0  0
  -23.8803  -16.0599   20.6306 C   0  0  0  0  0  0  0  0  0  0  0  0
  -28.2278  -11.6487   19.1234 C   0  0  0  0  0  0  0  0  0  0  0  0
  -26.0115  -30.9599   20.8058 C   0  0  0  0  0  0  0  0  0  0  0  0
  -15.7385  -26.4970   19.8385 C   0  0  0  0  0  0  0  0  0  0  0  0
  -16.0925  -26.4751   18.3844 C   0  0  0  0  0  0  0  0  0  0  0  0
  -28.1974  -13.0795   18.5955 C   0  0  0  0  0  0  0  0  0  0  0  0
  -26.4996  -29.5520   20.4604 C   0  0  0  0  0  0  0  0  0  0  0  0
  -24.9227  -30.9330   21.8762 C   0  0  0  0  0  0  0  0  0  0  0  0
  -24.2642  -28.6489   21.2259 C   0  0  0  0  0  0  0  0  0  0  0  0
  -18.2291  -26.8406   23.4320 C   0  0  0  0  0  0  0  0  0  0  0  0
  -17.0754  -27.0212   19.3859 C   0  0  0  0  0  0  0  0  0  0  0  0
  -18.4209  -27.3728   21.9970 C   0  0  1  0  0  0  0  0  0  0  0  0
  -28.8050  -14.0551   19.6106 C   0  0  1  0  0  0  0  0  0  0  0  0
  -26.0101  -15.4099   21.7983 C   0  0  1  0  0  0  0  0  0  0  0  0
  -25.3232  -28.6208   20.1106 C   0  0  2  0  0  0  0  0  0  0  0  0
  -19.4329  -28.3534   22.6419 C   0  0  1  0  0  0  0  0  0  0  0  0
  -18.9686  -12.4400   23.0629 C   0  0  0  0  0  0  0  0  0  0  0  0
  -23.9957  -12.5771   18.7525 C   0  0  0  0  0  0  0  0  0  0  0  0
  -21.6276  -11.9482   19.2669 C   0  0  0  0  0  0  0  0  0  0  0  0
  -23.4951  -10.9576   20.5912 C   0  0  0  0  0  0  0  0  0  0  0  0
  -19.6113  -28.0220   25.0696 C   0  0  0  0  0  0  0  0  0  0  0  0
  -20.5059  -15.4580   24.7962 C   0  0  0  0  0  0  0  0  0  0  0  0
  -19.3860  -29.7921   22.1656 C   0  0  0  0  0  0  0  0  0  0  0  0
  -20.1651  -29.9790   20.8663 C   0  0  0  0  0  0  0  0  0  0  0  0
  -23.1287  -22.0868   20.3188 C   0  0  0  0  0  0  0  0  0  1  0  0
  -21.8263  -22.7408   19.8996 C   0  0  0  0  0  0  0  0  0  0  0  0
  -22.8824  -13.3860   20.9370 C   0  0  1  0  0  0  0  0  0  0  0  0
  -20.0967  -13.3578   23.5077 C   0  0  2  0  0  0  0  0  0  0  0  0
  -23.0088  -12.2442   19.8892 C   0  0  0  0  0  0  0  0  0  0  0  0
  -26.8762  -26.7354   20.4515 N   0  0  0  0  0  0  0  0  0  0  0  0
  -25.7960  -27.2108   19.8085 N   0  0  0  0  0  0  0  0  0  0  0  0
  -24.6484  -15.0594   21.3898 N   0  0  0  0  0  0  0  0  0  0  0  0
  -23.8360  -30.0329   21.4827 N   0  0  0  0  0  0  0  0  0  0  0  0
  -24.1512  -26.6407   18.2022 N   0  0  0  0  0  0  0  0  0  0  0  0
  -26.6965  -22.9185   18.4534 N   0  0  0  0  0  0  0  0  0  0  0  0
  -27.8618  -14.3318   20.6727 N   0  0  0  0  0  0  0  0  0  0  0  0
  -21.9749  -13.0873   22.0396 N   0  0  0  0  0  0  0  0  0  0  0  0
  -21.5571  -29.6143   21.0083 N   0  0  0  0  0  0  0  0  0  0  0  0
  -18.6965  -28.1541   23.9137 N   0  3  2  0  0  0  0  0  0  0  0  0
  -19.5064  -14.4889   24.2778 N   0  3  0  0  0  0  0  0  0  0  0  0
  -24.8807  -23.8665   17.4223 O   0  0  0  0  0  0  0  0  0  0  0  0
  -26.6671  -16.0287   19.6165 O   0  0  0  0  0  0  0  0  0  0  0  0
  -24.8282  -12.8787   22.1953 O   0  0  0  0  0  0  0  0  0  0  0  0
  -20.5597  -14.8927   21.7003 O   0  0  0  0  0  0  0  0  0  0  0  0
  -22.2422  -31.7106   21.6355 O   0  0  0  0  0  0  0  0  0  0  0  0
  -31.1566  -22.1924   21.7115 O   0  0  0  0  0  0  0  0  0  0  0  0
  -23.2391  -20.8161   19.6789 O   0  0  0  0  0  0  0  0  0  1  0  0
  -21.7283  -24.0186   20.5169 O   0  0  0  0  0  0  0  0  0  0  0  0
  -29.9168  -16.9567   22.9171 F   0  0  0  0  0  0  0  0  0  0  0  0
  -31.5812  -21.1827   24.2497 F   0  0  0  0  0  0  0  0  0  0  0  0
  1  2  1  0  0  0  0
  1  5  2  0  0  0  0
  2  6  2  0  0  0  0
  3  9  2  0  0  0  0
  3 18  1  0  0  0  0
  4 10  1  0  0  0  0
  4 18  2  0  0  0  0
  5 20  1  0  0  0  0
  6 23  1  0  0  0  0
  7 11  2  0  0  0  0
  7 21  1  0  0  0  0
  8 12  2  0  0  0  0
  8 22  1  0  0  0  0
  9 26  1  0  0  0  0
 10 26  2  0  0  0  0
 11 27  1  0  0  0  0
 12 28  1  0  0  0  0
 13 14  2  0  0  0  0
 13 29  1  0  0  0  0
 14 30  1  0  0  0  0
 15 24  1  0  0  0  0
 15 27  2  0  0  0  0
 16 25  1  0  0  0  0
 16 28  2  0  0  0  0
 17 30  2  0  0  0  0
 17 31  1  0  0  0  0
 18 32  1  0  0  0  0
 19 32  1  0  0  0  0
 19 33  2  0  0  0  0
 19 34  1  0  0  0  0
 20 23  2  0  0  0  0
 20 39  1  0  0  0  0
 21 24  2  0  0  0  0
 21 40  1  0  0  0  0
 22 25  2  0  0  0  0
 22 51  1  0  0  0  0
 23 53  1  0  0  0  0
 24 41  1  0  0  0  0
 25 52  1  0  0  0  0
 26 86  1  0  0  0  0
 27 87  1  0  0  0  0
 28 88  1  0  0  0  0
 29 31  2  0  0  0  0
 29 86  1  0  0  0  0
 30 89  1  0  0  0  0
 31 90  1  0  0  0  0
 32 70  2  0  0  0  0
 33 71  1  0  0  0  0
 33 74  1  0  0  0  0
 34 75  1  0  0  0  0
 34 81  2  0  0  0  0
 35 54  1  0  0  0  0
 35 76  1  0  0  0  0
 35 82  2  0  0  0  0
 36 67  1  0  0  0  0
 36 72  1  0  0  0  0
 36 83  2  0  0  0  0
 37 68  1  0  0  0  0
 37 77  1  0  0  0  0
 37 84  2  0  0  0  0
 38 73  1  0  0  0  0
 38 78  1  0  0  0  0
 38 85  2  0  0  0  0
 39 42  1  0  0  0  0
 40 54  1  0  0  0  0
 41 72  1  0  0  0  0
 42 46  1  0  0  0  0
 43 47  1  0  0  0  0
 43 48  1  0  0  0  0
 44 45  1  0  0  0  0
 44 51  1  0  0  0  0
 45 51  1  0  0  0  0
 46 53  1  0  0  0  0
 47 55  1  0  0  0  0
 48 73  1  0  0  0  0
 49 55  1  0  0  0  0
 49 73  1  0  0  0  0
 50 52  1  0  0  0  0
 50 79  1  0  0  0  0
 52 56  1  0  0  0  0
 53 76  1  0  0  0  0
 54 72  1  0  0  0  0
 55 71  1  0  0  0  0
 56 63  1  0  0  0  0
 56 79  1  0  0  0  0
 57 68  1  0  0  0  0
 58 69  1  0  0  0  0
 59 69  1  0  0  0  0
 60 69  1  0  0  0  0
 61 79  1  0  0  0  0
 62 80  1  0  0  0  0
 63 64  1  0  0  0  0
 64 78  1  0  0  0  0
 65 66  1  0  0  0  0
 65 87  1  0  0  0  0
 66 88  1  0  0  0  0
 67 69  1  0  0  0  0
 67 77  1  0  0  0  0
 68 80  1  0  0  0  0
 70 71  1  0  0  0  0
M  CHG  2  79   1  80   1
M  ISO  4  38 100  65 101  78 100  87 101
M  END
> <Batch ID>
0142

> <Smiles>
CNC(C)C(=O)NC(C(=O)N1Cc2cc([101O:1][101CH2:1]COc3ccc(C4CC4)c(C4CN(C)C4CC[100NH:0][100C:0](=O)N4CCCC(n5nc(-c6ccc(Oc7ccc(F)cc7F)cc6)c(C(N)=O)c5N)C4)c3)ccc2CC1C(=O)NC1CCCc2ccccc21)C(C)(C)C

> <Shape>
0.250

> <Color>
0.064

> <Negative vol penalty>
0.000

$$$$

  -OEChem-04052321183D

 84 93  0     1  0  0  0  0  0999 V2000
  -18.7991  -34.0445   19.4105 C   0  0  0  0  0  0  0  0  0  0  0  0
  -18.3937  -32.7384   19.6658 C   0  0  0  0  0  0  0  0  0  0  0  0
  -22.6450  -10.3183   20.2098 C   0  0  0  0  0  0  0  0  0  0  0  0
  -24.2072   -9.5694   21.8937 C   0  0  0  0  0  0  0  0  0  0  0  0
  -19.9341  -34.2822   18.6365 C   0  0  0  0  0  0  0  0  0  0  0  0
  -19.1225  -31.6692   19.1463 C   0  0  0  0  0  0  0  0  0  0  0  0
  -21.9964  -26.6857   23.4818 C   0  0  0  0  0  0  0  0  0  0  0  0
  -21.8674   -9.1805   20.4252 C   0  0  0  0  0  0  0  0  0  0  0  0
  -23.4296   -8.4316   22.1092 C   0  0  0  0  0  0  0  0  0  0  0  0
  -22.3979  -25.5786   24.2297 C   0  0  0  0  0  0  0  0  0  0  0  0
  -22.9186   -5.4432   20.6127 C   0  0  0  0  0  0  0  0  0  0  0  0
  -23.5766   -4.2171   20.7082 C   0  0  0  0  0  0  0  0  0  0  0  0
  -23.3528  -24.5731   22.2484 C   0  0  0  0  0  0  0  0  0  0  0  0
  -22.7059   -3.9239   22.9427 C   0  0  0  0  0  0  0  0  0  0  0  0
  -23.8150  -10.5127   20.9440 C   0  0  0  0  0  0  0  0  0  0  0  0
  -24.2249  -13.0297   20.8794 C   0  0  0  0  0  0  0  0  0  0  0  0
  -20.6828  -33.2152   18.1153 C   0  0  0  0  0  0  0  0  0  0  0  0
  -22.2855  -26.7477   22.1158 C   0  0  0  0  0  0  0  0  0  0  0  0
  -20.2679  -31.8928   18.3635 C   0  0  0  0  0  0  0  0  0  0  0  0
  -22.9641  -25.6852   21.4967 C   0  0  0  0  0  0  0  0  0  0  0  0
  -22.2596   -8.2372   21.3749 C   0  0  0  0  0  0  0  0  0  0  0  0
  -23.0742  -24.5248   23.6144 C   0  0  0  0  0  0  0  0  0  0  0  0
  -22.1542   -5.9098   21.6822 C   0  0  0  0  0  0  0  0  0  0  0  0
  -23.4702   -3.4574   21.8732 C   0  0  0  0  0  0  0  0  0  0  0  0
  -22.0479   -5.1501   22.8472 C   0  0  0  0  0  0  0  0  0  0  0  0
  -24.6190  -11.6875   20.7216 C   0  0  0  0  0  0  0  0  0  0  0  0
  -25.3418  -13.7568   20.5475 C   0  0  0  0  0  0  0  0  0  0  0  0
  -22.9621  -13.5709   21.2896 C   0  0  0  0  0  0  0  0  0  0  0  0
  -22.0497  -28.7047   18.9235 C   0  0  0  0  0  0  0  0  0  0  0  0
  -24.8460  -27.4451   18.9921 C   0  0  0  0  0  0  0  0  0  0  0  0
  -27.9645  -26.2280   19.6488 C   0  0  0  0  0  0  0  0  0  0  0  0
  -30.7309  -14.7124   20.6736 C   0  0  0  0  0  0  0  0  0  0  0  0
  -21.8756  -33.5223   17.2448 C   0  0  0  0  0  0  0  0  0  0  0  0
  -21.8181  -27.8927   21.2588 C   0  0  0  0  0  0  0  0  0  0  0  0
  -23.2230  -25.7795   20.0179 C   0  0  0  0  0  0  0  0  0  0  0  0
  -22.8062  -32.3291   17.0438 C   0  0  0  0  0  0  0  0  0  0  0  0
  -29.6821  -12.3446   18.3828 C   0  0  0  0  0  0  0  0  0  0  0  0
  -22.0039  -31.0783   16.6996 C   0  0  0  0  0  0  0  0  0  0  0  0
  -26.9431  -22.0450   24.6774 C   0  0  0  0  0  0  0  0  0  0  0  0
  -25.5483  -20.5067   23.2337 C   0  0  0  0  0  0  0  0  0  0  0  0
  -28.2353  -12.0635   18.7881 C   0  0  0  0  0  0  0  0  0  0  0  0
  -25.6921  -22.8457   25.0263 C   0  0  0  0  0  0  0  0  0  0  0  0
  -24.3012  -21.3121   23.5861 C   0  0  0  0  0  0  0  0  0  0  0  0
  -29.1614  -17.8845   21.7695 C   0  0  0  0  0  0  0  0  0  0  0  0
  -28.6225  -16.0833   23.4472 C   0  0  0  0  0  0  0  0  0  0  0  0
  -30.5762  -12.4812   19.6100 C   0  0  0  0  0  0  0  0  0  0  0  0
  -30.3661  -17.0687   21.3085 C   0  0  0  0  0  0  0  0  0  0  0  0
  -29.8396  -15.3047   22.9587 C   0  0  0  0  0  0  0  0  0  0  0  0
  -28.6766  -13.2609   20.9881 C   0  0  0  0  0  0  0  0  0  0  0  0
  -21.0465  -30.7062   17.8382 C   0  0  1  0  0  0  0  0  0  0  0  0
  -22.8081  -28.2490   20.1354 C   0  0  1  0  0  0  0  0  0  0  0  0
  -26.6049  -20.5852   24.3444 C   0  0  0  0  0  0  0  0  0  0  0  0
  -28.8043  -17.5920   23.2326 C   0  0  0  0  0  0  0  0  0  0  0  0
  -27.7249  -13.1209   19.7830 C   0  0  2  0  0  0  0  0  0  0  0  0
  -24.6425  -22.7625   23.9212 C   0  0  0  0  0  0  0  0  0  1  0  0
  -30.2680  -26.0782   18.6646 C   0  0  0  0  0  0  0  0  0  0  0  0
  -23.8867  -25.2638   17.0879 C   0  0  0  0  0  0  0  0  0  0  0  0
  -26.2661  -24.5212   16.8530 C   0  0  0  0  0  0  0  0  0  0  0  0
  -25.5985  -26.8116   16.1242 C   0  0  0  0  0  0  0  0  0  0  0  0
  -29.1514  -27.7336   21.9033 C   0  0  0  0  0  0  0  0  0  0  0  0
  -27.8640  -19.8175   23.9460 C   0  0  0  0  0  0  0  0  0  0  0  0
  -27.5493  -18.3551   23.6493 C   0  0  0  0  0  0  0  0  0  0  0  0
  -25.7199  -26.2828   18.5936 C   0  0  1  0  0  0  0  0  0  0  0  0
  -29.3360  -26.8733   19.5657 C   0  0  2  0  0  0  0  0  0  0  0  0
  -25.3555  -25.7211   17.1903 C   0  0  0  0  0  0  0  0  0  0  0  0
  -25.8872  -11.5662   20.3204 N   0  0  0  0  0  0  0  0  0  0  0  0
  -26.2996  -12.8416   20.2233 N   0  0  0  0  0  0  0  0  0  0  0  0
  -23.6593  -27.1409   19.6701 N   0  0  0  0  0  0  0  0  0  0  0  0
  -30.0554  -13.4908   20.5315 N   0  0  0  0  0  0  0  0  0  0  0  0
  -30.1782  -15.6423   21.5697 N   0  0  0  0  0  0  0  0  0  0  0  0
  -25.5883  -15.0834   20.5042 N   0  0  0  0  0  0  0  0  0  0  0  0
  -22.7425  -13.7931   22.6558 N   0  0  0  0  0  0  0  0  0  0  0  0
  -21.7668  -30.0572   18.9125 N   0  0  0  0  0  0  0  0  0  0  0  0
  -27.0974  -26.7486   18.7115 N   0  0  0  0  0  0  0  0  0  0  0  0
  -29.9513  -26.9584   20.9203 N   0  3  0  0  0  0  0  0  0  0  0  0
  -22.0493  -13.8337   20.4703 O   0  0  0  0  0  0  0  0  0  0  0  0
  -21.7444  -27.8902   18.0603 O   0  0  0  0  0  0  0  0  0  0  0  0
  -25.2006  -28.5921   18.7062 O   0  0  0  0  0  0  0  0  0  0  0  0
  -27.6908  -25.3473   20.4612 O   0  0  0  0  0  0  0  0  0  0  0  0
  -31.7621  -14.9614   20.0368 O   0  0  0  0  0  0  0  0  0  0  0  0
  -21.5009   -7.1270   21.5855 O   0  0  0  0  0  0  0  0  0  0  0  0
  -23.4698  -23.4421   24.3561 O   0  0  0  0  0  0  0  0  0  1  0  0
  -24.1009   -2.2792   21.9643 F   0  0  0  0  0  0  0  0  0  0  0  0
  -21.3141   -5.5926   23.8775 F   0  0  0  0  0  0  0  0  0  0  0  0
  1  2  1  0  0  0  0
  1  5  2  0  0  0  0
  2  6  2  0  0  0  0
  3  8  2  0  0  0  0
  3 15  1  0  0  0  0
  4  9  1  0  0  0  0
  4 15  2  0  0  0  0
  5 17  1  0  0  0  0
  6 19  1  0  0  0  0
  7 10  2  0  0  0  0
  7 18  1  0  0  0  0
  8 21  1  0  0  0  0
  9 21  2  0  0  0  0
 10 22  1  0  0  0  0
 11 12  2  0  0  0  0
 11 23  1  0  0  0  0
 12 24  1  0  0  0  0
 13 20  1  0  0  0  0
 13 22  2  0  0  0  0
 14 24  2  0  0  0  0
 14 25  1  0  0  0  0
 15 26  1  0  0  0  0
 16 26  1  0  0  0  0
 16 27  2  0  0  0  0
 16 28  1  0  0  0  0
 17 19  2  0  0  0  0
 17 33  1  0  0  0  0
 18 20  2  0  0  0  0
 18 34  1  0  0  0  0
 19 50  1  0  0  0  0
 20 35  1  0  0  0  0
 21 81  1  0  0  0  0
 22 82  1  0  0  0  0
 23 25  2  0  0  0  0
 23 81  1  0  0  0  0
 24 83  1  0  0  0  0
 25 84  1  0  0  0  0
 26 66  2  0  0  0  0
 27 67  1  0  0  0  0
 27 71  1  0  0  0  0
 28 72  1  0  0  0  0
 28 76  2  0  0  0  0
 29 51  1  0  0  0  0
 29 73  1  0  0  0  0
 29 77  2  0  0  0  0
 30 63  1  0  0  0  0
 30 68  1  0  0  0  0
 30 78  2  0  0  0  0
 31 64  1  0  0  0  0
 31 74  1  0  0  0  0
 31 79  2  0  0  0  0
 32 69  1  0  0  0  0
 32 70  1  0  0  0  0
 32 80  2  0  0  0  0
 33 36  1  0  0  0  0
 34 51  1  0  0  0  0
 35 68  1  0  0  0  0
 36 38  1  0  0  0  0
 37 41  1  0  0  0  0
 37 46  1  0  0  0  0
 38 50  1  0  0  0  0
 39 42  1  0  0  0  0
 39 52  1  0  0  0  0
 40 43  1  0  0  0  0
 40 52  1  0  0  0  0
 41 54  1  0  0  0  0
 42 55  1  0  0  0  0
 43 55  1  0  0  0  0
 44 47  1  0  0  0  0
 44 53  1  0  0  0  0
 45 48  1  0  0  0  0
 45 53  1  0  0  0  0
 46 69  1  0  0  0  0
 47 70  1  0  0  0  0
 48 70  1  0  0  0  0
 49 54  1  0  0  0  0
 49 69  1  0  0  0  0
 50 73  1  0  0  0  0
 51 68  1  0  0  0  0
 52 61  1  0  0  0  0
 53 62  1  0  0  0  0
 54 67  1  0  0  0  0
 55 82  1  0  0  0  0
 56 64  1  0  0  0  0
 57 65  1  0  0  0  0
 58 65  1  0  0  0  0
 59 65  1  0  0  0  0
 60 75  1  0  0  0  0
 61 62  1  0  0  0  0
 63 65  1  0  0  0  0
 63 74  1  0  0  0  0
 64 75  1  0  0  0  0
 66 67  1  0  0  0  0
M  CHG  1  75   1
M  ISO  4  32 100  55 101  70 100  82 101
M  END
> <Batch ID>
0142

> <Smiles>
CNC(C)C(=O)NC(C(=O)N1Cc2cc([101O:1][101CH:1]3CCC(CCC4CC[100N:0]([100C:0](=O)N5CCCC(n6nc(-c7ccc(Oc8ccc(F)cc8F)cc7)c(C(N)=O)c6N)C5)CC4)CC3)ccc2CC1C(=O)NC1CCCc2ccccc21)C(C)(C)C

> <Shape>
0.253

> <Color>
0.182

> <Negative vol penalty>
0.000

$$$$

  -OEChem-04052321182D

  0  0  0     0  0  0  0  0  0999 V2000
M  END
$$$$

  -OEChem-04052321183D

 88 98  0     1  0  0  0  0  0999 V2000
  -18.4636  -24.8363   20.9116 C   0  0  0  0  0  0  0  0  0  0  0  0
  -19.8311  -24.8631   20.6575 C   0  0  0  0  0  0  0  0  0  0  0  0
  -22.8042  -15.0097   21.0008 C   0  0  0  0  0  0  0  0  0  0  0  0
  -22.3483  -13.4787   19.1883 C   0  0  0  0  0  0  0  0  0  0  0  0
  -17.8722  -25.8625   21.6473 C   0  0  0  0  0  0  0  0  0  0  0  0
  -20.6079  -25.9167   21.1380 C   0  0  0  0  0  0  0  0  0  0  0  0
  -24.9431  -24.3392   23.2265 C   0  0  0  0  0  0  0  0  0  0  0  0
  -21.6334  -15.7079   20.7056 C   0  0  0  0  0  0  0  0  0  0  0  0
  -21.1774  -14.1769   18.8931 C   0  0  0  0  0  0  0  0  0  0  0  0
  -25.9752  -23.9833   22.3593 C   0  0  0  0  0  0  0  0  0  0  0  0
  -20.6008  -17.9934   18.4397 C   0  0  0  0  0  0  0  0  0  0  0  0
  -20.6677  -19.3863   18.4099 C   0  0  0  0  0  0  0  0  0  0  0  0
  -27.0123  -26.1309   22.7219 C   0  0  0  0  0  0  0  0  0  0  0  0
  -19.0171  -19.5033   20.1703 C   0  0  0  0  0  0  0  0  0  0  0  0
  -33.0393  -21.9781   20.1197 C   0  0  0  0  0  0  0  0  0  0  0  0
  -23.1618  -13.8951   20.2421 C   0  0  0  0  0  0  0  0  0  0  0  0
  -24.5137  -12.0863   21.4288 C   0  0  0  0  0  0  0  0  0  0  0  0
  -18.6437  -26.9242   22.1452 C   0  0  0  0  0  0  0  0  0  0  0  0
  -24.9323  -25.5999   23.8405 C   0  0  0  0  0  0  0  0  0  0  0  0
  -20.0260  -26.9588   21.8798 C   0  0  0  0  0  0  0  0  0  0  0  0
  -25.9803  -26.4994   23.5985 C   0  0  0  0  0  0  0  0  0  0  0  0
  -33.6621  -21.2666   19.1181 C   0  0  0  0  0  0  0  0  0  0  0  0
  -33.1687  -19.9397   19.1719 C   0  0  0  0  0  0  0  0  0  0  0  0
  -20.8199  -15.2915   19.6518 C   0  0  0  0  0  0  0  0  0  0  0  0
  -27.0085  -24.8803   22.1046 C   0  0  0  0  0  0  0  0  0  0  0  0
  -19.7420  -17.3554   19.3347 C   0  0  0  0  0  0  0  0  0  0  0  0
  -19.8760  -20.1413   19.2752 C   0  0  0  0  0  0  0  0  0  0  0  0
  -18.9502  -18.1104   20.2000 C   0  0  0  0  0  0  0  0  0  0  0  0
  -24.3715  -13.1738   20.5462 C   0  0  0  0  0  0  0  0  0  0  0  0
  -32.2591  -19.8807   20.2047 C   0  0  0  0  0  0  0  0  0  0  0  0
  -25.8473  -11.7640   21.3644 C   0  0  0  0  0  0  0  0  0  0  0  0
  -23.5284  -11.4264   22.2346 C   0  0  0  0  0  0  0  0  0  0  0  0
  -22.9784  -28.1064   23.7823 C   0  0  0  0  0  0  0  0  0  0  0  0
  -24.9679  -29.2185   26.0904 C   0  0  0  0  0  0  0  0  0  0  0  0
  -28.0605  -29.1452   27.5317 C   0  0  0  0  0  0  0  0  0  0  0  0
  -30.7431  -14.7258   20.0597 C   0  0  0  0  0  0  0  0  0  0  0  0
  -17.9519  -28.0351   22.8950 C   0  0  0  0  0  0  0  0  0  0  0  0
  -23.8257  -25.9584   24.7942 C   0  0  0  0  0  0  0  0  0  0  0  0
  -26.0259  -27.8574   24.2483 C   0  0  0  0  0  0  0  0  0  0  0  0
  -18.9081  -28.9223   23.6880 C   0  0  0  0  0  0  0  0  0  0  0  0
  -29.6048  -11.9050   18.4179 C   0  0  0  0  0  0  0  0  0  0  0  0
  -20.1097  -29.3107   22.8323 C   0  0  0  0  0  0  0  0  0  0  0  0
  -28.1455  -11.7924   18.8581 C   0  0  0  0  0  0  0  0  0  0  0  0
  -30.4483  -18.1985   19.6455 C   0  0  0  0  0  0  0  0  0  0  0  0
  -32.3073  -17.5704   21.2453 C   0  0  0  0  0  0  0  0  0  0  0  0
  -29.6288  -22.7773   20.4111 C   0  0  0  0  0  0  0  0  0  0  0  0
  -29.0248  -22.5358   22.4434 C   0  0  0  0  0  0  0  0  0  0  0  0
  -29.9813  -13.3562   18.1428 C   0  0  0  0  0  0  0  0  0  0  0  0
  -29.6368  -17.0035   20.1541 C   0  0  0  0  0  0  0  0  0  0  0  0
  -31.4444  -16.4101   21.7330 C   0  0  0  0  0  0  0  0  0  0  0  0
  -28.2882  -14.1697   19.7520 C   0  0  0  0  0  0  0  0  0  0  0  0
  -20.9063  -28.0719   22.4053 C   0  0  1  0  0  0  0  0  0  0  0  0
  -31.4290  -18.7170   20.7128 C   0  0  0  0  0  0  0  0  0  0  0  0
  -23.6478  -27.4640   24.9642 C   0  0  1  0  0  0  0  0  0  0  0  0
  -29.9057  -21.6976   21.4855 C   0  0  0  0  0  0  0  0  0  0  0  0
  -27.8546  -12.7202   20.0511 C   0  0  1  0  0  0  0  0  0  0  0  0
  -28.3428  -23.1363   21.1915 C   0  0  0  0  0  0  0  0  0  1  0  0
  -34.6597  -21.7998   18.1690 C   0  0  0  0  0  0  0  0  0  0  0  0
  -33.5564  -18.8232   18.2852 C   0  0  0  0  0  0  0  0  0  0  0  0
  -29.3989  -30.1934   29.3777 C   0  0  0  0  0  0  0  0  0  0  0  0
  -25.2991  -31.7452   24.4123 C   0  0  0  0  0  0  0  0  0  0  0  0
  -27.3156  -32.3088   25.7851 C   0  0  0  0  0  0  0  0  0  0  0  0
  -25.0754  -32.1474   26.8705 C   0  0  0  0  0  0  0  0  0  0  0  0
  -28.4511  -26.5418   28.8839 C   0  0  0  0  0  0  0  0  0  0  0  0
  -31.3515  -21.5006   21.8920 C   0  0  0  0  0  0  0  0  0  0  0  0
  -26.2369  -30.0361   26.1051 C   0  0  1  0  0  0  0  0  0  0  0  0
  -28.4933  -29.0372   28.9827 C   0  0  2  0  0  0  0  0  0  0  0  0
  -25.9802  -31.5346   25.7794 C   0  0  0  0  0  0  0  0  0  0  0  0
  -25.5228  -13.5194   19.9640 N   0  0  0  0  0  0  0  0  0  0  0  0
  -32.1884  -21.1256   20.7735 N   0  0  0  0  0  0  0  0  0  0  0  0
  -26.4013  -12.6441   20.4819 N   0  0  0  0  0  0  0  0  0  0  0  0
  -24.9178  -28.1638   25.1680 N   0  0  0  0  0  0  0  0  0  0  0  0
  -29.6869  -14.2051   19.2971 N   0  0  0  0  0  0  0  0  0  0  0  0
  -30.5254  -15.9616   20.6872 N   0  0  0  0  0  0  0  0  0  0  0  0
  -26.5884  -10.8167   21.9773 N   0  0  0  0  0  0  0  0  0  0  0  0
  -22.2051  -11.8850   22.1810 N   0  0  0  0  0  0  0  0  0  0  0  0
  -21.7258  -27.5962   23.4992 N   0  0  0  0  0  0  0  0  0  0  0  0
  -26.8563  -29.8050   27.4056 N   0  0  0  0  0  0  0  0  0  0  0  0
  -29.2320  -27.7629   29.2095 N   0  3  0  0  0  0  0  0  0  0  0  0
  -23.8162  -10.4691   22.9925 O   0  0  0  0  0  0  0  0  0  0  0  0
  -23.5549  -29.0000   23.1733 O   0  0  0  0  0  0  0  0  0  0  0  0
  -24.0576  -29.5007   26.8735 O   0  0  0  0  0  0  0  0  0  0  0  0
  -28.7261  -28.6931   26.6027 O   0  0  0  0  0  0  0  0  0  0  0  0
  -31.8173  -14.1225   20.1743 O   0  0  0  0  0  0  0  0  0  0  0  0
  -19.6772  -15.9724   19.3636 O   0  0  0  0  0  0  0  0  0  0  0  0
  -28.0187  -24.5350   21.2564 O   0  0  0  0  0  0  0  0  0  1  0  0
  -19.9415  -21.4789   19.2475 F   0  0  0  0  0  0  0  0  0  0  0  0
  -18.1241  -17.5031   21.0629 F   0  0  0  0  0  0  0  0  0  0  0  0
  1  2  1  0  0  0  0
  1  5  2  0  0  0  0
  2  6  2  0  0  0  0
  3  8  2  0  0  0  0
  3 16  1  0  0  0  0
  4  9  1  0  0  0  0
  4 16  2  0  0  0  0
  5 18  1  0  0  0  0
  6 20  1  0  0  0  0
  7 10  2  0  0  0  0
  7 19  1  0  0  0  0
  8 24  1  0  0  0  0
  9 24  2  0  0  0  0
 10 25  1  0  0  0  0
 11 12  2  0  0  0  0
 11 26  1  0  0  0  0
 12 27  1  0  0  0  0
 13 21  1  0  0  0  0
 13 25  2  0  0  0  0
 14 27  2  0  0  0  0
 14 28  1  0  0  0  0
 15 22  2  0  0  0  0
 15 70  1  0  0  0  0
 16 29  1  0  0  0  0
 17 29  1  0  0  0  0
 17 31  2  0  0  0  0
 17 32  1  0  0  0  0
 18 20  2  0  0  0  0
 18 37  1  0  0  0  0
 19 21  2  0  0  0  0
 19 38  1  0  0  0  0
 20 52  1  0  0  0  0
 21 39  1  0  0  0  0
 22 23  1  0  0  0  0
 22 58  1  0  0  0  0
 23 30  2  0  0  0  0
 23 59  1  0  0  0  0
 24 85  1  0  0  0  0
 25 86  1  0  0  0  0
 26 28  2  0  0  0  0
 26 85  1  0  0  0  0
 27 87  1  0  0  0  0
 28 88  1  0  0  0  0
 29 69  2  0  0  0  0
 30 53  1  0  0  0  0
 30 70  1  0  0  0  0
 31 71  1  0  0  0  0
 31 75  1  0  0  0  0
 32 76  1  0  0  0  0
 32 80  2  0  0  0  0
 33 54  1  0  0  0  0
 33 77  1  0  0  0  0
 33 81  2  0  0  0  0
 34 66  1  0  0  0  0
 34 72  1  0  0  0  0
 34 82  2  0  0  0  0
 35 67  1  0  0  0  0
 35 78  1  0  0  0  0
 35 83  2  0  0  0  0
 36 73  1  0  0  0  0
 36 74  1  0  0  0  0
 36 84  2  0  0  0  0
 37 40  1  0  0  0  0
 38 54  1  0  0  0  0
 39 72  1  0  0  0  0
 40 42  1  0  0  0  0
 41 43  1  0  0  0  0
 41 48  1  0  0  0  0
 42 52  1  0  0  0  0
 43 56  1  0  0  0  0
 44 49  1  0  0  0  0
 44 53  1  0  0  0  0
 45 50  1  0  0  0  0
 45 53  1  0  0  0  0
 46 55  1  0  0  0  0
 46 57  1  0  0  0  0
 47 55  1  0  0  0  0
 47 57  1  0  0  0  0
 48 73  1  0  0  0  0
 49 74  1  0  0  0  0
 50 74  1  0  0  0  0
 51 56  1  0  0  0  0
 51 73  1  0  0  0  0
 52 77  1  0  0  0  0
 54 72  1  0  0  0  0
 55 65  1  0  0  0  0
 56 71  1  0  0  0  0
 57 86  1  0  0  0  0
 60 67  1  0  0  0  0
 61 68  1  0  0  0  0
 62 68  1  0  0  0  0
 63 68  1  0  0  0  0
 64 79  1  0  0  0  0
 65 70  1  0  0  0  0
 66 68  1  0  0  0  0
 66 78  1  0  0  0  0
 67 79  1  0  0  0  0
 69 71  1  0  0  0  0
M  CHG  1  79   1
M  ISO  4  36 100  57 101  74 100  86 101
M  END
> <Batch ID>
0142

> <Smiles>
CNC(C)C(=O)NC(C(=O)N1Cc2cc([101O:1][101CH:1]3CC(Cn4cc(C)c(C)c4C4CC[100N:0]([100C:0](=O)N5CCCC(n6nc(-c7ccc(Oc8ccc(F)cc8F)cc7)c(C(N)=O)c6N)C5)CC4)C3)ccc2CC1C(=O)NC1CCCc2ccccc21)C(C)(C)C

> <Shape>
0.234

> <Color>
0.104

> <Negative vol penalty>
0.000

$$$$

  -OEChem-04052321182D

  0  0  0     0  0  0  0  0  0999 V2000
M  END
$$$$

  -OEChem-04052321183D

 92102  0     1  0  0  0  0  0999 V2000
  -22.5607  -37.8227   22.2148 C   0  0  0  0  0  0  0  0  0  0  0  0
  -21.8582  -36.6503   21.9600 C   0  0  0  0  0  0  0  0  0  0  0  0
  -23.5078  -10.8666   22.3884 C   0  0  0  0  0  0  0  0  0  0  0  0
  -22.0303  -10.4894   20.5144 C   0  0  0  0  0  0  0  0  0  0  0  0
  -23.9178  -37.8982   21.9084 C   0  0  0  0  0  0  0  0  0  0  0  0
  -22.5151  -35.5491   21.4098 C   0  0  0  0  0  0  0  0  0  0  0  0
  -25.2067  -27.9868   19.1806 C   0  0  0  0  0  0  0  0  0  0  0  0
  -24.0395   -9.5873   22.2267 C   0  0  0  0  0  0  0  0  0  0  0  0
  -22.5620   -9.2100   20.3527 C   0  0  0  0  0  0  0  0  0  0  0  0
  -26.4585  -27.4246   18.9344 C   0  0  0  0  0  0  0  0  0  0  0  0
  -22.2310   -6.1732   21.8015 C   0  0  0  0  0  0  0  0  0  0  0  0
  -21.3383   -5.1220   21.5926 C   0  0  0  0  0  0  0  0  0  0  0  0
  -27.3706  -28.6538   20.7988 C   0  0  0  0  0  0  0  0  0  0  0  0
  -22.3823   -4.6586   19.4636 C   0  0  0  0  0  0  0  0  0  0  0  0
  -22.5032  -11.3177   21.5322 C   0  0  0  0  0  0  0  0  0  0  0  0
  -21.2978  -13.1497   22.8355 C   0  0  0  0  0  0  0  0  0  0  0  0
  -24.5880  -36.8011   21.3427 C   0  0  0  0  0  0  0  0  0  0  0  0
  -25.0296  -28.8967   20.2328 C   0  0  0  0  0  0  0  0  0  0  0  0
  -23.8898  -35.5976   21.1158 C   0  0  0  0  0  0  0  0  0  0  0  0
  -26.1150  -29.2242   21.0579 C   0  0  0  0  0  0  0  0  0  0  0  0
  -27.4476  -19.7237   20.7111 C   0  0  0  0  0  0  0  0  0  0  0  0
  -27.4379  -20.9320   20.0167 C   0  0  0  0  0  0  0  0  0  0  0  0
  -26.4351  -18.7970   20.5500 C   0  0  0  0  0  0  0  0  0  0  0  0
  -23.5666   -8.7590   21.2089 C   0  0  0  0  0  0  0  0  0  0  0  0
  -27.5413  -27.7603   19.7418 C   0  0  0  0  0  0  0  0  0  0  0  0
  -23.1993   -6.4672   20.8415 C   0  0  0  0  0  0  0  0  0  0  0  0
  -21.4139   -4.3647   20.4236 C   0  0  0  0  0  0  0  0  0  0  0  0
  -23.2750   -5.7099   19.6725 C   0  0  0  0  0  0  0  0  0  0  0  0
  -21.9531  -12.6389   21.6990 C   0  0  0  0  0  0  0  0  0  0  0  0
  -26.3837  -21.1779   19.1599 C   0  0  0  0  0  0  0  0  0  0  0  0
  -25.4293  -19.1323   19.6580 C   0  0  0  0  0  0  0  0  0  0  0  0
  -20.9702  -14.4387   22.4925 C   0  0  0  0  0  0  0  0  0  0  0  0
  -21.0110  -12.5157   24.0890 C   0  0  0  0  0  0  0  0  0  0  0  0
  -24.1565  -31.9462   20.4383 C   0  0  0  0  0  0  0  0  0  0  0  0
  -24.2412  -31.3509   23.6259 C   0  0  0  0  0  0  0  0  0  0  0  0
  -26.3864  -29.5703   25.9162 C   0  0  0  0  0  0  0  0  0  0  0  0
  -23.2826  -18.3414   18.6032 C   0  0  0  0  0  0  0  0  0  0  0  0
  -26.0593  -36.9348   21.0380 C   0  0  0  0  0  0  0  0  0  0  0  0
  -23.6669  -29.4739   20.5018 C   0  0  0  0  0  0  0  0  0  0  0  0
  -28.6183  -19.6375   21.6287 C   0  0  0  0  0  0  0  0  0  0  0  0
  -25.9729  -30.1804   22.2129 C   0  0  0  0  0  0  0  0  0  0  0  0
  -26.5612  -35.8812   20.0560 C   0  0  0  0  0  0  0  0  0  0  0  0
  -19.9279  -17.1513   18.6860 C   0  0  0  0  0  0  0  0  0  0  0  0
  -26.1070  -34.4987   20.4999 C   0  0  0  0  0  0  0  0  0  0  0  0
  -20.0058  -15.9090   19.5764 C   0  0  0  0  0  0  0  0  0  0  0  0
  -28.1387  -22.9186   21.3454 C   0  0  0  0  0  0  0  0  0  0  0  0
  -29.2603  -22.4313   19.1154 C   0  0  0  0  0  0  0  0  0  0  0  0
  -21.1705  -17.2999   17.8099 C   0  0  0  0  0  0  0  0  0  0  0  0
  -22.5258  -16.0242   19.4239 C   0  0  0  0  0  0  0  0  0  0  0  0
  -29.1221  -24.0635   21.5659 C   0  0  0  0  0  0  0  0  0  0  0  0
  -30.2625  -23.5381   19.4022 C   0  0  0  0  0  0  0  0  0  0  0  0
  -24.5765  -34.3973   20.4896 C   0  0  1  0  0  0  0  0  0  0  0  0
  -23.7162  -30.7837   21.2824 C   0  0  1  0  0  0  0  0  0  0  0  0
  -29.5556  -20.7147   21.0321 C   0  0  1  0  0  0  0  0  0  0  0  0
  -21.3254  -15.8675   20.3716 C   0  0  2  0  0  0  0  0  0  0  0  0
  -28.6246  -21.8125   20.3805 C   0  0  0  0  0  0  0  0  0  0  0  0
  -26.4438  -17.5113   21.3025 C   0  0  0  0  0  0  0  0  0  0  0  0
  -26.2871  -22.3991   18.3133 C   0  0  0  0  0  0  0  0  0  0  0  0
  -25.8781  -28.4928   28.1248 C   0  0  0  0  0  0  0  0  0  0  0  0
  -31.0928  -19.9694   22.8672 C   0  0  0  0  0  0  0  0  0  0  0  0
  -25.1478  -34.0145   24.8062 C   0  0  0  0  0  0  0  0  0  0  0  0
  -26.2412  -32.7401   26.6632 C   0  0  0  0  0  0  0  0  0  0  0  0
  -23.7705  -32.6058   26.3466 C   0  0  0  0  0  0  0  0  0  0  0  0
  -27.4605  -26.9615   25.0219 C   0  0  0  0  0  0  0  0  0  0  0  0
  -30.4868  -25.8010   20.4184 C   0  0  0  0  0  0  0  0  0  0  0  0
  -29.6258  -27.0314   20.6249 C   0  0  0  0  0  0  0  0  0  1  0  0
  -25.2960  -31.4390   24.7023 C   0  0  1  0  0  0  0  0  0  0  0  0
  -26.0704  -28.2699   26.6328 C   0  0  2  0  0  0  0  0  0  0  0  0
  -30.5680  -21.1535   22.0824 C   0  0  1  0  0  0  0  0  0  0  0  0
  -25.1207  -32.6946   25.6024 C   0  0  0  0  0  0  0  0  0  0  0  0
  -22.0375  -13.5306   20.7082 N   0  0  0  0  0  0  0  0  0  0  0  0
  -25.3765  -20.2957   18.9597 N   0  0  0  0  0  0  0  0  0  0  0  0
  -21.4309  -14.6147   21.2210 N   0  0  0  0  0  0  0  0  0  0  0  0
  -24.6219  -30.7231   22.4314 N   0  0  0  0  0  0  0  0  0  0  0  0
  -22.3819  -17.2557   18.6317 N   0  0  0  0  0  0  0  0  0  0  0  0
  -20.3357  -15.4274   23.1576 N   0  0  0  0  0  0  0  0  0  0  0  0
  -19.7980  -11.8272   24.2275 N   0  0  0  0  0  0  0  0  0  0  0  0
  -24.3815  -18.2013   19.4502 N   0  0  0  0  0  0  0  0  0  0  0  0
  -24.1817  -33.1527   21.1116 N   0  0  0  0  0  0  0  0  0  0  0  0
  -25.2473  -30.1733   25.4262 N   0  0  0  0  0  0  0  0  0  0  0  0
  -29.6003  -24.5982   20.2429 N   0  3  0  0  0  0  0  0  0  0  0  0
  -27.1782  -27.2913   26.4427 N   0  3  0  0  0  0  0  0  0  0  0  0
  -21.7994  -12.5723   25.0630 O   0  0  0  0  0  0  0  0  0  0  0  0
  -24.4530  -31.7619   19.2637 O   0  0  0  0  0  0  0  0  0  0  0  0
  -23.1186  -31.8154   23.8398 O   0  0  0  0  0  0  0  0  0  0  0  0
  -27.5290  -30.0093   25.8056 O   0  0  0  0  0  0  0  0  0  0  0  0
  -23.0790  -19.3352   17.9011 O   0  0  0  0  0  0  0  0  0  0  0  0
  -31.6400  -21.8125   21.4276 O   0  0  0  0  0  0  0  0  0  0  0  0
  -24.0854   -7.5106   21.0508 O   0  0  0  0  0  0  0  0  0  0  0  0
  -28.7732  -27.2095   19.5015 O   0  0  0  0  0  0  0  0  0  1  0  0
  -20.5576   -3.3543   20.2238 F   0  0  0  0  0  0  0  0  0  0  0  0
  -24.2038   -5.9868   18.7471 F   0  0  0  0  0  0  0  0  0  0  0  0
  1  2  1  0  0  0  0
  1  5  2  0  0  0  0
  2  6  2  0  0  0  0
  3  8  2  0  0  0  0
  3 15  1  0  0  0  0
  4  9  1  0  0  0  0
  4 15  2  0  0  0  0
  5 17  1  0  0  0  0
  6 19  1  0  0  0  0
  7 10  2  0  0  0  0
  7 18  1  0  0  0  0
  8 24  1  0  0  0  0
  9 24  2  0  0  0  0
 10 25  1  0  0  0  0
 11 12  2  0  0  0  0
 11 26  1  0  0  0  0
 12 27  1  0  0  0  0
 13 20  1  0  0  0  0
 13 25  2  0  0  0  0
 14 27  2  0  0  0  0
 14 28  1  0  0  0  0
 15 29  1  0  0  0  0
 16 29  1  0  0  0  0
 16 32  2  0  0  0  0
 16 33  1  0  0  0  0
 17 19  2  0  0  0  0
 17 38  1  0  0  0  0
 18 20  2  0  0  0  0
 18 39  1  0  0  0  0
 19 52  1  0  0  0  0
 20 41  1  0  0  0  0
 21 22  2  0  0  0  0
 21 23  1  0  0  0  0
 21 40  1  0  0  0  0
 22 30  1  0  0  0  0
 22 56  1  0  0  0  0
 23 31  2  0  0  0  0
 23 57  1  0  0  0  0
 24 89  1  0  0  0  0
 25 90  1  0  0  0  0
 26 28  2  0  0  0  0
 26 89  1  0  0  0  0
 27 91  1  0  0  0  0
 28 92  1  0  0  0  0
 29 71  2  0  0  0  0
 30 58  1  0  0  0  0
 30 72  2  0  0  0  0
 31 72  1  0  0  0  0
 31 78  1  0  0  0  0
 32 73  1  0  0  0  0
 32 76  1  0  0  0  0
 33 77  1  0  0  0  0
 33 83  2  0  0  0  0
 34 53  1  0  0  0  0
 34 79  1  0  0  0  0
 34 84  2  0  0  0  0
 35 67  1  0  0  0  0
 35 74  1  0  0  0  0
 35 85  2  0  0  0  0
 36 68  1  0  0  0  0
 36 80  1  0  0  0  0
 36 86  2  0  0  0  0
 37 75  1  0  0  0  0
 37 78  1  0  0  0  0
 37 87  2  0  0  0  0
 38 42  1  0  0  0  0
 39 53  1  0  0  0  0
 40 54  1  0  0  0  0
 41 74  1  0  0  0  0
 42 44  1  0  0  0  0
 43 45  1  0  0  0  0
 43 48  1  0  0  0  0
 44 52  1  0  0  0  0
 45 55  1  0  0  0  0
 46 50  1  0  0  0  0
 46 56  1  0  0  0  0
 47 51  1  0  0  0  0
 47 56  1  0  0  0  0
 48 75  1  0  0  0  0
 49 55  1  0  0  0  0
 49 75  1  0  0  0  0
 50 81  1  0  0  0  0
 51 81  1  0  0  0  0
 52 79  1  0  0  0  0
 53 74  1  0  0  0  0
 54 56  1  0  0  0  0
 54 69  1  0  0  0  0
 55 73  1  0  0  0  0
 59 68  1  0  0  0  0
 60 69  1  0  0  0  0
 61 70  1  0  0  0  0
 62 70  1  0  0  0  0
 63 70  1  0  0  0  0
 64 82  1  0  0  0  0
 65 66  1  0  0  0  0
 65 81  1  0  0  0  0
 66 90  1  0  0  0  0
 67 70  1  0  0  0  0
 67 80  1  0  0  0  0
 68 82  1  0  0  0  0
 69 88  1  0  0  0  0
 71 73  1  0  0  0  0
M  CHG  2  81   1  82   1
M  ISO  4  37 100  66 101  78 100  90 101
M  END
> <Batch ID>
0142

> <Smiles>
CNC(C)C(=O)NC(C(=O)N1Cc2cc([101O:1][101CH2:1]CN3CCC4(CC3)c3c(C)nc([100NH:0][100C:0](=O)N5CCCC(n6nc(-c7ccc(Oc8ccc(F)cc8F)cc7)c(C(N)=O)c6N)C5)c(C)c3CC4C(C)O)ccc2CC1C(=O)NC1CCCc2ccccc21)C(C)(C)C

> <Shape>
0.250

> <Color>
0.068

> <Negative vol penalty>
0.000

$$$$

  -OEChem-04052321183D

 86 95  0     1  0  0  0  0  0999 V2000
  -22.5816  -11.0159   18.8158 C   0  0  0  0  0  0  0  0  0  0  0  0
  -21.9558  -12.2386   19.0366 C   0  0  0  0  0  0  0  0  0  0  0  0
  -30.0888  -27.0928   22.7548 C   0  0  0  0  0  0  0  0  0  0  0  0
  -28.4925  -25.3938   23.3889 C   0  0  0  0  0  0  0  0  0  0  0  0
  -23.8548  -10.7822   19.3338 C   0  0  0  0  0  0  0  0  0  0  0  0
  -22.6024  -13.2280   19.7765 C   0  0  0  0  0  0  0  0  0  0  0  0
  -23.2276  -20.3499   20.2284 C   0  0  0  0  0  0  0  0  0  0  0  0
  -30.9576  -26.6486   23.7514 C   0  0  0  0  0  0  0  0  0  0  0  0
  -29.3614  -24.9495   24.3856 C   0  0  0  0  0  0  0  0  0  0  0  0
  -23.1246  -21.3833   21.1586 C   0  0  0  0  0  0  0  0  0  0  0  0
  -32.1453  -23.0451   24.5933 C   0  0  0  0  0  0  0  0  0  0  0  0
  -32.3374  -21.6691   24.7173 C   0  0  0  0  0  0  0  0  0  0  0  0
  -25.3552  -20.8964   21.9375 C   0  0  0  0  0  0  0  0  0  0  0  0
  -17.9708  -27.0428   22.8781 C   0  0  0  0  0  0  0  0  0  0  0  0
  -31.5036  -21.7570   26.9832 C   0  0  0  0  0  0  0  0  0  0  0  0
  -28.8562  -26.4655   22.5735 C   0  0  0  0  0  0  0  0  0  0  0  0
  -27.8980  -26.4821   20.2094 C   0  0  0  0  0  0  0  0  0  0  0  0
  -24.5213  -11.7727   20.0723 C   0  0  0  0  0  0  0  0  0  0  0  0
  -24.3930  -19.5736   20.1530 C   0  0  0  0  0  0  0  0  0  0  0  0
  -23.8851  -13.0068   20.3061 C   0  0  0  0  0  0  0  0  0  0  0  0
  -25.4715  -19.8554   21.0037 C   0  0  0  0  0  0  0  0  0  0  0  0
  -19.0824  -26.2143   22.9837 C   0  0  0  0  0  0  0  0  0  0  0  0
  -30.5939  -25.5769   24.5668 C   0  0  0  0  0  0  0  0  0  0  0  0
  -24.1874  -21.6548   22.0153 C   0  0  0  0  0  0  0  0  0  0  0  0
  -31.6325  -23.7771   25.6642 C   0  0  0  0  0  0  0  0  0  0  0  0
  -20.3538  -26.7358   22.7712 C   0  0  0  0  0  0  0  0  0  0  0  0
  -32.0165  -21.0251   25.9122 C   0  0  0  0  0  0  0  0  0  0  0  0
  -31.3116  -23.1330   26.8591 C   0  0  0  0  0  0  0  0  0  0  0  0
  -27.9580  -26.9243   21.5445 C   0  0  0  0  0  0  0  0  0  0  0  0
  -18.1823  -28.3747   22.5602 C   0  0  0  0  0  0  0  0  0  0  0  0
  -20.4586  -28.0814   22.4579 C   0  0  0  0  0  0  0  0  0  0  0  0
  -26.8861  -27.2219   19.6478 C   0  0  0  0  0  0  0  0  0  0  0  0
  -28.6863  -25.4911   19.5369 C   0  0  0  0  0  0  0  0  0  0  0  0
  -25.0697  -16.4965   20.5739 C   0  0  0  0  0  0  0  0  0  0  0  0
  -28.0037  -17.3994   19.5258 C   0  0  0  0  0  0  0  0  0  0  0  0
  -30.2928  -19.8978   19.1192 C   0  0  0  0  0  0  0  0  0  0  0  0
  -22.0721  -29.9389   21.9168 C   0  0  0  0  0  0  0  0  0  0  0  0
  -25.8772  -11.4567   20.6524 C   0  0  0  0  0  0  0  0  0  0  0  0
  -24.4986  -18.4798   19.1260 C   0  0  0  0  0  0  0  0  0  0  0  0
  -26.7521  -19.0646   20.9492 C   0  0  0  0  0  0  0  0  0  0  0  0
  -26.6481  -12.6931   21.1076 C   0  0  0  0  0  0  0  0  0  0  0  0
  -24.6852  -31.4576   20.0346 C   0  0  0  0  0  0  0  0  0  0  0  0
  -19.4623  -23.7250   22.4069 C   0  0  0  0  0  0  0  0  0  0  0  0
  -17.9815  -23.9335   22.4699 C   0  0  0  0  0  0  0  0  0  0  0  0
  -25.7461  -13.6145   21.9226 C   0  0  0  0  0  0  0  0  0  0  0  0
  -25.8134  -30.4245   20.0816 C   0  0  0  0  0  0  0  0  0  0  0  0
  -23.9107  -31.5117   21.3503 C   0  0  0  0  0  0  0  0  0  0  0  0
  -24.5309  -29.1854   21.8723 C   0  0  0  0  0  0  0  0  0  0  0  0
  -18.8927  -24.7741   23.3247 C   0  0  0  0  0  0  0  0  0  0  0  0
  -24.5643  -14.1139   21.0826 C   0  0  1  0  0  0  0  0  0  0  0  0
  -25.5365  -17.4210   19.4853 C   0  0  1  0  0  0  0  0  0  0  0  0
  -25.2984  -29.0485   20.5473 C   0  0  2  0  0  0  0  0  0  0  0  0
  -17.0121  -29.2928   22.4386 C   0  0  0  0  0  0  0  0  0  0  0  0
  -32.6145  -20.3228   18.2671 C   0  0  0  0  0  0  0  0  0  0  0  0
  -21.8195  -26.3865   25.1990 C   0  0  0  0  0  0  0  0  0  0  0  0
  -29.1592  -16.1181   22.0424 C   0  0  0  0  0  0  0  0  0  0  0  0
  -31.2834  -17.3752   21.6229 C   0  0  0  0  0  0  0  0  0  0  0  0
  -30.4782  -15.7001   19.9591 C   0  0  0  0  0  0  0  0  0  0  0  0
  -29.3179  -21.7974   17.0698 C   0  0  0  0  0  0  0  0  0  0  0  0
  -22.9520  -24.4558   24.0445 C   0  0  0  0  0  0  0  0  0  0  0  0
  -22.8685  -23.4012   22.9462 C   0  0  0  0  0  0  0  0  0  1  0  0
  -29.2645  -17.9066   20.1833 C   0  0  1  0  0  0  0  0  0  0  0  0
  -31.1331  -20.3093   17.9238 C   0  0  2  0  0  0  0  0  0  0  0  0
  -21.6871  -25.3103   24.1299 C   0  0  2  0  0  0  0  0  0  0  0  0
  -30.0216  -16.7888   20.9545 C   0  0  0  0  0  0  0  0  0  0  0  0
  -27.0562  -27.8718   21.8149 N   0  0  0  0  0  0  0  0  0  0  0  0
  -19.4020  -28.9173   22.3466 N   0  0  0  0  0  0  0  0  0  0  0  0
  -26.4200  -28.0311   20.6419 N   0  0  0  0  0  0  0  0  0  0  0  0
  -26.8044  -18.0012   19.9323 N   0  0  0  0  0  0  0  0  0  0  0  0
  -23.4503  -30.1732   21.7262 N   0  0  0  0  0  0  0  0  0  0  0  0
  -26.3586  -27.2528   18.4056 N   0  0  0  0  0  0  0  0  0  0  0  0
  -29.6838  -24.8257   20.2625 N   0  0  0  0  0  0  0  0  0  0  0  0
  -21.7505  -28.6210   22.2398 N   0  0  0  0  0  0  0  0  0  0  0  0
  -24.9894  -15.1713   20.1906 N   0  0  0  0  0  0  0  0  0  0  0  0
  -30.0481  -18.5409   19.1287 N   0  0  0  0  0  0  0  0  0  0  0  0
  -30.7452  -21.6723   17.4625 N   0  3  0  0  0  0  0  0  0  0  0  0
  -28.5221  -25.2158   18.3242 O   0  0  0  0  0  0  0  0  0  0  0  0
  -24.8037  -16.9515   21.6802 O   0  0  0  0  0  0  0  0  0  0  0  0
  -28.0810  -16.5073   18.6774 O   0  0  0  0  0  0  0  0  0  0  0  0
  -29.8964  -20.6994   19.9624 O   0  0  0  0  0  0  0  0  0  0  0  0
  -21.2359  -30.8348   21.7752 O   0  0  0  0  0  0  0  0  0  0  0  0
  -31.4416  -25.1429   25.5393 O   0  0  0  0  0  0  0  0  0  0  0  0
  -24.0893  -22.6624   22.9246 O   0  0  0  0  0  0  0  0  0  1  0  0
  -21.4614  -25.9374   22.8706 O   0  0  0  0  0  0  0  0  0  0  0  0
  -32.1996  -19.7034   26.0306 F   0  0  0  0  0  0  0  0  0  0  0  0
  -30.8174  -23.8307   27.8911 F   0  0  0  0  0  0  0  0  0  0  0  0
  1  2  1  0  0  0  0
  1  5  2  0  0  0  0
  2  6  2  0  0  0  0
  3  8  2  0  0  0  0
  3 16  1  0  0  0  0
  4  9  1  0  0  0  0
  4 16  2  0  0  0  0
  5 18  1  0  0  0  0
  6 20  1  0  0  0  0
  7 10  2  0  0  0  0
  7 19  1  0  0  0  0
  8 23  1  0  0  0  0
  9 23  2  0  0  0  0
 10 24  1  0  0  0  0
 11 12  2  0  0  0  0
 11 25  1  0  0  0  0
 12 27  1  0  0  0  0
 13 21  1  0  0  0  0
 13 24  2  0  0  0  0
 14 22  2  0  0  0  0
 14 30  1  0  0  0  0
 15 27  2  0  0  0  0
 15 28  1  0  0  0  0
 16 29  1  0  0  0  0
 17 29  1  0  0  0  0
 17 32  2  0  0  0  0
 17 33  1  0  0  0  0
 18 20  2  0  0  0  0
 18 38  1  0  0  0  0
 19 21  2  0  0  0  0
 19 39  1  0  0  0  0
 20 50  1  0  0  0  0
 21 40  1  0  0  0  0
 22 26  1  0  0  0  0
 22 49  1  0  0  0  0
 23 82  1  0  0  0  0
 24 83  1  0  0  0  0
 25 28  2  0  0  0  0
 25 82  1  0  0  0  0
 26 31  2  0  0  0  0
 26 84  1  0  0  0  0
 27 85  1  0  0  0  0
 28 86  1  0  0  0  0
 29 66  2  0  0  0  0
 30 53  1  0  0  0  0
 30 67  2  0  0  0  0
 31 67  1  0  0  0  0
 31 73  1  0  0  0  0
 32 68  1  0  0  0  0
 32 71  1  0  0  0  0
 33 72  1  0  0  0  0
 33 77  2  0  0  0  0
 34 51  1  0  0  0  0
 34 74  1  0  0  0  0
 34 78  2  0  0  0  0
 35 62  1  0  0  0  0
 35 69  1  0  0  0  0
 35 79  2  0  0  0  0
 36 63  1  0  0  0  0
 36 75  1  0  0  0  0
 36 80  2  0  0  0  0
 37 70  1  0  0  0  0
 37 73  1  0  0  0  0
 37 81  2  0  0  0  0
 38 41  1  0  0  0  0
 39 51  1  0  0  0  0
 40 69  1  0  0  0  0
 41 45  1  0  0  0  0
 42 46  1  0  0  0  0
 42 47  1  0  0  0  0
 43 44  1  0  0  0  0
 43 49  1  0  0  0  0
 44 49  1  0  0  0  0
 45 50  1  0  0  0  0
 46 52  1  0  0  0  0
 47 70  1  0  0  0  0
 48 52  1  0  0  0  0
 48 70  1  0  0  0  0
 50 74  1  0  0  0  0
 51 69  1  0  0  0  0
 52 68  1  0  0  0  0
 54 63  1  0  0  0  0
 55 64  1  0  0  0  0
 56 65  1  0  0  0  0
 57 65  1  0  0  0  0
 58 65  1  0  0  0  0
 59 76  1  0  0  0  0
 60 61  1  0  0  0  0
 60 64  1  0  0  0  0
 61 83  1  0  0  0  0
 62 65  1  0  0  0  0
 62 75  1  0  0  0  0
 63 76  1  0  0  0  0
 64 84  1  0  0  0  0
 66 68  1  0  0  0  0
M  CHG  1  76   1
M  ISO  4  37 100  61 101  73 100  83 101
M  END
> <Batch ID>
0142

> <Smiles>
CNC(C)C(=O)NC(C(=O)N1Cc2cc([101O:1][101CH2:1]CC(C)Oc3c(C4CC4)cc(C)nc3[100NH:0][100C:0](=O)N3CCCC(n4nc(-c5ccc(Oc6ccc(F)cc6F)cc5)c(C(N)=O)c4N)C3)ccc2CC1C(=O)NC1CCCc2ccccc21)C(C)(C)C

> <Shape>
0.228

> <Color>
0.097

> <Negative vol penalty>
0.000

$$$$

  -OEChem-04052321183D

 88 97  0     1  0  0  0  0  0999 V2000
  -29.5896  -35.1015   18.9312 C   0  0  0  0  0  0  0  0  0  0  0  0
  -29.4730  -33.8095   18.4287 C   0  0  0  0  0  0  0  0  0  0  0  0
  -22.9578  -10.1444   19.8722 C   0  0  0  0  0  0  0  0  0  0  0  0
  -23.8089   -9.8534   22.1145 C   0  0  0  0  0  0  0  0  0  0  0  0
  -29.3147  -35.3531   20.2747 C   0  0  0  0  0  0  0  0  0  0  0  0
  -29.0825  -32.7680   19.2698 C   0  0  0  0  0  0  0  0  0  0  0  0
  -25.6567  -27.9165   17.7756 C   0  0  0  0  0  0  0  0  0  0  0  0
  -29.1386  -20.5792   21.2744 C   0  0  0  0  0  0  0  0  0  0  0  0
  -22.1461   -9.0217   20.0345 C   0  0  0  0  0  0  0  0  0  0  0  0
  -22.9972   -8.7307   22.2769 C   0  0  0  0  0  0  0  0  0  0  0  0
  -25.9852  -26.6035   17.4413 C   0  0  0  0  0  0  0  0  0  0  0  0
  -28.9253  -21.7743   20.5874 C   0  0  0  0  0  0  0  0  0  0  0  0
  -19.7484   -8.0836   22.9458 C   0  0  0  0  0  0  0  0  0  0  0  0
  -19.0388   -7.9663   24.1409 C   0  0  0  0  0  0  0  0  0  0  0  0
  -25.6117  -25.9341   19.7286 C   0  0  0  0  0  0  0  0  0  0  0  0
  -29.0375  -20.5865   18.4865 C   0  0  0  0  0  0  0  0  0  0  0  0
  -20.1710   -5.8839   24.6087 C   0  0  0  0  0  0  0  0  0  0  0  0
  -23.7892  -10.5602   20.9121 C   0  0  0  0  0  0  0  0  0  0  0  0
  -24.3010  -13.0559   21.0427 C   0  0  0  0  0  0  0  0  0  0  0  0
  -28.9113  -34.3160   21.1305 C   0  0  0  0  0  0  0  0  0  0  0  0
  -25.3133  -28.2508   19.0934 C   0  0  0  0  0  0  0  0  0  0  0  0
  -28.8033  -33.0058   20.6263 C   0  0  0  0  0  0  0  0  0  0  0  0
  -25.2768  -27.2516   20.0764 C   0  0  0  0  0  0  0  0  0  0  0  0
  -29.3015  -19.3878   20.5674 C   0  0  0  0  0  0  0  0  0  0  0  0
  -29.2509  -19.3915   19.1735 C   0  0  0  0  0  0  0  0  0  0  0  0
  -22.1658   -8.3149   21.2368 C   0  0  0  0  0  0  0  0  0  0  0  0
  -25.9656  -25.6126   18.4184 C   0  0  0  0  0  0  0  0  0  0  0  0
  -28.8747  -21.7779   19.1934 C   0  0  0  0  0  0  0  0  0  0  0  0
  -20.6694   -7.1011   22.5821 C   0  0  0  0  0  0  0  0  0  0  0  0
  -19.2501   -6.8665   24.9723 C   0  0  0  0  0  0  0  0  0  0  0  0
  -20.8807   -6.0013   23.4136 C   0  0  0  0  0  0  0  0  0  0  0  0
  -24.6283  -11.7195   20.7448 C   0  0  0  0  0  0  0  0  0  0  0  0
  -25.4271  -13.7679   20.7086 C   0  0  0  0  0  0  0  0  0  0  0  0
  -23.0877  -13.6047   21.5740 C   0  0  0  0  0  0  0  0  0  0  0  0
  -26.5377  -30.1688   21.3129 C   0  0  0  0  0  0  0  0  0  0  0  0
  -23.8592  -29.3448   22.9465 C   0  0  0  0  0  0  0  0  0  0  0  0
  -21.3436  -27.0916   23.4383 C   0  0  0  0  0  0  0  0  0  0  0  0
  -30.9717  -14.4022   20.7405 C   0  0  0  0  0  0  0  0  0  0  0  0
  -28.6708  -34.6281   22.5863 C   0  0  0  0  0  0  0  0  0  0  0  0
  -24.9355  -29.6668   19.4321 C   0  0  0  0  0  0  0  0  0  0  0  0
  -24.8952  -27.5548   21.5015 C   0  0  0  0  0  0  0  0  0  0  0  0
  -27.9003  -33.5362   23.3241 C   0  0  0  0  0  0  0  0  0  0  0  0
  -29.5746  -12.3694   18.1729 C   0  0  0  0  0  0  0  0  0  0  0  0
  -28.4780  -32.1625   22.9988 C   0  0  0  0  0  0  0  0  0  0  0  0
  -27.1962  -15.8791   16.0906 C   0  0  0  0  0  0  0  0  0  0  0  0
  -28.5018  -16.4075   15.5651 C   0  0  0  0  0  0  0  0  0  0  0  0
  -28.1389  -12.1244   18.6408 C   0  0  0  0  0  0  0  0  0  0  0  0
  -30.5529  -12.3987   19.3451 C   0  0  0  0  0  0  0  0  0  0  0  0
  -28.7647  -13.0971   20.8905 C   0  0  0  0  0  0  0  0  0  0  0  0
  -28.3583  -31.8541   21.5014 C   0  0  1  0  0  0  0  0  0  0  0  0
  -25.1000  -29.9910   20.9138 C   0  0  1  0  0  0  0  0  0  0  0  0
  -28.2677  -16.3222   17.0479 C   0  0  0  0  0  0  0  0  0  0  0  0
  -27.7336  -13.1148   19.7490 C   0  0  2  0  0  0  0  0  0  0  0  0
  -19.3255  -26.6735   24.8701 C   0  0  0  0  0  0  0  0  0  0  0  0
  -25.6728  -28.5259   25.2596 C   0  0  0  0  0  0  0  0  0  0  0  0
  -23.7413  -27.2682   26.2372 C   0  0  0  0  0  0  0  0  0  0  0  0
  -23.5961  -29.7410   25.9419 C   0  0  0  0  0  0  0  0  0  0  0  0
  -19.5338  -27.1153   21.0968 C   0  0  0  0  0  0  0  0  0  0  0  0
  -29.5287  -18.1210   21.3250 C   0  0  0  0  0  0  0  0  0  0  0  0
  -29.4237  -18.1285   18.3954 C   0  0  0  0  0  0  0  0  0  0  0  0
  -28.0860  -17.5895   17.8681 C   0  0  0  0  0  0  0  0  0  0  0  0
  -30.9993  -17.6643   21.3741 C   0  0  0  0  0  0  0  0  0  0  0  0
  -31.2375  -16.3971   22.1926 C   0  0  0  0  0  0  0  0  0  0  0  0
  -27.2173  -24.1426   17.0298 C   0  0  0  0  0  0  0  0  0  1  0  0
  -27.9918  -22.8610   17.2691 C   0  0  0  0  0  0  0  0  0  0  0  0
  -23.4908  -28.2416   23.9089 C   0  0  1  0  0  0  0  0  0  0  0  0
  -19.8421  -27.2712   23.5705 C   0  0  2  0  0  0  0  0  0  0  0  0
  -24.1344  -28.4385   25.3106 C   0  0  0  0  0  0  0  0  0  0  0  0
  -25.8654  -11.5877   20.2587 N   0  0  0  0  0  0  0  0  0  0  0  0
  -26.3253  -12.8504   20.2484 N   0  0  0  0  0  0  0  0  0  0  0  0
  -24.5402  -28.9553   21.7845 N   0  0  0  0  0  0  0  0  0  0  0  0
  -30.1118  -13.3587   20.3599 N   0  0  0  0  0  0  0  0  0  0  0  0
  -25.7267  -15.0829   20.7663 N   0  0  0  0  0  0  0  0  0  0  0  0
  -22.0294  -12.7320   21.8616 N   0  0  0  0  0  0  0  0  0  0  0  0
  -27.0046  -31.4618   21.1728 N   0  0  0  0  0  0  0  0  0  0  0  0
  -22.0332  -28.1825   23.9237 N   0  0  0  0  0  0  0  0  0  0  0  0
  -30.4734  -15.2712   21.7035 N   0  0  0  0  0  0  0  0  0  0  0  0
  -19.1392  -26.6078   22.4361 N   0  3  0  0  0  0  0  0  0  0  0  0
  -22.9403  -14.8346   21.7719 O   0  0  0  0  0  0  0  0  0  0  0  0
  -27.1756  -29.2046   21.7192 O   0  0  0  0  0  0  0  0  0  0  0  0
  -23.5476  -30.5083   23.2125 O   0  0  0  0  0  0  0  0  0  0  0  0
  -21.8539  -26.0827   22.9564 O   0  0  0  0  0  0  0  0  0  0  0  0
  -32.0977  -14.5516   20.2540 O   0  0  0  0  0  0  0  0  0  0  0  0
  -21.3737   -7.2195   21.3957 O   0  0  0  0  0  0  0  0  0  0  0  0
  -26.2864  -24.3303   18.0950 O   0  0  0  0  0  0  0  0  0  1  0  0
  -28.6656  -22.9517   18.5185 O   0  0  0  0  0  0  0  0  0  0  0  0
  -18.5696   -6.7547   26.1207 F   0  0  0  0  0  0  0  0  0  0  0  0
  -21.7650   -5.0548   23.0701 F   0  0  0  0  0  0  0  0  0  0  0  0
  1  2  1  0  0  0  0
  1  5  2  0  0  0  0
  2  6  2  0  0  0  0
  3  9  2  0  0  0  0
  3 18  1  0  0  0  0
  4 10  1  0  0  0  0
  4 18  2  0  0  0  0
  5 20  1  0  0  0  0
  6 22  1  0  0  0  0
  7 11  2  0  0  0  0
  7 21  1  0  0  0  0
  8 12  2  0  0  0  0
  8 24  1  0  0  0  0
  9 26  1  0  0  0  0
 10 26  2  0  0  0  0
 11 27  1  0  0  0  0
 12 28  1  0  0  0  0
 13 14  2  0  0  0  0
 13 29  1  0  0  0  0
 14 30  1  0  0  0  0
 15 23  1  0  0  0  0
 15 27  2  0  0  0  0
 16 25  1  0  0  0  0
 16 28  2  0  0  0  0
 17 30  2  0  0  0  0
 17 31  1  0  0  0  0
 18 32  1  0  0  0  0
 19 32  1  0  0  0  0
 19 33  2  0  0  0  0
 19 34  1  0  0  0  0
 20 22  2  0  0  0  0
 20 39  1  0  0  0  0
 21 23  2  0  0  0  0
 21 40  1  0  0  0  0
 22 50  1  0  0  0  0
 23 41  1  0  0  0  0
 24 25  2  0  0  0  0
 24 59  1  0  0  0  0
 25 60  1  0  0  0  0
 26 84  1  0  0  0  0
 27 85  1  0  0  0  0
 28 86  1  0  0  0  0
 29 31  2  0  0  0  0
 29 84  1  0  0  0  0
 30 87  1  0  0  0  0
 31 88  1  0  0  0  0
 32 69  2  0  0  0  0
 33 70  1  0  0  0  0
 33 73  1  0  0  0  0
 34 74  1  0  0  0  0
 34 79  2  0  0  0  0
 35 51  1  0  0  0  0
 35 75  1  0  0  0  0
 35 80  2  0  0  0  0
 36 66  1  0  0  0  0
 36 71  1  0  0  0  0
 36 81  2  0  0  0  0
 37 67  1  0  0  0  0
 37 76  1  0  0  0  0
 37 82  2  0  0  0  0
 38 72  1  0  0  0  0
 38 77  1  0  0  0  0
 38 83  2  0  0  0  0
 39 42  1  0  0  0  0
 40 51  1  0  0  0  0
 41 71  1  0  0  0  0
 42 44  1  0  0  0  0
 43 47  1  0  0  0  0
 43 48  1  0  0  0  0
 44 50  1  0  0  0  0
 45 46  1  0  0  0  0
 45 52  1  0  0  0  0
 46 52  1  0  0  0  0
 47 53  1  0  0  0  0
 48 72  1  0  0  0  0
 49 53  1  0  0  0  0
 49 72  1  0  0  0  0
 50 75  1  0  0  0  0
 51 71  1  0  0  0  0
 52 61  1  0  0  0  0
 53 70  1  0  0  0  0
 54 67  1  0  0  0  0
 55 68  1  0  0  0  0
 56 68  1  0  0  0  0
 57 68  1  0  0  0  0
 58 78  1  0  0  0  0
 59 62  1  0  0  0  0
 60 61  1  0  0  0  0
 62 63  1  0  0  0  0
 63 77  1  0  0  0  0
 64 65  1  0  0  0  0
 64 85  1  0  0  0  0
 65 86  1  0  0  0  0
 66 68  1  0  0  0  0
 66 76  1  0  0  0  0
 67 78  1  0  0  0  0
 69 70  1  0  0  0  0
M  CHG  1  78   1
M  ISO  4  38 100  64 101  77 100  85 101
M  END
> <Batch ID>
0142

> <Smiles>
CNC(C)C(=O)NC(C(=O)N1Cc2cc([101O:1][101CH2:1]COc3ccc(CCC[100NH:0][100C:0](=O)N4CCCC(n5nc(-c6ccc(Oc7ccc(F)cc7F)cc6)c(C(N)=O)c5N)C4)c(CCC4CC4)c3)ccc2CC1C(=O)NC1CCCc2ccccc21)C(C)(C)C

> <Shape>
0.348

> <Color>
0.209

> <Negative vol penalty>
0.000

$$$$

  -OEChem-04052321183D

 83 92  0     1  0  0  0  0  0999 V2000
  -28.9291  -34.8415   24.8184 C   0  0  0  0  0  0  0  0  0  0  0  0
  -29.3635  -33.5904   25.2443 C   0  0  0  0  0  0  0  0  0  0  0  0
  -22.6096  -10.3203   20.2396 C   0  0  0  0  0  0  0  0  0  0  0  0
  -24.2481   -9.5201   21.8245 C   0  0  0  0  0  0  0  0  0  0  0  0
  -27.8627  -34.9413   23.9258 C   0  0  0  0  0  0  0  0  0  0  0  0
  -28.7309  -32.4382   24.7787 C   0  0  0  0  0  0  0  0  0  0  0  0
  -31.3384  -27.0195   23.6195 C   0  0  0  0  0  0  0  0  0  0  0  0
  -21.8422   -9.1756   20.4549 C   0  0  0  0  0  0  0  0  0  0  0  0
  -23.4807   -8.3754   22.0399 C   0  0  0  0  0  0  0  0  0  0  0  0
  -31.4234  -25.8417   24.3608 C   0  0  0  0  0  0  0  0  0  0  0  0
  -19.6832   -8.0270   22.7900 C   0  0  0  0  0  0  0  0  0  0  0  0
  -18.3091   -8.1912   22.9645 C   0  0  0  0  0  0  0  0  0  0  0  0
  -29.5091  -24.9682   23.1812 C   0  0  0  0  0  0  0  0  0  0  0  0
  -17.8975   -6.7988   21.0334 C   0  0  0  0  0  0  0  0  0  0  0  0
  -23.8126  -10.4925   20.9243 C   0  0  0  0  0  0  0  0  0  0  0  0
  -24.2205  -13.0107   20.9202 C   0  0  0  0  0  0  0  0  0  0  0  0
  -27.2230  -33.7894   23.4415 C   0  0  0  0  0  0  0  0  0  0  0  0
  -30.3297  -27.1850   22.6595 C   0  0  0  0  0  0  0  0  0  0  0  0
  -27.6541  -32.5228   23.8798 C   0  0  0  0  0  0  0  0  0  0  0  0
  -29.4150  -26.1480   22.4272 C   0  0  0  0  0  0  0  0  0  0  0  0
  -22.2777   -8.2032   21.3551 C   0  0  0  0  0  0  0  0  0  0  0  0
  -30.5069  -24.8170   24.1437 C   0  0  0  0  0  0  0  0  0  0  0  0
  -20.1645   -7.2488   21.7371 C   0  0  0  0  0  0  0  0  0  0  0  0
  -17.4163   -7.5771   22.0862 C   0  0  0  0  0  0  0  0  0  0  0  0
  -19.2717   -6.6347   20.8589 C   0  0  0  0  0  0  0  0  0  0  0  0
  -24.6061  -11.6745   20.7018 C   0  0  0  0  0  0  0  0  0  0  0  0
  -25.3212  -13.7489   20.5597 C   0  0  0  0  0  0  0  0  0  0  0  0
  -22.9785  -13.5375   21.4055 C   0  0  0  0  0  0  0  0  0  0  0  0
  -27.8999  -29.1995   22.2833 C   0  0  0  0  0  0  0  0  0  0  0  0
  -30.8564  -14.5414   20.7135 C   0  0  0  0  0  0  0  0  0  0  0  0
  -27.5864  -27.6771   19.4362 C   0  0  0  0  0  0  0  0  0  0  0  0
  -28.1476  -24.8738   17.5725 C   0  0  0  0  0  0  0  0  0  0  0  0
  -26.0440  -33.9492   22.5146 C   0  0  0  0  0  0  0  0  0  0  0  0
  -30.2679  -28.4509   21.8495 C   0  0  0  0  0  0  0  0  0  0  0  0
  -28.3257  -26.2679   21.3940 C   0  0  0  0  0  0  0  0  0  0  0  0
  -25.6700  -32.6656   21.7780 C   0  0  0  0  0  0  0  0  0  0  0  0
  -29.5513  -12.4063   18.1488 C   0  0  0  0  0  0  0  0  0  0  0  0
  -25.6331  -31.4865   22.7451 C   0  0  0  0  0  0  0  0  0  0  0  0
  -28.1271  -12.1110   18.6177 C   0  0  0  0  0  0  0  0  0  0  0  0
  -27.4309  -17.1091   23.4705 C   0  0  0  0  0  0  0  0  0  0  0  0
  -26.6549  -18.3051   23.9445 C   0  0  0  0  0  0  0  0  0  0  0  0
  -30.5139  -12.5233   19.3264 C   0  0  0  0  0  0  0  0  0  0  0  0
  -28.6762  -13.2351   20.8223 C   0  0  0  0  0  0  0  0  0  0  0  0
  -27.0095  -31.2489   23.3779 C   0  0  1  0  0  0  0  0  0  0  0  0
  -28.8864  -28.7153   21.2587 C   0  0  1  0  0  0  0  0  0  0  0  0
  -27.6658  -13.1396   19.6654 C   0  0  2  0  0  0  0  0  0  0  0  0
  -27.6393  -18.4462   22.8189 C   0  0  0  0  0  0  0  0  0  0  0  0
  -31.4671  -18.8068   23.0058 C   0  0  1  0  0  0  0  0  0  0  0  0
  -30.0915  -18.6486   22.3896 C   0  0  1  0  0  0  0  0  0  0  0  0
  -27.7422  -23.9115   15.2906 C   0  0  0  0  0  0  0  0  0  0  0  0
  -24.6694  -27.1673   20.1721 C   0  0  0  0  0  0  0  0  0  0  0  0
  -24.5882  -25.4375   18.3639 C   0  0  0  0  0  0  0  0  0  0  0  0
  -25.0448  -27.8211   17.7875 C   0  0  0  0  0  0  0  0  0  0  0  0
  -31.0472  -24.6144   17.0396 C   0  0  0  0  0  0  0  0  0  0  0  0
  -30.2859  -15.5021   21.7263 C   0  0  0  0  0  0  0  0  0  0  0  0
  -31.6896  -19.5137   24.2977 C   0  0  0  0  0  0  0  0  0  0  0  0
  -31.6626  -21.0329   24.1250 C   0  0  0  0  0  0  0  0  0  0  0  0
  -31.9389  -21.7494   25.4494 C   0  0  0  0  0  0  0  0  0  0  0  0
  -31.3173  -16.5739   22.0495 C   0  0  0  0  0  0  0  0  0  0  0  0
  -31.8840  -23.2657   25.3070 C   0  0  0  0  0  0  0  0  0  1  0  0
  -26.8322  -26.4629   18.9505 C   0  0  1  0  0  0  0  0  0  0  0  0
  -28.7059  -24.6897   16.1729 C   0  0  2  0  0  0  0  0  0  0  0  0
  -25.3029  -26.7204   18.8394 C   0  0  0  0  0  0  0  0  0  0  0  0
  -25.8542  -11.5671   20.2384 N   0  0  0  0  0  0  0  0  0  0  0  0
  -26.2624  -12.8452   20.1625 N   0  0  0  0  0  0  0  0  0  0  0  0
  -28.3029  -27.5274   20.6320 N   0  0  0  0  0  0  0  0  0  0  0  0
  -30.0290  -13.4933   20.3098 N   0  0  0  0  0  0  0  0  0  0  0  0
  -30.7754  -17.5225   23.0152 N   0  0  1  0  0  0  0  0  0  0  0  0
  -25.5661  -15.0764   20.5468 N   0  0  0  0  0  0  0  0  0  0  0  0
  -22.8228  -13.7163   22.7868 N   0  0  0  0  0  0  0  0  0  0  0  0
  -27.8846  -30.5718   22.4451 N   0  0  0  0  0  0  0  0  0  0  0  0
  -27.4637  -26.0645   17.6971 N   0  0  0  0  0  0  0  0  0  0  0  0
  -28.9205  -19.1656   23.1014 N   0  3  0  0  0  0  0  0  0  0  0  0
  -29.9985  -23.9497   16.2240 N   0  3  0  0  0  0  0  0  0  0  0  0
  -22.0287  -13.8252   20.6383 O   0  0  0  0  0  0  0  0  0  0  0  0
  -27.2031  -28.3883   22.8818 O   0  0  0  0  0  0  0  0  0  0  0  0
  -32.0023  -14.7206   20.2927 O   0  0  0  0  0  0  0  0  0  0  0  0
  -27.5472  -28.7178   18.7751 O   0  0  0  0  0  0  0  0  0  0  0  0
  -28.2997  -24.0425   18.4649 O   0  0  0  0  0  0  0  0  0  0  0  0
  -21.5290   -7.0862   21.5657 O   0  0  0  0  0  0  0  0  0  0  0  0
  -30.5873  -23.6667   24.8663 O   0  0  0  0  0  0  0  0  0  1  0  0
  -16.0967   -7.7335   22.2548 F   0  0  0  0  0  0  0  0  0  0  0  0
  -19.7281   -5.8849   19.8463 F   0  0  0  0  0  0  0  0  0  0  0  0
  1  2  1  0  0  0  0
  1  5  2  0  0  0  0
  2  6  2  0  0  0  0
  3  8  2  0  0  0  0
  3 15  1  0  0  0  0
  4  9  1  0  0  0  0
  4 15  2  0  0  0  0
  5 17  1  0  0  0  0
  6 19  1  0  0  0  0
  7 10  2  0  0  0  0
  7 18  1  0  0  0  0
  8 21  1  0  0  0  0
  9 21  2  0  0  0  0
 10 22  1  0  0  0  0
 11 12  2  0  0  0  0
 11 23  1  0  0  0  0
 12 24  1  0  0  0  0
 13 20  1  0  0  0  0
 13 22  2  0  0  0  0
 14 24  2  0  0  0  0
 14 25  1  0  0  0  0
 15 26  1  0  0  0  0
 16 26  1  0  0  0  0
 16 27  2  0  0  0  0
 16 28  1  0  0  0  0
 17 19  2  0  0  0  0
 17 33  1  0  0  0  0
 18 20  2  0  0  0  0
 18 34  1  0  0  0  0
 19 44  1  0  0  0  0
 20 35  1  0  0  0  0
 21 80  1  0  0  0  0
 22 81  1  0  0  0  0
 23 25  2  0  0  0  0
 23 80  1  0  0  0  0
 24 82  1  0  0  0  0
 25 83  1  0  0  0  0
 26 64  2  0  0  0  0
 27 65  1  0  0  0  0
 27 69  1  0  0  0  0
 28 70  1  0  0  0  0
 28 75  2  0  0  0  0
 29 45  1  0  0  0  0
 29 71  1  0  0  0  0
 29 76  2  0  0  0  0
 30 55  1  0  0  0  0
 30 67  1  0  0  0  0
 30 77  2  0  0  0  0
 31 61  1  0  0  0  0
 31 66  1  0  0  0  0
 31 78  2  0  0  0  0
 32 62  1  0  0  0  0
 32 72  1  0  0  0  0
 32 79  2  0  0  0  0
 33 36  1  0  0  0  0
 34 45  1  0  0  0  0
 35 66  1  0  0  0  0
 36 38  1  0  0  0  0
 37 39  1  0  0  0  0
 37 42  1  0  0  0  0
 38 44  1  0  0  0  0
 39 46  1  0  0  0  0
 40 41  1  0  0  0  0
 40 47  1  0  0  0  0
 41 47  1  0  0  0  0
 42 67  1  0  0  0  0
 43 46  1  0  0  0  0
 43 67  1  0  0  0  0
 44 71  1  0  0  0  0
 45 66  1  0  0  0  0
 46 65  1  0  0  0  0
 47 73  1  0  0  0  0
 48 49  1  0  0  0  0
 48 56  1  0  0  0  0
 48 68  1  0  0  0  0
 49 68  1  0  0  0  0
 49 73  1  0  0  0  0
 50 62  1  0  0  0  0
 51 63  1  0  0  0  0
 52 63  1  0  0  0  0
 53 63  1  0  0  0  0
 54 74  1  0  0  0  0
 55 59  1  0  0  0  0
 56 57  1  0  0  0  0
 57 58  1  0  0  0  0
 58 60  1  0  0  0  0
 59 68  1  0  0  0  0
 60 81  1  0  0  0  0
 61 63  1  0  0  0  0
 61 72  1  0  0  0  0
 62 74  1  0  0  0  0
 64 65  1  0  0  0  0
M  CHG  2  73   1  74   1
M  ISO  4  30 100  55 100  60 101  81 101
M  END
> <Batch ID>
0142

> <Smiles>
CNC(C)C(=O)NC(C(=O)N1Cc2cc([101O:1][101CH2:1]CCCC3C(NC4CC4)N3C[100CH2:0][100C:0](=O)N3CCCC(n4nc(-c5ccc(Oc6ccc(F)cc6F)cc5)c(C(N)=O)c4N)C3)ccc2CC1C(=O)NC1CCCc2ccccc21)C(C)(C)C

> <Shape>
0.269

> <Color>
0.179

> <Negative vol penalty>
0.000

$$$$

  -OEChem-04052321183D

 85 94  0     1  0  0  0  0  0999 V2000
  -19.2587  -33.2653   20.2024 C   0  0  0  0  0  0  0  0  0  0  0  0
  -20.6265  -33.0182   20.1422 C   0  0  0  0  0  0  0  0  0  0  0  0
  -26.3690  -12.8316   22.0372 C   0  0  0  0  0  0  0  0  0  0  0  0
  -25.5576  -14.3616   20.3526 C   0  0  0  0  0  0  0  0  0  0  0  0
  -18.4721  -32.6006   21.1422 C   0  0  0  0  0  0  0  0  0  0  0  0
  -21.2086  -32.1068   21.0226 C   0  0  0  0  0  0  0  0  0  0  0  0
  -25.9023  -28.3487   19.8599 C   0  0  0  0  0  0  0  0  0  0  0  0
  -25.1623  -12.1340   21.9849 C   0  0  0  0  0  0  0  0  0  0  0  0
  -24.3509  -13.6639   20.3003 C   0  0  0  0  0  0  0  0  0  0  0  0
  -27.2656  -28.4369   20.1379 C   0  0  0  0  0  0  0  0  0  0  0  0
  -23.6919   -9.8476   19.9740 C   0  0  0  0  0  0  0  0  0  0  0  0
  -23.7498   -8.4547   19.9314 C   0  0  0  0  0  0  0  0  0  0  0  0
  -26.9386  -27.1169   22.1304 C   0  0  0  0  0  0  0  0  0  0  0  0
  -29.8953  -23.0800   21.4638 C   0  0  0  0  0  0  0  0  0  0  0  0
  -22.4894   -8.3393   21.9893 C   0  0  0  0  0  0  0  0  0  0  0  0
  -28.2756  -22.2854   20.1167 C   0  0  0  0  0  0  0  0  0  0  0  0
  -26.5667  -13.9454   21.2211 C   0  0  0  0  0  0  0  0  0  0  0  0
  -28.9664  -14.4298   20.5039 C   0  0  0  0  0  0  0  0  0  0  0  0
  -19.0433  -31.6735   22.0282 C   0  0  0  0  0  0  0  0  0  0  0  0
  -25.0436  -27.6520   20.7223 C   0  0  0  0  0  0  0  0  0  0  0  0
  -20.4291  -31.4301   21.9760 C   0  0  0  0  0  0  0  0  0  0  0  0
  -25.5652  -27.0192   21.8597 C   0  0  0  0  0  0  0  0  0  0  0  0
  -28.9135  -22.0691   21.3182 C   0  0  0  0  0  0  0  0  0  0  0  0
  -24.1532  -12.5501   21.1164 C   0  0  0  0  0  0  0  0  0  0  0  0
  -27.7835  -27.8234   21.2748 C   0  0  0  0  0  0  0  0  0  0  0  0
  -23.0329  -10.4865   21.0244 C   0  0  0  0  0  0  0  0  0  0  0  0
  -23.1485   -7.7005   20.9390 C   0  0  0  0  0  0  0  0  0  0  0  0
  -22.4316   -9.7323   22.0320 C   0  0  0  0  0  0  0  0  0  0  0  0
  -27.8128  -14.6668   21.2751 C   0  0  0  0  0  0  0  0  0  0  0  0
  -29.8275  -23.8833   20.3469 C   0  0  0  0  0  0  0  0  0  0  0  0
  -29.8650  -15.3770   20.9302 C   0  0  0  0  0  0  0  0  0  0  0  0
  -29.2044  -13.4417   19.4925 C   0  0  0  0  0  0  0  0  0  0  0  0
  -30.6598  -25.0829   20.0363 C   0  0  0  0  0  0  0  0  0  0  0  0
  -22.5328  -28.4389   22.5056 C   0  0  0  0  0  0  0  0  0  0  0  0
  -22.3835  -25.2389   23.0155 C   0  0  0  0  0  0  0  0  0  0  0  0
  -24.0065  -22.2377   23.0867 C   0  0  0  0  0  0  0  0  0  0  0  0
  -29.2365  -20.7602   23.4462 C   0  0  0  0  0  0  0  0  0  0  0  0
  -18.1604  -31.0146   23.0582 C   0  0  0  0  0  0  0  0  0  0  0  0
  -23.5797  -27.5435   20.3942 C   0  0  0  0  0  0  0  0  0  0  0  0
  -24.6890  -26.2420   22.8068 C   0  0  0  0  0  0  0  0  0  0  0  0
  -18.7928  -29.7856   23.7061 C   0  0  0  0  0  0  0  0  0  0  0  0
  -31.0173  -17.9808   24.7807 C   0  0  0  0  0  0  0  0  0  0  0  0
  -20.2321  -30.0798   24.1170 C   0  0  0  0  0  0  0  0  0  0  0  0
  -27.0512  -25.8937   17.1959 C   0  0  0  0  0  0  0  0  0  0  0  0
  -26.1115  -25.1314   18.0878 C   0  0  0  0  0  0  0  0  0  0  0  0
  -30.5071  -16.7949   23.9589 C   0  0  0  0  0  0  0  0  0  0  0  0
  -29.9099  -18.9952   25.0606 C   0  0  0  0  0  0  0  0  0  0  0  0
  -28.6755  -18.2812   23.0517 C   0  0  0  0  0  0  0  0  0  0  0  0
  -21.0933  -30.4302   22.8975 C   0  0  1  0  0  0  0  0  0  0  0  0
  -22.7146  -27.2430   21.6143 C   0  0  1  0  0  0  0  0  0  0  0  0
  -27.5789  -25.1831   18.4113 C   0  0  0  0  0  0  0  0  0  0  0  0
  -29.7703  -17.2645   22.6892 C   0  0  2  0  0  0  0  0  0  0  0  0
  -24.2996  -19.7531   23.2829 C   0  0  0  0  0  0  0  0  0  0  0  0
  -22.3932  -25.8414   26.0066 C   0  0  0  0  0  0  0  0  0  0  0  0
  -22.9709  -23.4403   26.4176 C   0  0  0  0  0  0  0  0  0  0  0  0
  -20.8140  -24.0308   25.3123 C   0  0  0  0  0  0  0  0  0  0  0  0
  -23.5076  -21.8339   20.1976 C   0  0  0  0  0  0  0  0  0  0  0  0
  -31.1884  -25.9235   21.1887 C   0  0  0  0  0  0  0  0  0  0  0  0
  -28.4398  -23.9410   18.2583 C   0  0  0  0  0  0  0  0  0  0  0  0
  -31.3378  -27.3953   20.8092 C   0  0  0  0  0  0  0  0  0  0  0  0
  -30.0004  -28.0182   20.4361 C   0  0  0  0  0  0  0  0  0  1  0  0
  -22.9763  -24.2888   24.0279 C   0  0  1  0  0  0  0  0  0  0  0  0
  -23.6459  -20.8834   22.5033 C   0  0  2  0  0  0  0  0  0  0  0  0
  -22.3051  -24.4165   25.4245 C   0  0  0  0  0  0  0  0  0  0  0  0
  -27.9622  -15.6847   22.1269 N   0  0  0  0  0  0  0  0  0  0  0  0
  -28.8392  -23.3910   19.5351 N   0  0  0  0  0  0  0  0  0  0  0  0
  -29.2202  -16.0956   21.8935 N   0  0  0  0  0  0  0  0  0  0  0  0
  -23.2635  -26.1701   22.4460 N   0  0  0  0  0  0  0  0  0  0  0  0
  -29.2596  -19.3976   23.8116 N   0  0  0  0  0  0  0  0  0  0  0  0
  -31.1359  -15.6569   20.5712 N   0  0  0  0  0  0  0  0  0  0  0  0
  -28.1731  -12.5465   19.1772 N   0  0  0  0  0  0  0  0  0  0  0  0
  -28.6197  -21.0187   22.2226 N   0  0  0  0  0  0  0  0  0  0  0  0
  -21.4514  -29.2313   22.1704 N   0  0  0  0  0  0  0  0  0  0  0  0
  -22.8843  -22.9567   23.4402 N   0  0  0  0  0  0  0  0  0  0  0  0
  -24.0925  -20.7952   21.0842 N   0  3  0  0  0  0  0  0  0  0  0  0
  -30.3046  -13.3448   18.8979 O   0  0  0  0  0  0  0  0  0  0  0  0
  -30.8972  -25.3609   18.8630 O   0  0  0  0  0  0  0  0  0  0  0  0
  -23.3147  -28.6280   23.4300 O   0  0  0  0  0  0  0  0  0  0  0  0
  -21.1853  -25.1532   22.7349 O   0  0  0  0  0  0  0  0  0  0  0  0
  -25.1677  -22.6180   23.2193 O   0  0  0  0  0  0  0  0  0  0  0  0
  -29.7517  -21.6304   24.1529 O   0  0  0  0  0  0  0  0  0  0  0  0
  -22.9756  -11.8695   21.0649 O   0  0  0  0  0  0  0  0  0  0  0  0
  -29.1138  -27.9085   21.5488 O   0  0  0  0  0  0  0  0  0  1  0  0
  -23.2028   -6.3627   20.8970 F   0  0  0  0  0  0  0  0  0  0  0  0
  -21.7960  -10.3403   23.0430 F   0  0  0  0  0  0  0  0  0  0  0  0
  1  2  1  0  0  0  0
  1  5  2  0  0  0  0
  2  6  2  0  0  0  0
  3  8  2  0  0  0  0
  3 17  1  0  0  0  0
  4  9  1  0  0  0  0
  4 17  2  0  0  0  0
  5 19  1  0  0  0  0
  6 21  1  0  0  0  0
  7 10  2  0  0  0  0
  7 20  1  0  0  0  0
  8 24  1  0  0  0  0
  9 24  2  0  0  0  0
 10 25  1  0  0  0  0
 11 12  2  0  0  0  0
 11 26  1  0  0  0  0
 12 27  1  0  0  0  0
 13 22  1  0  0  0  0
 13 25  2  0  0  0  0
 14 23  1  0  0  0  0
 14 30  2  0  0  0  0
 15 27  2  0  0  0  0
 15 28  1  0  0  0  0
 16 23  2  0  0  0  0
 16 66  1  0  0  0  0
 17 29  1  0  0  0  0
 18 29  1  0  0  0  0
 18 31  2  0  0  0  0
 18 32  1  0  0  0  0
 19 21  2  0  0  0  0
 19 38  1  0  0  0  0
 20 22  2  0  0  0  0
 20 39  1  0  0  0  0
 21 49  1  0  0  0  0
 22 40  1  0  0  0  0
 23 72  1  0  0  0  0
 24 82  1  0  0  0  0
 25 83  1  0  0  0  0
 26 28  2  0  0  0  0
 26 82  1  0  0  0  0
 27 84  1  0  0  0  0
 28 85  1  0  0  0  0
 29 65  2  0  0  0  0
 30 33  1  0  0  0  0
 30 66  1  0  0  0  0
 31 67  1  0  0  0  0
 31 70  1  0  0  0  0
 32 71  1  0  0  0  0
 32 76  2  0  0  0  0
 33 58  1  0  0  0  0
 33 77  2  0  0  0  0
 34 50  1  0  0  0  0
 34 73  1  0  0  0  0
 34 78  2  0  0  0  0
 35 62  1  0  0  0  0
 35 68  1  0  0  0  0
 35 79  2  0  0  0  0
 36 63  1  0  0  0  0
 36 74  1  0  0  0  0
 36 80  2  0  0  0  0
 37 69  1  0  0  0  0
 37 72  1  0  0  0  0
 37 81  2  0  0  0  0
 38 41  1  0  0  0  0
 39 50  1  0  0  0  0
 40 68  1  0  0  0  0
 41 43  1  0  0  0  0
 42 46  1  0  0  0  0
 42 47  1  0  0  0  0
 43 49  1  0  0  0  0
 44 45  1  0  0  0  0
 44 51  1  0  0  0  0
 45 51  1  0  0  0  0
 46 52  1  0  0  0  0
 47 69  1  0  0  0  0
 48 52  1  0  0  0  0
 48 69  1  0  0  0  0
 49 73  1  0  0  0  0
 50 68  1  0  0  0  0
 51 59  1  0  0  0  0
 52 67  1  0  0  0  0
 53 63  1  0  0  0  0
 54 64  1  0  0  0  0
 55 64  1  0  0  0  0
 56 64  1  0  0  0  0
 57 75  1  0  0  0  0
 58 60  1  0  0  0  0
 59 66  1  0  0  0  0
 60 61  1  0  0  0  0
 61 83  1  0  0  0  0
 62 64  1  0  0  0  0
 62 74  1  0  0  0  0
 63 75  1  0  0  0  0
 65 67  1  0  0  0  0
M  CHG  1  75   1
M  ISO  4  37 100  61 101  72 100  83 101
M  END
> <Batch ID>
0142

> <Smiles>
CNC(C)C(=O)NC(C(=O)N1Cc2cc([101O:1][101CH2:1]CCC(=O)c3cc([100NH:0][100C:0](=O)N4CCCC(n5nc(-c6ccc(Oc7ccc(F)cc7F)cc6)c(C(N)=O)c5N)C4)cn3CC3CC3)ccc2CC1C(=O)NC1CCCc2ccccc21)C(C)(C)C

> <Shape>
0.242

> <Color>
0.091

> <Negative vol penalty>
0.000

$$$$
