
  -OEChem-04052321213D

 88 98  0     1  0  0  0  0  0999 V2000
  -28.2170  -40.3882   22.3276 C   0  0  0  0  0  0  0  0  0  0  0  0
  -28.9625  -39.3024   21.8796 C   0  0  0  0  0  0  0  0  0  0  0  0
  -23.4973   -9.5450   19.8556 C   0  0  0  0  0  0  0  0  0  0  0  0
  -24.5307   -9.1678   22.0067 C   0  0  0  0  0  0  0  0  0  0  0  0
  -27.3546  -40.2400   23.4130 C   0  0  0  0  0  0  0  0  0  0  0  0
  -28.8467  -38.0679   22.5176 C   0  0  0  0  0  0  0  0  0  0  0  0
  -26.7727  -32.1995   18.8909 C   0  0  0  0  0  0  0  0  0  0  0  0
  -28.1095  -19.3330   18.8184 C   0  0  0  0  0  0  0  0  0  0  0  0
  -22.3465   -8.8898   20.2936 C   0  0  0  0  0  0  0  0  0  0  0  0
  -23.3798   -8.5127   22.4447 C   0  0  0  0  0  0  0  0  0  0  0  0
  -26.5860  -30.9899   18.2216 C   0  0  0  0  0  0  0  0  0  0  0  0
  -28.1982  -20.6050   18.2528 C   0  0  0  0  0  0  0  0  0  0  0  0
  -21.9605   -5.4646   22.0898 C   0  0  0  0  0  0  0  0  0  0  0  0
  -22.1217   -4.2641   22.7815 C   0  0  0  0  0  0  0  0  0  0  0  0
  -26.6795  -29.7995   20.3245 C   0  0  0  0  0  0  0  0  0  0  0  0
  -29.8086  -21.2418   19.9375 C   0  0  0  0  0  0  0  0  0  0  0  0
  -21.0111   -5.2214   24.7018 C   0  0  0  0  0  0  0  0  0  0  0  0
  -24.5895   -9.6840   20.7122 C   0  0  0  0  0  0  0  0  0  0  0  0
  -26.5994  -10.0021   19.1737 C   0  0  0  0  0  0  0  0  0  0  0  0
  -27.2210  -39.0006   24.0585 C   0  0  0  0  0  0  0  0  0  0  0  0
  -26.8983  -32.2153   20.2828 C   0  0  0  0  0  0  0  0  0  0  0  0
  -27.9827  -37.9033   23.6135 C   0  0  0  0  0  0  0  0  0  0  0  0
  -26.8543  -31.0094   21.0016 C   0  0  0  0  0  0  0  0  0  0  0  0
  -29.7199  -19.9698   20.5031 C   0  0  0  0  0  0  0  0  0  0  0  0
  -28.8704  -19.0154   19.9436 C   0  0  0  0  0  0  0  0  0  0  0  0
  -22.2876   -8.3737   21.5881 C   0  0  0  0  0  0  0  0  0  0  0  0
  -26.5397  -29.7929   18.9366 C   0  0  0  0  0  0  0  0  0  0  0  0
  -29.0477  -21.5594   18.8124 C   0  0  0  0  0  0  0  0  0  0  0  0
  -21.3246   -6.5436   22.7042 C   0  0  0  0  0  0  0  0  0  0  0  0
  -21.6469   -4.1425   24.0874 C   0  0  0  0  0  0  0  0  0  0  0  0
  -20.8499   -6.4219   24.0101 C   0  0  0  0  0  0  0  0  0  0  0  0
  -25.7788  -10.3602   20.2602 C   0  0  0  0  0  0  0  0  0  0  0  0
  -27.5894  -10.9541   19.1628 C   0  0  0  0  0  0  0  0  0  0  0  0
  -26.4775   -8.9070   18.2564 C   0  0  0  0  0  0  0  0  0  0  0  0
  -27.3610  -34.2679   23.3891 C   0  0  0  0  0  0  0  0  0  0  0  0
  -25.3035  -32.0928   24.0567 C   0  0  0  0  0  0  0  0  0  0  0  0
  -22.7710  -29.8163   24.2599 C   0  0  0  0  0  0  0  0  0  0  0  0
  -27.9623  -16.6606   20.0638 C   0  0  0  0  0  0  0  0  0  0  0  0
  -26.3114  -38.9009   25.2574 C   0  0  0  0  0  0  0  0  0  0  0  0
  -27.1625  -33.4886   21.0396 C   0  0  0  0  0  0  0  0  0  0  0  0
  -27.0287  -31.0710   22.4945 C   0  0  0  0  0  0  0  0  0  0  0  0
  -25.9660  -37.4646   25.6422 C   0  0  0  0  0  0  0  0  0  0  0  0
  -28.6545  -14.1329   22.8667 C   0  0  0  0  0  0  0  0  0  0  0  0
  -32.0357  -19.8556   21.6424 C   0  0  0  0  0  0  0  0  0  0  0  0
  -31.4707  -18.4699   21.6706 C   0  0  0  0  0  0  0  0  0  0  0  0
  -27.2217  -36.5985   25.6542 C   0  0  0  0  0  0  0  0  0  0  0  0
  -27.2594  -24.9752   18.4797 C   0  0  0  0  0  0  0  0  0  0  0  0
  -29.1356  -26.3643   19.4525 C   0  0  0  0  0  0  0  0  0  0  0  0
  -28.6950  -12.8471   22.0443 C   0  0  0  0  0  0  0  0  0  0  0  0
  -26.5781  -26.2480   17.9860 C   0  0  0  0  0  0  0  0  0  0  0  0
  -28.4488  -27.6333   18.9566 C   0  0  0  0  0  0  0  0  0  0  0  0
  -28.9534  -15.3668   22.0246 C   0  0  0  0  0  0  0  0  0  0  0  0
  -27.2811  -14.3077   20.4956 C   0  0  0  0  0  0  0  0  0  0  0  0
  -30.5454  -19.6562   21.7079 C   0  0  0  0  0  0  0  0  0  0  0  0
  -27.8660  -36.5418   24.2638 C   0  0  1  0  0  0  0  0  0  0  0  0
  -26.4903  -33.5184   22.4240 C   0  0  1  0  0  0  0  0  0  0  0  0
  -28.7809  -25.1516   18.5809 C   0  0  0  0  0  0  0  0  0  0  0  0
  -28.1016  -13.0155   20.6315 C   0  0  2  0  0  0  0  0  0  0  0  0
  -26.9359  -27.4522   18.8530 C   0  0  0  0  0  0  0  0  0  1  0  0
  -21.0704  -28.8994   25.8613 C   0  0  0  0  0  0  0  0  0  0  0  0
  -27.4884  -30.4838   25.4500 C   0  0  0  0  0  0  0  0  0  0  0  0
  -25.7081  -28.9532   26.3195 C   0  0  0  0  0  0  0  0  0  0  0  0
  -25.7077  -31.3611   26.9710 C   0  0  0  0  0  0  0  0  0  0  0  0
  -20.5189  -30.6980   22.5542 C   0  0  0  0  0  0  0  0  0  0  0  0
  -29.4354  -23.8844   19.1280 C   0  0  0  0  0  0  0  0  0  0  0  0
  -25.0561  -30.7143   24.6154 C   0  0  1  0  0  0  0  0  0  0  0  0
  -21.3504  -29.9335   24.7820 C   0  0  2  0  0  0  0  0  0  0  0  0
  -25.9930  -30.3825   25.8110 C   0  0  0  0  0  0  0  0  0  0  0  0
  -26.2102  -11.4541   20.8936 N   0  0  0  0  0  0  0  0  0  0  0  0
  -27.3126  -11.7916   20.2031 N   0  0  0  0  0  0  0  0  0  0  0  0
  -26.2636  -32.2016   23.0434 N   0  0  0  0  0  0  0  0  0  0  0  0
  -28.0838  -15.4854   20.8452 N   0  0  0  0  0  0  0  0  0  0  0  0
  -28.6610  -11.1480   18.3650 N   0  0  0  0  0  0  0  0  0  0  0  0
  -27.1039   -7.6947   18.5762 N   0  0  0  0  0  0  0  0  0  0  0  0
  -28.7633  -17.7178   20.5036 N   0  0  0  0  0  0  0  0  0  0  0  0
  -27.1379  -35.6315   23.4061 N   0  0  0  0  0  0  0  0  0  0  0  0
  -23.6341  -30.6529   24.9355 N   0  0  0  0  0  0  0  0  0  0  0  0
  -20.3734  -29.7333   23.6745 N   0  3  0  0  0  0  0  0  0  0  0  0
  -25.8460   -9.0057   17.1770 O   0  0  0  0  0  0  0  0  0  0  0  0
  -28.1750  -33.6551   24.0700 O   0  0  0  0  0  0  0  0  0  0  0  0
  -24.6683  -33.0497   24.5085 O   0  0  0  0  0  0  0  0  0  0  0  0
  -23.0845  -29.0557   23.3468 O   0  0  0  0  0  0  0  0  0  0  0  0
  -27.2186  -16.7117   19.0820 O   0  0  0  0  0  0  0  0  0  0  0  0
  -21.1647   -7.7345   22.0159 O   0  0  0  0  0  0  0  0  0  0  0  0
  -26.3527  -28.6160   18.2773 O   0  0  0  0  0  0  0  0  0  1  0  0
  -29.1351  -22.8115   18.2552 O   0  0  0  0  0  0  0  0  0  0  0  0
  -21.8004   -2.9891   24.7510 F   0  0  0  0  0  0  0  0  0  0  0  0
  -20.2372   -7.4545   24.6051 F   0  0  0  0  0  0  0  0  0  0  0  0
  1  2  1  0  0  0  0
  1  5  2  0  0  0  0
  2  6  2  0  0  0  0
  3  9  2  0  0  0  0
  3 18  1  0  0  0  0
  4 10  1  0  0  0  0
  4 18  2  0  0  0  0
  5 20  1  0  0  0  0
  6 22  1  0  0  0  0
  7 11  2  0  0  0  0
  7 21  1  0  0  0  0
  8 12  2  0  0  0  0
  8 25  1  0  0  0  0
  9 26  1  0  0  0  0
 10 26  2  0  0  0  0
 11 27  1  0  0  0  0
 12 28  1  0  0  0  0
 13 14  2  0  0  0  0
 13 29  1  0  0  0  0
 14 30  1  0  0  0  0
 15 23  1  0  0  0  0
 15 27  2  0  0  0  0
 16 24  1  0  0  0  0
 16 28  2  0  0  0  0
 17 30  2  0  0  0  0
 17 31  1  0  0  0  0
 18 32  1  0  0  0  0
 19 32  1  0  0  0  0
 19 33  2  0  0  0  0
 19 34  1  0  0  0  0
 20 22  2  0  0  0  0
 20 39  1  0  0  0  0
 21 23  2  0  0  0  0
 21 40  1  0  0  0  0
 22 55  1  0  0  0  0
 23 41  1  0  0  0  0
 24 25  2  0  0  0  0
 24 54  1  0  0  0  0
 25 75  1  0  0  0  0
 26 84  1  0  0  0  0
 27 85  1  0  0  0  0
 28 86  1  0  0  0  0
 29 31  2  0  0  0  0
 29 84  1  0  0  0  0
 30 87  1  0  0  0  0
 31 88  1  0  0  0  0
 32 69  2  0  0  0  0
 33 70  1  0  0  0  0
 33 73  1  0  0  0  0
 34 74  1  0  0  0  0
 34 79  2  0  0  0  0
 35 56  1  0  0  0  0
 35 76  1  0  0  0  0
 35 80  2  0  0  0  0
 36 66  1  0  0  0  0
 36 71  1  0  0  0  0
 36 81  2  0  0  0  0
 37 67  1  0  0  0  0
 37 77  1  0  0  0  0
 37 82  2  0  0  0  0
 38 72  1  0  0  0  0
 38 75  1  0  0  0  0
 38 83  2  0  0  0  0
 39 42  1  0  0  0  0
 40 56  1  0  0  0  0
 41 71  1  0  0  0  0
 42 46  1  0  0  0  0
 43 49  1  0  0  0  0
 43 52  1  0  0  0  0
 44 45  1  0  0  0  0
 44 54  1  0  0  0  0
 45 54  1  0  0  0  0
 46 55  1  0  0  0  0
 47 50  1  0  0  0  0
 47 57  1  0  0  0  0
 48 51  1  0  0  0  0
 48 57  1  0  0  0  0
 49 58  1  0  0  0  0
 50 59  1  0  0  0  0
 51 59  1  0  0  0  0
 52 72  1  0  0  0  0
 53 58  1  0  0  0  0
 53 72  1  0  0  0  0
 55 76  1  0  0  0  0
 56 71  1  0  0  0  0
 57 65  1  0  0  0  0
 58 70  1  0  0  0  0
 59 85  1  0  0  0  0
 60 67  1  0  0  0  0
 61 68  1  0  0  0  0
 62 68  1  0  0  0  0
 63 68  1  0  0  0  0
 64 78  1  0  0  0  0
 65 86  1  0  0  0  0
 66 68  1  0  0  0  0
 66 77  1  0  0  0  0
 67 78  1  0  0  0  0
 69 70  1  0  0  0  0
M  CHG  1  78   1
M  ISO  4  38 100  59 101  75 100  85 101
M  END
> <Batch ID>
0143

> <Smiles>
CNC(C)C(=O)NC(C(=O)N1Cc2cc([101O:1][101CH:1]3CCC(COc4ccc([100NH:0][100C:0](=O)N5CCCC(n6nc(-c7ccc(Oc8ccc(F)cc8F)cc7)c(C(N)=O)c6N)C5)c(C5CC5)c4)CC3)ccc2CC1C(=O)NC1CCCc2ccccc21)C(C)(C)C

> <Shape>
0.326

> <Color>
0.091

> <Negative vol penalty>
0.000

$$$$

  -OEChem-04052321213D

 85 94  0     1  0  0  0  0  0999 V2000
  -16.7560  -27.8947   22.7737 C   0  0  0  0  0  0  0  0  0  0  0  0
  -17.7065  -27.2521   21.9869 C   0  0  0  0  0  0  0  0  0  0  0  0
  -31.3668  -24.4674   20.8733 C   0  0  0  0  0  0  0  0  0  0  0  0
  -25.4088  -10.0260   22.9258 C   0  0  0  0  0  0  0  0  0  0  0  0
  -23.1071  -10.1623   22.2042 C   0  0  0  0  0  0  0  0  0  0  0  0
  -17.0074  -29.1767   23.2608 C   0  0  0  0  0  0  0  0  0  0  0  0
  -18.9085  -27.8915   21.6859 C   0  0  0  0  0  0  0  0  0  0  0  0
  -24.4079  -25.2760   21.0368 C   0  0  0  0  0  0  0  0  0  0  0  0
  -30.7283  -24.4289   19.6337 C   0  0  0  0  0  0  0  0  0  0  0  0
  -30.9905  -23.5776   21.8795 C   0  0  0  0  0  0  0  0  0  0  0  0
  -25.0843   -8.9553   23.7587 C   0  0  0  0  0  0  0  0  0  0  0  0
  -22.7826   -9.0915   23.0371 C   0  0  0  0  0  0  0  0  0  0  0  0
  -25.1327  -24.8825   19.9127 C   0  0  0  0  0  0  0  0  0  0  0  0
  -23.0666   -5.7244   22.9875 C   0  0  0  0  0  0  0  0  0  0  0  0
  -22.2553   -4.7190   22.4617 C   0  0  0  0  0  0  0  0  0  0  0  0
  -26.3348  -26.9733   19.9634 C   0  0  0  0  0  0  0  0  0  0  0  0
  -20.6067   -5.1540   24.1733 C   0  0  0  0  0  0  0  0  0  0  0  0
  -24.4202  -10.6296   22.1486 C   0  0  0  0  0  0  0  0  0  0  0  0
  -25.1717  -11.6729   19.9454 C   0  0  0  0  0  0  0  0  0  0  0  0
  -18.2172  -29.8283   22.9737 C   0  0  0  0  0  0  0  0  0  0  0  0
  -24.6339  -26.5277   21.6272 C   0  0  0  0  0  0  0  0  0  0  0  0
  -19.1758  -29.1839   22.1686 C   0  0  0  0  0  0  0  0  0  0  0  0
  -25.6134  -27.3792   21.0965 C   0  0  0  0  0  0  0  0  0  0  0  0
  -29.3373  -22.6110   20.4066 C   0  0  0  0  0  0  0  0  0  0  0  0
  -29.7136  -23.5008   19.4004 C   0  0  0  0  0  0  0  0  0  0  0  0
  -23.7712   -8.4880   23.8144 C   0  0  0  0  0  0  0  0  0  0  0  0
  -26.0942  -25.7324   19.3741 C   0  0  0  0  0  0  0  0  0  0  0  0
  -29.9758  -22.6495   21.6462 C   0  0  0  0  0  0  0  0  0  0  0  0
  -22.6480   -6.4446   24.1064 C   0  0  0  0  0  0  0  0  0  0  0  0
  -21.0254   -4.4338   23.0545 C   0  0  0  0  0  0  0  0  0  0  0  0
  -21.4181   -6.1594   24.6992 C   0  0  0  0  0  0  0  0  0  0  0  0
  -24.7546  -11.7361   21.2884 C   0  0  0  0  0  0  0  0  0  0  0  0
  -25.3621  -12.9840   19.5829 C   0  0  0  0  0  0  0  0  0  0  0  0
  -25.3694  -10.5313   19.1009 C   0  0  0  0  0  0  0  0  0  0  0  0
  -22.8700  -29.1250   22.1234 C   0  0  0  0  0  0  0  0  0  0  0  0
  -25.4850  -30.1111   23.7702 C   0  0  0  0  0  0  0  0  0  0  0  0
  -28.8518  -29.8719   24.2741 C   0  0  0  0  0  0  0  0  0  0  0  0
  -27.5416  -17.9136   20.7238 C   0  0  0  0  0  0  0  0  0  0  0  0
  -18.4241  -31.2326   23.4835 C   0  0  0  0  0  0  0  0  0  0  0  0
  -23.8625  -26.9262   22.8554 C   0  0  0  0  0  0  0  0  0  0  0  0
  -25.9084  -28.7250   21.7051 C   0  0  0  0  0  0  0  0  0  0  0  0
  -19.8790  -31.6918   23.4299 C   0  0  0  0  0  0  0  0  0  0  0  0
  -24.1087  -17.2735   21.9147 C   0  0  0  0  0  0  0  0  0  0  0  0
  -20.4972  -31.3499   22.0780 C   0  0  0  0  0  0  0  0  0  0  0  0
  -24.0343  -15.7544   21.7927 C   0  0  0  0  0  0  0  0  0  0  0  0
  -28.3609  -20.6902   18.9819 C   0  0  0  0  0  0  0  0  0  0  0  0
  -25.5120  -17.7511   22.2857 C   0  0  0  0  0  0  0  0  0  0  0  0
  -26.4984  -15.7304   21.2425 C   0  0  0  0  0  0  0  0  0  0  0  0
  -28.2496  -21.6151   20.1617 C   0  0  1  0  0  0  0  0  0  0  0  0
  -20.5021  -29.8349   21.8409 C   0  0  1  0  0  0  0  0  0  0  0  0
  -23.8147  -28.4362   23.0672 C   0  0  1  0  0  0  0  0  0  0  0  0
  -25.1062  -15.2350   20.8222 C   0  0  1  0  0  0  0  0  0  0  0  0
  -28.5451  -20.1494   20.3689 C   0  0  1  0  0  0  0  0  0  0  0  0
  -30.7089  -30.8311   25.6628 C   0  0  0  0  0  0  0  0  0  0  0  0
  -25.4509  -32.6406   22.0643 C   0  0  0  0  0  0  0  0  0  0  0  0
  -27.7992  -33.0896   22.8073 C   0  0  0  0  0  0  0  0  0  0  0  0
  -25.9538  -33.0212   24.4843 C   0  0  0  0  0  0  0  0  0  0  0  0
  -29.4809  -27.2355   25.4627 C   0  0  0  0  0  0  0  0  0  0  0  0
  -28.5950  -22.2165   23.5335 C   0  0  0  0  0  0  0  0  0  0  0  0
  -29.0404  -23.4810   18.0513 C   0  0  0  0  0  0  0  0  0  0  0  0
  -28.9707  -24.8532   17.3776 C   0  0  0  0  0  0  0  0  0  0  0  0
  -28.1287  -25.8626   18.1494 C   0  0  0  0  0  0  0  0  0  1  0  0
  -26.7447  -30.8671   23.4231 C   0  0  1  0  0  0  0  0  0  0  0  0
  -29.6725  -29.7246   25.5426 C   0  0  2  0  0  0  0  0  0  0  0  0
  -26.4805  -32.3801   23.1819 C   0  0  0  0  0  0  0  0  0  0  0  0
  -24.6841  -12.9882   21.7481 N   0  0  0  0  0  0  0  0  0  0  0  0
  -25.0596  -13.7239   20.6880 N   0  0  0  0  0  0  0  0  0  0  0  0
  -25.1233  -29.0719   22.9012 N   0  0  0  0  0  0  0  0  0  0  0  0
  -26.5304  -17.1914   21.3831 N   0  0  0  0  0  0  0  0  0  0  0  0
  -25.7572  -13.5646   18.4300 N   0  0  0  0  0  0  0  0  0  0  0  0
  -25.1280   -9.2571   19.6326 N   0  0  0  0  0  0  0  0  0  0  0  0
  -21.5717  -29.2097   22.5889 N   0  0  0  0  0  0  0  0  0  0  0  0
  -27.6954  -30.5899   24.4944 N   0  0  0  0  0  0  0  0  0  0  0  0
  -27.5656  -19.2822   20.9673 N   0  0  0  0  0  0  0  0  0  0  0  0
  -30.3814  -28.4137   25.5517 N   0  3  0  0  0  0  0  0  0  0  0  0
  -25.7645  -10.6369   17.9150 O   0  0  0  0  0  0  0  0  0  0  0  0
  -23.2884  -29.5497   21.0527 O   0  0  0  0  0  0  0  0  0  0  0  0
  -24.8493  -30.4262   24.7793 O   0  0  0  0  0  0  0  0  0  0  0  0
  -29.2034  -29.4005   23.1948 O   0  0  0  0  0  0  0  0  0  0  0  0
  -28.3680  -17.3787   19.9764 O   0  0  0  0  0  0  0  0  0  0  0  0
  -23.4543   -7.4430   24.6268 O   0  0  0  0  0  0  0  0  0  0  0  0
  -29.6233  -21.7892   22.6425 O   0  0  0  0  0  0  0  0  0  0  0  0
  -26.8026  -25.3511   18.2765 O   0  0  0  0  0  0  0  0  0  1  0  0
  -20.2457   -3.4694   22.5485 F   0  0  0  0  0  0  0  0  0  0  0  0
  -21.0100   -6.8487   25.7736 F   0  0  0  0  0  0  0  0  0  0  0  0
  1  2  1  0  0  0  0
  1  6  2  0  0  0  0
  2  7  2  0  0  0  0
  3  9  2  0  0  0  0
  3 10  1  0  0  0  0
  4 11  2  0  0  0  0
  4 18  1  0  0  0  0
  5 12  1  0  0  0  0
  5 18  2  0  0  0  0
  6 20  1  0  0  0  0
  7 22  1  0  0  0  0
  8 13  2  0  0  0  0
  8 21  1  0  0  0  0
  9 25  1  0  0  0  0
 10 28  2  0  0  0  0
 11 26  1  0  0  0  0
 12 26  2  0  0  0  0
 13 27  1  0  0  0  0
 14 15  2  0  0  0  0
 14 29  1  0  0  0  0
 15 30  1  0  0  0  0
 16 23  1  0  0  0  0
 16 27  2  0  0  0  0
 17 30  2  0  0  0  0
 17 31  1  0  0  0  0
 18 32  1  0  0  0  0
 19 32  1  0  0  0  0
 19 33  2  0  0  0  0
 19 34  1  0  0  0  0
 20 22  2  0  0  0  0
 20 39  1  0  0  0  0
 21 23  2  0  0  0  0
 21 40  1  0  0  0  0
 22 50  1  0  0  0  0
 23 41  1  0  0  0  0
 24 25  2  0  0  0  0
 24 28  1  0  0  0  0
 24 49  1  0  0  0  0
 25 60  1  0  0  0  0
 26 81  1  0  0  0  0
 27 83  1  0  0  0  0
 28 82  1  0  0  0  0
 29 31  2  0  0  0  0
 29 81  1  0  0  0  0
 30 84  1  0  0  0  0
 31 85  1  0  0  0  0
 32 66  2  0  0  0  0
 33 67  1  0  0  0  0
 33 70  1  0  0  0  0
 34 71  1  0  0  0  0
 34 76  2  0  0  0  0
 35 51  1  0  0  0  0
 35 72  1  0  0  0  0
 35 77  2  0  0  0  0
 36 63  1  0  0  0  0
 36 68  1  0  0  0  0
 36 78  2  0  0  0  0
 37 64  1  0  0  0  0
 37 73  1  0  0  0  0
 37 79  2  0  0  0  0
 38 69  1  0  0  0  0
 38 74  1  0  0  0  0
 38 80  2  0  0  0  0
 39 42  1  0  0  0  0
 40 51  1  0  0  0  0
 41 68  1  0  0  0  0
 42 44  1  0  0  0  0
 43 45  1  0  0  0  0
 43 47  1  0  0  0  0
 44 50  1  0  0  0  0
 45 52  1  0  0  0  0
 46 49  1  0  0  0  0
 46 53  1  0  0  0  0
 47 69  1  0  0  0  0
 48 52  1  0  0  0  0
 48 69  1  0  0  0  0
 49 53  1  0  0  0  0
 50 72  1  0  0  0  0
 51 68  1  0  0  0  0
 52 67  1  0  0  0  0
 53 74  1  0  0  0  0
 54 64  1  0  0  0  0
 55 65  1  0  0  0  0
 56 65  1  0  0  0  0
 57 65  1  0  0  0  0
 58 75  1  0  0  0  0
 59 82  1  0  0  0  0
 60 61  1  0  0  0  0
 61 62  1  0  0  0  0
 62 83  1  0  0  0  0
 63 65  1  0  0  0  0
 63 73  1  0  0  0  0
 64 75  1  0  0  0  0
 66 67  1  0  0  0  0
M  CHG  1  75   1
M  ISO  4  38 100  62 101  74 100  83 101
M  END
> <Batch ID>
0143

> <Smiles>
CNC(C)C(=O)NC(C(=O)N1Cc2cc([101O:1][101CH2:1]CCc3cccc(OC)c3C3CC3[100NH:0][100C:0](=O)N3CCCC(n4nc(-c5ccc(Oc6ccc(F)cc6F)cc5)c(C(N)=O)c4N)C3)ccc2CC1C(=O)NC1CCCc2ccccc21)C(C)(C)C

> <Shape>
0.298

> <Color>
0.059

> <Negative vol penalty>
0.000

$$$$

  -OEChem-04052321213D

 85 94  0     1  0  0  0  0  0999 V2000
  -28.1390  -36.2754   22.1667 C   0  0  0  0  0  0  0  0  0  0  0  0
  -28.4165  -34.9178   22.0431 C   0  0  0  0  0  0  0  0  0  0  0  0
  -28.3458  -10.3641   21.9374 C   0  0  0  0  0  0  0  0  0  0  0  0
  -26.2532  -11.3157   21.1942 C   0  0  0  0  0  0  0  0  0  0  0  0
  -26.9806  -36.6922   22.8211 C   0  0  0  0  0  0  0  0  0  0  0  0
  -27.5363  -33.9762   22.5750 C   0  0  0  0  0  0  0  0  0  0  0  0
  -26.6427  -30.1381   19.3945 C   0  0  0  0  0  0  0  0  0  0  0  0
  -27.6543   -9.5274   22.8134 C   0  0  0  0  0  0  0  0  0  0  0  0
  -25.5616  -10.4790   22.0701 C   0  0  0  0  0  0  0  0  0  0  0  0
  -27.6242  -29.1530   19.2938 C   0  0  0  0  0  0  0  0  0  0  0  0
  -23.2218   -8.3399   23.8500 C   0  0  0  0  0  0  0  0  0  0  0  0
  -22.0883   -7.6873   23.3655 C   0  0  0  0  0  0  0  0  0  0  0  0
  -24.9046  -20.2716   18.4676 C   0  0  0  0  0  0  0  0  0  0  0  0
  -26.3476  -27.7383   20.7730 C   0  0  0  0  0  0  0  0  0  0  0  0
  -23.4360   -6.5950   21.6839 C   0  0  0  0  0  0  0  0  0  0  0  0
  -27.6453  -11.2583   21.1279 C   0  0  0  0  0  0  0  0  0  0  0  0
  -28.7103  -11.8523   18.8872 C   0  0  0  0  0  0  0  0  0  0  0  0
  -26.0808  -35.7550   23.3528 C   0  0  0  0  0  0  0  0  0  0  0  0
  -25.5097  -29.9346   20.1953 C   0  0  0  0  0  0  0  0  0  0  0  0
  -26.3654  -34.3809   23.2384 C   0  0  0  0  0  0  0  0  0  0  0  0
  -25.3690  -21.5819   18.4424 C   0  0  0  0  0  0  0  0  0  0  0  0
  -25.3520  -28.7213   20.8802 C   0  0  0  0  0  0  0  0  0  0  0  0
  -25.7399  -19.2523   18.9110 C   0  0  0  0  0  0  0  0  0  0  0  0
  -26.2622   -9.5848   22.8797 C   0  0  0  0  0  0  0  0  0  0  0  0
  -27.4781  -27.9540   19.9853 C   0  0  0  0  0  0  0  0  0  0  0  0
  -24.4624   -8.1202   23.2514 C   0  0  0  0  0  0  0  0  0  0  0  0
  -22.1954   -6.8148   22.2824 C   0  0  0  0  0  0  0  0  0  0  0  0
  -24.5695   -7.2477   22.1684 C   0  0  0  0  0  0  0  0  0  0  0  0
  -28.3592  -12.1233   20.2233 C   0  0  0  0  0  0  0  0  0  0  0  0
  -27.0206  -19.5930   19.3154 C   0  0  0  0  0  0  0  0  0  0  0  0
  -26.6662  -21.8184   18.8679 C   0  0  0  0  0  0  0  0  0  0  0  0
  -29.3711  -12.9818   18.4700 C   0  0  0  0  0  0  0  0  0  0  0  0
  -28.4612  -10.6841   18.0941 C   0  0  0  0  0  0  0  0  0  0  0  0
  -24.2918  -31.3599   22.7622 C   0  0  0  0  0  0  0  0  0  0  0  0
  -21.8306  -29.3093   22.2523 C   0  0  0  0  0  0  0  0  0  0  0  0
  -20.7429  -26.3649   20.9129 C   0  0  0  0  0  0  0  0  0  0  0  0
  -29.1948  -18.6938   20.2156 C   0  0  0  0  0  0  0  0  0  0  0  0
  -24.8655  -36.2545   24.0932 C   0  0  0  0  0  0  0  0  0  0  0  0
  -24.4471  -30.9965   20.2723 C   0  0  0  0  0  0  0  0  0  0  0  0
  -24.1445  -28.4455   21.7371 C   0  0  0  0  0  0  0  0  0  0  0  0
  -23.7962  -35.1849   24.3003 C   0  0  0  0  0  0  0  0  0  0  0  0
  -32.0580  -16.5789   20.1361 C   0  0  0  0  0  0  0  0  0  0  0  0
  -24.2392  -23.8653   18.8713 C   0  0  0  0  0  0  0  0  0  0  0  0
  -23.1411  -22.8787   18.6246 C   0  0  0  0  0  0  0  0  0  0  0  0
  -24.4268  -33.8899   24.8025 C   0  0  0  0  0  0  0  0  0  0  0  0
  -31.4665  -15.1720   20.0217 C   0  0  0  0  0  0  0  0  0  0  0  0
  -31.2064  -17.4814   21.0272 C   0  0  0  0  0  0  0  0  0  0  0  0
  -29.1938  -16.1434   20.5492 C   0  0  0  0  0  0  0  0  0  0  0  0
  -24.4842  -22.6829   17.9695 C   0  0  0  0  0  0  0  0  0  0  0  0
  -25.4226  -33.3285   23.7804 C   0  0  1  0  0  0  0  0  0  0  0  0
  -23.5828  -30.8872   21.5246 C   0  0  1  0  0  0  0  0  0  0  0  0
  -29.9821  -15.2167   19.6094 C   0  0  2  0  0  0  0  0  0  0  0  0
  -25.2386  -17.8484   18.9366 C   0  0  0  0  0  0  0  0  0  0  0  0
  -18.6879  -24.9418   20.6910 C   0  0  0  0  0  0  0  0  0  0  0  0
  -22.1422  -28.4116   25.1518 C   0  0  0  0  0  0  0  0  0  0  0  0
  -20.7645  -26.3946   24.6024 C   0  0  0  0  0  0  0  0  0  0  0  0
  -19.7748  -28.6745   24.3898 C   0  0  0  0  0  0  0  0  0  0  0  0
  -20.7895  -26.5541   17.9597 C   0  0  0  0  0  0  0  0  0  0  0  0
  -28.9001  -24.7303   19.1865 C   0  0  0  0  0  0  0  0  0  0  0  0
  -28.0080  -25.6359   20.0209 C   0  0  0  0  0  0  0  0  0  1  0  0
  -28.4992  -23.2685   19.3076 C   0  0  0  0  0  0  0  0  0  0  0  0
  -21.4955  -27.9081   22.7035 C   0  0  1  0  0  0  0  0  0  0  0  0
  -19.5346  -26.0337   20.0557 C   0  0  2  0  0  0  0  0  0  0  0  0
  -21.0680  -27.8529   24.1973 C   0  0  0  0  0  0  0  0  0  0  0  0
  -28.7637  -13.3301   20.6281 N   0  0  0  0  0  0  0  0  0  0  0  0
  -27.5070  -20.8543   19.3052 N   0  0  0  0  0  0  0  0  0  0  0  0
  -29.3758  -13.8275   19.5400 N   0  0  0  0  0  0  0  0  0  0  0  0
  -23.1362  -29.5172   21.7854 N   0  0  0  0  0  0  0  0  0  0  0  0
  -29.8138  -17.4775   20.5739 N   0  0  0  0  0  0  0  0  0  0  0  0
  -29.9429  -13.3240   17.2960 N   0  0  0  0  0  0  0  0  0  0  0  0
  -27.7684   -9.6151   18.6784 N   0  0  0  0  0  0  0  0  0  0  0  0
  -27.8803  -18.5621   19.7691 N   0  0  0  0  0  0  0  0  0  0  0  0
  -24.7203  -32.6721   22.6986 N   0  0  0  0  0  0  0  0  0  0  0  0
  -20.4867  -27.4105   21.7745 N   0  0  0  0  0  0  0  0  0  0  0  0
  -19.9676  -25.5683   18.7078 N   0  3  0  0  0  0  0  0  0  0  0  0
  -28.8562  -10.5845   16.9077 O   0  0  0  0  0  0  0  0  0  0  0  0
  -24.4378  -30.5916   23.7056 O   0  0  0  0  0  0  0  0  0  0  0  0
  -20.9637  -30.1852   22.3054 O   0  0  0  0  0  0  0  0  0  0  0  0
  -21.8063  -25.7545   20.8293 O   0  0  0  0  0  0  0  0  0  0  0  0
  -29.7961  -19.7695   20.2729 O   0  0  0  0  0  0  0  0  0  0  0  0
  -25.5870   -8.7683   23.7341 O   0  0  0  0  0  0  0  0  0  0  0  0
  -28.4349  -26.9911   19.8892 O   0  0  0  0  0  0  0  0  0  1  0  0
  -27.1619  -23.0963   18.8586 O   0  0  0  0  0  0  0  0  0  0  0  0
  -21.1070   -6.1870   21.8182 F   0  0  0  0  0  0  0  0  0  0  0  0
  -25.7589   -7.0317   21.5900 F   0  0  0  0  0  0  0  0  0  0  0  0
  1  2  1  0  0  0  0
  1  5  2  0  0  0  0
  2  6  2  0  0  0  0
  3  8  2  0  0  0  0
  3 16  1  0  0  0  0
  4  9  1  0  0  0  0
  4 16  2  0  0  0  0
  5 18  1  0  0  0  0
  6 20  1  0  0  0  0
  7 10  2  0  0  0  0
  7 19  1  0  0  0  0
  8 24  1  0  0  0  0
  9 24  2  0  0  0  0
 10 25  1  0  0  0  0
 11 12  2  0  0  0  0
 11 26  1  0  0  0  0
 12 27  1  0  0  0  0
 13 21  1  0  0  0  0
 13 23  2  0  0  0  0
 14 22  1  0  0  0  0
 14 25  2  0  0  0  0
 15 27  2  0  0  0  0
 15 28  1  0  0  0  0
 16 29  1  0  0  0  0
 17 29  1  0  0  0  0
 17 32  2  0  0  0  0
 17 33  1  0  0  0  0
 18 20  2  0  0  0  0
 18 38  1  0  0  0  0
 19 22  2  0  0  0  0
 19 39  1  0  0  0  0
 20 50  1  0  0  0  0
 21 31  2  0  0  0  0
 21 49  1  0  0  0  0
 22 40  1  0  0  0  0
 23 30  1  0  0  0  0
 23 53  1  0  0  0  0
 24 81  1  0  0  0  0
 25 82  1  0  0  0  0
 26 28  2  0  0  0  0
 26 81  1  0  0  0  0
 27 84  1  0  0  0  0
 28 85  1  0  0  0  0
 29 65  2  0  0  0  0
 30 66  2  0  0  0  0
 30 72  1  0  0  0  0
 31 66  1  0  0  0  0
 31 83  1  0  0  0  0
 32 67  1  0  0  0  0
 32 70  1  0  0  0  0
 33 71  1  0  0  0  0
 33 76  2  0  0  0  0
 34 51  1  0  0  0  0
 34 73  1  0  0  0  0
 34 77  2  0  0  0  0
 35 62  1  0  0  0  0
 35 68  1  0  0  0  0
 35 78  2  0  0  0  0
 36 63  1  0  0  0  0
 36 74  1  0  0  0  0
 36 79  2  0  0  0  0
 37 69  1  0  0  0  0
 37 72  1  0  0  0  0
 37 80  2  0  0  0  0
 38 41  1  0  0  0  0
 39 51  1  0  0  0  0
 40 68  1  0  0  0  0
 41 45  1  0  0  0  0
 42 46  1  0  0  0  0
 42 47  1  0  0  0  0
 43 44  1  0  0  0  0
 43 49  1  0  0  0  0
 44 49  1  0  0  0  0
 45 50  1  0  0  0  0
 46 52  1  0  0  0  0
 47 69  1  0  0  0  0
 48 52  1  0  0  0  0
 48 69  1  0  0  0  0
 50 73  1  0  0  0  0
 51 68  1  0  0  0  0
 52 67  1  0  0  0  0
 54 63  1  0  0  0  0
 55 64  1  0  0  0  0
 56 64  1  0  0  0  0
 57 64  1  0  0  0  0
 58 75  1  0  0  0  0
 59 60  1  0  0  0  0
 59 61  1  0  0  0  0
 60 82  1  0  0  0  0
 61 83  1  0  0  0  0
 62 64  1  0  0  0  0
 62 74  1  0  0  0  0
 63 75  1  0  0  0  0
 65 67  1  0  0  0  0
M  CHG  1  75   1
M  ISO  4  37 100  60 101  72 100  82 101
M  END
> <Batch ID>
0143

> <Smiles>
CNC(C)C(=O)NC(C(=O)N1Cc2cc([101O:1][101CH2:1]CCOc3nc([100NH:0][100C:0](=O)N4CCCC(n5nc(-c6ccc(Oc7ccc(F)cc7F)cc6)c(C(N)=O)c5N)C4)c(C)cc3C3CC3)ccc2CC1C(=O)NC1CCCc2ccccc21)C(C)(C)C

> <Shape>
0.311

> <Color>
0.073

> <Negative vol penalty>
0.000

$$$$

  -OEChem-04052321213D

 83 92  0     1  0  0  0  0  0999 V2000
  -25.2002  -20.1876   28.5589 C   0  0  0  0  0  0  0  0  0  0  0  0
  -24.9937  -21.3525   27.8268 C   0  0  0  0  0  0  0  0  0  0  0  0
  -29.6650  -17.4026   19.4379 C   0  0  0  0  0  0  0  0  0  0  0  0
  -27.7699  -17.8979   20.8522 C   0  0  0  0  0  0  0  0  0  0  0  0
  -25.1479  -18.9478   27.9234 C   0  0  0  0  0  0  0  0  0  0  0  0
  -24.7360  -21.2781   26.4584 C   0  0  0  0  0  0  0  0  0  0  0  0
  -21.0758  -24.9484   23.1969 C   0  0  0  0  0  0  0  0  0  0  0  0
  -29.6953  -16.0996   19.9348 C   0  0  0  0  0  0  0  0  0  0  0  0
  -27.8002  -16.5949   21.3491 C   0  0  0  0  0  0  0  0  0  0  0  0
  -21.3356  -26.0537   22.3878 C   0  0  0  0  0  0  0  0  0  0  0  0
  -28.0081  -13.2095   19.4515 C   0  0  0  0  0  0  0  0  0  0  0  0
  -28.1638  -12.1697   18.5350 C   0  0  0  0  0  0  0  0  0  0  0  0
  -26.8874  -28.4970   20.9171 C   0  0  0  0  0  0  0  0  0  0  0  0
  -21.3312  -24.6246   20.4445 C   0  0  0  0  0  0  0  0  0  0  0  0
  -25.5286  -27.2408   19.3344 C   0  0  0  0  0  0  0  0  0  0  0  0
  -30.1998  -11.4945   19.6467 C   0  0  0  0  0  0  0  0  0  0  0  0
  -28.7023  -18.3018   19.8967 C   0  0  0  0  0  0  0  0  0  0  0  0
  -27.9569  -20.1149   18.2643 C   0  0  0  0  0  0  0  0  0  0  0  0
  -24.8797  -18.8576   26.5484 C   0  0  0  0  0  0  0  0  0  0  0  0
  -20.9523  -23.6691   22.6361 C   0  0  0  0  0  0  0  0  0  0  0  0
  -24.6814  -20.0359   25.8037 C   0  0  0  0  0  0  0  0  0  0  0  0
  -25.8695  -29.4298   20.9909 C   0  0  0  0  0  0  0  0  0  0  0  0
  -21.0672  -23.5051   21.2483 C   0  0  0  0  0  0  0  0  0  0  0  0
  -24.5043  -28.1848   19.4266 C   0  0  0  0  0  0  0  0  0  0  0  0
  -26.7132  -27.3964   20.0738 C   0  0  0  0  0  0  0  0  0  0  0  0
  -24.7039  -29.2708   20.2564 C   0  0  0  0  0  0  0  0  0  0  0  0
  -28.7629  -15.6957   20.8904 C   0  0  0  0  0  0  0  0  0  0  0  0
  -21.4662  -25.8915   21.0117 C   0  0  0  0  0  0  0  0  0  0  0  0
  -28.9484  -13.3919   20.4656 C   0  0  0  0  0  0  0  0  0  0  0  0
  -29.2596  -11.3122   18.6325 C   0  0  0  0  0  0  0  0  0  0  0  0
  -30.0442  -12.5344   20.5632 C   0  0  0  0  0  0  0  0  0  0  0  0
  -28.6709  -19.6481   19.3842 C   0  0  0  0  0  0  0  0  0  0  0  0
  -28.2572  -21.4536   18.1993 C   0  0  0  0  0  0  0  0  0  0  0  0
  -27.0989  -19.4022   17.3634 C   0  0  0  0  0  0  0  0  0  0  0  0
  -22.5342  -20.9280   22.9320 C   0  0  0  0  0  0  0  0  0  0  0  0
  -20.1482  -19.7979   21.0472 C   0  0  0  0  0  0  0  0  0  0  0  0
  -17.7275  -20.4530   18.7325 C   0  0  0  0  0  0  0  0  0  0  0  0
  -28.9630  -26.4110   20.6342 C   0  0  0  0  0  0  0  0  0  0  0  0
  -24.8800  -17.4977   25.8964 C   0  0  0  0  0  0  0  0  0  0  0  0
  -20.6454  -22.4911   23.5195 C   0  0  0  0  0  0  0  0  0  0  0  0
  -25.7571  -30.6398   21.8338 C   0  0  0  0  0  0  0  0  0  0  0  0
  -20.9231  -22.1559   20.5946 C   0  0  0  0  0  0  0  0  0  0  0  0
  -24.2302  -17.4843   24.5151 C   0  0  0  0  0  0  0  0  0  0  0  0
  -31.7326  -24.1740   20.6779 C   0  0  0  0  0  0  0  0  0  0  0  0
  -24.7369  -18.6527   23.6755 C   0  0  0  0  0  0  0  0  0  0  0  0
  -31.1242  -22.8355   20.2531 C   0  0  0  0  0  0  0  0  0  0  0  0
  -30.7746  -24.9800   21.5533 C   0  0  0  0  0  0  0  0  0  0  0  0
  -28.8272  -23.8436   20.5606 C   0  0  0  0  0  0  0  0  0  0  0  0
  -24.5478  -31.2901   21.1602 C   0  0  0  0  0  0  0  0  0  0  0  0
  -24.3746  -19.9950   24.3224 C   0  0  1  0  0  0  0  0  0  0  0  0
  -21.0496  -21.1574   22.8988 C   0  0  1  0  0  0  0  0  0  0  0  0
  -29.7300  -23.0245   19.6237 C   0  0  2  0  0  0  0  0  0  0  0  0
  -23.4963  -28.0354   17.1259 C   0  0  0  0  0  0  0  0  0  0  0  0
  -15.9639  -19.3210   17.3521 C   0  0  0  0  0  0  0  0  0  0  0  0
  -22.3051  -18.7301   19.1716 C   0  0  0  0  0  0  0  0  0  0  0  0
  -20.5470  -18.4763   17.4072 C   0  0  0  0  0  0  0  0  0  0  0  0
  -20.3755  -17.1805   19.5319 C   0  0  0  0  0  0  0  0  0  0  0  0
  -15.5635  -22.0282   19.9953 C   0  0  0  0  0  0  0  0  0  0  0  0
  -22.4664  -26.7351   19.0258 C   0  0  0  0  0  0  0  0  0  1  0  0
  -23.2193  -28.0131   18.6317 C   0  0  1  0  0  0  0  0  0  0  0  0
  -19.9315  -19.6693   19.5587 C   0  0  1  0  0  0  0  0  0  0  0  0
  -16.2685  -20.0409   18.6566 C   0  0  2  0  0  0  0  0  0  0  0  0
  -20.7945  -18.5393   18.9296 C   0  0  0  0  0  0  0  0  0  0  0  0
  -29.3721  -20.6118   19.9871 N   0  0  0  0  0  0  0  0  0  0  0  0
  -29.1002  -21.6976   19.2433 N   0  0  0  0  0  0  0  0  0  0  0  0
  -20.6295  -21.0339   21.5015 N   0  0  0  0  0  0  0  0  0  0  0  0
  -29.4761  -25.1221   20.8911 N   0  0  0  0  0  0  0  0  0  0  0  0
  -27.8798  -22.4340   17.3515 N   0  0  0  0  0  0  0  0  0  0  0  0
  -26.8993  -18.0312   17.5748 N   0  0  0  0  0  0  0  0  0  0  0  0
  -27.7364  -26.4216   19.9708 N   0  0  0  0  0  0  0  0  0  0  0  0
  -22.9825  -20.3112   24.0844 N   0  0  0  0  0  0  0  0  0  0  0  0
  -18.4949  -19.5002   19.3685 N   0  0  0  0  0  0  0  0  0  0  0  0
  -15.3864  -21.2385   18.7495 N   0  3  0  0  0  0  0  0  0  0  0  0
  -26.5392  -19.9611   16.3898 O   0  0  0  0  0  0  0  0  0  0  0  0
  -23.2217  -21.2828   21.9817 O   0  0  0  0  0  0  0  0  0  0  0  0
  -19.8929  -18.8394   21.7805 O   0  0  0  0  0  0  0  0  0  0  0  0
  -18.1453  -21.5124   18.2703 O   0  0  0  0  0  0  0  0  0  0  0  0
  -29.5800  -27.4306   20.9531 O   0  0  0  0  0  0  0  0  0  0  0  0
  -23.7911  -30.2746   20.4592 O   0  0  0  0  0  0  0  0  0  0  0  0
  -28.7920  -14.4243   21.3753 O   0  0  0  0  0  0  0  0  0  0  0  0
  -21.7205  -26.9685   20.2198 O   0  0  0  0  0  0  0  0  0  1  0  0
  -29.4081  -10.3127   17.7532 F   0  0  0  0  0  0  0  0  0  0  0  0
  -30.9501  -12.7040   21.5360 F   0  0  0  0  0  0  0  0  0  0  0  0
  1  2  1  0  0  0  0
  1  5  2  0  0  0  0
  2  6  2  0  0  0  0
  3  8  2  0  0  0  0
  3 17  1  0  0  0  0
  4  9  1  0  0  0  0
  4 17  2  0  0  0  0
  5 19  1  0  0  0  0
  6 21  1  0  0  0  0
  7 10  2  0  0  0  0
  7 20  1  0  0  0  0
  8 27  1  0  0  0  0
  9 27  2  0  0  0  0
 10 28  1  0  0  0  0
 11 12  2  0  0  0  0
 11 29  1  0  0  0  0
 12 30  1  0  0  0  0
 13 22  2  0  0  0  0
 13 25  1  0  0  0  0
 14 23  1  0  0  0  0
 14 28  2  0  0  0  0
 15 24  1  0  0  0  0
 15 25  2  0  0  0  0
 16 30  2  0  0  0  0
 16 31  1  0  0  0  0
 17 32  1  0  0  0  0
 18 32  1  0  0  0  0
 18 33  2  0  0  0  0
 18 34  1  0  0  0  0
 19 21  2  0  0  0  0
 19 39  1  0  0  0  0
 20 23  2  0  0  0  0
 20 40  1  0  0  0  0
 21 50  1  0  0  0  0
 22 26  1  0  0  0  0
 22 41  1  0  0  0  0
 23 42  1  0  0  0  0
 24 26  2  0  0  0  0
 24 60  1  0  0  0  0
 25 70  1  0  0  0  0
 26 79  1  0  0  0  0
 27 80  1  0  0  0  0
 28 81  1  0  0  0  0
 29 31  2  0  0  0  0
 29 80  1  0  0  0  0
 30 82  1  0  0  0  0
 31 83  1  0  0  0  0
 32 64  2  0  0  0  0
 33 65  1  0  0  0  0
 33 68  1  0  0  0  0
 34 69  1  0  0  0  0
 34 74  2  0  0  0  0
 35 51  1  0  0  0  0
 35 71  1  0  0  0  0
 35 75  2  0  0  0  0
 36 61  1  0  0  0  0
 36 66  1  0  0  0  0
 36 76  2  0  0  0  0
 37 62  1  0  0  0  0
 37 72  1  0  0  0  0
 37 77  2  0  0  0  0
 38 67  1  0  0  0  0
 38 70  1  0  0  0  0
 38 78  2  0  0  0  0
 39 43  1  0  0  0  0
 40 51  1  0  0  0  0
 41 49  1  0  0  0  0
 42 66  1  0  0  0  0
 43 45  1  0  0  0  0
 44 46  1  0  0  0  0
 44 47  1  0  0  0  0
 45 50  1  0  0  0  0
 46 52  1  0  0  0  0
 47 67  1  0  0  0  0
 48 52  1  0  0  0  0
 48 67  1  0  0  0  0
 49 79  1  0  0  0  0
 50 71  1  0  0  0  0
 51 66  1  0  0  0  0
 52 65  1  0  0  0  0
 53 60  1  0  0  0  0
 54 62  1  0  0  0  0
 55 63  1  0  0  0  0
 56 63  1  0  0  0  0
 57 63  1  0  0  0  0
 58 73  1  0  0  0  0
 59 60  1  0  0  0  0
 59 81  1  0  0  0  0
 61 63  1  0  0  0  0
 61 72  1  0  0  0  0
 62 73  1  0  0  0  0
 64 65  1  0  0  0  0
M  CHG  1  73   1
M  ISO  4  38 100  59 101  70 100  81 101
M  END
> <Batch ID>
0143

> <Smiles>
CNC(C)C(=O)NC(C(=O)N1Cc2cc([101O:1][101CH2:1]C(C)c3cc([100NH:0][100C:0](=O)N4CCCC(n5nc(-c6ccc(Oc7ccc(F)cc7F)cc6)c(C(N)=O)c5N)C4)cc4c3OCC4)ccc2CC1C(=O)NC1CCCc2ccccc21)C(C)(C)C

> <Shape>
0.193

> <Color>
0.070

> <Negative vol penalty>
0.000

$$$$

  -OEChem-04052321213D

 92102  0     1  0  0  0  0  0999 V2000
  -18.4835  -32.1230   25.2892 C   0  0  0  0  0  0  0  0  0  0  0  0
  -19.8109  -32.3616   24.9479 C   0  0  0  0  0  0  0  0  0  0  0  0
  -33.2459  -20.2282   20.1148 C   0  0  0  0  0  0  0  0  0  0  0  0
  -34.0209  -20.7958   21.1261 C   0  0  0  0  0  0  0  0  0  0  0  0
  -25.9859  -12.5253   20.5771 C   0  0  0  0  0  0  0  0  0  0  0  0
  -24.8054  -13.9739   22.1085 C   0  0  0  0  0  0  0  0  0  0  0  0
  -17.9675  -30.8299   25.2146 C   0  0  0  0  0  0  0  0  0  0  0  0
  -20.6234  -31.3071   24.5330 C   0  0  0  0  0  0  0  0  0  0  0  0
  -31.9001  -20.5734   19.9904 C   0  0  0  0  0  0  0  0  0  0  0  0
  -26.0920  -29.8690   20.1350 C   0  0  0  0  0  0  0  0  0  0  0  0
  -33.4501  -21.7086   22.0131 C   0  0  0  0  0  0  0  0  0  0  0  0
  -25.3877  -11.4127   21.1685 C   0  0  0  0  0  0  0  0  0  0  0  0
  -24.2071  -12.8612   22.6998 C   0  0  0  0  0  0  0  0  0  0  0  0
  -27.3555  -29.2797   20.1444 C   0  0  0  0  0  0  0  0  0  0  0  0
  -22.3968   -9.8393   21.0580 C   0  0  0  0  0  0  0  0  0  0  0  0
  -21.8800   -8.8561   20.2143 C   0  0  0  0  0  0  0  0  0  0  0  0
  -26.3340  -27.1008   19.9780 C   0  0  0  0  0  0  0  0  0  0  0  0
  -23.3750   -7.2302   21.1934 C   0  0  0  0  0  0  0  0  0  0  0  0
  -25.6948  -13.8060   21.0472 C   0  0  0  0  0  0  0  0  0  0  0  0
  -27.6900  -15.2347   20.3504 C   0  0  0  0  0  0  0  0  0  0  0  0
  -18.7714  -29.7605   24.7893 C   0  0  0  0  0  0  0  0  0  0  0  0
  -24.9377  -29.0765   20.0579 C   0  0  0  0  0  0  0  0  0  0  0  0
  -20.1180  -29.9983   24.4540 C   0  0  0  0  0  0  0  0  0  0  0  0
  -31.3293  -21.4861   20.8774 C   0  0  0  0  0  0  0  0  0  0  0  0
  -25.0571  -27.6825   19.9652 C   0  0  0  0  0  0  0  0  0  0  0  0
  -32.1043  -22.0538   21.8888 C   0  0  0  0  0  0  0  0  0  0  0  0
  -24.4983  -11.5806   22.2298 C   0  0  0  0  0  0  0  0  0  0  0  0
  -27.4766  -27.8953   20.0689 C   0  0  0  0  0  0  0  0  0  0  0  0
  -23.4027   -9.5180   21.9694 C   0  0  0  0  0  0  0  0  0  0  0  0
  -22.3691   -7.5516   20.2820 C   0  0  0  0  0  0  0  0  0  0  0  0
  -23.8918   -8.2135   22.0371 C   0  0  0  0  0  0  0  0  0  0  0  0
  -26.3129  -14.9557   20.4371 C   0  0  0  0  0  0  0  0  0  0  0  0
  -27.7560  -16.4343   19.6848 C   0  0  0  0  0  0  0  0  0  0  0  0
  -28.8094  -14.4773   20.8288 C   0  0  0  0  0  0  0  0  0  0  0  0
  -32.3049  -25.3102   22.2408 C   0  0  0  0  0  0  0  0  0  0  0  0
  -22.4290  -28.5778   21.9451 C   0  0  0  0  0  0  0  0  0  0  0  0
  -21.3660  -26.8419   19.4194 C   0  0  0  0  0  0  0  0  0  0  0  0
  -22.1161  -25.0657   16.6035 C   0  0  0  0  0  0  0  0  0  0  0  0
  -26.0723  -21.5453   18.7063 C   0  0  0  0  0  0  0  0  0  0  0  0
  -18.1822  -28.3723   24.7699 C   0  0  0  0  0  0  0  0  0  0  0  0
  -23.5829  -29.7291   20.0218 C   0  0  0  0  0  0  0  0  0  0  0  0
  -23.8496  -26.7884   19.8603 C   0  0  0  0  0  0  0  0  0  0  0  0
  -19.0054  -27.3724   23.9620 C   0  0  0  0  0  0  0  0  0  0  0  0
  -24.2073  -19.0458   17.2143 C   0  0  0  0  0  0  0  0  0  0  0  0
  -20.4847  -27.4899   24.3153 C   0  0  0  0  0  0  0  0  0  0  0  0
  -30.7064  -27.1884   22.3297 C   0  0  0  0  0  0  0  0  0  0  0  0
  -31.5380  -26.3119   20.1081 C   0  0  0  0  0  0  0  0  0  0  0  0
  -24.6927  -17.7713   17.9048 C   0  0  0  0  0  0  0  0  0  0  0  0
  -30.1796  -28.4455   21.6370 C   0  0  0  0  0  0  0  0  0  0  0  0
  -31.0106  -27.5688   19.4148 C   0  0  0  0  0  0  0  0  0  0  0  0
  -29.5776  -22.5274   19.3720 C   0  0  0  0  0  0  0  0  0  0  0  0
  -28.9463  -20.6278   20.9192 C   0  0  0  0  0  0  0  0  0  0  0  0
  -24.0601  -20.1871   18.2144 C   0  0  0  0  0  0  0  0  0  0  0  0
  -28.0962  -22.8627   19.2167 C   0  0  0  0  0  0  0  0  0  0  0  0
  -27.4802  -21.0067   20.7306 C   0  0  0  0  0  0  0  0  0  0  0  0
  -25.8048  -19.2187   19.6747 C   0  0  0  0  0  0  0  0  0  0  0  0
  -29.8639  -21.8474   20.7220 C   0  0  0  0  0  0  0  0  0  0  0  0
  -21.0240  -28.8845   23.9755 C   0  0  1  0  0  0  0  0  0  0  0  0
  -31.8887  -26.5838   21.5712 C   0  0  0  0  0  0  0  0  0  0  0  0
  -22.4582  -28.7955   20.4587 C   0  0  1  0  0  0  0  0  0  0  0  0
  -25.9810  -18.0332   18.7048 C   0  0  1  0  0  0  0  0  0  0  0  0
  -29.8361  -28.1927   20.1683 C   0  0  0  0  0  0  0  0  0  1  0  0
  -21.0394  -23.7332   14.7697 C   0  0  0  0  0  0  0  0  0  0  0  0
  -20.9745  -24.5096   21.3473 C   0  0  0  0  0  0  0  0  0  0  0  0
  -20.8255  -22.9871   19.3653 C   0  0  0  0  0  0  0  0  0  0  0  0
  -19.1389  -24.7990   19.6736 C   0  0  0  0  0  0  0  0  0  0  0  0
  -23.1165  -26.9110   14.5171 C   0  0  0  0  0  0  0  0  0  0  0  0
  -31.5152  -23.0327   22.8506 C   0  0  0  0  0  0  0  0  0  0  0  0
  -21.4943  -25.4029   18.9813 C   0  0  1  0  0  0  0  0  0  0  0  0
  -21.5330  -25.1051   15.2025 C   0  0  2  0  0  0  0  0  0  0  0  0
  -20.6312  -24.4411   19.8458 C   0  0  0  0  0  0  0  0  0  0  0  0
  -25.5585  -15.9019   19.8718 N   0  0  0  0  0  0  0  0  0  0  0  0
  -26.4648  -16.7873   19.4237 N   0  0  0  0  0  0  0  0  0  0  0  0
  -22.5467  -27.4735   19.8352 N   0  0  0  0  0  0  0  0  0  0  0  0
  -25.3018  -20.3998   18.9577 N   0  0  0  0  0  0  0  0  0  0  0  0
  -27.2564  -21.6881   19.4483 N   0  0  0  0  0  0  0  0  0  0  0  0
  -28.7921  -17.2111   19.3033 N   0  0  0  0  0  0  0  0  0  0  0  0
  -29.2773  -14.7237   22.1268 N   0  0  0  0  0  0  0  0  0  0  0  0
  -21.2626  -29.0014   22.5529 N   0  0  0  0  0  0  0  0  0  0  0  0
  -31.3251  -24.3319   22.2591 N   0  0  0  0  0  0  0  0  0  0  0  0
  -21.1723  -25.3791   17.5586 N   0  0  0  0  0  0  0  0  0  0  0  0
  -22.5611  -25.5642   14.2262 N   0  3  0  0  0  0  0  0  0  0  0  0
  -29.3883  -13.6192   20.1202 O   0  0  0  0  0  0  0  0  0  0  0  0
  -33.4335  -25.2143   22.7084 O   0  0  0  0  0  0  0  0  0  0  0  0
  -23.3927  -28.0623   22.4993 O   0  0  0  0  0  0  0  0  0  0  0  0
  -20.2603  -27.3877   19.3869 O   0  0  0  0  0  0  0  0  0  0  0  0
  -23.2905  -24.7814   16.8285 O   0  0  0  0  0  0  0  0  0  0  0  0
  -25.7288  -22.3873   17.8673 O   0  0  0  0  0  0  0  0  0  0  0  0
  -23.9141  -10.4951   22.8069 O   0  0  0  0  0  0  0  0  0  0  0  0
  -28.7166  -27.3138   20.0786 O   0  0  0  0  0  0  0  0  0  1  0  0
  -21.8717   -6.6072   19.4728 F   0  0  0  0  0  0  0  0  0  0  0  0
  -24.8572   -7.8985   22.9115 F   0  0  0  0  0  0  0  0  0  0  0  0
  1  2  1  0  0  0  0
  1  7  2  0  0  0  0
  2  8  2  0  0  0  0
  3  4  1  0  0  0  0
  3  9  2  0  0  0  0
  4 11  2  0  0  0  0
  5 12  2  0  0  0  0
  5 19  1  0  0  0  0
  6 13  1  0  0  0  0
  6 19  2  0  0  0  0
  7 21  1  0  0  0  0
  8 23  1  0  0  0  0
  9 24  1  0  0  0  0
 10 14  2  0  0  0  0
 10 22  1  0  0  0  0
 11 26  1  0  0  0  0
 12 27  1  0  0  0  0
 13 27  2  0  0  0  0
 14 28  1  0  0  0  0
 15 16  2  0  0  0  0
 15 29  1  0  0  0  0
 16 30  1  0  0  0  0
 17 25  1  0  0  0  0
 17 28  2  0  0  0  0
 18 30  2  0  0  0  0
 18 31  1  0  0  0  0
 19 32  1  0  0  0  0
 20 32  1  0  0  0  0
 20 33  2  0  0  0  0
 20 34  1  0  0  0  0
 21 23  2  0  0  0  0
 21 40  1  0  0  0  0
 22 25  2  0  0  0  0
 22 41  1  0  0  0  0
 23 58  1  0  0  0  0
 24 26  2  0  0  0  0
 24 57  1  0  0  0  0
 25 42  1  0  0  0  0
 26 68  1  0  0  0  0
 27 89  1  0  0  0  0
 28 90  1  0  0  0  0
 29 31  2  0  0  0  0
 29 89  1  0  0  0  0
 30 91  1  0  0  0  0
 31 92  1  0  0  0  0
 32 72  2  0  0  0  0
 33 73  1  0  0  0  0
 33 77  1  0  0  0  0
 34 78  1  0  0  0  0
 34 83  2  0  0  0  0
 35 59  1  0  0  0  0
 35 80  1  0  0  0  0
 35 84  2  0  0  0  0
 36 60  1  0  0  0  0
 36 79  1  0  0  0  0
 36 85  2  0  0  0  0
 37 69  1  0  0  0  0
 37 74  1  0  0  0  0
 37 86  2  0  0  0  0
 38 70  1  0  0  0  0
 38 81  1  0  0  0  0
 38 87  2  0  0  0  0
 39 75  1  0  0  0  0
 39 76  1  0  0  0  0
 39 88  2  0  0  0  0
 40 43  1  0  0  0  0
 41 60  1  0  0  0  0
 42 74  1  0  0  0  0
 43 45  1  0  0  0  0
 44 48  1  0  0  0  0
 44 53  1  0  0  0  0
 45 58  1  0  0  0  0
 46 49  1  0  0  0  0
 46 59  1  0  0  0  0
 47 50  1  0  0  0  0
 47 59  1  0  0  0  0
 48 61  1  0  0  0  0
 49 62  1  0  0  0  0
 50 62  1  0  0  0  0
 51 54  1  0  0  0  0
 51 57  1  0  0  0  0
 52 55  1  0  0  0  0
 52 57  1  0  0  0  0
 53 75  1  0  0  0  0
 54 76  1  0  0  0  0
 55 76  1  0  0  0  0
 56 61  1  0  0  0  0
 56 75  1  0  0  0  0
 58 79  1  0  0  0  0
 60 74  1  0  0  0  0
 61 73  1  0  0  0  0
 62 90  1  0  0  0  0
 63 70  1  0  0  0  0
 64 71  1  0  0  0  0
 65 71  1  0  0  0  0
 66 71  1  0  0  0  0
 67 82  1  0  0  0  0
 68 80  1  0  0  0  0
 69 71  1  0  0  0  0
 69 81  1  0  0  0  0
 70 82  1  0  0  0  0
 72 73  1  0  0  0  0
M  CHG  1  82   1
M  ISO  4  39 100  62 101  76 100  90 101
M  END
> <Batch ID>
0143

> <Smiles>
CNC(C)C(=O)NC(C(=O)N1Cc2cc([101O:1][101CH:1]3CCC(C(=O)NCc4ccccc4C4CC[100N:0]([100C:0](=O)N5CCCC(n6nc(-c7ccc(Oc8ccc(F)cc8F)cc7)c(C(N)=O)c6N)C5)CC4)CC3)ccc2CC1C(=O)NC1CCCc2ccccc21)C(C)(C)C

> <Shape>
0.245

> <Color>
0.079

> <Negative vol penalty>
0.000

$$$$

  -OEChem-04052321213D

 84 93  0     1  0  0  0  0  0999 V2000
  -18.9778  -33.2476   20.8306 C   0  0  0  0  0  0  0  0  0  0  0  0
  -20.2161  -32.8258   20.3571 C   0  0  0  0  0  0  0  0  0  0  0  0
  -26.1832  -12.9346   21.6664 C   0  0  0  0  0  0  0  0  0  0  0  0
  -25.8738  -13.7725   19.4216 C   0  0  0  0  0  0  0  0  0  0  0  0
  -18.5254  -32.8161   22.0768 C   0  0  0  0  0  0  0  0  0  0  0  0
  -21.0033  -31.9732   21.1302 C   0  0  0  0  0  0  0  0  0  0  0  0
  -24.7096  -27.5383   19.1052 C   0  0  0  0  0  0  0  0  0  0  0  0
  -24.9776  -12.2394   21.5731 C   0  0  0  0  0  0  0  0  0  0  0  0
  -24.6682  -13.0772   19.3282 C   0  0  0  0  0  0  0  0  0  0  0  0
  -26.0864  -27.4915   18.8908 C   0  0  0  0  0  0  0  0  0  0  0  0
  -23.8576   -9.3717   20.1748 C   0  0  0  0  0  0  0  0  0  0  0  0
  -23.8344   -8.0511   20.6234 C   0  0  0  0  0  0  0  0  0  0  0  0
  -26.3856  -26.4972   21.0681 C   0  0  0  0  0  0  0  0  0  0  0  0
  -29.1060  -23.5466   16.5546 C   0  0  0  0  0  0  0  0  0  0  0  0
  -22.1360   -8.6305   22.2411 C   0  0  0  0  0  0  0  0  0  0  0  0
  -26.6313  -13.7012   20.5907 C   0  0  0  0  0  0  0  0  0  0  0  0
  -29.1570  -13.9528   20.3356 C   0  0  0  0  0  0  0  0  0  0  0  0
  -19.3032  -31.9500   22.8613 C   0  0  0  0  0  0  0  0  0  0  0  0
  -24.1605  -27.0741   20.3091 C   0  0  0  0  0  0  0  0  0  0  0  0
  -20.5615  -31.5308   22.3887 C   0  0  0  0  0  0  0  0  0  0  0  0
  -25.0013  -26.5368   21.2943 C   0  0  0  0  0  0  0  0  0  0  0  0
  -28.6768  -22.2612   16.2434 C   0  0  0  0  0  0  0  0  0  0  0  0
  -24.2201  -12.3106   20.4040 C   0  0  0  0  0  0  0  0  0  0  0  0
  -26.9249  -26.9736   19.8735 C   0  0  0  0  0  0  0  0  0  0  0  0
  -23.0201  -10.3217   20.7594 C   0  0  0  0  0  0  0  0  0  0  0  0
  -22.9736   -7.6805   21.6565 C   0  0  0  0  0  0  0  0  0  0  0  0
  -22.1593   -9.9511   21.7925 C   0  0  0  0  0  0  0  0  0  0  0  0
  -28.5862  -21.3026   17.2466 C   0  0  0  0  0  0  0  0  0  0  0  0
  -27.8763  -14.4201   20.6867 C   0  0  0  0  0  0  0  0  0  0  0  0
  -29.4302  -23.8206   17.8735 C   0  0  0  0  0  0  0  0  0  0  0  0
  -28.9339  -21.6770   18.5345 C   0  0  0  0  0  0  0  0  0  0  0  0
  -29.9945  -15.0057   20.6123 C   0  0  0  0  0  0  0  0  0  0  0  0
  -29.5542  -12.6808   19.8066 C   0  0  0  0  0  0  0  0  0  0  0  0
  -22.4978  -28.3966   22.6734 C   0  0  0  0  0  0  0  0  0  0  0  0
  -22.3085  -25.3358   23.7305 C   0  0  0  0  0  0  0  0  0  0  0  0
  -23.6345  -22.1912   23.7532 C   0  0  0  0  0  0  0  0  0  0  0  0
  -29.1579  -20.9140   20.9249 C   0  0  0  0  0  0  0  0  0  0  0  0
  -18.7930  -31.5482   24.2226 C   0  0  0  0  0  0  0  0  0  0  0  0
  -22.6708  -27.1068   20.5141 C   0  0  0  0  0  0  0  0  0  0  0  0
  -24.4598  -26.0069   22.5960 C   0  0  0  0  0  0  0  0  0  0  0  0
  -19.5230  -30.3461   24.8162 C   0  0  0  0  0  0  0  0  0  0  0  0
  -30.4091  -18.8012   23.5032 C   0  0  0  0  0  0  0  0  0  0  0  0
  -27.2951  -22.8027   14.1289 C   0  0  0  0  0  0  0  0  0  0  0  0
  -26.9610  -21.3959   14.5156 C   0  0  0  0  0  0  0  0  0  0  0  0
  -21.0320  -30.5100   24.6652 C   0  0  0  0  0  0  0  0  0  0  0  0
  -30.0235  -17.3949   23.0386 C   0  0  0  0  0  0  0  0  0  0  0  0
  -29.3342  -19.8287   23.1534 C   0  0  0  0  0  0  0  0  0  0  0  0
  -28.5436  -18.4414   21.2773 C   0  0  0  0  0  0  0  0  0  0  0  0
  -28.3242  -21.9533   14.8243 C   0  0  0  0  0  0  0  0  0  0  0  0
  -21.4335  -30.5862   23.1872 C   0  0  1  0  0  0  0  0  0  0  0  0
  -22.2695  -27.0803   21.9857 C   0  0  1  0  0  0  0  0  0  0  0  0
  -29.6248  -17.3828   21.5498 C   0  0  2  0  0  0  0  0  0  0  0  0
  -23.2802  -19.9110   24.7393 C   0  0  0  0  0  0  0  0  0  0  0  0
  -23.4098  -26.3217   26.3998 C   0  0  0  0  0  0  0  0  0  0  0  0
  -23.9218  -23.9425   26.9880 C   0  0  0  0  0  0  0  0  0  0  0  0
  -21.5623  -24.6466   26.5883 C   0  0  0  0  0  0  0  0  0  0  0  0
  -23.2910  -20.9625   21.0828 C   0  0  0  0  0  0  0  0  0  0  0  0
  -30.2285  -25.5410   19.4948 C   0  0  0  0  0  0  0  0  0  0  0  0
  -28.9889  -25.8749   20.3079 C   0  0  0  0  0  0  0  0  0  1  0  0
  -23.1493  -24.4610   24.6289 C   0  0  1  0  0  0  0  0  0  0  0  0
  -22.9964  -20.8275   23.5594 C   0  0  2  0  0  0  0  0  0  0  0  0
  -23.0215  -24.8547   26.1276 C   0  0  0  0  0  0  0  0  0  0  0  0
  -27.8937  -15.6723   21.1511 N   0  0  0  0  0  0  0  0  0  0  0  0
  -29.3550  -22.9157   18.8751 N   0  0  0  0  0  0  0  0  0  0  0  0
  -29.1956  -16.0008   21.0939 N   0  0  0  0  0  0  0  0  0  0  0  0
  -22.9970  -26.0665   22.7518 N   0  0  0  0  0  0  0  0  0  0  0  0
  -29.0106  -19.7623   21.7265 N   0  0  0  0  0  0  0  0  0  0  0  0
  -31.3289  -15.1682   20.4883 N   0  0  0  0  0  0  0  0  0  0  0  0
  -28.5660  -11.7125   19.5821 N   0  0  0  0  0  0  0  0  0  0  0  0
  -28.8520  -20.7220   19.5780 N   0  0  0  0  0  0  0  0  0  0  0  0
  -29.8561  -25.1051   18.1684 N   0  0  0  0  0  0  0  0  0  0  0  0
  -21.4272  -29.2665   22.5931 N   0  0  0  0  0  0  0  0  0  0  0  0
  -22.7621  -23.0850   24.3374 N   0  0  0  0  0  0  0  0  0  0  0  0
  -23.5224  -20.1803   22.3243 N   0  3  0  0  0  0  0  0  0  0  0  0
  -30.7520  -12.4050   19.5562 O   0  0  0  0  0  0  0  0  0  0  0  0
  -23.5657  -28.6069   23.2365 O   0  0  0  0  0  0  0  0  0  0  0  0
  -21.0852  -25.3640   23.8866 O   0  0  0  0  0  0  0  0  0  0  0  0
  -24.7924  -22.4378   23.4230 O   0  0  0  0  0  0  0  0  0  0  0  0
  -29.5543  -21.9843   21.3932 O   0  0  0  0  0  0  0  0  0  0  0  0
  -23.0437  -11.6321   20.3124 O   0  0  0  0  0  0  0  0  0  0  0  0
  -28.2692  -26.9274   19.6670 O   0  0  0  0  0  0  0  0  0  1  0  0
  -22.9504   -6.4121   22.0862 F   0  0  0  0  0  0  0  0  0  0  0  0
  -21.3515  -10.8590   22.3572 F   0  0  0  0  0  0  0  0  0  0  0  0
  -28.0548  -19.6978   16.8822 Cl  0  0  0  0  0  0  0  0  0  0  0  0
  1  2  1  0  0  0  0
  1  5  2  0  0  0  0
  2  6  2  0  0  0  0
  3  8  2  0  0  0  0
  3 16  1  0  0  0  0
  4  9  1  0  0  0  0
  4 16  2  0  0  0  0
  5 18  1  0  0  0  0
  6 20  1  0  0  0  0
  7 10  2  0  0  0  0
  7 19  1  0  0  0  0
  8 23  1  0  0  0  0
  9 23  2  0  0  0  0
 10 24  1  0  0  0  0
 11 12  2  0  0  0  0
 11 25  1  0  0  0  0
 12 26  1  0  0  0  0
 13 21  1  0  0  0  0
 13 24  2  0  0  0  0
 14 22  2  0  0  0  0
 14 30  1  0  0  0  0
 15 26  2  0  0  0  0
 15 27  1  0  0  0  0
 16 29  1  0  0  0  0
 17 29  1  0  0  0  0
 17 32  2  0  0  0  0
 17 33  1  0  0  0  0
 18 20  2  0  0  0  0
 18 38  1  0  0  0  0
 19 21  2  0  0  0  0
 19 39  1  0  0  0  0
 20 50  1  0  0  0  0
 21 40  1  0  0  0  0
 22 28  1  0  0  0  0
 22 49  1  0  0  0  0
 23 80  1  0  0  0  0
 24 81  1  0  0  0  0
 25 27  2  0  0  0  0
 25 80  1  0  0  0  0
 26 82  1  0  0  0  0
 27 83  1  0  0  0  0
 28 31  2  0  0  0  0
 28 84  1  0  0  0  0
 29 63  2  0  0  0  0
 30 64  2  0  0  0  0
 30 71  1  0  0  0  0
 31 64  1  0  0  0  0
 31 70  1  0  0  0  0
 32 65  1  0  0  0  0
 32 68  1  0  0  0  0
 33 69  1  0  0  0  0
 33 75  2  0  0  0  0
 34 51  1  0  0  0  0
 34 72  1  0  0  0  0
 34 76  2  0  0  0  0
 35 60  1  0  0  0  0
 35 66  1  0  0  0  0
 35 77  2  0  0  0  0
 36 61  1  0  0  0  0
 36 73  1  0  0  0  0
 36 78  2  0  0  0  0
 37 67  1  0  0  0  0
 37 70  1  0  0  0  0
 37 79  2  0  0  0  0
 38 41  1  0  0  0  0
 39 51  1  0  0  0  0
 40 66  1  0  0  0  0
 41 45  1  0  0  0  0
 42 46  1  0  0  0  0
 42 47  1  0  0  0  0
 43 44  1  0  0  0  0
 43 49  1  0  0  0  0
 44 49  1  0  0  0  0
 45 50  1  0  0  0  0
 46 52  1  0  0  0  0
 47 67  1  0  0  0  0
 48 52  1  0  0  0  0
 48 67  1  0  0  0  0
 50 72  1  0  0  0  0
 51 66  1  0  0  0  0
 52 65  1  0  0  0  0
 53 61  1  0  0  0  0
 54 62  1  0  0  0  0
 55 62  1  0  0  0  0
 56 62  1  0  0  0  0
 57 74  1  0  0  0  0
 58 59  1  0  0  0  0
 58 71  1  0  0  0  0
 59 81  1  0  0  0  0
 60 62  1  0  0  0  0
 60 73  1  0  0  0  0
 61 74  1  0  0  0  0
 63 65  1  0  0  0  0
M  CHG  1  74   1
M  ISO  4  37 100  59 101  70 100  81 101
M  END
> <Batch ID>
0143

> <Smiles>
CNC(C)C(=O)NC(C(=O)N1Cc2cc([101O:1][101CH2:1]CNc3cc(C4CC4)c(Cl)c([100NH:0][100C:0](=O)N4CCCC(n5nc(-c6ccc(Oc7ccc(F)cc7F)cc6)c(C(N)=O)c5N)C4)n3)ccc2CC1C(=O)NC1CCCc2ccccc21)C(C)(C)C

> <Shape>
0.250

> <Color>
0.121

> <Negative vol penalty>
0.000

$$$$

  -OEChem-04052321213D

 89 99  0     1  0  0  0  0  0999 V2000
  -16.5567  -29.8458   23.9351 C   0  0  0  0  0  0  0  0  0  0  0  0
  -17.6663  -30.4222   24.5451 C   0  0  0  0  0  0  0  0  0  0  0  0
  -26.6015  -21.0117   19.6545 C   0  0  0  0  0  0  0  0  0  0  0  0
  -28.2675  -20.9319   21.4023 C   0  0  0  0  0  0  0  0  0  0  0  0
  -16.7227  -28.7747   23.0581 C   0  0  0  0  0  0  0  0  0  0  0  0
  -18.9424  -29.9271   24.2793 C   0  0  0  0  0  0  0  0  0  0  0  0
  -25.7486  -32.0759   23.6666 C   0  0  0  0  0  0  0  0  0  0  0  0
  -26.1070  -19.7752   20.0694 C   0  0  0  0  0  0  0  0  0  0  0  0
  -27.7730  -19.6955   21.8173 C   0  0  0  0  0  0  0  0  0  0  0  0
  -27.0209  -31.7747   24.1508 C   0  0  0  0  0  0  0  0  0  0  0  0
  -25.1675  -18.5386   23.6321 C   0  0  0  0  0  0  0  0  0  0  0  0
  -24.9882  -18.3404   25.0011 C   0  0  0  0  0  0  0  0  0  0  0  0
  -27.1938  -29.9718   22.5574 C   0  0  0  0  0  0  0  0  0  0  0  0
  -26.5394  -16.4893   24.9362 C   0  0  0  0  0  0  0  0  0  0  0  0
  -35.4528  -28.9877   18.2229 C   0  0  0  0  0  0  0  0  0  0  0  0
  -34.1547  -30.2164   19.5720 C   0  0  0  0  0  0  0  0  0  0  0  0
  -27.6818  -21.5900   20.3209 C   0  0  0  0  0  0  0  0  0  0  0  0
  -27.7868  -24.1388   20.3383 C   0  0  0  0  0  0  0  0  0  0  0  0
  -18.0024  -28.2724   22.7739 C   0  0  0  0  0  0  0  0  0  0  0  0
  -25.1840  -31.3191   22.6299 C   0  0  0  0  0  0  0  0  0  0  0  0
  -19.1256  -28.8474   23.3987 C   0  0  0  0  0  0  0  0  0  0  0  0
  -25.9152  -30.2671   22.0602 C   0  0  0  0  0  0  0  0  0  0  0  0
  -34.9488  -28.1446   19.1886 C   0  0  0  0  0  0  0  0  0  0  0  0
  -34.1276  -28.9220   20.0421 C   0  0  0  0  0  0  0  0  0  0  0  0
  -26.6927  -19.1171   21.1508 C   0  0  0  0  0  0  0  0  0  0  0  0
  -27.7425  -30.7208   23.5981 C   0  0  0  0  0  0  0  0  0  0  0  0
  -26.0327  -17.7121   22.9151 C   0  0  0  0  0  0  0  0  0  0  0  0
  -25.6742  -17.3158   25.6532 C   0  0  0  0  0  0  0  0  0  0  0  0
  -26.7187  -16.6875   23.5672 C   0  0  0  0  0  0  0  0  0  0  0  0
  -28.1935  -22.8670   19.8923 C   0  0  0  0  0  0  0  0  0  0  0  0
  -28.5712  -25.0174   19.6318 C   0  0  0  0  0  0  0  0  0  0  0  0
  -26.7892  -24.4942   21.3048 C   0  0  0  0  0  0  0  0  0  0  0  0
  -22.6104  -29.4757   22.3430 C   0  0  0  0  0  0  0  0  0  0  0  0
  -23.5039  -29.3827   19.2261 C   0  0  0  0  0  0  0  0  0  0  0  0
  -32.5958  -29.2540   22.0133 C   0  0  0  0  0  0  0  0  0  0  0  0
  -25.9996  -29.6807   16.9175 C   0  0  0  0  0  0  0  0  0  0  0  0
  -33.9427  -25.5201   17.5322 C   0  0  0  0  0  0  0  0  0  0  0  0
  -18.1279  -27.0826   21.8556 C   0  0  0  0  0  0  0  0  0  0  0  0
  -23.8213  -31.6737   22.1008 C   0  0  0  0  0  0  0  0  0  0  0  0
  -25.3623  -29.4369   20.9317 C   0  0  0  0  0  0  0  0  0  0  0  0
  -19.5466  -26.8594   21.3382 C   0  0  0  0  0  0  0  0  0  0  0  0
  -31.1676  -24.7689   15.4319 C   0  0  0  0  0  0  0  0  0  0  0  0
  -20.5531  -26.9596   22.4800 C   0  0  0  0  0  0  0  0  0  0  0  0
  -32.0735  -28.5561   26.4088 C   0  0  0  0  0  0  0  0  0  0  0  0
  -30.7392  -29.1988   26.6662 C   0  0  0  0  0  0  0  0  0  0  0  0
  -30.0800  -24.3201   16.4095 C   0  0  0  0  0  0  0  0  0  0  0  0
  -34.1460  -32.2610   17.0878 C   0  0  0  0  0  0  0  0  0  0  0  0
  -35.0134  -31.4416   16.1845 C   0  0  0  0  0  0  0  0  0  0  0  0
  -32.5531  -24.3074   15.8784 C   0  0  0  0  0  0  0  0  0  0  0  0
  -31.8305  -24.2383   18.2336 C   0  0  0  0  0  0  0  0  0  0  0  0
  -20.5283  -28.3544   23.1166 C   0  0  1  0  0  0  0  0  0  0  0  0
  -23.1355  -30.5114   21.3894 C   0  0  1  0  0  0  0  0  0  0  0  0
  -30.9709  -28.4315   25.3941 C   0  0  0  0  0  0  0  0  0  0  0  0
  -35.2557  -31.4210   17.6755 C   0  0  0  0  0  0  0  0  0  0  0  0
  -30.4223  -24.7280   17.8550 C   0  0  2  0  0  0  0  0  0  0  0  0
  -26.4323  -29.5121   14.4514 C   0  0  0  0  0  0  0  0  0  0  0  0
  -23.4149  -26.3390   19.4211 C   0  0  0  0  0  0  0  0  0  0  0  0
  -24.7398  -26.2339   17.2994 C   0  0  0  0  0  0  0  0  0  0  0  0
  -22.4736  -27.2766   17.3023 C   0  0  0  0  0  0  0  0  0  0  0  0
  -26.8540  -32.5097   16.7563 C   0  0  0  0  0  0  0  0  0  0  0  0
  -35.2230  -26.6979   19.3021 C   0  0  0  0  0  0  0  0  0  0  0  0
  -31.9956  -28.3912   23.1180 C   0  0  0  0  0  0  0  0  0  0  0  0
  -29.6674  -29.3313   23.4568 C   0  0  0  0  0  0  0  0  0  1  0  0
  -24.3999  -28.4947   18.3968 C   0  0  1  0  0  0  0  0  0  0  0  0
  -26.0710  -30.4370   15.6032 C   0  0  2  0  0  0  0  0  0  0  0  0
  -31.0657  -29.1603   24.0719 C   0  0  1  0  0  0  0  0  0  0  0  0
  -23.7670  -27.1003   18.1275 C   0  0  0  0  0  0  0  0  0  0  0  0
  -29.1610  -22.9278   18.9735 N   0  0  0  0  0  0  0  0  0  0  0  0
  -34.9631  -30.2445   18.4657 N   0  0  0  0  0  0  0  0  0  0  0  0
  -29.3688  -24.2485   18.8364 N   0  0  0  0  0  0  0  0  0  0  0  0
  -24.0233  -29.8187   20.4533 N   0  0  0  0  0  0  0  0  0  0  0  0
  -32.8162  -24.7275   17.2569 N   0  0  0  0  0  0  0  0  0  0  0  0
  -28.6496  -26.3651   19.6196 N   0  0  0  0  0  0  0  0  0  0  0  0
  -26.0756  -23.4669   21.9371 N   0  0  0  0  0  0  0  0  0  0  0  0
  -33.4008  -28.4869   21.1758 N   0  0  0  0  0  0  0  0  0  0  0  0
  -21.2407  -29.3017   22.2862 N   0  0  0  0  0  0  0  0  0  0  0  0
  -24.7185  -29.2495   17.1897 N   0  0  0  0  0  0  0  0  0  0  0  0
  -34.1147  -25.8795   18.8633 N   0  0  0  0  0  0  0  0  0  0  0  0
  -27.0977  -31.5144   15.6806 N   0  3  0  0  0  0  0  0  0  0  0  0
  -26.5266  -25.6879   21.5870 O   0  0  0  0  0  0  0  0  0  0  0  0
  -23.3902  -28.8777   23.0751 O   0  0  0  0  0  0  0  0  0  0  0  0
  -22.3873  -29.6845   18.7975 O   0  0  0  0  0  0  0  0  0  0  0  0
  -32.3822  -30.4596   21.9393 O   0  0  0  0  0  0  0  0  0  0  0  0
  -26.9828  -29.4884   17.6295 O   0  0  0  0  0  0  0  0  0  0  0  0
  -34.7335  -25.8851   16.6556 O   0  0  0  0  0  0  0  0  0  0  0  0
  -26.2102  -17.9107   21.5562 O   0  0  0  0  0  0  0  0  0  0  0  0
  -28.9843  -30.4242   24.0692 O   0  0  0  0  0  0  0  0  0  1  0  0
  -25.5030  -17.1265   26.9681 F   0  0  0  0  0  0  0  0  0  0  0  0
  -27.5522  -15.8910   22.8840 F   0  0  0  0  0  0  0  0  0  0  0  0
  1  2  1  0  0  0  0
  1  5  2  0  0  0  0
  2  6  2  0  0  0  0
  3  8  2  0  0  0  0
  3 17  1  0  0  0  0
  4  9  1  0  0  0  0
  4 17  2  0  0  0  0
  5 19  1  0  0  0  0
  6 21  1  0  0  0  0
  7 10  2  0  0  0  0
  7 20  1  0  0  0  0
  8 25  1  0  0  0  0
  9 25  2  0  0  0  0
 10 26  1  0  0  0  0
 11 12  2  0  0  0  0
 11 27  1  0  0  0  0
 12 28  1  0  0  0  0
 13 22  1  0  0  0  0
 13 26  2  0  0  0  0
 14 28  2  0  0  0  0
 14 29  1  0  0  0  0
 15 23  2  0  0  0  0
 15 69  1  0  0  0  0
 16 24  2  0  0  0  0
 16 69  1  0  0  0  0
 17 30  1  0  0  0  0
 18 30  1  0  0  0  0
 18 31  2  0  0  0  0
 18 32  1  0  0  0  0
 19 21  2  0  0  0  0
 19 38  1  0  0  0  0
 20 22  2  0  0  0  0
 20 39  1  0  0  0  0
 21 51  1  0  0  0  0
 22 40  1  0  0  0  0
 23 24  1  0  0  0  0
 23 61  1  0  0  0  0
 24 75  1  0  0  0  0
 25 86  1  0  0  0  0
 26 87  1  0  0  0  0
 27 29  2  0  0  0  0
 27 86  1  0  0  0  0
 28 88  1  0  0  0  0
 29 89  1  0  0  0  0
 30 68  2  0  0  0  0
 31 70  1  0  0  0  0
 31 73  1  0  0  0  0
 32 74  1  0  0  0  0
 32 80  2  0  0  0  0
 33 52  1  0  0  0  0
 33 76  1  0  0  0  0
 33 81  2  0  0  0  0
 34 64  1  0  0  0  0
 34 71  1  0  0  0  0
 34 82  2  0  0  0  0
 35 62  1  0  0  0  0
 35 75  1  0  0  0  0
 35 83  2  0  0  0  0
 36 65  1  0  0  0  0
 36 77  1  0  0  0  0
 36 84  2  0  0  0  0
 37 72  1  0  0  0  0
 37 78  1  0  0  0  0
 37 85  2  0  0  0  0
 38 41  1  0  0  0  0
 39 52  1  0  0  0  0
 40 71  1  0  0  0  0
 41 43  1  0  0  0  0
 42 46  1  0  0  0  0
 42 49  1  0  0  0  0
 43 51  1  0  0  0  0
 44 45  1  0  0  0  0
 44 53  1  0  0  0  0
 45 53  1  0  0  0  0
 46 55  1  0  0  0  0
 47 48  1  0  0  0  0
 47 54  1  0  0  0  0
 48 54  1  0  0  0  0
 49 72  1  0  0  0  0
 50 55  1  0  0  0  0
 50 72  1  0  0  0  0
 51 76  1  0  0  0  0
 52 71  1  0  0  0  0
 53 66  1  0  0  0  0
 54 69  1  0  0  0  0
 55 70  1  0  0  0  0
 56 65  1  0  0  0  0
 57 67  1  0  0  0  0
 58 67  1  0  0  0  0
 59 67  1  0  0  0  0
 60 79  1  0  0  0  0
 61 78  1  0  0  0  0
 62 66  1  0  0  0  0
 63 66  1  0  0  0  0
 63 87  1  0  0  0  0
 64 67  1  0  0  0  0
 64 77  1  0  0  0  0
 65 79  1  0  0  0  0
 68 70  1  0  0  0  0
M  CHG  1  79   1
M  ISO  4  37 100  63 101  78 100  87 101
M  END
> <Batch ID>
0143

> <Smiles>
CNC(C)C(=O)NC(C(=O)N1Cc2cc([101O:1][101CH2:1]C(CC(=O)Nc3cn(C4CC4)cc3C[100NH:0][100C:0](=O)N3CCCC(n4nc(-c5ccc(Oc6ccc(F)cc6F)cc5)c(C(N)=O)c4N)C3)C3CC3)ccc2CC1C(=O)NC1CCCc2ccccc21)C(C)(C)C

> <Shape>
0.206

> <Color>
0.122

> <Negative vol penalty>
0.000

$$$$

  -OEChem-04052321213D

 87 96  0     1  0  0  0  0  0999 V2000
  -28.5271  -24.8651   16.7489 C   0  0  0  0  0  0  0  0  0  0  0  0
  -27.3498  -24.9607   17.4838 C   0  0  0  0  0  0  0  0  0  0  0  0
  -27.2770  -15.0500   19.5442 C   0  0  0  0  0  0  0  0  0  0  0  0
  -26.8219  -16.7141   21.2356 C   0  0  0  0  0  0  0  0  0  0  0  0
  -29.6875  -25.4860   17.2095 C   0  0  0  0  0  0  0  0  0  0  0  0
  -27.3324  -25.6763   18.6805 C   0  0  0  0  0  0  0  0  0  0  0  0
  -23.2804  -28.6868   19.0850 C   0  0  0  0  0  0  0  0  0  0  0  0
  -28.5543  -15.5812   19.3652 C   0  0  0  0  0  0  0  0  0  0  0  0
  -28.0992  -17.2453   21.0566 C   0  0  0  0  0  0  0  0  0  0  0  0
  -22.0726  -28.0851   19.4356 C   0  0  0  0  0  0  0  0  0  0  0  0
  -18.4252  -23.2688   22.5902 C   0  0  0  0  0  0  0  0  0  0  0  0
  -18.1154  -21.9533   22.9353 C   0  0  0  0  0  0  0  0  0  0  0  0
  -31.1096  -19.2644   20.7911 C   0  0  0  0  0  0  0  0  0  0  0  0
  -31.2290  -20.6516   20.7078 C   0  0  0  0  0  0  0  0  0  0  0  0
  -22.3795  -28.8115   21.7154 C   0  0  0  0  0  0  0  0  0  0  0  0
  -20.5335  -22.5308   21.6695 C   0  0  0  0  0  0  0  0  0  0  0  0
  -29.7889  -20.6590   18.7679 C   0  0  0  0  0  0  0  0  0  0  0  0
  -26.4108  -15.6165   20.4794 C   0  0  0  0  0  0  0  0  0  0  0  0
  -24.7104  -14.0527   21.5616 C   0  0  0  0  0  0  0  0  0  0  0  0
  -29.6819  -26.2176   18.4076 C   0  0  0  0  0  0  0  0  0  0  0  0
  -24.0534  -29.3471   20.0509 C   0  0  0  0  0  0  0  0  0  0  0  0
  -28.4940  -26.3064   19.1583 C   0  0  0  0  0  0  0  0  0  0  0  0
  -23.5954  -29.4230   21.3740 C   0  0  0  0  0  0  0  0  0  0  0  0
  -20.2237  -21.2153   22.0147 C   0  0  0  0  0  0  0  0  0  0  0  0
  -28.9654  -16.6788   20.1214 C   0  0  0  0  0  0  0  0  0  0  0  0
  -21.6234  -28.1449   20.7516 C   0  0  0  0  0  0  0  0  0  0  0  0
  -19.6342  -23.5576   21.9573 C   0  0  0  0  0  0  0  0  0  0  0  0
  -19.0146  -20.9266   22.6476 C   0  0  0  0  0  0  0  0  0  0  0  0
  -30.3299  -18.5744   19.8627 C   0  0  0  0  0  0  0  0  0  0  0  0
  -30.5686  -21.3489   19.6962 C   0  0  0  0  0  0  0  0  0  0  0  0
  -29.6695  -19.2718   18.8512 C   0  0  0  0  0  0  0  0  0  0  0  0
  -25.0911  -15.0685   20.6643 C   0  0  0  0  0  0  0  0  0  0  0  0
  -23.3618  -13.8976   21.3525 C   0  0  0  0  0  0  0  0  0  0  0  0
  -25.5048  -13.3154   22.5001 C   0  0  0  0  0  0  0  0  0  0  0  0
  -26.9692  -28.9430   21.2502 C   0  0  0  0  0  0  0  0  0  0  0  0
  -26.3068  -31.7306   22.7710 C   0  0  0  0  0  0  0  0  0  0  0  0
  -23.9497  -33.8890   23.9676 C   0  0  0  0  0  0  0  0  0  0  0  0
  -18.6434  -17.0146   20.1137 C   0  0  0  0  0  0  0  0  0  0  0  0
  -30.9724  -26.8318   18.8891 C   0  0  0  0  0  0  0  0  0  0  0  0
  -25.3410  -30.0141   19.6510 C   0  0  0  0  0  0  0  0  0  0  0  0
  -24.3781  -30.1373   22.4443 C   0  0  0  0  0  0  0  0  0  0  0  0
  -30.7772  -27.8850   19.9767 C   0  0  0  0  0  0  0  0  0  0  0  0
  -20.2585  -14.9974   17.6644 C   0  0  0  0  0  0  0  0  0  0  0  0
  -29.8134  -27.3775   21.0445 C   0  0  0  0  0  0  0  0  0  0  0  0
  -21.6339  -14.7157   18.2717 C   0  0  0  0  0  0  0  0  0  0  0  0
  -23.6136  -20.8513   21.8435 C   0  0  0  0  0  0  0  0  0  0  0  0
  -23.5537  -19.4827   21.2319 C   0  0  0  0  0  0  0  0  0  0  0  0
  -19.7738  -16.4074   17.9947 C   0  0  0  0  0  0  0  0  0  0  0  0
  -21.1500  -16.4601   20.0385 C   0  0  0  0  0  0  0  0  0  0  0  0
  -28.4291  -27.0945   20.4486 C   0  0  1  0  0  0  0  0  0  0  0  0
  -26.2975  -30.2170   20.8220 C   0  0  1  0  0  0  0  0  0  0  0  0
  -21.6563  -15.0308   19.7795 C   0  0  2  0  0  0  0  0  0  0  0  0
  -22.3952  -20.4269   21.0720 C   0  0  0  0  0  0  0  0  0  0  0  0
  -23.7132  -36.0644   25.1961 C   0  0  0  0  0  0  0  0  0  0  0  0
  -27.0207  -30.3289   25.3855 C   0  0  0  0  0  0  0  0  0  0  0  0
  -25.8793  -32.1886   26.6131 C   0  0  0  0  0  0  0  0  0  0  0  0
  -27.8716  -32.6727   25.1922 C   0  0  0  0  0  0  0  0  0  0  0  0
  -22.5319  -35.1507   21.6967 C   0  0  0  0  0  0  0  0  0  0  0  0
  -17.6511  -17.5911   22.3142 C   0  0  0  0  0  0  0  0  0  0  0  0
  -17.5102  -19.0993   22.4160 C   0  0  0  0  0  0  0  0  0  0  0  0
  -20.3309  -27.0661   22.4314 C   0  0  0  0  0  0  0  0  0  1  0  0
  -19.3942  -25.8736   22.4413 C   0  0  0  0  0  0  0  0  0  0  0  0
  -25.6695  -32.1052   24.0872 C   0  0  1  0  0  0  0  0  0  0  0  0
  -23.8014  -35.3939   23.8340 C   0  0  2  0  0  0  0  0  0  0  0  0
  -26.5963  -31.8086   25.3000 C   0  0  0  0  0  0  0  0  0  0  0  0
  -24.0671  -15.5263   19.9391 N   0  0  0  0  0  0  0  0  0  0  0  0
  -23.0297  -14.7947   20.3803 N   0  0  0  0  0  0  0  0  0  0  0  0
  -25.6337  -30.7682   22.0051 N   0  0  0  0  0  0  0  0  0  0  0  0
  -19.8182  -16.6416   19.4401 N   0  0  0  0  0  0  0  0  0  0  0  0
  -22.4396  -13.0826   21.9072 N   0  0  0  0  0  0  0  0  0  0  0  0
  -26.8742  -13.6013   22.5863 N   0  0  0  0  0  0  0  0  0  0  0  0
  -21.1436  -20.1857   21.7186 N   0  0  0  0  0  0  0  0  0  0  0  0
  -27.7014  -28.3298   20.2515 N   0  0  0  0  0  0  0  0  0  0  0  0
  -25.2737  -33.5041   23.9657 N   0  0  0  0  0  0  0  0  0  0  0  0
  -18.7717  -17.2108   21.4833 N   0  0  0  0  0  0  0  0  0  0  0  0
  -22.5686  -35.7267   23.0656 N   0  3  0  0  0  0  0  0  0  0  0  0
  -25.0180  -12.4179   23.2288 O   0  0  0  0  0  0  0  0  0  0  0  0
  -26.8345  -28.5464   22.4019 O   0  0  0  0  0  0  0  0  0  0  0  0
  -27.3592  -32.2772   22.4314 O   0  0  0  0  0  0  0  0  0  0  0  0
  -22.9873  -33.1312   24.0677 O   0  0  0  0  0  0  0  0  0  0  0  0
  -17.5592  -17.1568   19.5380 O   0  0  0  0  0  0  0  0  0  0  0  0
  -30.2117  -17.1973   19.9472 O   0  0  0  0  0  0  0  0  0  0  0  0
  -20.4451  -27.5579   21.0966 O   0  0  0  0  0  0  0  0  0  1  0  0
  -19.9370  -24.8496   21.6166 O   0  0  0  0  0  0  0  0  0  0  0  0
  -18.6933  -19.6477   22.9927 O   0  0  0  0  0  0  0  0  0  0  0  0
  -30.6821  -22.6813   19.6173 F   0  0  0  0  0  0  0  0  0  0  0  0
  -28.9181  -18.6146   17.9572 F   0  0  0  0  0  0  0  0  0  0  0  0
  1  2  1  0  0  0  0
  1  5  2  0  0  0  0
  2  6  2  0  0  0  0
  3  8  2  0  0  0  0
  3 18  1  0  0  0  0
  4  9  1  0  0  0  0
  4 18  2  0  0  0  0
  5 20  1  0  0  0  0
  6 22  1  0  0  0  0
  7 10  2  0  0  0  0
  7 21  1  0  0  0  0
  8 25  1  0  0  0  0
  9 25  2  0  0  0  0
 10 26  1  0  0  0  0
 11 12  2  0  0  0  0
 11 27  1  0  0  0  0
 12 28  1  0  0  0  0
 13 14  2  0  0  0  0
 13 29  1  0  0  0  0
 14 30  1  0  0  0  0
 15 23  1  0  0  0  0
 15 26  2  0  0  0  0
 16 24  1  0  0  0  0
 16 27  2  0  0  0  0
 17 30  2  0  0  0  0
 17 31  1  0  0  0  0
 18 32  1  0  0  0  0
 19 32  1  0  0  0  0
 19 33  2  0  0  0  0
 19 34  1  0  0  0  0
 20 22  2  0  0  0  0
 20 39  1  0  0  0  0
 21 23  2  0  0  0  0
 21 40  1  0  0  0  0
 22 50  1  0  0  0  0
 23 41  1  0  0  0  0
 24 28  2  0  0  0  0
 24 72  1  0  0  0  0
 25 82  1  0  0  0  0
 26 83  1  0  0  0  0
 27 84  1  0  0  0  0
 28 85  1  0  0  0  0
 29 31  2  0  0  0  0
 29 82  1  0  0  0  0
 30 86  1  0  0  0  0
 31 87  1  0  0  0  0
 32 66  2  0  0  0  0
 33 67  1  0  0  0  0
 33 70  1  0  0  0  0
 34 71  1  0  0  0  0
 34 77  2  0  0  0  0
 35 51  1  0  0  0  0
 35 73  1  0  0  0  0
 35 78  2  0  0  0  0
 36 63  1  0  0  0  0
 36 68  1  0  0  0  0
 36 79  2  0  0  0  0
 37 64  1  0  0  0  0
 37 74  1  0  0  0  0
 37 80  2  0  0  0  0
 38 69  1  0  0  0  0
 38 75  1  0  0  0  0
 38 81  2  0  0  0  0
 39 42  1  0  0  0  0
 40 51  1  0  0  0  0
 41 68  1  0  0  0  0
 42 44  1  0  0  0  0
 43 45  1  0  0  0  0
 43 48  1  0  0  0  0
 44 50  1  0  0  0  0
 45 52  1  0  0  0  0
 46 47  1  0  0  0  0
 46 53  1  0  0  0  0
 47 53  1  0  0  0  0
 48 69  1  0  0  0  0
 49 52  1  0  0  0  0
 49 69  1  0  0  0  0
 50 73  1  0  0  0  0
 51 68  1  0  0  0  0
 52 67  1  0  0  0  0
 53 72  1  0  0  0  0
 54 64  1  0  0  0  0
 55 65  1  0  0  0  0
 56 65  1  0  0  0  0
 57 65  1  0  0  0  0
 58 76  1  0  0  0  0
 59 60  1  0  0  0  0
 59 75  1  0  0  0  0
 60 85  1  0  0  0  0
 61 62  1  0  0  0  0
 61 83  1  0  0  0  0
 62 84  1  0  0  0  0
 63 65  1  0  0  0  0
 63 74  1  0  0  0  0
 64 76  1  0  0  0  0
 66 67  1  0  0  0  0
M  CHG  1  76   1
M  ISO  4  38 100  61 101  75 100  83 101
M  END
> <Batch ID>
0143

> <Smiles>
CNC(C)C(=O)NC(C(=O)N1Cc2cc([101O:1][101CH2:1]COc3ccc(OCC[100NH:0][100C:0](=O)N4CCCC(n5nc(-c6ccc(Oc7ccc(F)cc7F)cc6)c(C(N)=O)c5N)C4)c(NC4CC4)c3)ccc2CC1C(=O)NC1CCCc2ccccc21)C(C)(C)C

> <Shape>
0.275

> <Color>
0.086

> <Negative vol penalty>
0.000

$$$$

  -OEChem-04052321213D

 88 97  0     1  0  0  0  0  0999 V2000
  -24.0770  -35.7882   18.9424 C   0  0  0  0  0  0  0  0  0  0  0  0
  -24.9388  -34.7886   19.3825 C   0  0  0  0  0  0  0  0  0  0  0  0
  -24.4196   -9.3752   21.2655 C   0  0  0  0  0  0  0  0  0  0  0  0
  -24.9986  -10.2917   23.4246 C   0  0  0  0  0  0  0  0  0  0  0  0
  -22.7497  -35.8003   19.3691 C   0  0  0  0  0  0  0  0  0  0  0  0
  -24.4740  -33.8011   20.2504 C   0  0  0  0  0  0  0  0  0  0  0  0
  -25.9930  -29.1611   18.9060 C   0  0  0  0  0  0  0  0  0  0  0  0
  -24.1542   -8.1418   21.8601 C   0  0  0  0  0  0  0  0  0  0  0  0
  -24.7332   -9.0582   24.0193 C   0  0  0  0  0  0  0  0  0  0  0  0
  -27.3050  -28.8059   19.2161 C   0  0  0  0  0  0  0  0  0  0  0  0
  -22.9773   -4.8510   22.8606 C   0  0  0  0  0  0  0  0  0  0  0  0
  -21.8142   -4.1833   22.4776 C   0  0  0  0  0  0  0  0  0  0  0  0
  -26.5136  -27.5868   21.1414 C   0  0  0  0  0  0  0  0  0  0  0  0
  -20.4884   -6.0492   23.2507 C   0  0  0  0  0  0  0  0  0  0  0  0
  -27.9830  -21.1343   21.2549 C   0  0  0  0  0  0  0  0  0  0  0  0
  -29.5653  -19.8394   20.3415 C   0  0  0  0  0  0  0  0  0  0  0  0
  -24.8419  -10.4502   22.0477 C   0  0  0  0  0  0  0  0  0  0  0  0
  -24.2106  -12.7821   21.2282 C   0  0  0  0  0  0  0  0  0  0  0  0
  -22.2659  -34.8070   20.2350 C   0  0  0  0  0  0  0  0  0  0  0  0
  -24.9306  -28.7402   19.7188 C   0  0  0  0  0  0  0  0  0  0  0  0
  -23.1393  -33.8008   20.6901 C   0  0  0  0  0  0  0  0  0  0  0  0
  -25.1887  -27.9359   20.8380 C   0  0  0  0  0  0  0  0  0  0  0  0
  -27.5865  -19.8250   21.4157 C   0  0  0  0  0  0  0  0  0  0  0  0
  -28.5875  -19.0058   20.8378 C   0  0  0  0  0  0  0  0  0  0  0  0
  -24.3110   -7.9832   23.2371 C   0  0  0  0  0  0  0  0  0  0  0  0
  -27.5658  -28.0210   20.3355 C   0  0  0  0  0  0  0  0  0  0  0  0
  -22.8961   -6.1178   23.4387 C   0  0  0  0  0  0  0  0  0  0  0  0
  -20.5697   -4.7824   22.6726 C   0  0  0  0  0  0  0  0  0  0  0  0
  -21.6516   -6.7169   23.6338 C   0  0  0  0  0  0  0  0  0  0  0  0
  -25.1167  -11.7245   21.4339 C   0  0  0  0  0  0  0  0  0  0  0  0
  -24.9564  -13.7587   20.6146 C   0  0  0  0  0  0  0  0  0  0  0  0
  -22.8192  -12.8735   21.5620 C   0  0  0  0  0  0  0  0  0  0  0  0
  -22.7347  -30.2144   21.4818 C   0  0  0  0  0  0  0  0  0  0  0  0
  -21.5721  -27.2082   21.8474 C   0  0  0  0  0  0  0  0  0  0  0  0
  -22.1685  -23.8481   21.8207 C   0  0  0  0  0  0  0  0  0  0  0  0
  -29.6055  -16.7936   20.1924 C   0  0  0  0  0  0  0  0  0  0  0  0
  -20.8356  -34.8887   20.7064 C   0  0  0  0  0  0  0  0  0  0  0  0
  -23.5185  -29.1096   19.3556 C   0  0  0  0  0  0  0  0  0  0  0  0
  -24.0816  -27.4413   21.7313 C   0  0  0  0  0  0  0  0  0  0  0  0
  -20.3246  -33.5922   21.3295 C   0  0  0  0  0  0  0  0  0  0  0  0
  -29.6118  -13.5921   18.6343 C   0  0  0  0  0  0  0  0  0  0  0  0
  -21.3460  -33.0353   22.3161 C   0  0  0  0  0  0  0  0  0  0  0  0
  -28.3683  -12.9079   19.2068 C   0  0  0  0  0  0  0  0  0  0  0  0
  -29.1395  -23.1902   19.2691 C   0  0  0  0  0  0  0  0  0  0  0  0
  -30.3479  -23.0979   21.4956 C   0  0  0  0  0  0  0  0  0  0  0  0
  -30.3079  -14.4667   19.6756 C   0  0  0  0  0  0  0  0  0  0  0  0
  -28.1986  -14.7645   20.9130 C   0  0  0  0  0  0  0  0  0  0  0  0
  -29.8869  -24.4735   18.9313 C   0  0  0  0  0  0  0  0  0  0  0  0
  -31.0824  -24.3827   21.1356 C   0  0  0  0  0  0  0  0  0  0  0  0
  -22.6660  -32.6981   21.6122 C   0  0  1  0  0  0  0  0  0  0  0  0
  -22.5622  -29.0541   20.5429 C   0  0  1  0  0  0  0  0  0  0  0  0
  -27.4268  -13.9239   19.8828 C   0  0  2  0  0  0  0  0  0  0  0  0
  -29.9443  -22.3116   20.2390 C   0  0  0  0  0  0  0  0  0  0  0  0
  -27.3104  -19.1967   24.4378 C   0  0  0  0  0  0  0  0  0  0  0  0
  -25.4066  -18.6292   21.0860 C   0  0  0  0  0  0  0  0  0  0  0  0
  -21.0314  -21.6425   22.1945 C   0  0  0  0  0  0  0  0  0  0  0  0
  -21.6695  -27.6716   24.8617 C   0  0  0  0  0  0  0  0  0  0  0  0
  -21.4507  -25.1978   25.1788 C   0  0  0  0  0  0  0  0  0  0  0  0
  -19.6264  -26.4756   24.0555 C   0  0  0  0  0  0  0  0  0  0  0  0
  -22.7060  -22.9692   19.0463 C   0  0  0  0  0  0  0  0  0  0  0  0
  -26.5605  -18.4732   23.3259 C   0  0  0  0  0  0  0  0  0  0  0  0
  -30.8467  -26.5492   19.9241 C   0  0  0  0  0  0  0  0  0  0  0  0
  -29.7588  -27.5375   19.5528 C   0  0  0  0  0  0  0  0  0  1  0  0
  -26.3426  -19.3729   22.0709 C   0  0  1  0  0  0  0  0  0  0  0  0
  -21.8026  -26.0849   22.8293 C   0  0  1  0  0  0  0  0  0  0  0  0
  -21.4212  -22.6975   21.1709 C   0  0  2  0  0  0  0  0  0  0  0  0
  -21.1585  -26.3682   24.2158 C   0  0  0  0  0  0  0  0  0  0  0  0
  -26.3443  -12.0029   20.9871 N   0  0  0  0  0  0  0  0  0  0  0  0
  -29.1874  -21.1309   20.6009 N   0  0  0  0  0  0  0  0  0  0  0  0
  -26.2147  -13.2466   20.4945 N   0  0  0  0  0  0  0  0  0  0  0  0
  -22.7185  -27.8344   21.3380 N   0  0  0  0  0  0  0  0  0  0  0  0
  -29.3556  -15.4071   20.2702 N   0  0  0  0  0  0  0  0  0  0  0  0
  -24.6519  -14.9970   20.1715 N   0  0  0  0  0  0  0  0  0  0  0  0
  -22.2093  -11.7787   22.1894 N   0  0  0  0  0  0  0  0  0  0  0  0
  -28.6145  -17.5910   20.7640 N   0  0  0  0  0  0  0  0  0  0  0  0
  -22.5491  -31.4493   20.8903 N   0  0  0  0  0  0  0  0  0  0  0  0
  -21.3173  -24.8709   22.1819 N   0  0  0  0  0  0  0  0  0  0  0  0
  -30.2328  -25.2264   20.2029 N   0  3  0  0  0  0  0  0  0  0  0  0
  -22.2693  -22.0513   20.1297 N   0  3  0  0  0  0  0  0  0  0  0  0
  -22.1331  -13.8895   21.2965 O   0  0  0  0  0  0  0  0  0  0  0  0
  -23.0139  -30.0047   22.6565 O   0  0  0  0  0  0  0  0  0  0  0  0
  -20.4177  -27.5138   21.5382 O   0  0  0  0  0  0  0  0  0  0  0  0
  -23.3852  -23.8387   21.9942 O   0  0  0  0  0  0  0  0  0  0  0  0
  -30.6102  -17.2417   19.6341 O   0  0  0  0  0  0  0  0  0  0  0  0
  -24.0519   -6.7798   23.8177 O   0  0  0  0  0  0  0  0  0  0  0  0
  -28.8455  -27.6734   20.6409 O   0  0  0  0  0  0  0  0  0  1  0  0
  -19.4529   -4.1417   22.3033 F   0  0  0  0  0  0  0  0  0  0  0  0
  -21.5673   -7.9343   24.1876 F   0  0  0  0  0  0  0  0  0  0  0  0
  1  2  1  0  0  0  0
  1  5  2  0  0  0  0
  2  6  2  0  0  0  0
  3  8  2  0  0  0  0
  3 17  1  0  0  0  0
  4  9  1  0  0  0  0
  4 17  2  0  0  0  0
  5 19  1  0  0  0  0
  6 21  1  0  0  0  0
  7 10  2  0  0  0  0
  7 20  1  0  0  0  0
  8 25  1  0  0  0  0
  9 25  2  0  0  0  0
 10 26  1  0  0  0  0
 11 12  2  0  0  0  0
 11 27  1  0  0  0  0
 12 28  1  0  0  0  0
 13 22  1  0  0  0  0
 13 26  2  0  0  0  0
 14 28  2  0  0  0  0
 14 29  1  0  0  0  0
 15 23  2  0  0  0  0
 15 69  1  0  0  0  0
 16 24  2  0  0  0  0
 16 69  1  0  0  0  0
 17 30  1  0  0  0  0
 18 30  1  0  0  0  0
 18 31  2  0  0  0  0
 18 32  1  0  0  0  0
 19 21  2  0  0  0  0
 19 37  1  0  0  0  0
 20 22  2  0  0  0  0
 20 38  1  0  0  0  0
 21 50  1  0  0  0  0
 22 39  1  0  0  0  0
 23 24  1  0  0  0  0
 23 64  1  0  0  0  0
 24 75  1  0  0  0  0
 25 85  1  0  0  0  0
 26 86  1  0  0  0  0
 27 29  2  0  0  0  0
 27 85  1  0  0  0  0
 28 87  1  0  0  0  0
 29 88  1  0  0  0  0
 30 68  2  0  0  0  0
 31 70  1  0  0  0  0
 31 73  1  0  0  0  0
 32 74  1  0  0  0  0
 32 80  2  0  0  0  0
 33 51  1  0  0  0  0
 33 76  1  0  0  0  0
 33 81  2  0  0  0  0
 34 65  1  0  0  0  0
 34 71  1  0  0  0  0
 34 82  2  0  0  0  0
 35 66  1  0  0  0  0
 35 77  1  0  0  0  0
 35 83  2  0  0  0  0
 36 72  1  0  0  0  0
 36 75  1  0  0  0  0
 36 84  2  0  0  0  0
 37 40  1  0  0  0  0
 38 51  1  0  0  0  0
 39 71  1  0  0  0  0
 40 42  1  0  0  0  0
 41 43  1  0  0  0  0
 41 46  1  0  0  0  0
 42 50  1  0  0  0  0
 43 52  1  0  0  0  0
 44 48  1  0  0  0  0
 44 53  1  0  0  0  0
 45 49  1  0  0  0  0
 45 53  1  0  0  0  0
 46 72  1  0  0  0  0
 47 52  1  0  0  0  0
 47 72  1  0  0  0  0
 48 78  1  0  0  0  0
 49 78  1  0  0  0  0
 50 76  1  0  0  0  0
 51 71  1  0  0  0  0
 52 70  1  0  0  0  0
 53 69  1  0  0  0  0
 54 61  1  0  0  0  0
 55 64  1  0  0  0  0
 56 66  1  0  0  0  0
 57 67  1  0  0  0  0
 58 67  1  0  0  0  0
 59 67  1  0  0  0  0
 60 79  1  0  0  0  0
 61 64  1  0  0  0  0
 62 63  1  0  0  0  0
 62 78  1  0  0  0  0
 63 86  1  0  0  0  0
 65 67  1  0  0  0  0
 65 77  1  0  0  0  0
 66 79  1  0  0  0  0
 68 70  1  0  0  0  0
M  CHG  2  78   1  79   1
M  ISO  4  36 100  63 101  75 100  86 101
M  END
> <Batch ID>
0143

> <Smiles>
CCC(C)c1cn(C2CCN(C[101CH2:1][101O:1]c3ccc4c(c3)CN(C(=O)C(NC(=O)C(C)NC)C(C)(C)C)C(C(=O)NC3CCCc5ccccc53)C4)CC2)cc1[100NH:0][100C:0](=O)N1CCCC(n2nc(-c3ccc(Oc4ccc(F)cc4F)cc3)c(C(N)=O)c2N)C1

> <Shape>
0.305

> <Color>
0.116

> <Negative vol penalty>
0.000

$$$$

  -OEChem-04052321213D

 89 99  0     1  0  0  0  0  0999 V2000
  -28.2551  -36.2255   22.9253 C   0  0  0  0  0  0  0  0  0  0  0  0
  -28.5122  -34.8696   22.7491 C   0  0  0  0  0  0  0  0  0  0  0  0
  -24.6844   -8.8221   21.3330 C   0  0  0  0  0  0  0  0  0  0  0  0
  -22.9072   -9.8279   20.0419 C   0  0  0  0  0  0  0  0  0  0  0  0
  -27.0351  -36.6390   23.4587 C   0  0  0  0  0  0  0  0  0  0  0  0
  -27.5496  -33.9264   23.1071 C   0  0  0  0  0  0  0  0  0  0  0  0
  -26.4768  -18.7974   14.9192 C   0  0  0  0  0  0  0  0  0  0  0  0
  -26.9633  -30.3212   19.5994 C   0  0  0  0  0  0  0  0  0  0  0  0
  -26.2308  -20.1348   15.2299 C   0  0  0  0  0  0  0  0  0  0  0  0
  -23.8118   -7.8178   21.7518 C   0  0  0  0  0  0  0  0  0  0  0  0
  -22.0346   -8.8235   20.4607 C   0  0  0  0  0  0  0  0  0  0  0  0
  -27.9250  -29.3127   19.5560 C   0  0  0  0  0  0  0  0  0  0  0  0
  -22.5064   -4.9659   20.4889 C   0  0  0  0  0  0  0  0  0  0  0  0
  -22.9694   -3.6505   20.4582 C   0  0  0  0  0  0  0  0  0  0  0  0
  -26.4400  -27.8525   20.7731 C   0  0  0  0  0  0  0  0  0  0  0  0
  -26.2896  -19.5984   17.5849 C   0  0  0  0  0  0  0  0  0  0  0  0
  -22.6104   -3.4686   22.8405 C   0  0  0  0  0  0  0  0  0  0  0  0
  -24.2321   -9.8272   20.4780 C   0  0  0  0  0  0  0  0  0  0  0  0
  -25.9563  -10.8550   18.9036 C   0  0  0  0  0  0  0  0  0  0  0  0
  -26.0534  -35.7008   23.8145 C   0  0  0  0  0  0  0  0  0  0  0  0
  -25.7349  -30.1062   20.2407 C   0  0  0  0  0  0  0  0  0  0  0  0
  -26.3158  -34.3276   23.6470 C   0  0  0  0  0  0  0  0  0  0  0  0
  -26.6292  -17.8605   15.9414 C   0  0  0  0  0  0  0  0  0  0  0  0
  -25.4634  -28.8590   20.8211 C   0  0  0  0  0  0  0  0  0  0  0  0
  -26.1372  -20.5353   16.5627 C   0  0  0  0  0  0  0  0  0  0  0  0
  -26.5355  -18.2611   17.2742 C   0  0  0  0  0  0  0  0  0  0  0  0
  -22.4869   -7.8185   21.3157 C   0  0  0  0  0  0  0  0  0  0  0  0
  -27.6646  -28.0791   20.1454 C   0  0  0  0  0  0  0  0  0  0  0  0
  -22.0954   -5.5327   21.6954 C   0  0  0  0  0  0  0  0  0  0  0  0
  -23.0214   -2.9019   21.6340 C   0  0  0  0  0  0  0  0  0  0  0  0
  -22.1474   -4.7841   22.8712 C   0  0  0  0  0  0  0  0  0  0  0  0
  -25.1329  -10.8653   20.0454 C   0  0  0  0  0  0  0  0  0  0  0  0
  -26.6107  -12.0619   18.9413 C   0  0  0  0  0  0  0  0  0  0  0  0
  -26.1152   -9.8447   17.8987 C   0  0  0  0  0  0  0  0  0  0  0  0
  -24.2433  -31.4106   22.7260 C   0  0  0  0  0  0  0  0  0  0  0  0
  -21.8145  -29.4762   21.7871 C   0  0  0  0  0  0  0  0  0  0  0  0
  -20.8290  -26.6563   20.1368 C   0  0  0  0  0  0  0  0  0  0  0  0
  -26.6162  -17.5783   19.6978 C   0  0  0  0  0  0  0  0  0  0  0  0
  -24.7682  -36.1933   24.4313 C   0  0  0  0  0  0  0  0  0  0  0  0
  -24.6977  -31.1953   20.2556 C   0  0  0  0  0  0  0  0  0  0  0  0
  -24.1523  -28.5707   21.5041 C   0  0  0  0  0  0  0  0  0  0  0  0
  -23.6554  -35.1484   24.4363 C   0  0  0  0  0  0  0  0  0  0  0  0
  -26.8937  -15.5425   22.6056 C   0  0  0  0  0  0  0  0  0  0  0  0
  -28.1065  -15.7515   16.1494 C   0  0  0  0  0  0  0  0  0  0  0  0
  -28.0650  -16.1092   14.6966 C   0  0  0  0  0  0  0  0  0  0  0  0
  -24.1864  -33.8053   24.9270 C   0  0  0  0  0  0  0  0  0  0  0  0
  -26.5281  -14.1433   22.1048 C   0  0  0  0  0  0  0  0  0  0  0  0
  -27.8188  -22.5019   18.4087 C   0  0  0  0  0  0  0  0  0  0  0  0
  -26.9196  -24.2683   16.8540 C   0  0  0  0  0  0  0  0  0  0  0  0
  -26.0588  -16.6250   21.9239 C   0  0  0  0  0  0  0  0  0  0  0  0
  -25.7052  -15.1868   19.9552 C   0  0  0  0  0  0  0  0  0  0  0  0
  -29.0839  -23.3265   18.6034 C   0  0  0  0  0  0  0  0  0  0  0  0
  -28.1895  -25.0836   17.0565 C   0  0  0  0  0  0  0  0  0  0  0  0
  -26.8918  -16.4350   15.5814 C   0  0  0  0  0  0  0  0  0  0  0  0
  -25.2872  -33.2754   24.0003 C   0  0  1  0  0  0  0  0  0  0  0  0
  -23.6820  -31.0378   21.3830 C   0  0  1  0  0  0  0  0  0  0  0  0
  -27.1713  -22.7680   17.0447 C   0  0  0  0  0  0  0  0  0  0  0  0
  -26.5650  -14.0681   20.5658 C   0  0  2  0  0  0  0  0  0  0  0  0
  -18.7829  -25.3170   19.5734 C   0  0  0  0  0  0  0  0  0  0  0  0
  -21.7412  -28.3931   24.6387 C   0  0  0  0  0  0  0  0  0  0  0  0
  -20.3929  -26.4594   23.7953 C   0  0  0  0  0  0  0  0  0  0  0  0
  -19.4940  -28.7791   23.6113 C   0  0  0  0  0  0  0  0  0  0  0  0
  -21.2467  -27.0242   17.2301 C   0  0  0  0  0  0  0  0  0  0  0  0
  -25.8730  -21.9775   16.8977 C   0  0  0  0  0  0  0  0  0  0  0  0
  -29.9513  -25.6605   18.7234 C   0  0  0  0  0  0  0  0  0  0  0  0
  -29.4808  -27.0784   18.9809 C   0  0  0  0  0  0  0  0  0  1  0  0
  -21.3914  -28.0617   22.1022 C   0  0  1  0  0  0  0  0  0  0  0  0
  -19.7287  -26.4177   19.1185 C   0  0  2  0  0  0  0  0  0  0  0  0
  -20.7805  -27.9291   23.5257 C   0  0  0  0  0  0  0  0  0  0  0  0
  -25.2517  -11.9896   20.7567 N   0  0  0  0  0  0  0  0  0  0  0  0
  -26.1575  -12.6969   20.0600 N   0  0  0  0  0  0  0  0  0  0  0  0
  -23.1727  -29.6697   21.4979 N   0  0  0  0  0  0  0  0  0  0  0  0
  -26.1452  -16.4939   20.4678 N   0  0  0  0  0  0  0  0  0  0  0  0
  -27.5240  -12.6313   18.1264 N   0  0  0  0  0  0  0  0  0  0  0  0
  -25.3663   -8.6655   18.0124 N   0  0  0  0  0  0  0  0  0  0  0  0
  -26.6855  -17.3259   18.3281 N   0  0  0  0  0  0  0  0  0  0  0  0
  -24.7087  -32.7095   22.8004 N   0  0  0  0  0  0  0  0  0  0  0  0
  -20.4938  -27.6550   21.0264 N   0  0  0  0  0  0  0  0  0  0  0  0
  -28.7625  -24.7901   18.4218 N   0  3  0  0  0  0  0  0  0  0  0  0
  -20.3141  -26.0218   17.8065 N   0  3  0  0  0  0  0  0  0  0  0  0
  -26.9104   -9.9767   16.9375 O   0  0  0  0  0  0  0  0  0  0  0  0
  -24.2519  -30.5816   23.6285 O   0  0  0  0  0  0  0  0  0  0  0  0
  -20.9697  -30.3750   21.7902 O   0  0  0  0  0  0  0  0  0  0  0  0
  -21.8792  -26.0178   20.1446 O   0  0  0  0  0  0  0  0  0  0  0  0
  -26.9605  -18.6426   20.2181 O   0  0  0  0  0  0  0  0  0  0  0  0
  -21.6352   -6.8385   21.7240 O   0  0  0  0  0  0  0  0  0  0  0  0
  -28.6018  -27.0933   20.1049 O   0  0  0  0  0  0  0  0  0  1  0  0
  -23.4646   -1.6382   21.6042 F   0  0  0  0  0  0  0  0  0  0  0  0
  -21.7528   -5.3228   24.0330 F   0  0  0  0  0  0  0  0  0  0  0  0
  1  2  1  0  0  0  0
  1  5  2  0  0  0  0
  2  6  2  0  0  0  0
  3 10  2  0  0  0  0
  3 18  1  0  0  0  0
  4 11  1  0  0  0  0
  4 18  2  0  0  0  0
  5 20  1  0  0  0  0
  6 22  1  0  0  0  0
  7  9  2  0  0  0  0
  7 23  1  0  0  0  0
  8 12  2  0  0  0  0
  8 21  1  0  0  0  0
  9 25  1  0  0  0  0
 10 27  1  0  0  0  0
 11 27  2  0  0  0  0
 12 28  1  0  0  0  0
 13 14  2  0  0  0  0
 13 29  1  0  0  0  0
 14 30  1  0  0  0  0
 15 24  1  0  0  0  0
 15 28  2  0  0  0  0
 16 25  2  0  0  0  0
 16 26  1  0  0  0  0
 17 30  2  0  0  0  0
 17 31  1  0  0  0  0
 18 32  1  0  0  0  0
 19 32  1  0  0  0  0
 19 33  2  0  0  0  0
 19 34  1  0  0  0  0
 20 22  2  0  0  0  0
 20 39  1  0  0  0  0
 21 24  2  0  0  0  0
 21 40  1  0  0  0  0
 22 55  1  0  0  0  0
 23 26  2  0  0  0  0
 23 54  1  0  0  0  0
 24 41  1  0  0  0  0
 25 64  1  0  0  0  0
 26 76  1  0  0  0  0
 27 86  1  0  0  0  0
 28 87  1  0  0  0  0
 29 31  2  0  0  0  0
 29 86  1  0  0  0  0
 30 88  1  0  0  0  0
 31 89  1  0  0  0  0
 32 70  2  0  0  0  0
 33 71  1  0  0  0  0
 33 74  1  0  0  0  0
 34 75  1  0  0  0  0
 34 81  2  0  0  0  0
 35 56  1  0  0  0  0
 35 77  1  0  0  0  0
 35 82  2  0  0  0  0
 36 67  1  0  0  0  0
 36 72  1  0  0  0  0
 36 83  2  0  0  0  0
 37 68  1  0  0  0  0
 37 78  1  0  0  0  0
 37 84  2  0  0  0  0
 38 73  1  0  0  0  0
 38 76  1  0  0  0  0
 38 85  2  0  0  0  0
 39 42  1  0  0  0  0
 40 56  1  0  0  0  0
 41 72  1  0  0  0  0
 42 46  1  0  0  0  0
 43 47  1  0  0  0  0
 43 50  1  0  0  0  0
 44 45  1  0  0  0  0
 44 54  1  0  0  0  0
 45 54  1  0  0  0  0
 46 55  1  0  0  0  0
 47 58  1  0  0  0  0
 48 52  1  0  0  0  0
 48 57  1  0  0  0  0
 49 53  1  0  0  0  0
 49 57  1  0  0  0  0
 50 73  1  0  0  0  0
 51 58  1  0  0  0  0
 51 73  1  0  0  0  0
 52 79  1  0  0  0  0
 53 79  1  0  0  0  0
 55 77  1  0  0  0  0
 56 72  1  0  0  0  0
 57 64  1  0  0  0  0
 58 71  1  0  0  0  0
 59 68  1  0  0  0  0
 60 69  1  0  0  0  0
 61 69  1  0  0  0  0
 62 69  1  0  0  0  0
 63 80  1  0  0  0  0
 65 66  1  0  0  0  0
 65 79  1  0  0  0  0
 66 87  1  0  0  0  0
 67 69  1  0  0  0  0
 67 78  1  0  0  0  0
 68 80  1  0  0  0  0
 70 71  1  0  0  0  0
M  CHG  2  79   1  80   1
M  ISO  4  38 100  66 101  76 100  87 101
M  END
> <Batch ID>
0143

> <Smiles>
CNC(C)C(=O)NC(C(=O)N1Cc2cc([101O:1][101CH2:1]CN3CCC(Cc4ccc(C5CC5)c([100NH:0][100C:0](=O)N5CCCC(n6nc(-c7ccc(Oc8ccc(F)cc8F)cc7)c(C(N)=O)c6N)C5)c4)CC3)ccc2CC1C(=O)NC1CCCc2ccccc21)C(C)(C)C

> <Shape>
0.298

> <Color>
0.086

> <Negative vol penalty>
0.000

$$$$

  -OEChem-04052321213D

 85 93  0     1  0  0  0  0  0999 V2000
  -31.5912  -26.1426   16.7075 C   0  0  0  0  0  0  0  0  0  0  0  0
  -30.2680  -26.1782   16.2794 C   0  0  0  0  0  0  0  0  0  0  0  0
  -27.0583  -16.3464   20.6080 C   0  0  0  0  0  0  0  0  0  0  0  0
  -27.1954  -17.1590   18.3369 C   0  0  0  0  0  0  0  0  0  0  0  0
  -31.8819  -26.1514   18.0711 C   0  0  0  0  0  0  0  0  0  0  0  0
  -29.2346  -26.2216   17.2147 C   0  0  0  0  0  0  0  0  0  0  0  0
  -22.6472  -28.8808   18.1369 C   0  0  0  0  0  0  0  0  0  0  0  0
  -28.3483  -16.8164   20.8540 C   0  0  0  0  0  0  0  0  0  0  0  0
  -28.4854  -17.6291   18.5829 C   0  0  0  0  0  0  0  0  0  0  0  0
  -21.3620  -28.4749   18.4936 C   0  0  0  0  0  0  0  0  0  0  0  0
  -29.9189  -20.2895   20.0956 C   0  0  0  0  0  0  0  0  0  0  0  0
  -30.2374  -21.5702   19.6441 C   0  0  0  0  0  0  0  0  0  0  0  0
  -21.9861  -28.5663   20.8220 C   0  0  0  0  0  0  0  0  0  0  0  0
  -31.9951  -20.6476   18.2669 C   0  0  0  0  0  0  0  0  0  0  0  0
  -26.4818  -16.5176   19.3493 C   0  0  0  0  0  0  0  0  0  0  0  0
  -24.6973  -14.7019   19.1874 C   0  0  0  0  0  0  0  0  0  0  0  0
  -30.8520  -26.2047   19.0234 C   0  0  0  0  0  0  0  0  0  0  0  0
  -23.6163  -29.1224   19.1212 C   0  0  0  0  0  0  0  0  0  0  0  0
  -29.5119  -26.2298   18.5923 C   0  0  0  0  0  0  0  0  0  0  0  0
  -23.2821  -28.9777   20.4752 C   0  0  0  0  0  0  0  0  0  0  0  0
  -29.0618  -17.4578   19.8416 C   0  0  0  0  0  0  0  0  0  0  0  0
  -21.0321  -28.3148   19.8363 C   0  0  0  0  0  0  0  0  0  0  0  0
  -30.6385  -19.1878   19.6328 C   0  0  0  0  0  0  0  0  0  0  0  0
  -31.2755  -21.7493   18.7298 C   0  0  0  0  0  0  0  0  0  0  0  0
  -31.6765  -19.3669   18.7185 C   0  0  0  0  0  0  0  0  0  0  0  0
  -25.1495  -16.0318   19.0943 C   0  0  0  0  0  0  0  0  0  0  0  0
  -23.3679  -14.7667   18.8484 C   0  0  0  0  0  0  0  0  0  0  0  0
  -25.4148  -13.5141   19.5481 C   0  0  0  0  0  0  0  0  0  0  0  0
  -26.4409  -27.8577   19.8462 C   0  0  0  0  0  0  0  0  0  0  0  0
  -19.4747  -19.2384   19.1986 C   0  0  0  0  0  0  0  0  0  0  0  0
  -26.5389  -30.2848   21.9961 C   0  0  0  0  0  0  0  0  0  0  0  0
  -24.8249  -32.5383   23.9015 C   0  0  0  0  0  0  0  0  0  0  0  0
  -31.2139  -26.1647   20.4870 C   0  0  0  0  0  0  0  0  0  0  0  0
  -24.9903  -29.5855   18.7210 C   0  0  0  0  0  0  0  0  0  0  0  0
  -24.2802  -29.2440   21.5713 C   0  0  0  0  0  0  0  0  0  0  0  0
  -30.0734  -26.5901   21.4083 C   0  0  0  0  0  0  0  0  0  0  0  0
  -20.2834  -17.3040   16.2269 C   0  0  0  0  0  0  0  0  0  0  0  0
  -28.7732  -25.9051   20.9995 C   0  0  0  0  0  0  0  0  0  0  0  0
  -21.6069  -16.6576   16.6338 C   0  0  0  0  0  0  0  0  0  0  0  0
  -17.1194  -26.9143   20.8696 C   0  0  0  0  0  0  0  0  0  0  0  0
  -16.7062  -25.8829   21.9021 C   0  0  0  0  0  0  0  0  0  0  0  0
  -20.1448  -18.7103   16.8040 C   0  0  0  0  0  0  0  0  0  0  0  0
  -21.6266  -18.1248   18.6977 C   0  0  0  0  0  0  0  0  0  0  0  0
  -28.3642  -26.3024   19.5760 C   0  0  1  0  0  0  0  0  0  0  0  0
  -26.0481  -29.3067   19.7844 C   0  0  1  0  0  0  0  0  0  0  0  0
  -21.7920  -16.6932   18.1609 C   0  0  2  0  0  0  0  0  0  0  0  0
  -18.1482  -26.1657   20.0375 C   0  0  1  0  0  0  0  0  0  0  0  0
  -18.0061  -25.1823   22.2880 C   0  0  2  0  0  0  0  0  0  0  0  0
  -25.1767  -34.3649   25.5859 C   0  0  0  0  0  0  0  0  0  0  0  0
  -18.6137  -27.3223   23.4608 C   0  0  0  0  0  0  0  0  0  0  0  0
  -18.0403  -25.2779   24.8006 C   0  0  0  0  0  0  0  0  0  0  0  0
  -20.6327  -23.6671   21.4720 C   0  0  0  0  0  0  0  0  0  0  0  0
  -27.0979  -28.1921   24.1451 C   0  0  0  0  0  0  0  0  0  0  0  0
  -26.4989  -29.9048   25.8702 C   0  0  0  0  0  0  0  0  0  0  0  0
  -28.4437  -30.2894   24.3562 C   0  0  0  0  0  0  0  0  0  0  0  0
  -23.5747  -34.5619   22.1405 C   0  0  0  0  0  0  0  0  0  0  0  0
  -18.2097  -19.8619   18.6649 C   0  0  0  0  0  0  0  0  0  0  0  0
  -19.0800  -27.0821   19.2655 C   0  0  0  0  0  0  0  0  0  1  0  0
  -17.7516  -20.9788   19.5861 C   0  0  0  0  0  0  0  0  0  0  0  0
  -18.3791  -23.0448   20.5139 C   0  0  0  0  0  0  0  0  0  0  0  0
  -26.0980  -30.4622   23.4290 C   0  0  1  0  0  0  0  0  0  0  0  0
  -25.0138  -34.0299   24.1115 C   0  0  2  0  0  0  0  0  0  0  0  0
  -18.6790  -25.7941   23.5095 C   0  0  0  0  0  0  0  0  0  0  0  0
  -19.4921  -24.0842   20.5575 C   0  0  1  0  0  0  0  0  0  0  0  0
  -27.0162  -29.7051   24.4296 C   0  0  0  0  0  0  0  0  0  0  0  0
  -24.1857  -16.8795   18.7250 N   0  0  0  0  0  0  0  0  0  0  0  0
  -23.1146  -16.0803   18.5829 N   0  0  0  0  0  0  0  0  0  0  0  0
  -25.6122  -29.6887   21.1291 N   0  0  0  0  0  0  0  0  0  0  0  0
  -20.3552  -18.7057   18.2567 N   0  0  0  0  0  0  0  0  0  0  0  0
  -22.4026  -13.8277   18.7544 N   0  0  0  0  0  0  0  0  0  0  0  0
  -26.0420  -12.7783   18.5335 N   0  0  0  0  0  0  0  0  0  0  0  0
  -27.7745  -27.6240   19.5699 N   0  0  0  0  0  0  0  0  0  0  0  0
  -26.0231  -31.9011   23.6578 N   0  0  0  0  0  0  0  0  0  0  0  0
  -18.9231  -25.3703   21.0773 N   0  3  1  0  0  0  0  0  0  0  0  0
  -23.8379  -34.7799   23.5862 N   0  3  0  0  0  0  0  0  0  0  0  0
  -25.4835  -13.1081   20.7330 O   0  0  0  0  0  0  0  0  0  0  0  0
  -25.5969  -27.0143   20.1256 O   0  0  0  0  0  0  0  0  0  0  0  0
  -19.6714  -19.2239   20.4165 O   0  0  0  0  0  0  0  0  0  0  0  0
  -27.6614  -30.6677   21.6570 O   0  0  0  0  0  0  0  0  0  0  0  0
  -23.7249  -31.9925   23.9525 O   0  0  0  0  0  0  0  0  0  0  0  0
  -30.3205  -17.9168   20.0814 O   0  0  0  0  0  0  0  0  0  0  0  0
  -19.7786  -27.9180   20.1872 O   0  0  0  0  0  0  0  0  0  1  0  0
  -18.7629  -21.9740   19.6599 O   0  0  0  0  0  0  0  0  0  0  0  0
  -31.5802  -22.9791   18.2951 F   0  0  0  0  0  0  0  0  0  0  0  0
  -32.3706  -18.3122   18.2694 F   0  0  0  0  0  0  0  0  0  0  0  0
  1  2  1  0  0  0  0
  1  5  2  0  0  0  0
  2  6  2  0  0  0  0
  3  8  2  0  0  0  0
  3 15  1  0  0  0  0
  4  9  1  0  0  0  0
  4 15  2  0  0  0  0
  5 17  1  0  0  0  0
  6 19  1  0  0  0  0
  7 10  2  0  0  0  0
  7 18  1  0  0  0  0
  8 21  1  0  0  0  0
  9 21  2  0  0  0  0
 10 22  1  0  0  0  0
 11 12  2  0  0  0  0
 11 23  1  0  0  0  0
 12 24  1  0  0  0  0
 13 20  1  0  0  0  0
 13 22  2  0  0  0  0
 14 24  2  0  0  0  0
 14 25  1  0  0  0  0
 15 26  1  0  0  0  0
 16 26  1  0  0  0  0
 16 27  2  0  0  0  0
 16 28  1  0  0  0  0
 17 19  2  0  0  0  0
 17 33  1  0  0  0  0
 18 20  2  0  0  0  0
 18 34  1  0  0  0  0
 19 44  1  0  0  0  0
 20 35  1  0  0  0  0
 21 81  1  0  0  0  0
 22 82  1  0  0  0  0
 23 25  2  0  0  0  0
 23 81  1  0  0  0  0
 24 84  1  0  0  0  0
 25 85  1  0  0  0  0
 26 66  2  0  0  0  0
 27 67  1  0  0  0  0
 27 70  1  0  0  0  0
 28 71  1  0  0  0  0
 28 76  2  0  0  0  0
 29 45  1  0  0  0  0
 29 72  1  0  0  0  0
 29 77  2  0  0  0  0
 30 57  1  0  0  0  0
 30 69  1  0  0  0  0
 30 78  2  0  0  0  0
 31 61  1  0  0  0  0
 31 68  1  0  0  0  0
 31 79  2  0  0  0  0
 32 62  1  0  0  0  0
 32 73  1  0  0  0  0
 32 80  2  0  0  0  0
 33 36  1  0  0  0  0
 34 45  1  0  0  0  0
 35 68  1  0  0  0  0
 36 38  1  0  0  0  0
 37 39  1  0  0  0  0
 37 42  1  0  0  0  0
 38 44  1  0  0  0  0
 39 46  1  0  0  0  0
 40 41  1  0  0  0  0
 40 47  1  0  0  0  0
 41 48  1  0  0  0  0
 42 69  1  0  0  0  0
 43 46  1  0  0  0  0
 43 69  1  0  0  0  0
 44 72  1  0  0  0  0
 45 68  1  0  0  0  0
 46 67  1  0  0  0  0
 47 58  1  0  0  0  0
 47 74  1  0  0  0  0
 48 63  1  0  0  0  0
 48 74  1  0  0  0  0
 49 62  1  0  0  0  0
 50 63  1  0  0  0  0
 51 63  1  0  0  0  0
 52 64  1  0  0  0  0
 53 65  1  0  0  0  0
 54 65  1  0  0  0  0
 55 65  1  0  0  0  0
 56 75  1  0  0  0  0
 57 59  1  0  0  0  0
 58 82  1  0  0  0  0
 59 83  1  0  0  0  0
 60 64  1  0  0  0  0
 60 83  1  0  0  0  0
 61 65  1  0  0  0  0
 61 73  1  0  0  0  0
 62 75  1  0  0  0  0
 64 74  1  0  0  0  0
 66 67  1  0  0  0  0
M  CHG  2  74   1  75   1
M  ISO  4  30 100  57 100  58 101  82 101
M  END
> <Batch ID>
0143

> <Smiles>
CNC(C)C(=O)NC(C(=O)N1Cc2cc([101O:1][101CH2:1]C3CCC(C(C)C)N3C(C)COC[100CH2:0][100C:0](=O)N3CCCC(n4nc(-c5ccc(Oc6ccc(F)cc6F)cc5)c(C(N)=O)c4N)C3)ccc2CC1C(=O)NC1CCCc2ccccc21)C(C)(C)C

> <Shape>
0.241

> <Color>
0.042

> <Negative vol penalty>
0.000

$$$$

  -OEChem-04052321213D

 82 91  0     1  0  0  0  0  0999 V2000
  -18.7117  -29.8451   23.0718 C   0  0  0  0  0  0  0  0  0  0  0  0
  -19.9511  -29.2804   22.7880 C   0  0  0  0  0  0  0  0  0  0  0  0
  -23.2854   -9.8591   21.4939 C   0  0  0  0  0  0  0  0  0  0  0  0
  -23.9521  -10.9217   23.5587 C   0  0  0  0  0  0  0  0  0  0  0  0
  -17.7331  -29.0886   23.7152 C   0  0  0  0  0  0  0  0  0  0  0  0
  -20.2130  -27.9591   23.1486 C   0  0  0  0  0  0  0  0  0  0  0  0
  -28.3915  -16.5534   21.0576 C   0  0  0  0  0  0  0  0  0  0  0  0
  -30.5349  -17.6602   20.9256 C   0  0  0  0  0  0  0  0  0  0  0  0
  -23.6606  -23.9237   20.0933 C   0  0  0  0  0  0  0  0  0  0  0  0
  -22.6297   -8.8634   22.2180 C   0  0  0  0  0  0  0  0  0  0  0  0
  -23.2963   -9.9260   24.2828 C   0  0  0  0  0  0  0  0  0  0  0  0
  -27.7706  -17.6953   20.5514 C   0  0  0  0  0  0  0  0  0  0  0  0
  -29.9141  -18.8022   20.4194 C   0  0  0  0  0  0  0  0  0  0  0  0
  -24.9804  -23.5046   20.2559 C   0  0  0  0  0  0  0  0  0  0  0  0
  -23.4610   -6.0607   23.9144 C   0  0  0  0  0  0  0  0  0  0  0  0
  -23.6488   -4.7382   23.5129 C   0  0  0  0  0  0  0  0  0  0  0  0
  -24.2142  -21.6075   21.5339 C   0  0  0  0  0  0  0  0  0  0  0  0
  -21.2743   -4.5187   23.1249 C   0  0  0  0  0  0  0  0  0  0  0  0
  -23.9467  -10.8882   22.1643 C   0  0  0  0  0  0  0  0  0  0  0  0
  -24.0842  -13.1352   20.9645 C   0  0  0  0  0  0  0  0  0  0  0  0
  -29.7736  -16.5359   21.2447 C   0  0  0  0  0  0  0  0  0  0  0  0
  -17.9798  -27.7543   24.0751 C   0  0  0  0  0  0  0  0  0  0  0  0
  -22.6067  -23.1925   20.6600 C   0  0  0  0  0  0  0  0  0  0  0  0
  -19.2372  -27.1844   23.7986 C   0  0  0  0  0  0  0  0  0  0  0  0
  -22.8818  -22.0180   21.3749 C   0  0  0  0  0  0  0  0  0  0  0  0
  -22.6351   -8.8969   23.6124 C   0  0  0  0  0  0  0  0  0  0  0  0
  -28.5319  -18.8197   20.2323 C   0  0  0  0  0  0  0  0  0  0  0  0
  -25.2575  -22.3480   20.9787 C   0  0  0  0  0  0  0  0  0  0  0  0
  -22.1798   -6.6123   23.9212 C   0  0  0  0  0  0  0  0  0  0  0  0
  -22.5555   -3.9671   23.1182 C   0  0  0  0  0  0  0  0  0  0  0  0
  -21.0865   -5.8413   23.5264 C   0  0  0  0  0  0  0  0  0  0  0  0
  -24.6248  -11.9166   21.4169 C   0  0  0  0  0  0  0  0  0  0  0  0
  -25.1244  -13.7513   20.3127 C   0  0  0  0  0  0  0  0  0  0  0  0
  -22.7603  -13.6632   21.1198 C   0  0  0  0  0  0  0  0  0  0  0  0
  -30.8912  -14.3161   20.7723 C   0  0  0  0  0  0  0  0  0  0  0  0
  -20.3671  -23.8019   22.8317 C   0  0  0  0  0  0  0  0  0  0  0  0
  -19.2818  -20.8699   21.9670 C   0  0  0  0  0  0  0  0  0  0  0  0
  -19.9655  -17.8070   20.6260 C   0  0  0  0  0  0  0  0  0  0  0  0
  -16.9075  -26.9909   24.8114 C   0  0  0  0  0  0  0  0  0  0  0  0
  -21.1868  -23.6433   20.4528 C   0  0  0  0  0  0  0  0  0  0  0  0
  -21.7848  -21.1864   21.9860 C   0  0  0  0  0  0  0  0  0  0  0  0
  -17.1343  -25.4814   24.8242 C   0  0  0  0  0  0  0  0  0  0  0  0
  -29.3596  -12.2392   18.2778 C   0  0  0  0  0  0  0  0  0  0  0  0
  -18.5813  -25.1620   25.1861 C   0  0  0  0  0  0  0  0  0  0  0  0
  -27.9402  -12.0339   18.8056 C   0  0  0  0  0  0  0  0  0  0  0  0
  -29.9548  -14.7827   23.1254 C   0  0  0  0  0  0  0  0  0  0  0  0
  -31.2800  -15.4681   23.0422 C   0  0  0  0  0  0  0  0  0  0  0  0
  -30.3732  -12.3118   19.4155 C   0  0  0  0  0  0  0  0  0  0  0  0
  -28.6392  -13.1507   20.9712 C   0  0  0  0  0  0  0  0  0  0  0  0
  -19.5506  -25.7466   24.1516 C   0  0  1  0  0  0  0  0  0  0  0  0
  -20.2280  -23.1025   21.5091 C   0  0  1  0  0  0  0  0  0  0  0  0
  -27.5811  -13.1009   19.8549 C   0  0  2  0  0  0  0  0  0  0  0  0
  -30.4372  -15.3164   21.7860 C   0  0  0  0  0  0  0  0  0  0  0  0
  -18.8848  -15.6078   20.0847 C   0  0  0  0  0  0  0  0  0  0  0  0
  -19.3566  -20.1089   24.9209 C   0  0  0  0  0  0  0  0  0  0  0  0
  -19.2012  -17.7063   24.2342 C   0  0  0  0  0  0  0  0  0  0  0  0
  -17.3482  -19.2821   23.6811 C   0  0  0  0  0  0  0  0  0  0  0  0
  -20.5353  -18.1060   17.7372 C   0  0  0  0  0  0  0  0  0  0  0  0
  -28.5350  -21.1893   20.0305 C   0  0  0  0  0  0  0  0  0  0  0  0
  -27.4651  -22.2618   20.0984 C   0  0  0  0  0  0  0  0  0  1  0  0
  -19.5380  -19.4559   22.4295 C   0  0  1  0  0  0  0  0  0  0  0  0
  -19.2507  -16.9895   19.5653 C   0  0  2  0  0  0  0  0  0  0  0  0
  -18.8820  -19.1548   23.8067 C   0  0  0  0  0  0  0  0  0  0  0  0
  -25.9086  -11.7656   21.0807 N   0  0  0  0  0  0  0  0  0  0  0  0
  -26.1834  -12.8973   20.4101 N   0  0  0  0  0  0  0  0  0  0  0  0
  -29.9842  -13.3170   20.4050 N   0  0  0  0  0  0  0  0  0  0  0  0
  -20.4133  -21.6720   21.7611 N   0  0  0  0  0  0  0  0  0  0  0  0
  -25.2274  -14.9347   19.6713 N   0  0  0  0  0  0  0  0  0  0  0  0
  -21.8141  -12.8998   21.8172 N   0  0  0  0  0  0  0  0  0  0  0  0
  -19.5734  -24.9258   22.9599 N   0  0  0  0  0  0  0  0  0  0  0  0
  -19.0867  -18.5850   21.3496 N   0  0  0  0  0  0  0  0  0  0  0  0
  -20.1188  -16.8257   18.3651 N   0  3  0  0  0  0  0  0  0  0  0  0
  -22.4216  -14.7715   20.6397 O   0  0  0  0  0  0  0  0  0  0  0  0
  -32.0282  -14.4301   20.3220 O   0  0  0  0  0  0  0  0  0  0  0  0
  -21.1363  -23.3542   23.6741 O   0  0  0  0  0  0  0  0  0  0  0  0
  -18.1210  -21.2466   21.7878 O   0  0  0  0  0  0  0  0  0  0  0  0
  -21.1815  -17.7574   20.7980 O   0  0  0  0  0  0  0  0  0  0  0  0
  -21.9951   -7.9257   24.3193 O   0  0  0  0  0  0  0  0  0  0  0  0
  -27.9225  -19.9403   19.7327 O   0  0  0  0  0  0  0  0  0  0  0  0
  -26.5448  -21.9370   21.1395 O   0  0  0  0  0  0  0  0  0  1  0  0
  -22.7362   -2.6976   22.7312 F   0  0  0  0  0  0  0  0  0  0  0  0
  -19.8534   -6.3660   23.5297 F   0  0  0  0  0  0  0  0  0  0  0  0
  1  2  1  0  0  0  0
  1  5  2  0  0  0  0
  2  6  2  0  0  0  0
  3 10  2  0  0  0  0
  3 19  1  0  0  0  0
  4 11  1  0  0  0  0
  4 19  2  0  0  0  0
  5 22  1  0  0  0  0
  6 24  1  0  0  0  0
  7 12  2  0  0  0  0
  7 21  1  0  0  0  0
  8 13  1  0  0  0  0
  8 21  2  0  0  0  0
  9 14  2  0  0  0  0
  9 23  1  0  0  0  0
 10 26  1  0  0  0  0
 11 26  2  0  0  0  0
 12 27  1  0  0  0  0
 13 27  2  0  0  0  0
 14 28  1  0  0  0  0
 15 16  2  0  0  0  0
 15 29  1  0  0  0  0
 16 30  1  0  0  0  0
 17 25  1  0  0  0  0
 17 28  2  0  0  0  0
 18 30  2  0  0  0  0
 18 31  1  0  0  0  0
 19 32  1  0  0  0  0
 20 32  1  0  0  0  0
 20 33  2  0  0  0  0
 20 34  1  0  0  0  0
 21 53  1  0  0  0  0
 22 24  2  0  0  0  0
 22 39  1  0  0  0  0
 23 25  2  0  0  0  0
 23 40  1  0  0  0  0
 24 50  1  0  0  0  0
 25 41  1  0  0  0  0
 26 78  1  0  0  0  0
 27 79  1  0  0  0  0
 28 80  1  0  0  0  0
 29 31  2  0  0  0  0
 29 78  1  0  0  0  0
 30 81  1  0  0  0  0
 31 82  1  0  0  0  0
 32 64  2  0  0  0  0
 33 65  1  0  0  0  0
 33 68  1  0  0  0  0
 34 69  1  0  0  0  0
 34 73  2  0  0  0  0
 35 53  1  0  0  0  0
 35 66  1  0  0  0  0
 35 74  2  0  0  0  0
 36 51  1  0  0  0  0
 36 70  1  0  0  0  0
 36 75  2  0  0  0  0
 37 61  1  0  0  0  0
 37 67  1  0  0  0  0
 37 76  2  0  0  0  0
 38 62  1  0  0  0  0
 38 71  1  0  0  0  0
 38 77  2  0  0  0  0
 39 42  1  0  0  0  0
 40 51  1  0  0  0  0
 41 67  1  0  0  0  0
 42 44  1  0  0  0  0
 43 45  1  0  0  0  0
 43 48  1  0  0  0  0
 44 50  1  0  0  0  0
 45 52  1  0  0  0  0
 46 47  1  0  0  0  0
 46 53  1  0  0  0  0
 47 53  1  0  0  0  0
 48 66  1  0  0  0  0
 49 52  1  0  0  0  0
 49 66  1  0  0  0  0
 50 70  1  0  0  0  0
 51 67  1  0  0  0  0
 52 65  1  0  0  0  0
 54 62  1  0  0  0  0
 55 63  1  0  0  0  0
 56 63  1  0  0  0  0
 57 63  1  0  0  0  0
 58 72  1  0  0  0  0
 59 60  1  0  0  0  0
 59 79  1  0  0  0  0
 60 80  1  0  0  0  0
 61 63  1  0  0  0  0
 61 71  1  0  0  0  0
 62 72  1  0  0  0  0
 64 65  1  0  0  0  0
M  CHG  1  72   1
M  ISO  4  35 100  53 100  60 101  80 101
M  END
> <Batch ID>
0143

> <Smiles>
CNC(C)C(=O)NC(C(=O)N1Cc2cc([101O:1][101CH2:1]COc3ccc([100C:0]4([100C:0](=O)N5CCCC(n6nc(-c7ccc(Oc8ccc(F)cc8F)cc7)c(C(N)=O)c6N)C5)CC4)cc3)ccc2CC1C(=O)NC1CCCc2ccccc21)C(C)(C)C

> <Shape>
0.241

> <Color>
0.161

> <Negative vol penalty>
0.000

$$$$

  -OEChem-04052321213D

 87 96  0     1  0  0  0  0  0999 V2000
  -37.2626  -13.0108   23.7727 C   0  0  0  0  0  0  0  0  0  0  0  0
  -36.6807  -14.2411   23.4845 C   0  0  0  0  0  0  0  0  0  0  0  0
  -16.8113  -31.1717   17.8427 C   0  0  0  0  0  0  0  0  0  0  0  0
  -15.9822  -32.4419   19.7232 C   0  0  0  0  0  0  0  0  0  0  0  0
  -36.7998  -11.8570   23.1414 C   0  0  0  0  0  0  0  0  0  0  0  0
  -35.6361  -14.3184   22.5639 C   0  0  0  0  0  0  0  0  0  0  0  0
  -30.8406  -18.1230   22.7484 C   0  0  0  0  0  0  0  0  0  0  0  0
  -15.5179  -31.0911   17.3269 C   0  0  0  0  0  0  0  0  0  0  0  0
  -14.6887  -32.3613   19.2074 C   0  0  0  0  0  0  0  0  0  0  0  0
  -30.5780  -19.3329   22.1074 C   0  0  0  0  0  0  0  0  0  0  0  0
  -12.8684  -33.8857   16.8025 C   0  0  0  0  0  0  0  0  0  0  0  0
  -12.0999  -35.0497   16.7994 C   0  0  0  0  0  0  0  0  0  0  0  0
  -29.3461  -18.1544   20.4007 C   0  0  0  0  0  0  0  0  0  0  0  0
  -27.4644  -24.8985   19.3148 C   0  0  0  0  0  0  0  0  0  0  0  0
  -10.4540  -33.9667   18.1978 C   0  0  0  0  0  0  0  0  0  0  0  0
  -29.4502  -25.1250   18.2779 C   0  0  0  0  0  0  0  0  0  0  0  0
  -17.0434  -31.8471   19.0410 C   0  0  0  0  0  0  0  0  0  0  0  0
  -19.3355  -32.9316   19.3202 C   0  0  0  0  0  0  0  0  0  0  0  0
  -35.7426  -11.9189   22.2199 C   0  0  0  0  0  0  0  0  0  0  0  0
  -30.3664  -16.9166   22.2136 C   0  0  0  0  0  0  0  0  0  0  0  0
  -35.1596  -13.1645   21.9187 C   0  0  0  0  0  0  0  0  0  0  0  0
  -29.6018  -16.9308   21.0383 C   0  0  0  0  0  0  0  0  0  0  0  0
  -14.4566  -31.6858   18.0092 C   0  0  0  0  0  0  0  0  0  0  0  0
  -29.8331  -19.3485   20.9318 C   0  0  0  0  0  0  0  0  0  0  0  0
  -12.4298  -32.7621   17.5032 C   0  0  0  0  0  0  0  0  0  0  0  0
  -28.6067  -24.1997   18.8521 C   0  0  0  0  0  0  0  0  0  0  0  0
  -10.8927  -35.0902   17.4971 C   0  0  0  0  0  0  0  0  0  0  0  0
  -11.2226  -32.8027   18.2009 C   0  0  0  0  0  0  0  0  0  0  0  0
  -18.3793  -31.9303   19.5746 C   0  0  0  0  0  0  0  0  0  0  0  0
  -27.6446  -26.2294   19.0091 C   0  0  0  0  0  0  0  0  0  0  0  0
  -20.4311  -32.5556   20.0583 C   0  0  0  0  0  0  0  0  0  0  0  0
  -19.2418  -34.0974   18.4909 C   0  0  0  0  0  0  0  0  0  0  0  0
  -31.7263  -14.2644   21.1090 C   0  0  0  0  0  0  0  0  0  0  0  0
  -28.6578  -13.2257   20.9424 C   0  0  0  0  0  0  0  0  0  0  0  0
  -25.3441  -14.0057   20.7024 C   0  0  0  0  0  0  0  0  0  0  0  0
  -23.9717  -28.8271   21.9509 C   0  0  0  0  0  0  0  0  0  0  0  0
  -35.3081  -10.6514   21.5275 C   0  0  0  0  0  0  0  0  0  0  0  0
  -30.6356  -15.6225   22.9315 C   0  0  0  0  0  0  0  0  0  0  0  0
  -29.0526  -15.6652   20.4341 C   0  0  0  0  0  0  0  0  0  0  0  0
  -33.9477  -10.7662   20.8445 C   0  0  0  0  0  0  0  0  0  0  0  0
  -20.9535  -29.0175   23.6249 C   0  0  0  0  0  0  0  0  0  0  0  0
  -33.8629  -12.0578   20.0374 C   0  0  0  0  0  0  0  0  0  0  0  0
  -20.0827  -29.8756   22.7076 C   0  0  0  0  0  0  0  0  0  0  0  0
  -25.2515  -27.0366   19.2171 C   0  0  0  0  0  0  0  0  0  0  0  0
  -27.0741  -28.1128   20.6061 C   0  0  0  0  0  0  0  0  0  0  0  0
  -21.7922  -28.0336   22.8175 C   0  0  0  0  0  0  0  0  0  0  0  0
  -24.3465  -28.2353   19.5157 C   0  0  0  0  0  0  0  0  0  0  0  0
  -26.1391  -29.2939   20.8494 C   0  0  0  0  0  0  0  0  0  0  0  0
  -21.7982  -29.5441   20.8589 C   0  0  0  0  0  0  0  0  0  0  0  0
  -34.0079  -13.2857   20.9445 C   0  0  1  0  0  0  0  0  0  0  0  0
  -26.7414  -27.4196   19.2725 C   0  0  0  0  0  0  0  0  0  0  0  0
  -30.5398  -14.4026   22.0205 C   0  0  1  0  0  0  0  0  0  0  0  0
  -20.9318  -30.5646   21.6246 C   0  0  1  0  0  0  0  0  0  0  0  0
  -23.0761  -12.9425   20.5492 C   0  0  0  0  0  0  0  0  0  0  0  0
  -29.6100  -27.5730   16.3699 C   0  0  0  0  0  0  0  0  0  0  0  0
  -30.7369  -27.9347   18.6072 C   0  0  0  0  0  0  0  0  0  0  0  0
  -29.1831  -12.5323   18.0178 C   0  0  0  0  0  0  0  0  0  0  0  0
  -26.7066  -12.3863   17.6800 C   0  0  0  0  0  0  0  0  0  0  0  0
  -27.8408  -10.8324   19.2681 C   0  0  0  0  0  0  0  0  0  0  0  0
  -24.4504  -15.2761   23.2216 C   0  0  0  0  0  0  0  0  0  0  0  0
  -28.3598  -20.6181   19.5630 C   0  0  0  0  0  0  0  0  0  1  0  0
  -27.8730  -22.0542   19.5691 C   0  0  0  0  0  0  0  0  0  0  0  0
  -27.5706  -13.2666   19.8958 C   0  0  1  0  0  0  0  0  0  0  0  0
  -24.1350  -13.5153   21.4784 C   0  0  2  0  0  0  0  0  0  0  0  0
  -29.4311  -27.5884   17.8893 C   0  0  0  0  0  0  0  0  0  0  0  0
  -27.8371  -12.2782   18.7255 C   0  0  0  0  0  0  0  0  0  0  0  0
  -18.8280  -30.9888   20.4090 N   0  0  0  0  0  0  0  0  0  0  0  0
  -28.8550  -26.3553   18.3788 N   0  0  0  0  0  0  0  0  0  0  0  0
  -20.0783  -31.3969   20.6853 N   0  0  0  0  0  0  0  0  0  0  0  0
  -29.3481  -14.4247   21.1698 N   0  0  0  0  0  0  0  0  0  0  0  0
  -22.5807  -28.7257   21.7982 N   0  0  0  0  0  0  0  0  0  0  0  0
  -24.7381  -28.8799   20.7769 N   0  0  0  0  0  0  0  0  0  0  0  0
  -21.6522  -33.1064   20.2256 N   0  0  0  0  0  0  0  0  0  0  0  0
  -18.0439  -34.3332   17.8025 N   0  0  0  0  0  0  0  0  0  0  0  0
  -32.7711  -13.5408   21.6514 N   0  0  0  0  0  0  0  0  0  0  0  0
  -26.3155  -13.0323   20.6016 N   0  0  0  0  0  0  0  0  0  0  0  0
  -23.5264  -14.6349   22.2510 N   0  3  0  0  0  0  0  0  0  0  0  0
  -20.1978  -34.8974   18.3511 O   0  0  0  0  0  0  0  0  0  0  0  0
  -31.6955  -14.7750   19.9954 O   0  0  0  0  0  0  0  0  0  0  0  0
  -28.8813  -12.1707   21.5413 O   0  0  0  0  0  0  0  0  0  0  0  0
  -25.4177  -15.1377   20.2294 O   0  0  0  0  0  0  0  0  0  0  0  0
  -24.4985  -28.8689   23.0698 O   0  0  0  0  0  0  0  0  0  0  0  0
  -13.1943  -31.6075   17.5060 O   0  0  0  0  0  0  0  0  0  0  0  0
  -29.5741  -20.5361   20.2995 O   0  0  0  0  0  0  0  0  0  1  0  0
  -28.8588  -22.8865   18.9375 O   0  0  0  0  0  0  0  0  0  0  0  0
  -10.1555  -36.2085   17.4953 F   0  0  0  0  0  0  0  0  0  0  0  0
  -10.7966  -31.7268   18.8768 F   0  0  0  0  0  0  0  0  0  0  0  0
  1  2  1  0  0  0  0
  1  5  2  0  0  0  0
  2  6  2  0  0  0  0
  3  8  2  0  0  0  0
  3 17  1  0  0  0  0
  4  9  1  0  0  0  0
  4 17  2  0  0  0  0
  5 19  1  0  0  0  0
  6 21  1  0  0  0  0
  7 10  2  0  0  0  0
  7 20  1  0  0  0  0
  8 23  1  0  0  0  0
  9 23  2  0  0  0  0
 10 24  1  0  0  0  0
 11 12  2  0  0  0  0
 11 25  1  0  0  0  0
 12 27  1  0  0  0  0
 13 22  1  0  0  0  0
 13 24  2  0  0  0  0
 14 26  1  0  0  0  0
 14 30  2  0  0  0  0
 15 27  2  0  0  0  0
 15 28  1  0  0  0  0
 16 26  2  0  0  0  0
 16 68  1  0  0  0  0
 17 29  1  0  0  0  0
 18 29  1  0  0  0  0
 18 31  2  0  0  0  0
 18 32  1  0  0  0  0
 19 21  2  0  0  0  0
 19 37  1  0  0  0  0
 20 22  2  0  0  0  0
 20 38  1  0  0  0  0
 21 50  1  0  0  0  0
 22 39  1  0  0  0  0
 23 83  1  0  0  0  0
 24 84  1  0  0  0  0
 25 28  2  0  0  0  0
 25 83  1  0  0  0  0
 26 85  1  0  0  0  0
 27 86  1  0  0  0  0
 28 87  1  0  0  0  0
 29 67  2  0  0  0  0
 30 51  1  0  0  0  0
 30 68  1  0  0  0  0
 31 69  1  0  0  0  0
 31 73  1  0  0  0  0
 32 74  1  0  0  0  0
 32 78  2  0  0  0  0
 33 52  1  0  0  0  0
 33 75  1  0  0  0  0
 33 79  2  0  0  0  0
 34 63  1  0  0  0  0
 34 70  1  0  0  0  0
 34 80  2  0  0  0  0
 35 64  1  0  0  0  0
 35 76  1  0  0  0  0
 35 81  2  0  0  0  0
 36 71  1  0  0  0  0
 36 72  1  0  0  0  0
 36 82  2  0  0  0  0
 37 40  1  0  0  0  0
 38 52  1  0  0  0  0
 39 70  1  0  0  0  0
 40 42  1  0  0  0  0
 41 43  1  0  0  0  0
 41 46  1  0  0  0  0
 42 50  1  0  0  0  0
 43 53  1  0  0  0  0
 44 47  1  0  0  0  0
 44 51  1  0  0  0  0
 45 48  1  0  0  0  0
 45 51  1  0  0  0  0
 46 71  1  0  0  0  0
 47 72  1  0  0  0  0
 48 72  1  0  0  0  0
 49 53  1  0  0  0  0
 49 71  1  0  0  0  0
 50 75  1  0  0  0  0
 52 70  1  0  0  0  0
 53 69  1  0  0  0  0
 54 64  1  0  0  0  0
 55 65  1  0  0  0  0
 56 65  1  0  0  0  0
 57 66  1  0  0  0  0
 58 66  1  0  0  0  0
 59 66  1  0  0  0  0
 60 77  1  0  0  0  0
 61 62  1  0  0  0  0
 61 84  1  0  0  0  0
 62 85  1  0  0  0  0
 63 66  1  0  0  0  0
 63 76  1  0  0  0  0
 64 77  1  0  0  0  0
 65 68  1  0  0  0  0
 67 69  1  0  0  0  0
M  CHG  1  77   1
M  ISO  4  36 100  61 101  72 100  84 101
M  END
> <Batch ID>
0143

> <Smiles>
CNC(C)C(=O)NC(C(=O)N1Cc2cc([101O:1][101CH2:1]COc3cc(C4CC[100N:0]([100C:0](=O)N5CCCC(n6nc(-c7ccc(Oc8ccc(F)cc8F)cc7)c(C(N)=O)c6N)C5)CC4)n(C(C)C)c3)ccc2CC1C(=O)NC1CCCc2ccccc21)C(C)(C)C

> <Shape>
0.230

> <Color>
0.097

> <Negative vol penalty>
0.000

$$$$

  -OEChem-04052321213D

 91101  0     1  0  0  0  0  0999 V2000
  -25.8939  -34.6457   24.3391 C   0  0  0  0  0  0  0  0  0  0  0  0
  -26.4683  -33.4601   23.8918 C   0  0  0  0  0  0  0  0  0  0  0  0
  -22.5102  -10.2884   22.3580 C   0  0  0  0  0  0  0  0  0  0  0  0
  -24.1126   -9.7984   20.6175 C   0  0  0  0  0  0  0  0  0  0  0  0
  -24.6062  -34.6369   24.8734 C   0  0  0  0  0  0  0  0  0  0  0  0
  -25.7554  -32.2649   23.9797 C   0  0  0  0  0  0  0  0  0  0  0  0
  -26.0874  -20.7852   13.3977 C   0  0  0  0  0  0  0  0  0  0  0  0
  -27.1241  -18.6584   13.8866 C   0  0  0  0  0  0  0  0  0  0  0  0
  -26.0744  -29.4975   19.7506 C   0  0  0  0  0  0  0  0  0  0  0  0
  -26.6112  -20.7435   12.1056 C   0  0  0  0  0  0  0  0  0  0  0  0
  -27.6478  -18.6167   12.5945 C   0  0  0  0  0  0  0  0  0  0  0  0
  -21.9875   -9.0007   22.2393 C   0  0  0  0  0  0  0  0  0  0  0  0
  -23.5899   -8.5107   20.4988 C   0  0  0  0  0  0  0  0  0  0  0  0
  -27.2492  -28.7738   19.5504 C   0  0  0  0  0  0  0  0  0  0  0  0
  -22.8037   -5.8782   23.2478 C   0  0  0  0  0  0  0  0  0  0  0  0
  -22.5493   -5.1710   24.4229 C   0  0  0  0  0  0  0  0  0  0  0  0
  -26.1451  -26.7767   20.3327 C   0  0  0  0  0  0  0  0  0  0  0  0
  -27.5713  -25.3101   17.9059 C   0  0  0  0  0  0  0  0  0  0  0  0
  -20.2142   -5.0142   23.8229 C   0  0  0  0  0  0  0  0  0  0  0  0
  -29.0355  -24.3798   19.5333 C   0  0  0  0  0  0  0  0  0  0  0  0
  -23.5727  -10.6873   21.5471 C   0  0  0  0  0  0  0  0  0  0  0  0
  -25.1583  -12.4366   22.5132 C   0  0  0  0  0  0  0  0  0  0  0  0
  -26.3439  -19.7427   14.2882 C   0  0  0  0  0  0  0  0  0  0  0  0
  -23.8735  -33.4426   24.9589 C   0  0  0  0  0  0  0  0  0  0  0  0
  -24.9275  -28.8674   20.2546 C   0  0  0  0  0  0  0  0  0  0  0  0
  -24.4572  -32.2399   24.5168 C   0  0  0  0  0  0  0  0  0  0  0  0
  -24.9564  -27.4941   20.5361 C   0  0  0  0  0  0  0  0  0  0  0  0
  -27.3914  -19.6592   11.7040 C   0  0  0  0  0  0  0  0  0  0  0  0
  -27.4915  -24.0581   17.3063 C   0  0  0  0  0  0  0  0  0  0  0  0
  -22.5273   -8.1118   21.3097 C   0  0  0  0  0  0  0  0  0  0  0  0
  -27.2855  -27.4138   19.8441 C   0  0  0  0  0  0  0  0  0  0  0  0
  -21.7633   -6.1535   22.3603 C   0  0  0  0  0  0  0  0  0  0  0  0
  -28.3563  -25.4824   19.0407 C   0  0  0  0  0  0  0  0  0  1  0  0
  -21.2546   -4.7390   24.7104 C   0  0  0  0  0  0  0  0  0  0  0  0
  -20.4686   -5.7215   22.6479 C   0  0  0  0  0  0  0  0  0  0  0  0
  -24.1128  -12.0176   21.6688 C   0  0  0  0  0  0  0  0  0  0  0  0
  -28.2097  -23.0191   17.8761 C   0  0  0  0  0  0  0  0  0  0  0  0
  -25.2905  -13.7793   22.2557 C   0  0  0  0  0  0  0  0  0  0  0  0
  -25.9403  -11.6798   23.4467 C   0  0  0  0  0  0  0  0  0  0  0  0
  -23.1475  -29.2045   22.8664 C   0  0  0  0  0  0  0  0  0  0  0  0
  -21.2577  -27.0217   21.3877 C   0  0  0  0  0  0  0  0  0  0  0  0
  -20.9866  -24.4916   19.1135 C   0  0  0  0  0  0  0  0  0  0  0  0
  -25.7348  -17.8628   18.6157 C   0  0  0  0  0  0  0  0  0  0  0  0
  -22.5030  -33.4751   25.5875 C   0  0  0  0  0  0  0  0  0  0  0  0
  -23.6604  -29.6564   20.4398 C   0  0  0  0  0  0  0  0  0  0  0  0
  -23.7463  -26.7663   21.0600 C   0  0  0  0  0  0  0  0  0  0  0  0
  -21.6713  -32.2276   25.3002 C   0  0  0  0  0  0  0  0  0  0  0  0
  -22.3521  -16.9631   19.6891 C   0  0  0  0  0  0  0  0  0  0  0  0
  -22.5032  -30.9685   25.5226 C   0  0  0  0  0  0  0  0  0  0  0  0
  -22.5951  -15.5926   20.3126 C   0  0  0  0  0  0  0  0  0  0  0  0
  -23.2748  -17.2343   18.5005 C   0  0  0  0  0  0  0  0  0  0  0  0
  -24.9284  -18.5821   16.2677 C   0  0  0  0  0  0  0  0  0  0  0  0
  -24.9568  -15.6651   19.4410 C   0  0  0  0  0  0  0  0  0  0  0  0
  -25.7472  -19.7906   15.7596 C   0  0  1  0  0  0  0  0  0  0  0  0
  -23.7062  -30.9273   24.5725 C   0  0  1  0  0  0  0  0  0  0  0  0
  -22.7024  -29.0216   21.4430 C   0  0  1  0  0  0  0  0  0  0  0  0
  -24.0779  -15.4227   20.6758 C   0  0  2  0  0  0  0  0  0  0  0  0
  -26.6944  -19.5541   16.9650 C   0  0  1  0  0  0  0  0  0  0  0  0
  -27.9520  -19.6150   10.3224 C   0  0  0  0  0  0  0  0  0  0  0  0
  -26.6531  -23.8672   16.0900 C   0  0  0  0  0  0  0  0  0  0  0  0
  -29.5057  -20.9154   17.4459 C   0  0  0  0  0  0  0  0  0  0  0  0
  -19.3235  -22.8770   18.1520 C   0  0  0  0  0  0  0  0  0  0  0  0
  -21.4213  -25.3429   23.9303 C   0  0  0  0  0  0  0  0  0  0  0  0
  -20.5799  -23.3886   22.6109 C   0  0  0  0  0  0  0  0  0  0  0  0
  -19.1554  -25.4194   22.8747 C   0  0  0  0  0  0  0  0  0  0  0  0
  -21.3284  -25.5848   16.3846 C   0  0  0  0  0  0  0  0  0  0  0  0
  -27.0067  -20.7645   17.8216 C   0  0  0  0  0  0  0  0  0  0  0  0
  -28.1606  -21.6293   17.2649 C   0  0  1  0  0  0  0  0  0  0  0  0
  -21.1815  -25.5141   21.3654 C   0  0  1  0  0  0  0  0  0  0  0  0
  -19.9833  -24.2390   18.0026 C   0  0  2  0  0  0  0  0  0  0  0  0
  -20.6081  -24.9301   22.6873 C   0  0  0  0  0  0  0  0  0  0  0  0
  -28.9820  -23.1482   18.9782 N   0  0  0  0  0  0  0  0  0  0  0  0
  -23.6158  -13.0134   20.9303 N   0  0  0  0  0  0  0  0  0  0  0  0
  -24.3523  -14.0715   21.3099 N   0  0  0  0  0  0  0  0  0  0  0  0
  -22.5330  -27.5827   21.2302 N   0  0  0  0  0  0  0  0  0  0  0  0
  -24.6803  -16.9660   18.8233 N   0  0  0  0  0  0  0  0  0  0  0  0
  -25.6269  -18.7296   17.5422 N   0  0  0  0  0  0  0  0  0  0  0  0
  -26.1164  -14.7266   22.7484 N   0  0  0  0  0  0  0  0  0  0  0  0
  -25.6731  -10.3111   23.5871 N   0  0  0  0  0  0  0  0  0  0  0  0
  -23.2892  -30.5256   23.2462 N   0  0  0  0  0  0  0  0  0  0  0  0
  -20.4156  -25.1618   20.1747 N   0  0  0  0  0  0  0  0  0  0  0  0
  -20.6570  -24.2917   16.6743 N   0  3  0  0  0  0  0  0  0  0  0  0
  -26.8380  -12.2052   24.1479 O   0  0  0  0  0  0  0  0  0  0  0  0
  -23.3461  -28.2201   23.5686 O   0  0  0  0  0  0  0  0  0  0  0  0
  -20.2230  -27.6775   21.5323 O   0  0  0  0  0  0  0  0  0  0  0  0
  -22.1586  -24.1274   19.0481 O   0  0  0  0  0  0  0  0  0  0  0  0
  -26.7411  -17.8736   19.3351 O   0  0  0  0  0  0  0  0  0  0  0  0
  -22.0176   -6.8551   21.1938 O   0  0  0  0  0  0  0  0  0  0  0  0
  -28.4532  -26.6915   19.6464 O   0  0  0  0  0  0  0  0  0  1  0  0
  -21.0107   -4.0585   25.8381 F   0  0  0  0  0  0  0  0  0  0  0  0
  -19.4653   -5.9819   21.7986 F   0  0  0  0  0  0  0  0  0  0  0  0
  1  2  1  0  0  0  0
  1  5  2  0  0  0  0
  2  6  2  0  0  0  0
  3 12  2  0  0  0  0
  3 21  1  0  0  0  0
  4 13  1  0  0  0  0
  4 21  2  0  0  0  0
  5 24  1  0  0  0  0
  6 26  1  0  0  0  0
  7 10  2  0  0  0  0
  7 23  1  0  0  0  0
  8 11  1  0  0  0  0
  8 23  2  0  0  0  0
  9 14  2  0  0  0  0
  9 25  1  0  0  0  0
 10 28  1  0  0  0  0
 11 28  2  0  0  0  0
 12 30  1  0  0  0  0
 13 30  2  0  0  0  0
 14 31  1  0  0  0  0
 15 16  2  0  0  0  0
 15 32  1  0  0  0  0
 16 34  1  0  0  0  0
 17 27  1  0  0  0  0
 17 31  2  0  0  0  0
 18 29  1  0  0  0  0
 18 33  2  0  0  0  0
 19 34  2  0  0  0  0
 19 35  1  0  0  0  0
 20 33  1  0  0  0  0
 20 72  2  0  0  0  0
 21 36  1  0  0  0  0
 22 36  1  0  0  0  0
 22 38  2  0  0  0  0
 22 39  1  0  0  0  0
 23 54  1  0  0  0  0
 24 26  2  0  0  0  0
 24 44  1  0  0  0  0
 25 27  2  0  0  0  0
 25 45  1  0  0  0  0
 26 55  1  0  0  0  0
 27 46  1  0  0  0  0
 28 59  1  0  0  0  0
 29 37  2  0  0  0  0
 29 60  1  0  0  0  0
 30 88  1  0  0  0  0
 31 89  1  0  0  0  0
 32 35  2  0  0  0  0
 32 88  1  0  0  0  0
 33 89  1  0  0  0  0
 34 90  1  0  0  0  0
 35 91  1  0  0  0  0
 36 73  2  0  0  0  0
 37 68  1  0  0  0  0
 37 72  1  0  0  0  0
 38 74  1  0  0  0  0
 38 78  1  0  0  0  0
 39 79  1  0  0  0  0
 39 83  2  0  0  0  0
 40 56  1  0  0  0  0
 40 80  1  0  0  0  0
 40 84  2  0  0  0  0
 41 69  1  0  0  0  0
 41 75  1  0  0  0  0
 41 85  2  0  0  0  0
 42 70  1  0  0  0  0
 42 81  1  0  0  0  0
 42 86  2  0  0  0  0
 43 76  1  0  0  0  0
 43 77  1  0  0  0  0
 43 87  2  0  0  0  0
 44 47  1  0  0  0  0
 45 56  1  0  0  0  0
 46 75  1  0  0  0  0
 47 49  1  0  0  0  0
 48 50  1  0  0  0  0
 48 51  1  0  0  0  0
 49 55  1  0  0  0  0
 50 57  1  0  0  0  0
 51 76  1  0  0  0  0
 52 54  1  0  0  0  0
 52 77  1  0  0  0  0
 53 57  1  0  0  0  0
 53 76  1  0  0  0  0
 54 58  1  0  0  0  0
 55 80  1  0  0  0  0
 56 75  1  0  0  0  0
 57 74  1  0  0  0  0
 58 67  1  0  0  0  0
 58 77  1  0  0  0  0
 61 68  1  0  0  0  0
 62 70  1  0  0  0  0
 63 71  1  0  0  0  0
 64 71  1  0  0  0  0
 65 71  1  0  0  0  0
 66 82  1  0  0  0  0
 67 68  1  0  0  0  0
 69 71  1  0  0  0  0
 69 81  1  0  0  0  0
 70 82  1  0  0  0  0
 73 74  1  0  0  0  0
M  CHG  1  82   1
M  ISO  4  33 101  43 100  77 100  89 101
M  END
> <Batch ID>
0143

> <Smiles>
CNC(C)C(=O)NC(C(=O)N1Cc2cc([101O:1][101c:1]3cnc(C(C)CC4C(c5ccc(C)cc5)C[100N:0]4[100C:0](=O)N4CCCC(n5nc(-c6ccc(Oc7ccc(F)cc7F)cc6)c(C(N)=O)c5N)C4)c(C)c3)ccc2CC1C(=O)NC1CCCc2ccccc21)C(C)(C)C

> <Shape>
0.224

> <Color>
0.124

> <Negative vol penalty>
0.000

$$$$

  -OEChem-04052321213D

 87 96  0     1  0  0  0  0  0999 V2000
  -20.6857  -22.0780   19.8632 C   0  0  0  0  0  0  0  0  0  0  0  0
  -21.8353  -21.9074   20.6279 C   0  0  0  0  0  0  0  0  0  0  0  0
  -23.0189   -9.8471   19.9538 C   0  0  0  0  0  0  0  0  0  0  0  0
  -23.7675   -9.8594   22.2508 C   0  0  0  0  0  0  0  0  0  0  0  0
  -20.4539  -23.2911   19.2162 C   0  0  0  0  0  0  0  0  0  0  0  0
  -22.7544  -22.9495   20.7450 C   0  0  0  0  0  0  0  0  0  0  0  0
  -26.1486  -24.3305   25.6520 C   0  0  0  0  0  0  0  0  0  0  0  0
  -30.2524  -18.8662   23.1448 C   0  0  0  0  0  0  0  0  0  0  0  0
  -22.2613   -8.7036   20.2068 C   0  0  0  0  0  0  0  0  0  0  0  0
  -23.0099   -8.7159   22.5039 C   0  0  0  0  0  0  0  0  0  0  0  0
  -27.4713  -24.0454   25.9879 C   0  0  0  0  0  0  0  0  0  0  0  0
  -23.2675   -5.3877   21.9675 C   0  0  0  0  0  0  0  0  0  0  0  0
  -23.8682   -4.3600   22.6945 C   0  0  0  0  0  0  0  0  0  0  0  0
  -29.7672  -17.6339   22.7214 C   0  0  0  0  0  0  0  0  0  0  0  0
  -28.1447  -26.2016   25.1414 C   0  0  0  0  0  0  0  0  0  0  0  0
  -22.1604   -4.5622   24.3915 C   0  0  0  0  0  0  0  0  0  0  0  0
  -23.7721  -10.4250   20.9758 C   0  0  0  0  0  0  0  0  0  0  0  0
  -24.1419  -12.9455   20.8427 C   0  0  0  0  0  0  0  0  0  0  0  0
  -21.3658  -24.3519   19.3333 C   0  0  0  0  0  0  0  0  0  0  0  0
  -25.8150  -25.5509   25.0472 C   0  0  0  0  0  0  0  0  0  0  0  0
  -22.5352  -24.1775   20.0978 C   0  0  0  0  0  0  0  0  0  0  0  0
  -31.5210  -19.2793   22.7533 C   0  0  0  0  0  0  0  0  0  0  0  0
  -26.8167  -26.5008   24.8011 C   0  0  0  0  0  0  0  0  0  0  0  0
  -22.2568   -8.1380   21.4818 C   0  0  0  0  0  0  0  0  0  0  0  0
  -28.4700  -24.9798   25.7300 C   0  0  0  0  0  0  0  0  0  0  0  0
  -22.1132   -6.0027   22.4525 C   0  0  0  0  0  0  0  0  0  0  0  0
  -23.3147   -3.9472   23.9065 C   0  0  0  0  0  0  0  0  0  0  0  0
  -21.5597   -5.5899   23.6644 C   0  0  0  0  0  0  0  0  0  0  0  0
  -24.5553  -11.6059   20.7149 C   0  0  0  0  0  0  0  0  0  0  0  0
  -30.5832  -16.8583   21.9138 C   0  0  0  0  0  0  0  0  0  0  0  0
  -32.2587  -18.4300   21.9444 C   0  0  0  0  0  0  0  0  0  0  0  0
  -25.2439  -13.6810   20.4805 C   0  0  0  0  0  0  0  0  0  0  0  0
  -22.8751  -13.4776   21.2523 C   0  0  0  0  0  0  0  0  0  0  0  0
  -24.5453  -26.3999   22.2596 C   0  0  0  0  0  0  0  0  0  0  0  0
  -24.5866  -29.3603   23.5851 C   0  0  0  0  0  0  0  0  0  0  0  0
  -25.9516  -31.4902   25.8757 C   0  0  0  0  0  0  0  0  0  0  0  0
  -30.7202  -14.6683   20.6763 C   0  0  0  0  0  0  0  0  0  0  0  0
  -21.0955  -25.6284   18.5770 C   0  0  0  0  0  0  0  0  0  0  0  0
  -24.3796  -25.8541   24.7153 C   0  0  0  0  0  0  0  0  0  0  0  0
  -26.5079  -27.8340   24.1722 C   0  0  0  0  0  0  0  0  0  0  0  0
  -21.9344  -26.8101   19.0570 C   0  0  0  0  0  0  0  0  0  0  0  0
  -29.5913  -12.2527   18.3167 C   0  0  0  0  0  0  0  0  0  0  0  0
  -23.3944  -26.3982   19.2170 C   0  0  0  0  0  0  0  0  0  0  0  0
  -28.1465  -11.9793   18.7408 C   0  0  0  0  0  0  0  0  0  0  0  0
  -31.1593  -21.7394   22.6868 C   0  0  0  0  0  0  0  0  0  0  0  0
  -32.1490  -20.6422   24.7370 C   0  0  0  0  0  0  0  0  0  0  0  0
  -30.5029  -12.4787   19.5215 C   0  0  0  0  0  0  0  0  0  0  0  0
  -28.5972  -13.2319   20.8890 C   0  0  0  0  0  0  0  0  0  0  0  0
  -31.6291  -23.0955   23.1976 C   0  0  0  0  0  0  0  0  0  0  0  0
  -32.6116  -22.0066   25.2319 C   0  0  0  0  0  0  0  0  0  0  0  0
  -32.0542  -20.6012   23.2033 C   0  0  0  0  0  0  0  0  0  0  0  0
  -23.5436  -25.2927   20.2692 C   0  0  1  0  0  0  0  0  0  0  0  0
  -24.2286  -26.9192   23.6336 C   0  0  1  0  0  0  0  0  0  0  0  0
  -27.6284  -13.0623   19.7074 C   0  0  2  0  0  0  0  0  0  0  0  0
  -25.8050  -33.8568   26.6974 C   0  0  0  0  0  0  0  0  0  0  0  0
  -26.0985  -30.3104   21.1110 C   0  0  0  0  0  0  0  0  0  0  0  0
  -26.7417  -32.3701   22.3807 C   0  0  0  0  0  0  0  0  0  0  0  0
  -24.3369  -31.8871   21.9266 C   0  0  0  0  0  0  0  0  0  0  0  0
  -25.1907  -30.6197   28.6001 C   0  0  0  0  0  0  0  0  0  0  0  0
  -34.2142  -17.8841   20.7059 C   0  0  0  0  0  0  0  0  0  0  0  0
  -32.0173  -24.4274   25.2688 C   0  0  0  0  0  0  0  0  0  0  0  0
  -30.7772  -25.2992   25.2492 C   0  0  0  0  0  0  0  0  0  1  0  0
  -25.5796  -30.4963   23.6334 C   0  0  1  0  0  0  0  0  0  0  0  0
  -25.3136  -32.4296   26.8832 C   0  0  2  0  0  0  0  0  0  0  0  0
  -25.6956  -31.2402   22.2730 C   0  0  0  0  0  0  0  0  0  0  0  0
  -25.8211  -11.4939   20.3035 N   0  0  0  0  0  0  0  0  0  0  0  0
  -31.8209  -17.2259   21.5130 N   0  0  0  0  0  0  0  0  0  0  0  0
  -26.2126  -12.7725   20.1696 N   0  0  0  0  0  0  0  0  0  0  0  0
  -25.0905  -28.0811   23.8601 N   0  0  0  0  0  0  0  0  0  0  0  0
  -29.9509  -13.5207   20.3900 N   0  0  0  0  0  0  0  0  0  0  0  0
  -25.4692  -15.0096   20.4007 N   0  0  0  0  0  0  0  0  0  0  0  0
  -21.8517  -12.5814   21.5898 N   0  0  0  0  0  0  0  0  0  0  0  0
  -30.0789  -15.6051   21.4860 N   0  0  0  0  0  0  0  0  0  0  0  0
  -23.4614  -25.8496   21.6025 N   0  0  0  0  0  0  0  0  0  0  0  0
  -25.1730  -31.3468   24.7468 N   0  0  0  0  0  0  0  0  0  0  0  0
  -31.6856  -23.0910   24.7137 N   0  3  0  0  0  0  0  0  0  0  0  0
  -25.6384  -31.9978   28.2720 N   0  3  0  0  0  0  0  0  0  0  0  0
  -22.6519  -14.7110   21.3012 O   0  0  0  0  0  0  0  0  0  0  0  0
  -25.6881  -26.4931   21.8271 O   0  0  0  0  0  0  0  0  0  0  0  0
  -23.4058  -29.6000   23.3205 O   0  0  0  0  0  0  0  0  0  0  0  0
  -27.0343  -30.9416   26.0692 O   0  0  0  0  0  0  0  0  0  0  0  0
  -31.8534  -14.8220   20.2133 O   0  0  0  0  0  0  0  0  0  0  0  0
  -21.5175   -7.0223   21.7291 O   0  0  0  0  0  0  0  0  0  0  0  0
  -29.7620  -24.7038   26.0563 O   0  0  0  0  0  0  0  0  0  1  0  0
  -33.5123  -18.8030   21.5344 O   0  0  0  0  0  0  0  0  0  0  0  0
  -23.8909   -2.9593   24.6037 F   0  0  0  0  0  0  0  0  0  0  0  0
  -20.4502   -6.1761   24.1349 F   0  0  0  0  0  0  0  0  0  0  0  0
  1  2  1  0  0  0  0
  1  5  2  0  0  0  0
  2  6  2  0  0  0  0
  3  9  2  0  0  0  0
  3 17  1  0  0  0  0
  4 10  1  0  0  0  0
  4 17  2  0  0  0  0
  5 19  1  0  0  0  0
  6 21  1  0  0  0  0
  7 11  2  0  0  0  0
  7 20  1  0  0  0  0
  8 14  2  0  0  0  0
  8 22  1  0  0  0  0
  9 24  1  0  0  0  0
 10 24  2  0  0  0  0
 11 25  1  0  0  0  0
 12 13  2  0  0  0  0
 12 26  1  0  0  0  0
 13 27  1  0  0  0  0
 14 30  1  0  0  0  0
 15 23  1  0  0  0  0
 15 25  2  0  0  0  0
 16 27  2  0  0  0  0
 16 28  1  0  0  0  0
 17 29  1  0  0  0  0
 18 29  1  0  0  0  0
 18 32  2  0  0  0  0
 18 33  1  0  0  0  0
 19 21  2  0  0  0  0
 19 38  1  0  0  0  0
 20 23  2  0  0  0  0
 20 39  1  0  0  0  0
 21 52  1  0  0  0  0
 22 31  2  0  0  0  0
 22 51  1  0  0  0  0
 23 40  1  0  0  0  0
 24 83  1  0  0  0  0
 25 84  1  0  0  0  0
 26 28  2  0  0  0  0
 26 83  1  0  0  0  0
 27 86  1  0  0  0  0
 28 87  1  0  0  0  0
 29 66  2  0  0  0  0
 30 67  2  0  0  0  0
 30 73  1  0  0  0  0
 31 67  1  0  0  0  0
 31 85  1  0  0  0  0
 32 68  1  0  0  0  0
 32 71  1  0  0  0  0
 33 72  1  0  0  0  0
 33 78  2  0  0  0  0
 34 53  1  0  0  0  0
 34 74  1  0  0  0  0
 34 79  2  0  0  0  0
 35 63  1  0  0  0  0
 35 69  1  0  0  0  0
 35 80  2  0  0  0  0
 36 64  1  0  0  0  0
 36 75  1  0  0  0  0
 36 81  2  0  0  0  0
 37 70  1  0  0  0  0
 37 73  1  0  0  0  0
 37 82  2  0  0  0  0
 38 41  1  0  0  0  0
 39 53  1  0  0  0  0
 40 69  1  0  0  0  0
 41 43  1  0  0  0  0
 42 44  1  0  0  0  0
 42 47  1  0  0  0  0
 43 52  1  0  0  0  0
 44 54  1  0  0  0  0
 45 49  1  0  0  0  0
 45 51  1  0  0  0  0
 46 50  1  0  0  0  0
 46 51  1  0  0  0  0
 47 70  1  0  0  0  0
 48 54  1  0  0  0  0
 48 70  1  0  0  0  0
 49 76  1  0  0  0  0
 50 76  1  0  0  0  0
 52 74  1  0  0  0  0
 53 69  1  0  0  0  0
 54 68  1  0  0  0  0
 55 64  1  0  0  0  0
 56 65  1  0  0  0  0
 57 65  1  0  0  0  0
 58 65  1  0  0  0  0
 59 77  1  0  0  0  0
 60 85  1  0  0  0  0
 61 62  1  0  0  0  0
 61 76  1  0  0  0  0
 62 84  1  0  0  0  0
 63 65  1  0  0  0  0
 63 75  1  0  0  0  0
 64 77  1  0  0  0  0
 66 68  1  0  0  0  0
M  CHG  2  76   1  77   1
M  ISO  4  37 100  62 101  73 100  84 101
M  END
> <Batch ID>
0143

> <Smiles>
CNC(C)C(=O)NC(C(=O)N1Cc2cc([101O:1][101CH2:1]CN3CCC(c4ccc([100NH:0][100C:0](=O)N5CCCC(n6nc(-c7ccc(Oc8ccc(F)cc8F)cc7)c(C(N)=O)c6N)C5)nc4OC)CC3)ccc2CC1C(=O)NC1CCCc2ccccc21)C(C)(C)C

> <Shape>
0.255

> <Color>
0.198

> <Negative vol penalty>
0.000

$$$$

  -OEChem-04052321213D

 84 93  0     1  0  0  0  0  0999 V2000
  -23.6192   -8.0228   21.5383 C   0  0  0  0  0  0  0  0  0  0  0  0
  -24.2565   -9.0410   20.8366 C   0  0  0  0  0  0  0  0  0  0  0  0
  -23.4119  -29.3029   20.1458 C   0  0  0  0  0  0  0  0  0  0  0  0
  -23.5650  -27.8263   22.0519 C   0  0  0  0  0  0  0  0  0  0  0  0
  -22.3595   -8.2432   22.0938 C   0  0  0  0  0  0  0  0  0  0  0  0
  -23.6341  -10.2801   20.6891 C   0  0  0  0  0  0  0  0  0  0  0  0
  -26.7867  -14.1512   21.5378 C   0  0  0  0  0  0  0  0  0  0  0  0
  -22.0810  -29.5743   20.4630 C   0  0  0  0  0  0  0  0  0  0  0  0
  -22.2340  -28.0977   22.3691 C   0  0  0  0  0  0  0  0  0  0  0  0
  -27.6754  -14.4842   20.5165 C   0  0  0  0  0  0  0  0  0  0  0  0
  -19.1730  -27.1361   21.3032 C   0  0  0  0  0  0  0  0  0  0  0  0
  -18.3541  -26.0582   21.6394 C   0  0  0  0  0  0  0  0  0  0  0  0
  -26.2247  -16.2934   19.8522 C   0  0  0  0  0  0  0  0  0  0  0  0
  -28.3635  -21.1143   21.8663 C   0  0  0  0  0  0  0  0  0  0  0  0
  -29.5112  -19.0017   21.9294 C   0  0  0  0  0  0  0  0  0  0  0  0
  -17.9505  -27.0414   23.8091 C   0  0  0  0  0  0  0  0  0  0  0  0
  -24.1539  -28.4289   20.9403 C   0  0  0  0  0  0  0  0  0  0  0  0
  -26.6683  -28.8427   21.0600 C   0  0  0  0  0  0  0  0  0  0  0  0
  -21.7255   -9.4887   21.9614 C   0  0  0  0  0  0  0  0  0  0  0  0
  -25.6029  -14.8812   21.7174 C   0  0  0  0  0  0  0  0  0  0  0  0
  -22.3642  -10.5170   21.2423 C   0  0  0  0  0  0  0  0  0  0  0  0
  -25.3238  -15.9692   20.8781 C   0  0  0  0  0  0  0  0  0  0  0  0
  -28.7881  -19.9972   22.5770 C   0  0  0  0  0  0  0  0  0  0  0  0
  -21.4920  -28.9718   21.5746 C   0  0  0  0  0  0  0  0  0  0  0  0
  -27.3931  -15.5536   19.6717 C   0  0  0  0  0  0  0  0  0  0  0  0
  -19.3807  -28.1667   22.2200 C   0  0  0  0  0  0  0  0  0  0  0  0
  -17.7428  -26.0108   22.8923 C   0  0  0  0  0  0  0  0  0  0  0  0
  -18.7695  -28.1193   23.4729 C   0  0  0  0  0  0  0  0  0  0  0  0
  -25.5286  -28.1476   20.6129 C   0  0  0  0  0  0  0  0  0  0  0  0
  -28.6853  -21.1878   20.5206 C   0  0  0  0  0  0  0  0  0  0  0  0
  -29.7813  -19.1696   20.5808 C   0  0  0  0  0  0  0  0  0  0  0  0
  -27.7224  -28.1891   20.4701 C   0  0  0  0  0  0  0  0  0  0  0  0
  -26.7653  -29.9775   21.9308 C   0  0  0  0  0  0  0  0  0  0  0  0
  -22.5023  -14.1927   21.5931 C   0  0  0  0  0  0  0  0  0  0  0  0
  -22.1805  -17.2442   22.6451 C   0  0  0  0  0  0  0  0  0  0  0  0
  -23.5097  -20.3774   22.8967 C   0  0  0  0  0  0  0  0  0  0  0  0
  -28.4555  -22.6116   18.4552 C   0  0  0  0  0  0  0  0  0  0  0  0
  -20.3434   -9.6647   22.5389 C   0  0  0  0  0  0  0  0  0  0  0  0
  -24.6676  -14.5259   22.8405 C   0  0  0  0  0  0  0  0  0  0  0  0
  -24.0764  -16.7973   21.0416 C   0  0  0  0  0  0  0  0  0  0  0  0
  -19.9146  -11.1249   22.6581 C   0  0  0  0  0  0  0  0  0  0  0  0
  -28.8336  -25.6181   16.5855 C   0  0  0  0  0  0  0  0  0  0  0  0
  -28.8801  -20.9690   24.9688 C   0  0  0  0  0  0  0  0  0  0  0  0
  -29.5937  -19.6538   25.0083 C   0  0  0  0  0  0  0  0  0  0  0  0
  -20.2258  -11.8797   21.3696 C   0  0  0  0  0  0  0  0  0  0  0  0
  -28.1380  -26.6723   17.4497 C   0  0  0  0  0  0  0  0  0  0  0  0
  -28.1108  -24.2733   16.6399 C   0  0  0  0  0  0  0  0  0  0  0  0
  -27.1750  -24.8061   18.8557 C   0  0  0  0  0  0  0  0  0  0  0  0
  -28.4703  -19.8667   24.0266 C   0  0  0  0  0  0  0  0  0  0  0  0
  -21.7321  -11.8826   21.0821 C   0  0  1  0  0  0  0  0  0  0  0  0
  -23.2419  -15.0168   22.6087 C   0  0  1  0  0  0  0  0  0  0  0  0
  -27.9033  -26.1597   18.8842 C   0  0  2  0  0  0  0  0  0  0  0  0
  -23.7039  -22.7734   23.6169 C   0  0  0  0  0  0  0  0  0  0  0  0
  -20.3027  -17.7260   20.2889 C   0  0  0  0  0  0  0  0  0  0  0  0
  -20.5824  -20.1863   20.6589 C   0  0  0  0  0  0  0  0  0  0  0  0
  -19.5654  -18.7666   22.4402 C   0  0  0  0  0  0  0  0  0  0  0  0
  -24.9348  -19.6358   25.3823 C   0  0  0  0  0  0  0  0  0  0  0  0
  -30.4960  -16.5973   18.1243 C   0  0  0  0  0  0  0  0  0  0  0  0
  -29.6409  -15.6050   18.8966 C   0  0  0  0  0  0  0  0  0  1  0  0
  -30.2134  -18.0335   18.5367 C   0  0  0  0  0  0  0  0  0  0  0  0
  -22.0461  -18.5946   21.9836 C   0  0  1  0  0  0  0  0  0  0  0  0
  -23.6393  -21.3249   24.0756 C   0  0  2  0  0  0  0  0  0  0  0  0
  -20.6468  -18.8018   21.3383 C   0  0  0  0  0  0  0  0  0  0  0  0
  -25.8303  -27.1306   19.8014 N   0  0  0  0  0  0  0  0  0  0  0  0
  -29.3857  -20.2408   19.8572 N   0  0  0  0  0  0  0  0  0  0  0  0
  -27.1715  -27.1818   19.7338 N   0  0  0  0  0  0  0  0  0  0  0  0
  -23.1901  -16.4066   22.1504 N   0  0  0  0  0  0  0  0  0  0  0  0
  -27.9276  -23.8490   18.0296 N   0  0  0  0  0  0  0  0  0  0  0  0
  -29.0576  -28.3835   20.5144 N   0  0  0  0  0  0  0  0  0  0  0  0
  -25.5838  -30.5251   22.4490 N   0  0  0  0  0  0  0  0  0  0  0  0
  -28.2477  -22.3297   19.8049 N   0  0  0  0  0  0  0  0  0  0  0  0
  -22.4045  -12.8533   21.9187 N   0  0  0  0  0  0  0  0  0  0  0  0
  -22.3874  -19.5831   23.0008 N   0  0  0  0  0  0  0  0  0  0  0  0
  -24.8757  -21.0217   24.8504 N   0  3  0  0  0  0  0  0  0  0  0  0
  -27.8661  -30.5009   22.2272 O   0  0  0  0  0  0  0  0  0  0  0  0
  -22.0523  -14.7323   20.5891 O   0  0  0  0  0  0  0  0  0  0  0  0
  -21.4224  -16.9466   23.5715 O   0  0  0  0  0  0  0  0  0  0  0  0
  -24.3209  -20.3476   21.9738 O   0  0  0  0  0  0  0  0  0  0  0  0
  -29.0719  -21.8700   17.6857 O   0  0  0  0  0  0  0  0  0  0  0  0
  -20.1934  -29.2366   21.8845 O   0  0  0  0  0  0  0  0  0  0  0  0
  -28.2586  -15.8804   18.6737 O   0  0  0  0  0  0  0  0  0  1  0  0
  -30.4924  -18.2019   19.9200 O   0  0  0  0  0  0  0  0  0  0  0  0
  -16.9552  -24.9764   23.2144 F   0  0  0  0  0  0  0  0  0  0  0  0
  -18.9644  -29.1070   24.3574 F   0  0  0  0  0  0  0  0  0  0  0  0
  1  2  1  0  0  0  0
  1  5  2  0  0  0  0
  2  6  2  0  0  0  0
  3  8  2  0  0  0  0
  3 17  1  0  0  0  0
  4  9  1  0  0  0  0
  4 17  2  0  0  0  0
  5 19  1  0  0  0  0
  6 21  1  0  0  0  0
  7 10  2  0  0  0  0
  7 20  1  0  0  0  0
  8 24  1  0  0  0  0
  9 24  2  0  0  0  0
 10 25  1  0  0  0  0
 11 12  2  0  0  0  0
 11 26  1  0  0  0  0
 12 27  1  0  0  0  0
 13 22  1  0  0  0  0
 13 25  2  0  0  0  0
 14 23  1  0  0  0  0
 14 30  2  0  0  0  0
 15 23  2  0  0  0  0
 15 31  1  0  0  0  0
 16 27  2  0  0  0  0
 16 28  1  0  0  0  0
 17 29  1  0  0  0  0
 18 29  1  0  0  0  0
 18 32  2  0  0  0  0
 18 33  1  0  0  0  0
 19 21  2  0  0  0  0
 19 38  1  0  0  0  0
 20 22  2  0  0  0  0
 20 39  1  0  0  0  0
 21 50  1  0  0  0  0
 22 40  1  0  0  0  0
 23 49  1  0  0  0  0
 24 80  1  0  0  0  0
 25 81  1  0  0  0  0
 26 28  2  0  0  0  0
 26 80  1  0  0  0  0
 27 83  1  0  0  0  0
 28 84  1  0  0  0  0
 29 64  2  0  0  0  0
 30 65  1  0  0  0  0
 30 71  1  0  0  0  0
 31 65  2  0  0  0  0
 31 82  1  0  0  0  0
 32 66  1  0  0  0  0
 32 69  1  0  0  0  0
 33 70  1  0  0  0  0
 33 75  2  0  0  0  0
 34 51  1  0  0  0  0
 34 72  1  0  0  0  0
 34 76  2  0  0  0  0
 35 61  1  0  0  0  0
 35 67  1  0  0  0  0
 35 77  2  0  0  0  0
 36 62  1  0  0  0  0
 36 73  1  0  0  0  0
 36 78  2  0  0  0  0
 37 68  1  0  0  0  0
 37 71  1  0  0  0  0
 37 79  2  0  0  0  0
 38 41  1  0  0  0  0
 39 51  1  0  0  0  0
 40 67  1  0  0  0  0
 41 45  1  0  0  0  0
 42 46  1  0  0  0  0
 42 47  1  0  0  0  0
 43 44  1  0  0  0  0
 43 49  1  0  0  0  0
 44 49  1  0  0  0  0
 45 50  1  0  0  0  0
 46 52  1  0  0  0  0
 47 68  1  0  0  0  0
 48 52  1  0  0  0  0
 48 68  1  0  0  0  0
 50 72  1  0  0  0  0
 51 67  1  0  0  0  0
 52 66  1  0  0  0  0
 53 62  1  0  0  0  0
 54 63  1  0  0  0  0
 55 63  1  0  0  0  0
 56 63  1  0  0  0  0
 57 74  1  0  0  0  0
 58 59  1  0  0  0  0
 58 60  1  0  0  0  0
 59 81  1  0  0  0  0
 60 82  1  0  0  0  0
 61 63  1  0  0  0  0
 61 73  1  0  0  0  0
 62 74  1  0  0  0  0
 64 66  1  0  0  0  0
M  CHG  1  74   1
M  ISO  4  37 100  59 101  71 100  81 101
M  END
> <Batch ID>
0143

> <Smiles>
CNC(C)C(=O)NC(C(=O)N1Cc2cc([101O:1][101CH2:1]CCOc3cc(C4CC4)cc([100NH:0][100C:0](=O)N4CCCC(n5nc(-c6ccc(Oc7ccc(F)cc7F)cc6)c(C(N)=O)c5N)C4)n3)ccc2CC1C(=O)NC1CCCc2ccccc21)C(C)(C)C

> <Shape>
0.250

> <Color>
0.110

> <Negative vol penalty>
0.000

$$$$

  -OEChem-04052321213D

 86 94  0     1  0  0  0  0  0999 V2000
  -22.9235  -30.8069   27.6964 C   0  0  0  0  0  0  0  0  0  0  0  0
  -23.5093  -29.6724   28.2488 C   0  0  0  0  0  0  0  0  0  0  0  0
  -23.0739   -9.8626   19.9520 C   0  0  0  0  0  0  0  0  0  0  0  0
  -23.8309   -9.8878   22.2462 C   0  0  0  0  0  0  0  0  0  0  0  0
  -22.4036  -30.7623   26.4035 C   0  0  0  0  0  0  0  0  0  0  0  0
  -23.5745  -28.4922   27.5089 C   0  0  0  0  0  0  0  0  0  0  0  0
  -28.0576  -24.3215   27.6184 C   0  0  0  0  0  0  0  0  0  0  0  0
  -22.3299   -8.7113   20.2102 C   0  0  0  0  0  0  0  0  0  0  0  0
  -23.0869   -8.7366   22.5044 C   0  0  0  0  0  0  0  0  0  0  0  0
  -28.1879  -23.1016   28.2808 C   0  0  0  0  0  0  0  0  0  0  0  0
  -20.5165   -5.5595   20.1745 C   0  0  0  0  0  0  0  0  0  0  0  0
  -20.5811   -4.5217   19.2448 C   0  0  0  0  0  0  0  0  0  0  0  0
  -27.4152  -21.9531   26.3052 C   0  0  0  0  0  0  0  0  0  0  0  0
  -28.7009  -18.1726   24.7417 C   0  0  0  0  0  0  0  0  0  0  0  0
  -22.9655   -4.3548   19.5969 C   0  0  0  0  0  0  0  0  0  0  0  0
  -23.8244  -10.4508   20.9700 C   0  0  0  0  0  0  0  0  0  0  0  0
  -24.1659  -12.9750   20.8305 C   0  0  0  0  0  0  0  0  0  0  0  0
  -22.4711  -29.5838   25.6438 C   0  0  0  0  0  0  0  0  0  0  0  0
  -27.5940  -24.3672   26.2958 C   0  0  0  0  0  0  0  0  0  0  0  0
  -23.0538  -28.4315   26.2051 C   0  0  0  0  0  0  0  0  0  0  0  0
  -27.2823  -23.1746   25.6274 C   0  0  0  0  0  0  0  0  0  0  0  0
  -29.0683  -17.7446   23.4708 C   0  0  0  0  0  0  0  0  0  0  0  0
  -30.3826  -17.3634   23.2246 C   0  0  0  0  0  0  0  0  0  0  0  0
  -22.3364   -8.1483   21.4863 C   0  0  0  0  0  0  0  0  0  0  0  0
  -27.8639  -21.9174   27.6252 C   0  0  0  0  0  0  0  0  0  0  0  0
  -21.6764   -5.9951   20.8153 C   0  0  0  0  0  0  0  0  0  0  0  0
  -21.8056   -3.9193   18.9560 C   0  0  0  0  0  0  0  0  0  0  0  0
  -22.9009   -5.3927   20.5265 C   0  0  0  0  0  0  0  0  0  0  0  0
  -24.5936  -11.6398   20.7039 C   0  0  0  0  0  0  0  0  0  0  0  0
  -31.2842  -17.4279   24.2747 C   0  0  0  0  0  0  0  0  0  0  0  0
  -29.6777  -18.2007   25.7240 C   0  0  0  0  0  0  0  0  0  0  0  0
  -25.2583  -13.7218   20.4627 C   0  0  0  0  0  0  0  0  0  0  0  0
  -22.8948  -13.4939   21.2437 C   0  0  0  0  0  0  0  0  0  0  0  0
  -25.0751  -25.6534   24.8451 C   0  0  0  0  0  0  0  0  0  0  0  0
  -26.5928  -24.6411   22.1629 C   0  0  0  0  0  0  0  0  0  0  0  0
  -28.8229  -22.4896   20.7330 C   0  0  0  0  0  0  0  0  0  0  0  0
  -30.7416  -14.7435   20.6498 C   0  0  0  0  0  0  0  0  0  0  0  0
  -21.8532  -29.5705   24.2681 C   0  0  0  0  0  0  0  0  0  0  0  0
  -27.4844  -25.6890   25.5864 C   0  0  0  0  0  0  0  0  0  0  0  0
  -26.7996  -23.1680   24.2007 C   0  0  0  0  0  0  0  0  0  0  0  0
  -22.2979  -28.3875   23.4120 C   0  0  0  0  0  0  0  0  0  0  0  0
  -29.6075  -12.3399   18.2805 C   0  0  0  0  0  0  0  0  0  0  0  0
  -22.2264  -27.0917   24.2136 C   0  0  0  0  0  0  0  0  0  0  0  0
  -28.1696  -12.0494   18.7140 C   0  0  0  0  0  0  0  0  0  0  0  0
  -30.5231  -12.5705   19.4808 C   0  0  0  0  0  0  0  0  0  0  0  0
  -28.6195  -13.3121   20.8592 C   0  0  0  0  0  0  0  0  0  0  0  0
  -23.1657  -27.1397   25.4248 C   0  0  1  0  0  0  0  0  0  0  0  0
  -26.5133  -25.6573   24.4103 C   0  0  1  0  0  0  0  0  0  0  0  0
  -27.6468  -13.1280   19.6817 C   0  0  2  0  0  0  0  0  0  0  0  0
  -28.0382  -17.7034   22.3909 C   0  0  0  0  0  0  0  0  0  0  0  0
  -32.7098  -17.0316   24.0697 C   0  0  0  0  0  0  0  0  0  0  0  0
  -30.6032  -17.9738   20.7873 C   0  0  0  0  0  0  0  0  0  0  0  0
  -29.8258  -21.8783   18.5153 C   0  0  0  0  0  0  0  0  0  0  0  0
  -28.3396  -18.2398   29.7707 C   0  0  0  0  0  0  0  0  0  0  0  0
  -24.0103  -23.2107   21.3921 C   0  0  0  0  0  0  0  0  0  0  0  0
  -25.3254  -21.8814   19.7273 C   0  0  0  0  0  0  0  0  0  0  0  0
  -25.1710  -24.3606   19.4987 C   0  0  0  0  0  0  0  0  0  0  0  0
  -31.5557  -23.1535   21.6550 C   0  0  0  0  0  0  0  0  0  0  0  0
  -30.2010  -18.7137   28.1090 C   0  0  0  0  0  0  0  0  0  0  0  0
  -29.0028  -20.6317   29.2701 C   0  0  0  0  0  0  0  0  0  1  0  0
  -30.8055  -16.9038   21.8697 C   0  0  2  0  0  0  0  0  0  0  0  0
  -26.5867  -23.3720   21.3455 C   0  0  1  0  0  0  0  0  0  0  0  0
  -29.9734  -22.7239   19.7707 C   0  0  2  0  0  0  0  0  0  0  0  0
  -29.4866  -19.1807   29.3850 C   0  0  1  0  0  0  0  0  0  0  0  0
  -25.2806  -23.2061   20.5184 C   0  0  0  0  0  0  0  0  0  0  0  0
  -25.8590  -11.5409   20.2879 N   0  0  0  0  0  0  0  0  0  0  0  0
  -30.9644  -17.8382   25.5225 N   0  0  0  0  0  0  0  0  0  0  0  0
  -26.2358  -12.8235   20.1499 N   0  0  0  0  0  0  0  0  0  0  0  0
  -26.7031  -24.4861   23.5521 N   0  0  0  0  0  0  0  0  0  0  0  0
  -29.9712  -13.6058   20.3579 N   0  0  0  0  0  0  0  0  0  0  0  0
  -25.4686  -15.0527   20.3794 N   0  0  0  0  0  0  0  0  0  0  0  0
  -21.8826  -12.5872   21.5869 N   0  0  0  0  0  0  0  0  0  0  0  0
  -29.2979  -18.6300   26.9854 N   0  0  0  0  0  0  0  0  0  0  0  0
  -24.5344  -26.9140   25.0122 N   0  0  0  0  0  0  0  0  0  0  0  0
  -27.8037  -23.3984   20.5414 N   0  0  0  0  0  0  0  0  0  0  0  0
  -30.1413  -15.6788   21.4837 N   0  0  0  0  0  0  0  0  0  0  0  0
  -31.2699  -22.3792   20.4197 N   0  3  0  0  0  0  0  0  0  0  0  0
  -22.6582  -14.7249   21.2910 O   0  0  0  0  0  0  0  0  0  0  0  0
  -24.4981  -24.5857   25.0149 O   0  0  0  0  0  0  0  0  0  0  0  0
  -26.5103  -25.7302   21.5896 O   0  0  0  0  0  0  0  0  0  0  0  0
  -28.8263  -21.5881   21.5683 O   0  0  0  0  0  0  0  0  0  0  0  0
  -31.8781  -14.9156   20.1962 O   0  0  0  0  0  0  0  0  0  0  0  0
  -21.6104   -7.0250   21.7387 O   0  0  0  0  0  0  0  0  0  0  0  0
  -27.9896  -20.7255   28.2696 O   0  0  0  0  0  0  0  0  0  1  0  0
  -21.8673   -2.9217   18.0643 F   0  0  0  0  0  0  0  0  0  0  0  0
  -24.0183   -5.8060   21.1399 F   0  0  0  0  0  0  0  0  0  0  0  0
  1  2  1  0  0  0  0
  1  5  2  0  0  0  0
  2  6  2  0  0  0  0
  3  8  2  0  0  0  0
  3 16  1  0  0  0  0
  4  9  1  0  0  0  0
  4 16  2  0  0  0  0
  5 18  1  0  0  0  0
  6 20  1  0  0  0  0
  7 10  2  0  0  0  0
  7 19  1  0  0  0  0
  8 24  1  0  0  0  0
  9 24  2  0  0  0  0
 10 25  1  0  0  0  0
 11 12  2  0  0  0  0
 11 26  1  0  0  0  0
 12 27  1  0  0  0  0
 13 21  1  0  0  0  0
 13 25  2  0  0  0  0
 14 22  2  0  0  0  0
 14 31  1  0  0  0  0
 15 27  2  0  0  0  0
 15 28  1  0  0  0  0
 16 29  1  0  0  0  0
 17 29  1  0  0  0  0
 17 32  2  0  0  0  0
 17 33  1  0  0  0  0
 18 20  2  0  0  0  0
 18 38  1  0  0  0  0
 19 21  2  0  0  0  0
 19 39  1  0  0  0  0
 20 47  1  0  0  0  0
 21 40  1  0  0  0  0
 22 23  1  0  0  0  0
 22 50  1  0  0  0  0
 23 30  2  0  0  0  0
 23 61  1  0  0  0  0
 24 83  1  0  0  0  0
 25 84  1  0  0  0  0
 26 28  2  0  0  0  0
 26 83  1  0  0  0  0
 27 85  1  0  0  0  0
 28 86  1  0  0  0  0
 29 66  2  0  0  0  0
 30 51  1  0  0  0  0
 30 67  1  0  0  0  0
 31 67  2  0  0  0  0
 31 73  1  0  0  0  0
 32 68  1  0  0  0  0
 32 71  1  0  0  0  0
 33 72  1  0  0  0  0
 33 78  2  0  0  0  0
 34 48  1  0  0  0  0
 34 74  1  0  0  0  0
 34 79  2  0  0  0  0
 35 62  1  0  0  0  0
 35 69  1  0  0  0  0
 35 80  2  0  0  0  0
 36 63  1  0  0  0  0
 36 75  1  0  0  0  0
 36 81  2  0  0  0  0
 37 70  1  0  0  0  0
 37 76  1  0  0  0  0
 37 82  2  0  0  0  0
 38 41  1  0  0  0  0
 39 48  1  0  0  0  0
 40 69  1  0  0  0  0
 41 43  1  0  0  0  0
 42 44  1  0  0  0  0
 42 45  1  0  0  0  0
 43 47  1  0  0  0  0
 44 49  1  0  0  0  0
 45 70  1  0  0  0  0
 46 49  1  0  0  0  0
 46 70  1  0  0  0  0
 47 74  1  0  0  0  0
 48 69  1  0  0  0  0
 49 68  1  0  0  0  0
 52 61  1  0  0  0  0
 53 63  1  0  0  0  0
 54 64  1  0  0  0  0
 55 65  1  0  0  0  0
 56 65  1  0  0  0  0
 57 65  1  0  0  0  0
 58 77  1  0  0  0  0
 59 64  1  0  0  0  0
 59 73  1  0  0  0  0
 60 64  1  0  0  0  0
 60 84  1  0  0  0  0
 61 76  1  0  0  0  0
 62 65  1  0  0  0  0
 62 75  1  0  0  0  0
 63 77  1  0  0  0  0
 66 68  1  0  0  0  0
M  CHG  1  77   1
M  ISO  4  37 100  60 101  76 100  84 101
M  END
> <Batch ID>
0143

> <Smiles>
CNC(C)C(=O)NC(C(=O)N1Cc2cc([101O:1][101CH2:1]C(C)CNc3cc(C)c(C(C)[100NH:0][100C:0](=O)N4CCCC(n5nc(-c6ccc(Oc7ccc(F)cc7F)cc6)c(C(N)=O)c5N)C4)c(C)n3)ccc2CC1C(=O)NC1CCCc2ccccc21)C(C)(C)C

> <Shape>
0.201

> <Color>
0.188

> <Negative vol penalty>
0.000

$$$$

  -OEChem-04052321213D

 85 94  0     1  0  0  0  0  0999 V2000
  -23.3263  -27.3036   24.7228 C   0  0  0  0  0  0  0  0  0  0  0  0
  -22.8708  -26.3995   23.7686 C   0  0  0  0  0  0  0  0  0  0  0  0
  -24.8531  -11.6813   21.5474 C   0  0  0  0  0  0  0  0  0  0  0  0
  -26.5150  -25.7809   17.6213 C   0  0  0  0  0  0  0  0  0  0  0  0
  -26.4518  -25.4326   20.0112 C   0  0  0  0  0  0  0  0  0  0  0  0
  -24.5232  -27.0614   25.3956 C   0  0  0  0  0  0  0  0  0  0  0  0
  -23.6126  -25.2531   23.4859 C   0  0  0  0  0  0  0  0  0  0  0  0
  -22.7871  -18.4065   21.5468 C   0  0  0  0  0  0  0  0  0  0  0  0
  -25.5940  -26.8207   17.7485 C   0  0  0  0  0  0  0  0  0  0  0  0
  -25.5309  -26.4724   20.1384 C   0  0  0  0  0  0  0  0  0  0  0  0
  -23.2330  -17.4972   20.5886 C   0  0  0  0  0  0  0  0  0  0  0  0
  -25.5816  -29.8512   20.1817 C   0  0  0  0  0  0  0  0  0  0  0  0
  -25.7883  -30.7764   21.2048 C   0  0  0  0  0  0  0  0  0  0  0  0
  -26.2080  -12.0017   21.2852 C   0  0  0  0  0  0  0  0  0  0  0  0
  -25.2458  -17.1430   21.8701 C   0  0  0  0  0  0  0  0  0  0  0  0
  -23.6455  -30.1991   22.1598 C   0  0  0  0  0  0  0  0  0  0  0  0
  -24.0860  -12.3419   20.6133 C   0  0  0  0  0  0  0  0  0  0  0  0
  -26.9439  -25.0868   18.7527 C   0  0  0  0  0  0  0  0  0  0  0  0
  -29.2984  -24.1082   18.6731 C   0  0  0  0  0  0  0  0  0  0  0  0
  -25.2752  -25.9066   25.1279 C   0  0  0  0  0  0  0  0  0  0  0  0
  -23.5735  -18.6996   22.6703 C   0  0  0  0  0  0  0  0  0  0  0  0
  -24.8214  -24.9959   24.1548 C   0  0  0  0  0  0  0  0  0  0  0  0
  -24.8065  -18.0544   22.8424 C   0  0  0  0  0  0  0  0  0  0  0  0
  -25.1019  -27.1665   19.0070 C   0  0  0  0  0  0  0  0  0  0  0  0
  -24.4638  -16.8675   20.7487 C   0  0  0  0  0  0  0  0  0  0  0  0
  -24.4068  -29.1000   20.1475 C   0  0  0  0  0  0  0  0  0  0  0  0
  -24.8203  -30.9504   22.1939 C   0  0  0  0  0  0  0  0  0  0  0  0
  -23.4387  -29.2739   21.1366 C   0  0  0  0  0  0  0  0  0  0  0  0
  -27.8948  -24.0123   18.6219 C   0  0  0  0  0  0  0  0  0  0  0  0
  -26.2276  -12.8485   20.1990 C   0  0  0  0  0  0  0  0  0  0  0  0
  -29.7373  -22.8187   18.4976 C   0  0  0  0  0  0  0  0  0  0  0  0
  -30.1309  -25.2601   18.8625 C   0  0  0  0  0  0  0  0  0  0  0  0
  -24.9637  -21.3194   23.8137 C   0  0  0  0  0  0  0  0  0  0  0  0
  -25.6512  -19.3868   26.3266 C   0  0  0  0  0  0  0  0  0  0  0  0
  -26.1212  -16.2168   27.5000 C   0  0  0  0  0  0  0  0  0  0  0  0
  -29.4543  -17.4906   19.7135 C   0  0  0  0  0  0  0  0  0  0  0  0
  -26.5867  -25.7115   25.8467 C   0  0  0  0  0  0  0  0  0  0  0  0
  -23.0663  -19.6627   23.7083 C   0  0  0  0  0  0  0  0  0  0  0  0
  -25.6795  -18.3190   24.0410 C   0  0  0  0  0  0  0  0  0  0  0  0
  -27.1239  -24.2854   25.7575 C   0  0  0  0  0  0  0  0  0  0  0  0
  -32.3220  -14.0052   19.3967 C   0  0  0  0  0  0  0  0  0  0  0  0
  -27.2377  -18.6493   17.0979 C   0  0  0  0  0  0  0  0  0  0  0  0
  -27.0393  -23.7718   24.3237 C   0  0  0  0  0  0  0  0  0  0  0  0
  -31.2170  -12.9802   19.6605 C   0  0  0  0  0  0  0  0  0  0  0  0
  -27.3308  -20.1665   17.2702 C   0  0  0  0  0  0  0  0  0  0  0  0
  -31.6342  -15.3676   19.2994 C   0  0  0  0  0  0  0  0  0  0  0  0
  -27.2658  -17.9369   18.4469 C   0  0  0  0  0  0  0  0  0  0  0  0
  -28.5425  -19.7819   19.4665 C   0  0  0  0  0  0  0  0  0  0  0  0
  -25.5854  -23.7285   23.8380 C   0  0  1  0  0  0  0  0  0  0  0  0
  -24.1808  -20.2719   24.5535 C   0  0  1  0  0  0  0  0  0  0  0  0
  -29.9043  -13.7264   19.4143 C   0  0  2  0  0  0  0  0  0  0  0  0
  -28.5418  -20.5586   18.1373 C   0  0  2  0  0  0  0  0  0  0  0  0
  -30.2423  -15.1436   19.8797 C   0  0  2  0  0  0  0  0  0  0  0  0
  -26.7101  -14.9564   29.5885 C   0  0  0  0  0  0  0  0  0  0  0  0
  -28.5743  -20.1922   25.9855 C   0  0  0  0  0  0  0  0  0  0  0  0
  -29.2075  -18.2370   27.4154 C   0  0  0  0  0  0  0  0  0  0  0  0
  -27.7974  -20.0655   28.3592 C   0  0  0  0  0  0  0  0  0  0  0  0
  -23.5354  -14.7771   27.4992 C   0  0  0  0  0  0  0  0  0  0  0  0
  -27.3720  -13.4815   19.5117 C   0  0  0  0  0  0  0  0  0  0  0  0
  -28.7255  -13.1043   20.1459 C   0  0  0  0  0  0  0  0  0  0  0  0
  -24.4863  -13.9098   18.6425 C   0  0  0  0  0  0  0  0  0  0  0  0
  -23.9082  -15.2439   19.1021 C   0  0  0  0  0  0  0  0  0  1  0  0
  -26.7897  -18.4622   26.6841 C   0  0  1  0  0  0  0  0  0  0  0  0
  -25.5828  -15.5076   28.7294 C   0  0  2  0  0  0  0  0  0  0  0  0
  -28.0769  -19.2355   27.0874 C   0  0  0  0  0  0  0  0  0  0  0  0
  -27.4703  -22.7607   18.4287 N   0  0  0  0  0  0  0  0  0  0  0  0
  -24.9322  -13.0485   19.7990 N   0  0  0  0  0  0  0  0  0  0  0  0
  -28.6138  -22.0583   18.3570 N   0  0  0  0  0  0  0  0  0  0  0  0
  -25.1426  -19.2735   25.0250 N   0  0  0  0  0  0  0  0  0  0  0  0
  -28.4525  -18.3398   19.2148 N   0  0  0  0  0  0  0  0  0  0  0  0
  -30.9709  -22.2723   18.4513 N   0  0  0  0  0  0  0  0  0  0  0  0
  -29.5163  -26.5088   19.0275 N   0  0  0  0  0  0  0  0  0  0  0  0
  -24.9035  -22.5757   24.3862 N   0  0  0  0  0  0  0  0  0  0  0  0
  -26.2805  -17.5688   27.7190 N   0  0  0  0  0  0  0  0  0  0  0  0
  -29.2908  -16.1386   19.4376 N   0  0  0  0  0  0  0  0  0  0  0  0
  -24.7001  -14.3754   28.3294 N   0  3  0  0  0  0  0  0  0  0  0  0
  -31.3831  -25.1865   18.8684 O   0  0  0  0  0  0  0  0  0  0  0  0
  -25.5782  -21.0105   22.7995 O   0  0  0  0  0  0  0  0  0  0  0  0
  -25.2239  -20.1755   27.1735 O   0  0  0  0  0  0  0  0  0  0  0  0
  -26.3785  -15.6295   26.4514 O   0  0  0  0  0  0  0  0  0  0  0  0
  -30.4261  -17.9071   20.3532 O   0  0  0  0  0  0  0  0  0  0  0  0
  -24.2034  -28.1812   19.1316 O   0  0  0  0  0  0  0  0  0  0  0  0
  -24.9016  -15.9800   19.8146 O   0  0  0  0  0  0  0  0  0  1  0  0
  -25.0196  -31.8378   23.1772 F   0  0  0  0  0  0  0  0  0  0  0  0
  -22.3086  -28.5542   21.1098 F   0  0  0  0  0  0  0  0  0  0  0  0
  1  2  1  0  0  0  0
  1  6  2  0  0  0  0
  2  7  2  0  0  0  0
  3 14  1  0  0  0  0
  3 17  2  0  0  0  0
  4  9  2  0  0  0  0
  4 18  1  0  0  0  0
  5 10  1  0  0  0  0
  5 18  2  0  0  0  0
  6 20  1  0  0  0  0
  7 22  1  0  0  0  0
  8 11  2  0  0  0  0
  8 21  1  0  0  0  0
  9 24  1  0  0  0  0
 10 24  2  0  0  0  0
 11 25  1  0  0  0  0
 12 13  2  0  0  0  0
 12 26  1  0  0  0  0
 13 27  1  0  0  0  0
 14 30  2  0  0  0  0
 15 23  1  0  0  0  0
 15 25  2  0  0  0  0
 16 27  2  0  0  0  0
 16 28  1  0  0  0  0
 17 67  1  0  0  0  0
 18 29  1  0  0  0  0
 19 29  1  0  0  0  0
 19 31  2  0  0  0  0
 19 32  1  0  0  0  0
 20 22  2  0  0  0  0
 20 37  1  0  0  0  0
 21 23  2  0  0  0  0
 21 38  1  0  0  0  0
 22 49  1  0  0  0  0
 23 39  1  0  0  0  0
 24 82  1  0  0  0  0
 25 83  1  0  0  0  0
 26 28  2  0  0  0  0
 26 82  1  0  0  0  0
 27 84  1  0  0  0  0
 28 85  1  0  0  0  0
 29 66  2  0  0  0  0
 30 59  1  0  0  0  0
 30 67  1  0  0  0  0
 31 68  1  0  0  0  0
 31 71  1  0  0  0  0
 32 72  1  0  0  0  0
 32 77  2  0  0  0  0
 33 50  1  0  0  0  0
 33 73  1  0  0  0  0
 33 78  2  0  0  0  0
 34 63  1  0  0  0  0
 34 69  1  0  0  0  0
 34 79  2  0  0  0  0
 35 64  1  0  0  0  0
 35 74  1  0  0  0  0
 35 80  2  0  0  0  0
 36 70  1  0  0  0  0
 36 75  1  0  0  0  0
 36 81  2  0  0  0  0
 37 40  1  0  0  0  0
 38 50  1  0  0  0  0
 39 69  1  0  0  0  0
 40 43  1  0  0  0  0
 41 44  1  0  0  0  0
 41 46  1  0  0  0  0
 42 45  1  0  0  0  0
 42 47  1  0  0  0  0
 43 49  1  0  0  0  0
 44 51  1  0  0  0  0
 45 52  1  0  0  0  0
 46 53  1  0  0  0  0
 47 70  1  0  0  0  0
 48 52  1  0  0  0  0
 48 70  1  0  0  0  0
 49 73  1  0  0  0  0
 50 69  1  0  0  0  0
 51 53  1  0  0  0  0
 51 60  1  0  0  0  0
 52 68  1  0  0  0  0
 53 75  1  0  0  0  0
 54 64  1  0  0  0  0
 55 65  1  0  0  0  0
 56 65  1  0  0  0  0
 57 65  1  0  0  0  0
 58 76  1  0  0  0  0
 59 60  1  0  0  0  0
 61 62  1  0  0  0  0
 61 67  1  0  0  0  0
 62 83  1  0  0  0  0
 63 65  1  0  0  0  0
 63 74  1  0  0  0  0
 64 76  1  0  0  0  0
 66 68  1  0  0  0  0
M  CHG  1  76   1
M  ISO  4  36 100  62 101  75 100  83 101
M  END
> <Batch ID>
0143

> <Smiles>
CNC(C)C(=O)NC(C(=O)N1Cc2cc([101O:1][101CH2:1]Cn3cccc3CCC3CCCC3[100NH:0][100C:0](=O)N3CCCC(n4nc(-c5ccc(Oc6ccc(F)cc6F)cc5)c(C(N)=O)c4N)C3)ccc2CC1C(=O)NC1CCCc2ccccc21)C(C)(C)C

> <Shape>
0.201

> <Color>
0.069

> <Negative vol penalty>
0.000

$$$$

  -OEChem-04052321213D

 87 96  0     1  0  0  0  0  0999 V2000
  -20.1694  -20.6793   23.9036 C   0  0  0  0  0  0  0  0  0  0  0  0
  -21.5597  -20.6292   23.9127 C   0  0  0  0  0  0  0  0  0  0  0  0
  -23.1535   -9.7669   21.4809 C   0  0  0  0  0  0  0  0  0  0  0  0
  -23.7854  -10.7798   23.5813 C   0  0  0  0  0  0  0  0  0  0  0  0
  -19.5145  -21.7086   23.2286 C   0  0  0  0  0  0  0  0  0  0  0  0
  -22.2959  -21.6078   23.2457 C   0  0  0  0  0  0  0  0  0  0  0  0
  -27.7048  -23.9333   24.9314 C   0  0  0  0  0  0  0  0  0  0  0  0
  -22.4693   -8.7654   22.1697 C   0  0  0  0  0  0  0  0  0  0  0  0
  -23.1012   -9.7784   24.2701 C   0  0  0  0  0  0  0  0  0  0  0  0
  -29.0110  -23.6562   24.5303 C   0  0  0  0  0  0  0  0  0  0  0  0
  -23.2274   -5.9193   23.8279 C   0  0  0  0  0  0  0  0  0  0  0  0
  -23.4083   -4.6028   23.4043 C   0  0  0  0  0  0  0  0  0  0  0  0
  -28.9140  -25.4914   22.9677 C   0  0  0  0  0  0  0  0  0  0  0  0
  -29.1753  -18.5554   20.9083 C   0  0  0  0  0  0  0  0  0  0  0  0
  -21.0408   -4.4209   22.9581 C   0  0  0  0  0  0  0  0  0  0  0  0
  -23.8116  -10.7741   22.1867 C   0  0  0  0  0  0  0  0  0  0  0  0
  -30.8031  -20.2152   20.2919 C   0  0  0  0  0  0  0  0  0  0  0  0
  -24.0039  -13.0426   21.0358 C   0  0  0  0  0  0  0  0  0  0  0  0
  -20.2432  -22.7057   22.5611 C   0  0  0  0  0  0  0  0  0  0  0  0
  -26.9884  -24.9865   24.3449 C   0  0  0  0  0  0  0  0  0  0  0  0
  -21.6501  -22.6506   22.5600 C   0  0  0  0  0  0  0  0  0  0  0  0
  -27.5998  -25.7814   23.3650 C   0  0  0  0  0  0  0  0  0  0  0  0
  -29.5493  -19.8900   20.7974 C   0  0  0  0  0  0  0  0  0  0  0  0
  -22.4431   -8.7712   23.5643 C   0  0  0  0  0  0  0  0  0  0  0  0
  -29.6148  -24.4335   23.5462 C   0  0  0  0  0  0  0  0  0  0  0  0
  -21.9532   -6.4867   23.8167 C   0  0  0  0  0  0  0  0  0  0  0  0
  -22.3151   -3.8536   22.9694 C   0  0  0  0  0  0  0  0  0  0  0  0
  -20.8599   -5.7375   23.3818 C   0  0  0  0  0  0  0  0  0  0  0  0
  -24.5191  -11.8085   21.4757 C   0  0  0  0  0  0  0  0  0  0  0  0
  -31.6393  -19.1770   19.9142 C   0  0  0  0  0  0  0  0  0  0  0  0
  -30.0843  -17.5915   20.5028 C   0  0  0  0  0  0  0  0  0  0  0  0
  -25.0662  -13.6583   20.4202 C   0  0  0  0  0  0  0  0  0  0  0  0
  -31.2297  -21.6323   20.1617 C   0  0  0  0  0  0  0  0  0  0  0  0
  -22.6833  -13.5840   21.1716 C   0  0  0  0  0  0  0  0  0  0  0  0
  -24.3201  -25.2038   22.6313 C   0  0  0  0  0  0  0  0  0  0  0  0
  -24.8328  -28.3902   22.9573 C   0  0  0  0  0  0  0  0  0  0  0  0
  -27.0478  -30.9265   23.5122 C   0  0  0  0  0  0  0  0  0  0  0  0
  -30.4403  -15.1079   20.2761 C   0  0  0  0  0  0  0  0  0  0  0  0
  -19.4905  -23.7720   21.8055 C   0  0  0  0  0  0  0  0  0  0  0  0
  -25.5896  -25.2892   24.8077 C   0  0  0  0  0  0  0  0  0  0  0  0
  -26.8808  -26.9363   22.7186 C   0  0  0  0  0  0  0  0  0  0  0  0
  -20.3491  -24.9797   21.4387 C   0  0  0  0  0  0  0  0  0  0  0  0
  -29.6068  -11.8523   19.0998 C   0  0  0  0  0  0  0  0  0  0  0  0
  -21.6824  -24.5281   20.8513 C   0  0  0  0  0  0  0  0  0  0  0  0
  -34.9026  -23.1903   21.5426 C   0  0  0  0  0  0  0  0  0  0  0  0
  -34.6451  -24.6579   21.7418 C   0  0  0  0  0  0  0  0  0  0  0  0
  -28.1665  -11.6522   19.5769 C   0  0  0  0  0  0  0  0  0  0  0  0
  -30.4393  -12.6279   20.1192 C   0  0  0  0  0  0  0  0  0  0  0  0
  -28.4191  -13.7061   21.0277 C   0  0  0  0  0  0  0  0  0  0  0  0
  -22.4840  -23.7076   21.8691 C   0  0  1  0  0  0  0  0  0  0  0  0
  -24.7737  -26.0635   23.7771 C   0  0  1  0  0  0  0  0  0  0  0  0
  -33.5898  -23.6527   22.1115 C   0  0  0  0  0  0  0  0  0  0  0  0
  -27.5243  -12.9862   20.0055 C   0  0  2  0  0  0  0  0  0  0  0  0
  -28.5883  -20.9492   21.2281 C   0  0  0  0  0  0  0  0  0  0  0  0
  -32.9994  -19.4609   19.3645 C   0  0  0  0  0  0  0  0  0  0  0  0
  -27.1771  -33.4268   23.6835 C   0  0  0  0  0  0  0  0  0  0  0  0
  -24.6332  -28.6062   19.9203 C   0  0  0  0  0  0  0  0  0  0  0  0
  -25.6912  -30.8696   20.0814 C   0  0  0  0  0  0  0  0  0  0  0  0
  -23.4896  -30.4432   21.1741 C   0  0  0  0  0  0  0  0  0  0  0  0
  -28.0011  -30.8015   26.3112 C   0  0  0  0  0  0  0  0  0  0  0  0
  -31.2319  -24.4783   21.8030 C   0  0  0  0  0  0  0  0  0  1  0  0
  -25.5839  -29.4381   22.1720 C   0  0  1  0  0  0  0  0  0  0  0  0
  -26.9961  -32.1229   24.4451 C   0  0  2  0  0  0  0  0  0  0  0  0
  -32.3311  -23.5434   21.2976 C   0  0  2  0  0  0  0  0  0  0  0  0
  -24.8627  -29.8164   20.8475 C   0  0  0  0  0  0  0  0  0  0  0  0
  -25.8084  -11.6481   21.1658 N   0  0  0  0  0  0  0  0  0  0  0  0
  -31.3110  -17.8688   20.0070 N   0  0  0  0  0  0  0  0  0  0  0  0
  -26.1123  -12.7893   20.5245 N   0  0  0  0  0  0  0  0  0  0  0  0
  -25.5127  -27.1884   23.2005 N   0  0  0  0  0  0  0  0  0  0  0  0
  -29.7712  -13.8817   20.4748 N   0  0  0  0  0  0  0  0  0  0  0  0
  -25.1982  -14.8528   19.8053 N   0  0  0  0  0  0  0  0  0  0  0  0
  -21.7122  -12.8189   21.8318 N   0  0  0  0  0  0  0  0  0  0  0  0
  -29.6938  -16.2345   20.6199 N   0  0  0  0  0  0  0  0  0  0  0  0
  -31.8779  -22.1723   21.2616 N   0  0  0  0  0  0  0  0  0  0  0  0
  -23.1060  -24.5788   22.8430 N   0  0  0  0  0  0  0  0  0  0  0  0
  -25.7903  -30.5599   23.0815 N   0  0  0  0  0  0  0  0  0  0  0  0
  -28.0713  -32.0256   25.4724 N   0  3  0  0  0  0  0  0  0  0  0  0
  -30.9766  -22.2424   19.1262 O   0  0  0  0  0  0  0  0  0  0  0  0
  -22.3692  -14.7057   20.7063 O   0  0  0  0  0  0  0  0  0  0  0  0
  -25.0191  -25.1154   21.6286 O   0  0  0  0  0  0  0  0  0  0  0  0
  -23.6876  -28.6320   23.3469 O   0  0  0  0  0  0  0  0  0  0  0  0
  -28.0990  -30.3747   23.1942 O   0  0  0  0  0  0  0  0  0  0  0  0
  -31.5807  -15.1565   19.8080 O   0  0  0  0  0  0  0  0  0  0  0  0
  -21.7753   -7.7942   24.2368 O   0  0  0  0  0  0  0  0  0  0  0  0
  -30.8893  -24.1648   23.1524 O   0  0  0  0  0  0  0  0  0  1  0  0
  -22.4892   -2.5898   22.5611 F   0  0  0  0  0  0  0  0  0  0  0  0
  -19.6335   -6.2776   23.3676 F   0  0  0  0  0  0  0  0  0  0  0  0
  1  2  1  0  0  0  0
  1  5  2  0  0  0  0
  2  6  2  0  0  0  0
  3  8  2  0  0  0  0
  3 16  1  0  0  0  0
  4  9  1  0  0  0  0
  4 16  2  0  0  0  0
  5 19  1  0  0  0  0
  6 21  1  0  0  0  0
  7 10  2  0  0  0  0
  7 20  1  0  0  0  0
  8 24  1  0  0  0  0
  9 24  2  0  0  0  0
 10 25  1  0  0  0  0
 11 12  2  0  0  0  0
 11 26  1  0  0  0  0
 12 27  1  0  0  0  0
 13 22  1  0  0  0  0
 13 25  2  0  0  0  0
 14 23  2  0  0  0  0
 14 31  1  0  0  0  0
 15 27  2  0  0  0  0
 15 28  1  0  0  0  0
 16 29  1  0  0  0  0
 17 23  1  0  0  0  0
 17 30  2  0  0  0  0
 17 33  1  0  0  0  0
 18 29  1  0  0  0  0
 18 32  2  0  0  0  0
 18 34  1  0  0  0  0
 19 21  2  0  0  0  0
 19 39  1  0  0  0  0
 20 22  2  0  0  0  0
 20 40  1  0  0  0  0
 21 50  1  0  0  0  0
 22 41  1  0  0  0  0
 23 54  1  0  0  0  0
 24 84  1  0  0  0  0
 25 85  1  0  0  0  0
 26 28  2  0  0  0  0
 26 84  1  0  0  0  0
 27 86  1  0  0  0  0
 28 87  1  0  0  0  0
 29 66  2  0  0  0  0
 30 55  1  0  0  0  0
 30 67  1  0  0  0  0
 31 67  2  0  0  0  0
 31 73  1  0  0  0  0
 32 68  1  0  0  0  0
 32 71  1  0  0  0  0
 33 74  1  0  0  0  0
 33 78  2  0  0  0  0
 34 72  1  0  0  0  0
 34 79  2  0  0  0  0
 35 51  1  0  0  0  0
 35 75  1  0  0  0  0
 35 80  2  0  0  0  0
 36 62  1  0  0  0  0
 36 69  1  0  0  0  0
 36 81  2  0  0  0  0
 37 63  1  0  0  0  0
 37 76  1  0  0  0  0
 37 82  2  0  0  0  0
 38 70  1  0  0  0  0
 38 73  1  0  0  0  0
 38 83  2  0  0  0  0
 39 42  1  0  0  0  0
 40 51  1  0  0  0  0
 41 69  1  0  0  0  0
 42 44  1  0  0  0  0
 43 47  1  0  0  0  0
 43 48  1  0  0  0  0
 44 50  1  0  0  0  0
 45 46  1  0  0  0  0
 45 52  1  0  0  0  0
 46 52  1  0  0  0  0
 47 53  1  0  0  0  0
 48 70  1  0  0  0  0
 49 53  1  0  0  0  0
 49 70  1  0  0  0  0
 50 75  1  0  0  0  0
 51 69  1  0  0  0  0
 52 64  1  0  0  0  0
 53 68  1  0  0  0  0
 56 63  1  0  0  0  0
 57 65  1  0  0  0  0
 58 65  1  0  0  0  0
 59 65  1  0  0  0  0
 60 77  1  0  0  0  0
 61 64  1  0  0  0  0
 61 85  1  0  0  0  0
 62 65  1  0  0  0  0
 62 76  1  0  0  0  0
 63 77  1  0  0  0  0
 64 74  1  0  0  0  0
 66 68  1  0  0  0  0
M  CHG  1  77   1
M  ISO  4  38 100  61 101  73 100  85 101
M  END
> <Batch ID>
0143

> <Smiles>
CNC(C)C(=O)NC(C(=O)N1Cc2cc([101O:1][101CH2:1]C(NC(=O)c3c(C)cc([100NH:0][100C:0](=O)N4CCCC(n5nc(-c6ccc(Oc7ccc(F)cc7F)cc6)c(C(N)=O)c5N)C4)nc3C)C3CC3)ccc2CC1C(=O)NC1CCCc2ccccc21)C(C)(C)C

> <Shape>
0.256

> <Color>
0.169

> <Negative vol penalty>
0.000

$$$$

  -OEChem-04052321213D

 87 96  0     1  0  0  0  0  0999 V2000
  -22.4549  -17.5692   18.6489 C   0  0  0  0  0  0  0  0  0  0  0  0
  -23.2583  -18.3383   19.4847 C   0  0  0  0  0  0  0  0  0  0  0  0
  -23.0725   -9.8577   19.9588 C   0  0  0  0  0  0  0  0  0  0  0  0
  -23.8285   -9.8919   22.2532 C   0  0  0  0  0  0  0  0  0  0  0  0
  -21.3009  -18.1199   18.0930 C   0  0  0  0  0  0  0  0  0  0  0  0
  -22.9087  -19.6590   19.7641 C   0  0  0  0  0  0  0  0  0  0  0  0
  -23.3770  -20.7946   24.6770 C   0  0  0  0  0  0  0  0  0  0  0  0
  -22.3261   -8.7091   20.2218 C   0  0  0  0  0  0  0  0  0  0  0  0
  -23.0820   -8.7434   22.5163 C   0  0  0  0  0  0  0  0  0  0  0  0
  -24.6637  -21.0419   25.1535 C   0  0  0  0  0  0  0  0  0  0  0  0
  -19.8513   -7.9592   23.1231 C   0  0  0  0  0  0  0  0  0  0  0  0
  -19.0923   -7.9353   24.2931 C   0  0  0  0  0  0  0  0  0  0  0  0
  -30.1182  -20.4370   24.0561 C   0  0  0  0  0  0  0  0  0  0  0  0
  -24.2490  -23.4148   25.0243 C   0  0  0  0  0  0  0  0  0  0  0  0
  -28.6343  -22.5936   23.0920 C   0  0  0  0  0  0  0  0  0  0  0  0
  -20.3287   -6.0049   25.0559 C   0  0  0  0  0  0  0  0  0  0  0  0
  -23.8238  -10.4491   20.9745 C   0  0  0  0  0  0  0  0  0  0  0  0
  -24.1706  -12.9719   20.8235 C   0  0  0  0  0  0  0  0  0  0  0  0
  -20.9319  -19.4450   18.3735 C   0  0  0  0  0  0  0  0  0  0  0  0
  -22.5190  -21.8574   24.3597 C   0  0  0  0  0  0  0  0  0  0  0  0
  -21.7495  -20.2283   19.2104 C   0  0  0  0  0  0  0  0  0  0  0  0
  -29.7908  -20.5086   22.7021 C   0  0  0  0  0  0  0  0  0  0  0  0
  -22.9510  -23.1782   24.5464 C   0  0  0  0  0  0  0  0  0  0  0  0
  -29.7036  -21.4437   24.9281 C   0  0  0  0  0  0  0  0  0  0  0  0
  -28.9616  -22.5220   24.4460 C   0  0  0  0  0  0  0  0  0  0  0  0
  -22.3308   -8.1520   21.5006 C   0  0  0  0  0  0  0  0  0  0  0  0
  -25.1009  -22.3521   25.3245 C   0  0  0  0  0  0  0  0  0  0  0  0
  -20.8490   -7.0059   22.9194 C   0  0  0  0  0  0  0  0  0  0  0  0
  -29.0489  -21.5869   22.2201 C   0  0  0  0  0  0  0  0  0  0  0  0
  -19.3310   -6.9582   25.2595 C   0  0  0  0  0  0  0  0  0  0  0  0
  -21.0878   -6.0287   23.8858 C   0  0  0  0  0  0  0  0  0  0  0  0
  -24.5956  -11.6352   20.7032 C   0  0  0  0  0  0  0  0  0  0  0  0
  -25.2648  -13.7147   20.4528 C   0  0  0  0  0  0  0  0  0  0  0  0
  -22.9004  -13.4952   21.2337 C   0  0  0  0  0  0  0  0  0  0  0  0
  -21.0851  -22.8681   21.7090 C   0  0  0  0  0  0  0  0  0  0  0  0
  -19.6633  -24.9590   23.7410 C   0  0  0  0  0  0  0  0  0  0  0  0
  -19.7705  -26.6448   26.7063 C   0  0  0  0  0  0  0  0  0  0  0  0
  -30.7501  -14.7258   20.6380 C   0  0  0  0  0  0  0  0  0  0  0  0
  -19.7008  -20.0114   17.7115 C   0  0  0  0  0  0  0  0  0  0  0  0
  -21.1247  -21.5736   23.8721 C   0  0  0  0  0  0  0  0  0  0  0  0
  -22.0615  -24.3543   24.2397 C   0  0  0  0  0  0  0  0  0  0  0  0
  -19.2008  -21.3012   18.3570 C   0  0  0  0  0  0  0  0  0  0  0  0
  -29.6121  -12.3138   18.2792 C   0  0  0  0  0  0  0  0  0  0  0  0
  -20.3606  -22.2628   18.5960 C   0  0  0  0  0  0  0  0  0  0  0  0
  -28.1734  -12.0282   18.7133 C   0  0  0  0  0  0  0  0  0  0  0  0
  -29.2135  -18.7104   20.9363 C   0  0  0  0  0  0  0  0  0  0  0  0
  -30.5276  -12.5479   19.4788 C   0  0  0  0  0  0  0  0  0  0  0  0
  -28.6249  -13.2998   20.8529 C   0  0  0  0  0  0  0  0  0  0  0  0
  -30.2398  -19.4222   21.7827 C   0  0  2  0  0  0  0  0  0  0  0  0
  -21.3905  -21.6570   19.5571 C   0  0  1  0  0  0  0  0  0  0  0  0
  -20.5160  -22.7357   23.0933 C   0  0  1  0  0  0  0  0  0  0  0  0
  -29.8491  -17.9969   22.0922 C   0  0  2  0  0  0  0  0  0  0  0  0
  -27.6524  -13.1123   19.6758 C   0  0  2  0  0  0  0  0  0  0  0  0
  -30.0631  -21.3437   26.3743 C   0  0  0  0  0  0  0  0  0  0  0  0
  -18.4836  -28.3100   28.0733 C   0  0  0  0  0  0  0  0  0  0  0  0
  -31.6966  -16.6055   23.0465 C   0  0  0  0  0  0  0  0  0  0  0  0
  -20.6121  -27.1997   21.9001 C   0  0  0  0  0  0  0  0  0  0  0  0
  -20.1512  -28.8212   23.7513 C   0  0  0  0  0  0  0  0  0  0  0  0
  -18.2864  -27.4827   22.7749 C   0  0  0  0  0  0  0  0  0  0  0  0
  -19.4348  -24.7287   28.9367 C   0  0  0  0  0  0  0  0  0  0  0  0
  -29.6377  -22.3526   20.0469 C   0  0  0  0  0  0  0  0  0  0  0  0
  -28.5019  -23.6233   25.3703 C   0  0  0  0  0  0  0  0  0  0  0  0
  -26.9874  -23.7999   25.3533 C   0  0  0  0  0  0  0  0  0  1  0  0
  -19.9895  -26.3408   24.2540 C   0  0  1  0  0  0  0  0  0  0  0  0
  -18.7298  -26.8353   27.7949 C   0  0  2  0  0  0  0  0  0  0  0  0
  -30.8179  -16.8915   21.8480 C   0  0  1  0  0  0  0  0  0  0  0  0
  -19.7775  -27.4392   23.1741 C   0  0  0  0  0  0  0  0  0  0  0  0
  -25.8610  -11.5318   20.2884 N   0  0  0  0  0  0  0  0  0  0  0  0
  -26.2405  -12.8129   20.1447 N   0  0  0  0  0  0  0  0  0  0  0  0
  -20.7092  -24.0253   23.7595 N   0  0  0  0  0  0  0  0  0  0  0  0
  -29.9775  -13.5884   20.3509 N   0  0  0  0  0  0  0  0  0  0  0  0
  -25.4779  -15.0448   20.3635 N   0  0  0  0  0  0  0  0  0  0  0  0
  -21.8862  -12.5923   21.5806 N   0  0  0  0  0  0  0  0  0  0  0  0
  -20.9197  -21.7438   20.9228 N   0  0  0  0  0  0  0  0  0  0  0  0
  -19.1910  -26.5272   25.4607 N   0  0  0  0  0  0  0  0  0  0  0  0
  -30.1513  -15.6662   21.4673 N   0  0  0  0  0  0  0  0  0  0  0  0
  -19.1783  -26.1868   29.0595 N   0  3  0  0  0  0  0  0  0  0  0  0
  -22.6664  -14.7269   21.2753 O   0  0  0  0  0  0  0  0  0  0  0  0
  -21.6325  -23.9134   21.3782 O   0  0  0  0  0  0  0  0  0  0  0  0
  -18.5207  -24.7149   23.3453 O   0  0  0  0  0  0  0  0  0  0  0  0
  -20.9771  -26.6080   26.9374 O   0  0  0  0  0  0  0  0  0  0  0  0
  -31.8872  -14.8934   20.1842 O   0  0  0  0  0  0  0  0  0  0  0  0
  -21.6023   -7.0314   21.7577 O   0  0  0  0  0  0  0  0  0  0  0  0
  -28.7194  -21.6733   20.9006 O   0  0  0  0  0  0  0  0  0  0  0  0
  -26.3565  -22.5963   25.7888 O   0  0  0  0  0  0  0  0  0  1  0  0
  -18.6030   -6.9363   26.3837 F   0  0  0  0  0  0  0  0  0  0  0  0
  -22.0457   -5.1110   23.6963 F   0  0  0  0  0  0  0  0  0  0  0  0
  1  2  1  0  0  0  0
  1  5  2  0  0  0  0
  2  6  2  0  0  0  0
  3  8  2  0  0  0  0
  3 17  1  0  0  0  0
  4  9  1  0  0  0  0
  4 17  2  0  0  0  0
  5 19  1  0  0  0  0
  6 21  1  0  0  0  0
  7 10  2  0  0  0  0
  7 20  1  0  0  0  0
  8 26  1  0  0  0  0
  9 26  2  0  0  0  0
 10 27  1  0  0  0  0
 11 12  2  0  0  0  0
 11 28  1  0  0  0  0
 12 30  1  0  0  0  0
 13 22  2  0  0  0  0
 13 24  1  0  0  0  0
 14 23  1  0  0  0  0
 14 27  2  0  0  0  0
 15 25  1  0  0  0  0
 15 29  2  0  0  0  0
 16 30  2  0  0  0  0
 16 31  1  0  0  0  0
 17 32  1  0  0  0  0
 18 32  1  0  0  0  0
 18 33  2  0  0  0  0
 18 34  1  0  0  0  0
 19 21  2  0  0  0  0
 19 39  1  0  0  0  0
 20 23  2  0  0  0  0
 20 40  1  0  0  0  0
 21 50  1  0  0  0  0
 22 29  1  0  0  0  0
 22 49  1  0  0  0  0
 23 41  1  0  0  0  0
 24 25  2  0  0  0  0
 24 54  1  0  0  0  0
 25 62  1  0  0  0  0
 26 83  1  0  0  0  0
 27 85  1  0  0  0  0
 28 31  2  0  0  0  0
 28 83  1  0  0  0  0
 29 84  1  0  0  0  0
 30 86  1  0  0  0  0
 31 87  1  0  0  0  0
 32 68  2  0  0  0  0
 33 69  1  0  0  0  0
 33 72  1  0  0  0  0
 34 73  1  0  0  0  0
 34 78  2  0  0  0  0
 35 51  1  0  0  0  0
 35 74  1  0  0  0  0
 35 79  2  0  0  0  0
 36 64  1  0  0  0  0
 36 70  1  0  0  0  0
 36 80  2  0  0  0  0
 37 65  1  0  0  0  0
 37 75  1  0  0  0  0
 37 81  2  0  0  0  0
 38 71  1  0  0  0  0
 38 76  1  0  0  0  0
 38 82  2  0  0  0  0
 39 42  1  0  0  0  0
 40 51  1  0  0  0  0
 41 70  1  0  0  0  0
 42 44  1  0  0  0  0
 43 45  1  0  0  0  0
 43 47  1  0  0  0  0
 44 50  1  0  0  0  0
 45 53  1  0  0  0  0
 46 49  1  0  0  0  0
 46 52  1  0  0  0  0
 47 71  1  0  0  0  0
 48 53  1  0  0  0  0
 48 71  1  0  0  0  0
 49 52  1  0  0  0  0
 50 74  1  0  0  0  0
 51 70  1  0  0  0  0
 52 66  1  0  0  0  0
 53 69  1  0  0  0  0
 55 65  1  0  0  0  0
 56 66  1  0  0  0  0
 57 67  1  0  0  0  0
 58 67  1  0  0  0  0
 59 67  1  0  0  0  0
 60 77  1  0  0  0  0
 61 84  1  0  0  0  0
 62 63  1  0  0  0  0
 63 85  1  0  0  0  0
 64 67  1  0  0  0  0
 64 75  1  0  0  0  0
 65 77  1  0  0  0  0
 66 76  1  0  0  0  0
 68 69  1  0  0  0  0
M  CHG  1  77   1
M  ISO  4  38 100  63 101  76 100  85 101
M  END
> <Batch ID>
0143

> <Smiles>
CNC(C)C(=O)NC(C(=O)N1Cc2cc([101O:1][101CH2:1]Cc3cc(OC)c(C4CC4C(C)[100NH:0][100C:0](=O)N4CCCC(n5nc(-c6ccc(Oc7ccc(F)cc7F)cc6)c(C(N)=O)c5N)C4)cc3C)ccc2CC1C(=O)NC1CCCc2ccccc21)C(C)(C)C

> <Shape>
0.231

> <Color>
0.197

> <Negative vol penalty>
0.000

$$$$

  -OEChem-04052321213D

 84 93  0     1  0  0  0  0  0999 V2000
  -20.5831  -32.1609   19.5669 C   0  0  0  0  0  0  0  0  0  0  0  0
  -20.9412  -30.8336   19.7803 C   0  0  0  0  0  0  0  0  0  0  0  0
  -23.6766   -9.5470   20.4595 C   0  0  0  0  0  0  0  0  0  0  0  0
  -24.3620  -10.0704   22.7164 C   0  0  0  0  0  0  0  0  0  0  0  0
  -21.2934  -32.9346   18.6499 C   0  0  0  0  0  0  0  0  0  0  0  0
  -22.0093  -30.2790   19.0759 C   0  0  0  0  0  0  0  0  0  0  0  0
  -25.0795  -27.5482   22.0359 C   0  0  0  0  0  0  0  0  0  0  0  0
  -23.1861   -8.3157   20.8940 C   0  0  0  0  0  0  0  0  0  0  0  0
  -23.8714   -8.8391   23.1509 C   0  0  0  0  0  0  0  0  0  0  0  0
  -24.6539  -26.2673   22.3850 C   0  0  0  0  0  0  0  0  0  0  0  0
  -20.4369   -7.1486   22.4792 C   0  0  0  0  0  0  0  0  0  0  0  0
  -19.1812   -6.7522   22.0192 C   0  0  0  0  0  0  0  0  0  0  0  0
  -26.0791  -25.3347   20.6767 C   0  0  0  0  0  0  0  0  0  0  0  0
  -28.4850  -18.9596   21.9142 C   0  0  0  0  0  0  0  0  0  0  0  0
  -20.1691   -4.7904   21.0130 C   0  0  0  0  0  0  0  0  0  0  0  0
  -30.7555  -20.1594   20.9917 C   0  0  0  0  0  0  0  0  0  0  0  0
  -24.2646  -10.4244   21.3707 C   0  0  0  0  0  0  0  0  0  0  0  0
  -24.0705  -12.9147   20.8530 C   0  0  0  0  0  0  0  0  0  0  0  0
  -22.3768  -32.3919   17.9411 C   0  0  0  0  0  0  0  0  0  0  0  0
  -26.0015  -27.7331   20.9956 C   0  0  0  0  0  0  0  0  0  0  0  0
  -22.7339  -31.0457   18.1476 C   0  0  0  0  0  0  0  0  0  0  0  0
  -26.5168  -26.6188   20.3181 C   0  0  0  0  0  0  0  0  0  0  0  0
  -29.8339  -20.9364   21.6749 C   0  0  0  0  0  0  0  0  0  0  0  0
  -23.2834   -7.9617   22.2397 C   0  0  0  0  0  0  0  0  0  0  0  0
  -25.1515  -25.1605   21.7035 C   0  0  0  0  0  0  0  0  0  0  0  0
  -21.5588   -6.3659   22.2060 C   0  0  0  0  0  0  0  0  0  0  0  0
  -28.6796  -20.3175   22.1417 C   0  0  0  0  0  0  0  0  0  0  0  0
  -19.0473   -5.5731   21.2861 C   0  0  0  0  0  0  0  0  0  0  0  0
  -21.4248   -5.1868   21.4730 C   0  0  0  0  0  0  0  0  0  0  0  0
  -24.7721  -11.6962   20.9223 C   0  0  0  0  0  0  0  0  0  0  0  0
  -29.4669  -18.2712   21.2201 C   0  0  0  0  0  0  0  0  0  0  0  0
  -24.9891  -13.8126   20.3667 C   0  0  0  0  0  0  0  0  0  0  0  0
  -22.7101  -13.2087   21.1975 C   0  0  0  0  0  0  0  0  0  0  0  0
  -25.9445  -29.2173   18.1853 C   0  0  0  0  0  0  0  0  0  0  0  0
  -29.0909  -28.4294   18.1446 C   0  0  0  0  0  0  0  0  0  0  0  0
  -31.5762  -26.3689   19.2514 C   0  0  0  0  0  0  0  0  0  0  0  0
  -30.1072  -16.0050   20.3252 C   0  0  0  0  0  0  0  0  0  0  0  0
  -23.0846  -33.2536   16.9256 C   0  0  0  0  0  0  0  0  0  0  0  0
  -26.4708  -29.1194   20.6490 C   0  0  0  0  0  0  0  0  0  0  0  0
  -27.5237  -26.7620   19.2072 C   0  0  0  0  0  0  0  0  0  0  0  0
  -24.4400  -32.6988   16.4950 C   0  0  0  0  0  0  0  0  0  0  0  0
  -29.5834  -13.0725   18.3751 C   0  0  0  0  0  0  0  0  0  0  0  0
  -31.3635  -22.8145   22.5731 C   0  0  0  0  0  0  0  0  0  0  0  0
  -30.0600  -22.9338   23.2990 C   0  0  0  0  0  0  0  0  0  0  0  0
  -24.3324  -31.2098   16.1820 C   0  0  0  0  0  0  0  0  0  0  0  0
  -28.2272  -12.5532   18.8582 C   0  0  0  0  0  0  0  0  0  0  0  0
  -30.4004  -13.6733   19.5175 C   0  0  0  0  0  0  0  0  0  0  0  0
  -28.3507  -14.1834   20.7855 C   0  0  0  0  0  0  0  0  0  0  0  0
  -30.0872  -22.3871   21.8945 C   0  0  0  0  0  0  0  0  0  0  0  0
  -23.9021  -30.4153   17.4211 C   0  0  1  0  0  0  0  0  0  0  0  0
  -27.0235  -29.2261   19.2310 C   0  0  1  0  0  0  0  0  0  0  0  0
  -27.4650  -13.6276   19.6584 C   0  0  2  0  0  0  0  0  0  0  0  0
  -33.9075  -25.4999   19.5783 C   0  0  0  0  0  0  0  0  0  0  0  0
  -28.6059  -27.1467   15.4189 C   0  0  0  0  0  0  0  0  0  0  0  0
  -30.7909  -25.9506   15.6706 C   0  0  0  0  0  0  0  0  0  0  0  0
  -30.7369  -28.4435   15.5973 C   0  0  0  0  0  0  0  0  0  0  0  0
  -31.9981  -28.0653   21.6395 C   0  0  0  0  0  0  0  0  0  0  0  0
  -25.4324  -21.7564   22.8808 C   0  0  0  0  0  0  0  0  0  0  0  0
  -25.6633  -22.8421   21.8415 C   0  0  0  0  0  0  0  0  0  1  0  0
  -26.3831  -20.5835   22.6991 C   0  0  0  0  0  0  0  0  0  0  0  0
  -29.8903  -27.2454   17.6564 C   0  0  1  0  0  0  0  0  0  0  0  0
  -32.9574  -26.6651   19.8071 C   0  0  2  0  0  0  0  0  0  0  0  0
  -29.9856  -27.1936   16.1054 C   0  0  0  0  0  0  0  0  0  0  0  0
  -30.6012  -18.8380   20.7515 N   0  0  0  0  0  0  0  0  0  0  0  0
  -26.0386  -11.8064   20.5127 N   0  0  0  0  0  0  0  0  0  0  0  0
  -26.1401  -13.1048   20.1812 N   0  0  0  0  0  0  0  0  0  0  0  0
  -27.9468  -28.1385   18.9010 N   0  0  0  0  0  0  0  0  0  0  0  0
  -29.6159  -14.6860   20.2275 N   0  0  0  0  0  0  0  0  0  0  0  0
  -24.9165  -15.1306   20.0839 N   0  0  0  0  0  0  0  0  0  0  0  0
  -21.9042  -12.1697   21.6824 N   0  0  0  0  0  0  0  0  0  0  0  0
  -29.2600  -16.8877   20.9943 N   0  0  0  0  0  0  0  0  0  0  0  0
  -25.0215  -30.2367   18.3208 N   0  0  0  0  0  0  0  0  0  0  0  0
  -31.1812  -27.3178   18.3323 N   0  0  0  0  0  0  0  0  0  0  0  0
  -32.8809  -26.9285   21.2719 N   0  3  0  0  0  0  0  0  0  0  0  0
  -22.2190  -14.3552   21.0633 O   0  0  0  0  0  0  0  0  0  0  0  0
  -25.9500  -28.3508   17.3188 O   0  0  0  0  0  0  0  0  0  0  0  0
  -29.4717  -29.5703   17.8711 O   0  0  0  0  0  0  0  0  0  0  0  0
  -30.9154  -25.3914   19.5953 O   0  0  0  0  0  0  0  0  0  0  0  0
  -31.1866  -16.3341   19.8266 O   0  0  0  0  0  0  0  0  0  0  0  0
  -22.8047   -6.7604   22.6641 O   0  0  0  0  0  0  0  0  0  0  0  0
  -24.7372  -23.9092   22.0418 O   0  0  0  0  0  0  0  0  0  1  0  0
  -27.7271  -21.0281   22.8245 O   0  0  0  0  0  0  0  0  0  0  0  0
  -17.8411   -5.1918   20.8458 F   0  0  0  0  0  0  0  0  0  0  0  0
  -22.4988   -4.4301   21.2084 F   0  0  0  0  0  0  0  0  0  0  0  0
  1  2  1  0  0  0  0
  1  5  2  0  0  0  0
  2  6  2  0  0  0  0
  3  8  2  0  0  0  0
  3 17  1  0  0  0  0
  4  9  1  0  0  0  0
  4 17  2  0  0  0  0
  5 19  1  0  0  0  0
  6 21  1  0  0  0  0
  7 10  2  0  0  0  0
  7 20  1  0  0  0  0
  8 24  1  0  0  0  0
  9 24  2  0  0  0  0
 10 25  1  0  0  0  0
 11 12  2  0  0  0  0
 11 26  1  0  0  0  0
 12 28  1  0  0  0  0
 13 22  1  0  0  0  0
 13 25  2  0  0  0  0
 14 27  1  0  0  0  0
 14 31  2  0  0  0  0
 15 28  2  0  0  0  0
 15 29  1  0  0  0  0
 16 23  1  0  0  0  0
 16 64  2  0  0  0  0
 17 30  1  0  0  0  0
 18 30  1  0  0  0  0
 18 32  2  0  0  0  0
 18 33  1  0  0  0  0
 19 21  2  0  0  0  0
 19 38  1  0  0  0  0
 20 22  2  0  0  0  0
 20 39  1  0  0  0  0
 21 50  1  0  0  0  0
 22 40  1  0  0  0  0
 23 27  2  0  0  0  0
 23 49  1  0  0  0  0
 24 80  1  0  0  0  0
 25 81  1  0  0  0  0
 26 29  2  0  0  0  0
 26 80  1  0  0  0  0
 27 82  1  0  0  0  0
 28 83  1  0  0  0  0
 29 84  1  0  0  0  0
 30 65  2  0  0  0  0
 31 64  1  0  0  0  0
 31 71  1  0  0  0  0
 32 66  1  0  0  0  0
 32 69  1  0  0  0  0
 33 70  1  0  0  0  0
 33 75  2  0  0  0  0
 34 51  1  0  0  0  0
 34 72  1  0  0  0  0
 34 76  2  0  0  0  0
 35 61  1  0  0  0  0
 35 67  1  0  0  0  0
 35 77  2  0  0  0  0
 36 62  1  0  0  0  0
 36 73  1  0  0  0  0
 36 78  2  0  0  0  0
 37 68  1  0  0  0  0
 37 71  1  0  0  0  0
 37 79  2  0  0  0  0
 38 41  1  0  0  0  0
 39 51  1  0  0  0  0
 40 67  1  0  0  0  0
 41 45  1  0  0  0  0
 42 46  1  0  0  0  0
 42 47  1  0  0  0  0
 43 44  1  0  0  0  0
 43 49  1  0  0  0  0
 44 49  1  0  0  0  0
 45 50  1  0  0  0  0
 46 52  1  0  0  0  0
 47 68  1  0  0  0  0
 48 52  1  0  0  0  0
 48 68  1  0  0  0  0
 50 72  1  0  0  0  0
 51 67  1  0  0  0  0
 52 66  1  0  0  0  0
 53 62  1  0  0  0  0
 54 63  1  0  0  0  0
 55 63  1  0  0  0  0
 56 63  1  0  0  0  0
 57 74  1  0  0  0  0
 58 59  1  0  0  0  0
 58 60  1  0  0  0  0
 59 81  1  0  0  0  0
 60 82  1  0  0  0  0
 61 63  1  0  0  0  0
 61 73  1  0  0  0  0
 62 74  1  0  0  0  0
 65 66  1  0  0  0  0
M  CHG  1  74   1
M  ISO  4  37 100  59 101  71 100  81 101
M  END
> <Batch ID>
0143

> <Smiles>
CNC(C)C(=O)NC(C(=O)N1Cc2cc([101O:1][101CH2:1]CCOc3cc([100NH:0][100C:0](=O)N4CCCC(n5nc(-c6ccc(Oc7ccc(F)cc7F)cc6)c(C(N)=O)c5N)C4)ncc3C3CC3)ccc2CC1C(=O)NC1CCCc2ccccc21)C(C)(C)C

> <Shape>
0.223

> <Color>
0.152

> <Negative vol penalty>
0.000

$$$$

  -OEChem-04052321213D

 86 95  0     1  0  0  0  0  0999 V2000
  -40.5305  -27.5128   21.9115 C   0  0  0  0  0  0  0  0  0  0  0  0
  -39.6647  -26.5369   22.3946 C   0  0  0  0  0  0  0  0  0  0  0  0
  -23.3187   -9.6949   20.1270 C   0  0  0  0  0  0  0  0  0  0  0  0
  -23.7983  -10.0506   22.4680 C   0  0  0  0  0  0  0  0  0  0  0  0
  -40.0196  -28.7048   21.3996 C   0  0  0  0  0  0  0  0  0  0  0  0
  -38.2874  -26.7529   22.3672 C   0  0  0  0  0  0  0  0  0  0  0  0
  -35.7207  -22.7177   20.7018 C   0  0  0  0  0  0  0  0  0  0  0  0
  -32.9675  -19.4953   26.1195 C   0  0  0  0  0  0  0  0  0  0  0  0
  -32.9558  -18.4238   27.0131 C   0  0  0  0  0  0  0  0  0  0  0  0
  -22.6224   -8.5294   20.4467 C   0  0  0  0  0  0  0  0  0  0  0  0
  -23.1020   -8.8851   22.7877 C   0  0  0  0  0  0  0  0  0  0  0  0
  -35.5310  -21.6685   21.6001 C   0  0  0  0  0  0  0  0  0  0  0  0
  -19.5768   -7.7003   21.6590 C   0  0  0  0  0  0  0  0  0  0  0  0
  -18.3423   -7.4933   21.0436 C   0  0  0  0  0  0  0  0  0  0  0  0
  -32.7461  -17.9750   24.2313 C   0  0  0  0  0  0  0  0  0  0  0  0
  -33.2910  -22.4523   22.0330 C   0  0  0  0  0  0  0  0  0  0  0  0
  -19.1734   -5.4467   20.0649 C   0  0  0  0  0  0  0  0  0  0  0  0
  -23.9067  -10.4556   21.1376 C   0  0  0  0  0  0  0  0  0  0  0  0
  -24.1050  -12.9638   20.7168 C   0  0  0  0  0  0  0  0  0  0  0  0
  -38.6349  -28.9315   21.3571 C   0  0  0  0  0  0  0  0  0  0  0  0
  -34.6991  -23.6499   20.4701 C   0  0  0  0  0  0  0  0  0  0  0  0
  -37.7575  -27.9497   21.8556 C   0  0  0  0  0  0  0  0  0  0  0  0
  -32.7302  -16.9169   25.1258 C   0  0  0  0  0  0  0  0  0  0  0  0
  -33.4694  -23.5109   21.1293 C   0  0  0  0  0  0  0  0  0  0  0  0
  -32.8609  -19.2728   24.7374 C   0  0  0  0  0  0  0  0  0  0  0  0
  -32.8280  -17.1507   26.4912 C   0  0  0  0  0  0  0  0  0  0  0  0
  -22.5140   -8.1244   21.7771 C   0  0  0  0  0  0  0  0  0  0  0  0
  -34.3170  -21.5374   22.2681 C   0  0  0  0  0  0  0  0  0  0  0  0
  -20.6097   -6.7806   21.4772 C   0  0  0  0  0  0  0  0  0  0  0  0
  -18.1405   -6.3665   20.2466 C   0  0  0  0  0  0  0  0  0  0  0  0
  -20.4080   -5.6538   20.6802 C   0  0  0  0  0  0  0  0  0  0  0  0
  -24.6265  -11.6594   20.8079 C   0  0  0  0  0  0  0  0  0  0  0  0
  -25.1846  -13.7424   20.3782 C   0  0  0  0  0  0  0  0  0  0  0  0
  -22.7645  -13.4300   20.9201 C   0  0  0  0  0  0  0  0  0  0  0  0
  -34.3875  -26.7859   20.8852 C   0  0  0  0  0  0  0  0  0  0  0  0
  -31.5660  -26.3145   19.3558 C   0  0  0  0  0  0  0  0  0  0  0  0
  -29.0548  -24.1653   18.5061 C   0  0  0  0  0  0  0  0  0  0  0  0
  -31.0841  -13.1018   21.1763 C   0  0  0  0  0  0  0  0  0  0  0  0
  -38.1317  -30.2553   20.8382 C   0  0  0  0  0  0  0  0  0  0  0  0
  -34.9102  -24.7605   19.4779 C   0  0  0  0  0  0  0  0  0  0  0  0
  -32.3337  -24.4733   20.9006 C   0  0  0  0  0  0  0  0  0  0  0  0
  -36.6431  -30.2508   20.5001 C   0  0  0  0  0  0  0  0  0  0  0  0
  -29.3770  -13.5358   18.0821 C   0  0  0  0  0  0  0  0  0  0  0  0
  -35.8424  -29.6002   21.6236 C   0  0  0  0  0  0  0  0  0  0  0  0
  -27.9189  -13.2218   18.4216 C   0  0  0  0  0  0  0  0  0  0  0  0
  -30.3421  -12.6422   18.8579 C   0  0  0  0  0  0  0  0  0  0  0  0
  -28.6898  -12.3294   20.6595 C   0  0  0  0  0  0  0  0  0  0  0  0
  -36.2562  -28.1367   21.8201 C   0  0  1  0  0  0  0  0  0  0  0  0
  -33.9814  -25.9492   19.7051 C   0  0  1  0  0  0  0  0  0  0  0  0
  -27.6804  -13.2431   19.9434 C   0  0  2  0  0  0  0  0  0  0  0  0
  -32.3382  -14.9768   26.3271 C   0  0  2  0  0  0  0  0  0  0  0  0
  -32.6743  -15.4428   24.8784 C   0  0  1  0  0  0  0  0  0  0  0  0
  -30.8603  -14.7239   26.6324 C   0  0  0  0  0  0  0  0  0  0  0  0
  -26.8650  -24.0793   17.2835 C   0  0  0  0  0  0  0  0  0  0  0  0
  -30.2044  -27.7131   21.7010 C   0  0  0  0  0  0  0  0  0  0  0  0
  -28.0250  -26.7702   20.9077 C   0  0  0  0  0  0  0  0  0  0  0  0
  -29.3080  -28.3371   19.4512 C   0  0  0  0  0  0  0  0  0  0  0  0
  -30.0805  -22.1740   16.5718 C   0  0  0  0  0  0  0  0  0  0  0  0
  -32.8609  -20.4405   23.7953 C   0  0  0  0  0  0  0  0  0  1  0  0
  -31.6545  -15.0311   23.8152 C   0  0  0  0  0  0  0  0  0  0  0  0
  -34.0724  -14.9443   24.4703 C   0  0  0  0  0  0  0  0  0  0  0  0
  -31.6736  -13.5361   23.5476 C   0  0  0  0  0  0  0  0  0  0  0  0
  -30.1586  -25.9801   19.7877 C   0  0  1  0  0  0  0  0  0  0  0  0
  -28.3704  -23.8901   17.1793 C   0  0  2  0  0  0  0  0  0  0  0  0
  -29.4459  -27.1829   20.4679 C   0  0  0  0  0  0  0  0  0  0  0  0
  -25.9357  -11.6082   20.5480 N   0  0  0  0  0  0  0  0  0  0  0  0
  -26.2458  -12.8902   20.2902 N   0  0  0  0  0  0  0  0  0  0  0  0
  -32.5910  -25.5461   19.9257 N   0  0  0  0  0  0  0  0  0  0  0  0
  -30.0636  -12.7090   20.2945 N   0  0  0  0  0  0  0  0  0  0  0  0
  -25.3202  -15.0660   20.1500 N   0  0  0  0  0  0  0  0  0  0  0  0
  -21.7772  -12.4963   21.2635 N   0  0  0  0  0  0  0  0  0  0  0  0
  -35.6659  -27.3026   20.7952 N   0  0  0  0  0  0  0  0  0  0  0  0
  -29.4767  -25.4746   18.6012 N   0  0  0  0  0  0  0  0  0  0  0  0
  -30.7342  -13.1447   22.5203 N   0  0  0  0  0  0  0  0  0  0  0  0
  -28.6390  -22.4922   16.7381 N   0  3  0  0  0  0  0  0  0  0  0  0
  -22.4481  -14.6363   20.7848 O   0  0  0  0  0  0  0  0  0  0  0  0
  -33.5989  -26.9516   21.8084 O   0  0  0  0  0  0  0  0  0  0  0  0
  -31.7485  -27.2192   18.5374 O   0  0  0  0  0  0  0  0  0  0  0  0
  -29.1974  -23.3059   19.3730 O   0  0  0  0  0  0  0  0  0  0  0  0
  -32.2211  -13.3979   20.7935 O   0  0  0  0  0  0  0  0  0  0  0  0
  -32.7991  -16.0071   27.2486 O   0  0  0  0  0  0  0  0  0  0  0  0
  -34.2654  -15.2313   23.0988 O   0  0  0  0  0  0  0  0  0  0  0  0
  -21.8345   -6.9872   22.0894 O   0  0  0  0  0  0  0  0  0  0  0  0
  -34.1294  -20.5146   23.1460 O   0  0  0  0  0  0  0  0  0  1  0  0
  -16.9545   -6.1669   19.6570 F   0  0  0  0  0  0  0  0  0  0  0  0
  -21.3961   -4.7662   20.5028 F   0  0  0  0  0  0  0  0  0  0  0  0
  1  2  1  0  0  0  0
  1  5  2  0  0  0  0
  2  6  2  0  0  0  0
  3 10  2  0  0  0  0
  3 18  1  0  0  0  0
  4 11  1  0  0  0  0
  4 18  2  0  0  0  0
  5 20  1  0  0  0  0
  6 22  1  0  0  0  0
  7 12  2  0  0  0  0
  7 21  1  0  0  0  0
  8  9  2  0  0  0  0
  8 25  1  0  0  0  0
  9 26  1  0  0  0  0
 10 27  1  0  0  0  0
 11 27  2  0  0  0  0
 12 28  1  0  0  0  0
 13 14  2  0  0  0  0
 13 29  1  0  0  0  0
 14 30  1  0  0  0  0
 15 23  1  0  0  0  0
 15 25  2  0  0  0  0
 16 24  1  0  0  0  0
 16 28  2  0  0  0  0
 17 30  2  0  0  0  0
 17 31  1  0  0  0  0
 18 32  1  0  0  0  0
 19 32  1  0  0  0  0
 19 33  2  0  0  0  0
 19 34  1  0  0  0  0
 20 22  2  0  0  0  0
 20 39  1  0  0  0  0
 21 24  2  0  0  0  0
 21 40  1  0  0  0  0
 22 48  1  0  0  0  0
 23 26  2  0  0  0  0
 23 52  1  0  0  0  0
 24 41  1  0  0  0  0
 25 59  1  0  0  0  0
 26 81  1  0  0  0  0
 27 83  1  0  0  0  0
 28 84  1  0  0  0  0
 29 31  2  0  0  0  0
 29 83  1  0  0  0  0
 30 85  1  0  0  0  0
 31 86  1  0  0  0  0
 32 66  2  0  0  0  0
 33 67  1  0  0  0  0
 33 70  1  0  0  0  0
 34 71  1  0  0  0  0
 34 76  2  0  0  0  0
 35 49  1  0  0  0  0
 35 72  1  0  0  0  0
 35 77  2  0  0  0  0
 36 63  1  0  0  0  0
 36 68  1  0  0  0  0
 36 78  2  0  0  0  0
 37 64  1  0  0  0  0
 37 73  1  0  0  0  0
 37 79  2  0  0  0  0
 38 69  1  0  0  0  0
 38 74  1  0  0  0  0
 38 80  2  0  0  0  0
 39 42  1  0  0  0  0
 40 49  1  0  0  0  0
 41 68  1  0  0  0  0
 42 44  1  0  0  0  0
 43 45  1  0  0  0  0
 43 46  1  0  0  0  0
 44 48  1  0  0  0  0
 45 50  1  0  0  0  0
 46 69  1  0  0  0  0
 47 50  1  0  0  0  0
 47 69  1  0  0  0  0
 48 72  1  0  0  0  0
 49 68  1  0  0  0  0
 50 67  1  0  0  0  0
 51 52  1  0  0  0  0
 51 53  1  0  0  0  0
 51 81  1  0  0  0  0
 52 60  1  0  0  0  0
 52 61  1  0  0  0  0
 54 64  1  0  0  0  0
 55 65  1  0  0  0  0
 56 65  1  0  0  0  0
 57 65  1  0  0  0  0
 58 75  1  0  0  0  0
 59 84  1  0  0  0  0
 60 62  1  0  0  0  0
 61 82  1  0  0  0  0
 62 74  1  0  0  0  0
 63 65  1  0  0  0  0
 63 73  1  0  0  0  0
 64 75  1  0  0  0  0
 66 67  1  0  0  0  0
M  CHG  1  75   1
M  ISO  4  38 100  59 101  74 100  84 101
M  END
> <Batch ID>
0143

> <Smiles>
CNC(C)C(=O)NC(C(=O)N1Cc2cc([101O:1][101CH2:1]c3ccc4c(c3)C(CO)(CC[100NH:0][100C:0](=O)N3CCCC(n5nc(-c6ccc(Oc7ccc(F)cc7F)cc6)c(C(N)=O)c5N)C3)C(C)O4)ccc2CC1C(=O)NC1CCCc2ccccc21)C(C)(C)C

> <Shape>
0.184

> <Color>
0.172

> <Negative vol penalty>
0.000

$$$$

  -OEChem-04052321213D

 89 98  0     1  0  0  0  0  0999 V2000
  -31.1447  -27.1733   13.7835 C   0  0  0  0  0  0  0  0  0  0  0  0
  -30.1055  -26.3752   14.2485 C   0  0  0  0  0  0  0  0  0  0  0  0
  -29.1965  -19.9166   21.0306 C   0  0  0  0  0  0  0  0  0  0  0  0
  -30.4780  -19.1760   19.1210 C   0  0  0  0  0  0  0  0  0  0  0  0
  -31.7166  -28.1259   14.6241 C   0  0  0  0  0  0  0  0  0  0  0  0
  -29.6301  -26.5376   15.5502 C   0  0  0  0  0  0  0  0  0  0  0  0
  -25.6180  -23.9791   16.7995 C   0  0  0  0  0  0  0  0  0  0  0  0
  -29.1212  -21.1974   20.4834 C   0  0  0  0  0  0  0  0  0  0  0  0
  -30.4026  -20.4569   18.5738 C   0  0  0  0  0  0  0  0  0  0  0  0
  -25.6360  -22.5995   17.0000 C   0  0  0  0  0  0  0  0  0  0  0  0
  -30.8561  -23.6212   16.8443 C   0  0  0  0  0  0  0  0  0  0  0  0
  -32.0227  -24.1671   16.3088 C   0  0  0  0  0  0  0  0  0  0  0  0
  -25.5832  -22.9516   19.3859 C   0  0  0  0  0  0  0  0  0  0  0  0
  -23.0340  -16.4733   22.3207 C   0  0  0  0  0  0  0  0  0  0  0  0
  -22.9860  -16.8836   19.9424 C   0  0  0  0  0  0  0  0  0  0  0  0
  -33.0959  -23.9899   18.4661 C   0  0  0  0  0  0  0  0  0  0  0  0
  -29.8749  -18.9059   20.3495 C   0  0  0  0  0  0  0  0  0  0  0  0
  -30.5247  -17.2178   22.1483 C   0  0  0  0  0  0  0  0  0  0  0  0
  -31.2557  -28.2908   15.9406 C   0  0  0  0  0  0  0  0  0  0  0  0
  -25.5934  -24.8569   17.8928 C   0  0  0  0  0  0  0  0  0  0  0  0
  -30.1782  -27.5100   16.4061 C   0  0  0  0  0  0  0  0  0  0  0  0
  -25.5623  -24.3418   19.1966 C   0  0  0  0  0  0  0  0  0  0  0  0
  -23.4139  -17.8026   22.5668 C   0  0  0  0  0  0  0  0  0  0  0  0
  -23.5366  -18.6863   21.4748 C   0  0  0  0  0  0  0  0  0  0  0  0
  -29.7242  -21.4675   19.2550 C   0  0  0  0  0  0  0  0  0  0  0  0
  -25.6215  -22.0856   18.2933 C   0  0  0  0  0  0  0  0  0  0  0  0
  -30.8094  -23.2597   18.1907 C   0  0  0  0  0  0  0  0  0  0  0  0
  -22.8270  -16.0166   21.0183 C   0  0  0  0  0  0  0  0  0  0  0  0
  -23.3396  -18.2121   20.1686 C   0  0  0  0  0  0  0  0  0  0  0  0
  -33.1426  -24.3514   17.1197 C   0  0  0  0  0  0  0  0  0  0  0  0
  -31.9293  -23.4440   19.0016 C   0  0  0  0  0  0  0  0  0  0  0  0
  -29.9536  -17.5827   20.9145 C   0  0  0  0  0  0  0  0  0  0  0  0
  -30.3462  -15.8579   22.2205 C   0  0  0  0  0  0  0  0  0  0  0  0
  -31.1597  -18.0351   23.1406 C   0  0  0  0  0  0  0  0  0  0  0  0
  -27.5371  -27.1149   19.0006 C   0  0  0  0  0  0  0  0  0  0  0  0
  -25.1082  -27.6357   21.0866 C   0  0  0  0  0  0  0  0  0  0  0  0
  -22.3652  -26.4087   22.7043 C   0  0  0  0  0  0  0  0  0  0  0  0
  -26.3866  -12.1269   19.7200 C   0  0  0  0  0  0  0  0  0  0  0  0
  -31.9057  -29.3423   16.8050 C   0  0  0  0  0  0  0  0  0  0  0  0
  -25.5473  -26.3421   17.6592 C   0  0  0  0  0  0  0  0  0  0  0  0
  -23.9267  -20.1300   21.6768 C   0  0  0  0  0  0  0  0  0  0  0  0
  -25.5154  -25.2413   20.4037 C   0  0  0  0  0  0  0  0  0  0  0  0
  -31.6385  -29.1375   18.2926 C   0  0  0  0  0  0  0  0  0  0  0  0
  -29.9335  -11.9830   19.4447 C   0  0  0  0  0  0  0  0  0  0  0  0
  -30.1509  -28.9230   18.5287 C   0  0  0  0  0  0  0  0  0  0  0  0
  -30.3924  -13.3689   19.9015 C   0  0  0  0  0  0  0  0  0  0  0  0
  -28.6247  -12.0517   18.6609 C   0  0  0  0  0  0  0  0  0  0  0  0
  -27.9838  -14.1363   19.8087 C   0  0  0  0  0  0  0  0  0  0  0  0
  -23.6095  -20.6318   23.0762 C   0  0  0  0  0  0  0  0  0  0  0  0
  -29.6651  -27.6478   17.8281 C   0  0  1  0  0  0  0  0  0  0  0  0
  -23.6148  -18.2978   23.9866 C   0  0  1  0  0  0  0  0  0  0  0  0
  -26.0421  -27.1506   18.8546 C   0  0  1  0  0  0  0  0  0  0  0  0
  -29.2705  -14.1120   20.6514 C   0  0  2  0  0  0  0  0  0  0  0  0
  -24.5152  -17.4003   24.8374 C   0  0  0  0  0  0  0  0  0  0  0  0
  -20.6093  -27.0582   24.3754 C   0  0  0  0  0  0  0  0  0  0  0  0
  -27.1452  -27.3388   23.3388 C   0  0  0  0  0  0  0  0  0  0  0  0
  -25.2365  -27.0452   24.9323 C   0  0  0  0  0  0  0  0  0  0  0  0
  -25.4866  -29.1813   23.6685 C   0  0  0  0  0  0  0  0  0  0  0  0
  -20.1832  -25.9826   20.7508 C   0  0  0  0  0  0  0  0  0  0  0  0
  -23.1090  -12.6375   19.8005 C   0  0  0  0  0  0  0  0  0  0  0  0
  -24.1834  -12.3494   20.8404 C   0  0  0  0  0  0  0  0  0  0  0  0
  -22.8876  -14.1281   19.5741 C   0  0  0  0  0  0  0  0  0  0  0  0
  -25.0349  -19.9265   17.4869 C   0  0  0  0  0  0  0  0  0  1  0  0
  -24.4797  -18.6719   18.1328 C   0  0  0  0  0  0  0  0  0  0  0  0
  -24.7340  -27.0995   22.4472 C   0  0  1  0  0  0  0  0  0  0  0  0
  -20.9724  -26.9796   22.9007 C   0  0  2  0  0  0  0  0  0  0  0  0
  -25.6534  -27.6490   23.5742 C   0  0  0  0  0  0  0  0  0  0  0  0
  -29.4501  -16.5389   20.2505 N   0  0  0  0  0  0  0  0  0  0  0  0
  -29.7043  -15.5046   21.0701 N   0  0  0  0  0  0  0  0  0  0  0  0
  -25.4779  -26.6862   20.1235 N   0  0  0  0  0  0  0  0  0  0  0  0
  -27.6022  -12.7673   19.4280 N   0  0  0  0  0  0  0  0  0  0  0  0
  -30.6773  -14.9418   23.1551 N   0  0  0  0  0  0  0  0  0  0  0  0
  -32.5426  -18.2439   23.0489 N   0  0  0  0  0  0  0  0  0  0  0  0
  -28.2216  -27.5911   17.8987 N   0  0  0  0  0  0  0  0  0  0  0  0
  -23.3186  -27.4021   22.6301 N   0  0  0  0  0  0  0  0  0  0  0  0
  -25.4752  -12.8735   20.4566 N   0  0  0  0  0  0  0  0  0  0  0  0
  -24.2123  -19.6851   24.0563 N   0  3  0  0  0  0  0  0  0  0  0  0
  -19.9616  -26.1276   22.2126 N   0  3  0  0  0  0  0  0  0  0  0  0
  -30.5225  -18.5510   24.0899 O   0  0  0  0  0  0  0  0  0  0  0  0
  -28.0330  -26.6883   20.0369 O   0  0  0  0  0  0  0  0  0  0  0  0
  -25.0669  -28.8518   20.8835 O   0  0  0  0  0  0  0  0  0  0  0  0
  -22.5859  -25.2020   22.6284 O   0  0  0  0  0  0  0  0  0  0  0  0
  -26.1345  -10.9732   19.3561 O   0  0  0  0  0  0  0  0  0  0  0  0
  -29.6507  -22.7172   18.7207 O   0  0  0  0  0  0  0  0  0  0  0  0
  -25.6397  -20.7394   18.4918 O   0  0  0  0  0  0  0  0  0  1  0  0
  -22.4674  -14.7217   20.8015 O   0  0  0  0  0  0  0  0  0  0  0  0
  -23.4906  -19.0392   19.0868 O   0  0  0  0  0  0  0  0  0  0  0  0
  -34.2632  -24.8742   16.6049 F   0  0  0  0  0  0  0  0  0  0  0  0
  -31.8908  -23.0976   20.2955 F   0  0  0  0  0  0  0  0  0  0  0  0
  1  2  1  0  0  0  0
  1  5  2  0  0  0  0
  2  6  2  0  0  0  0
  3  8  2  0  0  0  0
  3 17  1  0  0  0  0
  4  9  1  0  0  0  0
  4 17  2  0  0  0  0
  5 19  1  0  0  0  0
  6 21  1  0  0  0  0
  7 10  2  0  0  0  0
  7 20  1  0  0  0  0
  8 25  1  0  0  0  0
  9 25  2  0  0  0  0
 10 26  1  0  0  0  0
 11 12  2  0  0  0  0
 11 27  1  0  0  0  0
 12 30  1  0  0  0  0
 13 22  1  0  0  0  0
 13 26  2  0  0  0  0
 14 23  2  0  0  0  0
 14 28  1  0  0  0  0
 15 28  2  0  0  0  0
 15 29  1  0  0  0  0
 16 30  2  0  0  0  0
 16 31  1  0  0  0  0
 17 32  1  0  0  0  0
 18 32  1  0  0  0  0
 18 33  2  0  0  0  0
 18 34  1  0  0  0  0
 19 21  2  0  0  0  0
 19 39  1  0  0  0  0
 20 22  2  0  0  0  0
 20 40  1  0  0  0  0
 21 50  1  0  0  0  0
 22 42  1  0  0  0  0
 23 24  1  0  0  0  0
 23 51  1  0  0  0  0
 24 29  2  0  0  0  0
 24 41  1  0  0  0  0
 25 84  1  0  0  0  0
 26 85  1  0  0  0  0
 27 31  2  0  0  0  0
 27 84  1  0  0  0  0
 28 86  1  0  0  0  0
 29 87  1  0  0  0  0
 30 88  1  0  0  0  0
 31 89  1  0  0  0  0
 32 68  2  0  0  0  0
 33 69  1  0  0  0  0
 33 72  1  0  0  0  0
 34 73  1  0  0  0  0
 34 79  2  0  0  0  0
 35 52  1  0  0  0  0
 35 74  1  0  0  0  0
 35 80  2  0  0  0  0
 36 65  1  0  0  0  0
 36 70  1  0  0  0  0
 36 81  2  0  0  0  0
 37 66  1  0  0  0  0
 37 75  1  0  0  0  0
 37 82  2  0  0  0  0
 38 71  1  0  0  0  0
 38 76  1  0  0  0  0
 38 83  2  0  0  0  0
 39 43  1  0  0  0  0
 40 52  1  0  0  0  0
 41 49  1  0  0  0  0
 42 70  1  0  0  0  0
 43 45  1  0  0  0  0
 44 46  1  0  0  0  0
 44 47  1  0  0  0  0
 45 50  1  0  0  0  0
 46 53  1  0  0  0  0
 47 71  1  0  0  0  0
 48 53  1  0  0  0  0
 48 71  1  0  0  0  0
 49 77  1  0  0  0  0
 50 74  1  0  0  0  0
 51 54  1  0  0  0  0
 51 77  1  0  0  0  0
 52 70  1  0  0  0  0
 53 69  1  0  0  0  0
 55 66  1  0  0  0  0
 56 67  1  0  0  0  0
 57 67  1  0  0  0  0
 58 67  1  0  0  0  0
 59 78  1  0  0  0  0
 60 61  1  0  0  0  0
 60 62  1  0  0  0  0
 61 76  1  0  0  0  0
 62 86  1  0  0  0  0
 63 64  1  0  0  0  0
 63 85  1  0  0  0  0
 64 87  1  0  0  0  0
 65 67  1  0  0  0  0
 65 75  1  0  0  0  0
 66 78  1  0  0  0  0
 68 69  1  0  0  0  0
M  CHG  2  77   1  78   1
M  ISO  4  38 100  63 101  76 100  85 101
M  END
> <Batch ID>
0143

> <Smiles>
CNC(C)C(=O)NC(C(=O)N1Cc2cc([101O:1][101CH2:1]COc3cc(OCCC[100NH:0][100C:0](=O)N4CCCC(n5nc(-c6ccc(Oc7ccc(F)cc7F)cc6)c(C(N)=O)c5N)C4)cc4c3CCNC4C)ccc2CC1C(=O)NC1CCCc2ccccc21)C(C)(C)C

> <Shape>
0.204

> <Color>
0.064

> <Negative vol penalty>
0.000

$$$$

  -OEChem-04052321213D

 87 97  0     1  0  0  0  0  0999 V2000
  -27.7441  -37.0016   26.4750 C   0  0  0  0  0  0  0  0  0  0  0  0
  -26.9003  -36.0777   27.0831 C   0  0  0  0  0  0  0  0  0  0  0  0
  -24.1656   -9.7030   22.1219 C   0  0  0  0  0  0  0  0  0  0  0  0
  -23.0905  -10.1509   20.0051 C   0  0  0  0  0  0  0  0  0  0  0  0
  -27.7158  -37.1643   25.0906 C   0  0  0  0  0  0  0  0  0  0  0  0
  -26.0268  -35.3166   26.3070 C   0  0  0  0  0  0  0  0  0  0  0  0
  -25.8278  -20.1589   20.9461 C   0  0  0  0  0  0  0  0  0  0  0  0
  -26.3147  -28.1191   26.3785 C   0  0  0  0  0  0  0  0  0  0  0  0
  -25.5372  -19.4054   19.8089 C   0  0  0  0  0  0  0  0  0  0  0  0
  -23.3130   -8.6180   22.3253 C   0  0  0  0  0  0  0  0  0  0  0  0
  -22.2379   -9.0658   20.2085 C   0  0  0  0  0  0  0  0  0  0  0  0
  -26.1673  -26.7370   26.4981 C   0  0  0  0  0  0  0  0  0  0  0  0
  -20.1252   -8.1092   23.3270 C   0  0  0  0  0  0  0  0  0  0  0  0
  -19.5457   -7.9688   24.5880 C   0  0  0  0  0  0  0  0  0  0  0  0
  -23.7218  -21.3201   20.7150 C   0  0  0  0  0  0  0  0  0  0  0  0
  -24.4269  -26.7668   24.8194 C   0  0  0  0  0  0  0  0  0  0  0  0
  -20.6000   -5.8087   24.8320 C   0  0  0  0  0  0  0  0  0  0  0  0
  -24.0543  -10.4695   20.9618 C   0  0  0  0  0  0  0  0  0  0  0  0
  -26.3396  -11.5654   20.6723 C   0  0  0  0  0  0  0  0  0  0  0  0
  -24.9201  -21.1163   21.3992 C   0  0  0  0  0  0  0  0  0  0  0  0
  -26.8484  -36.3979   24.2963 C   0  0  0  0  0  0  0  0  0  0  0  0
  -25.5286  -28.8290   25.4667 C   0  0  0  0  0  0  0  0  0  0  0  0
  -25.9859  -35.4701   24.9108 C   0  0  0  0  0  0  0  0  0  0  0  0
  -24.5789  -28.1495   24.6862 C   0  0  0  0  0  0  0  0  0  0  0  0
  -23.4312  -20.5666   19.5778 C   0  0  0  0  0  0  0  0  0  0  0  0
  -24.3389  -19.6092   19.1247 C   0  0  0  0  0  0  0  0  0  0  0  0
  -22.3492   -8.2993   21.3687 C   0  0  0  0  0  0  0  0  0  0  0  0
  -25.2255  -26.0626   25.7206 C   0  0  0  0  0  0  0  0  0  0  0  0
  -20.9420   -7.0993   22.8185 C   0  0  0  0  0  0  0  0  0  0  0  0
  -19.7831   -6.8186   25.3405 C   0  0  0  0  0  0  0  0  0  0  0  0
  -21.1794   -5.9491   23.5710 C   0  0  0  0  0  0  0  0  0  0  0  0
  -24.9343  -11.5908   20.7513 C   0  0  0  0  0  0  0  0  0  0  0  0
  -26.6957  -12.8758   20.4657 C   0  0  0  0  0  0  0  0  0  0  0  0
  -27.2425  -10.4565   20.7762 C   0  0  0  0  0  0  0  0  0  0  0  0
  -24.6768  -32.1519   23.9473 C   0  0  0  0  0  0  0  0  0  0  0  0
  -24.6561  -30.0985   21.6683 C   0  0  0  0  0  0  0  0  0  0  0  0
  -25.1493  -27.6121   19.3854 C   0  0  0  0  0  0  0  0  0  0  0  0
  -23.9791  -17.4087   18.0219 C   0  0  0  0  0  0  0  0  0  0  0  0
  -26.8198  -36.6427   22.8083 C   0  0  0  0  0  0  0  0  0  0  0  0
  -25.6104  -30.3267   25.3486 C   0  0  0  0  0  0  0  0  0  0  0  0
  -23.7310  -28.9590   23.7435 C   0  0  0  0  0  0  0  0  0  0  0  0
  -26.1314  -35.5307   22.0212 C   0  0  0  0  0  0  0  0  0  0  0  0
  -25.2437  -17.3424   21.3424 C   0  0  0  0  0  0  0  0  0  0  0  0
  -24.2235  -21.6873   23.7656 C   0  0  0  0  0  0  0  0  0  0  0  0
  -25.3459  -23.4388   22.3125 C   0  0  0  0  0  0  0  0  0  0  0  0
  -24.8120  -35.1462   22.6831 C   0  0  0  0  0  0  0  0  0  0  0  0
  -25.4370  -15.8427   21.5639 C   0  0  0  0  0  0  0  0  0  0  0  0
  -24.8906  -20.7172   16.4066 C   0  0  0  0  0  0  0  0  0  0  0  0
  -25.3156  -19.4254   15.7747 C   0  0  0  0  0  0  0  0  0  0  0  0
  -24.5568  -22.5122   25.0061 C   0  0  0  0  0  0  0  0  0  0  0  0
  -25.6739  -24.2542   23.5605 C   0  0  0  0  0  0  0  0  0  0  0  0
  -23.9669  -17.6455   20.5574 C   0  0  0  0  0  0  0  0  0  0  0  0
  -24.0558  -15.4116   19.4959 C   0  0  0  0  0  0  0  0  0  0  0  0
  -25.2377  -21.9378   22.6353 C   0  0  0  0  0  0  0  0  0  0  0  0
  -25.0420  -34.6083   24.1006 C   0  0  1  0  0  0  0  0  0  0  0  0
  -25.3890  -30.8317   23.9115 C   0  0  1  0  0  0  0  0  0  0  0  0
  -25.3608  -15.0736   20.2332 C   0  0  2  0  0  0  0  0  0  0  0  0
  -24.0858  -19.4680   16.6397 C   0  0  0  0  0  0  0  0  0  0  0  0
  -24.6680  -24.0007   24.6809 C   0  0  0  0  0  0  0  0  0  1  0  0
  -22.1412  -20.8083   18.8629 C   0  0  0  0  0  0  0  0  0  0  0  0
  -25.0486  -27.1529   16.9204 C   0  0  0  0  0  0  0  0  0  0  0  0
  -21.6111  -29.9979   21.8153 C   0  0  0  0  0  0  0  0  0  0  0  0
  -21.6243  -28.6547   19.7025 C   0  0  0  0  0  0  0  0  0  0  0  0
  -22.5221  -30.9820   19.7044 C   0  0  0  0  0  0  0  0  0  0  0  0
  -28.0287  -26.9366   19.2758 C   0  0  0  0  0  0  0  0  0  0  0  0
  -23.8409  -29.1439   20.8331 C   0  0  1  0  0  0  0  0  0  0  0  0
  -25.9300  -27.5796   18.0839 C   0  0  2  0  0  0  0  0  0  0  0  0
  -22.4140  -29.6858   20.5367 C   0  0  0  0  0  0  0  0  0  0  0  0
  -24.4319  -12.8199   20.6068 N   0  0  0  0  0  0  0  0  0  0  0  0
  -25.5275  -13.5791   20.4350 N   0  0  0  0  0  0  0  0  0  0  0  0
  -24.5599  -29.9632   23.0586 N   0  0  0  0  0  0  0  0  0  0  0  0
  -23.9192  -16.8590   19.3167 N   0  0  0  0  0  0  0  0  0  0  0  0
  -27.8909  -13.4835   20.3091 N   0  0  0  0  0  0  0  0  0  0  0  0
  -27.5916   -9.7673   19.6069 N   0  0  0  0  0  0  0  0  0  0  0  0
  -25.5186  -33.2427   24.0518 N   0  0  0  0  0  0  0  0  0  0  0  0
  -24.6339  -28.8652   19.6407 N   0  0  0  0  0  0  0  0  0  0  0  0
  -24.0566  -18.8183   17.9487 N   0  0  0  0  0  0  0  0  0  0  0  0
  -27.0685  -26.6234   18.1864 N   0  3  0  0  0  0  0  0  0  0  0  0
  -27.7125  -10.0775   21.8758 O   0  0  0  0  0  0  0  0  0  0  0  0
  -23.4534  -32.1803   23.8832 O   0  0  0  0  0  0  0  0  0  0  0  0
  -25.3557  -30.9457   21.1061 O   0  0  0  0  0  0  0  0  0  0  0  0
  -25.0076  -26.6236   20.1019 O   0  0  0  0  0  0  0  0  0  0  0  0
  -23.9347  -16.6985   17.0102 O   0  0  0  0  0  0  0  0  0  0  0  0
  -21.5173   -7.2405   21.5668 O   0  0  0  0  0  0  0  0  0  0  0  0
  -25.0899  -24.7127   25.8391 O   0  0  0  0  0  0  0  0  0  1  0  0
  -19.2278   -6.6846   26.5521 F   0  0  0  0  0  0  0  0  0  0  0  0
  -21.9642   -4.9760   23.0883 F   0  0  0  0  0  0  0  0  0  0  0  0
  1  2  1  0  0  0  0
  1  5  2  0  0  0  0
  2  6  2  0  0  0  0
  3 10  2  0  0  0  0
  3 18  1  0  0  0  0
  4 11  1  0  0  0  0
  4 18  2  0  0  0  0
  5 21  1  0  0  0  0
  6 23  1  0  0  0  0
  7  9  2  0  0  0  0
  7 20  1  0  0  0  0
  8 12  2  0  0  0  0
  8 22  1  0  0  0  0
  9 26  1  0  0  0  0
 10 27  1  0  0  0  0
 11 27  2  0  0  0  0
 12 28  1  0  0  0  0
 13 14  2  0  0  0  0
 13 29  1  0  0  0  0
 14 30  1  0  0  0  0
 15 20  2  0  0  0  0
 15 25  1  0  0  0  0
 16 24  1  0  0  0  0
 16 28  2  0  0  0  0
 17 30  2  0  0  0  0
 17 31  1  0  0  0  0
 18 32  1  0  0  0  0
 19 32  1  0  0  0  0
 19 33  2  0  0  0  0
 19 34  1  0  0  0  0
 20 54  1  0  0  0  0
 21 23  2  0  0  0  0
 21 39  1  0  0  0  0
 22 24  2  0  0  0  0
 22 40  1  0  0  0  0
 23 55  1  0  0  0  0
 24 41  1  0  0  0  0
 25 26  2  0  0  0  0
 25 60  1  0  0  0  0
 26 77  1  0  0  0  0
 27 84  1  0  0  0  0
 28 85  1  0  0  0  0
 29 31  2  0  0  0  0
 29 84  1  0  0  0  0
 30 86  1  0  0  0  0
 31 87  1  0  0  0  0
 32 69  2  0  0  0  0
 33 70  1  0  0  0  0
 33 73  1  0  0  0  0
 34 74  1  0  0  0  0
 34 79  2  0  0  0  0
 35 56  1  0  0  0  0
 35 75  1  0  0  0  0
 35 80  2  0  0  0  0
 36 66  1  0  0  0  0
 36 71  1  0  0  0  0
 36 81  2  0  0  0  0
 37 67  1  0  0  0  0
 37 76  1  0  0  0  0
 37 82  2  0  0  0  0
 38 72  1  0  0  0  0
 38 77  1  0  0  0  0
 38 83  2  0  0  0  0
 39 42  1  0  0  0  0
 40 56  1  0  0  0  0
 41 71  1  0  0  0  0
 42 46  1  0  0  0  0
 43 47  1  0  0  0  0
 43 52  1  0  0  0  0
 44 50  1  0  0  0  0
 44 54  1  0  0  0  0
 45 51  1  0  0  0  0
 45 54  1  0  0  0  0
 46 55  1  0  0  0  0
 47 57  1  0  0  0  0
 48 49  1  0  0  0  0
 48 58  1  0  0  0  0
 49 58  1  0  0  0  0
 50 59  1  0  0  0  0
 51 59  1  0  0  0  0
 52 72  1  0  0  0  0
 53 57  1  0  0  0  0
 53 72  1  0  0  0  0
 55 75  1  0  0  0  0
 56 71  1  0  0  0  0
 57 70  1  0  0  0  0
 58 77  1  0  0  0  0
 59 85  1  0  0  0  0
 61 67  1  0  0  0  0
 62 68  1  0  0  0  0
 63 68  1  0  0  0  0
 64 68  1  0  0  0  0
 65 78  1  0  0  0  0
 66 68  1  0  0  0  0
 66 76  1  0  0  0  0
 67 78  1  0  0  0  0
 69 70  1  0  0  0  0
M  CHG  1  78   1
M  ISO  4  38 100  59 101  77 100  85 101
M  END
> <Batch ID>
0143

> <Smiles>
CNC(C)C(=O)NC(C(=O)N1Cc2cc([101O:1][101CH:1]3CCC(c4ccc([100N:0](C5CC5)[100C:0](=O)N5CCCC(n6nc(-c7ccc(Oc8ccc(F)cc8F)cc7)c(C(N)=O)c6N)C5)c(C)c4)CC3)ccc2CC1C(=O)NC1CCCc2ccccc21)C(C)(C)C

> <Shape>
0.250

> <Color>
0.088

> <Negative vol penalty>
0.000

$$$$

  -OEChem-04052321213D

 88 97  0     1  0  0  0  0  0999 V2000
  -18.1065  -27.6213   22.1231 C   0  0  0  0  0  0  0  0  0  0  0  0
  -18.9794  -27.1993   21.1255 C   0  0  0  0  0  0  0  0  0  0  0  0
  -27.6251  -26.4105   17.4792 C   0  0  0  0  0  0  0  0  0  0  0  0
  -27.3509  -25.9151   19.8279 C   0  0  0  0  0  0  0  0  0  0  0  0
  -18.5153  -27.6106   23.4560 C   0  0  0  0  0  0  0  0  0  0  0  0
  -20.2623  -26.7672   21.4602 C   0  0  0  0  0  0  0  0  0  0  0  0
  -22.5030  -20.1353   19.7605 C   0  0  0  0  0  0  0  0  0  0  0  0
  -26.6156  -27.3693   17.5635 C   0  0  0  0  0  0  0  0  0  0  0  0
  -26.3414  -26.8740   19.9123 C   0  0  0  0  0  0  0  0  0  0  0  0
  -23.0782  -18.9568   19.2848 C   0  0  0  0  0  0  0  0  0  0  0  0
  -26.1166  -30.2385   20.1371 C   0  0  0  0  0  0  0  0  0  0  0  0
  -26.1448  -31.1132   21.2231 C   0  0  0  0  0  0  0  0  0  0  0  0
  -25.1357  -19.4812   20.4422 C   0  0  0  0  0  0  0  0  0  0  0  0
  -26.7708  -13.2655   19.9421 C   0  0  0  0  0  0  0  0  0  0  0  0
  -27.2556  -14.7237   21.7923 C   0  0  0  0  0  0  0  0  0  0  0  0
  -23.9702  -30.3217   21.9173 C   0  0  0  0  0  0  0  0  0  0  0  0
  -27.9927  -25.6833   18.6114 C   0  0  0  0  0  0  0  0  0  0  0  0
  -30.3756  -24.8991   18.1481 C   0  0  0  0  0  0  0  0  0  0  0  0
  -19.8005  -27.1691   23.8081 C   0  0  0  0  0  0  0  0  0  0  0  0
  -23.2377  -20.9847   20.5924 C   0  0  0  0  0  0  0  0  0  0  0  0
  -20.6892  -26.7518   22.7989 C   0  0  0  0  0  0  0  0  0  0  0  0
  -24.5606  -20.6569   20.9319 C   0  0  0  0  0  0  0  0  0  0  0  0
  -25.9738  -27.6011   18.7800 C   0  0  0  0  0  0  0  0  0  0  0  0
  -24.3914  -18.6307   19.6246 C   0  0  0  0  0  0  0  0  0  0  0  0
  -25.0151  -29.4054   19.9410 C   0  0  0  0  0  0  0  0  0  0  0  0
  -26.4230  -14.3465   20.7445 C   0  0  0  0  0  0  0  0  0  0  0  0
  -25.0717  -31.1549   22.1133 C   0  0  0  0  0  0  0  0  0  0  0  0
  -23.9420  -29.4470   20.8311 C   0  0  0  0  0  0  0  0  0  0  0  0
  -29.0350  -24.6923   18.5248 C   0  0  0  0  0  0  0  0  0  0  0  0
  -27.9523  -12.6001   20.2268 C   0  0  0  0  0  0  0  0  0  0  0  0
  -28.4154  -13.9929   21.9942 C   0  0  0  0  0  0  0  0  0  0  0  0
  -30.9501  -23.6540   18.2257 C   0  0  0  0  0  0  0  0  0  0  0  0
  -31.0419  -26.1087   17.7626 C   0  0  0  0  0  0  0  0  0  0  0  0
  -23.3099  -24.1549   22.5977 C   0  0  0  0  0  0  0  0  0  0  0  0
  -24.7719  -22.0226   24.2489 C   0  0  0  0  0  0  0  0  0  0  0  0
  -25.9338  -19.2896   25.9277 C   0  0  0  0  0  0  0  0  0  0  0  0
  -29.6134  -18.9010   21.4490 C   0  0  0  0  0  0  0  0  0  0  0  0
  -20.2138  -27.2202   25.2577 C   0  0  0  0  0  0  0  0  0  0  0  0
  -22.6794  -22.2948   21.0780 C   0  0  0  0  0  0  0  0  0  0  0  0
  -25.3248  -21.6178   21.8012 C   0  0  0  0  0  0  0  0  0  0  0  0
  -21.4600  -26.3938   25.5652 C   0  0  0  0  0  0  0  0  0  0  0  0
  -29.8794  -19.0055   17.8422 C   0  0  0  0  0  0  0  0  0  0  0  0
  -22.5462  -26.6596   24.5278 C   0  0  0  0  0  0  0  0  0  0  0  0
  -31.5667  -15.5787   23.6927 C   0  0  0  0  0  0  0  0  0  0  0  0
  -29.8207  -20.5110   17.5784 C   0  0  0  0  0  0  0  0  0  0  0  0
  -31.5712  -17.0506   23.2303 C   0  0  0  0  0  0  0  0  0  0  0  0
  -28.9482  -18.6065   18.9836 C   0  0  0  0  0  0  0  0  0  0  0  0
  -29.1265  -20.8454   19.9954 C   0  0  0  0  0  0  0  0  0  0  0  0
  -22.0803  -26.2527   23.1246 C   0  0  1  0  0  0  0  0  0  0  0  0
  -23.1555  -22.6660   22.4939 C   0  0  1  0  0  0  0  0  0  0  0  0
  -30.4179  -15.3390   22.6790 C   0  0  2  0  0  0  0  0  0  0  0  0
  -30.0645  -21.3154   18.8688 C   0  0  2  0  0  0  0  0  0  0  0  0
  -30.0933  -16.8529   22.8207 C   0  0  2  0  0  0  0  0  0  0  0  0
  -28.3584  -11.4363   19.3858 C   0  0  0  0  0  0  0  0  0  0  0  0
  -26.8302  -17.9426   27.8459 C   0  0  0  0  0  0  0  0  0  0  0  0
  -27.4432  -23.1799   23.3386 C   0  0  0  0  0  0  0  0  0  0  0  0
  -28.5741  -21.6980   25.0099 C   0  0  0  0  0  0  0  0  0  0  0  0
  -26.9685  -23.4451   25.7796 C   0  0  0  0  0  0  0  0  0  0  0  0
  -23.2133  -18.6638   26.9107 C   0  0  0  0  0  0  0  0  0  0  0  0
  -29.1010  -12.4899   24.4970 C   0  0  0  0  0  0  0  0  0  0  0  0
  -24.0615  -16.3799   18.9299 C   0  0  0  0  0  0  0  0  0  1  0  0
  -24.8125  -15.0823   19.1568 C   0  0  0  0  0  0  0  0  0  0  0  0
  -29.3335  -14.3713   23.1082 C   0  0  2  0  0  0  0  0  0  0  0  0
  -26.0899  -21.3843   24.6077 C   0  0  1  0  0  0  0  0  0  0  0  0
  -25.6717  -18.7853   27.3353 C   0  0  2  0  0  0  0  0  0  0  0  0
  -27.2520  -22.4158   24.6639 C   0  0  0  0  0  0  0  0  0  0  0  0
  -28.7734  -23.4161   18.8197 N   0  0  0  0  0  0  0  0  0  0  0  0
  -28.7866  -12.9372   21.2358 N   0  0  0  0  0  0  0  0  0  0  0  0
  -29.9574  -22.8098   18.6282 N   0  0  0  0  0  0  0  0  0  0  0  0
  -24.4612  -22.1092   22.8864 N   0  0  0  0  0  0  0  0  0  0  0  0
  -29.2454  -19.3958   20.1877 N   0  0  0  0  0  0  0  0  0  0  0  0
  -32.2026  -23.2098   17.9882 N   0  0  0  0  0  0  0  0  0  0  0  0
  -31.6506  -26.8832   18.7596 N   0  0  0  0  0  0  0  0  0  0  0  0
  -22.1534  -24.8163   22.9645 N   0  0  0  0  0  0  0  0  0  0  0  0
  -25.8684  -20.6652   25.8576 N   0  0  0  0  0  0  0  0  0  0  0  0
  -29.7098  -17.5178   21.5582 N   0  0  0  0  0  0  0  0  0  0  0  0
  -24.4359  -17.9529   27.3656 N   0  3  0  0  0  0  0  0  0  0  0  0
  -31.0819  -26.4998   16.5714 O   0  0  0  0  0  0  0  0  0  0  0  0
  -24.3984  -24.6671   22.3640 O   0  0  0  0  0  0  0  0  0  0  0  0
  -24.0383  -22.4390   25.1498 O   0  0  0  0  0  0  0  0  0  0  0  0
  -26.1762  -18.5387   24.9854 O   0  0  0  0  0  0  0  0  0  0  0  0
  -29.8475  -19.6356   22.4150 O   0  0  0  0  0  0  0  0  0  0  0  0
  -24.9889  -28.5369   18.8627 O   0  0  0  0  0  0  0  0  0  0  0  0
  -24.9452  -17.4763   19.1604 O   0  0  0  0  0  0  0  0  0  1  0  0
  -25.2638  -15.0363   20.5050 O   0  0  0  0  0  0  0  0  0  0  0  0
  -29.9630  -13.1898   23.6163 O   0  0  0  0  0  0  0  0  0  0  0  0
  -25.0997  -31.9938   23.1570 F   0  0  0  0  0  0  0  0  0  0  0  0
  -22.8816  -28.6482   20.6487 F   0  0  0  0  0  0  0  0  0  0  0  0
  1  2  1  0  0  0  0
  1  5  2  0  0  0  0
  2  6  2  0  0  0  0
  3  8  2  0  0  0  0
  3 17  1  0  0  0  0
  4  9  1  0  0  0  0
  4 17  2  0  0  0  0
  5 19  1  0  0  0  0
  6 21  1  0  0  0  0
  7 10  2  0  0  0  0
  7 20  1  0  0  0  0
  8 23  1  0  0  0  0
  9 23  2  0  0  0  0
 10 24  1  0  0  0  0
 11 12  2  0  0  0  0
 11 25  1  0  0  0  0
 12 27  1  0  0  0  0
 13 22  1  0  0  0  0
 13 24  2  0  0  0  0
 14 26  1  0  0  0  0
 14 30  2  0  0  0  0
 15 26  2  0  0  0  0
 15 31  1  0  0  0  0
 16 27  2  0  0  0  0
 16 28  1  0  0  0  0
 17 29  1  0  0  0  0
 18 29  1  0  0  0  0
 18 32  2  0  0  0  0
 18 33  1  0  0  0  0
 19 21  2  0  0  0  0
 19 38  1  0  0  0  0
 20 22  2  0  0  0  0
 20 39  1  0  0  0  0
 21 49  1  0  0  0  0
 22 40  1  0  0  0  0
 23 83  1  0  0  0  0
 24 84  1  0  0  0  0
 25 28  2  0  0  0  0
 25 83  1  0  0  0  0
 26 85  1  0  0  0  0
 27 87  1  0  0  0  0
 28 88  1  0  0  0  0
 29 67  2  0  0  0  0
 30 54  1  0  0  0  0
 30 68  1  0  0  0  0
 31 63  1  0  0  0  0
 31 68  2  0  0  0  0
 32 69  1  0  0  0  0
 32 72  1  0  0  0  0
 33 73  1  0  0  0  0
 33 78  2  0  0  0  0
 34 50  1  0  0  0  0
 34 74  1  0  0  0  0
 34 79  2  0  0  0  0
 35 64  1  0  0  0  0
 35 70  1  0  0  0  0
 35 80  2  0  0  0  0
 36 65  1  0  0  0  0
 36 75  1  0  0  0  0
 36 81  2  0  0  0  0
 37 71  1  0  0  0  0
 37 76  1  0  0  0  0
 37 82  2  0  0  0  0
 38 41  1  0  0  0  0
 39 50  1  0  0  0  0
 40 70  1  0  0  0  0
 41 43  1  0  0  0  0
 42 45  1  0  0  0  0
 42 47  1  0  0  0  0
 43 49  1  0  0  0  0
 44 46  1  0  0  0  0
 44 51  1  0  0  0  0
 45 52  1  0  0  0  0
 46 53  1  0  0  0  0
 47 71  1  0  0  0  0
 48 52  1  0  0  0  0
 48 71  1  0  0  0  0
 49 74  1  0  0  0  0
 50 70  1  0  0  0  0
 51 53  1  0  0  0  0
 51 63  1  0  0  0  0
 52 69  1  0  0  0  0
 53 76  1  0  0  0  0
 55 65  1  0  0  0  0
 56 66  1  0  0  0  0
 57 66  1  0  0  0  0
 58 66  1  0  0  0  0
 59 77  1  0  0  0  0
 60 86  1  0  0  0  0
 61 62  1  0  0  0  0
 61 84  1  0  0  0  0
 62 85  1  0  0  0  0
 63 86  1  0  0  0  0
 64 66  1  0  0  0  0
 64 75  1  0  0  0  0
 65 77  1  0  0  0  0
 67 69  1  0  0  0  0
M  CHG  1  77   1
M  ISO  4  37 100  61 101  76 100  84 101
M  END
> <Batch ID>
0143

> <Smiles>
CNC(C)C(=O)NC(C(=O)N1Cc2cc([101O:1][101CH2:1]COc3cc(C)nc(C(OC)C4CCC4[100NH:0][100C:0](=O)N4CCCC(n5nc(-c6ccc(Oc7ccc(F)cc7F)cc6)c(C(N)=O)c5N)C4)c3)ccc2CC1C(=O)NC1CCCc2ccccc21)C(C)(C)C

> <Shape>
0.249

> <Color>
0.063

> <Negative vol penalty>
0.000

$$$$

  -OEChem-04052321213D

 89100  0     1  0  0  0  0  0999 V2000
  -28.6890  -35.2203   26.3171 C   0  0  0  0  0  0  0  0  0  0  0  0
  -28.9878  -34.4966   25.1671 C   0  0  0  0  0  0  0  0  0  0  0  0
  -25.9257   -9.5243   19.0569 C   0  0  0  0  0  0  0  0  0  0  0  0
  -24.9582   -9.0287   21.2146 C   0  0  0  0  0  0  0  0  0  0  0  0
  -27.7688  -34.7179   27.2362 C   0  0  0  0  0  0  0  0  0  0  0  0
  -28.3672  -33.2694   24.9362 C   0  0  0  0  0  0  0  0  0  0  0  0
  -26.7106  -30.9436   19.5184 C   0  0  0  0  0  0  0  0  0  0  0  0
  -26.2173   -8.1722   18.8771 C   0  0  0  0  0  0  0  0  0  0  0  0
  -25.2498   -7.6765   21.0347 C   0  0  0  0  0  0  0  0  0  0  0  0
  -27.3158  -30.0165   18.6711 C   0  0  0  0  0  0  0  0  0  0  0  0
  -25.4144   -4.0449   20.9871 C   0  0  0  0  0  0  0  0  0  0  0  0
  -24.4222   -3.1185   21.3079 C   0  0  0  0  0  0  0  0  0  0  0  0
  -25.9635  -28.2650   19.6317 C   0  0  0  0  0  0  0  0  0  0  0  0
  -27.6600  -25.3838   17.7654 C   0  0  0  0  0  0  0  0  0  0  0  0
  -22.9556   -4.1226   19.6713 C   0  0  0  0  0  0  0  0  0  0  0  0
  -25.2962   -9.9526   20.2257 C   0  0  0  0  0  0  0  0  0  0  0  0
  -23.8165  -12.0221   20.0386 C   0  0  0  0  0  0  0  0  0  0  0  0
  -27.1295  -33.4885   27.0116 C   0  0  0  0  0  0  0  0  0  0  0  0
  -25.7335  -30.5359   20.4378 C   0  0  0  0  0  0  0  0  0  0  0  0
  -27.4386  -32.7494   25.8538 C   0  0  0  0  0  0  0  0  0  0  0  0
  -25.3456  -29.1893   20.4878 C   0  0  0  0  0  0  0  0  0  0  0  0
  -28.7528  -24.2177   19.5247 C   0  0  0  0  0  0  0  0  0  0  0  0
  -28.0739  -24.1765   18.3234 C   0  0  0  0  0  0  0  0  0  0  0  0
  -25.8794   -7.2483   19.8660 C   0  0  0  0  0  0  0  0  0  0  0  0
  -26.9443  -28.6764   18.7296 C   0  0  0  0  0  0  0  0  0  0  0  0
  -25.1772   -5.0102   20.0086 C   0  0  0  0  0  0  0  0  0  0  0  0
  -23.1928   -3.1573   20.6499 C   0  0  0  0  0  0  0  0  0  0  0  0
  -23.9479   -5.0491   19.3506 C   0  0  0  0  0  0  0  0  0  0  0  0
  -24.9952  -11.3492   20.4123 C   0  0  0  0  0  0  0  0  0  0  0  0
  -28.9862  -25.4505   20.1272 C   0  0  0  0  0  0  0  0  0  0  0  0
  -27.9426  -26.5677   18.4471 C   0  0  0  0  0  0  0  0  0  1  0  0
  -24.0240  -13.3219   20.4311 C   0  0  0  0  0  0  0  0  0  0  0  0
  -22.6393  -11.5174   19.3943 C   0  0  0  0  0  0  0  0  0  0  0  0
  -25.4858  -30.5608   23.6067 C   0  0  0  0  0  0  0  0  0  0  0  0
  -22.4729  -29.5291   22.9898 C   0  0  0  0  0  0  0  0  0  0  0  0
  -20.3276  -27.9683   20.8432 C   0  0  0  0  0  0  0  0  0  0  0  0
  -27.5348  -17.6769   20.4389 C   0  0  0  0  0  0  0  0  0  0  0  0
  -26.1773  -32.9639   28.0569 C   0  0  0  0  0  0  0  0  0  0  0  0
  -25.0711  -31.5528   21.3264 C   0  0  0  0  0  0  0  0  0  0  0  0
  -24.2872  -28.7039   21.4430 C   0  0  0  0  0  0  0  0  0  0  0  0
  -29.6904  -25.2764   21.4434 C   0  0  0  0  0  0  0  0  0  0  0  0
  -25.2838  -31.8328   27.5542 C   0  0  0  0  0  0  0  0  0  0  0  0
  -30.2481  -23.8517   21.2896 C   0  0  0  0  0  0  0  0  0  0  0  0
  -27.6287  -15.3579   23.3318 C   0  0  0  0  0  0  0  0  0  0  0  0
  -26.1077  -30.8009   26.7907 C   0  0  0  0  0  0  0  0  0  0  0  0
  -28.6128  -21.6365   15.4550 C   0  0  0  0  0  0  0  0  0  0  0  0
  -28.9206  -23.0925   15.2423 C   0  0  0  0  0  0  0  0  0  0  0  0
  -26.8841  -14.1462   22.7693 C   0  0  0  0  0  0  0  0  0  0  0  0
  -27.6841  -20.5674   22.7049 C   0  0  0  0  0  0  0  0  0  0  0  0
  -28.3739  -16.0994   22.2295 C   0  0  0  0  0  0  0  0  0  0  0  0
  -27.8030  -19.0511   22.5869 C   0  0  0  0  0  0  0  0  0  0  0  0
  -26.7654  -15.3331   20.5257 C   0  0  0  0  0  0  0  0  0  0  0  0
  -28.2457  -20.0519   20.4465 C   0  0  0  0  0  0  0  0  0  0  0  0
  -26.7677  -31.4261   25.5557 C   0  0  1  0  0  0  0  0  0  0  0  0
  -29.2850  -23.0966   20.3540 C   0  0  1  0  0  0  0  0  0  0  0  0
  -24.4557  -30.9399   22.5806 C   0  0  1  0  0  0  0  0  0  0  0  0
  -28.9072  -22.5226   16.6336 C   0  0  0  0  0  0  0  0  0  0  0  0
  -25.9793  -14.5470   21.5899 C   0  0  1  0  0  0  0  0  0  0  0  0
  -28.5640  -21.0372   21.5561 C   0  0  1  0  0  0  0  0  0  0  0  0
  -17.9357  -27.2393   20.6319 C   0  0  0  0  0  0  0  0  0  0  0  0
  -23.0204  -27.1942   24.8762 C   0  0  0  0  0  0  0  0  0  0  0  0
  -21.0251  -26.0337   23.9066 C   0  0  0  0  0  0  0  0  0  0  0  0
  -20.7442  -28.2055   25.1012 C   0  0  0  0  0  0  0  0  0  0  0  0
  -19.8931  -29.6835   18.4707 C   0  0  0  0  0  0  0  0  0  0  0  0
  -27.7942  -22.9014   17.6090 C   0  0  0  0  0  0  0  0  0  0  0  0
  -21.8201  -28.1794   22.8135 C   0  0  1  0  0  0  0  0  0  0  0  0
  -18.9413  -28.3455   20.3529 C   0  0  2  0  0  0  0  0  0  0  0  0
  -21.6738  -27.4117   24.1576 C   0  0  0  0  0  0  0  0  0  0  0  0
  -25.8856  -12.1549   20.9972 N   0  0  0  0  0  0  0  0  0  0  0  0
  -28.5983  -26.6366   19.6307 N   0  0  0  0  0  0  0  0  0  0  0  0
  -25.2661  -13.3476   20.9938 N   0  0  0  0  0  0  0  0  0  0  0  0
  -23.6734  -29.7353   22.2956 N   0  0  0  0  0  0  0  0  0  0  0  0
  -27.4726  -16.4630   21.1325 N   0  0  0  0  0  0  0  0  0  0  0  0
  -27.9450  -18.8050   21.1480 N   0  0  0  0  0  0  0  0  0  0  0  0
  -23.2633  -14.4339   20.3463 N   0  0  0  0  0  0  0  0  0  0  0  0
  -22.5918  -10.1572   19.0598 N   0  0  0  0  0  0  0  0  0  0  0  0
  -25.8021  -31.5767   24.4884 N   0  0  0  0  0  0  0  0  0  0  0  0
  -20.5577  -28.4234   22.1242 N   0  0  0  0  0  0  0  0  0  0  0  0
  -28.2394  -22.4178   21.1617 N   0  3  0  0  0  0  0  0  0  0  0  0
  -18.9629  -28.6018   18.8850 N   0  3  0  0  0  0  0  0  0  0  0  0
  -21.6652  -12.2543   19.1085 O   0  0  0  0  0  0  0  0  0  0  0  0
  -25.9575  -29.4298   23.6000 O   0  0  0  0  0  0  0  0  0  0  0  0
  -21.9336  -30.3720   23.7112 O   0  0  0  0  0  0  0  0  0  0  0  0
  -21.1251  -27.3302   20.1595 O   0  0  0  0  0  0  0  0  0  0  0  0
  -27.1926  -17.7593   19.2519 O   0  0  0  0  0  0  0  0  0  0  0  0
  -26.1636   -5.9288   19.6907 O   0  0  0  0  0  0  0  0  0  0  0  0
  -27.5422  -27.7565   17.8925 O   0  0  0  0  0  0  0  0  0  1  0  0
  -22.2406   -2.2666   20.9569 F   0  0  0  0  0  0  0  0  0  0  0  0
  -23.7146   -5.9734   18.4088 F   0  0  0  0  0  0  0  0  0  0  0  0
  1  2  1  0  0  0  0
  1  5  2  0  0  0  0
  2  6  2  0  0  0  0
  3  8  2  0  0  0  0
  3 16  1  0  0  0  0
  4  9  1  0  0  0  0
  4 16  2  0  0  0  0
  5 18  1  0  0  0  0
  6 20  1  0  0  0  0
  7 10  2  0  0  0  0
  7 19  1  0  0  0  0
  8 24  1  0  0  0  0
  9 24  2  0  0  0  0
 10 25  1  0  0  0  0
 11 12  2  0  0  0  0
 11 26  1  0  0  0  0
 12 27  1  0  0  0  0
 13 21  1  0  0  0  0
 13 25  2  0  0  0  0
 14 23  2  0  0  0  0
 14 31  1  0  0  0  0
 15 27  2  0  0  0  0
 15 28  1  0  0  0  0
 16 29  1  0  0  0  0
 17 29  1  0  0  0  0
 17 32  2  0  0  0  0
 17 33  1  0  0  0  0
 18 20  2  0  0  0  0
 18 38  1  0  0  0  0
 19 21  2  0  0  0  0
 19 39  1  0  0  0  0
 20 54  1  0  0  0  0
 21 40  1  0  0  0  0
 22 23  1  0  0  0  0
 22 30  2  0  0  0  0
 22 55  1  0  0  0  0
 23 65  1  0  0  0  0
 24 86  1  0  0  0  0
 25 87  1  0  0  0  0
 26 28  2  0  0  0  0
 26 86  1  0  0  0  0
 27 88  1  0  0  0  0
 28 89  1  0  0  0  0
 29 69  2  0  0  0  0
 30 41  1  0  0  0  0
 30 70  1  0  0  0  0
 31 70  2  0  0  0  0
 31 87  1  0  0  0  0
 32 71  1  0  0  0  0
 32 75  1  0  0  0  0
 33 76  1  0  0  0  0
 33 81  2  0  0  0  0
 34 56  1  0  0  0  0
 34 77  1  0  0  0  0
 34 82  2  0  0  0  0
 35 66  1  0  0  0  0
 35 72  1  0  0  0  0
 35 83  2  0  0  0  0
 36 67  1  0  0  0  0
 36 78  1  0  0  0  0
 36 84  2  0  0  0  0
 37 73  1  0  0  0  0
 37 74  1  0  0  0  0
 37 85  2  0  0  0  0
 38 42  1  0  0  0  0
 39 56  1  0  0  0  0
 40 72  1  0  0  0  0
 41 43  1  0  0  0  0
 42 45  1  0  0  0  0
 43 55  1  0  0  0  0
 44 48  1  0  0  0  0
 44 50  1  0  0  0  0
 45 54  1  0  0  0  0
 46 47  1  0  0  0  0
 46 57  1  0  0  0  0
 47 57  1  0  0  0  0
 48 58  1  0  0  0  0
 49 51  1  0  0  0  0
 49 59  1  0  0  0  0
 50 73  1  0  0  0  0
 51 74  1  0  0  0  0
 52 58  1  0  0  0  0
 52 73  1  0  0  0  0
 53 59  1  0  0  0  0
 53 74  1  0  0  0  0
 54 77  1  0  0  0  0
 55 79  1  0  0  0  0
 56 72  1  0  0  0  0
 57 65  1  0  0  0  0
 58 71  1  0  0  0  0
 59 79  1  0  0  0  0
 60 67  1  0  0  0  0
 61 68  1  0  0  0  0
 62 68  1  0  0  0  0
 63 68  1  0  0  0  0
 64 80  1  0  0  0  0
 66 68  1  0  0  0  0
 66 78  1  0  0  0  0
 67 80  1  0  0  0  0
 69 71  1  0  0  0  0
M  CHG  2  79   1  80   1
M  ISO  4  31 101  37 100  74 100  87 101
M  END
> <Batch ID>
0143

> <Smiles>
CNC(C)C(=O)NC(C(=O)N1Cc2cc([101O:1][101c:1]3cc(CC4CC4)c4c(n3)CCC4NC3CC[100N:0]([100C:0](=O)N4CCCC(n5nc(-c6ccc(Oc7ccc(F)cc7F)cc6)c(C(N)=O)c5N)C4)C3)ccc2CC1C(=O)NC1CCCc2ccccc21)C(C)(C)C

> <Shape>
0.253

> <Color>
0.071

> <Negative vol penalty>
0.000

$$$$

  -OEChem-04052321213D

 90 99  0     1  0  0  0  0  0999 V2000
  -27.3476  -32.4228   27.9525 C   0  0  0  0  0  0  0  0  0  0  0  0
  -28.1130  -31.4199   27.3662 C   0  0  0  0  0  0  0  0  0  0  0  0
  -23.0743   -9.8639   19.9408 C   0  0  0  0  0  0  0  0  0  0  0  0
  -23.8349   -9.8722   22.2339 C   0  0  0  0  0  0  0  0  0  0  0  0
  -26.3409  -33.0489   27.2187 C   0  0  0  0  0  0  0  0  0  0  0  0
  -27.8713  -31.0418   26.0460 C   0  0  0  0  0  0  0  0  0  0  0  0
  -32.1344  -30.5244   23.3620 C   0  0  0  0  0  0  0  0  0  0  0  0
  -22.3310   -8.7106   20.1914 C   0  0  0  0  0  0  0  0  0  0  0  0
  -23.0915   -8.7189   22.4846 C   0  0  0  0  0  0  0  0  0  0  0  0
  -32.8701  -29.3558   23.5545 C   0  0  0  0  0  0  0  0  0  0  0  0
  -19.8639   -7.9200   23.0885 C   0  0  0  0  0  0  0  0  0  0  0  0
  -19.1073   -7.8803   24.2596 C   0  0  0  0  0  0  0  0  0  0  0  0
  -31.9247  -28.4352   21.5351 C   0  0  0  0  0  0  0  0  0  0  0  0
  -29.7488  -17.7111   22.7156 C   0  0  0  0  0  0  0  0  0  0  0  0
  -20.3497   -5.9437   24.9966 C   0  0  0  0  0  0  0  0  0  0  0  0
  -23.8263  -10.4447   20.9620 C   0  0  0  0  0  0  0  0  0  0  0  0
  -24.1670  -12.9700   20.8407 C   0  0  0  0  0  0  0  0  0  0  0  0
  -26.0932  -32.6849   25.8858 C   0  0  0  0  0  0  0  0  0  0  0  0
  -31.2786  -30.6530   22.2587 C   0  0  0  0  0  0  0  0  0  0  0  0
  -26.8595  -31.6626   25.2941 C   0  0  0  0  0  0  0  0  0  0  0  0
  -31.1812  -29.6074   21.3296 C   0  0  0  0  0  0  0  0  0  0  0  0
  -30.2231  -18.9456   23.1450 C   0  0  0  0  0  0  0  0  0  0  0  0
  -31.4857  -19.3743   22.7509 C   0  0  0  0  0  0  0  0  0  0  0  0
  -22.3396   -8.1381   21.4634 C   0  0  0  0  0  0  0  0  0  0  0  0
  -32.7631  -28.3099   22.6425 C   0  0  0  0  0  0  0  0  0  0  0  0
  -20.8634   -6.9715   22.8713 C   0  0  0  0  0  0  0  0  0  0  0  0
  -19.3502   -6.8922   25.2137 C   0  0  0  0  0  0  0  0  0  0  0  0
  -21.1063   -5.9834   23.8254 C   0  0  0  0  0  0  0  0  0  0  0  0
  -24.5948  -11.6358   20.7035 C   0  0  0  0  0  0  0  0  0  0  0  0
  -32.2287  -18.5380   21.9335 C   0  0  0  0  0  0  0  0  0  0  0  0
  -30.5694  -16.9493   21.8995 C   0  0  0  0  0  0  0  0  0  0  0  0
  -25.2588  -13.7197   20.4768 C   0  0  0  0  0  0  0  0  0  0  0  0
  -22.8965  -13.4854   21.2598 C   0  0  0  0  0  0  0  0  0  0  0  0
  -28.1495  -31.0670   21.8832 C   0  0  0  0  0  0  0  0  0  0  0  0
  -28.9573  -31.3548   18.7548 C   0  0  0  0  0  0  0  0  0  0  0  0
  -31.1812  -30.6602   16.2611 C   0  0  0  0  0  0  0  0  0  0  0  0
  -30.7246  -14.7677   20.6494 C   0  0  0  0  0  0  0  0  0  0  0  0
  -24.9628  -33.3574   25.1477 C   0  0  0  0  0  0  0  0  0  0  0  0
  -30.5122  -31.9305   22.0509 C   0  0  0  0  0  0  0  0  0  0  0  0
  -30.2920  -29.7036   20.1177 C   0  0  0  0  0  0  0  0  0  0  0  0
  -25.0190  -33.1579   23.6353 C   0  0  0  0  0  0  0  0  0  0  0  0
  -29.6105  -12.3524   18.2825 C   0  0  0  0  0  0  0  0  0  0  0  0
  -25.2890  -31.6947   23.2995 C   0  0  0  0  0  0  0  0  0  0  0  0
  -33.2947  -23.4736   22.2021 C   0  0  0  0  0  0  0  0  0  0  0  0
  -28.1711  -12.0604   18.7127 C   0  0  0  0  0  0  0  0  0  0  0  0
  -33.8816  -24.8178   22.6146 C   0  0  0  0  0  0  0  0  0  0  0  0
  -31.5630  -25.7144   23.0093 C   0  0  0  0  0  0  0  0  0  0  0  0
  -30.5258  -12.5821   19.4838 C   0  0  0  0  0  0  0  0  0  0  0  0
  -28.6190  -13.3064   20.8653 C   0  0  0  0  0  0  0  0  0  0  0  0
  -26.6440  -31.2418   23.8565 C   0  0  1  0  0  0  0  0  0  0  0  0
  -29.2803  -31.7515   21.1689 C   0  0  1  0  0  0  0  0  0  0  0  0
  -31.9370  -23.2066   22.8754 C   0  0  1  0  0  0  0  0  0  0  0  0
  -30.9482  -24.3666   22.5986 C   0  0  1  0  0  0  0  0  0  0  0  0
  -27.6459  -13.1322   19.6878 C   0  0  2  0  0  0  0  0  0  0  0  0
  -32.9113  -25.9591   22.3361 C   0  0  1  0  0  0  0  0  0  1  0  0
  -29.3618  -19.7891   24.0258 C   0  0  0  0  0  0  0  0  0  0  0  0
  -33.5926  -18.9451   21.4792 C   0  0  0  0  0  0  0  0  0  0  0  0
  -31.5510  -30.9951   13.8017 C   0  0  0  0  0  0  0  0  0  0  0  0
  -29.8138  -24.1615   24.8290 C   0  0  0  0  0  0  0  0  0  0  0  0
  -28.6327  -25.2826   22.9180 C   0  0  0  0  0  0  0  0  0  0  0  0
  -26.8947  -29.1886   18.1521 C   0  0  0  0  0  0  0  0  0  0  0  0
  -27.9592  -28.8981   15.9047 C   0  0  0  0  0  0  0  0  0  0  0  0
  -26.9251  -31.0832   16.5200 C   0  0  0  0  0  0  0  0  0  0  0  0
  -33.6805  -32.1758   16.7253 C   0  0  0  0  0  0  0  0  0  0  0  0
  -32.0265  -20.7084   23.1997 C   0  0  0  0  0  0  0  0  0  0  0  0
  -31.3979  -21.8517   22.4079 C   0  0  0  0  0  0  0  0  0  0  0  0
  -29.1073  -30.3978   17.5970 C   0  0  1  0  0  0  0  0  0  0  0  0
  -31.8093  -31.5421   15.1970 C   0  0  2  0  0  0  0  0  0  0  0  0
  -29.6089  -24.1805   23.3173 C   0  0  0  0  0  0  0  0  0  0  0  0
  -27.7369  -29.8890   17.0672 C   0  0  0  0  0  0  0  0  0  0  0  0
  -25.8596  -11.5403   20.2848 N   0  0  0  0  0  0  0  0  0  0  0  0
  -31.8016  -17.3322   21.4960 N   0  0  0  0  0  0  0  0  0  0  0  0
  -26.2359  -12.8240   20.1558 N   0  0  0  0  0  0  0  0  0  0  0  0
  -29.5581  -30.9703   19.9619 N   0  0  0  0  0  0  0  0  0  0  0  0
  -29.9667  -13.6131   20.3609 N   0  0  0  0  0  0  0  0  0  0  0  0
  -25.4686  -15.0513   20.4031 N   0  0  0  0  0  0  0  0  0  0  0  0
  -21.8850  -12.5760   21.5977 N   0  0  0  0  0  0  0  0  0  0  0  0
  -30.0770  -15.6929   21.4675 N   0  0  0  0  0  0  0  0  0  0  0  0
  -27.7215  -31.7255   23.0201 N   0  0  0  0  0  0  0  0  0  0  0  0
  -29.9148  -31.0892   16.5978 N   0  0  0  0  0  0  0  0  0  0  0  0
  -33.2828  -31.6312   15.4016 N   0  3  0  0  0  0  0  0  0  0  0  0
  -22.6597  -14.7160   21.3166 O   0  0  0  0  0  0  0  0  0  0  0  0
  -27.6976  -30.0197   21.4352 O   0  0  0  0  0  0  0  0  0  0  0  0
  -28.3363  -32.4081   18.5922 O   0  0  0  0  0  0  0  0  0  0  0  0
  -31.7551  -29.6858   16.7425 O   0  0  0  0  0  0  0  0  0  0  0  0
  -31.8534  -14.9367   20.1813 O   0  0  0  0  0  0  0  0  0  0  0  0
  -21.6142   -7.0128   21.7084 O   0  0  0  0  0  0  0  0  0  0  0  0
  -33.4796  -27.1680   22.8284 O   0  0  0  0  0  0  0  0  0  1  0  0
  -18.6246   -6.8551   26.3390 F   0  0  0  0  0  0  0  0  0  0  0  0
  -22.0659   -5.0702   23.6229 F   0  0  0  0  0  0  0  0  0  0  0  0
  1  2  1  0  0  0  0
  1  5  2  0  0  0  0
  2  6  2  0  0  0  0
  3  8  2  0  0  0  0
  3 16  1  0  0  0  0
  4  9  1  0  0  0  0
  4 16  2  0  0  0  0
  5 18  1  0  0  0  0
  6 20  1  0  0  0  0
  7 10  2  0  0  0  0
  7 19  1  0  0  0  0
  8 24  1  0  0  0  0
  9 24  2  0  0  0  0
 10 25  1  0  0  0  0
 11 12  2  0  0  0  0
 11 26  1  0  0  0  0
 12 27  1  0  0  0  0
 13 21  1  0  0  0  0
 13 25  2  0  0  0  0
 14 22  2  0  0  0  0
 14 31  1  0  0  0  0
 15 27  2  0  0  0  0
 15 28  1  0  0  0  0
 16 29  1  0  0  0  0
 17 29  1  0  0  0  0
 17 32  2  0  0  0  0
 17 33  1  0  0  0  0
 18 20  2  0  0  0  0
 18 38  1  0  0  0  0
 19 21  2  0  0  0  0
 19 39  1  0  0  0  0
 20 50  1  0  0  0  0
 21 40  1  0  0  0  0
 22 23  1  0  0  0  0
 22 56  1  0  0  0  0
 23 30  2  0  0  0  0
 23 65  1  0  0  0  0
 24 87  1  0  0  0  0
 25 88  1  0  0  0  0
 26 28  2  0  0  0  0
 26 87  1  0  0  0  0
 27 89  1  0  0  0  0
 28 90  1  0  0  0  0
 29 71  2  0  0  0  0
 30 57  1  0  0  0  0
 30 72  1  0  0  0  0
 31 72  2  0  0  0  0
 31 78  1  0  0  0  0
 32 73  1  0  0  0  0
 32 76  1  0  0  0  0
 33 77  1  0  0  0  0
 33 82  2  0  0  0  0
 34 51  1  0  0  0  0
 34 79  1  0  0  0  0
 34 83  2  0  0  0  0
 35 67  1  0  0  0  0
 35 74  1  0  0  0  0
 35 84  2  0  0  0  0
 36 68  1  0  0  0  0
 36 80  1  0  0  0  0
 36 85  2  0  0  0  0
 37 75  1  0  0  0  0
 37 78  1  0  0  0  0
 37 86  2  0  0  0  0
 38 41  1  0  0  0  0
 39 51  1  0  0  0  0
 40 74  1  0  0  0  0
 41 43  1  0  0  0  0
 42 45  1  0  0  0  0
 42 48  1  0  0  0  0
 43 50  1  0  0  0  0
 44 46  1  0  0  0  0
 44 52  1  0  0  0  0
 45 54  1  0  0  0  0
 46 55  1  0  0  0  0
 47 53  1  0  0  0  0
 47 55  1  0  0  0  0
 48 75  1  0  0  0  0
 49 54  1  0  0  0  0
 49 75  1  0  0  0  0
 50 79  1  0  0  0  0
 51 74  1  0  0  0  0
 52 53  1  0  0  0  0
 52 66  1  0  0  0  0
 53 69  1  0  0  0  0
 54 73  1  0  0  0  0
 55 88  1  0  0  0  0
 58 68  1  0  0  0  0
 59 69  1  0  0  0  0
 60 69  1  0  0  0  0
 61 70  1  0  0  0  0
 62 70  1  0  0  0  0
 63 70  1  0  0  0  0
 64 81  1  0  0  0  0
 65 66  1  0  0  0  0
 67 70  1  0  0  0  0
 67 80  1  0  0  0  0
 68 81  1  0  0  0  0
 71 73  1  0  0  0  0
M  CHG  1  81   1
M  ISO  4  37 100  55 101  78 100  88 101
M  END
> <Batch ID>
0143

> <Smiles>
CNC(C)C(=O)NC(C(=O)N1Cc2cc([101O:1][101CH:1]3CCC(CCc4c(C)cc([100NH:0][100C:0](=O)N5CCCC(n6nc(-c7ccc(Oc8ccc(F)cc8F)cc7)c(C(N)=O)c6N)C5)nc4C)C(C(C)C)C3)ccc2CC1C(=O)NC1CCCc2ccccc21)C(C)(C)C

> <Shape>
0.241

> <Color>
0.188

> <Negative vol penalty>
0.000

$$$$

  -OEChem-04052321213D

 87 96  0     1  0  0  0  0  0999 V2000
  -28.7069  -24.4386   17.4344 C   0  0  0  0  0  0  0  0  0  0  0  0
  -27.5333  -24.5767   18.1686 C   0  0  0  0  0  0  0  0  0  0  0  0
  -22.5331  -13.0363   20.2804 C   0  0  0  0  0  0  0  0  0  0  0  0
  -24.1122  -12.0986   18.7106 C   0  0  0  0  0  0  0  0  0  0  0  0
  -29.8572  -25.1224   17.8257 C   0  0  0  0  0  0  0  0  0  0  0  0
  -27.5097  -25.3978   19.2953 C   0  0  0  0  0  0  0  0  0  0  0  0
  -23.3980  -28.3492   19.4624 C   0  0  0  0  0  0  0  0  0  0  0  0
  -21.4894  -12.3939   19.6143 C   0  0  0  0  0  0  0  0  0  0  0  0
  -23.0685  -11.4562   18.0444 C   0  0  0  0  0  0  0  0  0  0  0  0
  -22.2058  -27.7574   19.8775 C   0  0  0  0  0  0  0  0  0  0  0  0
  -20.1738   -9.2830   19.4595 C   0  0  0  0  0  0  0  0  0  0  0  0
  -19.2186   -8.6244   20.2337 C   0  0  0  0  0  0  0  0  0  0  0  0
  -24.1746  -23.3068   23.2587 C   0  0  0  0  0  0  0  0  0  0  0  0
  -22.5142  -28.6947   22.0788 C   0  0  0  0  0  0  0  0  0  0  0  0
  -22.3444  -21.9671   22.4265 C   0  0  0  0  0  0  0  0  0  0  0  0
  -17.4949  -10.0486   19.3186 C   0  0  0  0  0  0  0  0  0  0  0  0
  -23.8445  -12.8887   19.8285 C   0  0  0  0  0  0  0  0  0  0  0  0
  -25.6872  -13.0485   21.5853 C   0  0  0  0  0  0  0  0  0  0  0  0
  -29.8450  -25.9599   18.9523 C   0  0  0  0  0  0  0  0  0  0  0  0
  -24.1640  -29.1105   20.3569 C   0  0  0  0  0  0  0  0  0  0  0  0
  -28.6612  -26.0924   19.7029 C   0  0  0  0  0  0  0  0  0  0  0  0
  -25.0716  -22.2962   22.9131 C   0  0  0  0  0  0  0  0  0  0  0  0
  -23.7144  -29.2972   21.6718 C   0  0  0  0  0  0  0  0  0  0  0  0
  -22.8109  -23.1423   23.0154 C   0  0  0  0  0  0  0  0  0  0  0  0
  -23.2415  -20.9564   22.0809 C   0  0  0  0  0  0  0  0  0  0  0  0
  -24.6051  -21.1209   22.3242 C   0  0  0  0  0  0  0  0  0  0  0  0
  -21.7571  -11.6039   18.4963 C   0  0  0  0  0  0  0  0  0  0  0  0
  -21.7652  -27.9277   21.1867 C   0  0  0  0  0  0  0  0  0  0  0  0
  -19.7896  -10.3244   18.6148 C   0  0  0  0  0  0  0  0  0  0  0  0
  -17.8791   -9.0072   20.1633 C   0  0  0  0  0  0  0  0  0  0  0  0
  -18.4501  -10.7072   18.5444 C   0  0  0  0  0  0  0  0  0  0  0  0
  -24.9230  -13.5524   20.5159 C   0  0  0  0  0  0  0  0  0  0  0  0
  -26.5756  -14.0547   21.8766 C   0  0  0  0  0  0  0  0  0  0  0  0
  -25.6019  -11.7839   22.2555 C   0  0  0  0  0  0  0  0  0  0  0  0
  -27.0966  -28.8769   21.5607 C   0  0  0  0  0  0  0  0  0  0  0  0
  -26.3866  -31.7774   22.8277 C   0  0  0  0  0  0  0  0  0  0  0  0
  -23.9932  -33.9872   23.8452 C   0  0  0  0  0  0  0  0  0  0  0  0
  -26.1461  -20.0376   20.6973 C   0  0  0  0  0  0  0  0  0  0  0  0
  -31.1259  -26.6416   19.3639 C   0  0  0  0  0  0  0  0  0  0  0  0
  -25.4341  -29.7644   19.8860 C   0  0  0  0  0  0  0  0  0  0  0  0
  -24.4897  -30.1219   22.6654 C   0  0  0  0  0  0  0  0  0  0  0  0
  -30.9165  -27.7853   20.3530 C   0  0  0  0  0  0  0  0  0  0  0  0
  -28.2012  -23.7409   23.9476 C   0  0  0  0  0  0  0  0  0  0  0  0
  -28.8921  -17.7185   19.8658 C   0  0  0  0  0  0  0  0  0  0  0  0
  -27.2991  -23.8203   22.7014 C   0  0  0  0  0  0  0  0  0  0  0  0
  -27.0638  -22.9520   24.6244 C   0  0  0  0  0  0  0  0  0  0  0  0
  -29.9716  -27.3576   21.4715 C   0  0  0  0  0  0  0  0  0  0  0  0
  -28.2238  -16.3486   19.9691 C   0  0  0  0  0  0  0  0  0  0  0  0
  -27.9002  -18.8036   19.4575 C   0  0  0  0  0  0  0  0  0  0  0  0
  -26.0316  -17.5125   20.4431 C   0  0  0  0  0  0  0  0  0  0  0  0
  -26.6147  -22.5111   23.1985 C   0  0  0  0  0  0  0  0  0  0  0  0
  -28.5892  -26.9933   20.9168 C   0  0  1  0  0  0  0  0  0  0  0  0
  -26.3948  -30.0926   21.0247 C   0  0  1  0  0  0  0  0  0  0  0  0
  -26.9961  -16.4054   20.8946 C   0  0  1  0  0  0  0  0  0  0  0  0
  -22.7116  -19.7085   21.4517 C   0  0  0  0  0  0  0  0  0  0  0  0
  -23.7199  -36.2602   24.8730 C   0  0  0  0  0  0  0  0  0  0  0  0
  -19.2800  -25.9227   22.9992 C   0  0  0  0  0  0  0  0  0  0  0  0
  -27.1496  -30.6346   25.5521 C   0  0  0  0  0  0  0  0  0  0  0  0
  -25.9782  -32.5747   26.6162 C   0  0  0  0  0  0  0  0  0  0  0  0
  -27.9491  -32.9679   25.1385 C   0  0  0  0  0  0  0  0  0  0  0  0
  -26.0291  -19.1890   23.0288 C   0  0  0  0  0  0  0  0  0  0  0  0
  -22.5321  -35.0076   21.4823 C   0  0  0  0  0  0  0  0  0  0  0  0
  -21.8408  -24.2344   23.3892 C   0  0  0  0  0  0  0  0  0  0  0  0
  -21.5997  -25.2582   22.2703 C   0  0  0  0  0  0  0  0  0  0  0  0
  -25.7514  -32.2572   24.1104 C   0  0  1  0  0  0  0  0  0  0  0  0
  -23.8121  -35.4703   23.5767 C   0  0  2  0  0  0  0  0  0  0  0  0
  -20.6827  -26.4196   22.6732 C   0  0  1  0  0  0  0  0  0  1  0  0
  -26.6932  -32.0914   25.3363 C   0  0  0  0  0  0  0  0  0  0  0  0
  -25.2932  -14.7832   20.1524 N   0  0  0  0  0  0  0  0  0  0  0  0
  -26.2999  -15.0611   20.9983 N   0  0  0  0  0  0  0  0  0  0  0  0
  -25.7283  -30.7357   22.1589 N   0  0  0  0  0  0  0  0  0  0  0  0
  -26.7218  -18.8062   20.3252 N   0  0  0  0  0  0  0  0  0  0  0  0
  -27.5577  -14.1680   22.7958 N   0  0  0  0  0  0  0  0  0  0  0  0
  -24.6321  -10.8660   21.8294 N   0  0  0  0  0  0  0  0  0  0  0  0
  -27.8341  -28.1904   20.6150 N   0  0  0  0  0  0  0  0  0  0  0  0
  -25.3251  -33.6308   23.8659 N   0  0  0  0  0  0  0  0  0  0  0  0
  -25.5359  -20.0756   21.9697 N   0  0  0  0  0  0  0  0  0  0  0  0
  -22.5669  -35.7065   22.7928 N   0  3  0  0  0  0  0  0  0  0  0  0
  -26.3521  -11.4833   23.2148 O   0  0  0  0  0  0  0  0  0  0  0  0
  -26.9789  -28.5843   22.7448 O   0  0  0  0  0  0  0  0  0  0  0  0
  -27.4246  -32.3122   22.4300 O   0  0  0  0  0  0  0  0  0  0  0  0
  -23.0479  -33.2222   24.0228 O   0  0  0  0  0  0  0  0  0  0  0  0
  -26.1999  -21.0314   19.9630 O   0  0  0  0  0  0  0  0  0  0  0  0
  -20.7390  -10.9767   17.8462 O   0  0  0  0  0  0  0  0  0  0  0  0
  -20.6023  -27.3506   21.5947 O   0  0  0  0  0  0  0  0  0  1  0  0
  -16.9617   -8.3737   20.9057 F   0  0  0  0  0  0  0  0  0  0  0  0
  -18.0748  -11.7062   17.7338 F   0  0  0  0  0  0  0  0  0  0  0  0
  1  2  1  0  0  0  0
  1  5  2  0  0  0  0
  2  6  2  0  0  0  0
  3  8  2  0  0  0  0
  3 17  1  0  0  0  0
  4  9  1  0  0  0  0
  4 17  2  0  0  0  0
  5 19  1  0  0  0  0
  6 21  1  0  0  0  0
  7 10  2  0  0  0  0
  7 20  1  0  0  0  0
  8 27  1  0  0  0  0
  9 27  2  0  0  0  0
 10 28  1  0  0  0  0
 11 12  2  0  0  0  0
 11 29  1  0  0  0  0
 12 30  1  0  0  0  0
 13 22  1  0  0  0  0
 13 24  2  0  0  0  0
 14 23  1  0  0  0  0
 14 28  2  0  0  0  0
 15 24  1  0  0  0  0
 15 25  2  0  0  0  0
 16 30  2  0  0  0  0
 16 31  1  0  0  0  0
 17 32  1  0  0  0  0
 18 32  1  0  0  0  0
 18 33  2  0  0  0  0
 18 34  1  0  0  0  0
 19 21  2  0  0  0  0
 19 39  1  0  0  0  0
 20 23  2  0  0  0  0
 20 40  1  0  0  0  0
 21 52  1  0  0  0  0
 22 26  2  0  0  0  0
 22 51  1  0  0  0  0
 23 41  1  0  0  0  0
 24 63  1  0  0  0  0
 25 26  1  0  0  0  0
 25 55  1  0  0  0  0
 26 77  1  0  0  0  0
 27 84  1  0  0  0  0
 28 85  1  0  0  0  0
 29 31  2  0  0  0  0
 29 84  1  0  0  0  0
 30 86  1  0  0  0  0
 31 87  1  0  0  0  0
 32 69  2  0  0  0  0
 33 70  1  0  0  0  0
 33 73  1  0  0  0  0
 34 74  1  0  0  0  0
 34 79  2  0  0  0  0
 35 53  1  0  0  0  0
 35 75  1  0  0  0  0
 35 80  2  0  0  0  0
 36 65  1  0  0  0  0
 36 71  1  0  0  0  0
 36 81  2  0  0  0  0
 37 66  1  0  0  0  0
 37 76  1  0  0  0  0
 37 82  2  0  0  0  0
 38 72  1  0  0  0  0
 38 77  1  0  0  0  0
 38 83  2  0  0  0  0
 39 42  1  0  0  0  0
 40 53  1  0  0  0  0
 41 71  1  0  0  0  0
 42 47  1  0  0  0  0
 43 45  1  0  0  0  0
 43 46  1  0  0  0  0
 44 48  1  0  0  0  0
 44 49  1  0  0  0  0
 45 51  1  0  0  0  0
 46 51  1  0  0  0  0
 47 52  1  0  0  0  0
 48 54  1  0  0  0  0
 49 72  1  0  0  0  0
 50 54  1  0  0  0  0
 50 72  1  0  0  0  0
 52 75  1  0  0  0  0
 53 71  1  0  0  0  0
 54 70  1  0  0  0  0
 56 66  1  0  0  0  0
 57 67  1  0  0  0  0
 58 68  1  0  0  0  0
 59 68  1  0  0  0  0
 60 68  1  0  0  0  0
 61 77  1  0  0  0  0
 62 78  1  0  0  0  0
 63 64  1  0  0  0  0
 64 67  1  0  0  0  0
 65 68  1  0  0  0  0
 65 76  1  0  0  0  0
 66 78  1  0  0  0  0
 67 85  1  0  0  0  0
 69 70  1  0  0  0  0
M  CHG  1  78   1
M  ISO  4  38 100  67 101  77 100  85 101
M  END
> <Batch ID>
0143

> <Smiles>
CNC(C)C(=O)NC(C(=O)N1Cc2cc([101O:1][101CH:1](C)CCc3cc(C)c([100N:0](C)[100C:0](=O)N4CCCC(n5nc(-c6ccc(Oc7ccc(F)cc7F)cc6)c(C(N)=O)c5N)C4)c(C4CCC4)c3)ccc2CC1C(=O)NC1CCCc2ccccc21)C(C)(C)C

> <Shape>
0.258

> <Color>
0.064

> <Negative vol penalty>
0.000

$$$$

  -OEChem-04052321213D

 79 87  0     1  0  0  0  0  0999 V2000
  -17.7101  -25.9347   22.7515 C   0  0  0  0  0  0  0  0  0  0  0  0
  -19.0279  -25.5147   22.6016 C   0  0  0  0  0  0  0  0  0  0  0  0
  -27.8996  -13.9884   19.6979 C   0  0  0  0  0  0  0  0  0  0  0  0
  -30.2693  -13.5371   19.5645 C   0  0  0  0  0  0  0  0  0  0  0  0
  -17.3601  -27.2498   22.4484 C   0  0  0  0  0  0  0  0  0  0  0  0
  -19.9963  -26.4093   22.1474 C   0  0  0  0  0  0  0  0  0  0  0  0
  -25.8841  -26.6230   23.8187 C   0  0  0  0  0  0  0  0  0  0  0  0
  -27.6349  -12.6210   19.6218 C   0  0  0  0  0  0  0  0  0  0  0  0
  -30.0046  -12.1697   19.4885 C   0  0  0  0  0  0  0  0  0  0  0  0
  -27.0463  -26.1338   23.2240 C   0  0  0  0  0  0  0  0  0  0  0  0
  -26.3511   -9.2261   19.8262 C   0  0  0  0  0  0  0  0  0  0  0  0
  -25.4088   -8.6980   20.7085 C   0  0  0  0  0  0  0  0  0  0  0  0
  -27.4391  -28.2954   22.2277 C   0  0  0  0  0  0  0  0  0  0  0  0
  -26.7544   -9.4230   22.5796 C   0  0  0  0  0  0  0  0  0  0  0  0
  -29.2168  -14.4465   19.6692 C   0  0  0  0  0  0  0  0  0  0  0  0
  -29.7018  -16.6209   20.9119 C   0  0  0  0  0  0  0  0  0  0  0  0
  -18.3265  -28.1637   21.9995 C   0  0  0  0  0  0  0  0  0  0  0  0
  -25.4842  -27.9512   23.6133 C   0  0  0  0  0  0  0  0  0  0  0  0
  -19.6586  -27.7375   21.8367 C   0  0  0  0  0  0  0  0  0  0  0  0
  -26.2728  -28.7997   22.8231 C   0  0  0  0  0  0  0  0  0  0  0  0
  -28.6873  -11.7117   19.5171 C   0  0  0  0  0  0  0  0  0  0  0  0
  -27.8225  -26.9692   22.4260 C   0  0  0  0  0  0  0  0  0  0  0  0
  -27.4952   -9.8527   20.3204 C   0  0  0  0  0  0  0  0  0  0  0  0
  -25.6104   -8.7964   22.0852 C   0  0  0  0  0  0  0  0  0  0  0  0
  -27.6968   -9.9512   21.6971 C   0  0  0  0  0  0  0  0  0  0  0  0
  -29.4909  -15.8589   19.7471 C   0  0  0  0  0  0  0  0  0  0  0  0
  -29.9198  -17.8968   20.4527 C   0  0  0  0  0  0  0  0  0  0  0  0
  -29.7008  -16.2119   22.2861 C   0  0  0  0  0  0  0  0  0  0  0  0
  -22.9477  -29.3538   22.3085 C   0  0  0  0  0  0  0  0  0  0  0  0
  -24.3572  -32.0561   23.4189 C   0  0  0  0  0  0  0  0  0  0  0  0
  -27.2176  -33.6399   24.3969 C   0  0  0  0  0  0  0  0  0  0  0  0
  -28.0873  -21.9706   16.9310 C   0  0  0  0  0  0  0  0  0  0  0  0
  -17.8913  -29.5620   21.6392 C   0  0  0  0  0  0  0  0  0  0  0  0
  -24.2421  -28.4711   24.2836 C   0  0  0  0  0  0  0  0  0  0  0  0
  -25.8980  -30.2393   22.5876 C   0  0  0  0  0  0  0  0  0  0  0  0
  -19.0498  -30.5490   21.5209 C   0  0  0  0  0  0  0  0  0  0  0  0
  -30.7343  -19.6434   15.7873 C   0  0  0  0  0  0  0  0  0  0  0  0
  -20.1837  -29.9453   20.6983 C   0  0  0  0  0  0  0  0  0  0  0  0
  -30.6030  -18.4836   16.7730 C   0  0  0  0  0  0  0  0  0  0  0  0
  -29.4092  -20.3735   15.5925 C   0  0  0  0  0  0  0  0  0  0  0  0
  -27.3609  -23.9179   18.2753 C   0  0  0  0  0  0  0  0  0  0  0  0
  -28.6624  -19.6908   17.8505 C   0  0  0  0  0  0  0  0  0  0  0  0
  -29.0595  -22.4090   19.2319 C   0  0  0  0  0  0  0  0  0  0  0  0
  -28.2968  -25.1103   18.3889 C   0  0  0  0  0  0  0  0  0  0  0  0
  -20.7423  -28.6851   21.3702 C   0  0  1  0  0  0  0  0  0  0  0  0
  -23.6561  -29.6962   23.5885 C   0  0  1  0  0  0  0  0  0  0  0  0
  -29.9907  -18.9607   18.1012 C   0  0  1  0  0  0  0  0  0  0  0  0
  -30.0596  -23.5654   19.3806 C   0  0  1  0  0  0  0  0  0  0  0  0
  -31.0625  -23.6162   18.2282 C   0  0  0  0  0  0  0  0  0  0  0  0
  -28.0601  -35.8574   25.2157 C   0  0  0  0  0  0  0  0  0  0  0  0
  -24.1526  -33.1764   20.5881 C   0  0  0  0  0  0  0  0  0  0  0  0
  -25.8168  -34.9307   21.2369 C   0  0  0  0  0  0  0  0  0  0  0  0
  -23.6130  -34.8139   22.3997 C   0  0  0  0  0  0  0  0  0  0  0  0
  -28.1644  -32.4701   26.9452 C   0  0  0  0  0  0  0  0  0  0  0  0
  -30.1352  -26.0715   19.7862 C   0  0  0  0  0  0  0  0  0  0  0  0
  -29.3426  -27.0752   20.6001 C   0  0  0  0  0  0  0  0  0  1  0  0
  -25.3568  -33.0443   22.8682 C   0  0  1  0  0  0  0  0  0  0  0  0
  -27.5330  -34.4881   25.6158 C   0  0  2  0  0  0  0  0  0  0  0  0
  -24.7411  -33.9637   21.7759 C   0  0  0  0  0  0  0  0  0  0  0  0
  -29.5678  -16.5898   18.6319 N   0  0  0  0  0  0  0  0  0  0  0  0
  -29.8294  -17.8244   19.0937 N   0  0  0  0  0  0  0  0  0  0  0  0
  -24.6713  -30.6990   23.2596 N   0  0  0  0  0  0  0  0  0  0  0  0
  -28.8243  -20.7765   16.8715 N   0  0  0  0  0  0  0  0  0  0  0  0
  -28.1005  -22.6649   18.1500 N   0  0  0  0  0  0  0  0  0  0  0  0
  -30.1780  -19.0624   21.0828 N   0  0  0  0  0  0  0  0  0  0  0  0
  -29.4598  -14.8632   22.5816 N   0  0  0  0  0  0  0  0  0  0  0  0
  -21.6112  -29.0423   22.4711 N   0  0  0  0  0  0  0  0  0  0  0  0
  -25.8975  -33.7616   24.0177 N   0  0  0  0  0  0  0  0  0  0  0  0
  -29.2779  -24.8656   19.5136 N   0  3  1  0  0  0  0  0  0  0  0  0
  -28.5606  -33.8177   26.4615 N   0  3  0  0  0  0  0  0  0  0  0  0
  -29.8912  -17.0216   23.2251 O   0  0  0  0  0  0  0  0  0  0  0  0
  -23.5672  -29.3724   21.2513 O   0  0  0  0  0  0  0  0  0  0  0  0
  -23.3389  -32.4730   23.9763 O   0  0  0  0  0  0  0  0  0  0  0  0
  -28.0591  -32.9423   23.8350 O   0  0  0  0  0  0  0  0  0  0  0  0
  -27.4614  -22.3934   15.9508 O   0  0  0  0  0  0  0  0  0  0  0  0
  -28.4294  -10.3773   19.4431 O   0  0  0  0  0  0  0  0  0  0  0  0
  -28.9651  -26.4907   21.8396 O   0  0  0  0  0  0  0  0  0  1  0  0
  -24.7046   -8.2905   22.9325 F   0  0  0  0  0  0  0  0  0  0  0  0
  -28.7933  -10.5531   22.1780 F   0  0  0  0  0  0  0  0  0  0  0  0
  1  2  1  0  0  0  0
  1  5  2  0  0  0  0
  2  6  2  0  0  0  0
  3  8  2  0  0  0  0
  3 15  1  0  0  0  0
  4  9  1  0  0  0  0
  4 15  2  0  0  0  0
  5 17  1  0  0  0  0
  6 19  1  0  0  0  0
  7 10  2  0  0  0  0
  7 18  1  0  0  0  0
  8 21  1  0  0  0  0
  9 21  2  0  0  0  0
 10 22  1  0  0  0  0
 11 12  2  0  0  0  0
 11 23  1  0  0  0  0
 12 24  1  0  0  0  0
 13 20  1  0  0  0  0
 13 22  2  0  0  0  0
 14 24  2  0  0  0  0
 14 25  1  0  0  0  0
 15 26  1  0  0  0  0
 16 26  1  0  0  0  0
 16 27  2  0  0  0  0
 16 28  1  0  0  0  0
 17 19  2  0  0  0  0
 17 33  1  0  0  0  0
 18 20  2  0  0  0  0
 18 34  1  0  0  0  0
 19 45  1  0  0  0  0
 20 35  1  0  0  0  0
 21 76  1  0  0  0  0
 22 77  1  0  0  0  0
 23 25  2  0  0  0  0
 23 76  1  0  0  0  0
 24 78  1  0  0  0  0
 25 79  1  0  0  0  0
 26 60  2  0  0  0  0
 27 61  1  0  0  0  0
 27 65  1  0  0  0  0
 28 66  1  0  0  0  0
 28 71  2  0  0  0  0
 29 46  1  0  0  0  0
 29 67  1  0  0  0  0
 29 72  2  0  0  0  0
 30 57  1  0  0  0  0
 30 62  1  0  0  0  0
 30 73  2  0  0  0  0
 31 58  1  0  0  0  0
 31 68  1  0  0  0  0
 31 74  2  0  0  0  0
 32 63  1  0  0  0  0
 32 64  1  0  0  0  0
 32 75  2  0  0  0  0
 33 36  1  0  0  0  0
 34 46  1  0  0  0  0
 35 62  1  0  0  0  0
 36 38  1  0  0  0  0
 37 39  1  0  0  0  0
 37 40  1  0  0  0  0
 38 45  1  0  0  0  0
 39 47  1  0  0  0  0
 40 63  1  0  0  0  0
 41 44  1  0  0  0  0
 41 64  1  0  0  0  0
 42 47  1  0  0  0  0
 42 63  1  0  0  0  0
 43 48  1  0  0  0  0
 43 64  1  0  0  0  0
 44 69  1  0  0  0  0
 45 67  1  0  0  0  0
 46 62  1  0  0  0  0
 47 61  1  0  0  0  0
 48 49  1  0  0  0  0
 48 69  1  0  0  0  0
 50 58  1  0  0  0  0
 51 59  1  0  0  0  0
 52 59  1  0  0  0  0
 53 59  1  0  0  0  0
 54 70  1  0  0  0  0
 55 56  1  0  0  0  0
 55 69  1  0  0  0  0
 56 77  1  0  0  0  0
 57 59  1  0  0  0  0
 57 68  1  0  0  0  0
 58 70  1  0  0  0  0
 60 61  1  0  0  0  0
M  CHG  2  69   1  70   1
M  ISO  4  32 100  56 101  64 100  77 101
M  END
> <Batch ID>
0143

> <Smiles>
CNC(C)C(=O)NC(C(=O)N1Cc2cc([101O:1][101CH2:1]CN3CC[100N:0]([100C:0](=O)N4CCCC(n5nc(-c6ccc(Oc7ccc(F)cc7F)cc6)c(C(N)=O)c5N)C4)CC3C)ccc2CC1C(=O)NC1CCCc2ccccc21)C(C)(C)C

> <Shape>
0.283

> <Color>
0.077

> <Negative vol penalty>
0.000

$$$$

  -OEChem-04052321213D

 94106  0     1  0  0  0  0  0999 V2000
  -17.2360  -25.7155   25.1909 C   0  0  0  0  0  0  0  0  0  0  0  0
  -18.4128  -25.4342   24.5043 C   0  0  0  0  0  0  0  0  0  0  0  0
  -23.1347   -9.7458   20.8920 C   0  0  0  0  0  0  0  0  0  0  0  0
  -23.7142  -10.5270   23.1036 C   0  0  0  0  0  0  0  0  0  0  0  0
  -16.7209  -27.0111   25.1874 C   0  0  0  0  0  0  0  0  0  0  0  0
  -19.0747  -26.4482   23.8128 C   0  0  0  0  0  0  0  0  0  0  0  0
  -24.0760  -26.3962   24.6061 C   0  0  0  0  0  0  0  0  0  0  0  0
  -22.3856   -8.7118   21.4535 C   0  0  0  0  0  0  0  0  0  0  0  0
  -22.9650   -9.4930   23.6651 C   0  0  0  0  0  0  0  0  0  0  0  0
  -24.8212  -25.4452   23.9104 C   0  0  0  0  0  0  0  0  0  0  0  0
  -19.7082   -8.8224   24.2684 C   0  0  0  0  0  0  0  0  0  0  0  0
  -18.8631   -9.1399   25.3316 C   0  0  0  0  0  0  0  0  0  0  0  0
  -26.6663  -22.2778   20.4831 C   0  0  0  0  0  0  0  0  0  0  0  0
  -25.4657  -27.1305   22.3092 C   0  0  0  0  0  0  0  0  0  0  0  0
  -29.2023  -21.5207   21.3654 C   0  0  0  0  0  0  0  0  0  0  0  0
  -20.0635   -7.5934   26.7475 C   0  0  0  0  0  0  0  0  0  0  0  0
  -23.7991  -10.6534   21.7170 C   0  0  0  0  0  0  0  0  0  0  0  0
  -24.1232  -13.0117   20.8001 C   0  0  0  0  0  0  0  0  0  0  0  0
  -17.3820  -28.0436   24.5035 C   0  0  0  0  0  0  0  0  0  0  0  0
  -24.0111  -27.7213   24.1518 C   0  0  0  0  0  0  0  0  0  0  0  0
  -18.5673  -27.7586   23.7990 C   0  0  0  0  0  0  0  0  0  0  0  0
  -27.4760  -21.4792   19.6755 C   0  0  0  0  0  0  0  0  0  0  0  0
  -24.7211  -28.0970   23.0025 C   0  0  0  0  0  0  0  0  0  0  0  0
  -27.1246  -22.6980   21.7318 C   0  0  0  0  0  0  0  0  0  0  0  0
  -28.7440  -21.1006   20.1167 C   0  0  0  0  0  0  0  0  0  0  0  0
  -22.3007   -8.5854   22.8400 C   0  0  0  0  0  0  0  0  0  0  0  0
  -25.5139  -25.8117   22.7601 C   0  0  0  0  0  0  0  0  0  0  0  0
  -20.7309   -7.8903   24.4446 C   0  0  0  0  0  0  0  0  0  0  0  0
  -19.0407   -8.5254   26.5712 C   0  0  0  0  0  0  0  0  0  0  0  0
  -28.3926  -22.3194   22.1729 C   0  0  0  0  0  0  0  0  0  0  0  0
  -20.9086   -7.2758   25.6842 C   0  0  0  0  0  0  0  0  0  0  0  0
  -24.5736  -11.7213   21.1376 C   0  0  0  0  0  0  0  0  0  0  0  0
  -25.2325  -13.6396   20.2885 C   0  0  0  0  0  0  0  0  0  0  0  0
  -22.8188  -13.5909   20.9368 C   0  0  0  0  0  0  0  0  0  0  0  0
  -21.6819  -29.6366   23.1469 C   0  0  0  0  0  0  0  0  0  0  0  0
  -24.0446  -31.8591   23.1343 C   0  0  0  0  0  0  0  0  0  0  0  0
  -27.3851  -32.5354   22.9595 C   0  0  0  0  0  0  0  0  0  0  0  0
  -30.6684  -14.8601   20.4953 C   0  0  0  0  0  0  0  0  0  0  0  0
  -16.7616  -29.4182   24.4890 C   0  0  0  0  0  0  0  0  0  0  0  0
  -23.2245  -28.7412   24.9286 C   0  0  0  0  0  0  0  0  0  0  0  0
  -24.7004  -29.5111   22.4845 C   0  0  0  0  0  0  0  0  0  0  0  0
  -17.7239  -30.5161   24.0430 C   0  0  0  0  0  0  0  0  0  0  0  0
  -29.7520  -11.7859   18.9719 C   0  0  0  0  0  0  0  0  0  0  0  0
  -25.6538  -20.3065   18.2691 C   0  0  0  0  0  0  0  0  0  0  0  0
  -26.9330  -19.5705   18.0202 C   0  0  0  0  0  0  0  0  0  0  0  0
  -18.4800  -30.0865   22.7897 C   0  0  0  0  0  0  0  0  0  0  0  0
  -30.7910  -19.4385   16.2260 C   0  0  0  0  0  0  0  0  0  0  0  0
  -31.7988  -20.5371   16.0329 C   0  0  0  0  0  0  0  0  0  0  0  0
  -32.0728  -23.2030   18.2489 C   0  0  0  0  0  0  0  0  0  0  0  0
  -31.0107  -23.4540   19.2828 C   0  0  0  0  0  0  0  0  0  0  0  0
  -28.2875  -11.5992   19.3723 C   0  0  0  0  0  0  0  0  0  0  0  0
  -30.8465  -17.9511   19.5260 C   0  0  0  0  0  0  0  0  0  0  0  0
  -29.6674  -18.5043   21.2147 C   0  0  0  0  0  0  0  0  0  0  0  0
  -30.5681  -12.4194   20.0965 C   0  0  0  0  0  0  0  0  0  0  0  0
  -28.5567  -13.4941   21.0268 C   0  0  0  0  0  0  0  0  0  0  0  0
  -26.9660  -21.0406   18.3426 C   0  0  0  0  0  0  0  0  0  0  0  0
  -19.3274  -28.8369   23.0578 C   0  0  1  0  0  0  0  0  0  0  0  0
  -22.8124  -29.9453   24.0873 C   0  0  1  0  0  0  0  0  0  0  0  0
  -31.3930  -20.1248   17.4207 C   0  0  0  0  0  0  0  0  0  0  0  0
  -31.4693  -22.0499   19.0019 C   0  0  0  0  0  0  0  0  0  0  0  0
  -30.4457  -19.3147   20.1462 C   0  0  0  0  0  0  0  0  0  0  0  0
  -27.6798  -12.9107   19.9055 C   0  0  2  0  0  0  0  0  0  0  0  0
  -30.6360  -17.3340   20.9282 C   0  0  0  0  0  0  0  0  0  0  0  0
  -29.0091  -34.4483   22.9359 C   0  0  0  0  0  0  0  0  0  0  0  0
  -23.3000  -32.4524   20.2354 C   0  0  0  0  0  0  0  0  0  0  0  0
  -25.4953  -33.6298   19.9855 C   0  0  0  0  0  0  0  0  0  0  0  0
  -23.8076  -34.4743   21.6169 C   0  0  0  0  0  0  0  0  0  0  0  0
  -28.7072  -31.5952   25.4348 C   0  0  0  0  0  0  0  0  0  0  0  0
  -26.2511  -23.5564   22.5986 C   0  0  0  0  0  0  0  0  0  1  0  0
  -29.6300  -20.2443   19.2720 C   0  0  2  0  0  0  0  0  0  0  0  0
  -25.0583  -32.3361   22.1224 C   0  0  1  0  0  0  0  0  0  0  0  0
  -28.2764  -33.4328   23.7988 C   0  0  2  0  0  0  0  0  0  0  0  0
  -30.5386  -21.0623   18.2869 C   0  0  0  0  0  0  0  0  0  0  0  0
  -24.4143  -33.1960   20.9985 C   0  0  0  0  0  0  0  0  0  0  0  0
  -25.8680  -11.5388   20.8635 N   0  0  0  0  0  0  0  0  0  0  0  0
  -26.2405  -12.7228   20.3482 N   0  0  0  0  0  0  0  0  0  0  0  0
  -23.9119  -30.4705   23.2753 N   0  0  0  0  0  0  0  0  0  0  0  0
  -29.9389  -13.6620   20.5509 N   0  0  0  0  0  0  0  0  0  0  0  0
  -25.4343  -14.8810   19.7980 N   0  0  0  0  0  0  0  0  0  0  0  0
  -21.7932  -12.8065   21.4818 N   0  0  0  0  0  0  0  0  0  0  0  0
  -20.5347  -29.1891   23.7740 N   0  0  0  0  0  0  0  0  0  0  0  0
  -26.0983  -33.0242   22.8796 N   0  0  0  0  0  0  0  0  0  0  0  0
  -30.0024  -15.9994   20.9350 N   0  0  0  0  0  0  0  0  0  0  0  0
  -29.2890  -32.6196   24.5299 N   0  3  0  0  0  0  0  0  0  0  0  0
  -22.5662  -14.7639   20.5708 O   0  0  0  0  0  0  0  0  0  0  0  0
  -21.8383  -29.7943   21.9418 O   0  0  0  0  0  0  0  0  0  0  0  0
  -23.3996  -32.6881   23.7811 O   0  0  0  0  0  0  0  0  0  0  0  0
  -27.7908  -31.5058   22.4248 O   0  0  0  0  0  0  0  0  0  0  0  0
  -31.8297  -14.9195   20.0768 O   0  0  0  0  0  0  0  0  0  0  0  0
  -21.5696   -7.5767   23.3882 O   0  0  0  0  0  0  0  0  0  0  0  0
  -26.2414  -24.8853   22.0787 O   0  0  0  0  0  0  0  0  0  1  0  0
  -18.2301   -8.8316   27.5926 F   0  0  0  0  0  0  0  0  0  0  0  0
  -28.8423  -22.7195   23.3704 F   0  0  0  0  0  0  0  0  0  0  0  0
  -21.8901   -6.3805   25.8599 F   0  0  0  0  0  0  0  0  0  0  0  0
  1  2  1  0  0  0  0
  1  5  2  0  0  0  0
  2  6  2  0  0  0  0
  3  8  2  0  0  0  0
  3 17  1  0  0  0  0
  4  9  1  0  0  0  0
  4 17  2  0  0  0  0
  5 19  1  0  0  0  0
  6 21  1  0  0  0  0
  7 10  2  0  0  0  0
  7 20  1  0  0  0  0
  8 26  1  0  0  0  0
  9 26  2  0  0  0  0
 10 27  1  0  0  0  0
 11 12  2  0  0  0  0
 11 28  1  0  0  0  0
 12 29  1  0  0  0  0
 13 22  2  0  0  0  0
 13 24  1  0  0  0  0
 14 23  1  0  0  0  0
 14 27  2  0  0  0  0
 15 25  2  0  0  0  0
 15 30  1  0  0  0  0
 16 29  2  0  0  0  0
 16 31  1  0  0  0  0
 17 32  1  0  0  0  0
 18 32  1  0  0  0  0
 18 33  2  0  0  0  0
 18 34  1  0  0  0  0
 19 21  2  0  0  0  0
 19 39  1  0  0  0  0
 20 23  2  0  0  0  0
 20 40  1  0  0  0  0
 21 57  1  0  0  0  0
 22 25  1  0  0  0  0
 22 56  1  0  0  0  0
 23 41  1  0  0  0  0
 24 30  2  0  0  0  0
 24 69  1  0  0  0  0
 25 70  1  0  0  0  0
 26 90  1  0  0  0  0
 27 91  1  0  0  0  0
 28 31  2  0  0  0  0
 28 90  1  0  0  0  0
 29 92  1  0  0  0  0
 30 93  1  0  0  0  0
 31 94  1  0  0  0  0
 32 75  2  0  0  0  0
 33 76  1  0  0  0  0
 33 79  1  0  0  0  0
 34 80  1  0  0  0  0
 34 85  2  0  0  0  0
 35 58  1  0  0  0  0
 35 81  1  0  0  0  0
 35 86  2  0  0  0  0
 36 71  1  0  0  0  0
 36 77  1  0  0  0  0
 36 87  2  0  0  0  0
 37 72  1  0  0  0  0
 37 82  1  0  0  0  0
 37 88  2  0  0  0  0
 38 78  1  0  0  0  0
 38 83  1  0  0  0  0
 38 89  2  0  0  0  0
 39 42  1  0  0  0  0
 40 58  1  0  0  0  0
 41 77  1  0  0  0  0
 42 46  1  0  0  0  0
 43 51  1  0  0  0  0
 43 54  1  0  0  0  0
 44 45  1  0  0  0  0
 44 56  1  0  0  0  0
 45 56  1  0  0  0  0
 46 57  1  0  0  0  0
 47 48  1  0  0  0  0
 47 59  1  0  0  0  0
 48 59  1  0  0  0  0
 49 50  1  0  0  0  0
 49 60  1  0  0  0  0
 50 60  1  0  0  0  0
 51 62  1  0  0  0  0
 52 61  1  0  0  0  0
 52 63  1  0  0  0  0
 53 61  1  0  0  0  0
 53 63  1  0  0  0  0
 54 78  1  0  0  0  0
 55 62  1  0  0  0  0
 55 78  1  0  0  0  0
 57 81  1  0  0  0  0
 58 77  1  0  0  0  0
 59 73  1  0  0  0  0
 60 73  1  0  0  0  0
 61 70  1  0  0  0  0
 62 76  1  0  0  0  0
 63 83  1  0  0  0  0
 64 72  1  0  0  0  0
 65 74  1  0  0  0  0
 66 74  1  0  0  0  0
 67 74  1  0  0  0  0
 68 84  1  0  0  0  0
 69 91  1  0  0  0  0
 70 73  1  0  0  0  0
 71 74  1  0  0  0  0
 71 82  1  0  0  0  0
 72 84  1  0  0  0  0
 75 76  1  0  0  0  0
M  CHG  1  84   1
M  ISO  4  38 100  69 101  83 100  91 101
M  END
> <Batch ID>
0143

> <Smiles>
CNC(C)C(=O)NC(C(=O)N1Cc2cc([101O:1][101CH2:1]c3cc(C4CC4)c(C(C4CC([100NH:0][100C:0](=O)N5CCCC(n6nc(-c7ccc(Oc8ccc(F)cc8F)cc7)c(C(N)=O)c6N)C5)C4)C(C4CC4)C4CC4)cc3F)ccc2CC1C(=O)NC1CCCc2ccccc21)C(C)(C)C

> <Shape>
0.299

> <Color>
0.182

> <Negative vol penalty>
0.000

$$$$

  -OEChem-04052321213D

 93103  0     1  0  0  0  0  0999 V2000
  -28.6078  -30.6570    9.7926 C   0  0  0  0  0  0  0  0  0  0  0  0
  -29.4311  -29.6273   10.2367 C   0  0  0  0  0  0  0  0  0  0  0  0
  -22.6550  -10.2009   20.1813 C   0  0  0  0  0  0  0  0  0  0  0  0
  -24.3465   -9.4057   21.7122 C   0  0  0  0  0  0  0  0  0  0  0  0
  -28.2879  -31.7105   10.6480 C   0  0  0  0  0  0  0  0  0  0  0  0
  -29.9361  -29.6512   11.5363 C   0  0  0  0  0  0  0  0  0  0  0  0
  -30.9582  -24.8343   15.1776 C   0  0  0  0  0  0  0  0  0  0  0  0
  -34.3845  -20.4303   16.9061 C   0  0  0  0  0  0  0  0  0  0  0  0
  -33.6037  -19.3495   16.4930 C   0  0  0  0  0  0  0  0  0  0  0  0
  -21.9282   -9.0261   20.3742 C   0  0  0  0  0  0  0  0  0  0  0  0
  -23.6197   -8.2309   21.9051 C   0  0  0  0  0  0  0  0  0  0  0  0
  -32.1137  -24.1148   15.4789 C   0  0  0  0  0  0  0  0  0  0  0  0
  -20.9163   -7.2383   23.6733 C   0  0  0  0  0  0  0  0  0  0  0  0
  -20.7638   -6.7798   24.9818 C   0  0  0  0  0  0  0  0  0  0  0  0
  -32.4204  -25.4503   17.4642 C   0  0  0  0  0  0  0  0  0  0  0  0
  -21.8794   -4.7201   24.3899 C   0  0  0  0  0  0  0  0  0  0  0  0
  -23.8642  -10.3907   20.8503 C   0  0  0  0  0  0  0  0  0  0  0  0
  -24.1922  -12.9196   20.9174 C   0  0  0  0  0  0  0  0  0  0  0  0
  -28.7814  -31.7424   11.9618 C   0  0  0  0  0  0  0  0  0  0  0  0
  -30.5304  -25.8762   16.0129 C   0  0  0  0  0  0  0  0  0  0  0  0
  -29.6236  -30.7068   12.4097 C   0  0  0  0  0  0  0  0  0  0  0  0
  -31.2577  -26.1799   17.1726 C   0  0  0  0  0  0  0  0  0  0  0  0
  -32.3079  -19.5767   18.5276 C   0  0  0  0  0  0  0  0  0  0  0  0
  -34.1213  -21.0776   18.1246 C   0  0  0  0  0  0  0  0  0  0  0  0
  -33.0769  -20.6487   18.9479 C   0  0  0  0  0  0  0  0  0  0  0  0
  -32.5689  -18.9507   17.3169 C   0  0  0  0  0  0  0  0  0  0  0  0
  -22.4105   -8.0411   21.2360 C   0  0  0  0  0  0  0  0  0  0  0  0
  -32.8466  -24.4246   16.6208 C   0  0  0  0  0  0  0  0  0  0  0  0
  -21.5502   -6.4377   22.7231 C   0  0  0  0  0  0  0  0  0  0  0  0
  -21.2454   -5.5207   25.3401 C   0  0  0  0  0  0  0  0  0  0  0  0
  -22.0318   -5.1786   23.0814 C   0  0  0  0  0  0  0  0  0  0  0  0
  -24.6157  -11.6038   20.6511 C   0  0  0  0  0  0  0  0  0  0  0  0
  -25.2623  -13.7035   20.5612 C   0  0  0  0  0  0  0  0  0  0  0  0
  -22.9432  -13.3912   21.4402 C   0  0  0  0  0  0  0  0  0  0  0  0
  -31.6200  -18.0367   20.3565 C   0  0  0  0  0  0  0  0  0  0  0  0
  -30.0987  -29.0050   15.6548 C   0  0  0  0  0  0  0  0  0  0  0  0
  -28.8824  -28.7860   18.6540 C   0  0  0  0  0  0  0  0  0  0  0  0
  -29.7165  -27.0678   21.7149 C   0  0  0  0  0  0  0  0  0  0  0  0
  -30.7748  -14.6392   20.6972 C   0  0  0  0  0  0  0  0  0  0  0  0
  -28.4466  -32.9260   12.8345 C   0  0  0  0  0  0  0  0  0  0  0  0
  -29.2671  -26.6252   15.6881 C   0  0  0  0  0  0  0  0  0  0  0  0
  -30.8297  -27.2759   18.1129 C   0  0  0  0  0  0  0  0  0  0  0  0
  -28.7186  -32.6858   14.3173 C   0  0  0  0  0  0  0  0  0  0  0  0
  -29.4870  -12.5777   18.0342 C   0  0  0  0  0  0  0  0  0  0  0  0
  -30.0917  -32.0507   14.5121 C   0  0  0  0  0  0  0  0  0  0  0  0
  -28.0842  -12.2171   18.5215 C   0  0  0  0  0  0  0  0  0  0  0  0
  -30.4708  -12.6880   19.1946 C   0  0  0  0  0  0  0  0  0  0  0  0
  -28.6343  -13.2908   20.7506 C   0  0  0  0  0  0  0  0  0  0  0  0
  -30.9274  -18.2437   23.7861 C   0  0  0  0  0  0  0  0  0  0  0  0
  -30.6586  -18.0681   18.0210 C   0  0  0  0  0  0  0  0  0  0  0  0
  -31.1802  -18.8921   19.2124 C   0  0  2  0  0  0  0  0  0  0  0  0
  -30.1708  -30.6844   13.8204 C   0  0  1  0  0  0  0  0  0  0  0  0
  -30.6057  -17.7582   21.4149 C   0  0  1  0  0  0  0  0  0  0  0  0
  -29.2073  -28.0052   16.3357 C   0  0  1  0  0  0  0  0  0  0  0  0
  -30.4686  -16.8078   23.6192 C   0  0  1  0  0  0  0  0  0  0  0  0
  -27.6082  -13.1974   19.6082 C   0  0  2  0  0  0  0  0  0  0  0  0
  -30.9129  -16.4828   22.1941 C   0  0  1  0  0  0  0  0  0  0  0  0
  -32.7956  -21.3192   20.2497 C   0  0  0  0  0  0  0  0  0  0  0  0
  -28.2586  -26.3209   23.6160 C   0  0  0  0  0  0  0  0  0  0  0  0
  -30.6876  -16.3387   26.0760 C   0  0  0  0  0  0  0  0  0  0  0  0
  -30.5996  -14.4380   24.4379 C   0  0  0  0  0  0  0  0  0  0  0  0
  -29.6520  -31.4569   19.9124 C   0  0  0  0  0  0  0  0  0  0  0  0
  -29.7626  -30.3007   22.1304 C   0  0  0  0  0  0  0  0  0  0  0  0
  -27.6047  -30.3979   20.8827 C   0  0  0  0  0  0  0  0  0  0  0  0
  -30.6569  -24.2707   21.4898 C   0  0  0  0  0  0  0  0  0  0  0  0
  -34.9928  -22.2418   18.5291 C   0  0  0  0  0  0  0  0  0  0  0  0
  -34.3099  -23.5853   18.2972 C   0  0  0  0  0  0  0  0  0  1  0  0
  -29.4517  -28.8864   20.0485 C   0  0  1  0  0  0  0  0  0  0  0  0
  -28.9670  -25.9033   22.3367 C   0  0  2  0  0  0  0  0  0  0  0  0
  -31.0614  -15.8777   24.6666 C   0  0  0  0  0  0  0  0  0  0  0  0
  -29.1335  -30.2514   20.7216 C   0  0  0  0  0  0  0  0  0  0  0  0
  -25.8580  -11.5507   20.1631 N   0  0  0  0  0  0  0  0  0  0  0  0
  -26.2241  -12.8431   20.1200 N   0  0  0  0  0  0  0  0  0  0  0  0
  -29.5912  -27.9836   17.7487 N   0  0  0  0  0  0  0  0  0  0  0  0
  -29.9715  -13.5958   20.2267 N   0  0  0  0  0  0  0  0  0  0  0  0
  -25.4648  -15.0380   20.5854 N   0  0  0  0  0  0  0  0  0  0  0  0
  -22.8071  -13.5226   22.8289 N   0  0  0  0  0  0  0  0  0  0  0  0
  -29.4942  -29.6781   14.6103 N   0  0  0  0  0  0  0  0  0  0  0  0
  -28.9487  -27.7282   20.7792 N   0  0  0  0  0  0  0  0  0  0  0  0
  -30.6298  -18.8552   22.4500 N   0  3  0  0  0  0  0  0  0  0  0  0
  -29.9090  -24.7951   22.6614 N   0  3  0  0  0  0  0  0  0  0  0  0
  -21.9709  -13.6715   20.6988 O   0  0  0  0  0  0  0  0  0  0  0  0
  -32.7614  -17.5828   20.4214 O   0  0  0  0  0  0  0  0  0  0  0  0
  -31.2492  -29.1557   16.0490 O   0  0  0  0  0  0  0  0  0  0  0  0
  -27.8430  -29.3912   18.3801 O   0  0  0  0  0  0  0  0  0  0  0  0
  -30.8667  -27.3644   22.0307 O   0  0  0  0  0  0  0  0  0  0  0  0
  -31.9156  -14.8687   20.2996 O   0  0  0  0  0  0  0  0  0  0  0  0
  -31.7197  -17.9086   17.0471 O   0  0  0  0  0  0  0  0  0  0  0  0
  -21.7014   -6.8947   21.4247 O   0  0  0  0  0  0  0  0  0  0  0  0
  -33.9752  -23.7243   16.9170 O   0  0  0  0  0  0  0  0  0  1  0  0
  -30.1548  -15.3915   21.6595 O   0  0  0  0  0  0  0  0  0  0  0  0
  -21.1003   -5.0811   26.5970 F   0  0  0  0  0  0  0  0  0  0  0  0
  -22.6427   -4.4055   22.1732 F   0  0  0  0  0  0  0  0  0  0  0  0
  1  2  1  0  0  0  0
  1  5  2  0  0  0  0
  2  6  2  0  0  0  0
  3 10  2  0  0  0  0
  3 17  1  0  0  0  0
  4 11  1  0  0  0  0
  4 17  2  0  0  0  0
  5 19  1  0  0  0  0
  6 21  1  0  0  0  0
  7 12  2  0  0  0  0
  7 20  1  0  0  0  0
  8  9  2  0  0  0  0
  8 24  1  0  0  0  0
  9 26  1  0  0  0  0
 10 27  1  0  0  0  0
 11 27  2  0  0  0  0
 12 28  1  0  0  0  0
 13 14  2  0  0  0  0
 13 29  1  0  0  0  0
 14 30  1  0  0  0  0
 15 22  1  0  0  0  0
 15 28  2  0  0  0  0
 16 30  2  0  0  0  0
 16 31  1  0  0  0  0
 17 32  1  0  0  0  0
 18 32  1  0  0  0  0
 18 33  2  0  0  0  0
 18 34  1  0  0  0  0
 19 21  2  0  0  0  0
 19 40  1  0  0  0  0
 20 22  2  0  0  0  0
 20 41  1  0  0  0  0
 21 52  1  0  0  0  0
 22 42  1  0  0  0  0
 23 25  1  0  0  0  0
 23 26  2  0  0  0  0
 23 51  1  0  0  0  0
 24 25  2  0  0  0  0
 24 66  1  0  0  0  0
 25 58  1  0  0  0  0
 26 88  1  0  0  0  0
 27 89  1  0  0  0  0
 28 90  1  0  0  0  0
 29 31  2  0  0  0  0
 29 89  1  0  0  0  0
 30 92  1  0  0  0  0
 31 93  1  0  0  0  0
 32 72  2  0  0  0  0
 33 73  1  0  0  0  0
 33 76  1  0  0  0  0
 34 77  1  0  0  0  0
 34 82  2  0  0  0  0
 35 51  1  0  0  0  0
 35 53  1  0  0  0  0
 35 83  2  0  0  0  0
 36 54  1  0  0  0  0
 36 78  1  0  0  0  0
 36 84  2  0  0  0  0
 37 68  1  0  0  0  0
 37 74  1  0  0  0  0
 37 85  2  0  0  0  0
 38 69  1  0  0  0  0
 38 79  1  0  0  0  0
 38 86  2  0  0  0  0
 39 75  1  0  0  0  0
 39 87  2  0  0  0  0
 39 91  1  0  0  0  0
 40 43  1  0  0  0  0
 41 54  1  0  0  0  0
 42 74  1  0  0  0  0
 43 45  1  0  0  0  0
 44 46  1  0  0  0  0
 44 47  1  0  0  0  0
 45 52  1  0  0  0  0
 46 56  1  0  0  0  0
 47 75  1  0  0  0  0
 48 56  1  0  0  0  0
 48 75  1  0  0  0  0
 49 55  1  0  0  0  0
 49 80  1  0  0  0  0
 50 51  1  0  0  0  0
 50 88  1  0  0  0  0
 52 78  1  0  0  0  0
 53 57  1  0  0  0  0
 53 80  1  0  0  0  0
 54 74  1  0  0  0  0
 55 57  1  0  0  0  0
 55 70  1  0  0  0  0
 56 73  1  0  0  0  0
 57 91  1  0  0  0  0
 59 69  1  0  0  0  0
 60 70  1  0  0  0  0
 61 70  1  0  0  0  0
 62 71  1  0  0  0  0
 63 71  1  0  0  0  0
 64 71  1  0  0  0  0
 65 81  1  0  0  0  0
 66 67  1  0  0  0  0
 67 90  1  0  0  0  0
 68 71  1  0  0  0  0
 68 79  1  0  0  0  0
 69 81  1  0  0  0  0
 72 73  1  0  0  0  0
M  CHG  2  80   1  81   1
M  ISO  4  39 100  67 101  90 101  91 100
M  END
> <Batch ID>
0143

> <Smiles>
CNC(C)C(=O)NC(C(=O)N1Cc2cc([101O:1][101CH2:1]Cc3ccc4c(c3C)C(C(=O)C3NCC(C(C)C)C3[100O:0][100C:0](=O)N3CCCC(n5nc(-c6ccc(Oc7ccc(F)cc7F)cc6)c(C(N)=O)c5N)C3)CO4)ccc2CC1C(=O)NC1CCCc2ccccc21)C(C)(C)C

> <Shape>
0.235

> <Color>
0.164

> <Negative vol penalty>
0.000

$$$$

  -OEChem-04052321213D

 88 98  0     1  0  0  0  0  0999 V2000
  -29.1297  -31.4766   26.7923 C   0  0  0  0  0  0  0  0  0  0  0  0
  -29.0262  -30.5969   25.7195 C   0  0  0  0  0  0  0  0  0  0  0  0
  -24.3568   -9.0968   21.5156 C   0  0  0  0  0  0  0  0  0  0  0  0
  -24.3985  -10.5603   23.4375 C   0  0  0  0  0  0  0  0  0  0  0  0
  -27.9861  -31.8565   27.4936 C   0  0  0  0  0  0  0  0  0  0  0  0
  -27.7791  -30.0957   25.3481 C   0  0  0  0  0  0  0  0  0  0  0  0
  -27.0558  -30.2035   20.3371 C   0  0  0  0  0  0  0  0  0  0  0  0
  -23.9732   -8.0339   22.3333 C   0  0  0  0  0  0  0  0  0  0  0  0
  -24.0148   -9.4974   24.2552 C   0  0  0  0  0  0  0  0  0  0  0  0
  -27.6731  -29.2064   19.5831 C   0  0  0  0  0  0  0  0  0  0  0  0
  -22.6325   -5.0188   23.8587 C   0  0  0  0  0  0  0  0  0  0  0  0
  -21.6007   -4.1946   23.4095 C   0  0  0  0  0  0  0  0  0  0  0  0
  -25.5878  -27.9976   19.4857 C   0  0  0  0  0  0  0  0  0  0  0  0
  -27.6252  -25.3671   20.0497 C   0  0  0  0  0  0  0  0  0  0  0  0
  -20.1078   -6.0934   23.3550 C   0  0  0  0  0  0  0  0  0  0  0  0
  -24.5695  -10.3600   22.0677 C   0  0  0  0  0  0  0  0  0  0  0  0
  -24.1220  -12.3633   20.5530 C   0  0  0  0  0  0  0  0  0  0  0  0
  -26.7232  -31.3672   27.1246 C   0  0  0  0  0  0  0  0  0  0  0  0
  -25.7003  -30.0996   20.6809 C   0  0  0  0  0  0  0  0  0  0  0  0
  -26.6177  -30.4683   26.0460 C   0  0  0  0  0  0  0  0  0  0  0  0
  -24.9551  -28.9959   20.2420 C   0  0  0  0  0  0  0  0  0  0  0  0
  -26.4508  -23.6091   18.2296 C   0  0  0  0  0  0  0  0  0  0  0  0
  -27.3767  -24.0450   20.4181 C   0  0  0  0  0  0  0  0  0  0  0  0
  -26.7894  -23.1661   19.5081 C   0  0  0  0  0  0  0  0  0  0  0  0
  -26.6994  -24.9313   17.8611 C   0  0  0  0  0  0  0  0  0  0  0  0
  -23.8021   -8.2342   23.7031 C   0  0  0  0  0  0  0  0  0  0  0  0
  -26.9398  -28.1018   19.1597 C   0  0  0  0  0  0  0  0  0  0  0  0
  -22.4019   -6.3802   24.0561 C   0  0  0  0  0  0  0  0  0  0  0  0
  -27.2866  -25.8103   18.7712 C   0  0  0  0  0  0  0  0  0  1  0  0
  -20.3384   -4.7319   23.1577 C   0  0  0  0  0  0  0  0  0  0  0  0
  -21.1396   -6.9175   23.8042 C   0  0  0  0  0  0  0  0  0  0  0  0
  -24.9664  -11.4583   21.2236 C   0  0  0  0  0  0  0  0  0  0  0  0
  -24.9799  -13.2081   19.8921 C   0  0  0  0  0  0  0  0  0  0  0  0
  -22.6902  -12.4340   20.5296 C   0  0  0  0  0  0  0  0  0  0  0  0
  -24.0880  -29.9017   23.4131 C   0  0  0  0  0  0  0  0  0  0  0  0
  -21.5105  -30.1305   21.4569 C   0  0  0  0  0  0  0  0  0  0  0  0
  -20.1928  -29.6993   18.3385 C   0  0  0  0  0  0  0  0  0  0  0  0
  -29.5812  -16.3644   19.7855 C   0  0  0  0  0  0  0  0  0  0  0  0
  -25.5215  -31.7694   27.9424 C   0  0  0  0  0  0  0  0  0  0  0  0
  -25.0426  -31.1968   21.4722 C   0  0  0  0  0  0  0  0  0  0  0  0
  -23.4921  -28.8470   20.5673 C   0  0  0  0  0  0  0  0  0  0  0  0
  -24.1909  -31.4860   27.2499 C   0  0  0  0  0  0  0  0  0  0  0  0
  -29.9683  -12.8887   19.1172 C   0  0  0  0  0  0  0  0  0  0  0  0
  -24.5054  -23.0414   16.6274 C   0  0  0  0  0  0  0  0  0  0  0  0
  -24.5605  -21.9464   17.6463 C   0  0  0  0  0  0  0  0  0  0  0  0
  -24.1851  -30.0794   26.6598 C   0  0  0  0  0  0  0  0  0  0  0  0
  -27.7528  -20.3911   18.1258 C   0  0  0  0  0  0  0  0  0  0  0  0
  -28.6348  -12.2811   19.5560 C   0  0  0  0  0  0  0  0  0  0  0  0
  -28.2463  -18.9406   18.1314 C   0  0  0  0  0  0  0  0  0  0  0  0
  -27.6716  -19.5243   20.3831 C   0  0  0  0  0  0  0  0  0  0  0  0
  -30.3930  -14.0368   20.0302 C   0  0  0  0  0  0  0  0  0  0  0  0
  -28.0489  -14.4894   20.6417 C   0  0  0  0  0  0  0  0  0  0  0  0
  -25.8206  -22.6669   17.2531 C   0  0  0  0  0  0  0  0  0  0  0  0
  -25.2795  -29.9224   25.5973 C   0  0  1  0  0  0  0  0  0  0  0  0
  -23.7841  -30.7360   22.2010 C   0  0  1  0  0  0  0  0  0  0  0  0
  -27.7025  -20.8326   19.5942 C   0  0  2  0  0  0  0  0  0  0  0  0
  -27.5514  -13.3643   19.7182 C   0  0  2  0  0  0  0  0  0  0  0  0
  -28.6189  -18.6428   19.5812 C   0  0  1  0  0  0  0  0  0  0  0  0
  -27.7488  -23.5963   21.7934 C   0  0  0  0  0  0  0  0  0  0  0  0
  -26.3399  -25.4164   16.4925 C   0  0  0  0  0  0  0  0  0  0  0  0
  -18.0490  -29.9366   17.0558 C   0  0  0  0  0  0  0  0  0  0  0  0
  -20.4498  -27.5853   22.7635 C   0  0  0  0  0  0  0  0  0  0  0  0
  -18.8526  -27.3517   20.8498 C   0  0  0  0  0  0  0  0  0  0  0  0
  -18.7201  -29.3428   22.3466 C   0  0  0  0  0  0  0  0  0  0  0  0
  -21.3837  -31.6784   16.4881 C   0  0  0  0  0  0  0  0  0  0  0  0
  -26.5248  -21.7486   19.9078 C   0  0  0  0  0  0  0  0  0  0  0  0
  -20.6409  -29.1447   20.7147 C   0  0  1  0  0  0  0  0  0  0  0  0
  -19.3484  -30.6113   17.4669 C   0  0  2  0  0  0  0  0  0  0  0  0
  -19.6939  -28.3577   21.6640 C   0  0  0  0  0  0  0  0  0  0  0  0
  -26.2613  -11.7049   21.0084 N   0  0  0  0  0  0  0  0  0  0  0  0
  -26.2370  -12.7744   20.1950 N   0  0  0  0  0  0  0  0  0  0  0  0
  -22.8958  -29.9431   21.3487 N   0  0  0  0  0  0  0  0  0  0  0  0
  -29.3220  -15.0302   20.1402 N   0  0  0  0  0  0  0  0  0  0  0  0
  -24.7740  -14.2721   19.0872 N   0  0  0  0  0  0  0  0  0  0  0  0
  -21.9624  -11.4883   21.2647 N   0  0  0  0  0  0  0  0  0  0  0  0
  -24.8705  -30.5420   24.3550 N   0  0  0  0  0  0  0  0  0  0  0  0
  -19.9509  -29.9074   19.6800 N   0  0  0  0  0  0  0  0  0  0  0  0
  -28.5098  -17.2398   19.9134 N   0  0  0  0  0  0  0  0  0  0  0  0
  -20.0950  -30.9848   16.2324 N   0  3  0  0  0  0  0  0  0  0  0  0
  -22.0741  -13.2999   19.8631 O   0  0  0  0  0  0  0  0  0  0  0  0
  -23.6440  -28.7620   23.4890 O   0  0  0  0  0  0  0  0  0  0  0  0
  -20.9803  -31.0378   22.1030 O   0  0  0  0  0  0  0  0  0  0  0  0
  -20.9847  -28.8814   17.8756 O   0  0  0  0  0  0  0  0  0  0  0  0
  -30.6841  -16.7459   19.3795 O   0  0  0  0  0  0  0  0  0  0  0  0
  -23.4275   -7.1973   24.5013 O   0  0  0  0  0  0  0  0  0  0  0  0
  -27.5400  -27.1268   18.4242 O   0  0  0  0  0  0  0  0  0  1  0  0
  -19.3480   -3.9406   22.7249 F   0  0  0  0  0  0  0  0  0  0  0  0
  -20.9124   -8.2249   23.9909 F   0  0  0  0  0  0  0  0  0  0  0  0
  1  2  1  0  0  0  0
  1  5  2  0  0  0  0
  2  6  2  0  0  0  0
  3  8  2  0  0  0  0
  3 16  1  0  0  0  0
  4  9  1  0  0  0  0
  4 16  2  0  0  0  0
  5 18  1  0  0  0  0
  6 20  1  0  0  0  0
  7 10  2  0  0  0  0
  7 19  1  0  0  0  0
  8 26  1  0  0  0  0
  9 26  2  0  0  0  0
 10 27  1  0  0  0  0
 11 12  2  0  0  0  0
 11 28  1  0  0  0  0
 12 30  1  0  0  0  0
 13 21  1  0  0  0  0
 13 27  2  0  0  0  0
 14 23  2  0  0  0  0
 14 29  1  0  0  0  0
 15 30  2  0  0  0  0
 15 31  1  0  0  0  0
 16 32  1  0  0  0  0
 17 32  1  0  0  0  0
 17 33  2  0  0  0  0
 17 34  1  0  0  0  0
 18 20  2  0  0  0  0
 18 39  1  0  0  0  0
 19 21  2  0  0  0  0
 19 40  1  0  0  0  0
 20 54  1  0  0  0  0
 21 41  1  0  0  0  0
 22 24  2  0  0  0  0
 22 25  1  0  0  0  0
 22 53  1  0  0  0  0
 23 24  1  0  0  0  0
 23 59  1  0  0  0  0
 24 66  1  0  0  0  0
 25 29  2  0  0  0  0
 25 60  1  0  0  0  0
 26 85  1  0  0  0  0
 27 86  1  0  0  0  0
 28 31  2  0  0  0  0
 28 85  1  0  0  0  0
 29 86  1  0  0  0  0
 30 87  1  0  0  0  0
 31 88  1  0  0  0  0
 32 70  2  0  0  0  0
 33 71  1  0  0  0  0
 33 74  1  0  0  0  0
 34 75  1  0  0  0  0
 34 80  2  0  0  0  0
 35 55  1  0  0  0  0
 35 76  1  0  0  0  0
 35 81  2  0  0  0  0
 36 67  1  0  0  0  0
 36 72  1  0  0  0  0
 36 82  2  0  0  0  0
 37 68  1  0  0  0  0
 37 77  1  0  0  0  0
 37 83  2  0  0  0  0
 38 73  1  0  0  0  0
 38 78  1  0  0  0  0
 38 84  2  0  0  0  0
 39 42  1  0  0  0  0
 40 55  1  0  0  0  0
 41 72  1  0  0  0  0
 42 46  1  0  0  0  0
 43 48  1  0  0  0  0
 43 51  1  0  0  0  0
 44 45  1  0  0  0  0
 44 53  1  0  0  0  0
 45 53  1  0  0  0  0
 46 54  1  0  0  0  0
 47 49  1  0  0  0  0
 47 56  1  0  0  0  0
 48 57  1  0  0  0  0
 49 58  1  0  0  0  0
 50 56  1  0  0  0  0
 50 58  1  0  0  0  0
 51 73  1  0  0  0  0
 52 57  1  0  0  0  0
 52 73  1  0  0  0  0
 54 76  1  0  0  0  0
 55 72  1  0  0  0  0
 56 66  1  0  0  0  0
 57 71  1  0  0  0  0
 58 78  1  0  0  0  0
 61 68  1  0  0  0  0
 62 69  1  0  0  0  0
 63 69  1  0  0  0  0
 64 69  1  0  0  0  0
 65 79  1  0  0  0  0
 67 69  1  0  0  0  0
 67 77  1  0  0  0  0
 68 79  1  0  0  0  0
 70 71  1  0  0  0  0
M  CHG  1  79   1
M  ISO  4  29 101  38 100  78 100  86 101
M  END
> <Batch ID>
0143

> <Smiles>
CNC(C)C(=O)NC(C(=O)N1Cc2cc([101O:1][101c:1]3cc(C)c(CC4CCC([100NH:0][100C:0](=O)N5CCCC(n6nc(-c7ccc(Oc8ccc(F)cc8F)cc7)c(C(N)=O)c6N)C5)C4)c(C4CC4)c3C)ccc2CC1C(=O)NC1CCCc2ccccc21)C(C)(C)C

> <Shape>
0.312

> <Color>
0.114

> <Negative vol penalty>
0.000

$$$$

  -OEChem-04052321213D

 85 94  0     1  0  0  0  0  0999 V2000
  -22.8104  -11.3758   18.5446 C   0  0  0  0  0  0  0  0  0  0  0  0
  -22.4812  -12.7222   18.4252 C   0  0  0  0  0  0  0  0  0  0  0  0
  -25.1108  -28.4608   19.2644 C   0  0  0  0  0  0  0  0  0  0  0  0
  -26.0932  -28.0047   21.4240 C   0  0  0  0  0  0  0  0  0  0  0  0
  -23.8495  -10.9855   19.3884 C   0  0  0  0  0  0  0  0  0  0  0  0
  -23.1902  -13.6791   19.1505 C   0  0  0  0  0  0  0  0  0  0  0  0
  -24.4316  -17.7121   16.3507 C   0  0  0  0  0  0  0  0  0  0  0  0
  -26.1923  -29.2819   18.9458 C   0  0  0  0  0  0  0  0  0  0  0  0
  -27.1748  -28.8258   21.1054 C   0  0  0  0  0  0  0  0  0  0  0  0
  -23.4296  -18.6503   16.1062 C   0  0  0  0  0  0  0  0  0  0  0  0
  -30.0067  -28.6130   19.2736 C   0  0  0  0  0  0  0  0  0  0  0  0
  -31.2857  -28.1412   19.5691 C   0  0  0  0  0  0  0  0  0  0  0  0
  -17.5554  -23.9751   21.0288 C   0  0  0  0  0  0  0  0  0  0  0  0
  -24.3235  -20.0515   17.8545 C   0  0  0  0  0  0  0  0  0  0  0  0
  -31.6519  -30.0408   21.0164 C   0  0  0  0  0  0  0  0  0  0  0  0
  -25.0611  -27.8223   20.5036 C   0  0  0  0  0  0  0  0  0  0  0  0
  -17.2201  -25.2615   20.6066 C   0  0  0  0  0  0  0  0  0  0  0  0
  -23.8262  -25.5919   20.5953 C   0  0  0  0  0  0  0  0  0  0  0  0
  -24.5780  -11.9390   20.1169 C   0  0  0  0  0  0  0  0  0  0  0  0
  -25.3821  -17.9319   17.3579 C   0  0  0  0  0  0  0  0  0  0  0  0
  -24.2392  -13.3011   20.0058 C   0  0  0  0  0  0  0  0  0  0  0  0
  -25.3380  -19.1158   18.1081 C   0  0  0  0  0  0  0  0  0  0  0  0
  -17.6309  -22.9346   20.1029 C   0  0  0  0  0  0  0  0  0  0  0  0
  -16.9602  -25.5074   19.2584 C   0  0  0  0  0  0  0  0  0  0  0  0
  -17.0355  -24.4669   18.3325 C   0  0  0  0  0  0  0  0  0  0  0  0
  -17.3709  -23.1805   18.7547 C   0  0  0  0  0  0  0  0  0  0  0  0
  -27.2244  -29.4644   19.8663 C   0  0  0  0  0  0  0  0  0  0  0  0
  -23.3738  -19.8188   16.8601 C   0  0  0  0  0  0  0  0  0  0  0  0
  -29.5504  -29.7987   19.8494 C   0  0  0  0  0  0  0  0  0  0  0  0
  -32.1083  -28.8551   20.4405 C   0  0  0  0  0  0  0  0  0  0  0  0
  -30.3730  -30.5126   20.7208 C   0  0  0  0  0  0  0  0  0  0  0  0
  -23.9438  -26.9744   20.8335 C   0  0  0  0  0  0  0  0  0  0  0  0
  -22.5880  -25.2624   21.0899 C   0  0  0  0  0  0  0  0  0  0  0  0
  -17.1482  -26.3363   21.6048 C   0  0  0  0  0  0  0  0  0  0  0  0
  -24.7534  -24.6866   19.9818 C   0  0  0  0  0  0  0  0  0  0  0  0
  -26.1836  -16.4428   20.0494 C   0  0  0  0  0  0  0  0  0  0  0  0
  -28.5715  -18.6379   20.0942 C   0  0  0  0  0  0  0  0  0  0  0  0
  -29.7139  -21.6968   19.1019 C   0  0  0  0  0  0  0  0  0  0  0  0
  -25.6618  -11.4649   21.0524 C   0  0  0  0  0  0  0  0  0  0  0  0
  -26.4725  -16.9225   17.5912 C   0  0  0  0  0  0  0  0  0  0  0  0
  -26.3469  -19.4087   19.1873 C   0  0  0  0  0  0  0  0  0  0  0  0
  -26.6091  -12.5753   21.4996 C   0  0  0  0  0  0  0  0  0  0  0  0
  -19.3500  -27.9122   23.9308 C   0  0  0  0  0  0  0  0  0  0  0  0
  -25.8210  -13.8100   21.9253 C   0  0  0  0  0  0  0  0  0  0  0  0
  -20.7318  -27.7138   23.3053 C   0  0  0  0  0  0  0  0  0  0  0  0
  -18.2772  -28.1361   22.8680 C   0  0  0  0  0  0  0  0  0  0  0  0
  -19.6028  -26.8892   21.1968 C   0  0  0  0  0  0  0  0  0  0  0  0
  -18.6964  -21.0915   15.8845 C   0  0  0  0  0  0  0  0  0  0  0  0
  -19.8386  -22.2185   17.2222 C   0  0  0  0  0  0  0  0  0  0  0  0
  -25.0012  -14.3711   20.7571 C   0  0  1  0  0  0  0  0  0  0  0  0
  -27.0811  -17.0122   18.9873 C   0  0  1  0  0  0  0  0  0  0  0  0
  -20.2036  -21.4163   15.9551 C   0  0  0  0  0  0  0  0  0  0  0  0
  -20.7049  -26.6097   22.2318 C   0  0  1  0  0  0  0  0  0  0  0  0
  -17.9929  -21.5664   20.5809 C   0  0  0  0  0  0  0  0  0  0  0  0
  -16.5999  -26.8870   18.8042 C   0  0  0  0  0  0  0  0  0  0  0  0
  -16.7575  -24.7310   16.8859 C   0  0  0  0  0  0  0  0  0  0  0  0
  -31.6868  -23.2310   19.3279 C   0  0  0  0  0  0  0  0  0  0  0  0
  -27.6742  -19.3721   22.9166 C   0  0  0  0  0  0  0  0  0  0  0  0
  -29.0088  -21.4810   22.7172 C   0  0  0  0  0  0  0  0  0  0  0  0
  -30.1533  -19.2674   22.6041 C   0  0  0  0  0  0  0  0  0  0  0  0
  -30.2280  -21.6539   16.1877 C   0  0  0  0  0  0  0  0  0  0  0  0
  -17.4544  -22.0603   17.7602 C   0  0  0  0  0  0  0  0  0  0  0  0
  -21.1492  -20.2446   16.1350 C   0  0  0  0  0  0  0  0  0  1  0  0
  -28.7338  -20.0297   20.6558 C   0  0  1  0  0  0  0  0  0  0  0  0
  -31.0388  -22.1311   18.5015 C   0  0  2  0  0  0  0  0  0  0  0  0
  -28.8722  -20.0314   22.2045 C   0  0  0  0  0  0  0  0  0  0  0  0
  -22.8662  -27.4878   21.4328 N   0  0  0  0  0  0  0  0  0  0  0  0
  -22.0596  -26.4223   21.5751 N   0  0  0  0  0  0  0  0  0  0  0  0
  -18.3080  -27.0688   21.8688 N   0  0  0  0  0  0  0  0  0  0  0  0
  -27.3900  -18.3881   19.3818 N   0  0  0  0  0  0  0  0  0  0  0  0
  -21.9105  -24.0964   21.1526 N   0  0  0  0  0  0  0  0  0  0  0  0
  -25.9802  -25.1914   19.5295 N   0  0  0  0  0  0  0  0  0  0  0  0
  -25.8524  -15.1156   19.8539 N   0  0  0  0  0  0  0  0  0  0  0  0
  -29.8666  -20.6236   19.9540 N   0  0  0  0  0  0  0  0  0  0  0  0
  -18.4589  -22.2992   16.7011 N   0  3  0  0  0  0  0  0  0  0  0  0
  -30.8371  -22.6411   17.1158 N   0  3  0  0  0  0  0  0  0  0  0  0
  -16.0568  -26.5017   22.1477 O   0  0  0  0  0  0  0  0  0  0  0  0
  -24.4948  -23.4693   19.8241 O   0  0  0  0  0  0  0  0  0  0  0  0
  -25.8198  -17.1545   20.9782 O   0  0  0  0  0  0  0  0  0  0  0  0
  -29.4635  -17.8052   20.2746 O   0  0  0  0  0  0  0  0  0  0  0  0
  -28.6504  -22.2563   18.8440 O   0  0  0  0  0  0  0  0  0  0  0  0
  -28.2801  -30.2653   19.5556 O   0  0  0  0  0  0  0  0  0  0  0  0
  -22.3965  -20.7359   16.6240 O   0  0  0  0  0  0  0  0  0  1  0  0
  -33.3358  -28.4012   20.7254 F   0  0  0  0  0  0  0  0  0  0  0  0
  -29.9396  -31.6518   21.2779 F   0  0  0  0  0  0  0  0  0  0  0  0
  1  2  1  0  0  0  0
  1  5  2  0  0  0  0
  2  6  2  0  0  0  0
  3  8  2  0  0  0  0
  3 16  1  0  0  0  0
  4  9  1  0  0  0  0
  4 16  2  0  0  0  0
  5 19  1  0  0  0  0
  6 21  1  0  0  0  0
  7 10  2  0  0  0  0
  7 20  1  0  0  0  0
  8 27  1  0  0  0  0
  9 27  2  0  0  0  0
 10 28  1  0  0  0  0
 11 12  2  0  0  0  0
 11 29  1  0  0  0  0
 12 30  1  0  0  0  0
 13 17  1  0  0  0  0
 13 23  2  0  0  0  0
 14 22  1  0  0  0  0
 14 28  2  0  0  0  0
 15 30  2  0  0  0  0
 15 31  1  0  0  0  0
 16 32  1  0  0  0  0
 17 24  2  0  0  0  0
 17 34  1  0  0  0  0
 18 32  1  0  0  0  0
 18 33  2  0  0  0  0
 18 35  1  0  0  0  0
 19 21  2  0  0  0  0
 19 39  1  0  0  0  0
 20 22  2  0  0  0  0
 20 40  1  0  0  0  0
 21 50  1  0  0  0  0
 22 41  1  0  0  0  0
 23 26  1  0  0  0  0
 23 54  1  0  0  0  0
 24 25  1  0  0  0  0
 24 55  1  0  0  0  0
 25 26  2  0  0  0  0
 25 56  1  0  0  0  0
 26 62  1  0  0  0  0
 27 82  1  0  0  0  0
 28 83  1  0  0  0  0
 29 31  2  0  0  0  0
 29 82  1  0  0  0  0
 30 84  1  0  0  0  0
 31 85  1  0  0  0  0
 32 67  2  0  0  0  0
 33 68  1  0  0  0  0
 33 71  1  0  0  0  0
 34 69  1  0  0  0  0
 34 77  2  0  0  0  0
 35 72  1  0  0  0  0
 35 78  2  0  0  0  0
 36 51  1  0  0  0  0
 36 73  1  0  0  0  0
 36 79  2  0  0  0  0
 37 64  1  0  0  0  0
 37 70  1  0  0  0  0
 37 80  2  0  0  0  0
 38 65  1  0  0  0  0
 38 74  1  0  0  0  0
 38 81  2  0  0  0  0
 39 42  1  0  0  0  0
 40 51  1  0  0  0  0
 41 70  1  0  0  0  0
 42 44  1  0  0  0  0
 43 45  1  0  0  0  0
 43 46  1  0  0  0  0
 44 50  1  0  0  0  0
 45 53  1  0  0  0  0
 46 69  1  0  0  0  0
 47 53  1  0  0  0  0
 47 69  1  0  0  0  0
 48 52  1  0  0  0  0
 48 75  1  0  0  0  0
 49 52  1  0  0  0  0
 49 75  1  0  0  0  0
 50 73  1  0  0  0  0
 51 70  1  0  0  0  0
 52 63  1  0  0  0  0
 53 68  1  0  0  0  0
 57 65  1  0  0  0  0
 58 66  1  0  0  0  0
 59 66  1  0  0  0  0
 60 66  1  0  0  0  0
 61 76  1  0  0  0  0
 62 75  1  0  0  0  0
 63 83  1  0  0  0  0
 64 66  1  0  0  0  0
 64 74  1  0  0  0  0
 65 76  1  0  0  0  0
 67 68  1  0  0  0  0
M  CHG  2  75   1  76   1
M  ISO  4  17 100  34 100  63 101  83 101
M  END
> <Batch ID>
0143

> <Smiles>
CNC(C)C(=O)NC(C(=O)N1Cc2cc([101O:1][101CH2:1]C3CN(Cc4c(C)c[100c:0]([100C:0](=O)N5CCCC(n6nc(-c7ccc(Oc8ccc(F)cc8F)cc7)c(C(N)=O)c6N)C5)c(C)c4C)C3)ccc2CC1C(=O)NC1CCCc2ccccc21)C(C)(C)C

> <Shape>
0.177

> <Color>
0.081

> <Negative vol penalty>
0.000

$$$$

  -OEChem-04052321213D

 86 96  0     1  0  0  0  0  0999 V2000
  -24.0734  -30.0602   11.4856 C   0  0  0  0  0  0  0  0  0  0  0  0
  -24.7670  -29.1105   12.2287 C   0  0  0  0  0  0  0  0  0  0  0  0
  -23.0961   -9.8235   20.4965 C   0  0  0  0  0  0  0  0  0  0  0  0
  -23.7539  -10.3119   22.7694 C   0  0  0  0  0  0  0  0  0  0  0  0
  -23.5877  -31.2105   12.1060 C   0  0  0  0  0  0  0  0  0  0  0  0
  -24.9763  -29.3110   13.5927 C   0  0  0  0  0  0  0  0  0  0  0  0
  -25.1187  -25.0248   17.9647 C   0  0  0  0  0  0  0  0  0  0  0  0
  -28.6587  -18.6011   20.5674 C   0  0  0  0  0  0  0  0  0  0  0  0
  -22.3448   -8.7381   20.9471 C   0  0  0  0  0  0  0  0  0  0  0  0
  -23.0025   -9.2265   23.2200 C   0  0  0  0  0  0  0  0  0  0  0  0
  -26.1715  -24.3695   18.6018 C   0  0  0  0  0  0  0  0  0  0  0  0
  -27.9434  -19.7819   20.7790 C   0  0  0  0  0  0  0  0  0  0  0  0
  -22.9121   -5.5577   21.9410 C   0  0  0  0  0  0  0  0  0  0  0  0
  -23.0230   -4.3576   21.2388 C   0  0  0  0  0  0  0  0  0  0  0  0
  -26.0540  -25.9562   20.4150 C   0  0  0  0  0  0  0  0  0  0  0  0
  -29.4830  -20.4531   22.5375 C   0  0  0  0  0  0  0  0  0  0  0  0
  -20.6559   -4.4197   20.7589 C   0  0  0  0  0  0  0  0  0  0  0  0
  -23.8007  -10.6104   21.4077 C   0  0  0  0  0  0  0  0  0  0  0  0
  -24.1411  -13.0604   20.7837 C   0  0  0  0  0  0  0  0  0  0  0  0
  -23.7828  -31.4206   13.4802 C   0  0  0  0  0  0  0  0  0  0  0  0
  -24.5319  -26.1592   18.5437 C   0  0  0  0  0  0  0  0  0  0  0  0
  -24.4940  -30.4658   14.2319 C   0  0  0  0  0  0  0  0  0  0  0  0
  -29.7722  -18.3524   21.3553 C   0  0  0  0  0  0  0  0  0  0  0  0
  -24.9922  -26.6227   19.7844 C   0  0  0  0  0  0  0  0  0  0  0  0
  -30.1856  -19.2767   22.3257 C   0  0  0  0  0  0  0  0  0  0  0  0
  -22.2980   -8.4396   22.3089 C   0  0  0  0  0  0  0  0  0  0  0  0
  -26.6412  -24.8368   19.8257 C   0  0  0  0  0  0  0  0  0  0  0  0
  -28.3517  -20.7005   21.7579 C   0  0  0  0  0  0  0  0  0  0  0  0
  -21.6731   -6.1889   22.0522 C   0  0  0  0  0  0  0  0  0  0  0  0
  -21.8949   -3.7886   20.6478 C   0  0  0  0  0  0  0  0  0  0  0  0
  -20.5450   -5.6199   21.4611 C   0  0  0  0  0  0  0  0  0  0  0  0
  -24.5774  -11.7314   20.9427 C   0  0  0  0  0  0  0  0  0  0  0  0
  -25.2463  -13.7315   20.3205 C   0  0  0  0  0  0  0  0  0  0  0  0
  -22.8520  -13.6367   21.0324 C   0  0  0  0  0  0  0  0  0  0  0  0
  -24.2279  -29.2076   17.6958 C   0  0  0  0  0  0  0  0  0  0  0  0
  -22.3835  -29.3598   20.3599 C   0  0  0  0  0  0  0  0  0  0  0  0
  -21.5949  -28.0611   23.4158 C   0  0  0  0  0  0  0  0  0  0  0  0
  -30.7138  -14.8310   20.5286 C   0  0  0  0  0  0  0  0  0  0  0  0
  -23.2804  -32.7019   14.0972 C   0  0  0  0  0  0  0  0  0  0  0  0
  -23.3794  -26.8390   17.8565 C   0  0  0  0  0  0  0  0  0  0  0  0
  -24.3830  -27.8242   20.4578 C   0  0  0  0  0  0  0  0  0  0  0  0
  -23.2191  -32.6606   15.6220 C   0  0  0  0  0  0  0  0  0  0  0  0
  -29.6888  -11.9927   18.6391 C   0  0  0  0  0  0  0  0  0  0  0  0
  -24.5085  -32.0787   16.1925 C   0  0  0  0  0  0  0  0  0  0  0  0
  -33.0243  -20.8637   23.0745 C   0  0  0  0  0  0  0  0  0  0  0  0
  -33.8638  -19.6540   23.3773 C   0  0  0  0  0  0  0  0  0  0  0  0
  -28.2344  -11.7779   19.0615 C   0  0  0  0  0  0  0  0  0  0  0  0
  -31.4310  -17.3116   22.6586 C   0  0  0  0  0  0  0  0  0  0  0  0
  -30.5514  -12.4669   19.8066 C   0  0  0  0  0  0  0  0  0  0  0  0
  -28.5884  -13.4460   20.9298 C   0  0  0  0  0  0  0  0  0  0  0  0
  -31.4351  -18.8125   23.0226 C   0  0  1  0  0  0  0  0  0  0  0  0
  -24.7197  -30.6357   15.7186 C   0  0  1  0  0  0  0  0  0  0  0  0
  -30.7195  -17.1909   21.2966 C   0  0  1  0  0  0  0  0  0  0  0  0
  -23.1970  -28.2902   18.2902 C   0  0  1  0  0  0  0  0  0  0  0  0
  -32.6498  -19.5281   22.5089 C   0  0  0  0  0  0  0  0  0  0  0  0
  -27.6677  -13.0211   19.7731 C   0  0  2  0  0  0  0  0  0  0  0  0
  -20.0709  -28.4232   25.3763 C   0  0  0  0  0  0  0  0  0  0  0  0
  -24.1272  -31.6876   21.2823 C   0  0  0  0  0  0  0  0  0  0  0  0
  -23.1971  -31.3803   23.5864 C   0  0  0  0  0  0  0  0  0  0  0  0
  -21.6800  -31.9872   21.7015 C   0  0  0  0  0  0  0  0  0  0  0  0
  -20.3150  -25.4168   23.0572 C   0  0  0  0  0  0  0  0  0  0  0  0
  -27.6927  -24.2462   21.8754 C   0  0  0  0  0  0  0  0  0  1  0  0
  -28.3599  -22.9900   22.4012 C   0  0  0  0  0  0  0  0  0  0  0  0
  -22.6359  -29.6497   21.8198 C   0  0  1  0  0  0  0  0  0  0  0  0
  -20.2597  -27.7095   24.0467 C   0  0  2  0  0  0  0  0  0  0  0  0
  -22.9230  -31.1547   22.0842 C   0  0  0  0  0  0  0  0  0  0  0  0
  -25.8597  -11.5661   20.6077 N   0  0  0  0  0  0  0  0  0  0  0  0
  -26.2387  -12.7999   20.2334 N   0  0  0  0  0  0  0  0  0  0  0  0
  -23.2628  -28.4584   19.7433 N   0  0  0  0  0  0  0  0  0  0  0  0
  -29.9597  -13.6495   20.4368 N   0  0  0  0  0  0  0  0  0  0  0  0
  -25.4564  -15.0217   19.9833 N   0  0  0  0  0  0  0  0  0  0  0  0
  -21.8285  -12.8049   21.5066 N   0  0  0  0  0  0  0  0  0  0  0  0
  -23.8745  -29.7294   16.4661 N   0  0  0  0  0  0  0  0  0  0  0  0
  -21.4842  -29.1247   22.5453 N   0  0  0  0  0  0  0  0  0  0  0  0
  -30.0757  -15.9064   21.1344 N   0  0  0  0  0  0  0  0  0  0  0  0
  -20.1698  -26.2411   24.2846 N   0  3  0  0  0  0  0  0  0  0  0  0
  -22.6104  -14.8499   20.8244 O   0  0  0  0  0  0  0  0  0  0  0  0
  -25.2664  -29.4270   18.3083 O   0  0  0  0  0  0  0  0  0  0  0  0
  -21.4367  -29.9073   19.7896 O   0  0  0  0  0  0  0  0  0  0  0  0
  -22.6330  -27.4553   23.6725 O   0  0  0  0  0  0  0  0  0  0  0  0
  -31.8683  -14.9223   20.0975 O   0  0  0  0  0  0  0  0  0  0  0  0
  -21.5648   -7.3807   22.7489 O   0  0  0  0  0  0  0  0  0  0  0  0
  -27.6691  -24.1994   20.4494 O   0  0  0  0  0  0  0  0  0  1  0  0
  -27.6360  -21.8537   21.9451 O   0  0  0  0  0  0  0  0  0  0  0  0
  -22.0018   -2.6370   19.9722 F   0  0  0  0  0  0  0  0  0  0  0  0
  -19.3523   -6.2221   21.5636 F   0  0  0  0  0  0  0  0  0  0  0  0
  1  2  1  0  0  0  0
  1  5  2  0  0  0  0
  2  6  2  0  0  0  0
  3  9  2  0  0  0  0
  3 18  1  0  0  0  0
  4 10  1  0  0  0  0
  4 18  2  0  0  0  0
  5 20  1  0  0  0  0
  6 22  1  0  0  0  0
  7 11  2  0  0  0  0
  7 21  1  0  0  0  0
  8 12  2  0  0  0  0
  8 23  1  0  0  0  0
  9 26  1  0  0  0  0
 10 26  2  0  0  0  0
 11 27  1  0  0  0  0
 12 28  1  0  0  0  0
 13 14  2  0  0  0  0
 13 29  1  0  0  0  0
 14 30  1  0  0  0  0
 15 24  1  0  0  0  0
 15 27  2  0  0  0  0
 16 25  1  0  0  0  0
 16 28  2  0  0  0  0
 17 30  2  0  0  0  0
 17 31  1  0  0  0  0
 18 32  1  0  0  0  0
 19 32  1  0  0  0  0
 19 33  2  0  0  0  0
 19 34  1  0  0  0  0
 20 22  2  0  0  0  0
 20 39  1  0  0  0  0
 21 24  2  0  0  0  0
 21 40  1  0  0  0  0
 22 52  1  0  0  0  0
 23 25  2  0  0  0  0
 23 53  1  0  0  0  0
 24 41  1  0  0  0  0
 25 51  1  0  0  0  0
 26 82  1  0  0  0  0
 27 83  1  0  0  0  0
 28 84  1  0  0  0  0
 29 31  2  0  0  0  0
 29 82  1  0  0  0  0
 30 85  1  0  0  0  0
 31 86  1  0  0  0  0
 32 67  2  0  0  0  0
 33 68  1  0  0  0  0
 33 71  1  0  0  0  0
 34 72  1  0  0  0  0
 34 77  2  0  0  0  0
 35 54  1  0  0  0  0
 35 73  1  0  0  0  0
 35 78  2  0  0  0  0
 36 64  1  0  0  0  0
 36 69  1  0  0  0  0
 36 79  2  0  0  0  0
 37 65  1  0  0  0  0
 37 74  1  0  0  0  0
 37 80  2  0  0  0  0
 38 70  1  0  0  0  0
 38 75  1  0  0  0  0
 38 81  2  0  0  0  0
 39 42  1  0  0  0  0
 40 54  1  0  0  0  0
 41 69  1  0  0  0  0
 42 44  1  0  0  0  0
 43 47  1  0  0  0  0
 43 49  1  0  0  0  0
 44 52  1  0  0  0  0
 45 46  1  0  0  0  0
 45 55  1  0  0  0  0
 46 55  1  0  0  0  0
 47 56  1  0  0  0  0
 48 51  1  0  0  0  0
 48 53  1  0  0  0  0
 49 70  1  0  0  0  0
 50 56  1  0  0  0  0
 50 70  1  0  0  0  0
 51 55  1  0  0  0  0
 52 73  1  0  0  0  0
 53 75  1  0  0  0  0
 54 69  1  0  0  0  0
 56 68  1  0  0  0  0
 57 65  1  0  0  0  0
 58 66  1  0  0  0  0
 59 66  1  0  0  0  0
 60 66  1  0  0  0  0
 61 76  1  0  0  0  0
 62 63  1  0  0  0  0
 62 83  1  0  0  0  0
 63 84  1  0  0  0  0
 64 66  1  0  0  0  0
 64 74  1  0  0  0  0
 65 76  1  0  0  0  0
 67 68  1  0  0  0  0
M  CHG  1  76   1
M  ISO  4  38 100  62 101  75 100  83 101
M  END
> <Batch ID>
0143

> <Smiles>
CNC(C)C(=O)NC(C(=O)N1Cc2cc([101O:1][101CH2:1]COc3ccc4c(c3)C(C3CC3)CC4[100NH:0][100C:0](=O)N3CCCC(n4nc(-c5ccc(Oc6ccc(F)cc6F)cc5)c(C(N)=O)c4N)C3)ccc2CC1C(=O)NC1CCCc2ccccc21)C(C)(C)C

> <Shape>
0.283

> <Color>
0.187

> <Negative vol penalty>
0.000

$$$$

  -OEChem-04052321213D

 84 93  0     1  0  0  0  0  0999 V2000
  -31.6185  -31.4562   23.1527 C   0  0  0  0  0  0  0  0  0  0  0  0
  -30.9872  -30.2620   23.4852 C   0  0  0  0  0  0  0  0  0  0  0  0
  -23.3461   -9.7038   20.1622 C   0  0  0  0  0  0  0  0  0  0  0  0
  -23.8607  -10.0644   22.4950 C   0  0  0  0  0  0  0  0  0  0  0  0
  -32.1409  -31.6343   21.8724 C   0  0  0  0  0  0  0  0  0  0  0  0
  -30.8770  -29.2454   22.5372 C   0  0  0  0  0  0  0  0  0  0  0  0
  -31.0825  -23.2120   23.5680 C   0  0  0  0  0  0  0  0  0  0  0  0
  -22.6701   -8.5294   20.4928 C   0  0  0  0  0  0  0  0  0  0  0  0
  -23.1847   -8.8900   22.8257 C   0  0  0  0  0  0  0  0  0  0  0  0
  -30.0834  -22.2495   23.7058 C   0  0  0  0  0  0  0  0  0  0  0  0
  -19.6561   -7.6614   21.7557 C   0  0  0  0  0  0  0  0  0  0  0  0
  -18.4141   -7.4390   21.1612 C   0  0  0  0  0  0  0  0  0  0  0  0
  -30.3232  -21.6755   21.3751 C   0  0  0  0  0  0  0  0  0  0  0  0
  -28.1400  -18.2826   23.2350 C   0  0  0  0  0  0  0  0  0  0  0  0
  -19.2543   -5.4036   20.1671 C   0  0  0  0  0  0  0  0  0  0  0  0
  -30.7956  -17.7907   23.6230 C   0  0  0  0  0  0  0  0  0  0  0  0
  -23.9415  -10.4713   21.1633 C   0  0  0  0  0  0  0  0  0  0  0  0
  -24.1010  -12.9821   20.7410 C   0  0  0  0  0  0  0  0  0  0  0  0
  -32.0457  -30.6157   20.9111 C   0  0  0  0  0  0  0  0  0  0  0  0
  -31.7029  -23.4215   22.3280 C   0  0  0  0  0  0  0  0  0  0  0  0
  -31.3975  -29.4104   21.2423 C   0  0  0  0  0  0  0  0  0  0  0  0
  -31.3317  -22.6396   21.2248 C   0  0  0  0  0  0  0  0  0  0  0  0
  -28.5518  -17.0028   23.5895 C   0  0  0  0  0  0  0  0  0  0  0  0
  -22.5894   -8.1225   21.8245 C   0  0  0  0  0  0  0  0  0  0  0  0
  -29.7016  -21.4830   22.6086 C   0  0  0  0  0  0  0  0  0  0  0  0
  -20.6973   -6.7549   21.5559 C   0  0  0  0  0  0  0  0  0  0  0  0
  -29.9034  -16.7437   23.7885 C   0  0  0  0  0  0  0  0  0  0  0  0
  -18.2132   -6.3102   20.3669 C   0  0  0  0  0  0  0  0  0  0  0  0
  -20.4964   -5.6260   20.7616 C   0  0  0  0  0  0  0  0  0  0  0  0
  -24.6404  -11.6843   20.8224 C   0  0  0  0  0  0  0  0  0  0  0  0
  -29.1112  -19.2606   23.0932 C   0  0  0  0  0  0  0  0  0  1  0  0
  -25.1648  -13.7744   20.3848 C   0  0  0  0  0  0  0  0  0  0  0  0
  -22.7583  -13.4312   20.9673 C   0  0  0  0  0  0  0  0  0  0  0  0
  -31.9246  -25.8725   20.3162 C   0  0  0  0  0  0  0  0  0  0  0  0
  -33.9581  -23.8941   18.7435 C   0  0  0  0  0  0  0  0  0  0  0  0
  -34.9766  -20.7007   18.1018 C   0  0  0  0  0  0  0  0  0  0  0  0
  -31.0845  -13.2080   21.0826 C   0  0  0  0  0  0  0  0  0  0  0  0
  -32.5838  -30.8723   19.5257 C   0  0  0  0  0  0  0  0  0  0  0  0
  -32.7976  -24.4453   22.2022 C   0  0  0  0  0  0  0  0  0  0  0  0
  -31.9809  -22.8114   19.8767 C   0  0  0  0  0  0  0  0  0  0  0  0
  -32.7568  -29.6034   18.6948 C   0  0  0  0  0  0  0  0  0  0  0  0
  -29.3201  -13.6220   18.0180 C   0  0  0  0  0  0  0  0  0  0  0  0
  -31.5163  -28.7222   18.8015 C   0  0  0  0  0  0  0  0  0  0  0  0
  -25.8724  -16.7254   25.6213 C   0  0  0  0  0  0  0  0  0  0  0  0
  -25.6445  -15.2498   25.4470 C   0  0  0  0  0  0  0  0  0  0  0  0
  -27.8720  -13.2894   18.3819 C   0  0  0  0  0  0  0  0  0  0  0  0
  -30.3094  -12.7403   18.7768 C   0  0  0  0  0  0  0  0  0  0  0  0
  -28.6917  -12.4057   20.6058 C   0  0  0  0  0  0  0  0  0  0  0  0
  -31.2802  -28.2748   20.2491 C   0  0  1  0  0  0  0  0  0  0  0  0
  -33.0021  -24.9285   20.7697 C   0  0  1  0  0  0  0  0  0  0  0  0
  -27.0024  -15.8374   25.1793 C   0  0  0  0  0  0  0  0  0  0  0  0
  -27.6590  -13.3069   19.9075 C   0  0  2  0  0  0  0  0  0  0  0  0
  -36.6377  -19.3980   16.7450 C   0  0  0  0  0  0  0  0  0  0  0  0
  -32.2718  -24.3535   16.2424 C   0  0  0  0  0  0  0  0  0  0  0  0
  -33.3701  -22.3501   15.2186 C   0  0  0  0  0  0  0  0  0  0  0  0
  -34.7412  -24.3369   15.8472 C   0  0  0  0  0  0  0  0  0  0  0  0
  -36.2436  -19.5695   20.5254 C   0  0  0  0  0  0  0  0  0  0  0  0
  -27.5345  -15.9229   23.7516 C   0  0  0  0  0  0  0  0  0  0  0  0
  -31.7085  -13.6485   23.4439 C   0  0  0  0  0  0  0  0  0  0  0  0
  -31.6613  -15.1443   23.6996 C   0  0  0  0  0  0  0  0  0  0  0  0
  -33.8114  -22.8471   17.6659 C   0  0  1  0  0  0  0  0  0  0  0  0
  -36.3566  -20.0687   18.0806 C   0  0  2  0  0  0  0  0  0  0  0  0
  -33.5349  -23.4698   16.2683 C   0  0  0  0  0  0  0  0  0  0  0  0
  -30.4331  -19.0470   23.2791 N   0  0  0  0  0  0  0  0  0  0  0  0
  -25.9455  -11.6498   20.5404 N   0  0  0  0  0  0  0  0  0  0  0  0
  -26.2350  -12.9357   20.2782 N   0  0  0  0  0  0  0  0  0  0  0  0
  -33.0418  -23.8296   19.8028 N   0  0  0  0  0  0  0  0  0  0  0  0
  -30.0544  -12.8028   20.2180 N   0  0  0  0  0  0  0  0  0  0  0  0
  -25.2798  -15.0998   20.1553 N   0  0  0  0  0  0  0  0  0  0  0  0
  -21.7888  -12.4850   21.3266 N   0  0  0  0  0  0  0  0  0  0  0  0
  -32.1836  -27.1999   20.5996 N   0  0  0  0  0  0  0  0  0  0  0  0
  -35.0165  -22.0271   17.7268 N   0  0  0  0  0  0  0  0  0  0  0  0
  -30.7569  -13.2458   22.4324 N   0  0  0  0  0  0  0  0  0  0  0  0
  -36.4730  -19.0428   19.1554 N   0  3  0  0  0  0  0  0  0  0  0  0
  -22.4245  -14.6335   20.8382 O   0  0  0  0  0  0  0  0  0  0  0  0
  -30.9323  -25.4294   19.7497 O   0  0  0  0  0  0  0  0  0  0  0  0
  -34.8571  -24.7338   18.6525 O   0  0  0  0  0  0  0  0  0  0  0  0
  -33.9639  -20.0790   18.4157 O   0  0  0  0  0  0  0  0  0  0  0  0
  -32.2111  -13.5186   20.6809 O   0  0  0  0  0  0  0  0  0  0  0  0
  -21.9296   -6.9766   22.1475 O   0  0  0  0  0  0  0  0  0  0  0  0
  -28.7262  -20.5432   22.7402 O   0  0  0  0  0  0  0  0  0  1  0  0
  -30.3507  -15.5101   24.1349 O   0  0  0  0  0  0  0  0  0  0  0  0
  -17.0199   -6.0960   19.7973 F   0  0  0  0  0  0  0  0  0  0  0  0
  -21.4925   -4.7510   20.5669 F   0  0  0  0  0  0  0  0  0  0  0  0
  1  2  1  0  0  0  0
  1  5  2  0  0  0  0
  2  6  2  0  0  0  0
  3  8  2  0  0  0  0
  3 17  1  0  0  0  0
  4  9  1  0  0  0  0
  4 17  2  0  0  0  0
  5 19  1  0  0  0  0
  6 21  1  0  0  0  0
  7 10  2  0  0  0  0
  7 20  1  0  0  0  0
  8 24  1  0  0  0  0
  9 24  2  0  0  0  0
 10 25  1  0  0  0  0
 11 12  2  0  0  0  0
 11 26  1  0  0  0  0
 12 28  1  0  0  0  0
 13 22  1  0  0  0  0
 13 25  2  0  0  0  0
 14 23  2  0  0  0  0
 14 31  1  0  0  0  0
 15 28  2  0  0  0  0
 15 29  1  0  0  0  0
 16 27  2  0  0  0  0
 16 64  1  0  0  0  0
 17 30  1  0  0  0  0
 18 30  1  0  0  0  0
 18 32  2  0  0  0  0
 18 33  1  0  0  0  0
 19 21  2  0  0  0  0
 19 38  1  0  0  0  0
 20 22  2  0  0  0  0
 20 39  1  0  0  0  0
 21 49  1  0  0  0  0
 22 40  1  0  0  0  0
 23 27  1  0  0  0  0
 23 58  1  0  0  0  0
 24 80  1  0  0  0  0
 25 81  1  0  0  0  0
 26 29  2  0  0  0  0
 26 80  1  0  0  0  0
 27 82  1  0  0  0  0
 28 83  1  0  0  0  0
 29 84  1  0  0  0  0
 30 65  2  0  0  0  0
 31 64  2  0  0  0  0
 31 81  1  0  0  0  0
 32 66  1  0  0  0  0
 32 69  1  0  0  0  0
 33 70  1  0  0  0  0
 33 75  2  0  0  0  0
 34 50  1  0  0  0  0
 34 71  1  0  0  0  0
 34 76  2  0  0  0  0
 35 61  1  0  0  0  0
 35 67  1  0  0  0  0
 35 77  2  0  0  0  0
 36 62  1  0  0  0  0
 36 72  1  0  0  0  0
 36 78  2  0  0  0  0
 37 68  1  0  0  0  0
 37 73  1  0  0  0  0
 37 79  2  0  0  0  0
 38 41  1  0  0  0  0
 39 50  1  0  0  0  0
 40 67  1  0  0  0  0
 41 43  1  0  0  0  0
 42 46  1  0  0  0  0
 42 47  1  0  0  0  0
 43 49  1  0  0  0  0
 44 45  1  0  0  0  0
 44 51  1  0  0  0  0
 45 51  1  0  0  0  0
 46 52  1  0  0  0  0
 47 68  1  0  0  0  0
 48 52  1  0  0  0  0
 48 68  1  0  0  0  0
 49 71  1  0  0  0  0
 50 67  1  0  0  0  0
 51 58  1  0  0  0  0
 52 66  1  0  0  0  0
 53 62  1  0  0  0  0
 54 63  1  0  0  0  0
 55 63  1  0  0  0  0
 56 63  1  0  0  0  0
 57 74  1  0  0  0  0
 59 60  1  0  0  0  0
 59 73  1  0  0  0  0
 60 82  1  0  0  0  0
 61 63  1  0  0  0  0
 61 72  1  0  0  0  0
 62 74  1  0  0  0  0
 65 66  1  0  0  0  0
M  CHG  1  74   1
M  ISO  4  31 101  37 100  73 100  81 101
M  END
> <Batch ID>
0143

> <Smiles>
CNC(C)C(=O)NC(C(=O)N1Cc2cc([101O:1][101c:1]3cc(CC4CC4)c(OCC[100NH:0][100C:0](=O)N4CCCC(n5nc(-c6ccc(Oc7ccc(F)cc7F)cc6)c(C(N)=O)c5N)C4)cn3)ccc2CC1C(=O)NC1CCCc2ccccc21)C(C)(C)C

> <Shape>
0.163

> <Color>
0.183

> <Negative vol penalty>
0.000

$$$$

  -OEChem-04052321213D

 93102  0     1  0  0  0  0  0999 V2000
  -28.9289  -34.1560   24.9046 C   0  0  0  0  0  0  0  0  0  0  0  0
  -29.5588  -33.2148   24.0967 C   0  0  0  0  0  0  0  0  0  0  0  0
  -23.4293  -11.5348   23.5638 C   0  0  0  0  0  0  0  0  0  0  0  0
  -24.9517  -13.0254   24.7030 C   0  0  0  0  0  0  0  0  0  0  0  0
  -27.7209  -33.8426   25.5263 C   0  0  0  0  0  0  0  0  0  0  0  0
  -28.9816  -31.9591   23.9109 C   0  0  0  0  0  0  0  0  0  0  0  0
  -28.3162  -26.7928   18.9932 C   0  0  0  0  0  0  0  0  0  0  0  0
  -22.9305  -11.1046   24.7933 C   0  0  0  0  0  0  0  0  0  0  0  0
  -24.4528  -12.5952   25.9325 C   0  0  0  0  0  0  0  0  0  0  0  0
  -28.5039  -25.4197   18.8414 C   0  0  0  0  0  0  0  0  0  0  0  0
  -21.7366  -13.1757   27.8575 C   0  0  0  0  0  0  0  0  0  0  0  0
  -21.4528  -14.1483   28.8162 C   0  0  0  0  0  0  0  0  0  0  0  0
  -26.3749  -25.0175   19.9020 C   0  0  0  0  0  0  0  0  0  0  0  0
  -23.0446  -13.1294   30.3212 C   0  0  0  0  0  0  0  0  0  0  0  0
  -24.4400  -12.4952   23.5187 C   0  0  0  0  0  0  0  0  0  0  0  0
  -24.2374  -13.5592   21.2090 C   0  0  0  0  0  0  0  0  0  0  0  0
  -27.1237  -32.5859   25.3403 C   0  0  0  0  0  0  0  0  0  0  0  0
  -27.1594  -27.2890   19.6114 C   0  0  0  0  0  0  0  0  0  0  0  0
  -27.7651  -31.6281   24.5318 C   0  0  0  0  0  0  0  0  0  0  0  0
  -26.1737  -26.3974   20.0581 C   0  0  0  0  0  0  0  0  0  0  0  0
  -23.4422  -11.6348   25.9777 C   0  0  0  0  0  0  0  0  0  0  0  0
  -27.5345  -24.5317   19.2984 C   0  0  0  0  0  0  0  0  0  0  0  0
  -22.6744  -12.1798   28.1307 C   0  0  0  0  0  0  0  0  0  0  0  0
  -22.1068  -14.1252   30.0480 C   0  0  0  0  0  0  0  0  0  0  0  0
  -23.3284  -12.1567   29.3625 C   0  0  0  0  0  0  0  0  0  0  0  0
  -24.9561  -12.9396   22.2489 C   0  0  0  0  0  0  0  0  0  0  0  0
  -25.1741  -13.7816   20.2294 C   0  0  0  0  0  0  0  0  0  0  0  0
  -33.3844  -20.9631   19.2218 C   0  0  0  0  0  0  0  0  0  0  0  0
  -22.8474  -13.9031   21.1352 C   0  0  0  0  0  0  0  0  0  0  0  0
  -26.5708  -29.0011   22.2241 C   0  0  0  0  0  0  0  0  0  0  0  0
  -23.5309  -28.9612   21.0930 C   0  0  0  0  0  0  0  0  0  0  0  0
  -21.1797  -27.4206   19.1576 C   0  0  0  0  0  0  0  0  0  0  0  0
  -31.1222  -14.4564   20.3531 C   0  0  0  0  0  0  0  0  0  0  0  0
  -25.8412  -32.2763   26.0709 C   0  0  0  0  0  0  0  0  0  0  0  0
  -26.9597  -28.7740   19.7435 C   0  0  0  0  0  0  0  0  0  0  0  0
  -24.9048  -26.8800   20.7103 C   0  0  0  0  0  0  0  0  0  0  0  0
  -25.1070  -31.0555   25.5223 C   0  0  0  0  0  0  0  0  0  0  0  0
  -29.2807  -12.0308   18.5086 C   0  0  0  0  0  0  0  0  0  0  0  0
  -26.0783  -29.8984   25.3119 C   0  0  0  0  0  0  0  0  0  0  0  0
  -30.6225  -21.1283   20.3578 C   0  0  0  0  0  0  0  0  0  0  0  0
  -30.7629  -21.3895   17.8462 C   0  0  0  0  0  0  0  0  0  0  0  0
  -27.8987  -12.0446   19.1642 C   0  0  0  0  0  0  0  0  0  0  0  0
  -29.2336  -21.7595   20.3420 C   0  0  0  0  0  0  0  0  0  0  0  0
  -29.3738  -22.0206   17.8375 C   0  0  0  0  0  0  0  0  0  0  0  0
  -34.8337  -19.5236   20.6409 C   0  0  0  0  0  0  0  0  0  0  0  0
  -30.3938  -12.2349   19.5339 C   0  0  0  0  0  0  0  0  0  0  0  0
  -28.8616  -13.4468   21.0364 C   0  0  0  0  0  0  0  0  0  0  0  0
  -27.1579  -30.2639   24.2860 C   0  0  1  0  0  0  0  0  0  0  0  0
  -32.3541  -19.8506   19.0484 C   0  0  2  0  0  0  0  0  0  0  0  0
  -34.8056  -20.5206   19.4920 C   0  0  2  0  0  0  0  0  0  0  0  0
  -25.9794  -29.1489   20.8507 C   0  0  1  0  0  0  0  0  0  0  0  0
  -30.9398  -20.4277   19.0293 C   0  0  0  0  0  0  0  0  0  0  0  0
  -27.7035  -13.3006   20.0346 C   0  0  2  0  0  0  0  0  0  0  0  0
  -29.0604  -22.7126   19.1624 C   0  0  0  0  0  0  0  0  0  1  0  0
  -33.9166  -18.3212   20.3949 C   0  0  2  0  0  0  0  0  0  0  0  0
  -36.2472  -16.0014   18.3536 C   0  0  0  0  0  0  0  0  0  0  0  0
  -18.7754  -27.6005   18.4617 C   0  0  0  0  0  0  0  0  0  0  0  0
  -31.5956  -17.3229   22.6319 C   0  0  0  0  0  0  0  0  0  0  0  0
  -22.6652  -27.8881   23.8149 C   0  0  0  0  0  0  0  0  0  0  0  0
  -20.4926  -27.2033   22.7762 C   0  0  0  0  0  0  0  0  0  0  0  0
  -21.1384  -29.6120   22.8396 C   0  0  0  0  0  0  0  0  0  0  0  0
  -21.9073  -27.7212   16.3047 C   0  0  0  0  0  0  0  0  0  0  0  0
  -35.4367  -22.1422   21.2731 C   0  0  0  0  0  0  0  0  0  0  0  0
  -37.1245  -21.4233   19.5893 C   0  0  0  0  0  0  0  0  0  0  0  0
  -34.3840  -17.4343   19.2415 C   0  0  0  0  0  0  0  0  0  0  0  0
  -35.7920  -16.9046   19.4886 C   0  0  0  0  0  0  0  0  0  0  0  0
  -31.4924  -17.6986   20.1093 C   0  0  0  0  0  0  0  0  0  0  0  0
  -22.3405  -28.0476   21.2586 C   0  0  1  0  0  0  0  0  0  0  0  0
  -20.2122  -27.9659   18.1228 C   0  0  2  0  0  0  0  0  0  0  0  0
  -31.7055  -16.6979   21.2445 C   0  0  2  0  0  0  0  0  0  0  0  0
  -21.6838  -28.1783   22.6618 C   0  0  0  0  0  0  0  0  0  0  0  0
  -26.2495  -12.7785   21.9571 N   0  0  0  0  0  0  0  0  0  0  0  0
  -26.3509  -13.3001   20.7227 N   0  0  0  0  0  0  0  0  0  0  0  0
  -24.7587  -28.3407   20.8223 N   0  0  0  0  0  0  0  0  0  0  0  0
  -30.1496  -13.4433   20.3252 N   0  0  0  0  0  0  0  0  0  0  0  0
  -25.0976  -14.3401   19.0027 N   0  0  0  0  0  0  0  0  0  0  0  0
  -22.0261  -13.6039   22.2307 N   0  0  0  0  0  0  0  0  0  0  0  0
  -26.6271  -30.1804   22.9422 N   0  0  0  0  0  0  0  0  0  0  0  0
  -21.4414  -28.3433   20.1483 N   0  0  0  0  0  0  0  0  0  0  0  0
  -30.8086  -15.5703   21.1222 N   0  0  0  0  0  0  0  0  0  0  0  0
  -32.4906  -18.8313   20.1803 N   0  3  2  0  0  0  0  0  0  0  0  0
  -20.5314  -27.4163   16.7748 N   0  3  0  0  0  0  0  0  0  0  0  0
  -35.6644  -21.6820   19.8565 N   0  3  0  0  0  0  0  0  0  0  0  0
  -33.0998  -22.1502   19.0612 O   0  0  0  0  0  0  0  0  0  0  0  0
  -22.3453  -14.4444   20.1211 O   0  0  0  0  0  0  0  0  0  0  0  0
  -26.9468  -27.8986   22.6046 O   0  0  0  0  0  0  0  0  0  0  0  0
  -23.3756  -30.1808   21.1929 O   0  0  0  0  0  0  0  0  0  0  0  0
  -21.6528  -26.2880   19.0956 O   0  0  0  0  0  0  0  0  0  0  0  0
  -32.1886  -14.3765   19.7339 O   0  0  0  0  0  0  0  0  0  0  0  0
  -22.9556  -11.2154   27.1776 O   0  0  0  0  0  0  0  0  0  0  0  0
  -27.7167  -23.1821   19.1511 O   0  0  0  0  0  0  0  0  0  1  0  0
  -21.8353  -15.0602   30.9679 F   0  0  0  0  0  0  0  0  0  0  0  0
  -24.2311  -11.2032   29.6303 F   0  0  0  0  0  0  0  0  0  0  0  0
  1  2  1  0  0  0  0
  1  5  2  0  0  0  0
  2  6  2  0  0  0  0
  3  8  2  0  0  0  0
  3 15  1  0  0  0  0
  4  9  1  0  0  0  0
  4 15  2  0  0  0  0
  5 17  1  0  0  0  0
  6 19  1  0  0  0  0
  7 10  2  0  0  0  0
  7 18  1  0  0  0  0
  8 21  1  0  0  0  0
  9 21  2  0  0  0  0
 10 22  1  0  0  0  0
 11 12  2  0  0  0  0
 11 23  1  0  0  0  0
 12 24  1  0  0  0  0
 13 20  1  0  0  0  0
 13 22  2  0  0  0  0
 14 24  2  0  0  0  0
 14 25  1  0  0  0  0
 15 26  1  0  0  0  0
 16 26  1  0  0  0  0
 16 27  2  0  0  0  0
 16 29  1  0  0  0  0
 17 19  2  0  0  0  0
 17 34  1  0  0  0  0
 18 20  2  0  0  0  0
 18 35  1  0  0  0  0
 19 48  1  0  0  0  0
 20 36  1  0  0  0  0
 21 90  1  0  0  0  0
 22 91  1  0  0  0  0
 23 25  2  0  0  0  0
 23 90  1  0  0  0  0
 24 92  1  0  0  0  0
 25 93  1  0  0  0  0
 26 72  2  0  0  0  0
 27 73  1  0  0  0  0
 27 76  1  0  0  0  0
 28 49  1  0  0  0  0
 28 50  1  0  0  0  0
 28 84  2  0  0  0  0
 29 77  1  0  0  0  0
 29 85  2  0  0  0  0
 30 51  1  0  0  0  0
 30 78  1  0  0  0  0
 30 86  2  0  0  0  0
 31 68  1  0  0  0  0
 31 74  1  0  0  0  0
 31 87  2  0  0  0  0
 32 69  1  0  0  0  0
 32 79  1  0  0  0  0
 32 88  2  0  0  0  0
 33 75  1  0  0  0  0
 33 80  1  0  0  0  0
 33 89  2  0  0  0  0
 34 37  1  0  0  0  0
 35 51  1  0  0  0  0
 36 74  1  0  0  0  0
 37 39  1  0  0  0  0
 38 42  1  0  0  0  0
 38 46  1  0  0  0  0
 39 48  1  0  0  0  0
 40 43  1  0  0  0  0
 40 52  1  0  0  0  0
 41 44  1  0  0  0  0
 41 52  1  0  0  0  0
 42 53  1  0  0  0  0
 43 54  1  0  0  0  0
 44 54  1  0  0  0  0
 45 50  1  0  0  0  0
 45 55  1  0  0  0  0
 46 75  1  0  0  0  0
 47 53  1  0  0  0  0
 47 75  1  0  0  0  0
 48 78  1  0  0  0  0
 49 52  1  0  0  0  0
 49 81  1  0  0  0  0
 50 83  1  0  0  0  0
 51 74  1  0  0  0  0
 53 73  1  0  0  0  0
 54 91  1  0  0  0  0
 55 65  1  0  0  0  0
 55 81  1  0  0  0  0
 56 66  1  0  0  0  0
 57 69  1  0  0  0  0
 58 70  1  0  0  0  0
 59 71  1  0  0  0  0
 60 71  1  0  0  0  0
 61 71  1  0  0  0  0
 62 82  1  0  0  0  0
 63 83  1  0  0  0  0
 64 83  1  0  0  0  0
 65 66  1  0  0  0  0
 67 70  1  0  0  0  0
 67 81  1  0  0  0  0
 68 71  1  0  0  0  0
 68 79  1  0  0  0  0
 69 82  1  0  0  0  0
 70 80  1  0  0  0  0
 72 73  1  0  0  0  0
M  CHG  3  81   1  82   1  83   1
M  ISO  4  33 100  54 101  80 100  91 101
M  END
> <Batch ID>
0143

> <Smiles>
CCCC1CC(N(C)C)C(=O)C(C2CC[101CH:1]([101O:1]c3ccc4c(c3)CN(C(=O)C(NC(=O)C(C)NC)C(C)(C)C)C(C(=O)NC3CCCc5ccccc53)C4)CC2)N1CC(C)[100NH:0][100C:0](=O)N1CCCC(n2nc(-c3ccc(Oc4ccc(F)cc4F)cc3)c(C(N)=O)c2N)C1

> <Shape>
0.259

> <Color>
0.080

> <Negative vol penalty>
0.000

$$$$

  -OEChem-04052321213D

 78 86  0     1  0  0  0  0  0999 V2000
  -29.3438  -10.3588   16.7312 C   0  0  0  0  0  0  0  0  0  0  0  0
  -28.1699  -11.0576   16.4682 C   0  0  0  0  0  0  0  0  0  0  0  0
  -25.2559  -30.7363   19.7161 C   0  0  0  0  0  0  0  0  0  0  0  0
  -24.5849  -29.7934   21.8368 C   0  0  0  0  0  0  0  0  0  0  0  0
  -30.0301  -10.5756   17.9253 C   0  0  0  0  0  0  0  0  0  0  0  0
  -27.6812  -11.9729   17.3998 C   0  0  0  0  0  0  0  0  0  0  0  0
  -24.1140  -18.1726   17.7934 C   0  0  0  0  0  0  0  0  0  0  0  0
  -25.2562  -32.0108   20.2828 C   0  0  0  0  0  0  0  0  0  0  0  0
  -24.5852  -31.0679   22.4036 C   0  0  0  0  0  0  0  0  0  0  0  0
  -23.0046  -18.7391   18.4197 C   0  0  0  0  0  0  0  0  0  0  0  0
  -26.8631  -33.2628   23.5926 C   0  0  0  0  0  0  0  0  0  0  0  0
  -27.4609  -33.4139   24.8438 C   0  0  0  0  0  0  0  0  0  0  0  0
  -24.3167  -19.0899   20.4133 C   0  0  0  0  0  0  0  0  0  0  0  0
  -25.3593  -34.1819   25.7551 C   0  0  0  0  0  0  0  0  0  0  0  0
  -24.9202  -29.6276   20.4930 C   0  0  0  0  0  0  0  0  0  0  0  0
  -25.9967  -27.4068   19.8472 C   0  0  0  0  0  0  0  0  0  0  0  0
  -29.5547  -11.5010   18.8677 C   0  0  0  0  0  0  0  0  0  0  0  0
  -25.3321  -18.0504   18.4772 C   0  0  0  0  0  0  0  0  0  0  0  0
  -28.3611  -12.2013   18.6082 C   0  0  0  0  0  0  0  0  0  0  0  0
  -25.4408  -18.5239   19.7926 C   0  0  0  0  0  0  0  0  0  0  0  0
  -24.9208  -32.1766   21.6266 C   0  0  0  0  0  0  0  0  0  0  0  0
  -23.1051  -19.1952   19.7308 C   0  0  0  0  0  0  0  0  0  0  0  0
  -25.5134  -33.5714   23.4226 C   0  0  0  0  0  0  0  0  0  0  0  0
  -26.7090  -33.8734   25.9250 C   0  0  0  0  0  0  0  0  0  0  0  0
  -24.7615  -34.0309   24.5039 C   0  0  0  0  0  0  0  0  0  0  0  0
  -24.9192  -28.3108   19.9080 C   0  0  0  0  0  0  0  0  0  0  0  0
  -25.4872  -26.3085   19.1986 C   0  0  0  0  0  0  0  0  0  0  0  0
  -27.3381  -27.5472   20.3336 C   0  0  0  0  0  0  0  0  0  0  0  0
  -27.1688  -15.6146   19.3701 C   0  0  0  0  0  0  0  0  0  0  0  0
  -29.1962  -17.9807   20.2721 C   0  0  0  0  0  0  0  0  0  0  0  0
  -29.6158  -21.2334   21.2156 C   0  0  0  0  0  0  0  0  0  0  0  0
  -19.9379  -24.1443   18.5881 C   0  0  0  0  0  0  0  0  0  0  0  0
  -30.3056  -11.6668   20.1651 C   0  0  0  0  0  0  0  0  0  0  0  0
  -26.5268  -17.4615   17.7785 C   0  0  0  0  0  0  0  0  0  0  0  0
  -26.7315  -18.4344   20.5635 C   0  0  0  0  0  0  0  0  0  0  0  0
  -29.9221  -12.9285   20.9340 C   0  0  0  0  0  0  0  0  0  0  0  0
  -22.1762  -25.0646   15.9766 C   0  0  0  0  0  0  0  0  0  0  0  0
  -28.4052  -13.0791   20.9901 C   0  0  0  0  0  0  0  0  0  0  0  0
  -23.2302  -25.9193   16.6826 C   0  0  0  0  0  0  0  0  0  0  0  0
  -20.7833  -25.2896   16.5608 C   0  0  0  0  0  0  0  0  0  0  0  0
  -21.7424  -25.9665   18.7278 C   0  0  0  0  0  0  0  0  0  0  0  0
  -27.8124  -13.2206   19.5829 C   0  0  1  0  0  0  0  0  0  0  0  0
  -27.5759  -16.9184   18.7438 C   0  0  1  0  0  0  0  0  0  0  0  0
  -22.4359  -22.1745   20.8468 C   0  0  1  0  0  0  0  0  0  0  0  0
  -23.1721  -25.7324   18.2106 C   0  0  2  0  0  0  0  0  0  0  0  0
  -22.2675  -20.7657   21.3588 C   0  0  1  0  0  0  0  0  0  1  0  0
  -21.1777  -21.7884   21.5879 C   0  0  2  0  0  0  0  0  0  0  0  0
  -23.4562  -23.0727   21.4582 C   0  0  0  0  0  0  0  0  0  0  0  0
  -30.8307  -23.3390   21.8385 C   0  0  0  0  0  0  0  0  0  0  0  0
  -29.2828  -16.6832   23.0324 C   0  0  0  0  0  0  0  0  0  0  0  0
  -30.2519  -18.8118   23.9258 C   0  0  0  0  0  0  0  0  0  0  0  0
  -31.4913  -17.5079   22.1976 C   0  0  0  0  0  0  0  0  0  0  0  0
  -29.8251  -22.0866   18.3894 C   0  0  0  0  0  0  0  0  0  0  0  0
  -19.8799  -21.7184   20.8516 C   0  0  0  0  0  0  0  0  0  0  0  0
  -19.2030  -23.0785   20.7055 C   0  0  0  0  0  0  0  0  0  0  0  0
  -29.4107  -18.7816   21.5336 C   0  0  1  0  0  0  0  0  0  0  0  0
  -30.5964  -22.2971   20.7558 C   0  0  2  0  0  0  0  0  0  0  0  0
  -30.0842  -17.9462   22.6588 C   0  0  0  0  0  0  0  0  0  0  0  0
  -23.8091  -27.8288   19.3430 N   0  0  0  0  0  0  0  0  0  0  0  0
  -24.1863  -26.6099   18.9209 N   0  0  0  0  0  0  0  0  0  0  0  0
  -27.8696  -17.8448   19.8391 N   0  0  0  0  0  0  0  0  0  0  0  0
  -20.7965  -25.0955   18.0127 N   0  0  0  0  0  0  0  0  0  0  0  0
  -26.0295  -25.1241   18.8444 N   0  0  0  0  0  0  0  0  0  0  0  0
  -27.6943  -28.7408   20.9761 N   0  0  0  0  0  0  0  0  0  0  0  0
  -28.0168  -14.5626   19.0811 N   0  0  0  0  0  0  0  0  0  0  0  0
  -30.1613  -19.9693   21.1404 N   0  0  0  0  0  0  0  0  0  0  0  0
  -20.0183  -24.0190   19.9696 N   0  0  0  0  0  0  0  0  0  0  0  0
  -30.0783  -22.9892   19.5419 N   0  3  0  0  0  0  0  0  0  0  0  0
  -28.2000  -26.6476   20.1877 O   0  0  0  0  0  0  0  0  0  0  0  0
  -26.1607  -15.5670   20.0653 O   0  0  0  0  0  0  0  0  0  0  0  0
  -30.1705  -17.4994   19.6884 O   0  0  0  0  0  0  0  0  0  0  0  0
  -28.4809  -21.4979   21.6063 O   0  0  0  0  0  0  0  0  0  0  0  0
  -19.1612  -23.4538   17.9195 O   0  0  0  0  0  0  0  0  0  0  0  0
  -21.0419  -22.2616   22.9401 O   0  0  0  0  0  0  0  0  0  0  0  0
  -24.9212  -33.4201   22.1800 O   0  0  0  0  0  0  0  0  0  0  0  0
  -22.0236  -19.7479   20.3447 O   0  0  0  0  0  0  0  0  0  1  0  0
  -27.2828  -34.0170   27.1268 F   0  0  0  0  0  0  0  0  0  0  0  0
  -23.4642  -34.3278   24.3470 F   0  0  0  0  0  0  0  0  0  0  0  0
  1  2  1  0  0  0  0
  1  5  2  0  0  0  0
  2  6  2  0  0  0  0
  3  8  2  0  0  0  0
  3 15  1  0  0  0  0
  4  9  1  0  0  0  0
  4 15  2  0  0  0  0
  5 17  1  0  0  0  0
  6 19  1  0  0  0  0
  7 10  2  0  0  0  0
  7 18  1  0  0  0  0
  8 21  1  0  0  0  0
  9 21  2  0  0  0  0
 10 22  1  0  0  0  0
 11 12  2  0  0  0  0
 11 23  1  0  0  0  0
 12 24  1  0  0  0  0
 13 20  1  0  0  0  0
 13 22  2  0  0  0  0
 14 24  2  0  0  0  0
 14 25  1  0  0  0  0
 15 26  1  0  0  0  0
 16 26  1  0  0  0  0
 16 27  2  0  0  0  0
 16 28  1  0  0  0  0
 17 19  2  0  0  0  0
 17 33  1  0  0  0  0
 18 20  2  0  0  0  0
 18 34  1  0  0  0  0
 19 42  1  0  0  0  0
 20 35  1  0  0  0  0
 21 75  1  0  0  0  0
 22 76  1  0  0  0  0
 23 25  2  0  0  0  0
 23 75  1  0  0  0  0
 24 77  1  0  0  0  0
 25 78  1  0  0  0  0
 26 59  2  0  0  0  0
 27 60  1  0  0  0  0
 27 63  1  0  0  0  0
 28 64  1  0  0  0  0
 28 69  2  0  0  0  0
 29 43  1  0  0  0  0
 29 65  1  0  0  0  0
 29 70  2  0  0  0  0
 30 56  1  0  0  0  0
 30 61  1  0  0  0  0
 30 71  2  0  0  0  0
 31 57  1  0  0  0  0
 31 66  1  0  0  0  0
 31 72  2  0  0  0  0
 32 62  1  0  0  0  0
 32 67  1  0  0  0  0
 32 73  2  0  0  0  0
 33 36  1  0  0  0  0
 34 43  1  0  0  0  0
 35 61  1  0  0  0  0
 36 38  1  0  0  0  0
 37 39  1  0  0  0  0
 37 40  1  0  0  0  0
 38 42  1  0  0  0  0
 39 45  1  0  0  0  0
 40 62  1  0  0  0  0
 41 45  1  0  0  0  0
 41 62  1  0  0  0  0
 42 65  1  0  0  0  0
 43 61  1  0  0  0  0
 44 46  1  0  0  0  0
 44 47  1  0  0  0  0
 44 48  1  0  0  0  0
 45 60  1  0  0  0  0
 46 47  1  0  0  0  0
 46 76  1  0  0  0  0
 47 54  1  0  0  0  0
 47 74  1  0  0  0  0
 49 57  1  0  0  0  0
 50 58  1  0  0  0  0
 51 58  1  0  0  0  0
 52 58  1  0  0  0  0
 53 68  1  0  0  0  0
 54 55  1  0  0  0  0
 55 67  1  0  0  0  0
 56 58  1  0  0  0  0
 56 66  1  0  0  0  0
 57 68  1  0  0  0  0
 59 60  1  0  0  0  0
M  CHG  1  68   1
M  ISO  4  32 100  46 101  67 100  76 101
M  END
> <Batch ID>
0143

> <Smiles>
CNC(C)C(=O)NC(C(=O)N1Cc2cc([101O:1][101CH:1]3C(C)C3(O)CC[100NH:0][100C:0](=O)N3CCCC(n4nc(-c5ccc(Oc6ccc(F)cc6F)cc5)c(C(N)=O)c4N)C3)ccc2CC1C(=O)NC1CCCc2ccccc21)C(C)(C)C

> <Shape>
0.232

> <Color>
0.072

> <Negative vol penalty>
0.000

$$$$

  -OEChem-04052321213D

 88 97  0     1  0  0  0  0  0999 V2000
  -28.4241  -37.9297   21.3148 C   0  0  0  0  0  0  0  0  0  0  0  0
  -28.8415  -36.6554   20.9444 C   0  0  0  0  0  0  0  0  0  0  0  0
  -22.2641  -13.1571   21.9820 C   0  0  0  0  0  0  0  0  0  0  0  0
  -22.4396  -14.1015   19.7652 C   0  0  0  0  0  0  0  0  0  0  0  0
  -27.4728  -38.0850   22.3223 C   0  0  0  0  0  0  0  0  0  0  0  0
  -28.3088  -35.5356   21.5821 C   0  0  0  0  0  0  0  0  0  0  0  0
  -27.1625  -30.0678   19.0729 C   0  0  0  0  0  0  0  0  0  0  0  0
  -20.9918  -13.7123   22.1179 C   0  0  0  0  0  0  0  0  0  0  0  0
  -21.1672  -14.6567   19.9010 C   0  0  0  0  0  0  0  0  0  0  0  0
  -27.8759  -28.8700   19.0678 C   0  0  0  0  0  0  0  0  0  0  0  0
  -17.8479  -13.0180   21.0850 C   0  0  0  0  0  0  0  0  0  0  0  0
  -16.8405  -12.2092   21.6108 C   0  0  0  0  0  0  0  0  0  0  0  0
  -26.5622  -28.0865   20.9331 C   0  0  0  0  0  0  0  0  0  0  0  0
  -27.1783  -20.8174   20.0033 C   0  0  0  0  0  0  0  0  0  0  0  0
  -16.5407  -13.7671   23.4329 C   0  0  0  0  0  0  0  0  0  0  0  0
  -29.2226  -20.8250   18.1960 C   0  0  0  0  0  0  0  0  0  0  0  0
  -22.9881  -13.3517   20.8057 C   0  0  0  0  0  0  0  0  0  0  0  0
  -24.6262  -11.5095   20.1496 C   0  0  0  0  0  0  0  0  0  0  0  0
  -26.9210  -36.9661   22.9660 C   0  0  0  0  0  0  0  0  0  0  0  0
  -26.1492  -30.2887   20.0168 C   0  0  0  0  0  0  0  0  0  0  0  0
  -27.3503  -35.6761   22.6000 C   0  0  0  0  0  0  0  0  0  0  0  0
  -25.8357  -29.2870   20.9465 C   0  0  0  0  0  0  0  0  0  0  0  0
  -27.5919  -19.6171   19.4362 C   0  0  0  0  0  0  0  0  0  0  0  0
  -20.4433  -14.4620   21.0774 C   0  0  0  0  0  0  0  0  0  0  0  0
  -27.5778  -27.8803   19.9998 C   0  0  0  0  0  0  0  0  0  0  0  0
  -18.2018  -14.2014   21.7332 C   0  0  0  0  0  0  0  0  0  0  0  0
  -28.6329  -19.6124   18.5145 C   0  0  0  0  0  0  0  0  0  0  0  0
  -16.1869  -12.5837   22.7847 C   0  0  0  0  0  0  0  0  0  0  0  0
  -17.5482  -14.5759   22.9071 C   0  0  0  0  0  0  0  0  0  0  0  0
  -24.3027  -12.7790   20.6650 C   0  0  0  0  0  0  0  0  0  0  0  0
  -27.8333  -21.9761   19.6183 C   0  0  0  0  0  0  0  0  0  0  0  0
  -25.9959  -11.4453   20.2297 C   0  0  0  0  0  0  0  0  0  0  0  0
  -23.7656  -10.4805   19.6436 C   0  0  0  0  0  0  0  0  0  0  0  0
  -25.6834  -32.3873   22.3583 C   0  0  0  0  0  0  0  0  0  0  0  0
  -22.7833  -30.9464   22.5458 C   0  0  0  0  0  0  0  0  0  0  0  0
  -20.8823  -28.1738   21.9578 C   0  0  0  0  0  0  0  0  0  0  0  0
  -30.2750  -15.6321   20.3358 C   0  0  0  0  0  0  0  0  0  0  0  0
  -25.9305  -37.1858   24.0819 C   0  0  0  0  0  0  0  0  0  0  0  0
  -25.3708  -31.5756   19.9920 C   0  0  0  0  0  0  0  0  0  0  0  0
  -24.7433  -29.4667   21.9677 C   0  0  0  0  0  0  0  0  0  0  0  0
  -25.1392  -35.9332   24.4493 C   0  0  0  0  0  0  0  0  0  0  0  0
  -29.6798  -13.1167   22.7843 C   0  0  0  0  0  0  0  0  0  0  0  0
  -26.0707  -34.7323   24.5794 C   0  0  0  0  0  0  0  0  0  0  0  0
  -24.9845  -17.9416   18.0683 C   0  0  0  0  0  0  0  0  0  0  0  0
  -24.6946  -17.0419   19.2372 C   0  0  0  0  0  0  0  0  0  0  0  0
  -28.2634  -12.6304   22.4723 C   0  0  0  0  0  0  0  0  0  0  0  0
  -29.8249  -14.6189   22.5510 C   0  0  0  0  0  0  0  0  0  0  0  0
  -27.9946  -14.5943   20.9009 C   0  0  0  0  0  0  0  0  0  0  0  0
  -26.7775  -34.4359   23.2511 C   0  0  1  0  0  0  0  0  0  0  0  0
  -24.7065  -31.8978   21.3270 C   0  0  1  0  0  0  0  0  0  0  0  0
  -25.4169  -18.3431   19.4512 C   0  0  0  0  0  0  0  0  0  0  0  0
  -27.8144  -13.0757   21.0676 C   0  0  2  0  0  0  0  0  0  0  0  0
  -27.0747  -18.0290   21.3243 C   0  0  0  0  0  0  0  0  0  0  0  0
  -18.5556  -27.2815   22.2541 C   0  0  0  0  0  0  0  0  0  0  0  0
  -23.3313  -30.5105   25.5156 C   0  0  0  0  0  0  0  0  0  0  0  0
  -21.4762  -28.8293   25.5398 C   0  0  0  0  0  0  0  0  0  0  0  0
  -20.9914  -31.2110   24.9784 C   0  0  0  0  0  0  0  0  0  0  0  0
  -20.5153  -27.8367   19.0405 C   0  0  0  0  0  0  0  0  0  0  0  0
  -30.5781  -16.5959   18.0690 C   0  0  0  0  0  0  0  0  0  0  0  0
  -30.4357  -18.1054   18.1477 C   0  0  0  0  0  0  0  0  0  0  0  0
  -27.5840  -25.5445   20.4468 C   0  0  0  0  0  0  0  0  0  1  0  0
  -28.1485  -24.3304   19.7349 C   0  0  0  0  0  0  0  0  0  0  0  0
  -26.9105  -18.3479   19.8266 C   0  0  2  0  0  0  0  0  0  0  0  0
  -22.2217  -29.7689   23.3054 C   0  0  1  0  0  0  0  0  0  0  0  0
  -19.5138  -28.0070   21.3223 C   0  0  2  0  0  0  0  0  0  0  0  0
  -22.0271  -30.0770   24.8169 C   0  0  0  0  0  0  0  0  0  0  0  0
  -28.8483  -22.0110   18.7260 N   0  0  0  0  0  0  0  0  0  0  0  0
  -25.3801  -13.4712   21.0447 N   0  0  0  0  0  0  0  0  0  0  0  0
  -26.3940  -12.6337   20.7677 N   0  0  0  0  0  0  0  0  0  0  0  0
  -24.0151  -30.7448   21.9071 N   0  0  0  0  0  0  0  0  0  0  0  0
  -29.3839  -14.9750   21.2003 N   0  0  0  0  0  0  0  0  0  0  0  0
  -26.8865  -10.4887   19.8919 N   0  0  0  0  0  0  0  0  0  0  0  0
  -22.3832  -10.7109   19.6331 N   0  0  0  0  0  0  0  0  0  0  0  0
  -25.8804  -33.7549   22.3423 N   0  0  0  0  0  0  0  0  0  0  0  0
  -20.9977  -29.3820   22.6121 N   0  0  0  0  0  0  0  0  0  0  0  0
  -29.7791  -15.9275   19.0718 N   0  0  0  0  0  0  0  0  0  0  0  0
  -19.6216  -27.2257   20.0578 N   0  3  0  0  0  0  0  0  0  0  0  0
  -24.2082   -9.3825   19.2286 O   0  0  0  0  0  0  0  0  0  0  0  0
  -26.2178  -31.5838   23.1137 O   0  0  0  0  0  0  0  0  0  0  0  0
  -22.1489  -32.0038   22.5141 O   0  0  0  0  0  0  0  0  0  0  0  0
  -21.7597  -27.3163   21.8845 O   0  0  0  0  0  0  0  0  0  0  0  0
  -31.4289  -15.9283   20.6641 O   0  0  0  0  0  0  0  0  0  0  0  0
  -19.2017  -15.0037   21.2094 O   0  0  0  0  0  0  0  0  0  0  0  0
  -28.2730  -26.7105   19.9974 O   0  0  0  0  0  0  0  0  0  1  0  0
  -29.0694  -18.4647   17.9360 O   0  0  0  0  0  0  0  0  0  0  0  0
  -27.4442  -23.1713   20.1635 O   0  0  0  0  0  0  0  0  0  0  0  0
  -15.2184  -11.8077   23.2887 F   0  0  0  0  0  0  0  0  0  0  0  0
  -17.8830  -15.7122   23.5336 F   0  0  0  0  0  0  0  0  0  0  0  0
  1  2  1  0  0  0  0
  1  5  2  0  0  0  0
  2  6  2  0  0  0  0
  3  8  2  0  0  0  0
  3 17  1  0  0  0  0
  4  9  1  0  0  0  0
  4 17  2  0  0  0  0
  5 19  1  0  0  0  0
  6 21  1  0  0  0  0
  7 10  2  0  0  0  0
  7 20  1  0  0  0  0
  8 24  1  0  0  0  0
  9 24  2  0  0  0  0
 10 25  1  0  0  0  0
 11 12  2  0  0  0  0
 11 26  1  0  0  0  0
 12 28  1  0  0  0  0
 13 22  1  0  0  0  0
 13 25  2  0  0  0  0
 14 23  2  0  0  0  0
 14 31  1  0  0  0  0
 15 28  2  0  0  0  0
 15 29  1  0  0  0  0
 16 27  2  0  0  0  0
 16 67  1  0  0  0  0
 17 30  1  0  0  0  0
 18 30  1  0  0  0  0
 18 32  2  0  0  0  0
 18 33  1  0  0  0  0
 19 21  2  0  0  0  0
 19 38  1  0  0  0  0
 20 22  2  0  0  0  0
 20 39  1  0  0  0  0
 21 49  1  0  0  0  0
 22 40  1  0  0  0  0
 23 27  1  0  0  0  0
 23 63  1  0  0  0  0
 24 83  1  0  0  0  0
 25 84  1  0  0  0  0
 26 29  2  0  0  0  0
 26 83  1  0  0  0  0
 27 85  1  0  0  0  0
 28 87  1  0  0  0  0
 29 88  1  0  0  0  0
 30 68  2  0  0  0  0
 31 67  2  0  0  0  0
 31 86  1  0  0  0  0
 32 69  1  0  0  0  0
 32 72  1  0  0  0  0
 33 73  1  0  0  0  0
 33 78  2  0  0  0  0
 34 50  1  0  0  0  0
 34 74  1  0  0  0  0
 34 79  2  0  0  0  0
 35 64  1  0  0  0  0
 35 70  1  0  0  0  0
 35 80  2  0  0  0  0
 36 65  1  0  0  0  0
 36 75  1  0  0  0  0
 36 81  2  0  0  0  0
 37 71  1  0  0  0  0
 37 76  1  0  0  0  0
 37 82  2  0  0  0  0
 38 41  1  0  0  0  0
 39 50  1  0  0  0  0
 40 70  1  0  0  0  0
 41 43  1  0  0  0  0
 42 46  1  0  0  0  0
 42 47  1  0  0  0  0
 43 49  1  0  0  0  0
 44 45  1  0  0  0  0
 44 51  1  0  0  0  0
 45 51  1  0  0  0  0
 46 52  1  0  0  0  0
 47 71  1  0  0  0  0
 48 52  1  0  0  0  0
 48 71  1  0  0  0  0
 49 74  1  0  0  0  0
 50 70  1  0  0  0  0
 51 63  1  0  0  0  0
 52 69  1  0  0  0  0
 53 63  1  0  0  0  0
 54 65  1  0  0  0  0
 55 66  1  0  0  0  0
 56 66  1  0  0  0  0
 57 66  1  0  0  0  0
 58 77  1  0  0  0  0
 59 60  1  0  0  0  0
 59 76  1  0  0  0  0
 60 85  1  0  0  0  0
 61 62  1  0  0  0  0
 61 84  1  0  0  0  0
 62 86  1  0  0  0  0
 64 66  1  0  0  0  0
 64 75  1  0  0  0  0
 65 77  1  0  0  0  0
 68 69  1  0  0  0  0
M  CHG  1  77   1
M  ISO  4  37 100  61 101  76 100  84 101
M  END
> <Batch ID>
0143

> <Smiles>
CNC(C)C(=O)NC(C(=O)N1Cc2cc([101O:1][101CH2:1]COc3cc(C(C)C4CC4)c(OCC[100NH:0][100C:0](=O)N4CCCC(n5nc(-c6ccc(Oc7ccc(F)cc7F)cc6)c(C(N)=O)c5N)C4)cn3)ccc2CC1C(=O)NC1CCCc2ccccc21)C(C)(C)C

> <Shape>
0.286

> <Color>
0.081

> <Negative vol penalty>
0.000

$$$$

  -OEChem-04052321213D

 83 92  0     1  0  0  0  0  0999 V2000
  -28.7707  -36.9533   22.5354 C   0  0  0  0  0  0  0  0  0  0  0  0
  -29.0967  -35.6719   22.1025 C   0  0  0  0  0  0  0  0  0  0  0  0
  -24.5898  -11.0816   23.8030 C   0  0  0  0  0  0  0  0  0  0  0  0
  -23.6976  -13.2919   24.1980 C   0  0  0  0  0  0  0  0  0  0  0  0
  -27.7160  -37.1390   23.4282 C   0  0  0  0  0  0  0  0  0  0  0  0
  -28.3687  -34.5754   22.5630 C   0  0  0  0  0  0  0  0  0  0  0  0
  -26.9941  -29.4927   19.4352 C   0  0  0  0  0  0  0  0  0  0  0  0
  -24.1797  -10.6884   25.0768 C   0  0  0  0  0  0  0  0  0  0  0  0
  -23.2874  -12.8986   25.4719 C   0  0  0  0  0  0  0  0  0  0  0  0
  -27.5714  -28.2240   19.4068 C   0  0  0  0  0  0  0  0  0  0  0  0
  -21.3051   -9.7476   26.5884 C   0  0  0  0  0  0  0  0  0  0  0  0
  -20.6652   -8.5144   26.7115 C   0  0  0  0  0  0  0  0  0  0  0  0
  -25.9464  -27.4552   21.0154 C   0  0  0  0  0  0  0  0  0  0  0  0
  -27.6352  -23.3454   17.6840 C   0  0  0  0  0  0  0  0  0  0  0  0
  -22.4034   -7.7622   28.2116 C   0  0  0  0  0  0  0  0  0  0  0  0
  -24.3488  -12.3834   23.3636 C   0  0  0  0  0  0  0  0  0  0  0  0
  -24.0338  -12.7060   20.8527 C   0  0  0  0  0  0  0  0  0  0  0  0
  -26.9686  -36.0451   23.8924 C   0  0  0  0  0  0  0  0  0  0  0  0
  -25.8936  -29.7556   20.2636 C   0  0  0  0  0  0  0  0  0  0  0  0
  -27.3039  -34.7465   23.4639 C   0  0  0  0  0  0  0  0  0  0  0  0
  -25.3555  -28.7275   21.0507 C   0  0  0  0  0  0  0  0  0  0  0  0
  -27.9610  -21.3496   19.0074 C   0  0  0  0  0  0  0  0  0  0  0  0
  -27.7775  -21.9660   17.7658 C   0  0  0  0  0  0  0  0  0  0  0  0
  -23.5285  -11.5968   25.9113 C   0  0  0  0  0  0  0  0  0  0  0  0
  -27.0493  -27.2057   20.1991 C   0  0  0  0  0  0  0  0  0  0  0  0
  -22.4942   -9.9882   27.2769 C   0  0  0  0  0  0  0  0  0  0  0  0
  -21.2143   -7.5217   27.5231 C   0  0  0  0  0  0  0  0  0  0  0  0
  -23.0433   -8.9955   28.0884 C   0  0  0  0  0  0  0  0  0  0  0  0
  -24.7727  -12.7904   22.0480 C   0  0  0  0  0  0  0  0  0  0  0  0
  -27.9708  -22.1654   20.1427 C   0  0  0  0  0  0  0  0  0  0  0  0
  -27.6740  -24.0682   18.8615 C   0  0  0  0  0  0  0  0  0  0  0  0
  -24.8733  -13.2172   19.8933 C   0  0  0  0  0  0  0  0  0  0  0  0
  -22.7073  -12.2099   20.6296 C   0  0  0  0  0  0  0  0  0  0  0  0
  -25.3457  -31.7039   22.7146 C   0  0  0  0  0  0  0  0  0  0  0  0
  -22.3105  -30.6011   22.4092 C   0  0  0  0  0  0  0  0  0  0  0  0
  -20.2221  -28.1241   21.3369 C   0  0  0  0  0  0  0  0  0  0  0  0
  -29.4653  -17.0531   20.1178 C   0  0  0  0  0  0  0  0  0  0  0  0
  -25.8676  -36.2906   24.8935 C   0  0  0  0  0  0  0  0  0  0  0  0
  -25.2658  -31.1225   20.2628 C   0  0  0  0  0  0  0  0  0  0  0  0
  -28.0700  -19.8500   19.0933 C   0  0  0  0  0  0  0  0  0  0  0  0
  -24.1624  -28.9527   21.9419 C   0  0  0  0  0  0  0  0  0  0  0  0
  -28.1939  -21.5871   21.5148 C   0  0  0  0  0  0  0  0  0  0  0  0
  -24.9066  -35.1140   25.0428 C   0  0  0  0  0  0  0  0  0  0  0  0
  -27.9262  -20.0844   21.5910 C   0  0  0  0  0  0  0  0  0  0  0  0
  -29.5188  -13.7206   18.8656 C   0  0  0  0  0  0  0  0  0  0  0  0
  -25.6805  -33.8061   25.1745 C   0  0  0  0  0  0  0  0  0  0  0  0
  -28.2419  -13.0967   19.4314 C   0  0  0  0  0  0  0  0  0  0  0  0
  -30.1602  -14.6898   19.8562 C   0  0  0  0  0  0  0  0  0  0  0  0
  -27.9834  -15.1186   20.9292 C   0  0  0  0  0  0  0  0  0  0  0  0
  -26.5219  -33.5344   23.9216 C   0  0  1  0  0  0  0  0  0  0  0  0
  -24.4680  -31.4143   21.5300 C   0  0  1  0  0  0  0  0  0  0  0  0
  -27.2701  -14.1762   19.9446 C   0  0  2  0  0  0  0  0  0  0  0  0
  -28.6260  -19.3667   20.4374 C   0  0  1  0  0  0  0  0  0  0  0  0
  -27.7179  -21.1745   16.4990 C   0  0  0  0  0  0  0  0  0  0  0  0
  -17.7955  -27.4890   21.2605 C   0  0  0  0  0  0  0  0  0  0  0  0
  -22.4104  -29.8725   25.3705 C   0  0  0  0  0  0  0  0  0  0  0  0
  -20.4014  -28.4227   25.0101 C   0  0  0  0  0  0  0  0  0  0  0  0
  -20.2498  -30.8814   24.6168 C   0  0  0  0  0  0  0  0  0  0  0  0
  -20.2119  -28.0622   18.3780 C   0  0  0  0  0  0  0  0  0  0  0  0
  -21.5318  -29.4413   22.9814 C   0  0  1  0  0  0  0  0  0  0  0  0
  -18.9401  -28.1686   20.5251 C   0  0  2  0  0  0  0  0  0  0  0  0
  -21.1720  -29.6504   24.4795 C   0  0  0  0  0  0  0  0  0  0  0  0
  -25.9881  -13.3139   21.8670 N   0  0  0  0  0  0  0  0  0  0  0  0
  -27.8400  -23.5150   20.0828 N   0  0  0  0  0  0  0  0  0  0  0  0
  -26.0194  -13.5630   20.5467 N   0  0  0  0  0  0  0  0  0  0  0  0
  -23.5878  -30.3079   21.9111 N   0  0  0  0  0  0  0  0  0  0  0  0
  -29.1864  -15.6889   20.3027 N   0  0  0  0  0  0  0  0  0  0  0  0
  -24.7354  -13.4001   18.5629 N   0  0  0  0  0  0  0  0  0  0  0  0
  -21.9836  -11.7210   21.7258 N   0  0  0  0  0  0  0  0  0  0  0  0
  -25.6865  -33.0362   22.8500 N   0  0  0  0  0  0  0  0  0  0  0  0
  -20.3767  -29.2555   22.1098 N   0  0  0  0  0  0  0  0  0  0  0  0
  -28.4867  -17.9330   20.5637 N   0  0  0  0  0  0  0  0  0  0  0  0
  -19.1316  -27.4817   19.2165 N   0  3  0  0  0  0  0  0  0  0  0  0
  -22.1854  -12.1852   19.4892 O   0  0  0  0  0  0  0  0  0  0  0  0
  -25.6872  -30.7868   23.4522 O   0  0  0  0  0  0  0  0  0  0  0  0
  -21.8012  -31.7246   22.3980 O   0  0  0  0  0  0  0  0  0  0  0  0
  -21.0059  -27.1785   21.2929 O   0  0  0  0  0  0  0  0  0  0  0  0
  -30.5068  -17.4568   19.5893 O   0  0  0  0  0  0  0  0  0  0  0  0
  -23.1279  -11.2134   27.1543 O   0  0  0  0  0  0  0  0  0  0  0  0
  -27.6112  -25.9666   20.1737 O   0  0  0  0  0  0  0  0  0  1  0  0
  -27.5365  -25.4369   18.8106 O   0  0  0  0  0  0  0  0  0  1  0  0
  -20.5989   -6.3379   27.6424 F   0  0  0  0  0  0  0  0  0  0  0  0
  -24.1848   -9.2211   28.7532 F   0  0  0  0  0  0  0  0  0  0  0  0
  1  2  1  0  0  0  0
  1  5  2  0  0  0  0
  2  6  2  0  0  0  0
  3  8  2  0  0  0  0
  3 16  1  0  0  0  0
  4  9  1  0  0  0  0
  4 16  2  0  0  0  0
  5 18  1  0  0  0  0
  6 20  1  0  0  0  0
  7 10  2  0  0  0  0
  7 19  1  0  0  0  0
  8 24  1  0  0  0  0
  9 24  2  0  0  0  0
 10 25  1  0  0  0  0
 11 12  2  0  0  0  0
 11 26  1  0  0  0  0
 12 27  1  0  0  0  0
 13 21  1  0  0  0  0
 13 25  2  0  0  0  0
 14 23  2  0  0  0  0
 14 31  1  0  0  0  0
 15 27  2  0  0  0  0
 15 28  1  0  0  0  0
 16 29  1  0  0  0  0
 17 29  1  0  0  0  0
 17 32  2  0  0  0  0
 17 33  1  0  0  0  0
 18 20  2  0  0  0  0
 18 38  1  0  0  0  0
 19 21  2  0  0  0  0
 19 39  1  0  0  0  0
 20 50  1  0  0  0  0
 21 41  1  0  0  0  0
 22 23  1  0  0  0  0
 22 30  2  0  0  0  0
 22 40  1  0  0  0  0
 23 54  1  0  0  0  0
 24 79  1  0  0  0  0
 25 80  1  0  0  0  0
 26 28  2  0  0  0  0
 26 79  1  0  0  0  0
 27 82  1  0  0  0  0
 28 83  1  0  0  0  0
 29 63  2  0  0  0  0
 30 42  1  0  0  0  0
 30 64  1  0  0  0  0
 31 64  2  0  0  0  0
 31 81  1  0  0  0  0
 32 65  1  0  0  0  0
 32 68  1  0  0  0  0
 33 69  1  0  0  0  0
 33 74  2  0  0  0  0
 34 51  1  0  0  0  0
 34 70  1  0  0  0  0
 34 75  2  0  0  0  0
 35 60  1  0  0  0  0
 35 66  1  0  0  0  0
 35 76  2  0  0  0  0
 36 61  1  0  0  0  0
 36 71  1  0  0  0  0
 36 77  2  0  0  0  0
 37 67  1  0  0  0  0
 37 72  1  0  0  0  0
 37 78  2  0  0  0  0
 38 43  1  0  0  0  0
 39 51  1  0  0  0  0
 40 53  1  0  0  0  0
 41 66  1  0  0  0  0
 42 44  1  0  0  0  0
 43 46  1  0  0  0  0
 44 53  1  0  0  0  0
 45 47  1  0  0  0  0
 45 48  1  0  0  0  0
 46 50  1  0  0  0  0
 47 52  1  0  0  0  0
 48 67  1  0  0  0  0
 49 52  1  0  0  0  0
 49 67  1  0  0  0  0
 50 70  1  0  0  0  0
 51 66  1  0  0  0  0
 52 65  1  0  0  0  0
 53 72  1  0  0  0  0
 55 61  1  0  0  0  0
 56 62  1  0  0  0  0
 57 62  1  0  0  0  0
 58 62  1  0  0  0  0
 59 73  1  0  0  0  0
 60 62  1  0  0  0  0
 60 71  1  0  0  0  0
 61 73  1  0  0  0  0
 63 65  1  0  0  0  0
 80 81  1  0  0  0  0
M  CHG  1  73   1
M  ISO  4  37 100  72 100  80 101  81 101
M  END
> <Batch ID>
0143

> <Smiles>
CNC(C)C(=O)NC(C(=O)N1Cc2cc([101O:1][101O:1]c3cc(C)c4c(n3)CCC([100NH:0][100C:0](=O)N3CCCC(n5nc(-c6ccc(Oc7ccc(F)cc7F)cc6)c(C(N)=O)c5N)C3)C4)ccc2CC1C(=O)NC1CCCc2ccccc21)C(C)(C)C

> <Shape>
0.276

> <Color>
0.079

> <Negative vol penalty>
0.000

$$$$

  -OEChem-04052321213D

 85 94  0     1  0  0  0  0  0999 V2000
  -20.1142  -10.1281   22.6802 C   0  0  0  0  0  0  0  0  0  0  0  0
  -20.8938  -11.0698   23.3441 C   0  0  0  0  0  0  0  0  0  0  0  0
  -29.7871  -20.8129   27.4847 C   0  0  0  0  0  0  0  0  0  0  0  0
  -24.1655  -29.0329   21.0340 C   0  0  0  0  0  0  0  0  0  0  0  0
  -26.1017  -30.4779   21.0314 C   0  0  0  0  0  0  0  0  0  0  0  0
  -20.6863   -9.3158   21.7020 C   0  0  0  0  0  0  0  0  0  0  0  0
  -22.2464  -11.1990   23.0309 C   0  0  0  0  0  0  0  0  0  0  0  0
  -23.6780  -16.0336   22.5591 C   0  0  0  0  0  0  0  0  0  0  0  0
  -28.6321  -20.0503   27.3514 C   0  0  0  0  0  0  0  0  0  0  0  0
  -23.5646  -29.8396   22.0003 C   0  0  0  0  0  0  0  0  0  0  0  0
  -25.5008  -31.2847   21.9977 C   0  0  0  0  0  0  0  0  0  0  0  0
  -23.8888  -16.7528   23.7347 C   0  0  0  0  0  0  0  0  0  0  0  0
  -24.9994  -31.2149   25.3405 C   0  0  0  0  0  0  0  0  0  0  0  0
  -25.7821  -31.6263   26.4193 C   0  0  0  0  0  0  0  0  0  0  0  0
  -26.2664  -16.4128   23.5092 C   0  0  0  0  0  0  0  0  0  0  0  0
  -25.4131  -33.9341   25.8070 C   0  0  0  0  0  0  0  0  0  0  0  0
  -29.9102  -21.9464   26.6975 C   0  0  0  0  0  0  0  0  0  0  0  0
  -25.4340  -29.3520   20.5496 C   0  0  0  0  0  0  0  0  0  0  0  0
  -25.9565  -28.6491   18.1537 C   0  0  0  0  0  0  0  0  0  0  0  0
  -22.0444   -9.4418   21.3699 C   0  0  0  0  0  0  0  0  0  0  0  0
  -24.7608  -15.4883   21.8544 C   0  0  0  0  0  0  0  0  0  0  0  0
  -22.8376  -10.3868   22.0484 C   0  0  0  0  0  0  0  0  0  0  0  0
  -26.0668  -15.6892   22.3236 C   0  0  0  0  0  0  0  0  0  0  0  0
  -27.6495  -20.4390   26.4477 C   0  0  0  0  0  0  0  0  0  0  0  0
  -24.2323  -30.9656   22.4821 C   0  0  0  0  0  0  0  0  0  0  0  0
  -25.1829  -16.9400   24.2115 C   0  0  0  0  0  0  0  0  0  0  0  0
  -24.4236  -32.1631   24.4949 C   0  0  0  0  0  0  0  0  0  0  0  0
  -25.9890  -32.9858   26.6526 C   0  0  0  0  0  0  0  0  0  0  0  0
  -24.6304  -33.5227   24.7282 C   0  0  0  0  0  0  0  0  0  0  0  0
  -26.0555  -28.5187   19.5519 C   0  0  0  0  0  0  0  0  0  0  0  0
  -27.8682  -21.5894   25.7071 C   0  0  0  0  0  0  0  0  0  0  0  0
  -26.7229  -27.6227   17.6580 C   0  0  0  0  0  0  0  0  0  0  0  0
  -25.2363  -29.6119   17.3727 C   0  0  0  0  0  0  0  0  0  0  0  0
  -25.6676  -12.5472   21.0600 C   0  0  0  0  0  0  0  0  0  0  0  0
  -27.9593  -14.1240   19.3915 C   0  0  0  0  0  0  0  0  0  0  0  0
  -29.8294  -16.9518   19.0000 C   0  0  0  0  0  0  0  0  0  0  0  0
  -28.3916  -22.3480   19.9377 C   0  0  0  0  0  0  0  0  0  0  0  0
  -22.6292   -8.5091   20.3390 C   0  0  0  0  0  0  0  0  0  0  0  0
  -24.5185  -14.7378   20.5736 C   0  0  0  0  0  0  0  0  0  0  0  0
  -27.2648  -15.1416   21.5933 C   0  0  0  0  0  0  0  0  0  0  0  0
  -23.9832   -8.9663   19.8023 C   0  0  0  0  0  0  0  0  0  0  0  0
  -30.4960  -24.9041   18.7104 C   0  0  0  0  0  0  0  0  0  0  0  0
  -24.8968   -9.3888   20.9485 C   0  0  0  0  0  0  0  0  0  0  0  0
  -29.6068  -26.1441   18.6826 C   0  0  0  0  0  0  0  0  0  0  0  0
  -25.6686  -20.4823   21.6150 C   0  0  0  0  0  0  0  0  0  0  0  0
  -30.1864  -24.0444   19.9284 C   0  0  0  0  0  0  0  0  0  0  0  0
  -26.8502  -20.5520   20.6583 C   0  0  0  0  0  0  0  0  0  0  0  0
  -27.8339  -24.8282   19.9559 C   0  0  0  0  0  0  0  0  0  0  0  0
  -26.5550  -22.6990   21.6974 C   0  0  0  0  0  0  0  0  0  0  0  0
  -24.3028  -10.5740   21.7192 C   0  0  1  0  0  0  0  0  0  0  0  0
  -25.6568  -13.7882   20.2130 C   0  0  1  0  0  0  0  0  0  0  0  0
  -28.1235  -25.7492   18.7526 C   0  0  1  0  0  0  0  0  0  0  0  0
  -25.9448  -21.6234   22.5880 C   0  0  2  0  0  0  0  0  0  0  0  0
  -31.4589  -18.5373   17.9376 C   0  0  0  0  0  0  0  0  0  0  0  0
  -30.0212  -12.4024   20.8388 C   0  0  0  0  0  0  0  0  0  0  0  0
  -31.7831  -14.0275   20.1156 C   0  0  0  0  0  0  0  0  0  0  0  0
  -30.4821  -12.7587   18.4067 C   0  0  0  0  0  0  0  0  0  0  0  0
  -27.7192  -18.1857   17.3315 C   0  0  0  0  0  0  0  0  0  0  0  0
  -26.4098  -19.6264   26.3006 C   0  0  0  0  0  0  0  0  0  0  0  0
  -26.8426  -22.0561   24.7162 C   0  0  0  0  0  0  0  0  0  0  0  0
  -26.6207  -18.3558   25.4702 C   0  0  0  0  0  0  0  0  0  1  0  0
  -29.3531  -14.6184   19.6947 C   0  0  1  0  0  0  0  0  0  0  0  0
  -30.1453  -17.7888   17.7735 C   0  0  2  0  0  0  0  0  0  0  0  0
  -30.3874  -13.4605   19.7790 C   0  0  0  0  0  0  0  0  0  0  0  0
  -28.9773  -22.3558   25.8089 N   0  0  0  0  0  0  0  0  0  0  0  0
  -26.8240  -27.4904   19.9207 N   0  0  0  0  0  0  0  0  0  0  0  0
  -27.2149  -26.9653   18.7470 N   0  0  0  0  0  0  0  0  0  0  0  0
  -26.9757  -14.4095   20.3491 N   0  0  0  0  0  0  0  0  0  0  0  0
  -28.7666  -23.6946   19.9999 N   0  0  0  0  0  0  0  0  0  0  0  0
  -27.2584  -21.9526   20.6480 N   0  0  0  0  0  0  0  0  0  0  0  0
  -27.0172  -27.2274   16.4012 N   0  0  0  0  0  0  0  0  0  0  0  0
  -24.4997  -30.5988   18.0421 N   0  0  0  0  0  0  0  0  0  0  0  0
  -24.5041  -11.8055   20.9862 N   0  0  0  0  0  0  0  0  0  0  0  0
  -29.6602  -15.6212   18.6805 N   0  0  0  0  0  0  0  0  0  0  0  0
  -29.0634  -18.7852   17.5336 N   0  3  0  0  0  0  0  0  0  0  0  0
  -25.2323  -29.5877   16.1186 O   0  0  0  0  0  0  0  0  0  0  0  0
  -26.6589  -12.2814   21.7297 O   0  0  0  0  0  0  0  0  0  0  0  0
  -27.7495  -13.5135   18.3404 O   0  0  0  0  0  0  0  0  0  0  0  0
  -29.7451  -17.4300   20.1290 O   0  0  0  0  0  0  0  0  0  0  0  0
  -29.0659  -21.5218   19.3079 O   0  0  0  0  0  0  0  0  0  0  0  0
  -23.6461  -31.7532   23.4248 O   0  0  0  0  0  0  0  0  0  0  0  0
  -25.3930  -17.6460   25.3671 O   0  0  0  0  0  0  0  0  0  1  0  0
  -26.8989  -21.2258   23.5645 O   0  0  0  0  0  0  0  0  0  0  0  0
  -26.7393  -33.3808   27.6895 F   0  0  0  0  0  0  0  0  0  0  0  0
  -24.0788  -34.4384   23.9200 F   0  0  0  0  0  0  0  0  0  0  0  0
  1  2  1  0  0  0  0
  1  6  2  0  0  0  0
  2  7  2  0  0  0  0
  3  9  2  0  0  0  0
  3 17  1  0  0  0  0
  4 10  2  0  0  0  0
  4 18  1  0  0  0  0
  5 11  1  0  0  0  0
  5 18  2  0  0  0  0
  6 20  1  0  0  0  0
  7 22  1  0  0  0  0
  8 12  2  0  0  0  0
  8 21  1  0  0  0  0
  9 24  1  0  0  0  0
 10 25  1  0  0  0  0
 11 25  2  0  0  0  0
 12 26  1  0  0  0  0
 13 14  2  0  0  0  0
 13 27  1  0  0  0  0
 14 28  1  0  0  0  0
 15 23  1  0  0  0  0
 15 26  2  0  0  0  0
 16 28  2  0  0  0  0
 16 29  1  0  0  0  0
 17 65  2  0  0  0  0
 18 30  1  0  0  0  0
 19 30  1  0  0  0  0
 19 32  2  0  0  0  0
 19 33  1  0  0  0  0
 20 22  2  0  0  0  0
 20 38  1  0  0  0  0
 21 23  2  0  0  0  0
 21 39  1  0  0  0  0
 22 50  1  0  0  0  0
 23 40  1  0  0  0  0
 24 31  2  0  0  0  0
 24 59  1  0  0  0  0
 25 81  1  0  0  0  0
 26 82  1  0  0  0  0
 27 29  2  0  0  0  0
 27 81  1  0  0  0  0
 28 84  1  0  0  0  0
 29 85  1  0  0  0  0
 30 66  2  0  0  0  0
 31 60  1  0  0  0  0
 31 65  1  0  0  0  0
 32 67  1  0  0  0  0
 32 71  1  0  0  0  0
 33 72  1  0  0  0  0
 33 76  2  0  0  0  0
 34 51  1  0  0  0  0
 34 73  1  0  0  0  0
 34 77  2  0  0  0  0
 35 62  1  0  0  0  0
 35 68  1  0  0  0  0
 35 78  2  0  0  0  0
 36 63  1  0  0  0  0
 36 74  1  0  0  0  0
 36 79  2  0  0  0  0
 37 69  1  0  0  0  0
 37 70  1  0  0  0  0
 37 80  2  0  0  0  0
 38 41  1  0  0  0  0
 39 51  1  0  0  0  0
 40 68  1  0  0  0  0
 41 43  1  0  0  0  0
 42 44  1  0  0  0  0
 42 46  1  0  0  0  0
 43 50  1  0  0  0  0
 44 52  1  0  0  0  0
 45 47  1  0  0  0  0
 45 53  1  0  0  0  0
 46 69  1  0  0  0  0
 47 70  1  0  0  0  0
 48 52  1  0  0  0  0
 48 69  1  0  0  0  0
 49 53  1  0  0  0  0
 49 70  1  0  0  0  0
 50 73  1  0  0  0  0
 51 68  1  0  0  0  0
 52 67  1  0  0  0  0
 53 83  1  0  0  0  0
 54 63  1  0  0  0  0
 55 64  1  0  0  0  0
 56 64  1  0  0  0  0
 57 64  1  0  0  0  0
 58 75  1  0  0  0  0
 59 61  1  0  0  0  0
 60 83  1  0  0  0  0
 61 82  1  0  0  0  0
 62 64  1  0  0  0  0
 62 74  1  0  0  0  0
 63 75  1  0  0  0  0
 66 67  1  0  0  0  0
M  CHG  1  75   1
M  ISO  4  37 100  61 101  70 100  82 101
M  END
> <Batch ID>
0143

> <Smiles>
CNC(C)C(=O)NC(C(=O)N1Cc2cc([101O:1][101CH2:1]Cc3cccnc3COC3CC[100N:0]([100C:0](=O)N4CCCC(n5nc(-c6ccc(Oc7ccc(F)cc7F)cc6)c(C(N)=O)c5N)C4)C3)ccc2CC1C(=O)NC1CCCc2ccccc21)C(C)(C)C

> <Shape>
0.265

> <Color>
0.067

> <Negative vol penalty>
0.000

$$$$

  -OEChem-04052321213D

 88 99  0     1  0  0  0  0  0999 V2000
  -17.5000  -32.4189   22.5035 C   0  0  0  0  0  0  0  0  0  0  0  0
  -18.7361  -32.6756   21.9191 C   0  0  0  0  0  0  0  0  0  0  0  0
  -25.9745  -12.8720   21.7927 C   0  0  0  0  0  0  0  0  0  0  0  0
  -25.8329  -13.5792   19.4869 C   0  0  0  0  0  0  0  0  0  0  0  0
  -17.3739  -31.3984   23.4451 C   0  0  0  0  0  0  0  0  0  0  0  0
  -19.8471  -31.9126   22.2768 C   0  0  0  0  0  0  0  0  0  0  0  0
  -25.9135  -29.2605   19.5416 C   0  0  0  0  0  0  0  0  0  0  0  0
  -24.8464  -12.0710   21.6163 C   0  0  0  0  0  0  0  0  0  0  0  0
  -24.7048  -12.7781   19.3105 C   0  0  0  0  0  0  0  0  0  0  0  0
  -27.2834  -29.2206   19.7978 C   0  0  0  0  0  0  0  0  0  0  0  0
  -24.1173   -9.0574   20.2675 C   0  0  0  0  0  0  0  0  0  0  0  0
  -24.1560   -7.7611   20.7810 C   0  0  0  0  0  0  0  0  0  0  0  0
  -26.9298  -27.4318   21.3771 C   0  0  0  0  0  0  0  0  0  0  0  0
  -22.2566   -8.2616   22.1877 C   0  0  0  0  0  0  0  0  0  0  0  0
  -28.1281  -21.2002   17.2105 C   0  0  0  0  0  0  0  0  0  0  0  0
  -26.4678  -13.6262   20.7280 C   0  0  0  0  0  0  0  0  0  0  0  0
  -28.9771  -14.0852   20.7137 C   0  0  0  0  0  0  0  0  0  0  0  0
  -18.4818  -30.6162   23.8075 C   0  0  0  0  0  0  0  0  0  0  0  0
  -25.0387  -28.3923   20.2105 C   0  0  0  0  0  0  0  0  0  0  0  0
  -19.7360  -30.8816   23.2252 C   0  0  0  0  0  0  0  0  0  0  0  0
  -25.5495  -27.4610   21.1258 C   0  0  0  0  0  0  0  0  0  0  0  0
  -24.2115  -12.0240   20.3752 C   0  0  0  0  0  0  0  0  0  0  0  0
  -27.7914  -28.3081   20.7178 C   0  0  0  0  0  0  0  0  0  0  0  0
  -23.1483   -9.9558   20.7141 C   0  0  0  0  0  0  0  0  0  0  0  0
  -23.2257   -7.3632   21.7411 C   0  0  0  0  0  0  0  0  0  0  0  0
  -22.2180   -9.5580   21.6742 C   0  0  0  0  0  0  0  0  0  0  0  0
  -27.6328  -14.4543   20.9097 C   0  0  0  0  0  0  0  0  0  0  0  0
  -28.4958  -23.3003   16.3835 C   0  0  0  0  0  0  0  0  0  0  0  0
  -28.6765  -23.7732   17.6646 C   0  0  0  0  0  0  0  0  0  0  0  0
  -28.3095  -21.6729   18.4916 C   0  0  0  0  0  0  0  0  0  0  0  0
  -29.6919  -15.2183   21.0164 C   0  0  0  0  0  0  0  0  0  0  0  0
  -29.5303  -12.8303   20.2954 C   0  0  0  0  0  0  0  0  0  0  0  0
  -22.5909  -28.7705   22.2026 C   0  0  0  0  0  0  0  0  0  0  0  0
  -22.3119  -25.5580   21.8502 C   0  0  0  0  0  0  0  0  0  0  0  0
  -23.8054  -22.5872   21.0819 C   0  0  0  0  0  0  0  0  0  0  0  0
  -28.3453  -21.0393   20.9296 C   0  0  0  0  0  0  0  0  0  0  0  0
  -18.3067  -29.5552   24.8649 C   0  0  0  0  0  0  0  0  0  0  0  0
  -23.5668  -28.4299   19.9032 C   0  0  0  0  0  0  0  0  0  0  0  0
  -24.6550  -26.4935   21.8553 C   0  0  0  0  0  0  0  0  0  0  0  0
  -19.4523  -28.5474   24.9121 C   0  0  0  0  0  0  0  0  0  0  0  0
  -29.4904  -19.1601   23.7286 C   0  0  0  0  0  0  0  0  0  0  0  0
  -20.7973  -29.2658   24.8709 C   0  0  0  0  0  0  0  0  0  0  0  0
  -27.3902  -25.0017   14.7845 C   0  0  0  0  0  0  0  0  0  0  0  0
  -27.8700  -23.8628   13.9401 C   0  0  0  0  0  0  0  0  0  0  0  0
  -32.8945  -25.0149   18.2085 C   0  0  0  0  0  0  0  0  0  0  0  0
  -32.1231  -23.9707   17.4508 C   0  0  0  0  0  0  0  0  0  0  0  0
  -29.2720  -17.7064   23.3031 C   0  0  0  0  0  0  0  0  0  0  0  0
  -31.3030  -27.1391   20.4198 C   0  0  0  0  0  0  0  0  0  0  0  0
  -28.3770  -20.0736   23.2190 C   0  0  0  0  0  0  0  0  0  0  0  0
  -27.9026  -18.5407   21.3496 C   0  0  0  0  0  0  0  0  0  0  0  0
  -20.9591  -30.0596   23.5689 C   0  0  1  0  0  0  0  0  0  0  0  0
  -28.6014  -24.2138   15.2089 C   0  0  0  0  0  0  0  0  0  0  0  0
  -22.7078  -27.8486   21.0220 C   0  0  1  0  0  0  0  0  0  0  0  0
  -31.5195  -25.3274   17.6865 C   0  0  0  0  0  0  0  0  0  0  0  0
  -30.3461  -26.8394   19.2993 C   0  0  2  0  0  0  0  0  0  0  0  0
  -29.0328  -17.5935   21.7847 C   0  0  2  0  0  0  0  0  0  0  0  0
  -29.8300  -27.0188   20.7019 C   0  0  2  0  0  0  0  0  0  1  0  0
  -23.3316  -20.1283   20.9188 C   0  0  0  0  0  0  0  0  0  0  0  0
  -22.3921  -25.3431   24.8928 C   0  0  0  0  0  0  0  0  0  0  0  0
  -22.8722  -22.8992   24.6380 C   0  0  0  0  0  0  0  0  0  0  0  0
  -20.7264  -23.8426   23.7846 C   0  0  0  0  0  0  0  0  0  0  0  0
  -24.4582  -22.5349   18.1958 C   0  0  0  0  0  0  0  0  0  0  0  0
  -28.9865  -25.2255   17.9345 C   0  0  0  0  0  0  0  0  0  0  0  0
  -22.8784  -24.3516   22.5591 C   0  0  1  0  0  0  0  0  0  0  0  0
  -23.3783  -21.4512   20.1701 C   0  0  2  0  0  0  0  0  0  0  0  0
  -30.3343  -25.4921   18.6641 C   0  0  1  0  0  0  0  0  0  0  0  0
  -22.2342  -24.1285   23.9565 C   0  0  0  0  0  0  0  0  0  0  0  0
  -28.2181  -22.0054   16.1335 N   0  0  0  0  0  0  0  0  0  0  0  0
  -27.4989  -15.7227   21.3064 N   0  0  0  0  0  0  0  0  0  0  0  0
  -28.5869  -22.9680   18.7416 N   0  0  0  0  0  0  0  0  0  0  0  0
  -28.7683  -16.1604   21.3622 N   0  0  0  0  0  0  0  0  0  0  0  0
  -23.2225  -26.5734   21.5253 N   0  0  0  0  0  0  0  0  0  0  0  0
  -28.2103  -19.9159   21.7725 N   0  0  0  0  0  0  0  0  0  0  0  0
  -31.0141  -15.4907   21.0180 N   0  0  0  0  0  0  0  0  0  0  0  0
  -28.6537  -11.7707   20.0250 N   0  0  0  0  0  0  0  0  0  0  0  0
  -28.1980  -20.7617   19.5709 N   0  0  0  0  0  0  0  0  0  0  0  0
  -21.2977  -29.1737   22.4757 N   0  0  0  0  0  0  0  0  0  0  0  0
  -22.7206  -23.2279   21.6421 N   0  0  0  0  0  0  0  0  0  0  0  0
  -24.3311  -21.3139   19.0324 N   0  3  0  0  0  0  0  0  0  0  0  0
  -30.7662  -12.6491   20.1810 O   0  0  0  0  0  0  0  0  0  0  0  0
  -23.5991  -29.0912   22.8211 O   0  0  0  0  0  0  0  0  0  0  0  0
  -21.1071  -25.5949   21.5879 O   0  0  0  0  0  0  0  0  0  0  0  0
  -24.9837  -22.8749   21.2805 O   0  0  0  0  0  0  0  0  0  0  0  0
  -28.6015  -22.1598   21.3776 O   0  0  0  0  0  0  0  0  0  0  0  0
  -23.1107  -11.2422   20.2027 O   0  0  0  0  0  0  0  0  0  0  0  0
  -29.1280  -28.2674   20.9702 O   0  0  0  0  0  0  0  0  0  1  0  0
  -23.2620   -6.1178   22.2330 F   0  0  0  0  0  0  0  0  0  0  0  0
  -21.2839  -10.4163   22.1062 F   0  0  0  0  0  0  0  0  0  0  0  0
  1  2  1  0  0  0  0
  1  5  2  0  0  0  0
  2  6  2  0  0  0  0
  3  8  2  0  0  0  0
  3 16  1  0  0  0  0
  4  9  1  0  0  0  0
  4 16  2  0  0  0  0
  5 18  1  0  0  0  0
  6 20  1  0  0  0  0
  7 10  2  0  0  0  0
  7 19  1  0  0  0  0
  8 22  1  0  0  0  0
  9 22  2  0  0  0  0
 10 23  1  0  0  0  0
 11 12  2  0  0  0  0
 11 24  1  0  0  0  0
 12 25  1  0  0  0  0
 13 21  1  0  0  0  0
 13 23  2  0  0  0  0
 14 25  2  0  0  0  0
 14 26  1  0  0  0  0
 15 30  1  0  0  0  0
 15 68  2  0  0  0  0
 16 27  1  0  0  0  0
 17 27  1  0  0  0  0
 17 31  2  0  0  0  0
 17 32  1  0  0  0  0
 18 20  2  0  0  0  0
 18 37  1  0  0  0  0
 19 21  2  0  0  0  0
 19 38  1  0  0  0  0
 20 51  1  0  0  0  0
 21 39  1  0  0  0  0
 22 85  1  0  0  0  0
 23 86  1  0  0  0  0
 24 26  2  0  0  0  0
 24 85  1  0  0  0  0
 25 87  1  0  0  0  0
 26 88  1  0  0  0  0
 27 69  2  0  0  0  0
 28 29  2  0  0  0  0
 28 52  1  0  0  0  0
 28 68  1  0  0  0  0
 29 63  1  0  0  0  0
 29 70  1  0  0  0  0
 30 70  2  0  0  0  0
 30 76  1  0  0  0  0
 31 71  1  0  0  0  0
 31 74  1  0  0  0  0
 32 75  1  0  0  0  0
 32 80  2  0  0  0  0
 33 53  1  0  0  0  0
 33 77  1  0  0  0  0
 33 81  2  0  0  0  0
 34 64  1  0  0  0  0
 34 72  1  0  0  0  0
 34 82  2  0  0  0  0
 35 65  1  0  0  0  0
 35 78  1  0  0  0  0
 35 83  2  0  0  0  0
 36 73  1  0  0  0  0
 36 76  1  0  0  0  0
 36 84  2  0  0  0  0
 37 40  1  0  0  0  0
 38 53  1  0  0  0  0
 39 72  1  0  0  0  0
 40 42  1  0  0  0  0
 41 47  1  0  0  0  0
 41 49  1  0  0  0  0
 42 51  1  0  0  0  0
 43 44  1  0  0  0  0
 43 52  1  0  0  0  0
 44 52  1  0  0  0  0
 45 46  1  0  0  0  0
 45 54  1  0  0  0  0
 46 54  1  0  0  0  0
 47 56  1  0  0  0  0
 48 55  1  0  0  0  0
 48 57  1  0  0  0  0
 49 73  1  0  0  0  0
 50 56  1  0  0  0  0
 50 73  1  0  0  0  0
 51 77  1  0  0  0  0
 53 72  1  0  0  0  0
 54 66  1  0  0  0  0
 55 57  1  0  0  0  0
 55 66  1  0  0  0  0
 56 71  1  0  0  0  0
 57 86  1  0  0  0  0
 58 65  1  0  0  0  0
 59 67  1  0  0  0  0
 60 67  1  0  0  0  0
 61 67  1  0  0  0  0
 62 79  1  0  0  0  0
 63 66  1  0  0  0  0
 64 67  1  0  0  0  0
 64 78  1  0  0  0  0
 65 79  1  0  0  0  0
 69 71  1  0  0  0  0
M  CHG  1  79   1
M  ISO  4  36 100  57 101  76 100  86 101
M  END
> <Batch ID>
0143

> <Smiles>
CNC(C)C(=O)NC(C(=O)N1Cc2cc([101O:1][101CH:1]3CC3C(Cc3nc([100NH:0][100C:0](=O)N4CCCC(n5nc(-c6ccc(Oc7ccc(F)cc7F)cc6)c(C(N)=O)c5N)C4)cnc3C3CC3)C3CC3)ccc2CC1C(=O)NC1CCCc2ccccc21)C(C)(C)C

> <Shape>
0.277

> <Color>
0.101

> <Negative vol penalty>
0.000

$$$$

  -OEChem-04052321213D

 85 94  0     1  0  0  0  0  0999 V2000
  -27.7985  -10.5961   18.8609 C   0  0  0  0  0  0  0  0  0  0  0  0
  -28.0971  -11.8740   18.3990 C   0  0  0  0  0  0  0  0  0  0  0  0
  -21.9402  -24.8750   18.9333 C   0  0  0  0  0  0  0  0  0  0  0  0
  -23.1671  -24.1172   20.8717 C   0  0  0  0  0  0  0  0  0  0  0  0
  -26.6900  -10.3944   19.6822 C   0  0  0  0  0  0  0  0  0  0  0  0
  -27.2868  -12.9507   18.7573 C   0  0  0  0  0  0  0  0  0  0  0  0
  -29.0722  -18.7155   19.7992 C   0  0  0  0  0  0  0  0  0  0  0  0
  -22.0149  -23.5944   18.3854 C   0  0  0  0  0  0  0  0  0  0  0  0
  -23.2418  -22.8366   20.3239 C   0  0  0  0  0  0  0  0  0  0  0  0
  -29.0588  -19.8600   19.0031 C   0  0  0  0  0  0  0  0  0  0  0  0
  -24.3020  -21.7114   16.7583 C   0  0  0  0  0  0  0  0  0  0  0  0
  -24.6452  -21.6028   15.4107 C   0  0  0  0  0  0  0  0  0  0  0  0
  -26.9638  -20.5212   19.9996 C   0  0  0  0  0  0  0  0  0  0  0  0
  -22.5404  -20.5043   14.9632 C   0  0  0  0  0  0  0  0  0  0  0  0
  -27.3244  -24.6462   19.3399 C   0  0  0  0  0  0  0  0  0  0  0  0
  -22.5164  -25.1364   20.1764 C   0  0  0  0  0  0  0  0  0  0  0  0
  -21.4301  -26.9680   21.5810 C   0  0  0  0  0  0  0  0  0  0  0  0
  -25.8712  -11.4707   20.0586 C   0  0  0  0  0  0  0  0  0  0  0  0
  -28.0243  -18.4593   20.6951 C   0  0  0  0  0  0  0  0  0  0  0  0
  -26.1655  -12.7629   19.5833 C   0  0  0  0  0  0  0  0  0  0  0  0
  -26.9676  -19.3740   20.8078 C   0  0  0  0  0  0  0  0  0  0  0  0
  -28.6451  -24.6690   18.9405 C   0  0  0  0  0  0  0  0  0  0  0  0
  -22.6657  -22.5752   19.0807 C   0  0  0  0  0  0  0  0  0  0  0  0
  -28.0030  -20.7616   19.1012 C   0  0  0  0  0  0  0  0  0  0  0  0
  -23.0781  -21.2163   17.2084 C   0  0  0  0  0  0  0  0  0  0  0  0
  -23.7644  -20.9993   14.5131 C   0  0  0  0  0  0  0  0  0  0  0  0
  -22.1973  -20.6128   16.3109 C   0  0  0  0  0  0  0  0  0  0  0  0
  -22.4400  -26.4592   20.7426 C   0  0  0  0  0  0  0  0  0  0  0  0
  -29.4970  -25.4066   19.7369 C   0  0  0  0  0  0  0  0  0  0  0  0
  -21.8182  -28.2595   21.8413 C   0  0  0  0  0  0  0  0  0  0  0  0
  -27.7890  -25.9746   21.1251 C   0  0  0  0  0  0  0  0  0  0  0  0
  -20.2469  -26.3302   22.0800 C   0  0  0  0  0  0  0  0  0  0  0  0
  -27.2146  -30.9116   21.7662 C   0  0  0  0  0  0  0  0  0  0  0  0
  -25.8560  -16.1567   21.0115 C   0  0  0  0  0  0  0  0  0  0  0  0
  -25.1337  -17.7483   23.7442 C   0  0  0  0  0  0  0  0  0  0  0  0
  -25.1836  -20.6813   25.4882 C   0  0  0  0  0  0  0  0  0  0  0  0
  -24.6567  -11.1960   20.9096 C   0  0  0  0  0  0  0  0  0  0  0  0
  -28.0670  -17.2337   21.5660 C   0  0  0  0  0  0  0  0  0  0  0  0
  -25.8286  -19.1554   21.7687 C   0  0  0  0  0  0  0  0  0  0  0  0
  -24.0644  -12.4495   21.5485 C   0  0  0  0  0  0  0  0  0  0  0  0
  -24.2780  -31.8927   19.9508 C   0  0  0  0  0  0  0  0  0  0  0  0
  -23.9473  -13.5690   20.5190 C   0  0  0  0  0  0  0  0  0  0  0  0
  -23.3952  -30.6461   19.9977 C   0  0  0  0  0  0  0  0  0  0  0  0
  -28.9566  -29.8968   23.3929 C   0  0  0  0  0  0  0  0  0  0  0  0
  -25.7563  -31.5269   19.8631 C   0  0  0  0  0  0  0  0  0  0  0  0
  -25.3399  -29.3700   21.0056 C   0  0  0  0  0  0  0  0  0  0  0  0
  -25.3247  -13.9602   19.9703 C   0  0  1  0  0  0  0  0  0  0  0  0
  -27.5535  -29.9307   22.8419 C   0  0  2  0  0  0  0  0  0  0  0  0
  -26.6912  -16.8134   22.0739 C   0  0  1  0  0  0  0  0  0  0  0  0
  -28.4682  -28.7745   22.5217 C   0  0  2  0  0  0  0  0  0  0  0  0
  -23.8405  -29.6958   21.1235 C   0  0  2  0  0  0  0  0  0  0  0  0
  -24.4859  -21.6810   27.6817 C   0  0  0  0  0  0  0  0  0  0  0  0
  -22.2389  -17.8304   22.7832 C   0  0  0  0  0  0  0  0  0  0  0  0
  -21.7975  -19.6123   24.4857 C   0  0  0  0  0  0  0  0  0  0  0  0
  -22.5158  -17.3390   25.2197 C   0  0  0  0  0  0  0  0  0  0  0  0
  -27.9764  -21.3494   26.2043 C   0  0  0  0  0  0  0  0  0  0  0  0
  -31.6466  -26.2648   20.2836 C   0  0  0  0  0  0  0  0  0  0  0  0
  -29.1070  -23.9283   17.7091 C   0  0  0  0  0  0  0  0  0  0  0  0
  -28.2088  -27.4288   23.1087 C   0  0  0  0  0  0  0  0  0  0  0  0
  -29.2500  -22.4300   17.9534 C   0  0  0  0  0  0  0  0  0  1  0  0
  -24.1936  -18.8711   24.1108 C   0  0  1  0  0  0  0  0  0  0  0  0
  -25.6063  -21.0002   26.9109 C   0  0  2  0  0  0  0  0  0  0  0  0
  -22.7068  -18.4166   24.1302 C   0  0  0  0  0  0  0  0  0  0  0  0
  -26.8600  -25.2900   20.4309 N   0  0  0  0  0  0  0  0  0  0  0  0
  -23.3977  -27.3545   20.4871 N   0  0  0  0  0  0  0  0  0  0  0  0
  -29.1014  -26.0746   20.8404 N   0  0  0  0  0  0  0  0  0  0  0  0
  -22.9912  -28.4389   21.1688 N   0  0  0  0  0  0  0  0  0  0  0  0
  -26.1351  -30.6026   20.9323 N   0  0  0  0  0  0  0  0  0  0  0  0
  -25.9126  -17.9392   22.5941 N   0  0  0  0  0  0  0  0  0  0  0  0
  -21.2672  -29.2480   22.5773 N   0  0  0  0  0  0  0  0  0  0  0  0
  -20.0006  -24.9996   21.7149 N   0  0  0  0  0  0  0  0  0  0  0  0
  -27.3389  -26.6611   22.2739 N   0  0  0  0  0  0  0  0  0  0  0  0
  -26.0316  -14.7889   20.9232 N   0  0  0  0  0  0  0  0  0  0  0  0
  -24.6717  -19.4055   25.3813 N   0  0  0  0  0  0  0  0  0  0  0  0
  -26.7917  -21.9033   26.9090 N   0  3  0  0  0  0  0  0  0  0  0  0
  -19.4239  -26.9278   22.8142 O   0  0  0  0  0  0  0  0  0  0  0  0
  -27.8993  -31.9275   21.6784 O   0  0  0  0  0  0  0  0  0  0  0  0
  -25.1066  -16.8401   20.3237 O   0  0  0  0  0  0  0  0  0  0  0  0
  -25.1807  -16.7420   24.4561 O   0  0  0  0  0  0  0  0  0  0  0  0
  -25.2929  -21.4851   24.5648 O   0  0  0  0  0  0  0  0  0  0  0  0
  -22.7386  -21.3255   18.5465 O   0  0  0  0  0  0  0  0  0  0  0  0
  -27.9871  -21.8792   18.3249 O   0  0  0  0  0  0  0  0  0  1  0  0
  -30.8273  -25.4874   19.4185 O   0  0  0  0  0  0  0  0  0  0  0  0
  -24.0934  -20.8966   13.2188 F   0  0  0  0  0  0  0  0  0  0  0  0
  -21.0195  -20.1363   16.7372 F   0  0  0  0  0  0  0  0  0  0  0  0
  1  2  1  0  0  0  0
  1  5  2  0  0  0  0
  2  6  2  0  0  0  0
  3  8  2  0  0  0  0
  3 16  1  0  0  0  0
  4  9  1  0  0  0  0
  4 16  2  0  0  0  0
  5 18  1  0  0  0  0
  6 20  1  0  0  0  0
  7 10  2  0  0  0  0
  7 19  1  0  0  0  0
  8 23  1  0  0  0  0
  9 23  2  0  0  0  0
 10 24  1  0  0  0  0
 11 12  2  0  0  0  0
 11 25  1  0  0  0  0
 12 26  1  0  0  0  0
 13 21  1  0  0  0  0
 13 24  2  0  0  0  0
 14 26  2  0  0  0  0
 14 27  1  0  0  0  0
 15 22  1  0  0  0  0
 15 64  2  0  0  0  0
 16 28  1  0  0  0  0
 17 28  1  0  0  0  0
 17 30  2  0  0  0  0
 17 32  1  0  0  0  0
 18 20  2  0  0  0  0
 18 37  1  0  0  0  0
 19 21  2  0  0  0  0
 19 38  1  0  0  0  0
 20 47  1  0  0  0  0
 21 39  1  0  0  0  0
 22 29  2  0  0  0  0
 22 58  1  0  0  0  0
 23 81  1  0  0  0  0
 24 82  1  0  0  0  0
 25 27  2  0  0  0  0
 25 81  1  0  0  0  0
 26 84  1  0  0  0  0
 27 85  1  0  0  0  0
 28 65  2  0  0  0  0
 29 66  1  0  0  0  0
 29 83  1  0  0  0  0
 30 67  1  0  0  0  0
 30 70  1  0  0  0  0
 31 64  1  0  0  0  0
 31 66  2  0  0  0  0
 31 72  1  0  0  0  0
 32 71  1  0  0  0  0
 32 76  2  0  0  0  0
 33 48  1  0  0  0  0
 33 68  1  0  0  0  0
 33 77  2  0  0  0  0
 34 49  1  0  0  0  0
 34 73  1  0  0  0  0
 34 78  2  0  0  0  0
 35 61  1  0  0  0  0
 35 69  1  0  0  0  0
 35 79  2  0  0  0  0
 36 62  1  0  0  0  0
 36 74  1  0  0  0  0
 36 80  2  0  0  0  0
 37 40  1  0  0  0  0
 38 49  1  0  0  0  0
 39 69  1  0  0  0  0
 40 42  1  0  0  0  0
 41 43  1  0  0  0  0
 41 45  1  0  0  0  0
 42 47  1  0  0  0  0
 43 51  1  0  0  0  0
 44 48  1  0  0  0  0
 44 50  1  0  0  0  0
 45 68  1  0  0  0  0
 46 51  1  0  0  0  0
 46 68  1  0  0  0  0
 47 73  1  0  0  0  0
 48 50  1  0  0  0  0
 49 69  1  0  0  0  0
 50 59  1  0  0  0  0
 51 67  1  0  0  0  0
 52 62  1  0  0  0  0
 53 63  1  0  0  0  0
 54 63  1  0  0  0  0
 55 63  1  0  0  0  0
 56 75  1  0  0  0  0
 57 83  1  0  0  0  0
 58 60  1  0  0  0  0
 59 72  1  0  0  0  0
 60 82  1  0  0  0  0
 61 63  1  0  0  0  0
 61 74  1  0  0  0  0
 62 75  1  0  0  0  0
 65 67  1  0  0  0  0
M  CHG  1  75   1
M  ISO  4  33 100  48 100  60 101  82 101
M  END
> <Batch ID>
0143

> <Smiles>
CNC(C)C(=O)NC(C(=O)N1Cc2cc([101O:1][101CH2:1]Cc3cnc(NCC4C[100CH:0]4[100C:0](=O)N4CCCC(n5nc(-c6ccc(Oc7ccc(F)cc7F)cc6)c(C(N)=O)c5N)C4)nc3OC)ccc2CC1C(=O)NC1CCCc2ccccc21)C(C)(C)C

> <Shape>
0.209

> <Color>
0.079

> <Negative vol penalty>
0.000

$$$$

  -OEChem-04052321213D

 85 93  0     1  0  0  0  0  0999 V2000
  -26.1227  -25.3549   18.6480 C   0  0  0  0  0  0  0  0  0  0  0  0
  -26.2037  -24.8052   19.9234 C   0  0  0  0  0  0  0  0  0  0  0  0
  -23.0003   -9.8945   19.9815 C   0  0  0  0  0  0  0  0  0  0  0  0
  -23.7310   -9.9437   22.2839 C   0  0  0  0  0  0  0  0  0  0  0  0
  -27.2427  -25.3547   17.8176 C   0  0  0  0  0  0  0  0  0  0  0  0
  -27.4047  -24.2540   20.3688 C   0  0  0  0  0  0  0  0  0  0  0  0
  -29.6011  -24.3445   26.0848 C   0  0  0  0  0  0  0  0  0  0  0  0
  -22.2354   -8.7590   20.2485 C   0  0  0  0  0  0  0  0  0  0  0  0
  -22.9661   -8.8082   22.5509 C   0  0  0  0  0  0  0  0  0  0  0  0
  -29.5850  -23.4008   27.1109 C   0  0  0  0  0  0  0  0  0  0  0  0
  -23.2124   -5.4700   22.0749 C   0  0  0  0  0  0  0  0  0  0  0  0
  -23.8027   -4.4526   22.8245 C   0  0  0  0  0  0  0  0  0  0  0  0
  -31.7932  -22.6731   26.4680 C   0  0  0  0  0  0  0  0  0  0  0  0
  -28.7009  -18.1899   24.7090 C   0  0  0  0  0  0  0  0  0  0  0  0
  -22.0826   -4.6922   24.5042 C   0  0  0  0  0  0  0  0  0  0  0  0
  -23.7481  -10.4868   20.9992 C   0  0  0  0  0  0  0  0  0  0  0  0
  -24.1306  -13.0029   20.8249 C   0  0  0  0  0  0  0  0  0  0  0  0
  -28.4606  -24.8119   18.2566 C   0  0  0  0  0  0  0  0  0  0  0  0
  -30.7108  -24.4525   25.2343 C   0  0  0  0  0  0  0  0  0  0  0  0
  -28.5416  -24.2453   19.5430 C   0  0  0  0  0  0  0  0  0  0  0  0
  -31.8219  -23.6208   25.4335 C   0  0  0  0  0  0  0  0  0  0  0  0
  -29.0762  -17.7365   23.4493 C   0  0  0  0  0  0  0  0  0  0  0  0
  -30.3872  -17.3313   23.2245 C   0  0  0  0  0  0  0  0  0  0  0  0
  -22.2183   -8.2159   21.5332 C   0  0  0  0  0  0  0  0  0  0  0  0
  -30.6800  -22.5629   27.3008 C   0  0  0  0  0  0  0  0  0  0  0  0
  -22.0572   -6.0986   22.5399 C   0  0  0  0  0  0  0  0  0  0  0  0
  -23.2378   -4.0636   24.0392 C   0  0  0  0  0  0  0  0  0  0  0  0
  -21.4923   -5.7097   23.7545 C   0  0  0  0  0  0  0  0  0  0  0  0
  -24.5388  -11.6594   20.7239 C   0  0  0  0  0  0  0  0  0  0  0  0
  -31.2774  -17.3982   24.2841 C   0  0  0  0  0  0  0  0  0  0  0  0
  -29.6666  -18.2182   25.7022 C   0  0  0  0  0  0  0  0  0  0  0  0
  -25.2388  -13.7269   20.4585 C   0  0  0  0  0  0  0  0  0  0  0  0
  -22.8631  -13.5478   21.2150 C   0  0  0  0  0  0  0  0  0  0  0  0
  -31.1901  -24.0803   22.1142 C   0  0  0  0  0  0  0  0  0  0  0  0
  -34.1565  -25.1777   22.8346 C   0  0  0  0  0  0  0  0  0  0  0  0
  -36.5976  -25.6025   25.1813 C   0  0  0  0  0  0  0  0  0  0  0  0
  -30.7349  -14.6664   20.6948 C   0  0  0  0  0  0  0  0  0  0  0  0
  -29.6311  -24.7919   17.3058 C   0  0  0  0  0  0  0  0  0  0  0  0
  -30.7234  -25.4937   24.1490 C   0  0  0  0  0  0  0  0  0  0  0  0
  -33.0461  -23.7103   24.5606 C   0  0  0  0  0  0  0  0  0  0  0  0
  -30.9686  -24.5253   17.9917 C   0  0  0  0  0  0  0  0  0  0  0  0
  -29.5908  -12.2441   18.3495 C   0  0  0  0  0  0  0  0  0  0  0  0
  -30.8469  -23.3545   18.9618 C   0  0  0  0  0  0  0  0  0  0  0  0
  -28.1436  -11.9826   18.7703 C   0  0  0  0  0  0  0  0  0  0  0  0
  -30.4959  -12.4791   19.5568 C   0  0  0  0  0  0  0  0  0  0  0  0
  -28.5883  -13.2714   20.9010 C   0  0  0  0  0  0  0  0  0  0  0  0
  -29.8334  -23.6602   20.0712 C   0  0  1  0  0  0  0  0  0  0  0  0
  -31.6957  -25.1677   23.0195 C   0  0  1  0  0  0  0  0  0  0  0  0
  -27.6266  -13.0841   19.7151 C   0  0  2  0  0  0  0  0  0  0  0  0
  -28.0582  -17.6946   22.3581 C   0  0  0  0  0  0  0  0  0  0  0  0
  -32.6989  -16.9767   24.1020 C   0  0  0  0  0  0  0  0  0  0  0  0
  -30.6455  -17.9003   20.7809 C   0  0  0  0  0  0  0  0  0  0  0  0
  -38.9253  -26.4969   25.4628 C   0  0  0  0  0  0  0  0  0  0  0  0
  -35.2736  -22.6999   21.4480 C   0  0  0  0  0  0  0  0  0  0  0  0
  -37.4677  -23.1483   22.5673 C   0  0  0  0  0  0  0  0  0  0  0  0
  -36.5209  -24.8142   20.9702 C   0  0  0  0  0  0  0  0  0  0  0  0
  -35.7108  -27.6100   27.1669 C   0  0  0  0  0  0  0  0  0  0  0  0
  -29.5888  -19.6748   29.1577 C   0  0  0  0  0  0  0  0  0  0  0  0
  -30.1688  -18.7606   28.0853 C   0  0  0  0  0  0  0  0  0  0  0  0
  -29.3970  -21.1085   28.6773 C   0  0  0  0  0  0  0  0  0  1  0  0
  -30.8185  -16.8442   21.8820 C   0  0  2  0  0  0  0  0  0  0  0  0
  -35.4607  -24.5404   23.2491 C   0  0  1  0  0  0  0  0  0  0  0  0
  -37.4398  -26.8101   25.5515 C   0  0  2  0  0  0  0  0  0  0  0  0
  -36.1570  -23.7974   22.0741 C   0  0  0  0  0  0  0  0  0  0  0  0
  -25.8072  -11.5345   20.3245 N   0  0  0  0  0  0  0  0  0  0  0  0
  -30.9497  -17.8328   25.5216 N   0  0  0  0  0  0  0  0  0  0  0  0
  -26.2057  -12.8088   20.1712 N   0  0  0  0  0  0  0  0  0  0  0  0
  -33.0079  -24.7400   23.5091 N   0  0  0  0  0  0  0  0  0  0  0  0
  -29.9502  -13.5364   20.4113 N   0  0  0  0  0  0  0  0  0  0  0  0
  -25.4708  -15.0530   20.3573 N   0  0  0  0  0  0  0  0  0  0  0  0
  -21.8330  -12.6623   21.5601 N   0  0  0  0  0  0  0  0  0  0  0  0
  -29.2788  -18.6731   26.9529 N   0  0  0  0  0  0  0  0  0  0  0  0
  -30.4186  -24.5371   21.0627 N   0  0  0  0  0  0  0  0  0  0  0  0
  -36.2638  -25.6034   23.8435 N   0  0  0  0  0  0  0  0  0  0  0  0
  -30.1396  -15.6238   21.5070 N   0  0  0  0  0  0  0  0  0  0  0  0
  -37.1341  -27.2479   26.9428 N   0  3  0  0  0  0  0  0  0  0  0  0
  -22.6453  -14.7829   21.2406 O   0  0  0  0  0  0  0  0  0  0  0  0
  -31.4799  -22.9135   22.3511 O   0  0  0  0  0  0  0  0  0  0  0  0
  -34.1578  -26.0375   21.9501 O   0  0  0  0  0  0  0  0  0  0  0  0
  -36.2718  -24.7424   25.9966 O   0  0  0  0  0  0  0  0  0  0  0  0
  -31.8791  -14.8138   20.2521 O   0  0  0  0  0  0  0  0  0  0  0  0
  -21.4719   -7.1080   21.7942 O   0  0  0  0  0  0  0  0  0  0  0  0
  -30.6667  -21.6404   28.3012 O   0  0  0  0  0  0  0  0  0  1  0  0
  -23.8039   -3.0855   24.7582 F   0  0  0  0  0  0  0  0  0  0  0  0
  -20.3820   -6.3090   24.2059 F   0  0  0  0  0  0  0  0  0  0  0  0
  1  2  1  0  0  0  0
  1  5  2  0  0  0  0
  2  6  2  0  0  0  0
  3  8  2  0  0  0  0
  3 16  1  0  0  0  0
  4  9  1  0  0  0  0
  4 16  2  0  0  0  0
  5 18  1  0  0  0  0
  6 20  1  0  0  0  0
  7 10  2  0  0  0  0
  7 19  1  0  0  0  0
  8 24  1  0  0  0  0
  9 24  2  0  0  0  0
 10 25  1  0  0  0  0
 11 12  2  0  0  0  0
 11 26  1  0  0  0  0
 12 27  1  0  0  0  0
 13 21  1  0  0  0  0
 13 25  2  0  0  0  0
 14 22  2  0  0  0  0
 14 31  1  0  0  0  0
 15 27  2  0  0  0  0
 15 28  1  0  0  0  0
 16 29  1  0  0  0  0
 17 29  1  0  0  0  0
 17 32  2  0  0  0  0
 17 33  1  0  0  0  0
 18 20  2  0  0  0  0
 18 38  1  0  0  0  0
 19 21  2  0  0  0  0
 19 39  1  0  0  0  0
 20 47  1  0  0  0  0
 21 40  1  0  0  0  0
 22 23  1  0  0  0  0
 22 50  1  0  0  0  0
 23 30  2  0  0  0  0
 23 61  1  0  0  0  0
 24 82  1  0  0  0  0
 25 83  1  0  0  0  0
 26 28  2  0  0  0  0
 26 82  1  0  0  0  0
 27 84  1  0  0  0  0
 28 85  1  0  0  0  0
 29 65  2  0  0  0  0
 30 51  1  0  0  0  0
 30 66  1  0  0  0  0
 31 66  2  0  0  0  0
 31 72  1  0  0  0  0
 32 67  1  0  0  0  0
 32 70  1  0  0  0  0
 33 71  1  0  0  0  0
 33 77  2  0  0  0  0
 34 48  1  0  0  0  0
 34 73  1  0  0  0  0
 34 78  2  0  0  0  0
 35 62  1  0  0  0  0
 35 68  1  0  0  0  0
 35 79  2  0  0  0  0
 36 63  1  0  0  0  0
 36 74  1  0  0  0  0
 36 80  2  0  0  0  0
 37 69  1  0  0  0  0
 37 75  1  0  0  0  0
 37 81  2  0  0  0  0
 38 41  1  0  0  0  0
 39 48  1  0  0  0  0
 40 68  1  0  0  0  0
 41 43  1  0  0  0  0
 42 44  1  0  0  0  0
 42 45  1  0  0  0  0
 43 47  1  0  0  0  0
 44 49  1  0  0  0  0
 45 69  1  0  0  0  0
 46 49  1  0  0  0  0
 46 69  1  0  0  0  0
 47 73  1  0  0  0  0
 48 68  1  0  0  0  0
 49 67  1  0  0  0  0
 52 61  1  0  0  0  0
 53 63  1  0  0  0  0
 54 64  1  0  0  0  0
 55 64  1  0  0  0  0
 56 64  1  0  0  0  0
 57 76  1  0  0  0  0
 58 59  1  0  0  0  0
 58 60  1  0  0  0  0
 59 72  1  0  0  0  0
 60 83  1  0  0  0  0
 61 75  1  0  0  0  0
 62 64  1  0  0  0  0
 62 74  1  0  0  0  0
 63 76  1  0  0  0  0
 65 67  1  0  0  0  0
M  CHG  1  76   1
M  ISO  4  37 100  60 101  75 100  83 101
M  END
> <Batch ID>
0143

> <Smiles>
CNC(C)C(=O)NC(C(=O)N1Cc2cc([101O:1][101CH2:1]CCNc3cc(C)c(C(C)[100NH:0][100C:0](=O)N4CCCC(n5nc(-c6ccc(Oc7ccc(F)cc7F)cc6)c(C(N)=O)c5N)C4)c(C)n3)ccc2CC1C(=O)NC1CCCc2ccccc21)C(C)(C)C

> <Shape>
0.221

> <Color>
0.197

> <Negative vol penalty>
0.000

$$$$

  -OEChem-04052321213D

 90100  0     1  0  0  0  0  0999 V2000
  -28.6492  -37.6678   24.8010 C   0  0  0  0  0  0  0  0  0  0  0  0
  -28.7003  -36.5440   25.6194 C   0  0  0  0  0  0  0  0  0  0  0  0
  -22.5349  -13.4251   22.2217 C   0  0  0  0  0  0  0  0  0  0  0  0
  -23.6883  -11.5459   23.2094 C   0  0  0  0  0  0  0  0  0  0  0  0
  -27.5128  -37.9184   24.0331 C   0  0  0  0  0  0  0  0  0  0  0  0
  -27.6146  -35.6706   25.6711 C   0  0  0  0  0  0  0  0  0  0  0  0
  -27.3109  -27.9828   24.3170 C   0  0  0  0  0  0  0  0  0  0  0  0
  -21.6627  -13.4616   23.3096 C   0  0  0  0  0  0  0  0  0  0  0  0
  -22.8161  -11.5824   24.2973 C   0  0  0  0  0  0  0  0  0  0  0  0
  -27.1011  -26.6537   23.9487 C   0  0  0  0  0  0  0  0  0  0  0  0
  -18.9351  -11.7719   24.3723 C   0  0  0  0  0  0  0  0  0  0  0  0
  -17.5738  -11.9187   24.1060 C   0  0  0  0  0  0  0  0  0  0  0  0
  -24.8055  -27.1616   23.3828 C   0  0  0  0  0  0  0  0  0  0  0  0
  -30.9789  -19.8703   19.2525 C   0  0  0  0  0  0  0  0  0  0  0  0
  -29.2269  -18.3212   19.8139 C   0  0  0  0  0  0  0  0  0  0  0  0
  -17.5440  -13.9667   25.3874 C   0  0  0  0  0  0  0  0  0  0  0  0
  -23.5477  -12.4673   22.1716 C   0  0  0  0  0  0  0  0  0  0  0  0
  -24.1124  -12.2320   19.6950 C   0  0  0  0  0  0  0  0  0  0  0  0
  -26.4164  -37.0425   24.0680 C   0  0  0  0  0  0  0  0  0  0  0  0
  -26.2718  -28.9108   24.2050 C   0  0  0  0  0  0  0  0  0  0  0  0
  -26.4619  -35.9104   24.9039 C   0  0  0  0  0  0  0  0  0  0  0  0
  -25.0132  -28.4970   23.7385 C   0  0  0  0  0  0  0  0  0  0  0  0
  -21.8033  -12.5402   24.3474 C   0  0  0  0  0  0  0  0  0  0  0  0
  -25.8515  -26.2441   23.4829 C   0  0  0  0  0  0  0  0  0  0  0  0
  -19.6008  -12.7224   25.1463 C   0  0  0  0  0  0  0  0  0  0  0  0
  -29.6360  -19.6140   19.5063 C   0  0  0  0  0  0  0  0  0  0  0  0
  -16.8782  -13.0161   24.6135 C   0  0  0  0  0  0  0  0  0  0  0  0
  -18.9053  -13.8198   25.6538 C   0  0  0  0  0  0  0  0  0  0  0  0
  -24.4487  -12.4287   21.0478 C   0  0  0  0  0  0  0  0  0  0  0  0
  -31.8657  -18.8078   19.3184 C   0  0  0  0  0  0  0  0  0  0  0  0
  -30.1921  -17.3280   19.8545 C   0  0  0  0  0  0  0  0  0  0  0  0
  -25.3143  -12.2803   19.0319 C   0  0  0  0  0  0  0  0  0  0  0  0
  -22.8285  -12.0241   19.0917 C   0  0  0  0  0  0  0  0  0  0  0  0
  -25.1523  -32.4657   24.6353 C   0  0  0  0  0  0  0  0  0  0  0  0
  -23.9187  -31.4541   22.0152 C   0  0  0  0  0  0  0  0  0  0  0  0
  -23.0990  -30.0950   18.9956 C   0  0  0  0  0  0  0  0  0  0  0  0
  -30.5562  -14.8695   20.2664 C   0  0  0  0  0  0  0  0  0  0  0  0
  -25.1911  -37.3804   23.2561 C   0  0  0  0  0  0  0  0  0  0  0  0
  -26.4348  -30.3393   24.6483 C   0  0  0  0  0  0  0  0  0  0  0  0
  -23.9150  -29.5225   23.6673 C   0  0  0  0  0  0  0  0  0  0  0  0
  -24.2321  -36.2054   23.0830 C   0  0  0  0  0  0  0  0  0  0  0  0
  -29.9799  -11.4073   19.6680 C   0  0  0  0  0  0  0  0  0  0  0  0
  -24.0040  -35.5015   24.4169 C   0  0  0  0  0  0  0  0  0  0  0  0
  -33.6618  -18.8400   16.4460 C   0  0  0  0  0  0  0  0  0  0  0  0
  -35.0277  -18.7563   17.0681 C   0  0  0  0  0  0  0  0  0  0  0  0
  -27.4843  -22.0120   21.6502 C   0  0  0  0  0  0  0  0  0  0  0  0
  -28.4353  -24.1559   20.7040 C   0  0  0  0  0  0  0  0  0  0  0  0
  -28.4647  -11.2596   19.8248 C   0  0  0  0  0  0  0  0  0  0  0  0
  -26.3570  -22.8051   22.3043 C   0  0  0  0  0  0  0  0  0  0  0  0
  -27.3057  -24.9432   21.3613 C   0  0  0  0  0  0  0  0  0  0  0  0
  -30.5570  -12.4159   20.6597 C   0  0  0  0  0  0  0  0  0  0  0  0
  -28.3943  -13.5861   20.8093 C   0  0  0  0  0  0  0  0  0  0  0  0
  -25.3142  -34.9262   24.9682 C   0  0  1  0  0  0  0  0  0  0  0  0
  -25.6436  -31.3345   23.7807 C   0  0  1  0  0  0  0  0  0  0  0  0
  -28.0123  -22.7138   20.3912 C   0  0  0  0  0  0  0  0  0  0  0  0
  -33.8250  -18.2684   17.8271 C   0  0  0  0  0  0  0  0  0  0  0  0
  -27.7582  -12.6289   19.7882 C   0  0  2  0  0  0  0  0  0  0  0  0
  -26.7802  -24.2393   22.6106 C   0  0  0  0  0  0  0  0  0  1  0  0
  -34.1955  -18.7299   20.2776 C   0  0  0  0  0  0  0  0  0  0  0  0
  -21.8632  -30.6113   16.8734 C   0  0  0  0  0  0  0  0  0  0  0  0
  -21.2667  -31.0171   23.4574 C   0  0  0  0  0  0  0  0  0  0  0  0
  -20.2054  -30.5969   21.2292 C   0  0  0  0  0  0  0  0  0  0  0  0
  -21.2270  -32.8184   21.7230 C   0  0  0  0  0  0  0  0  0  0  0  0
  -25.5462  -29.7893   17.3595 C   0  0  0  0  0  0  0  0  0  0  0  0
  -29.1749  -21.9304   19.7846 C   0  0  0  0  0  0  0  0  0  0  0  0
  -33.3149  -19.0466   19.0544 C   0  0  2  0  0  0  0  0  0  0  0  0
  -22.7290  -30.8214   21.3386 C   0  0  1  0  0  0  0  0  0  0  0  0
  -23.2082  -30.6393   17.5827 C   0  0  2  0  0  0  0  0  0  0  0  0
  -21.3793  -31.2979   21.9457 C   0  0  0  0  0  0  0  0  0  0  0  0
  -25.7613  -12.5899   21.2347 N   0  0  0  0  0  0  0  0  0  0  0  0
  -31.5056  -17.5387   19.6139 N   0  0  0  0  0  0  0  0  0  0  0  0
  -26.2605  -12.4944   19.9906 N   0  0  0  0  0  0  0  0  0  0  0  0
  -24.4419  -30.7864   23.1291 N   0  0  0  0  0  0  0  0  0  0  0  0
  -29.8415  -13.6902   20.5652 N   0  0  0  0  0  0  0  0  0  0  0  0
  -25.6435  -12.1601   17.7283 N   0  0  0  0  0  0  0  0  0  0  0  0
  -22.3590  -10.7106   18.9555 N   0  0  0  0  0  0  0  0  0  0  0  0
  -29.7655  -16.0141   20.1701 N   0  0  0  0  0  0  0  0  0  0  0  0
  -25.6580  -33.7012   24.2786 N   0  0  0  0  0  0  0  0  0  0  0  0
  -22.8745  -31.0989   19.9137 N   0  0  0  0  0  0  0  0  0  0  0  0
  -24.1751  -29.8295   16.7889 N   0  3  0  0  0  0  0  0  0  0  0  0
  -22.1258  -12.9740   18.6705 O   0  0  0  0  0  0  0  0  0  0  0  0
  -24.3705  -32.2361   25.5506 O   0  0  0  0  0  0  0  0  0  0  0  0
  -24.3703  -32.5144   21.5736 O   0  0  0  0  0  0  0  0  0  0  0  0
  -23.1989  -28.8984   19.2580 O   0  0  0  0  0  0  0  0  0  0  0  0
  -31.7758  -14.8597   20.0807 O   0  0  0  0  0  0  0  0  0  0  0  0
  -20.9525  -12.5756   25.4092 O   0  0  0  0  0  0  0  0  0  0  0  0
  -25.6549  -24.9461   23.1208 O   0  0  0  0  0  0  0  0  0  1  0  0
  -28.7170  -20.6330   19.4527 O   0  0  0  0  0  0  0  0  0  0  0  0
  -15.5713  -13.1577   24.3563 F   0  0  0  0  0  0  0  0  0  0  0  0
  -19.5397  -14.7369   26.3970 F   0  0  0  0  0  0  0  0  0  0  0  0
  1  2  1  0  0  0  0
  1  5  2  0  0  0  0
  2  6  2  0  0  0  0
  3  8  2  0  0  0  0
  3 17  1  0  0  0  0
  4  9  1  0  0  0  0
  4 17  2  0  0  0  0
  5 19  1  0  0  0  0
  6 21  1  0  0  0  0
  7 10  2  0  0  0  0
  7 20  1  0  0  0  0
  8 23  1  0  0  0  0
  9 23  2  0  0  0  0
 10 24  1  0  0  0  0
 11 12  2  0  0  0  0
 11 25  1  0  0  0  0
 12 27  1  0  0  0  0
 13 22  1  0  0  0  0
 13 24  2  0  0  0  0
 14 26  2  0  0  0  0
 14 30  1  0  0  0  0
 15 26  1  0  0  0  0
 15 31  2  0  0  0  0
 16 27  2  0  0  0  0
 16 28  1  0  0  0  0
 17 29  1  0  0  0  0
 18 29  1  0  0  0  0
 18 32  2  0  0  0  0
 18 33  1  0  0  0  0
 19 21  2  0  0  0  0
 19 38  1  0  0  0  0
 20 22  2  0  0  0  0
 20 39  1  0  0  0  0
 21 53  1  0  0  0  0
 22 40  1  0  0  0  0
 23 86  1  0  0  0  0
 24 87  1  0  0  0  0
 25 28  2  0  0  0  0
 25 86  1  0  0  0  0
 26 88  1  0  0  0  0
 27 89  1  0  0  0  0
 28 90  1  0  0  0  0
 29 70  2  0  0  0  0
 30 66  1  0  0  0  0
 30 71  2  0  0  0  0
 31 71  1  0  0  0  0
 31 77  1  0  0  0  0
 32 72  1  0  0  0  0
 32 75  1  0  0  0  0
 33 76  1  0  0  0  0
 33 81  2  0  0  0  0
 34 54  1  0  0  0  0
 34 78  1  0  0  0  0
 34 82  2  0  0  0  0
 35 67  1  0  0  0  0
 35 73  1  0  0  0  0
 35 83  2  0  0  0  0
 36 68  1  0  0  0  0
 36 79  1  0  0  0  0
 36 84  2  0  0  0  0
 37 74  1  0  0  0  0
 37 77  1  0  0  0  0
 37 85  2  0  0  0  0
 38 41  1  0  0  0  0
 39 54  1  0  0  0  0
 40 73  1  0  0  0  0
 41 43  1  0  0  0  0
 42 48  1  0  0  0  0
 42 51  1  0  0  0  0
 43 53  1  0  0  0  0
 44 45  1  0  0  0  0
 44 56  1  0  0  0  0
 45 56  1  0  0  0  0
 46 49  1  0  0  0  0
 46 55  1  0  0  0  0
 47 50  1  0  0  0  0
 47 55  1  0  0  0  0
 48 57  1  0  0  0  0
 49 58  1  0  0  0  0
 50 58  1  0  0  0  0
 51 74  1  0  0  0  0
 52 57  1  0  0  0  0
 52 74  1  0  0  0  0
 53 78  1  0  0  0  0
 54 73  1  0  0  0  0
 55 65  1  0  0  0  0
 56 66  1  0  0  0  0
 57 72  1  0  0  0  0
 58 87  1  0  0  0  0
 59 66  1  0  0  0  0
 60 68  1  0  0  0  0
 61 69  1  0  0  0  0
 62 69  1  0  0  0  0
 63 69  1  0  0  0  0
 64 80  1  0  0  0  0
 65 88  1  0  0  0  0
 67 69  1  0  0  0  0
 67 79  1  0  0  0  0
 68 80  1  0  0  0  0
 70 72  1  0  0  0  0
M  CHG  1  80   1
M  ISO  4  37 100  58 101  77 100  87 101
M  END
> <Batch ID>
0143

> <Smiles>
CNC(C)C(=O)NC(C(=O)N1Cc2cc([101O:1][101CH:1]3CCC(COc4cc([100NH:0][100C:0](=O)N5CCCC(n6nc(-c7ccc(Oc8ccc(F)cc8F)cc7)c(C(N)=O)c6N)C5)nc(C(C)C5CC5)c4)CC3)ccc2CC1C(=O)NC1CCCc2ccccc21)C(C)(C)C

> <Shape>
0.263

> <Color>
0.081

> <Negative vol penalty>
0.000

$$$$

  -OEChem-04052321213D

 85 94  0     1  0  0  0  0  0999 V2000
  -28.9178  -33.2129   23.1648 C   0  0  0  0  0  0  0  0  0  0  0  0
  -28.8364  -31.8714   22.8055 C   0  0  0  0  0  0  0  0  0  0  0  0
  -22.3042  -16.1311   20.3833 C   0  0  0  0  0  0  0  0  0  0  0  0
  -23.1352  -15.9834   18.1195 C   0  0  0  0  0  0  0  0  0  0  0  0
  -27.8459  -33.8263   23.8119 C   0  0  0  0  0  0  0  0  0  0  0  0
  -27.6833  -31.1422   23.0940 C   0  0  0  0  0  0  0  0  0  0  0  0
  -26.1652  -28.2859   19.1975 C   0  0  0  0  0  0  0  0  0  0  0  0
  -21.3353  -17.0445   19.9681 C   0  0  0  0  0  0  0  0  0  0  0  0
  -22.1662  -16.8968   17.7043 C   0  0  0  0  0  0  0  0  0  0  0  0
  -26.8543  -27.0945   18.9749 C   0  0  0  0  0  0  0  0  0  0  0  0
  -18.4129  -19.1406   19.4377 C   0  0  0  0  0  0  0  0  0  0  0  0
  -17.1108  -18.9618   19.9046 C   0  0  0  0  0  0  0  0  0  0  0  0
  -25.0894  -25.8748   20.0778 C   0  0  0  0  0  0  0  0  0  0  0  0
  -28.0036  -21.7765   20.4277 C   0  0  0  0  0  0  0  0  0  0  0  0
  -27.3665  -21.8615   18.0988 C   0  0  0  0  0  0  0  0  0  0  0  0
  -17.0380  -16.7814   18.8663 C   0  0  0  0  0  0  0  0  0  0  0  0
  -23.2042  -15.6005   19.4590 C   0  0  0  0  0  0  0  0  0  0  0  0
  -24.0878  -13.2554   19.9354 C   0  0  0  0  0  0  0  0  0  0  0  0
  -26.6754  -33.1068   24.0999 C   0  0  0  0  0  0  0  0  0  0  0  0
  -24.9362  -28.2819   19.8728 C   0  0  0  0  0  0  0  0  0  0  0  0
  -26.5953  -31.7462   23.7467 C   0  0  0  0  0  0  0  0  0  0  0  0
  -24.3855  -27.0672   20.3055 C   0  0  0  0  0  0  0  0  0  0  0  0
  -28.9319  -20.1872   18.8627 C   0  0  0  0  0  0  0  0  0  0  0  0
  -27.2695  -22.3629   19.3968 C   0  0  0  0  0  0  0  0  0  0  0  0
  -28.8348  -20.6886   20.1607 C   0  0  0  0  0  0  0  0  0  0  0  0
  -28.1977  -20.7736   17.8317 C   0  0  0  0  0  0  0  0  0  0  0  0
  -21.2663  -17.4274   18.6286 C   0  0  0  0  0  0  0  0  0  0  0  0
  -26.3178  -25.8890   19.4176 C   0  0  0  0  0  0  0  0  0  0  0  0
  -19.0276  -18.1398   18.6851 C   0  0  0  0  0  0  0  0  0  0  0  0
  -16.4233  -17.7822   19.6189 C   0  0  0  0  0  0  0  0  0  0  0  0
  -18.3402  -16.9602   18.3995 C   0  0  0  0  0  0  0  0  0  0  0  0
  -24.2057  -14.6574   19.8874 C   0  0  0  0  0  0  0  0  0  0  0  0
  -25.3031  -12.8246   20.4087 C   0  0  0  0  0  0  0  0  0  0  0  0
  -22.9790  -12.4173   19.5836 C   0  0  0  0  0  0  0  0  0  0  0  0
  -23.8603  -29.5526   22.5804 C   0  0  0  0  0  0  0  0  0  0  0  0
  -21.0161  -28.3909   21.5395 C   0  0  0  0  0  0  0  0  0  0  0  0
  -19.3424  -26.1331   19.6036 C   0  0  0  0  0  0  0  0  0  0  0  0
  -30.7282  -15.7325   20.1983 C   0  0  0  0  0  0  0  0  0  0  0  0
  -25.5613  -33.8004   24.8431 C   0  0  0  0  0  0  0  0  0  0  0  0
  -24.1926  -29.5726   20.0814 C   0  0  0  0  0  0  0  0  0  0  0  0
  -23.0596  -27.0065   21.0174 C   0  0  0  0  0  0  0  0  0  0  0  0
  -24.2298  -33.0567   24.7773 C   0  0  0  0  0  0  0  0  0  0  0  0
  -28.8250  -14.6250   23.2085 C   0  0  0  0  0  0  0  0  0  0  0  0
  -24.4327  -31.5725   25.0652 C   0  0  0  0  0  0  0  0  0  0  0  0
  -27.5143  -14.0597   22.6620 C   0  0  0  0  0  0  0  0  0  0  0  0
  -29.9630  -14.5357   22.2020 C   0  0  0  0  0  0  0  0  0  0  0  0
  -29.3688  -17.7399   19.3115 C   0  0  0  0  0  0  0  0  0  0  0  0
  -31.7327  -17.6165   18.9490 C   0  0  0  0  0  0  0  0  0  0  0  0
  -28.2532  -15.2081   20.5144 C   0  0  0  0  0  0  0  0  0  0  0  0
  -29.8325  -19.0078   18.5736 C   0  0  2  0  0  0  0  0  0  0  0  0
  -25.3518  -30.9284   24.0203 C   0  0  1  0  0  0  0  0  0  0  0  0
  -23.1951  -29.5080   21.2338 C   0  0  1  0  0  0  0  0  0  0  0  0
  -31.3216  -19.0881   18.9548 C   0  0  2  0  0  0  0  0  0  0  0  0
  -27.4712  -14.0317   21.1250 C   0  0  2  0  0  0  0  0  0  0  0  0
  -29.6095  -20.0780   21.2826 C   0  0  0  0  0  0  0  0  0  0  0  0
  -28.2840  -20.2555   16.4332 C   0  0  0  0  0  0  0  0  0  0  0  0
  -32.1554  -19.9268   17.9975 C   0  0  0  0  0  0  0  0  0  0  0  0
  -17.0215  -25.4031   18.9888 C   0  0  0  0  0  0  0  0  0  0  0  0
  -20.7492  -26.9800   24.2317 C   0  0  0  0  0  0  0  0  0  0  0  0
  -18.9557  -25.5513   23.2266 C   0  0  0  0  0  0  0  0  0  0  0  0
  -18.6384  -28.0205   23.3855 C   0  0  0  0  0  0  0  0  0  0  0  0
  -19.7698  -26.7821   16.7479 C   0  0  0  0  0  0  0  0  0  0  0  0
  -26.3813  -23.5264   19.6823 C   0  0  0  0  0  0  0  0  0  1  0  0
  -20.2718  -27.0869   21.6966 C   0  0  1  0  0  0  0  0  0  0  0  0
  -18.1940  -26.3008   18.6251 C   0  0  2  0  0  0  0  0  0  0  0  0
  -19.6797  -26.9107   23.1234 C   0  0  0  0  0  0  0  0  0  0  0  0
  -25.4014  -15.0886   20.2976 N   0  0  0  0  0  0  0  0  0  0  0  0
  -26.0460  -13.9510   20.6080 N   0  0  0  0  0  0  0  0  0  0  0  0
  -22.3739  -28.2960   21.2032 N   0  0  0  0  0  0  0  0  0  0  0  0
  -29.6533  -15.2501   20.9583 N   0  0  0  0  0  0  0  0  0  0  0  0
  -30.5636  -16.9036   19.4580 N   0  0  0  0  0  0  0  0  0  0  0  0
  -25.7981  -11.5961   20.6697 N   0  0  0  0  0  0  0  0  0  0  0  0
  -21.8058  -13.0236   19.1142 N   0  0  0  0  0  0  0  0  0  0  0  0
  -24.6266  -30.6827   22.7922 N   0  0  0  0  0  0  0  0  0  0  0  0
  -19.2782  -27.0528   20.6289 N   0  0  0  0  0  0  0  0  0  0  0  0
  -18.6365  -25.9593   17.2436 N   0  3  0  0  0  0  0  0  0  0  0  0
  -23.0214  -11.1689   19.6980 O   0  0  0  0  0  0  0  0  0  0  0  0
  -23.6895  -28.6306   23.3695 O   0  0  0  0  0  0  0  0  0  0  0  0
  -20.4131  -29.4547   21.7020 O   0  0  0  0  0  0  0  0  0  0  0  0
  -20.2076  -25.2699   19.4736 O   0  0  0  0  0  0  0  0  0  0  0  0
  -31.8194  -15.1434   20.2129 O   0  0  0  0  0  0  0  0  0  0  0  0
  -20.3208  -18.3185   18.2231 O   0  0  0  0  0  0  0  0  0  0  0  0
  -26.9932  -24.7168   19.2007 O   0  0  0  0  0  0  0  0  0  1  0  0
  -15.1733  -17.6100   20.0685 F   0  0  0  0  0  0  0  0  0  0  0  0
  -18.9259  -15.9948   17.6779 F   0  0  0  0  0  0  0  0  0  0  0  0
  1  2  1  0  0  0  0
  1  5  2  0  0  0  0
  2  6  2  0  0  0  0
  3  8  2  0  0  0  0
  3 17  1  0  0  0  0
  4  9  1  0  0  0  0
  4 17  2  0  0  0  0
  5 19  1  0  0  0  0
  6 21  1  0  0  0  0
  7 10  2  0  0  0  0
  7 20  1  0  0  0  0
  8 27  1  0  0  0  0
  9 27  2  0  0  0  0
 10 28  1  0  0  0  0
 11 12  2  0  0  0  0
 11 29  1  0  0  0  0
 12 30  1  0  0  0  0
 13 22  1  0  0  0  0
 13 28  2  0  0  0  0
 14 24  1  0  0  0  0
 14 25  2  0  0  0  0
 15 24  2  0  0  0  0
 15 26  1  0  0  0  0
 16 30  2  0  0  0  0
 16 31  1  0  0  0  0
 17 32  1  0  0  0  0
 18 32  1  0  0  0  0
 18 33  2  0  0  0  0
 18 34  1  0  0  0  0
 19 21  2  0  0  0  0
 19 39  1  0  0  0  0
 20 22  2  0  0  0  0
 20 40  1  0  0  0  0
 21 51  1  0  0  0  0
 22 41  1  0  0  0  0
 23 25  1  0  0  0  0
 23 26  2  0  0  0  0
 23 50  1  0  0  0  0
 24 63  1  0  0  0  0
 25 55  1  0  0  0  0
 26 56  1  0  0  0  0
 27 82  1  0  0  0  0
 28 83  1  0  0  0  0
 29 31  2  0  0  0  0
 29 82  1  0  0  0  0
 30 84  1  0  0  0  0
 31 85  1  0  0  0  0
 32 67  2  0  0  0  0
 33 68  1  0  0  0  0
 33 72  1  0  0  0  0
 34 73  1  0  0  0  0
 34 77  2  0  0  0  0
 35 52  1  0  0  0  0
 35 74  1  0  0  0  0
 35 78  2  0  0  0  0
 36 64  1  0  0  0  0
 36 69  1  0  0  0  0
 36 79  2  0  0  0  0
 37 65  1  0  0  0  0
 37 75  1  0  0  0  0
 37 80  2  0  0  0  0
 38 70  1  0  0  0  0
 38 71  1  0  0  0  0
 38 81  2  0  0  0  0
 39 42  1  0  0  0  0
 40 52  1  0  0  0  0
 41 69  1  0  0  0  0
 42 44  1  0  0  0  0
 43 45  1  0  0  0  0
 43 46  1  0  0  0  0
 44 51  1  0  0  0  0
 45 54  1  0  0  0  0
 46 70  1  0  0  0  0
 47 50  1  0  0  0  0
 47 71  1  0  0  0  0
 48 53  1  0  0  0  0
 48 71  1  0  0  0  0
 49 54  1  0  0  0  0
 49 70  1  0  0  0  0
 50 53  1  0  0  0  0
 51 74  1  0  0  0  0
 52 69  1  0  0  0  0
 53 57  1  0  0  0  0
 54 68  1  0  0  0  0
 58 65  1  0  0  0  0
 59 66  1  0  0  0  0
 60 66  1  0  0  0  0
 61 66  1  0  0  0  0
 62 76  1  0  0  0  0
 63 83  1  0  0  0  0
 64 66  1  0  0  0  0
 64 75  1  0  0  0  0
 65 76  1  0  0  0  0
 67 68  1  0  0  0  0
M  CHG  1  76   1
M  ISO  4  38 100  63 101  71 100  83 101
M  END
> <Batch ID>
0143

> <Smiles>
CNC(C)C(=O)NC(C(=O)N1Cc2cc([101O:1][101CH2:1]c3cc(C)c(C4C[100N:0]([100C:0](=O)N5CCCC(n6nc(-c7ccc(Oc8ccc(F)cc8F)cc7)c(C(N)=O)c6N)C5)CC4C)c(C)c3)ccc2CC1C(=O)NC1CCCc2ccccc21)C(C)(C)C

> <Shape>
0.254

> <Color>
0.079

> <Negative vol penalty>
0.000

$$$$

  -OEChem-04052321213D

 91101  0     1  0  0  0  0  0999 V2000
  -18.1890  -31.8168   24.6141 C   0  0  0  0  0  0  0  0  0  0  0  0
  -18.6269  -30.5202   24.3639 C   0  0  0  0  0  0  0  0  0  0  0  0
  -22.9771  -10.5029   20.8123 C   0  0  0  0  0  0  0  0  0  0  0  0
  -24.6684   -8.8492   21.3043 C   0  0  0  0  0  0  0  0  0  0  0  0
  -18.5907  -32.8599   23.7807 C   0  0  0  0  0  0  0  0  0  0  0  0
  -19.4658  -30.2658   23.2796 C   0  0  0  0  0  0  0  0  0  0  0  0
  -23.3172  -27.2043   24.4793 C   0  0  0  0  0  0  0  0  0  0  0  0
  -22.1500   -9.9474   21.7885 C   0  0  0  0  0  0  0  0  0  0  0  0
  -23.8413   -8.2937   22.2805 C   0  0  0  0  0  0  0  0  0  0  0  0
  -23.0408  -25.8413   24.5760 C   0  0  0  0  0  0  0  0  0  0  0  0
  -22.0323   -6.2177   24.6527 C   0  0  0  0  0  0  0  0  0  0  0  0
  -21.9132   -4.8284   24.6876 C   0  0  0  0  0  0  0  0  0  0  0  0
  -23.9478  -25.5067   22.3659 C   0  0  0  0  0  0  0  0  0  0  0  0
  -27.7909  -17.6635   20.4858 C   0  0  0  0  0  0  0  0  0  0  0  0
  -21.0412   -4.8466   22.4345 C   0  0  0  0  0  0  0  0  0  0  0  0
  -24.2363   -9.9538   20.5702 C   0  0  0  0  0  0  0  0  0  0  0  0
  -24.8157  -10.6553   18.1869 C   0  0  0  0  0  0  0  0  0  0  0  0
  -19.4428  -32.6197   22.6913 C   0  0  0  0  0  0  0  0  0  0  0  0
  -23.9020  -27.7315   23.3189 C   0  0  0  0  0  0  0  0  0  0  0  0
  -19.8782  -31.3064   22.4301 C   0  0  0  0  0  0  0  0  0  0  0  0
  -24.2330  -26.8764   22.2580 C   0  0  0  0  0  0  0  0  0  0  0  0
  -28.9690  -19.7595   20.5407 C   0  0  0  0  0  0  0  0  0  0  0  0
  -22.5821   -8.8429   22.5226 C   0  0  0  0  0  0  0  0  0  0  0  0
  -23.3534  -24.9927   23.5181 C   0  0  0  0  0  0  0  0  0  0  0  0
  -21.6558   -6.9215   23.5088 C   0  0  0  0  0  0  0  0  0  0  0  0
  -27.7752  -19.0492   20.5994 C   0  0  0  0  0  0  0  0  0  0  0  0
  -21.4177   -4.1428   23.5785 C   0  0  0  0  0  0  0  0  0  0  0  0
  -21.1603   -6.2359   22.3997 C   0  0  0  0  0  0  0  0  0  0  0  0
  -25.0909  -10.5268   19.5615 C   0  0  0  0  0  0  0  0  0  0  0  0
  -30.1423  -19.0429   20.3686 C   0  0  0  0  0  0  0  0  0  0  0  0
  -29.0169  -17.0407   20.3160 C   0  0  0  0  0  0  0  0  0  0  0  0
  -25.9351  -11.2583   17.6675 C   0  0  0  0  0  0  0  0  0  0  0  0
  -23.6522  -10.2645   17.4458 C   0  0  0  0  0  0  0  0  0  0  0  0
  -23.0142  -29.8526   21.1243 C   0  0  0  0  0  0  0  0  0  0  0  0
  -26.0396  -29.4146   20.0393 C   0  0  0  0  0  0  0  0  0  0  0  0
  -28.7885  -27.4004   19.8558 C   0  0  0  0  0  0  0  0  0  0  0  0
  -30.1305  -14.7996   20.0260 C   0  0  0  0  0  0  0  0  0  0  0  0
  -19.8120  -33.7717   21.7906 C   0  0  0  0  0  0  0  0  0  0  0  0
  -24.2183  -29.1999   23.2409 C   0  0  0  0  0  0  0  0  0  0  0  0
  -24.8804  -27.3893   20.9985 C   0  0  0  0  0  0  0  0  0  0  0  0
  -21.0039  -33.4779   20.8834 C   0  0  0  0  0  0  0  0  0  0  0  0
  -30.6488  -11.6724   18.4046 C   0  0  0  0  0  0  0  0  0  0  0  0
  -28.1322  -22.0604   19.7162 C   0  0  0  0  0  0  0  0  0  0  0  0
  -29.6219  -22.0647   19.5721 C   0  0  0  0  0  0  0  0  0  0  0  0
  -20.8504  -32.1097   20.2266 C   0  0  0  0  0  0  0  0  0  0  0  0
  -25.4828  -20.7995   23.1959 C   0  0  0  0  0  0  0  0  0  0  0  0
  -23.9757  -20.9330   21.1694 C   0  0  0  0  0  0  0  0  0  0  0  0
  -29.2562  -11.0381   18.3867 C   0  0  0  0  0  0  0  0  0  0  0  0
  -24.6283  -21.8518   23.8961 C   0  0  0  0  0  0  0  0  0  0  0  0
  -23.1257  -21.9854   21.8750 C   0  0  0  0  0  0  0  0  0  0  0  0
  -30.8969  -12.4598   19.6900 C   0  0  0  0  0  0  0  0  0  0  0  0
  -28.4799  -12.8273   19.9940 C   0  0  0  0  0  0  0  0  0  0  0  0
  -28.9776  -21.2468   20.6600 C   0  0  0  0  0  0  0  0  0  0  0  0
  -20.8089  -30.9945   21.2783 C   0  0  1  0  0  0  0  0  0  0  0  0
  -24.3443  -29.7087   21.8082 C   0  0  1  0  0  0  0  0  0  0  0  0
  -24.6664  -19.9984   22.1722 C   0  0  0  0  0  0  0  0  0  0  0  0
  -28.1595  -12.0776   18.6906 C   0  0  2  0  0  0  0  0  0  0  0  0
  -23.9406  -22.7770   22.8958 C   0  0  0  0  0  0  0  0  0  1  0  0
  -32.1587  -19.5489   18.9432 C   0  0  0  0  0  0  0  0  0  0  0  0
  -32.4017  -19.3466   21.4442 C   0  0  0  0  0  0  0  0  0  0  0  0
  -31.0929  -27.2978   18.8677 C   0  0  0  0  0  0  0  0  0  0  0  0
  -24.8362  -28.8058   17.3023 C   0  0  0  0  0  0  0  0  0  0  0  0
  -27.0331  -27.8068   16.6360 C   0  0  0  0  0  0  0  0  0  0  0  0
  -26.8966  -30.2221   17.2444 C   0  0  0  0  0  0  0  0  0  0  0  0
  -30.0513  -27.2186   22.5262 C   0  0  0  0  0  0  0  0  0  0  0  0
  -25.5536  -18.9891   21.4459 C   0  0  0  0  0  0  0  0  0  0  0  0
  -31.4563  -19.7502   20.2982 C   0  0  0  0  0  0  0  0  0  0  0  0
  -26.6983  -28.4736   19.0597 C   0  0  1  0  0  0  0  0  0  0  0  0
  -30.2625  -27.6848   20.0815 C   0  0  2  0  0  0  0  0  0  0  0  0
  -26.3521  -28.8174   17.5834 C   0  0  0  0  0  0  0  0  0  0  0  0
  -26.2911  -11.0093   19.8944 N   0  0  0  0  0  0  0  0  0  0  0  0
  -30.1972  -17.6970   20.2543 N   0  0  0  0  0  0  0  0  0  0  0  0
  -26.7800  -11.4467   18.7215 N   0  0  0  0  0  0  0  0  0  0  0  0
  -25.1641  -28.8336   20.9677 N   0  0  0  0  0  0  0  0  0  0  0  0
  -29.8204  -13.4280   19.9104 N   0  0  0  0  0  0  0  0  0  0  0  0
  -26.2693  -11.6404   16.4166 N   0  0  0  0  0  0  0  0  0  0  0  0
  -23.6115   -8.9757   16.8966 N   0  0  0  0  0  0  0  0  0  0  0  0
  -29.0227  -15.6284   20.2010 N   0  0  0  0  0  0  0  0  0  0  0  0
  -22.1413  -30.7101   21.7664 N   0  0  0  0  0  0  0  0  0  0  0  0
  -28.1253  -28.5036   19.3613 N   0  0  0  0  0  0  0  0  0  0  0  0
  -30.7637  -26.9188   21.2575 N   0  3  0  0  0  0  0  0  0  0  0  0
  -22.6844  -11.0411   17.2617 O   0  0  0  0  0  0  0  0  0  0  0  0
  -22.7964  -29.2327   20.0899 O   0  0  0  0  0  0  0  0  0  0  0  0
  -26.2980  -30.6196   19.9875 O   0  0  0  0  0  0  0  0  0  0  0  0
  -28.2773  -26.3077   20.0909 O   0  0  0  0  0  0  0  0  0  0  0  0
  -31.2906  -15.2117   19.9464 O   0  0  0  0  0  0  0  0  0  0  0  0
  -21.7754   -8.3007   23.4754 O   0  0  0  0  0  0  0  0  0  0  0  0
  -23.0841  -23.6619   23.6096 O   0  0  0  0  0  0  0  0  0  1  0  0
  -26.5755  -19.6958   20.7683 O   0  0  0  0  0  0  0  0  0  0  0  0
  -21.3048   -2.8085   23.6116 F   0  0  0  0  0  0  0  0  0  0  0  0
  -20.7980   -6.9064   21.2974 F   0  0  0  0  0  0  0  0  0  0  0  0
  1  2  1  0  0  0  0
  1  5  2  0  0  0  0
  2  6  2  0  0  0  0
  3  8  2  0  0  0  0
  3 16  1  0  0  0  0
  4  9  1  0  0  0  0
  4 16  2  0  0  0  0
  5 18  1  0  0  0  0
  6 20  1  0  0  0  0
  7 10  2  0  0  0  0
  7 19  1  0  0  0  0
  8 23  1  0  0  0  0
  9 23  2  0  0  0  0
 10 24  1  0  0  0  0
 11 12  2  0  0  0  0
 11 25  1  0  0  0  0
 12 27  1  0  0  0  0
 13 21  1  0  0  0  0
 13 24  2  0  0  0  0
 14 26  1  0  0  0  0
 14 31  2  0  0  0  0
 15 27  2  0  0  0  0
 15 28  1  0  0  0  0
 16 29  1  0  0  0  0
 17 29  1  0  0  0  0
 17 32  2  0  0  0  0
 17 33  1  0  0  0  0
 18 20  2  0  0  0  0
 18 38  1  0  0  0  0
 19 21  2  0  0  0  0
 19 39  1  0  0  0  0
 20 54  1  0  0  0  0
 21 40  1  0  0  0  0
 22 26  2  0  0  0  0
 22 30  1  0  0  0  0
 22 53  1  0  0  0  0
 23 87  1  0  0  0  0
 24 88  1  0  0  0  0
 25 28  2  0  0  0  0
 25 87  1  0  0  0  0
 26 89  1  0  0  0  0
 27 90  1  0  0  0  0
 28 91  1  0  0  0  0
 29 71  2  0  0  0  0
 30 67  1  0  0  0  0
 30 72  2  0  0  0  0
 31 72  1  0  0  0  0
 31 78  1  0  0  0  0
 32 73  1  0  0  0  0
 32 76  1  0  0  0  0
 33 77  1  0  0  0  0
 33 82  2  0  0  0  0
 34 55  1  0  0  0  0
 34 79  1  0  0  0  0
 34 83  2  0  0  0  0
 35 68  1  0  0  0  0
 35 74  1  0  0  0  0
 35 84  2  0  0  0  0
 36 69  1  0  0  0  0
 36 80  1  0  0  0  0
 36 85  2  0  0  0  0
 37 75  1  0  0  0  0
 37 78  1  0  0  0  0
 37 86  2  0  0  0  0
 38 41  1  0  0  0  0
 39 55  1  0  0  0  0
 40 74  1  0  0  0  0
 41 45  1  0  0  0  0
 42 48  1  0  0  0  0
 42 51  1  0  0  0  0
 43 44  1  0  0  0  0
 43 53  1  0  0  0  0
 44 53  1  0  0  0  0
 45 54  1  0  0  0  0
 46 49  1  0  0  0  0
 46 56  1  0  0  0  0
 47 50  1  0  0  0  0
 47 56  1  0  0  0  0
 48 57  1  0  0  0  0
 49 58  1  0  0  0  0
 50 58  1  0  0  0  0
 51 75  1  0  0  0  0
 52 57  1  0  0  0  0
 52 75  1  0  0  0  0
 54 79  1  0  0  0  0
 55 74  1  0  0  0  0
 56 66  1  0  0  0  0
 57 73  1  0  0  0  0
 58 88  1  0  0  0  0
 59 67  1  0  0  0  0
 60 67  1  0  0  0  0
 61 69  1  0  0  0  0
 62 70  1  0  0  0  0
 63 70  1  0  0  0  0
 64 70  1  0  0  0  0
 65 81  1  0  0  0  0
 66 89  1  0  0  0  0
 68 70  1  0  0  0  0
 68 80  1  0  0  0  0
 69 81  1  0  0  0  0
 71 73  1  0  0  0  0
M  CHG  1  81   1
M  ISO  4  37 100  58 101  78 100  88 101
M  END
> <Batch ID>
0143

> <Smiles>
CNC(C)C(=O)NC(C(=O)N1Cc2cc([101O:1][101CH:1]3CCC(COc4cc([100NH:0][100C:0](=O)N5CCCC(n6nc(-c7ccc(Oc8ccc(F)cc8F)cc7)c(C(N)=O)c6N)C5)nc(C(C)C)c4C4CC4)CC3)ccc2CC1C(=O)NC1CCCc2ccccc21)C(C)(C)C

> <Shape>
0.275

> <Color>
0.093

> <Negative vol penalty>
0.000

$$$$

  -OEChem-04052321213D

 89 98  0     1  0  0  0  0  0999 V2000
  -19.7417  -34.3663   23.2574 C   0  0  0  0  0  0  0  0  0  0  0  0
  -21.0753  -34.0862   22.9775 C   0  0  0  0  0  0  0  0  0  0  0  0
  -25.3313  -12.9140   22.1161 C   0  0  0  0  0  0  0  0  0  0  0  0
  -26.2868  -13.2196   19.9182 C   0  0  0  0  0  0  0  0  0  0  0  0
  -18.8972  -33.3524   23.7076 C   0  0  0  0  0  0  0  0  0  0  0  0
  -21.5656  -32.7921   23.1487 C   0  0  0  0  0  0  0  0  0  0  0  0
  -25.8286  -29.9919   19.7588 C   0  0  0  0  0  0  0  0  0  0  0  0
  -24.4250  -11.9913   21.5939 C   0  0  0  0  0  0  0  0  0  0  0  0
  -25.3805  -12.2968   19.3959 C   0  0  0  0  0  0  0  0  0  0  0  0
  -27.1958  -29.7944   19.9467 C   0  0  0  0  0  0  0  0  0  0  0  0
  -24.4392   -8.7428   20.6559 C   0  0  0  0  0  0  0  0  0  0  0  0
  -24.2411   -7.5571   21.3633 C   0  0  0  0  0  0  0  0  0  0  0  0
  -26.7481  -27.6081   20.8625 C   0  0  0  0  0  0  0  0  0  0  0  0
  -30.4496  -25.8838   19.9902 C   0  0  0  0  0  0  0  0  0  0  0  0
  -21.8995   -8.0970   21.6127 C   0  0  0  0  0  0  0  0  0  0  0  0
  -26.2622  -13.5283   21.2783 C   0  0  0  0  0  0  0  0  0  0  0  0
  -28.4792  -14.2154   22.3366 C   0  0  0  0  0  0  0  0  0  0  0  0
  -19.3750  -32.0430   23.8751 C   0  0  0  0  0  0  0  0  0  0  0  0
  -24.9085  -29.0016   20.1320 C   0  0  0  0  0  0  0  0  0  0  0  0
  -20.7270  -31.7599   23.6028 C   0  0  0  0  0  0  0  0  0  0  0  0
  -25.3699  -27.7944   20.6758 C   0  0  0  0  0  0  0  0  0  0  0  0
  -30.9495  -26.8674   19.1441 C   0  0  0  0  0  0  0  0  0  0  0  0
  -30.2462  -24.5962   19.5064 C   0  0  0  0  0  0  0  0  0  0  0  0
  -24.4496  -11.6827   20.2338 C   0  0  0  0  0  0  0  0  0  0  0  0
  -27.6556  -28.6036   20.5013 C   0  0  0  0  0  0  0  0  0  0  0  0
  -23.3674   -9.6057   20.4270 C   0  0  0  0  0  0  0  0  0  0  0  0
  -22.9713   -7.2341   21.8417 C   0  0  0  0  0  0  0  0  0  0  0  0
  -22.0976   -9.2828   20.9054 C   0  0  0  0  0  0  0  0  0  0  0  0
  -27.1983  -14.4819   21.8171 C   0  0  0  0  0  0  0  0  0  0  0  0
  -31.2278  -26.5152   17.8333 C   0  0  0  0  0  0  0  0  0  0  0  0
  -30.5557  -24.3457   18.1793 C   0  0  0  0  0  0  0  0  0  0  0  0
  -28.9589  -15.4455   22.7153 C   0  0  0  0  0  0  0  0  0  0  0  0
  -29.1734  -12.9676   22.4654 C   0  0  0  0  0  0  0  0  0  0  0  0
  -22.5089  -28.8379   22.2101 C   0  0  0  0  0  0  0  0  0  0  0  0
  -22.0282  -25.9405   20.8329 C   0  0  0  0  0  0  0  0  0  0  0  0
  -23.3273  -23.3101   19.0893 C   0  0  0  0  0  0  0  0  0  0  0  0
  -27.7395  -20.8992   20.8110 C   0  0  0  0  0  0  0  0  0  0  0  0
  -18.4360  -30.9905   24.4092 C   0  0  0  0  0  0  0  0  0  0  0  0
  -23.4387  -29.2192   19.8979 C   0  0  0  0  0  0  0  0  0  0  0  0
  -24.4246  -26.6916   21.0744 C   0  0  0  0  0  0  0  0  0  0  0  0
  -18.9411  -29.5643   24.2063 C   0  0  0  0  0  0  0  0  0  0  0  0
  -27.4791  -19.7381   24.2288 C   0  0  0  0  0  0  0  0  0  0  0  0
  -20.4066  -29.4537   24.6149 C   0  0  0  0  0  0  0  0  0  0  0  0
  -27.5004  -18.2206   24.0370 C   0  0  0  0  0  0  0  0  0  0  0  0
  -29.3122  -21.5093   15.9062 C   0  0  0  0  0  0  0  0  0  0  0  0
  -26.7009  -20.4258   23.1109 C   0  0  0  0  0  0  0  0  0  0  0  0
  -27.2070  -18.5923   21.5439 C   0  0  0  0  0  0  0  0  0  0  0  0
  -21.2899  -30.3632   23.7523 C   0  0  1  0  0  0  0  0  0  0  0  0
  -22.5567  -28.3506   20.7895 C   0  0  1  0  0  0  0  0  0  0  0  0
  -28.5971  -22.8295   15.8323 C   0  0  1  0  0  0  0  0  0  0  0  0
  -27.9981  -17.8406   22.6299 C   0  0  2  0  0  0  0  0  0  0  0  0
  -30.0222  -22.7721   16.3179 C   0  0  1  0  0  0  0  0  0  0  0  0
  -31.7668  -27.5309   16.8799 C   0  0  0  0  0  0  0  0  0  0  0  0
  -22.7006  -21.0718   18.1435 C   0  0  0  0  0  0  0  0  0  0  0  0
  -27.0466  -22.7831   13.8581 C   0  0  0  0  0  0  0  0  0  0  0  0
  -28.0490  -24.9565   14.6164 C   0  0  0  0  0  0  0  0  0  0  0  0
  -22.1255  -24.7328   23.6332 C   0  0  0  0  0  0  0  0  0  0  0  0
  -22.4509  -22.4862   22.5774 C   0  0  0  0  0  0  0  0  0  0  0  0
  -20.3591  -23.7745   22.1446 C   0  0  0  0  0  0  0  0  0  0  0  0
  -23.9466  -24.1742   16.3272 C   0  0  0  0  0  0  0  0  0  0  0  0
  -31.1726  -28.2670   19.6633 C   0  0  0  0  0  0  0  0  0  0  0  0
  -29.7100  -23.5438   20.4163 C   0  0  0  0  0  0  0  0  0  0  0  0
  -28.2163  -23.2603   20.2154 C   0  0  0  0  0  0  0  0  0  0  0  0
  -29.8738  -29.0583   19.7741 C   0  0  0  0  0  0  0  0  0  1  0  0
  -22.5260  -24.5388   21.0900 C   0  0  1  0  0  0  0  0  0  0  0  0
  -22.8216  -22.5626   17.8687 C   0  0  2  0  0  0  0  0  0  0  0  0
  -28.2800  -23.4371   14.5098 C   0  0  0  0  0  0  0  0  0  0  0  0
  -21.8833  -23.9044   22.3557 C   0  0  0  0  0  0  0  0  0  0  0  0
  -26.8840  -15.7794   21.8603 N   0  0  0  0  0  0  0  0  0  0  0  0
  -31.0431  -25.2753   17.3273 N   0  0  0  0  0  0  0  0  0  0  0  0
  -27.9743  -16.3391   22.4116 N   0  0  0  0  0  0  0  0  0  0  0  0
  -22.9965  -26.9545   20.8316 N   0  0  0  0  0  0  0  0  0  0  0  0
  -27.2364  -20.0363   21.7988 N   0  0  0  0  0  0  0  0  0  0  0  0
  -30.1226  -15.8390   23.2751 N   0  0  0  0  0  0  0  0  0  0  0  0
  -28.5352  -11.7995   22.0264 N   0  0  0  0  0  0  0  0  0  0  0  0
  -30.3497  -23.0348   17.6812 N   0  0  0  0  0  0  0  0  0  0  0  0
  -21.5141  -29.7656   22.4534 N   0  0  0  0  0  0  0  0  0  0  0  0
  -22.2898  -23.7897   19.8606 N   0  0  0  0  0  0  0  0  0  0  0  0
  -27.7257  -22.2519   21.1283 N   0  0  0  0  0  0  0  0  0  0  0  0
  -23.7526  -22.7549   16.7210 N   0  3  0  0  0  0  0  0  0  0  0  0
  -30.3190  -12.8885   22.9704 O   0  0  0  0  0  0  0  0  0  0  0  0
  -23.3138  -28.4032   23.0254 O   0  0  0  0  0  0  0  0  0  0  0  0
  -20.8254  -26.1280   20.6331 O   0  0  0  0  0  0  0  0  0  0  0  0
  -24.5230  -23.4511   19.3360 O   0  0  0  0  0  0  0  0  0  0  0  0
  -28.1743  -20.4935   19.7277 O   0  0  0  0  0  0  0  0  0  0  0  0
  -23.5655  -10.7821   19.7239 O   0  0  0  0  0  0  0  0  0  0  0  0
  -28.9896  -28.4086   20.6865 O   0  0  0  0  0  0  0  0  0  1  0  0
  -22.7809   -6.0947   22.5196 F   0  0  0  0  0  0  0  0  0  0  0  0
  -21.0638  -10.1072   20.6876 F   0  0  0  0  0  0  0  0  0  0  0  0
  1  2  1  0  0  0  0
  1  5  2  0  0  0  0
  2  6  2  0  0  0  0
  3  8  2  0  0  0  0
  3 16  1  0  0  0  0
  4  9  1  0  0  0  0
  4 16  2  0  0  0  0
  5 18  1  0  0  0  0
  6 20  1  0  0  0  0
  7 10  2  0  0  0  0
  7 19  1  0  0  0  0
  8 24  1  0  0  0  0
  9 24  2  0  0  0  0
 10 25  1  0  0  0  0
 11 12  2  0  0  0  0
 11 26  1  0  0  0  0
 12 27  1  0  0  0  0
 13 21  1  0  0  0  0
 13 25  2  0  0  0  0
 14 22  1  0  0  0  0
 14 23  2  0  0  0  0
 15 27  2  0  0  0  0
 15 28  1  0  0  0  0
 16 29  1  0  0  0  0
 17 29  1  0  0  0  0
 17 32  2  0  0  0  0
 17 33  1  0  0  0  0
 18 20  2  0  0  0  0
 18 38  1  0  0  0  0
 19 21  2  0  0  0  0
 19 39  1  0  0  0  0
 20 48  1  0  0  0  0
 21 40  1  0  0  0  0
 22 30  2  0  0  0  0
 22 61  1  0  0  0  0
 23 31  1  0  0  0  0
 23 62  1  0  0  0  0
 24 86  1  0  0  0  0
 25 87  1  0  0  0  0
 26 28  2  0  0  0  0
 26 86  1  0  0  0  0
 27 88  1  0  0  0  0
 28 89  1  0  0  0  0
 29 69  2  0  0  0  0
 30 53  1  0  0  0  0
 30 70  1  0  0  0  0
 31 70  2  0  0  0  0
 31 76  1  0  0  0  0
 32 71  1  0  0  0  0
 32 74  1  0  0  0  0
 33 75  1  0  0  0  0
 33 81  2  0  0  0  0
 34 49  1  0  0  0  0
 34 77  1  0  0  0  0
 34 82  2  0  0  0  0
 35 65  1  0  0  0  0
 35 72  1  0  0  0  0
 35 83  2  0  0  0  0
 36 66  1  0  0  0  0
 36 78  1  0  0  0  0
 36 84  2  0  0  0  0
 37 73  1  0  0  0  0
 37 79  1  0  0  0  0
 37 85  2  0  0  0  0
 38 41  1  0  0  0  0
 39 49  1  0  0  0  0
 40 72  1  0  0  0  0
 41 43  1  0  0  0  0
 42 44  1  0  0  0  0
 42 46  1  0  0  0  0
 43 48  1  0  0  0  0
 44 51  1  0  0  0  0
 45 50  1  0  0  0  0
 45 52  1  0  0  0  0
 46 73  1  0  0  0  0
 47 51  1  0  0  0  0
 47 73  1  0  0  0  0
 48 77  1  0  0  0  0
 49 72  1  0  0  0  0
 50 52  1  0  0  0  0
 50 67  1  0  0  0  0
 51 71  1  0  0  0  0
 52 76  1  0  0  0  0
 54 66  1  0  0  0  0
 55 67  1  0  0  0  0
 56 67  1  0  0  0  0
 57 68  1  0  0  0  0
 58 68  1  0  0  0  0
 59 68  1  0  0  0  0
 60 80  1  0  0  0  0
 61 64  1  0  0  0  0
 62 63  1  0  0  0  0
 63 79  1  0  0  0  0
 64 87  1  0  0  0  0
 65 68  1  0  0  0  0
 65 78  1  0  0  0  0
 66 80  1  0  0  0  0
 69 71  1  0  0  0  0
M  CHG  1  80   1
M  ISO  4  37 100  64 101  79 100  87 101
M  END
> <Batch ID>
0143

> <Smiles>
CNC(C)C(=O)NC(C(=O)N1Cc2cc([101O:1][101CH2:1]Cc3cc(CC[100NH:0][100C:0](=O)N4CCCC(n5nc(-c6ccc(Oc7ccc(F)cc7F)cc6)c(C(N)=O)c5N)C4)c(NC4CC4C(C)C)nc3C)ccc2CC1C(=O)NC1CCCc2ccccc21)C(C)(C)C

> <Shape>
0.247

> <Color>
0.077

> <Negative vol penalty>
0.000

$$$$

  -OEChem-04052321213D

 89 99  0     1  0  0  0  0  0999 V2000
  -17.8121  -28.4141   23.3811 C   0  0  0  0  0  0  0  0  0  0  0  0
  -18.0832  -27.1299   22.9197 C   0  0  0  0  0  0  0  0  0  0  0  0
  -30.6324  -19.5141   19.2301 C   0  0  0  0  0  0  0  0  0  0  0  0
  -28.7745  -19.7506   20.7563 C   0  0  0  0  0  0  0  0  0  0  0  0
  -18.7707  -29.4179   23.2490 C   0  0  0  0  0  0  0  0  0  0  0  0
  -19.3127  -26.8491   22.3249 C   0  0  0  0  0  0  0  0  0  0  0  0
  -21.3760  -22.4528   24.0300 C   0  0  0  0  0  0  0  0  0  0  0  0
  -30.3694  -20.7827   18.7133 C   0  0  0  0  0  0  0  0  0  0  0  0
  -28.5115  -21.0192   20.2395 C   0  0  0  0  0  0  0  0  0  0  0  0
  -20.8818  -21.2501   23.5269 C   0  0  0  0  0  0  0  0  0  0  0  0
  -30.4099  -24.1060   17.2405 C   0  0  0  0  0  0  0  0  0  0  0  0
  -31.4926  -24.9625   17.0418 C   0  0  0  0  0  0  0  0  0  0  0  0
  -19.8027  -17.6145   20.0434 C   0  0  0  0  0  0  0  0  0  0  0  0
  -22.7203  -21.1535   21.9684 C   0  0  0  0  0  0  0  0  0  0  0  0
  -21.7701  -16.3345   20.6000 C   0  0  0  0  0  0  0  0  0  0  0  0
  -32.0098  -24.8556   19.3994 C   0  0  0  0  0  0  0  0  0  0  0  0
  -29.8349  -18.9980   20.2516 C   0  0  0  0  0  0  0  0  0  0  0  0
  -30.9512  -17.3671   21.8646 C   0  0  0  0  0  0  0  0  0  0  0  0
  -20.0162  -29.1468   22.6610 C   0  0  0  0  0  0  0  0  0  0  0  0
  -22.5425  -23.0216   23.4984 C   0  0  0  0  0  0  0  0  0  0  0  0
  -20.2884  -27.8505   22.1836 C   0  0  0  0  0  0  0  0  0  0  0  0
  -19.1354  -16.4453   19.6489 C   0  0  0  0  0  0  0  0  0  0  0  0
  -23.2298  -22.3610   22.4699 C   0  0  0  0  0  0  0  0  0  0  0  0
  -19.8022  -15.2075   19.7225 C   0  0  0  0  0  0  0  0  0  0  0  0
  -21.1109  -17.5577   20.5221 C   0  0  0  0  0  0  0  0  0  0  0  0
  -21.1215  -15.1666   20.2002 C   0  0  0  0  0  0  0  0  0  0  0  0
  -29.3090  -21.5353   19.2180 C   0  0  0  0  0  0  0  0  0  0  0  0
  -21.5527  -20.6015   22.4944 C   0  0  0  0  0  0  0  0  0  0  0  0
  -30.1270  -23.6243   18.5186 C   0  0  0  0  0  0  0  0  0  0  0  0
  -32.2926  -25.3374   18.1212 C   0  0  0  0  0  0  0  0  0  0  0  0
  -30.9270  -23.9991   19.5981 C   0  0  0  0  0  0  0  0  0  0  0  0
  -30.1058  -17.6874   20.7854 C   0  0  0  0  0  0  0  0  0  0  0  0
  -30.8658  -16.0006   21.9737 C   0  0  0  0  0  0  0  0  0  0  0  0
  -31.7427  -18.2278   22.6942 C   0  0  0  0  0  0  0  0  0  0  0  0
  -23.3283  -25.7556   22.0311 C   0  0  0  0  0  0  0  0  0  0  0  0
  -26.3660  -24.4393   22.3356 C   0  0  0  0  0  0  0  0  0  0  0  0
  -27.7057  -27.4677   21.5147 C   0  0  0  0  0  0  0  0  0  0  0  0
  -26.6617  -12.0390   20.3984 C   0  0  0  0  0  0  0  0  0  0  0  0
  -21.0028  -30.2758   22.4973 C   0  0  0  0  0  0  0  0  0  0  0  0
  -23.0758  -24.3047   24.0761 C   0  0  0  0  0  0  0  0  0  0  0  0
  -17.7405  -16.5490   19.0839 C   0  0  0  0  0  0  0  0  0  0  0  0
  -24.4873  -22.9280   21.8683 C   0  0  0  0  0  0  0  0  0  0  0  0
  -22.4228  -29.8047   22.1941 C   0  0  0  0  0  0  0  0  0  0  0  0
  -30.0654  -12.0777   19.3544 C   0  0  0  0  0  0  0  0  0  0  0  0
  -22.4097  -28.7360   21.1058 C   0  0  0  0  0  0  0  0  0  0  0  0
  -18.2450  -11.6576   20.2400 C   0  0  0  0  0  0  0  0  0  0  0  0
  -19.6699  -11.7989   20.6976 C   0  0  0  0  0  0  0  0  0  0  0  0
  -30.5380  -13.4909   19.7001 C   0  0  0  0  0  0  0  0  0  0  0  0
  -28.6153  -12.0688   18.8756 C   0  0  0  0  0  0  0  0  0  0  0  0
  -28.1297  -14.1301   20.1363 C   0  0  0  0  0  0  0  0  0  0  0  0
  -16.9728  -15.2370   19.1354 C   0  0  0  0  0  0  0  0  0  0  0  0
  -21.6198  -27.5008   21.5551 C   0  0  1  0  0  0  0  0  0  0  0  0
  -19.1153  -13.9271   19.3020 C   0  0  1  0  0  0  0  0  0  0  0  0
  -24.0379  -25.0396   23.1451 C   0  0  1  0  0  0  0  0  0  0  0  0
  -18.8242  -13.0067   20.4890 C   0  0  0  0  0  0  0  0  0  0  0  0
  -29.5687  -14.1829   20.6773 C   0  0  2  0  0  0  0  0  0  0  0  0
  -29.8948  -28.6901   21.4102 C   0  0  0  0  0  0  0  0  0  0  0  0
  -26.3316  -24.7535   25.3697 C   0  0  0  0  0  0  0  0  0  0  0  0
  -27.8986  -26.6897   25.1162 C   0  0  0  0  0  0  0  0  0  0  0  0
  -28.6036  -24.4124   24.3816 C   0  0  0  0  0  0  0  0  0  0  0  0
  -27.4633  -27.8895   18.5954 C   0  0  0  0  0  0  0  0  0  0  0  0
  -21.8106  -18.8168   20.9439 C   0  0  0  0  0  0  0  0  0  1  0  0
  -23.4536  -12.3781   21.1923 C   0  0  0  0  0  0  0  0  0  0  0  0
  -23.0766  -13.8482   21.0124 C   0  0  0  0  0  0  0  0  0  0  0  0
  -24.7474  -12.1587   21.9733 C   0  0  0  0  0  0  0  0  0  0  0  0
  -26.8865  -25.6767   23.0232 C   0  0  1  0  0  0  0  0  0  0  0  0
  -28.8915  -27.8421   20.6440 C   0  0  2  0  0  0  0  0  0  0  0  0
  -27.4050  -25.3830   24.4593 C   0  0  0  0  0  0  0  0  0  0  0  0
  -29.5261  -16.6110   20.2474 N   0  0  0  0  0  0  0  0  0  0  0  0
  -30.0082  -15.6010   20.9914 N   0  0  0  0  0  0  0  0  0  0  0  0
  -25.0117  -24.1343   22.5218 N   0  0  0  0  0  0  0  0  0  0  0  0
  -27.7481  -12.7387   19.8478 N   0  0  0  0  0  0  0  0  0  0  0  0
  -31.4416  -15.1138   22.8132 N   0  0  0  0  0  0  0  0  0  0  0  0
  -31.7146  -19.6067   22.4451 N   0  0  0  0  0  0  0  0  0  0  0  0
  -21.8873  -13.9794   20.2329 N   0  0  0  0  0  0  0  0  0  0  0  0
  -22.4117  -26.6963   22.4607 N   0  0  0  0  0  0  0  0  0  0  0  0
  -27.8895  -26.2481   22.1311 N   0  0  0  0  0  0  0  0  0  0  0  0
  -25.8944  -12.7453   21.3166 N   0  0  0  0  0  0  0  0  0  0  0  0
  -17.8265  -14.1611   18.5515 N   0  3  0  0  0  0  0  0  0  0  0  0
  -28.4364  -28.6137   19.4530 N   0  3  0  0  0  0  0  0  0  0  0  0
  -32.4667  -17.7855   23.6182 O   0  0  0  0  0  0  0  0  0  0  0  0
  -23.5937  -25.4765   20.8677 O   0  0  0  0  0  0  0  0  0  0  0  0
  -27.1386  -23.7561   21.6577 O   0  0  0  0  0  0  0  0  0  0  0  0
  -26.7169  -28.1871   21.6388 O   0  0  0  0  0  0  0  0  0  0  0  0
  -26.3984  -10.8695   20.0982 O   0  0  0  0  0  0  0  0  0  0  0  0
  -29.0522  -22.7733   18.7141 O   0  0  0  0  0  0  0  0  0  0  0  0
  -21.0728  -19.4272   22.0019 O   0  0  0  0  0  0  0  0  0  1  0  0
  -33.3333  -26.1587   17.9300 F   0  0  0  0  0  0  0  0  0  0  0  0
  -30.6609  -23.5386   20.8281 F   0  0  0  0  0  0  0  0  0  0  0  0
  1  2  1  0  0  0  0
  1  5  2  0  0  0  0
  2  6  2  0  0  0  0
  3  8  2  0  0  0  0
  3 17  1  0  0  0  0
  4  9  1  0  0  0  0
  4 17  2  0  0  0  0
  5 19  1  0  0  0  0
  6 21  1  0  0  0  0
  7 10  2  0  0  0  0
  7 20  1  0  0  0  0
  8 27  1  0  0  0  0
  9 27  2  0  0  0  0
 10 28  1  0  0  0  0
 11 12  2  0  0  0  0
 11 29  1  0  0  0  0
 12 30  1  0  0  0  0
 13 22  2  0  0  0  0
 13 25  1  0  0  0  0
 14 23  1  0  0  0  0
 14 28  2  0  0  0  0
 15 25  2  0  0  0  0
 15 26  1  0  0  0  0
 16 30  2  0  0  0  0
 16 31  1  0  0  0  0
 17 32  1  0  0  0  0
 18 32  1  0  0  0  0
 18 33  2  0  0  0  0
 18 34  1  0  0  0  0
 19 21  2  0  0  0  0
 19 39  1  0  0  0  0
 20 23  2  0  0  0  0
 20 40  1  0  0  0  0
 21 52  1  0  0  0  0
 22 24  1  0  0  0  0
 22 41  1  0  0  0  0
 23 42  1  0  0  0  0
 24 26  2  0  0  0  0
 24 53  1  0  0  0  0
 25 62  1  0  0  0  0
 26 75  1  0  0  0  0
 27 86  1  0  0  0  0
 28 87  1  0  0  0  0
 29 31  2  0  0  0  0
 29 86  1  0  0  0  0
 30 88  1  0  0  0  0
 31 89  1  0  0  0  0
 32 69  2  0  0  0  0
 33 70  1  0  0  0  0
 33 73  1  0  0  0  0
 34 74  1  0  0  0  0
 34 81  2  0  0  0  0
 35 54  1  0  0  0  0
 35 76  1  0  0  0  0
 35 82  2  0  0  0  0
 36 66  1  0  0  0  0
 36 71  1  0  0  0  0
 36 83  2  0  0  0  0
 37 67  1  0  0  0  0
 37 77  1  0  0  0  0
 37 84  2  0  0  0  0
 38 72  1  0  0  0  0
 38 78  1  0  0  0  0
 38 85  2  0  0  0  0
 39 43  1  0  0  0  0
 40 54  1  0  0  0  0
 41 51  1  0  0  0  0
 42 71  1  0  0  0  0
 43 45  1  0  0  0  0
 44 48  1  0  0  0  0
 44 49  1  0  0  0  0
 45 52  1  0  0  0  0
 46 47  1  0  0  0  0
 46 55  1  0  0  0  0
 47 55  1  0  0  0  0
 48 56  1  0  0  0  0
 49 72  1  0  0  0  0
 50 56  1  0  0  0  0
 50 72  1  0  0  0  0
 51 79  1  0  0  0  0
 52 76  1  0  0  0  0
 53 55  1  0  0  0  0
 53 79  1  0  0  0  0
 54 71  1  0  0  0  0
 56 70  1  0  0  0  0
 57 67  1  0  0  0  0
 58 68  1  0  0  0  0
 59 68  1  0  0  0  0
 60 68  1  0  0  0  0
 61 80  1  0  0  0  0
 62 87  1  0  0  0  0
 63 64  1  0  0  0  0
 63 65  1  0  0  0  0
 64 75  1  0  0  0  0
 65 78  1  0  0  0  0
 66 68  1  0  0  0  0
 66 77  1  0  0  0  0
 67 80  1  0  0  0  0
 69 70  1  0  0  0  0
M  CHG  2  79   1  80   1
M  ISO  4  38 100  62 101  78 100  87 101
M  END
> <Batch ID>
0143

> <Smiles>
CNC(C)C(=O)NC(C(=O)N1Cc2cc([101O:1][101CH2:1]c3cc4c(c(NCCC[100NH:0][100C:0](=O)N5CCCC(n6nc(-c7ccc(Oc8ccc(F)cc8F)cc7)c(C(N)=O)c6N)C5)c3)C(C3CC3)NCC4)ccc2CC1C(=O)NC1CCCc2ccccc21)C(C)(C)C

> <Shape>
0.243

> <Color>
0.054

> <Negative vol penalty>
0.000

$$$$

  -OEChem-04052321213D

 86 95  0     1  0  0  0  0  0999 V2000
  -30.9297  -15.3951   15.4564 C   0  0  0  0  0  0  0  0  0  0  0  0
  -31.1783  -16.7605   15.3593 C   0  0  0  0  0  0  0  0  0  0  0  0
  -23.8115  -30.5616   19.9858 C   0  0  0  0  0  0  0  0  0  0  0  0
  -23.1261  -17.6557   19.6115 C   0  0  0  0  0  0  0  0  0  0  0  0
  -21.3219  -17.5359   21.2139 C   0  0  0  0  0  0  0  0  0  0  0  0
  -29.8997  -14.9317   16.2739 C   0  0  0  0  0  0  0  0  0  0  0  0
  -30.3963  -17.6633   16.0788 C   0  0  0  0  0  0  0  0  0  0  0  0
  -30.8137  -23.9890   19.4146 C   0  0  0  0  0  0  0  0  0  0  0  0
  -23.3206  -30.2052   21.2418 C   0  0  0  0  0  0  0  0  0  0  0  0
  -25.1049  -30.1959   19.6129 C   0  0  0  0  0  0  0  0  0  0  0  0
  -23.2637  -16.2686   19.6627 C   0  0  0  0  0  0  0  0  0  0  0  0
  -21.4595  -16.1487   21.2651 C   0  0  0  0  0  0  0  0  0  0  0  0
  -30.1799  -25.2302   19.4532 C   0  0  0  0  0  0  0  0  0  0  0  0
  -24.3281  -12.7915   19.6436 C   0  0  0  0  0  0  0  0  0  0  0  0
  -25.6179  -12.2693   19.7399 C   0  0  0  0  0  0  0  0  0  0  0  0
  -28.4789  -24.3101   20.8950 C   0  0  0  0  0  0  0  0  0  0  0  0
  -25.9419  -13.4530   21.8210 C   0  0  0  0  0  0  0  0  0  0  0  0
  -22.1552  -18.2893   20.3872 C   0  0  0  0  0  0  0  0  0  0  0  0
  -21.1912  -20.4639   19.4656 C   0  0  0  0  0  0  0  0  0  0  0  0
  -29.1108  -15.8288   17.0112 C   0  0  0  0  0  0  0  0  0  0  0  0
  -30.2780  -22.8944   20.1083 C   0  0  0  0  0  0  0  0  0  0  0  0
  -29.3538  -17.2116   16.9058 C   0  0  0  0  0  0  0  0  0  0  0  0
  -29.1092  -23.0567   20.8657 C   0  0  0  0  0  0  0  0  0  0  0  0
  -25.4167  -29.1175   21.7523 C   0  0  0  0  0  0  0  0  0  0  0  0
  -22.4304  -15.5151   20.4894 C   0  0  0  0  0  0  0  0  0  0  0  0
  -29.0108  -25.3902   20.1911 C   0  0  0  0  0  0  0  0  0  0  0  0
  -24.1232  -29.4832   22.1251 C   0  0  0  0  0  0  0  0  0  0  0  0
  -25.9075  -29.4739   20.4962 C   0  0  0  0  0  0  0  0  0  0  0  0
  -23.8452  -13.6445   20.6360 C   0  0  0  0  0  0  0  0  0  0  0  0
  -26.4248  -12.6000   20.8285 C   0  0  0  0  0  0  0  0  0  0  0  0
  -24.6520  -13.9752   21.7247 C   0  0  0  0  0  0  0  0  0  0  0  0
  -22.0130  -19.7222   20.3352 C   0  0  0  0  0  0  0  0  0  0  0  0
  -21.4141  -21.7732   19.8158 C   0  0  0  0  0  0  0  0  0  0  0  0
  -20.3053  -20.0100   18.4337 C   0  0  0  0  0  0  0  0  0  0  0  0
  -29.1511  -20.0423   19.2719 C   0  0  0  0  0  0  0  0  0  0  0  0
  -29.0060  -19.5913   22.4810 C   0  0  0  0  0  0  0  0  0  0  0  0
  -28.7972  -20.9733   25.5944 C   0  0  0  0  0  0  0  0  0  0  0  0
  -21.9032  -25.6572   23.6397 C   0  0  0  0  0  0  0  0  0  0  0  0
  -27.9782  -15.2836   17.8447 C   0  0  0  0  0  0  0  0  0  0  0  0
  -30.9883  -21.5689   20.0782 C   0  0  0  0  0  0  0  0  0  0  0  0
  -28.5045  -21.9182   21.6446 C   0  0  0  0  0  0  0  0  0  0  0  0
  -27.4371  -16.2822   18.8647 C   0  0  0  0  0  0  0  0  0  0  0  0
  -24.9184  -23.8260   22.8319 C   0  0  0  0  0  0  0  0  0  0  0  0
  -26.5243  -28.8983   24.0759 C   0  0  0  0  0  0  0  0  0  0  0  0
  -27.6299  -28.8911   23.0671 C   0  0  0  0  0  0  0  0  0  0  0  0
  -27.2223  -17.6455   18.2150 C   0  0  0  0  0  0  0  0  0  0  0  0
  -24.3549  -22.6494   22.0331 C   0  0  0  0  0  0  0  0  0  0  0  0
  -23.9929  -24.2057   23.9841 C   0  0  0  0  0  0  0  0  0  0  0  0
  -22.0280  -23.3375   22.7763 C   0  0  0  0  0  0  0  0  0  0  0  0
  -26.2773  -28.3447   22.6988 C   0  0  0  0  0  0  0  0  0  0  0  0
  -28.5432  -18.2207   17.6898 C   0  0  1  0  0  0  0  0  0  0  0  0
  -30.0731  -20.3930   20.4053 C   0  0  1  0  0  0  0  0  0  0  0  0
  -22.9069  -22.9198   21.5832 C   0  0  2  0  0  0  0  0  0  0  0  0
  -28.6587  -20.3497   28.0212 C   0  0  0  0  0  0  0  0  0  0  0  0
  -26.0743  -18.8290   22.1154 C   0  0  0  0  0  0  0  0  0  0  0  0
  -25.7568  -19.1463   24.5784 C   0  0  0  0  0  0  0  0  0  0  0  0
  -27.3289  -17.4004   23.7400 C   0  0  0  0  0  0  0  0  0  0  0  0
  -31.3290  -22.3732   26.2181 C   0  0  0  0  0  0  0  0  0  0  0  0
  -21.9238  -27.9607   24.5621 C   0  0  0  0  0  0  0  0  0  0  0  0
  -22.2181  -28.9419   23.4416 C   0  0  0  0  0  0  0  0  0  0  0  0
  -28.5271  -27.4380   19.0828 C   0  0  0  0  0  0  0  0  0  1  0  0
  -27.2913  -28.3073   18.9535 C   0  0  0  0  0  0  0  0  0  0  0  0
  -27.9688  -19.8388   23.5496 C   0  0  1  0  0  0  0  0  0  0  0  0
  -29.5813  -20.7111   26.8675 C   0  0  2  0  0  0  0  0  0  0  0  0
  -26.7923  -18.8248   23.4797 C   0  0  0  0  0  0  0  0  0  0  0  0
  -22.7064  -20.4960   21.1746 N   0  0  0  0  0  0  0  0  0  0  0  0
  -22.3209  -21.7375   20.8340 N   0  0  0  0  0  0  0  0  0  0  0  0
  -29.2326  -20.6403   21.5786 N   0  0  0  0  0  0  0  0  0  0  0  0
  -22.6353  -24.4682   23.4861 N   0  0  0  0  0  0  0  0  0  0  0  0
  -20.9210  -22.9400   19.3490 N   0  0  0  0  0  0  0  0  0  0  0  0
  -20.1956  -18.6315   18.2059 N   0  0  0  0  0  0  0  0  0  0  0  0
  -29.3266  -18.7634   18.7790 N   0  0  0  0  0  0  0  0  0  0  0  0
  -28.6843  -19.8373   24.8210 N   0  0  0  0  0  0  0  0  0  0  0  0
  -22.5473  -26.6768   24.3299 N   0  0  0  0  0  0  0  0  0  0  0  0
  -30.3636  -21.9198   27.2522 N   0  3  0  0  0  0  0  0  0  0  0  0
  -19.6435  -20.8042   17.7232 O   0  0  0  0  0  0  0  0  0  0  0  0
  -28.3394  -20.8702   18.8751 O   0  0  0  0  0  0  0  0  0  0  0  0
  -29.5987  -18.5098   22.4524 O   0  0  0  0  0  0  0  0  0  0  0  0
  -28.3283  -22.0747   25.3157 O   0  0  0  0  0  0  0  0  0  0  0  0
  -20.7612  -25.8018   23.1901 O   0  0  0  0  0  0  0  0  0  0  0  0
  -22.5642  -14.1615   20.5394 O   0  0  0  0  0  0  0  0  0  0  0  0
  -28.3898  -26.6004   20.2299 O   0  0  0  0  0  0  0  0  0  1  0  0
  -23.6264  -29.1457   23.3482 O   0  0  0  0  0  0  0  0  0  0  0  0
  -27.1754  -29.1252   20.1115 O   0  0  0  0  0  0  0  0  0  0  0  0
  -27.6628  -12.0972   20.9216 F   0  0  0  0  0  0  0  0  0  0  0  0
  -24.1932  -14.7933   22.6818 F   0  0  0  0  0  0  0  0  0  0  0  0
  1  2  1  0  0  0  0
  1  6  2  0  0  0  0
  2  7  2  0  0  0  0
  3  9  1  0  0  0  0
  3 10  2  0  0  0  0
  4 11  2  0  0  0  0
  4 18  1  0  0  0  0
  5 12  1  0  0  0  0
  5 18  2  0  0  0  0
  6 20  1  0  0  0  0
  7 22  1  0  0  0  0
  8 13  2  0  0  0  0
  8 21  1  0  0  0  0
  9 27  2  0  0  0  0
 10 28  1  0  0  0  0
 11 25  1  0  0  0  0
 12 25  2  0  0  0  0
 13 26  1  0  0  0  0
 14 15  2  0  0  0  0
 14 29  1  0  0  0  0
 15 30  1  0  0  0  0
 16 23  1  0  0  0  0
 16 26  2  0  0  0  0
 17 30  2  0  0  0  0
 17 31  1  0  0  0  0
 18 32  1  0  0  0  0
 19 32  1  0  0  0  0
 19 33  2  0  0  0  0
 19 34  1  0  0  0  0
 20 22  2  0  0  0  0
 20 39  1  0  0  0  0
 21 23  2  0  0  0  0
 21 40  1  0  0  0  0
 22 51  1  0  0  0  0
 23 41  1  0  0  0  0
 24 27  1  0  0  0  0
 24 28  2  0  0  0  0
 24 50  1  0  0  0  0
 25 81  1  0  0  0  0
 26 82  1  0  0  0  0
 27 83  1  0  0  0  0
 28 84  1  0  0  0  0
 29 31  2  0  0  0  0
 29 81  1  0  0  0  0
 30 85  1  0  0  0  0
 31 86  1  0  0  0  0
 32 66  2  0  0  0  0
 33 67  1  0  0  0  0
 33 70  1  0  0  0  0
 34 71  1  0  0  0  0
 34 76  2  0  0  0  0
 35 52  1  0  0  0  0
 35 72  1  0  0  0  0
 35 77  2  0  0  0  0
 36 63  1  0  0  0  0
 36 68  1  0  0  0  0
 36 78  2  0  0  0  0
 37 64  1  0  0  0  0
 37 73  1  0  0  0  0
 37 79  2  0  0  0  0
 38 69  1  0  0  0  0
 38 74  1  0  0  0  0
 38 80  2  0  0  0  0
 39 42  1  0  0  0  0
 40 52  1  0  0  0  0
 41 68  1  0  0  0  0
 42 46  1  0  0  0  0
 43 47  1  0  0  0  0
 43 48  1  0  0  0  0
 44 45  1  0  0  0  0
 44 50  1  0  0  0  0
 45 50  1  0  0  0  0
 46 51  1  0  0  0  0
 47 53  1  0  0  0  0
 48 69  1  0  0  0  0
 49 53  1  0  0  0  0
 49 69  1  0  0  0  0
 51 72  1  0  0  0  0
 52 68  1  0  0  0  0
 53 67  1  0  0  0  0
 54 64  1  0  0  0  0
 55 65  1  0  0  0  0
 56 65  1  0  0  0  0
 57 65  1  0  0  0  0
 58 75  1  0  0  0  0
 59 60  1  0  0  0  0
 59 74  1  0  0  0  0
 60 83  1  0  0  0  0
 61 62  1  0  0  0  0
 61 82  1  0  0  0  0
 62 84  1  0  0  0  0
 63 65  1  0  0  0  0
 63 73  1  0  0  0  0
 64 75  1  0  0  0  0
 66 67  1  0  0  0  0
M  CHG  1  75   1
M  ISO  4  38 100  61 101  74 100  82 101
M  END
> <Batch ID>
0143

> <Smiles>
CNC(C)C(=O)NC(C(=O)N1Cc2cc([101O:1][101CH2:1]COc3cccc(OCC[100NH:0][100C:0](=O)N4CCCC(n5nc(-c6ccc(Oc7ccc(F)cc7F)cc6)c(C(N)=O)c5N)C4)c3C3CC3)ccc2CC1C(=O)NC1CCCc2ccccc21)C(C)(C)C

> <Shape>
0.177

> <Color>
0.085

> <Negative vol penalty>
0.000

$$$$

  -OEChem-04052321213D

 86 95  0     1  0  0  0  0  0999 V2000
  -26.5954  -32.7339   27.2152 C   0  0  0  0  0  0  0  0  0  0  0  0
  -26.8171  -31.3799   27.4455 C   0  0  0  0  0  0  0  0  0  0  0  0
  -24.2843  -15.1730   22.7150 C   0  0  0  0  0  0  0  0  0  0  0  0
  -23.3067  -15.4531   20.5234 C   0  0  0  0  0  0  0  0  0  0  0  0
  -26.1044  -33.1587   25.9814 C   0  0  0  0  0  0  0  0  0  0  0  0
  -26.5466  -30.4498   26.4424 C   0  0  0  0  0  0  0  0  0  0  0  0
  -29.6181  -25.2778   25.2923 C   0  0  0  0  0  0  0  0  0  0  0  0
  -23.6505  -16.3381   23.1466 C   0  0  0  0  0  0  0  0  0  0  0  0
  -22.6728  -16.6182   20.9551 C   0  0  0  0  0  0  0  0  0  0  0  0
  -29.3776  -23.9480   25.6352 C   0  0  0  0  0  0  0  0  0  0  0  0
  -22.5771  -19.4352   24.7214 C   0  0  0  0  0  0  0  0  0  0  0  0
  -23.3271  -20.3454   25.4661 C   0  0  0  0  0  0  0  0  0  0  0  0
  -28.3332  -23.5903   23.4903 C   0  0  0  0  0  0  0  0  0  0  0  0
  -31.1142  -18.9933   22.5684 C   0  0  0  0  0  0  0  0  0  0  0  0
  -24.8667  -20.5873   23.6199 C   0  0  0  0  0  0  0  0  0  0  0  0
  -29.0105  -18.9457   23.3696 C   0  0  0  0  0  0  0  0  0  0  0  0
  -24.1124  -14.7305   21.4033 C   0  0  0  0  0  0  0  0  0  0  0  0
  -24.2635  -12.2140   21.0134 C   0  0  0  0  0  0  0  0  0  0  0  0
  -25.8369  -32.2343   24.9594 C   0  0  0  0  0  0  0  0  0  0  0  0
  -29.2076  -25.7775   24.0481 C   0  0  0  0  0  0  0  0  0  0  0  0
  -26.0503  -30.8625   25.1942 C   0  0  0  0  0  0  0  0  0  0  0  0
  -28.5720  -24.9261   23.1331 C   0  0  0  0  0  0  0  0  0  0  0  0
  -29.7638  -18.7195   22.2389 C   0  0  0  0  0  0  0  0  0  0  0  0
  -22.8447  -17.0607   22.2667 C   0  0  0  0  0  0  0  0  0  0  0  0
  -28.7324  -23.1048   24.7353 C   0  0  0  0  0  0  0  0  0  0  0  0
  -22.9720  -19.1009   23.4260 C   0  0  0  0  0  0  0  0  0  0  0  0
  -24.4718  -20.9215   24.9154 C   0  0  0  0  0  0  0  0  0  0  0  0
  -24.1167  -19.6770   22.8753 C   0  0  0  0  0  0  0  0  0  0  0  0
  -24.7674  -13.5273   20.9567 C   0  0  0  0  0  0  0  0  0  0  0  0
  -31.1450  -19.3783   23.8907 C   0  0  0  0  0  0  0  0  0  0  0  0
  -25.2595  -11.4404   20.4693 C   0  0  0  0  0  0  0  0  0  0  0  0
  -23.0075  -11.7361   21.5130 C   0  0  0  0  0  0  0  0  0  0  0  0
  -27.1944  -28.0452   23.0950 C   0  0  0  0  0  0  0  0  0  0  0  0
  -28.3911  -27.3322   20.1655 C   0  0  0  0  0  0  0  0  0  0  0  0
  -29.9186  -25.0528   18.1362 C   0  0  0  0  0  0  0  0  0  0  0  0
  -28.8055  -15.4066   18.5629 C   0  0  0  0  0  0  0  0  0  0  0  0
  -25.2623  -32.7364   23.6584 C   0  0  0  0  0  0  0  0  0  0  0  0
  -29.4984  -27.2074   23.6828 C   0  0  0  0  0  0  0  0  0  0  0  0
  -28.1295  -25.4082   21.7765 C   0  0  0  0  0  0  0  0  0  0  0  0
  -25.3558  -31.7237   22.5201 C   0  0  0  0  0  0  0  0  0  0  0  0
  -29.9975  -12.2247   20.2914 C   0  0  0  0  0  0  0  0  0  0  0  0
  -24.8981  -30.3470   22.9914 C   0  0  0  0  0  0  0  0  0  0  0  0
  -28.6529  -11.5514   20.5370 C   0  0  0  0  0  0  0  0  0  0  0  0
  -29.8211  -13.7354   20.1864 C   0  0  0  0  0  0  0  0  0  0  0  0
  -29.2040  -16.7377   20.7336 C   0  0  0  0  0  0  0  0  0  0  0  0
  -29.5779  -17.7520   18.5918 C   0  0  0  0  0  0  0  0  0  0  0  0
  -28.0803  -13.0593   18.5292 C   0  0  0  0  0  0  0  0  0  0  0  0
  -29.2447  -18.2641   20.8961 C   0  0  2  0  0  0  0  0  0  0  0  0
  -25.7925  -29.8256   24.1226 C   0  0  1  0  0  0  0  0  0  0  0  0
  -28.5777  -27.7444   22.5914 C   0  0  1  0  0  0  0  0  0  0  0  0
  -30.0796  -18.7017   19.6780 C   0  0  2  0  0  0  0  0  0  0  0  0
  -27.5962  -11.9591   19.4926 C   0  0  2  0  0  0  0  0  0  0  0  0
  -32.2902  -19.7738   24.7364 C   0  0  0  0  0  0  0  0  0  0  0  0
  -30.7326  -24.7444   15.7826 C   0  0  0  0  0  0  0  0  0  0  0  0
  -30.6883  -20.5100   18.0462 C   0  0  0  0  0  0  0  0  0  0  0  0
  -28.4146  -20.4930   19.1111 C   0  0  0  0  0  0  0  0  0  0  0  0
  -25.5155  -26.9349   19.2256 C   0  0  0  0  0  0  0  0  0  0  0  0
  -26.4109  -25.7364   17.2181 C   0  0  0  0  0  0  0  0  0  0  0  0
  -26.9888  -28.1331   17.5983 C   0  0  0  0  0  0  0  0  0  0  0  0
  -32.7123  -24.6600   19.0307 C   0  0  0  0  0  0  0  0  0  0  0  0
  -29.4474  -19.6785   25.7131 C   0  0  0  0  0  0  0  0  0  0  0  0
  -29.4216  -21.1836   25.9560 C   0  0  0  0  0  0  0  0  0  1  0  0
  -28.0276  -26.3591   19.0701 C   0  0  1  0  0  0  0  0  0  0  0  0
  -31.1016  -25.1771   17.1930 C   0  0  2  0  0  0  0  0  0  0  0  0
  -29.8951  -20.1657   19.3073 C   0  0  0  0  0  0  0  0  0  0  0  0
  -26.7422  -26.7820   18.3043 C   0  0  0  0  0  0  0  0  0  0  0  0
  -25.9886  -13.5883   20.4192 N   0  0  0  0  0  0  0  0  0  0  0  0
  -29.8606  -19.3454   24.3675 N   0  0  0  0  0  0  0  0  0  0  0  0
  -26.2605  -12.3036   20.1332 N   0  0  0  0  0  0  0  0  0  0  0  0
  -28.4308  -26.8160   21.4685 N   0  0  0  0  0  0  0  0  0  0  0  0
  -28.8424  -14.1387   19.1681 N   0  0  0  0  0  0  0  0  0  0  0  0
  -29.2397  -16.5130   19.2880 N   0  0  0  0  0  0  0  0  0  0  0  0
  -25.3680  -10.1127   20.2504 N   0  0  0  0  0  0  0  0  0  0  0  0
  -22.0997  -12.6662   22.0377 N   0  0  0  0  0  0  0  0  0  0  0  0
  -27.0420  -29.3265   23.5896 N   0  0  0  0  0  0  0  0  0  0  0  0
  -29.2113  -26.2330   18.2267 N   0  0  0  0  0  0  0  0  0  0  0  0
  -32.2316  -24.3278   17.6648 N   0  3  0  0  0  0  0  0  0  0  0  0
  -22.7060  -10.5185   21.5099 O   0  0  0  0  0  0  0  0  0  0  0  0
  -26.3290  -27.1795   23.0377 O   0  0  0  0  0  0  0  0  0  0  0  0
  -28.6379  -28.5053   19.8749 O   0  0  0  0  0  0  0  0  0  0  0  0
  -29.6468  -24.0117   18.7302 O   0  0  0  0  0  0  0  0  0  0  0  0
  -28.3887  -15.5473   17.4035 O   0  0  0  0  0  0  0  0  0  0  0  0
  -22.2259  -18.1976   22.6877 O   0  0  0  0  0  0  0  0  0  0  0  0
  -28.4941  -21.7975   25.0700 O   0  0  0  0  0  0  0  0  0  1  0  0
  -25.1911  -21.7968   25.6300 F   0  0  0  0  0  0  0  0  0  0  0  0
  -24.5004  -19.3606   21.6309 F   0  0  0  0  0  0  0  0  0  0  0  0
  1  2  1  0  0  0  0
  1  5  2  0  0  0  0
  2  6  2  0  0  0  0
  3  8  2  0  0  0  0
  3 17  1  0  0  0  0
  4  9  1  0  0  0  0
  4 17  2  0  0  0  0
  5 19  1  0  0  0  0
  6 21  1  0  0  0  0
  7 10  2  0  0  0  0
  7 20  1  0  0  0  0
  8 24  1  0  0  0  0
  9 24  2  0  0  0  0
 10 25  1  0  0  0  0
 11 12  2  0  0  0  0
 11 26  1  0  0  0  0
 12 27  1  0  0  0  0
 13 22  1  0  0  0  0
 13 25  2  0  0  0  0
 14 23  1  0  0  0  0
 14 30  2  0  0  0  0
 15 27  2  0  0  0  0
 15 28  1  0  0  0  0
 16 23  2  0  0  0  0
 16 68  1  0  0  0  0
 17 29  1  0  0  0  0
 18 29  1  0  0  0  0
 18 31  2  0  0  0  0
 18 32  1  0  0  0  0
 19 21  2  0  0  0  0
 19 37  1  0  0  0  0
 20 22  2  0  0  0  0
 20 38  1  0  0  0  0
 21 49  1  0  0  0  0
 22 39  1  0  0  0  0
 23 48  1  0  0  0  0
 24 83  1  0  0  0  0
 25 84  1  0  0  0  0
 26 28  2  0  0  0  0
 26 83  1  0  0  0  0
 27 85  1  0  0  0  0
 28 86  1  0  0  0  0
 29 67  2  0  0  0  0
 30 53  1  0  0  0  0
 30 68  1  0  0  0  0
 31 69  1  0  0  0  0
 31 73  1  0  0  0  0
 32 74  1  0  0  0  0
 32 78  2  0  0  0  0
 33 50  1  0  0  0  0
 33 75  1  0  0  0  0
 33 79  2  0  0  0  0
 34 63  1  0  0  0  0
 34 70  1  0  0  0  0
 34 80  2  0  0  0  0
 35 64  1  0  0  0  0
 35 76  1  0  0  0  0
 35 81  2  0  0  0  0
 36 71  1  0  0  0  0
 36 72  1  0  0  0  0
 36 82  2  0  0  0  0
 37 40  1  0  0  0  0
 38 50  1  0  0  0  0
 39 70  1  0  0  0  0
 40 42  1  0  0  0  0
 41 43  1  0  0  0  0
 41 44  1  0  0  0  0
 42 49  1  0  0  0  0
 43 52  1  0  0  0  0
 44 71  1  0  0  0  0
 45 48  1  0  0  0  0
 45 72  1  0  0  0  0
 46 51  1  0  0  0  0
 46 72  1  0  0  0  0
 47 52  1  0  0  0  0
 47 71  1  0  0  0  0
 48 51  1  0  0  0  0
 49 75  1  0  0  0  0
 50 70  1  0  0  0  0
 51 65  1  0  0  0  0
 52 69  1  0  0  0  0
 54 64  1  0  0  0  0
 55 65  1  0  0  0  0
 56 65  1  0  0  0  0
 57 66  1  0  0  0  0
 58 66  1  0  0  0  0
 59 66  1  0  0  0  0
 60 77  1  0  0  0  0
 61 62  1  0  0  0  0
 61 68  1  0  0  0  0
 62 84  1  0  0  0  0
 63 66  1  0  0  0  0
 63 76  1  0  0  0  0
 64 77  1  0  0  0  0
 67 69  1  0  0  0  0
M  CHG  1  77   1
M  ISO  4  36 100  62 101  72 100  84 101
M  END
> <Batch ID>
0143

> <Smiles>
CNC(C)C(=O)NC(C(=O)N1Cc2cc([101O:1][101CH2:1]Cn3cc(C4C[100N:0]([100C:0](=O)N5CCCC(n6nc(-c7ccc(Oc8ccc(F)cc8F)cc7)c(C(N)=O)c6N)C5)CC4C(C)C)cc3C)ccc2CC1C(=O)NC1CCCc2ccccc21)C(C)(C)C

> <Shape>
0.244

> <Color>
0.065

> <Negative vol penalty>
0.000

$$$$

  -OEChem-04052321213D

 89 98  0     1  0  0  0  0  0999 V2000
  -29.8004  -12.4959   20.2210 C   0  0  0  0  0  0  0  0  0  0  0  0
  -29.7631  -13.7294   20.8632 C   0  0  0  0  0  0  0  0  0  0  0  0
  -29.4085  -23.3924   18.6291 C   0  0  0  0  0  0  0  0  0  0  0  0
  -27.5743  -23.0991   20.1741 C   0  0  0  0  0  0  0  0  0  0  0  0
  -28.8956  -12.2164   19.1977 C   0  0  0  0  0  0  0  0  0  0  0  0
  -28.8215  -14.6846   20.4818 C   0  0  0  0  0  0  0  0  0  0  0  0
  -24.8247  -19.9765   23.1905 C   0  0  0  0  0  0  0  0  0  0  0  0
  -29.7898  -22.0658   18.8300 C   0  0  0  0  0  0  0  0  0  0  0  0
  -27.9556  -21.7725   20.3749 C   0  0  0  0  0  0  0  0  0  0  0  0
  -24.5308  -21.3224   22.9759 C   0  0  0  0  0  0  0  0  0  0  0  0
  -30.3001  -20.0942   22.1405 C   0  0  0  0  0  0  0  0  0  0  0  0
  -30.3318  -19.6204   23.4520 C   0  0  0  0  0  0  0  0  0  0  0  0
  -22.9660  -20.6992   21.2490 C   0  0  0  0  0  0  0  0  0  0  0  0
  -28.6928  -17.9387   22.8841 C   0  0  0  0  0  0  0  0  0  0  0  0
  -28.3007  -23.9091   19.3013 C   0  0  0  0  0  0  0  0  0  0  0  0
  -27.5261  -25.8808   17.8800 C   0  0  0  0  0  0  0  0  0  0  0  0
  -27.9362  -13.1650   18.8101 C   0  0  0  0  0  0  0  0  0  0  0  0
  -24.1984  -18.9808   22.4271 C   0  0  0  0  0  0  0  0  0  0  0  0
  -27.9039  -14.4180   19.4514 C   0  0  0  0  0  0  0  0  0  0  0  0
  -23.2518  -19.3413   21.4576 C   0  0  0  0  0  0  0  0  0  0  0  0
  -22.0266  -27.5812   20.3142 C   0  0  0  0  0  0  0  0  0  0  0  0
  -21.5460  -25.5913   21.6142 C   0  0  0  0  0  0  0  0  0  0  0  0
  -21.4433  -26.9894   21.4493 C   0  0  0  0  0  0  0  0  0  0  0  0
  -29.0633  -21.2558   19.7028 C   0  0  0  0  0  0  0  0  0  0  0  0
  -23.6035  -21.6841   22.0031 C   0  0  0  0  0  0  0  0  0  0  0  0
  -29.4647  -19.4902   21.2008 C   0  0  0  0  0  0  0  0  0  0  0  0
  -29.5282  -18.5427   23.8239 C   0  0  0  0  0  0  0  0  0  0  0  0
  -28.6611  -18.4125   21.5726 C   0  0  0  0  0  0  0  0  0  0  0  0
  -27.9067  -25.2795   19.0947 C   0  0  0  0  0  0  0  0  0  0  0  0
  -22.7122  -26.7331   19.4246 C   0  0  0  0  0  0  0  0  0  0  0  0
  -22.2249  -24.8247   20.6827 C   0  0  0  0  0  0  0  0  0  0  0  0
  -27.2493  -27.1840   18.2138 C   0  0  0  0  0  0  0  0  0  0  0  0
  -27.4313  -25.3121   16.5672 C   0  0  0  0  0  0  0  0  0  0  0  0
  -25.1984  -16.7514   20.3940 C   0  0  0  0  0  0  0  0  0  0  0  0
  -22.0892  -15.8309   20.4811 C   0  0  0  0  0  0  0  0  0  0  0  0
  -18.8331  -16.6741   21.0585 C   0  0  0  0  0  0  0  0  0  0  0  0
  -24.9232  -30.1679   22.6270 C   0  0  0  0  0  0  0  0  0  0  0  0
  -27.0097  -12.8350   17.6667 C   0  0  0  0  0  0  0  0  0  0  0  0
  -24.5066  -17.5321   22.6892 C   0  0  0  0  0  0  0  0  0  0  0  0
  -22.5367  -18.3096   20.6253 C   0  0  0  0  0  0  0  0  0  0  0  0
  -25.7998  -13.7614   17.5763 C   0  0  0  0  0  0  0  0  0  0  0  0
  -28.4644  -30.1713   21.9488 C   0  0  0  0  0  0  0  0  0  0  0  0
  -26.2308  -15.2178   17.7174 C   0  0  0  0  0  0  0  0  0  0  0  0
  -28.6489  -28.9422   21.0597 C   0  0  0  0  0  0  0  0  0  0  0  0
  -21.9630  -29.6881   23.4629 C   0  0  0  0  0  0  0  0  0  0  0  0
  -27.3688  -29.9509   22.9869 C   0  0  0  0  0  0  0  0  0  0  0  0
  -21.7670  -28.1800   23.4976 C   0  0  0  0  0  0  0  0  0  0  0  0
  -26.2333  -28.3168   21.5046 C   0  0  0  0  0  0  0  0  0  0  0  0
  -21.9390  -29.0471   19.8908 C   0  0  2  0  0  0  0  0  0  0  0  0
  -26.8812  -15.4708   19.0829 C   0  0  1  0  0  0  0  0  0  0  0  0
  -24.1897  -16.6293   21.5008 C   0  0  1  0  0  0  0  0  0  0  0  0
  -21.7192  -30.2290   20.8965 C   0  0  2  0  0  0  0  0  0  0  0  0
  -27.3133  -28.5130   20.4268 C   0  0  2  0  0  0  0  0  0  0  0  0
  -22.5883  -30.2463   22.1794 C   0  0  2  0  0  0  0  0  0  0  0  0
  -20.9037  -24.8947   22.7770 C   0  0  0  0  0  0  0  0  0  0  0  0
  -23.3810  -27.1752   18.1692 C   0  0  0  0  0  0  0  0  0  0  0  0
  -20.9519  -29.1504   18.7073 C   0  0  0  0  0  0  0  0  0  0  0  0
  -20.2600  -30.6378   21.1483 C   0  0  0  0  0  0  0  0  0  0  0  0
  -16.5128  -15.7196   21.0106 C   0  0  0  0  0  0  0  0  0  0  0  0
  -22.0807  -16.0105   17.4352 C   0  0  0  0  0  0  0  0  0  0  0  0
  -19.5783  -15.9889   17.5104 C   0  0  0  0  0  0  0  0  0  0  0  0
  -20.8670  -14.0323   18.3669 C   0  0  0  0  0  0  0  0  0  0  0  0
  -19.4877  -27.3897   22.8543 C   0  0  0  0  0  0  0  0  0  0  0  0
  -18.4455  -17.1672   23.9508 C   0  0  0  0  0  0  0  0  0  0  0  0
  -22.3554  -23.3486   20.7824 C   0  0  0  0  0  0  0  0  0  1  0  0
  -20.8478  -16.1822   19.6971 C   0  0  1  0  0  0  0  0  0  0  0  0
  -17.7428  -15.9898   21.8631 C   0  0  2  0  0  0  0  0  0  0  0  0
  -20.8582  -15.5733   18.2666 C   0  0  0  0  0  0  0  0  0  0  0  0
  -27.8757  -26.1309   20.1234 N   0  0  0  0  0  0  0  0  0  0  0  0
  -27.4725  -27.2805   19.5559 N   0  0  0  0  0  0  0  0  0  0  0  0
  -22.7892  -25.4150   19.6296 N   0  3  0  0  0  0  0  0  0  0  0  0
  -20.8412  -27.7518   22.4522 N   0  0  2  0  0  0  0  0  0  0  0  0
  -22.8768  -16.9067   20.9146 N   0  0  0  0  0  0  0  0  0  0  0  0
  -26.1257  -29.5069   22.3576 N   0  0  0  0  0  0  0  0  0  0  0  0
  -26.8392  -28.2454   17.4874 N   0  0  0  0  0  0  0  0  0  0  0  0
  -26.2132  -24.7422   16.1724 N   0  0  0  0  0  0  0  0  0  0  0  0
  -25.8698  -15.5769   20.1125 N   0  0  0  0  0  0  0  0  0  0  0  0
  -19.7156  -15.7638   20.5165 N   0  0  0  0  0  0  0  0  0  0  0  0
  -17.3374  -16.8424   23.0162 N   0  3  0  0  0  0  0  0  0  0  0  0
  -28.4029  -25.2947   15.7741 O   0  0  0  0  0  0  0  0  0  0  0  0
  -25.3550  -17.8310   19.8356 O   0  0  0  0  0  0  0  0  0  0  0  0
  -22.3467  -14.6458   20.7068 O   0  0  0  0  0  0  0  0  0  0  0  0
  -18.8935  -17.8940   20.9211 O   0  0  0  0  0  0  0  0  0  0  0  0
  -24.8173  -31.1334   23.3811 O   0  0  0  0  0  0  0  0  0  0  0  0
  -29.4350  -19.9612   19.8989 O   0  0  0  0  0  0  0  0  0  0  0  0
  -23.3099  -23.0220   21.7872 O   0  0  0  0  0  0  0  0  0  1  0  0
  -23.8593  -29.6246   21.9568 O   0  0  0  0  0  0  0  0  0  0  0  0
  -29.5599  -18.0868   25.0830 F   0  0  0  0  0  0  0  0  0  0  0  0
  -27.8574  -17.8274   20.6739 F   0  0  0  0  0  0  0  0  0  0  0  0
  1  2  1  0  0  0  0
  1  5  2  0  0  0  0
  2  6  2  0  0  0  0
  3  8  2  0  0  0  0
  3 15  1  0  0  0  0
  4  9  1  0  0  0  0
  4 15  2  0  0  0  0
  5 17  1  0  0  0  0
  6 19  1  0  0  0  0
  7 10  2  0  0  0  0
  7 18  1  0  0  0  0
  8 24  1  0  0  0  0
  9 24  2  0  0  0  0
 10 25  1  0  0  0  0
 11 12  2  0  0  0  0
 11 26  1  0  0  0  0
 12 27  1  0  0  0  0
 13 20  1  0  0  0  0
 13 25  2  0  0  0  0
 14 27  2  0  0  0  0
 14 28  1  0  0  0  0
 15 29  1  0  0  0  0
 16 29  1  0  0  0  0
 16 32  2  0  0  0  0
 16 33  1  0  0  0  0
 17 19  2  0  0  0  0
 17 38  1  0  0  0  0
 18 20  2  0  0  0  0
 18 39  1  0  0  0  0
 19 50  1  0  0  0  0
 20 40  1  0  0  0  0
 21 23  2  0  0  0  0
 21 30  1  0  0  0  0
 21 49  1  0  0  0  0
 22 23  1  0  0  0  0
 22 31  2  0  0  0  0
 22 55  1  0  0  0  0
 23 72  1  0  0  0  0
 24 85  1  0  0  0  0
 25 86  1  0  0  0  0
 26 28  2  0  0  0  0
 26 85  1  0  0  0  0
 27 88  1  0  0  0  0
 28 89  1  0  0  0  0
 29 69  2  0  0  0  0
 30 56  1  0  0  0  0
 30 71  2  0  0  0  0
 31 65  1  0  0  0  0
 31 71  1  0  0  0  0
 32 70  1  0  0  0  0
 32 75  1  0  0  0  0
 33 76  1  0  0  0  0
 33 80  2  0  0  0  0
 34 51  1  0  0  0  0
 34 77  1  0  0  0  0
 34 81  2  0  0  0  0
 35 66  1  0  0  0  0
 35 73  1  0  0  0  0
 35 82  2  0  0  0  0
 36 67  1  0  0  0  0
 36 78  1  0  0  0  0
 36 83  2  0  0  0  0
 37 74  1  0  0  0  0
 37 84  2  0  0  0  0
 37 87  1  0  0  0  0
 38 41  1  0  0  0  0
 39 51  1  0  0  0  0
 40 73  1  0  0  0  0
 41 43  1  0  0  0  0
 42 44  1  0  0  0  0
 42 46  1  0  0  0  0
 43 50  1  0  0  0  0
 44 53  1  0  0  0  0
 45 47  1  0  0  0  0
 45 54  1  0  0  0  0
 46 74  1  0  0  0  0
 47 72  1  0  0  0  0
 48 53  1  0  0  0  0
 48 74  1  0  0  0  0
 49 52  1  0  0  0  0
 49 57  1  0  0  0  0
 50 77  1  0  0  0  0
 51 73  1  0  0  0  0
 52 54  1  0  0  0  0
 52 58  1  0  0  0  0
 53 70  1  0  0  0  0
 54 87  1  0  0  0  0
 59 67  1  0  0  0  0
 60 68  1  0  0  0  0
 61 68  1  0  0  0  0
 62 68  1  0  0  0  0
 63 72  1  0  0  0  0
 64 79  1  0  0  0  0
 65 86  1  0  0  0  0
 66 68  1  0  0  0  0
 66 78  1  0  0  0  0
 67 79  1  0  0  0  0
 69 70  1  0  0  0  0
M  CHG  2  71   1  79   1
M  ISO  4  37 100  65 101  86 101  87 100
M  END
> <Batch ID>
0143

> <Smiles>
CNC(C)C(=O)NC(C(=O)N1Cc2cc([101O:1][101CH2:1]c3nc(C)c4c(c3C)N(C)CCC([100O:0][100C:0](=O)N3CCCC(n5nc(-c6ccc(Oc7ccc(F)cc7F)cc6)c(C(N)=O)c5N)C3)C(C)C4C)ccc2CC1C(=O)NC1CCCc2ccccc21)C(C)(C)C

> <Shape>
0.208

> <Color>
0.071

> <Negative vol penalty>
0.000

$$$$

  -OEChem-04052321213D

 83 92  0     1  0  0  0  0  0999 V2000
  -22.2104  -11.0142   18.9925 C   0  0  0  0  0  0  0  0  0  0  0  0
  -21.8682  -12.3626   18.9797 C   0  0  0  0  0  0  0  0  0  0  0  0
  -29.1426  -27.2210   19.6771 C   0  0  0  0  0  0  0  0  0  0  0  0
  -27.1504  -26.5526   18.4850 C   0  0  0  0  0  0  0  0  0  0  0  0
  -23.3562  -10.5933   19.6663 C   0  0  0  0  0  0  0  0  0  0  0  0
  -22.6712  -13.2908   19.6416 C   0  0  0  0  0  0  0  0  0  0  0  0
  -23.7998  -19.0628   17.9338 C   0  0  0  0  0  0  0  0  0  0  0  0
  -17.7484  -26.2989   20.8300 C   0  0  0  0  0  0  0  0  0  0  0  0
  -29.8582  -26.1982   19.0548 C   0  0  0  0  0  0  0  0  0  0  0  0
  -27.8660  -25.5297   17.8626 C   0  0  0  0  0  0  0  0  0  0  0  0
  -23.2545  -20.2825   18.3321 C   0  0  0  0  0  0  0  0  0  0  0  0
  -18.3203  -25.0842   20.4472 C   0  0  0  0  0  0  0  0  0  0  0  0
  -30.0449  -25.2201   15.2981 C   0  0  0  0  0  0  0  0  0  0  0  0
  -29.8650  -25.0476   13.9257 C   0  0  0  0  0  0  0  0  0  0  0  0
  -25.0726  -20.5799   19.8894 C   0  0  0  0  0  0  0  0  0  0  0  0
  -20.1685  -25.4150   21.9951 C   0  0  0  0  0  0  0  0  0  0  0  0
  -29.0741  -22.7977   14.3122 C   0  0  0  0  0  0  0  0  0  0  0  0
  -27.7887  -27.3982   19.3923 C   0  0  0  0  0  0  0  0  0  0  0  0
  -26.8797  -29.7746   19.5771 C   0  0  0  0  0  0  0  0  0  0  0  0
  -24.1789  -11.5181   20.3286 C   0  0  0  0  0  0  0  0  0  0  0  0
  -24.9818  -18.5865   18.5190 C   0  0  0  0  0  0  0  0  0  0  0  0
  -18.4034  -27.0619   21.7823 C   0  0  0  0  0  0  0  0  0  0  0  0
  -23.8283  -12.8818   20.3260 C   0  0  0  0  0  0  0  0  0  0  0  0
  -25.6323  -19.3551   19.4949 C   0  0  0  0  0  0  0  0  0  0  0  0
  -19.6047  -26.6278   22.3594 C   0  0  0  0  0  0  0  0  0  0  0  0
  -29.2199  -25.3526   18.1475 C   0  0  0  0  0  0  0  0  0  0  0  0
  -23.8893  -21.0399   19.3121 C   0  0  0  0  0  0  0  0  0  0  0  0
  -19.5213  -24.6452   21.0258 C   0  0  0  0  0  0  0  0  0  0  0  0
  -29.7395  -24.1814   16.1776 C   0  0  0  0  0  0  0  0  0  0  0  0
  -29.3796  -23.8364   13.4327 C   0  0  0  0  0  0  0  0  0  0  0  0
  -29.2541  -22.9702   15.6846 C   0  0  0  0  0  0  0  0  0  0  0  0
  -27.0488  -28.4542   20.0353 C   0  0  0  0  0  0  0  0  0  0  0  0
  -26.1026  -30.3744   20.5377 C   0  0  0  0  0  0  0  0  0  0  0  0
  -27.3802  -30.4026   18.3894 C   0  0  0  0  0  0  0  0  0  0  0  0
  -25.7610  -16.0299   20.2395 C   0  0  0  0  0  0  0  0  0  0  0  0
  -28.7668  -17.2018   19.9024 C   0  0  0  0  0  0  0  0  0  0  0  0
  -30.7777  -19.8999   19.3336 C   0  0  0  0  0  0  0  0  0  0  0  0
  -22.1852  -28.2402   24.5315 C   0  0  0  0  0  0  0  0  0  0  0  0
  -25.3817  -11.0097   21.0832 C   0  0  0  0  0  0  0  0  0  0  0  0
  -17.9644  -28.3649   22.3740 C   0  0  0  0  0  0  0  0  0  0  0  0
  -25.5716  -17.2815   18.0592 C   0  0  0  0  0  0  0  0  0  0  0  0
  -26.9143  -18.8980   20.1398 C   0  0  0  0  0  0  0  0  0  0  0  0
  -26.3821  -12.1049   21.4439 C   0  0  0  0  0  0  0  0  0  0  0  0
  -19.2769  -28.8647   22.9974 C   0  0  0  0  0  0  0  0  0  0  0  0
  -25.1014  -30.1664   25.2116 C   0  0  0  0  0  0  0  0  0  0  0  0
  -25.6609  -13.3150   22.0289 C   0  0  0  0  0  0  0  0  0  0  0  0
  -25.9159  -30.0651   23.9208 C   0  0  0  0  0  0  0  0  0  0  0  0
  -24.3694  -28.8623   25.5208 C   0  0  0  0  0  0  0  0  0  0  0  0
  -24.3400  -28.2496   23.1339 C   0  0  0  0  0  0  0  0  0  0  0  0
  -24.6874  -13.9221   21.0114 C   0  0  1  0  0  0  0  0  0  0  0  0
  -20.0715  -27.6077   23.3952 C   0  0  2  0  0  0  0  0  0  0  0  0
  -26.5029  -16.6506   19.0898 C   0  0  1  0  0  0  0  0  0  0  0  0
  -25.0514  -29.5585   22.7506 C   0  0  2  0  0  0  0  0  0  0  0  0
  -32.8960  -21.1774   18.9118 C   0  0  0  0  0  0  0  0  0  0  0  0
  -29.0272  -17.0625   22.9393 C   0  0  0  0  0  0  0  0  0  0  0  0
  -31.0162  -18.5734   22.7683 C   0  0  0  0  0  0  0  0  0  0  0  0
  -31.0611  -16.3278   21.6831 C   0  0  0  0  0  0  0  0  0  0  0  0
  -30.5641  -19.5149   16.4070 C   0  0  0  0  0  0  0  0  0  0  0  0
  -21.9403  -22.3661   19.6263 C   0  0  0  0  0  0  0  0  0  1  0  0
  -21.4761  -23.3303   20.7006 C   0  0  0  0  0  0  0  0  0  0  0  0
  -29.6346  -18.1597   20.6824 C   0  0  1  0  0  0  0  0  0  0  0  0
  -31.9559  -20.0985   18.3972 C   0  0  2  0  0  0  0  0  0  0  0  0
  -30.1596  -17.5388   22.0077 C   0  0  0  0  0  0  0  0  0  0  0  0
  -26.4291  -28.2281   21.1967 N   0  0  0  0  0  0  0  0  0  0  0  0
  -25.8631  -29.4144   21.4765 N   0  0  0  0  0  0  0  0  0  0  0  0
  -27.4481  -17.6122   19.6609 N   0  0  0  0  0  0  0  0  0  0  0  0
  -23.5667  -28.4375   24.3714 N   0  0  0  0  0  0  0  0  0  0  0  0
  -25.6077  -31.6242   20.6626 N   0  0  0  0  0  0  0  0  0  0  0  0
  -28.1626  -29.6416   17.5102 N   0  0  0  0  0  0  0  0  0  0  0  0
  -25.4055  -14.7106   20.0331 N   0  0  0  0  0  0  0  0  0  0  0  0
  -30.6856  -18.5948   19.7689 N   0  0  0  0  0  0  0  0  0  0  0  0
  -21.4980  -27.8441   23.3907 N   0  0  0  0  0  0  0  0  0  0  0  0
  -31.4795  -20.4972   17.0426 N   0  3  0  0  0  0  0  0  0  0  0  0
  -27.1545  -31.6077   18.1241 O   0  0  0  0  0  0  0  0  0  0  0  0
  -25.5295  -16.6979   21.2404 O   0  0  0  0  0  0  0  0  0  0  0  0
  -29.2437  -16.1320   19.5152 O   0  0  0  0  0  0  0  0  0  0  0  0
  -30.0174  -20.8122   19.6503 O   0  0  0  0  0  0  0  0  0  0  0  0
  -21.6062  -28.4100   25.6099 O   0  0  0  0  0  0  0  0  0  0  0  0
  -29.9180  -24.3545   17.5399 O   0  0  0  0  0  0  0  0  0  0  0  0
  -23.3588  -22.2305   19.7032 O   0  0  0  0  0  0  0  0  0  1  0  0
  -20.0596  -23.4456   20.6409 O   0  0  0  0  0  0  0  0  0  0  0  0
  -29.2054  -23.6714   12.1149 F   0  0  0  0  0  0  0  0  0  0  0  0
  -28.9578  -21.9691   16.5247 F   0  0  0  0  0  0  0  0  0  0  0  0
  1  2  1  0  0  0  0
  1  5  2  0  0  0  0
  2  6  2  0  0  0  0
  3  9  2  0  0  0  0
  3 18  1  0  0  0  0
  4 10  1  0  0  0  0
  4 18  2  0  0  0  0
  5 20  1  0  0  0  0
  6 23  1  0  0  0  0
  7 11  2  0  0  0  0
  7 21  1  0  0  0  0
  8 12  2  0  0  0  0
  8 22  1  0  0  0  0
  9 26  1  0  0  0  0
 10 26  2  0  0  0  0
 11 27  1  0  0  0  0
 12 28  1  0  0  0  0
 13 14  2  0  0  0  0
 13 29  1  0  0  0  0
 14 30  1  0  0  0  0
 15 24  1  0  0  0  0
 15 27  2  0  0  0  0
 16 25  1  0  0  0  0
 16 28  2  0  0  0  0
 17 30  2  0  0  0  0
 17 31  1  0  0  0  0
 18 32  1  0  0  0  0
 19 32  1  0  0  0  0
 19 33  2  0  0  0  0
 19 34  1  0  0  0  0
 20 23  2  0  0  0  0
 20 39  1  0  0  0  0
 21 24  2  0  0  0  0
 21 41  1  0  0  0  0
 22 25  2  0  0  0  0
 22 40  1  0  0  0  0
 23 50  1  0  0  0  0
 24 42  1  0  0  0  0
 25 51  1  0  0  0  0
 26 79  1  0  0  0  0
 27 80  1  0  0  0  0
 28 81  1  0  0  0  0
 29 31  2  0  0  0  0
 29 79  1  0  0  0  0
 30 82  1  0  0  0  0
 31 83  1  0  0  0  0
 32 64  2  0  0  0  0
 33 65  1  0  0  0  0
 33 68  1  0  0  0  0
 34 69  1  0  0  0  0
 34 74  2  0  0  0  0
 35 52  1  0  0  0  0
 35 70  1  0  0  0  0
 35 75  2  0  0  0  0
 36 61  1  0  0  0  0
 36 66  1  0  0  0  0
 36 76  2  0  0  0  0
 37 62  1  0  0  0  0
 37 71  1  0  0  0  0
 37 77  2  0  0  0  0
 38 67  1  0  0  0  0
 38 72  1  0  0  0  0
 38 78  2  0  0  0  0
 39 43  1  0  0  0  0
 40 44  1  0  0  0  0
 41 52  1  0  0  0  0
 42 66  1  0  0  0  0
 43 46  1  0  0  0  0
 44 51  1  0  0  0  0
 45 47  1  0  0  0  0
 45 48  1  0  0  0  0
 46 50  1  0  0  0  0
 47 53  1  0  0  0  0
 48 67  1  0  0  0  0
 49 53  1  0  0  0  0
 49 67  1  0  0  0  0
 50 70  1  0  0  0  0
 51 72  1  0  0  0  0
 52 66  1  0  0  0  0
 53 65  1  0  0  0  0
 54 62  1  0  0  0  0
 55 63  1  0  0  0  0
 56 63  1  0  0  0  0
 57 63  1  0  0  0  0
 58 73  1  0  0  0  0
 59 60  1  0  0  0  0
 59 80  1  0  0  0  0
 60 81  1  0  0  0  0
 61 63  1  0  0  0  0
 61 71  1  0  0  0  0
 62 73  1  0  0  0  0
 64 65  1  0  0  0  0
M  CHG  1  73   1
M  ISO  4  38 100  59 101  72 100  80 101
M  END
> <Batch ID>
0143

> <Smiles>
CNC(C)C(=O)NC(C(=O)N1Cc2cc([101O:1][101CH2:1]COc3ccc4c(c3)C([100NH:0][100C:0](=O)N3CCCC(n5nc(-c6ccc(Oc7ccc(F)cc7F)cc6)c(C(N)=O)c5N)C3)CC4)ccc2CC1C(=O)NC1CCCc2ccccc21)C(C)(C)C

> <Shape>
0.233

> <Color>
0.063

> <Negative vol penalty>
0.000

$$$$

  -OEChem-04052321213D

 84 93  0     1  0  0  0  0  0999 V2000
  -32.8012  -25.3501   18.2468 C   0  0  0  0  0  0  0  0  0  0  0  0
  -31.4597  -24.9817   18.2506 C   0  0  0  0  0  0  0  0  0  0  0  0
  -23.5090   -9.5729   21.7041 C   0  0  0  0  0  0  0  0  0  0  0  0
  -23.8900  -10.6520   23.8319 C   0  0  0  0  0  0  0  0  0  0  0  0
  -33.3095  -26.1378   19.2789 C   0  0  0  0  0  0  0  0  0  0  0  0
  -30.6259  -25.4000   19.2870 C   0  0  0  0  0  0  0  0  0  0  0  0
  -24.6931  -26.8629   18.8768 C   0  0  0  0  0  0  0  0  0  0  0  0
  -23.5332   -8.3273   22.3315 C   0  0  0  0  0  0  0  0  0  0  0  0
  -23.9142   -9.4065   24.4593 C   0  0  0  0  0  0  0  0  0  0  0  0
  -23.5292  -26.1471   19.1536 C   0  0  0  0  0  0  0  0  0  0  0  0
  -21.4334   -6.4279   24.1796 C   0  0  0  0  0  0  0  0  0  0  0  0
  -20.4434   -5.5083   23.8333 C   0  0  0  0  0  0  0  0  0  0  0  0
  -23.4388  -27.1529   21.3443 C   0  0  0  0  0  0  0  0  0  0  0  0
  -24.6723  -22.5060   21.0075 C   0  0  0  0  0  0  0  0  0  0  0  0
  -24.2049  -20.2191   21.5872 C   0  0  0  0  0  0  0  0  0  0  0  0
  -22.1417   -3.9632   23.0812 C   0  0  0  0  0  0  0  0  0  0  0  0
  -23.6875  -10.7353   22.4543 C   0  0  0  0  0  0  0  0  0  0  0  0
  -22.5408  -12.8442   21.5910 C   0  0  0  0  0  0  0  0  0  0  0  0
  -32.4793  -26.5739   20.3234 C   0  0  0  0  0  0  0  0  0  0  0  0
  -25.2456  -27.7223   19.8373 C   0  0  0  0  0  0  0  0  0  0  0  0
  -31.1238  -26.1931   20.3347 C   0  0  0  0  0  0  0  0  0  0  0  0
  -24.6084  -27.8805   21.0763 C   0  0  0  0  0  0  0  0  0  0  0  0
  -23.8456  -21.5621   21.6068 C   0  0  0  0  0  0  0  0  0  0  0  0
  -23.7358   -8.2441   23.7090 C   0  0  0  0  0  0  0  0  0  0  0  0
  -22.9035  -26.2898   20.3885 C   0  0  0  0  0  0  0  0  0  0  0  0
  -22.7775   -6.1152   23.9766 C   0  0  0  0  0  0  0  0  0  0  0  0
  -20.7975   -4.2759   23.2842 C   0  0  0  0  0  0  0  0  0  0  0  0
  -23.1317   -4.8828   23.4274 C   0  0  0  0  0  0  0  0  0  0  0  0
  -23.6631  -12.0222   21.8067 C   0  0  0  0  0  0  0  0  0  0  0  0
  -25.8380  -22.0589   20.4066 C   0  0  0  0  0  0  0  0  0  0  0  0
  -25.3915  -19.8744   20.9603 C   0  0  0  0  0  0  0  0  0  0  0  0
  -23.0421  -13.9466   20.9431 C   0  0  0  0  0  0  0  0  0  0  0  0
  -21.1679  -12.6304   21.9448 C   0  0  0  0  0  0  0  0  0  0  0  0
  -28.0011  -27.8454   21.4171 C   0  0  0  0  0  0  0  0  0  0  0  0
  -26.8144  -30.6688   22.4859 C   0  0  0  0  0  0  0  0  0  0  0  0
  -24.0786  -32.6103   23.1124 C   0  0  0  0  0  0  0  0  0  0  0  0
  -26.8875  -17.9334   20.3763 C   0  0  0  0  0  0  0  0  0  0  0  0
  -33.0849  -27.3845   21.4419 C   0  0  0  0  0  0  0  0  0  0  0  0
  -26.4868  -28.5077   19.5134 C   0  0  0  0  0  0  0  0  0  0  0  0
  -25.1498  -28.8057   22.1342 C   0  0  0  0  0  0  0  0  0  0  0  0
  -32.0491  -28.0983   22.3067 C   0  0  0  0  0  0  0  0  0  0  0  0
  -27.5954  -14.7750   18.8930 C   0  0  0  0  0  0  0  0  0  0  0  0
  -30.9169  -27.1462   22.6787 C   0  0  0  0  0  0  0  0  0  0  0  0
  -26.5432  -13.8449   19.5010 C   0  0  0  0  0  0  0  0  0  0  0  0
  -21.2809  -21.3426   21.8494 C   0  0  0  0  0  0  0  0  0  0  0  0
  -28.0885  -15.8102   19.9024 C   0  0  0  0  0  0  0  0  0  0  0  0
  -25.9791  -15.6604   21.1662 C   0  0  0  0  0  0  0  0  0  0  0  0
  -22.5862  -21.9864   22.2643 C   0  0  2  0  0  0  0  0  0  0  0  0
  -30.1820  -26.6477   21.4285 C   0  0  1  0  0  0  0  0  0  0  0  0
  -27.2466  -28.9636   20.7553 C   0  0  1  0  0  0  0  0  0  0  0  0
  -21.5616  -22.7649   21.4656 C   0  0  2  0  0  0  0  0  0  0  0  0
  -25.4049  -14.6416   20.1682 C   0  0  2  0  0  0  0  0  0  0  0  0
  -26.7494  -23.0441   19.7542 C   0  0  0  0  0  0  0  0  0  0  0  0
  -23.4228  -34.8557   24.0210 C   0  0  0  0  0  0  0  0  0  0  0  0
  -19.3994  -24.0139   21.5279 C   0  0  0  0  0  0  0  0  0  0  0  0
  -27.3320  -29.6695   25.3220 C   0  0  0  0  0  0  0  0  0  0  0  0
  -25.8236  -31.4828   26.1615 C   0  0  0  0  0  0  0  0  0  0  0  0
  -27.9170  -32.0707   24.9389 C   0  0  0  0  0  0  0  0  0  0  0  0
  -22.8389  -33.4151   20.5483 C   0  0  0  0  0  0  0  0  0  0  0  0
  -21.5344  -25.2380   22.0242 C   0  0  0  0  0  0  0  0  0  1  0  0
  -25.9662  -31.0964   23.6593 C   0  0  1  0  0  0  0  0  0  0  0  0
  -23.7721  -34.0581   22.7742 C   0  0  2  0  0  0  0  0  0  0  0  0
  -20.7817  -23.9057   22.1214 C   0  0  2  0  0  0  0  0  0  0  0  0
  -26.7503  -31.0609   25.0014 C   0  0  0  0  0  0  0  0  0  0  0  0
  -24.7922  -12.5567   21.3340 N   0  0  0  0  0  0  0  0  0  0  0  0
  -26.2203  -20.7628   20.3675 N   0  0  0  0  0  0  0  0  0  0  0  0
  -24.3820  -13.7263   20.8148 N   0  0  0  0  0  0  0  0  0  0  0  0
  -26.3692  -29.5471   21.7722 N   0  0  0  0  0  0  0  0  0  0  0  0
  -26.9558  -16.5287   20.4902 N   0  0  0  0  0  0  0  0  0  0  0  0
  -22.4631  -15.0732   20.4762 N   0  0  0  0  0  0  0  0  0  0  0  0
  -20.8257  -11.4436   22.6071 N   0  0  0  0  0  0  0  0  0  0  0  0
  -25.7490  -18.5033   20.9451 N   0  0  0  0  0  0  0  0  0  0  0  0
  -29.2823  -27.6664   20.9313 N   0  0  0  0  0  0  0  0  0  0  0  0
  -25.4271  -32.4080   23.3167 N   0  0  0  0  0  0  0  0  0  0  0  0
  -22.6229  -34.1371   21.8286 N   0  3  0  0  0  0  0  0  0  0  0  0
  -20.2687  -13.4596   21.6667 O   0  0  0  0  0  0  0  0  0  0  0  0
  -27.4615  -27.1942   22.3039 O   0  0  0  0  0  0  0  0  0  0  0  0
  -27.8305  -31.3108   22.2084 O   0  0  0  0  0  0  0  0  0  0  0  0
  -23.2083  -31.7461   23.1913 O   0  0  0  0  0  0  0  0  0  0  0  0
  -27.7603  -18.5803   19.7917 O   0  0  0  0  0  0  0  0  0  0  0  0
  -23.7593   -7.0289   24.3216 O   0  0  0  0  0  0  0  0  0  0  0  0
  -21.7676  -25.5917   20.6615 O   0  0  0  0  0  0  0  0  0  1  0  0
  -19.8468   -3.3923   22.9532 F   0  0  0  0  0  0  0  0  0  0  0  0
  -24.4214   -4.5763   23.2312 F   0  0  0  0  0  0  0  0  0  0  0  0
  1  2  1  0  0  0  0
  1  5  2  0  0  0  0
  2  6  2  0  0  0  0
  3  8  2  0  0  0  0
  3 17  1  0  0  0  0
  4  9  1  0  0  0  0
  4 17  2  0  0  0  0
  5 19  1  0  0  0  0
  6 21  1  0  0  0  0
  7 10  2  0  0  0  0
  7 20  1  0  0  0  0
  8 24  1  0  0  0  0
  9 24  2  0  0  0  0
 10 25  1  0  0  0  0
 11 12  2  0  0  0  0
 11 26  1  0  0  0  0
 12 27  1  0  0  0  0
 13 22  1  0  0  0  0
 13 25  2  0  0  0  0
 14 23  1  0  0  0  0
 14 30  2  0  0  0  0
 15 23  2  0  0  0  0
 15 31  1  0  0  0  0
 16 27  2  0  0  0  0
 16 28  1  0  0  0  0
 17 29  1  0  0  0  0
 18 29  1  0  0  0  0
 18 32  2  0  0  0  0
 18 33  1  0  0  0  0
 19 21  2  0  0  0  0
 19 38  1  0  0  0  0
 20 22  2  0  0  0  0
 20 39  1  0  0  0  0
 21 49  1  0  0  0  0
 22 40  1  0  0  0  0
 23 48  1  0  0  0  0
 24 81  1  0  0  0  0
 25 82  1  0  0  0  0
 26 28  2  0  0  0  0
 26 81  1  0  0  0  0
 27 83  1  0  0  0  0
 28 84  1  0  0  0  0
 29 65  2  0  0  0  0
 30 53  1  0  0  0  0
 30 66  1  0  0  0  0
 31 66  2  0  0  0  0
 31 72  1  0  0  0  0
 32 67  1  0  0  0  0
 32 70  1  0  0  0  0
 33 71  1  0  0  0  0
 33 76  2  0  0  0  0
 34 50  1  0  0  0  0
 34 73  1  0  0  0  0
 34 77  2  0  0  0  0
 35 61  1  0  0  0  0
 35 68  1  0  0  0  0
 35 78  2  0  0  0  0
 36 62  1  0  0  0  0
 36 74  1  0  0  0  0
 36 79  2  0  0  0  0
 37 69  1  0  0  0  0
 37 72  1  0  0  0  0
 37 80  2  0  0  0  0
 38 41  1  0  0  0  0
 39 50  1  0  0  0  0
 40 68  1  0  0  0  0
 41 43  1  0  0  0  0
 42 44  1  0  0  0  0
 42 46  1  0  0  0  0
 43 49  1  0  0  0  0
 44 52  1  0  0  0  0
 45 48  1  0  0  0  0
 45 51  1  0  0  0  0
 46 69  1  0  0  0  0
 47 52  1  0  0  0  0
 47 69  1  0  0  0  0
 48 51  1  0  0  0  0
 49 73  1  0  0  0  0
 50 68  1  0  0  0  0
 51 63  1  0  0  0  0
 52 67  1  0  0  0  0
 54 62  1  0  0  0  0
 55 63  1  0  0  0  0
 56 64  1  0  0  0  0
 57 64  1  0  0  0  0
 58 64  1  0  0  0  0
 59 75  1  0  0  0  0
 60 63  1  0  0  0  0
 60 82  1  0  0  0  0
 61 64  1  0  0  0  0
 61 74  1  0  0  0  0
 62 75  1  0  0  0  0
 65 67  1  0  0  0  0
M  CHG  1  75   1
M  ISO  4  37 100  60 101  72 100  82 101
M  END
> <Batch ID>
0143

> <Smiles>
CNC(C)C(=O)NC(C(=O)N1Cc2cc([101O:1][101CH2:1]C(C)C3CC3c3cc(C)nc([100NH:0][100C:0](=O)N4CCCC(n5nc(-c6ccc(Oc7ccc(F)cc7F)cc6)c(C(N)=O)c5N)C4)c3)ccc2CC1C(=O)NC1CCCc2ccccc21)C(C)(C)C

> <Shape>
0.257

> <Color>
0.073

> <Negative vol penalty>
0.000

$$$$

  -OEChem-04052321213D

 83 92  0     1  0  0  0  0  0999 V2000
  -26.0041  -37.9015   20.0917 C   0  0  0  0  0  0  0  0  0  0  0  0
  -26.6215  -36.7058   19.7387 C   0  0  0  0  0  0  0  0  0  0  0  0
  -27.4699  -11.0853   20.5761 C   0  0  0  0  0  0  0  0  0  0  0  0
  -26.8365  -12.6666   18.8628 C   0  0  0  0  0  0  0  0  0  0  0  0
  -25.2850  -37.9882   21.2830 C   0  0  0  0  0  0  0  0  0  0  0  0
  -26.5210  -35.5964   20.5775 C   0  0  0  0  0  0  0  0  0  0  0  0
  -26.1886  -29.7199   18.8855 C   0  0  0  0  0  0  0  0  0  0  0  0
  -26.3341  -10.3259   20.2951 C   0  0  0  0  0  0  0  0  0  0  0  0
  -25.7008  -11.9072   18.5818 C   0  0  0  0  0  0  0  0  0  0  0  0
  -27.1473  -28.7106   18.8075 C   0  0  0  0  0  0  0  0  0  0  0  0
  -23.0284  -10.4381   20.9910 C   0  0  0  0  0  0  0  0  0  0  0  0
  -22.2773   -9.9731   22.0704 C   0  0  0  0  0  0  0  0  0  0  0  0
  -26.4937  -27.9292   20.9941 C   0  0  0  0  0  0  0  0  0  0  0  0
  -28.5507  -20.7023   19.6386 C   0  0  0  0  0  0  0  0  0  0  0  0
  -22.6599   -7.6970   21.3559 C   0  0  0  0  0  0  0  0  0  0  0  0
  -27.7211  -12.2557   19.8600 C   0  0  0  0  0  0  0  0  0  0  0  0
  -30.1674  -12.9155   19.5634 C   0  0  0  0  0  0  0  0  0  0  0  0
  -25.1676  -36.8765   22.1321 C   0  0  0  0  0  0  0  0  0  0  0  0
  -25.3814  -29.8484   20.0249 C   0  0  0  0  0  0  0  0  0  0  0  0
  -25.8007  -35.6687   21.7819 C   0  0  0  0  0  0  0  0  0  0  0  0
  -25.5238  -28.9394   21.0830 C   0  0  0  0  0  0  0  0  0  0  0  0
  -28.7492  -23.0950   19.7808 C   0  0  0  0  0  0  0  0  0  0  0  0
  -28.4243  -21.9565   19.0517 C   0  0  0  0  0  0  0  0  0  0  0  0
  -25.4496  -10.7368   19.2979 C   0  0  0  0  0  0  0  0  0  0  0  0
  -27.3019  -27.8169   19.8631 C   0  0  0  0  0  0  0  0  0  0  0  0
  -23.5952   -9.5326   20.0940 C   0  0  0  0  0  0  0  0  0  0  0  0
  -22.0930   -8.6025   22.2529 C   0  0  0  0  0  0  0  0  0  0  0  0
  -23.4110   -8.1621   20.2765 C   0  0  0  0  0  0  0  0  0  0  0  0
  -28.8938  -13.0408   20.1502 C   0  0  0  0  0  0  0  0  0  0  0  0
  -29.1923  -22.9268   21.0827 C   0  0  0  0  0  0  0  0  0  0  0  0
  -29.0030  -20.6413   20.9468 C   0  0  0  0  0  0  0  0  0  0  0  0
  -30.9245  -13.8839   20.1762 C   0  0  0  0  0  0  0  0  0  0  0  0
  -30.6250  -12.0052   18.5547 C   0  0  0  0  0  0  0  0  0  0  0  0
  -24.9502  -32.1005   22.2262 C   0  0  0  0  0  0  0  0  0  0  0  0
  -22.5865  -30.1187   23.2301 C   0  0  0  0  0  0  0  0  0  0  0  0
  -21.3167  -26.9534   23.3533 C   0  0  0  0  0  0  0  0  0  0  0  0
  -29.5607  -19.0618   22.8285 C   0  0  0  0  0  0  0  0  0  0  0  0
  -24.4195  -37.0321   23.4325 C   0  0  0  0  0  0  0  0  0  0  0  0
  -24.3337  -30.9260   20.0822 C   0  0  0  0  0  0  0  0  0  0  0  0
  -24.6683  -29.0218   22.3198 C   0  0  0  0  0  0  0  0  0  0  0  0
  -24.0470  -35.7027   24.0837 C   0  0  0  0  0  0  0  0  0  0  0  0
  -31.2855  -16.3106   24.2890 C   0  0  0  0  0  0  0  0  0  0  0  0
  -25.2422  -34.7549   24.0838 C   0  0  0  0  0  0  0  0  0  0  0  0
  -30.9888  -15.1499   23.3367 C   0  0  0  0  0  0  0  0  0  0  0  0
  -27.3018  -24.8724   18.5883 C   0  0  0  0  0  0  0  0  0  0  0  0
  -30.0845  -17.2428   24.4384 C   0  0  0  0  0  0  0  0  0  0  0  0
  -29.2305  -16.5838   22.2235 C   0  0  0  0  0  0  0  0  0  0  0  0
  -28.6241  -24.4449   19.1811 C   0  0  1  0  0  0  0  0  0  0  0  0
  -25.6938  -34.4362   22.6534 C   0  0  1  0  0  0  0  0  0  0  0  0
  -23.9176  -31.2797   21.5067 C   0  0  1  0  0  0  0  0  0  0  0  0
  -30.4322  -15.6535   21.9906 C   0  0  2  0  0  0  0  0  0  0  0  0
  -27.7704  -25.4853   19.8725 C   0  0  1  0  0  0  0  0  0  1  0  0
  -27.9392  -22.0525   17.6427 C   0  0  0  0  0  0  0  0  0  0  0  0
  -30.3105  -23.7181   23.1827 C   0  0  0  0  0  0  0  0  0  0  0  0
  -19.3895  -25.6386   24.2777 C   0  0  0  0  0  0  0  0  0  0  0  0
  -23.8529  -30.2177   26.0043 C   0  0  0  0  0  0  0  0  0  0  0  0
  -22.5004  -28.2019   26.6173 C   0  0  0  0  0  0  0  0  0  0  0  0
  -21.3545  -30.3281   25.9935 C   0  0  0  0  0  0  0  0  0  0  0  0
  -20.4166  -26.1517   20.6503 C   0  0  0  0  0  0  0  0  0  0  0  0
  -29.5565  -24.1119   21.9164 C   0  0  0  0  0  0  0  0  0  0  0  0
  -22.4988  -28.9640   24.1986 C   0  0  1  0  0  0  0  0  0  0  0  0
  -19.9226  -26.4162   23.0844 C   0  0  2  0  0  0  0  0  0  0  0  0
  -22.5692  -29.4273   25.6811 C   0  0  0  0  0  0  0  0  0  0  0  0
  -28.8411  -14.0122   21.0655 N   0  0  0  0  0  0  0  0  0  0  0  0
  -29.3281  -21.7250   21.6867 N   0  0  0  0  0  0  0  0  0  0  0  0
  -30.0910  -14.5059   21.0585 N   0  0  0  0  0  0  0  0  0  0  0  0
  -23.6623  -30.0967   22.3311 N   0  0  0  0  0  0  0  0  0  0  0  0
  -29.6142  -17.6830   23.1231 N   0  0  0  0  0  0  0  0  0  0  0  0
  -32.2152  -14.2555   20.0409 N   0  0  0  0  0  0  0  0  0  0  0  0
  -29.7163  -11.0745   18.0327 N   0  0  0  0  0  0  0  0  0  0  0  0
  -29.1287  -19.3589   21.5363 N   0  0  0  0  0  0  0  0  0  0  0  0
  -24.8088  -33.4636   22.0490 N   0  0  0  0  0  0  0  0  0  0  0  0
  -21.2813  -28.2364   23.8571 N   0  0  0  0  0  0  0  0  0  0  0  0
  -19.9359  -25.5103   21.9011 N   0  3  0  0  0  0  0  0  0  0  0  0
  -31.8091  -12.0059   18.1406 O   0  0  0  0  0  0  0  0  0  0  0  0
  -25.8107  -31.5388   22.8939 O   0  0  0  0  0  0  0  0  0  0  0  0
  -21.7280  -31.0038   23.2650 O   0  0  0  0  0  0  0  0  0  0  0  0
  -22.3352  -26.2989   23.1413 O   0  0  0  0  0  0  0  0  0  0  0  0
  -29.9008  -19.9151   23.6520 O   0  0  0  0  0  0  0  0  0  0  0  0
  -24.3413   -9.9959   19.0233 O   0  0  0  0  0  0  0  0  0  0  0  0
  -28.2373  -26.8312   19.7899 O   0  0  0  0  0  0  0  0  0  1  0  0
  -21.3730   -8.1560   23.2904 F   0  0  0  0  0  0  0  0  0  0  0  0
  -23.9540   -7.2874   19.4187 F   0  0  0  0  0  0  0  0  0  0  0  0
  1  2  1  0  0  0  0
  1  5  2  0  0  0  0
  2  6  2  0  0  0  0
  3  8  2  0  0  0  0
  3 16  1  0  0  0  0
  4  9  1  0  0  0  0
  4 16  2  0  0  0  0
  5 18  1  0  0  0  0
  6 20  1  0  0  0  0
  7 10  2  0  0  0  0
  7 19  1  0  0  0  0
  8 24  1  0  0  0  0
  9 24  2  0  0  0  0
 10 25  1  0  0  0  0
 11 12  2  0  0  0  0
 11 26  1  0  0  0  0
 12 27  1  0  0  0  0
 13 21  1  0  0  0  0
 13 25  2  0  0  0  0
 14 23  2  0  0  0  0
 14 31  1  0  0  0  0
 15 27  2  0  0  0  0
 15 28  1  0  0  0  0
 16 29  1  0  0  0  0
 17 29  1  0  0  0  0
 17 32  2  0  0  0  0
 17 33  1  0  0  0  0
 18 20  2  0  0  0  0
 18 38  1  0  0  0  0
 19 21  2  0  0  0  0
 19 39  1  0  0  0  0
 20 49  1  0  0  0  0
 21 40  1  0  0  0  0
 22 23  1  0  0  0  0
 22 30  2  0  0  0  0
 22 48  1  0  0  0  0
 23 53  1  0  0  0  0
 24 80  1  0  0  0  0
 25 81  1  0  0  0  0
 26 28  2  0  0  0  0
 26 80  1  0  0  0  0
 27 82  1  0  0  0  0
 28 83  1  0  0  0  0
 29 64  2  0  0  0  0
 30 60  1  0  0  0  0
 30 65  1  0  0  0  0
 31 65  2  0  0  0  0
 31 71  1  0  0  0  0
 32 66  1  0  0  0  0
 32 69  1  0  0  0  0
 33 70  1  0  0  0  0
 33 75  2  0  0  0  0
 34 50  1  0  0  0  0
 34 72  1  0  0  0  0
 34 76  2  0  0  0  0
 35 61  1  0  0  0  0
 35 67  1  0  0  0  0
 35 77  2  0  0  0  0
 36 62  1  0  0  0  0
 36 73  1  0  0  0  0
 36 78  2  0  0  0  0
 37 68  1  0  0  0  0
 37 71  1  0  0  0  0
 37 79  2  0  0  0  0
 38 41  1  0  0  0  0
 39 50  1  0  0  0  0
 40 67  1  0  0  0  0
 41 43  1  0  0  0  0
 42 44  1  0  0  0  0
 42 46  1  0  0  0  0
 43 49  1  0  0  0  0
 44 51  1  0  0  0  0
 45 48  1  0  0  0  0
 45 52  1  0  0  0  0
 46 68  1  0  0  0  0
 47 51  1  0  0  0  0
 47 68  1  0  0  0  0
 48 52  1  0  0  0  0
 49 72  1  0  0  0  0
 50 67  1  0  0  0  0
 51 66  1  0  0  0  0
 52 81  1  0  0  0  0
 54 60  1  0  0  0  0
 55 62  1  0  0  0  0
 56 63  1  0  0  0  0
 57 63  1  0  0  0  0
 58 63  1  0  0  0  0
 59 74  1  0  0  0  0
 61 63  1  0  0  0  0
 61 73  1  0  0  0  0
 62 74  1  0  0  0  0
 64 66  1  0  0  0  0
M  CHG  1  74   1
M  ISO  4  37 100  52 101  71 100  81 101
M  END
> <Batch ID>
0143

> <Smiles>
CCc1nc([100NH:0][100C:0](=O)N2CCCC(n3nc(-c4ccc(Oc5ccc(F)cc5F)cc4)c(C(N)=O)c3N)C2)cc(C)c1C1C[101CH:1]1[101O:1]c1ccc2c(c1)CN(C(=O)C(NC(=O)C(C)NC)C(C)(C)C)C(C(=O)NC1CCCc3ccccc31)C2

> <Shape>
0.315

> <Color>
0.082

> <Negative vol penalty>
0.000

$$$$

  -OEChem-04052321213D

 83 92  0     1  0  0  0  0  0999 V2000
  -25.5391   -7.1292   23.2360 C   0  0  0  0  0  0  0  0  0  0  0  0
  -26.4974   -8.0840   22.9115 C   0  0  0  0  0  0  0  0  0  0  0  0
  -22.3797  -27.8689   23.2427 C   0  0  0  0  0  0  0  0  0  0  0  0
  -22.0882  -26.5559   21.2357 C   0  0  0  0  0  0  0  0  0  0  0  0
  -24.2442   -7.2435   22.7318 C   0  0  0  0  0  0  0  0  0  0  0  0
  -26.1617   -9.1532   22.0816 C   0  0  0  0  0  0  0  0  0  0  0  0
  -28.3066  -14.8803   22.4064 C   0  0  0  0  0  0  0  0  0  0  0  0
  -21.2394  -28.6070   22.9255 C   0  0  0  0  0  0  0  0  0  0  0  0
  -20.9479  -27.2940   20.9185 C   0  0  0  0  0  0  0  0  0  0  0  0
  -29.3103  -15.5472   21.7051 C   0  0  0  0  0  0  0  0  0  0  0  0
  -30.0372  -18.7423   18.2761 C   0  0  0  0  0  0  0  0  0  0  0  0
  -29.8055  -20.0716   17.9224 C   0  0  0  0  0  0  0  0  0  0  0  0
  -18.2003  -30.5993   22.8294 C   0  0  0  0  0  0  0  0  0  0  0  0
  -17.2845  -30.8493   23.8514 C   0  0  0  0  0  0  0  0  0  0  0  0
  -27.6530  -16.4469   20.2007 C   0  0  0  0  0  0  0  0  0  0  0  0
  -29.1954  -19.1865   20.4966 C   0  0  0  0  0  0  0  0  0  0  0  0
  -16.9696  -28.4727   24.1506 C   0  0  0  0  0  0  0  0  0  0  0  0
  -22.8041  -26.8434   22.3978 C   0  0  0  0  0  0  0  0  0  0  0  0
  -24.0457  -24.8998   23.4879 C   0  0  0  0  0  0  0  0  0  0  0  0
  -23.8899   -8.3198   21.9032 C   0  0  0  0  0  0  0  0  0  0  0  0
  -26.9676  -14.9831   22.0028 C   0  0  0  0  0  0  0  0  0  0  0  0
  -24.8612   -9.2812   21.5648 C   0  0  0  0  0  0  0  0  0  0  0  0
  -26.6339  -15.7823   20.9001 C   0  0  0  0  0  0  0  0  0  0  0  0
  -28.9637  -20.5157   20.1430 C   0  0  0  0  0  0  0  0  0  0  0  0
  -20.5235  -28.3195   21.7634 C   0  0  0  0  0  0  0  0  0  0  0  0
  -28.9838  -16.3283   20.6004 C   0  0  0  0  0  0  0  0  0  0  0  0
  -29.7321  -18.2998   19.5632 C   0  0  0  0  0  0  0  0  0  1  0  0
  -29.2687  -20.9582   18.8558 C   0  0  0  0  0  0  0  0  0  0  0  0
  -18.5007  -29.2860   22.4679 C   0  0  0  0  0  0  0  0  0  0  0  0
  -16.6692  -29.7860   24.5120 C   0  0  0  0  0  0  0  0  0  0  0  0
  -17.8853  -28.2227   23.1286 C   0  0  0  0  0  0  0  0  0  0  0  0
  -23.9822  -26.0809   22.7246 C   0  0  0  0  0  0  0  0  0  0  0  0
  -25.3799  -24.5741   23.5061 C   0  0  0  0  0  0  0  0  0  0  0  0
  -22.9928  -24.1628   24.1235 C   0  0  0  0  0  0  0  0  0  0  0  0
  -24.7695  -12.9282   20.9783 C   0  0  0  0  0  0  0  0  0  0  0  0
  -22.8266  -15.5200   21.1531 C   0  0  0  0  0  0  0  0  0  0  0  0
  -22.5232  -18.9192   21.1454 C   0  0  0  0  0  0  0  0  0  0  0  0
  -29.9286  -25.8058   19.8124 C   0  0  0  0  0  0  0  0  0  0  0  0
  -22.4902   -8.3753   21.3441 C   0  0  0  0  0  0  0  0  0  0  0  0
  -25.8937  -14.2789   22.7860 C   0  0  0  0  0  0  0  0  0  0  0  0
  -25.2092  -15.9418   20.4384 C   0  0  0  0  0  0  0  0  0  0  0  0
  -22.1155   -9.7413   20.7749 C   0  0  0  0  0  0  0  0  0  0  0  0
  -29.7241  -26.5667   23.2846 C   0  0  0  0  0  0  0  0  0  0  0  0
  -27.0886  -21.0925   21.8239 C   0  0  0  0  0  0  0  0  0  0  0  0
  -27.1272  -22.2027   20.8208 C   0  0  0  0  0  0  0  0  0  0  0  0
  -23.2353  -10.2753   19.8873 C   0  0  0  0  0  0  0  0  0  0  0  0
  -28.2350  -26.4219   23.6037 C   0  0  0  0  0  0  0  0  0  0  0  0
  -29.9485  -27.1517   21.8920 C   0  0  0  0  0  0  0  0  0  0  0  0
  -27.7721  -26.2908   21.1203 C   0  0  0  0  0  0  0  0  0  0  0  0
  -28.3885  -21.4509   21.1538 C   0  0  0  0  0  0  0  0  0  0  0  0
  -24.5289  -10.4689   20.6878 C   0  0  1  0  0  0  0  0  0  0  0  0
  -24.6224  -14.0414   21.9768 C   0  0  1  0  0  0  0  0  0  0  0  0
  -27.4957  -25.6527   22.4924 C   0  0  2  0  0  0  0  0  0  0  0  0
  -20.8046  -20.7438   21.2660 C   0  0  0  0  0  0  0  0  0  0  0  0
  -22.0529  -14.9796   18.2515 C   0  0  0  0  0  0  0  0  0  0  0  0
  -21.1208  -17.3007   18.1408 C   0  0  0  0  0  0  0  0  0  0  0  0
  -20.1500  -15.6432   19.7324 C   0  0  0  0  0  0  0  0  0  0  0  0
  -23.6914  -20.0139   23.6345 C   0  0  0  0  0  0  0  0  0  0  0  0
  -29.7496  -24.4301   17.7546 C   0  0  0  0  0  0  0  0  0  0  0  0
  -30.1807  -23.0086   18.0682 C   0  0  0  0  0  0  0  0  0  0  0  0
  -22.4312  -16.6256   20.2043 C   0  0  1  0  0  0  0  0  0  0  0  0
  -21.7611  -19.8645   22.0564 C   0  0  2  0  0  0  0  0  0  0  0  0
  -21.4659  -16.1329   19.0895 C   0  0  0  0  0  0  0  0  0  0  0  0
  -25.1807  -26.4789   22.2896 N   0  0  0  0  0  0  0  0  0  0  0  0
  -26.0100  -25.5425   22.7812 N   0  0  0  0  0  0  0  0  0  0  0  0
  -24.1957  -15.2284   21.2331 N   0  0  0  0  0  0  0  0  0  0  0  0
  -29.2218  -26.3756   20.8843 N   0  0  0  0  0  0  0  0  0  0  0  0
  -26.0639  -23.5568   24.0715 N   0  0  0  0  0  0  0  0  0  0  0  0
  -21.6794  -24.6372   24.0048 N   0  0  0  0  0  0  0  0  0  0  0  0
  -24.4575  -11.6786   21.4789 N   0  0  0  0  0  0  0  0  0  0  0  0
  -21.8908  -17.6992   21.0312 N   0  0  0  0  0  0  0  0  0  0  0  0
  -29.1649  -25.0808   18.9059 N   0  0  0  0  0  0  0  0  0  0  0  0
  -22.7076  -20.7464   22.7962 N   0  3  0  0  0  0  0  0  0  0  0  0
  -23.2124  -23.1237   24.7910 O   0  0  0  0  0  0  0  0  0  0  0  0
  -25.1373  -13.1843   19.8378 O   0  0  0  0  0  0  0  0  0  0  0  0
  -21.9536  -14.9413   21.8048 O   0  0  0  0  0  0  0  0  0  0  0  0
  -23.5725  -19.2329   20.5876 O   0  0  0  0  0  0  0  0  0  0  0  0
  -31.1506  -25.9293   19.6765 O   0  0  0  0  0  0  0  0  0  0  0  0
  -19.4107  -29.0394   21.4537 O   0  0  0  0  0  0  0  0  0  0  0  0
  -29.9616  -16.9798   19.9138 O   0  0  0  0  0  0  0  0  0  1  0  0
  -29.0480  -22.2527   18.4919 O   0  0  0  0  0  0  0  0  0  0  0  0
  -15.7909  -30.0262   25.4944 F   0  0  0  0  0  0  0  0  0  0  0  0
  -18.1708  -26.9588   22.7865 F   0  0  0  0  0  0  0  0  0  0  0  0
  1  2  1  0  0  0  0
  1  5  2  0  0  0  0
  2  6  2  0  0  0  0
  3  8  2  0  0  0  0
  3 18  1  0  0  0  0
  4  9  1  0  0  0  0
  4 18  2  0  0  0  0
  5 20  1  0  0  0  0
  6 22  1  0  0  0  0
  7 10  2  0  0  0  0
  7 21  1  0  0  0  0
  8 25  1  0  0  0  0
  9 25  2  0  0  0  0
 10 26  1  0  0  0  0
 11 12  2  0  0  0  0
 11 27  1  0  0  0  0
 12 28  1  0  0  0  0
 13 14  2  0  0  0  0
 13 29  1  0  0  0  0
 14 30  1  0  0  0  0
 15 23  1  0  0  0  0
 15 26  2  0  0  0  0
 16 24  1  0  0  0  0
 16 27  2  0  0  0  0
 17 30  2  0  0  0  0
 17 31  1  0  0  0  0
 18 32  1  0  0  0  0
 19 32  1  0  0  0  0
 19 33  2  0  0  0  0
 19 34  1  0  0  0  0
 20 22  2  0  0  0  0
 20 39  1  0  0  0  0
 21 23  2  0  0  0  0
 21 40  1  0  0  0  0
 22 51  1  0  0  0  0
 23 41  1  0  0  0  0
 24 28  2  0  0  0  0
 24 50  1  0  0  0  0
 25 79  1  0  0  0  0
 26 80  1  0  0  0  0
 27 80  1  0  0  0  0
 28 81  1  0  0  0  0
 29 31  2  0  0  0  0
 29 79  1  0  0  0  0
 30 82  1  0  0  0  0
 31 83  1  0  0  0  0
 32 64  2  0  0  0  0
 33 65  1  0  0  0  0
 33 68  1  0  0  0  0
 34 69  1  0  0  0  0
 34 74  2  0  0  0  0
 35 52  1  0  0  0  0
 35 70  1  0  0  0  0
 35 75  2  0  0  0  0
 36 61  1  0  0  0  0
 36 66  1  0  0  0  0
 36 76  2  0  0  0  0
 37 62  1  0  0  0  0
 37 71  1  0  0  0  0
 37 77  2  0  0  0  0
 38 67  1  0  0  0  0
 38 72  1  0  0  0  0
 38 78  2  0  0  0  0
 39 42  1  0  0  0  0
 40 52  1  0  0  0  0
 41 66  1  0  0  0  0
 42 46  1  0  0  0  0
 43 47  1  0  0  0  0
 43 48  1  0  0  0  0
 44 45  1  0  0  0  0
 44 50  1  0  0  0  0
 45 50  1  0  0  0  0
 46 51  1  0  0  0  0
 47 53  1  0  0  0  0
 48 67  1  0  0  0  0
 49 53  1  0  0  0  0
 49 67  1  0  0  0  0
 51 70  1  0  0  0  0
 52 66  1  0  0  0  0
 53 65  1  0  0  0  0
 54 62  1  0  0  0  0
 55 63  1  0  0  0  0
 56 63  1  0  0  0  0
 57 63  1  0  0  0  0
 58 73  1  0  0  0  0
 59 60  1  0  0  0  0
 59 72  1  0  0  0  0
 60 81  1  0  0  0  0
 61 63  1  0  0  0  0
 61 71  1  0  0  0  0
 62 73  1  0  0  0  0
 64 65  1  0  0  0  0
M  CHG  1  73   1
M  ISO  4  27 101  38 100  72 100  80 101
M  END
> <Batch ID>
0143

> <Smiles>
CNC(C)C(=O)NC(C(=O)N1Cc2cc([101O:1][101c:1]3ccc(OCC[100NH:0][100C:0](=O)N4CCCC(n5nc(-c6ccc(Oc7ccc(F)cc7F)cc6)c(C(N)=O)c5N)C4)c(C4CC4)c3)ccc2CC1C(=O)NC1CCCc2ccccc21)C(C)(C)C

> <Shape>
0.244

> <Color>
0.070

> <Negative vol penalty>
0.000

$$$$

  -OEChem-04052321213D

 86 95  0     1  0  0  0  0  0999 V2000
  -27.4496  -37.1976   24.7811 C   0  0  0  0  0  0  0  0  0  0  0  0
  -28.0446  -36.3718   23.8327 C   0  0  0  0  0  0  0  0  0  0  0  0
  -24.6512   -8.8776   21.4521 C   0  0  0  0  0  0  0  0  0  0  0  0
  -23.0610  -10.6919   21.5808 C   0  0  0  0  0  0  0  0  0  0  0  0
  -26.5803  -36.6568   25.7275 C   0  0  0  0  0  0  0  0  0  0  0  0
  -27.7715  -35.0043   23.8309 C   0  0  0  0  0  0  0  0  0  0  0  0
  -27.0788  -29.4554   19.3537 C   0  0  0  0  0  0  0  0  0  0  0  0
  -23.9343   -8.1802   22.4243 C   0  0  0  0  0  0  0  0  0  0  0  0
  -22.3440   -9.9945   22.5530 C   0  0  0  0  0  0  0  0  0  0  0  0
  -27.5539  -28.1584   19.1643 C   0  0  0  0  0  0  0  0  0  0  0  0
  -21.1257   -6.3040   22.5810 C   0  0  0  0  0  0  0  0  0  0  0  0
  -20.8852   -4.9478   22.3608 C   0  0  0  0  0  0  0  0  0  0  0  0
  -25.9745  -27.3479   20.7976 C   0  0  0  0  0  0  0  0  0  0  0  0
  -28.3934  -22.9268   21.0984 C   0  0  0  0  0  0  0  0  0  0  0  0
  -22.0798   -4.4064   24.3899 C   0  0  0  0  0  0  0  0  0  0  0  0
  -27.2581  -22.8235   19.0111 C   0  0  0  0  0  0  0  0  0  0  0  0
  -24.2146  -10.1335   21.0304 C   0  0  0  0  0  0  0  0  0  0  0  0
  -24.7751  -10.7962   18.6315 C   0  0  0  0  0  0  0  0  0  0  0  0
  -26.2889  -35.2836   25.7313 C   0  0  0  0  0  0  0  0  0  0  0  0
  -26.0537  -29.7104   20.2759 C   0  0  0  0  0  0  0  0  0  0  0  0
  -26.8985  -34.4444   24.7792 C   0  0  0  0  0  0  0  0  0  0  0  0
  -25.4864  -28.6486   20.9949 C   0  0  0  0  0  0  0  0  0  0  0  0
  -27.5099  -23.5026   20.1923 C   0  0  0  0  0  0  0  0  0  0  0  0
  -28.9897  -21.7067   20.7999 C   0  0  0  0  0  0  0  0  0  0  0  0
  -22.7807   -8.7386   22.9747 C   0  0  0  0  0  0  0  0  0  0  0  0
  -27.0037  -27.1048   19.8884 C   0  0  0  0  0  0  0  0  0  0  0  0
  -21.8434   -6.7114   23.7056 C   0  0  0  0  0  0  0  0  0  0  0  0
  -21.3622   -3.9990   23.2652 C   0  0  0  0  0  0  0  0  0  0  0  0
  -22.3204   -5.7626   24.6100 C   0  0  0  0  0  0  0  0  0  0  0  0
  -24.9551  -10.8547   20.0265 C   0  0  0  0  0  0  0  0  0  0  0  0
  -28.6715  -21.1079   19.5916 C   0  0  0  0  0  0  0  0  0  0  0  0
  -25.7173  -11.6590   18.1273 C   0  0  0  0  0  0  0  0  0  0  0  0
  -23.8398  -10.0305   17.8605 C   0  0  0  0  0  0  0  0  0  0  0  0
  -25.8059  -31.4351   22.9344 C   0  0  0  0  0  0  0  0  0  0  0  0
  -22.6819  -30.5858   22.7300 C   0  0  0  0  0  0  0  0  0  0  0  0
  -20.3484  -28.3834   21.5679 C   0  0  0  0  0  0  0  0  0  0  0  0
  -28.1595  -16.5725   18.2498 C   0  0  0  0  0  0  0  0  0  0  0  0
  -25.3797  -34.7374   26.8036 C   0  0  0  0  0  0  0  0  0  0  0  0
  -25.5340  -31.1112   20.4490 C   0  0  0  0  0  0  0  0  0  0  0  0
  -24.3701  -28.8664   21.9823 C   0  0  0  0  0  0  0  0  0  0  0  0
  -24.8514  -33.3379   26.4995 C   0  0  0  0  0  0  0  0  0  0  0  0
  -29.6310  -13.9406   20.3263 C   0  0  0  0  0  0  0  0  0  0  0  0
  -25.9831  -32.4313   26.0261 C   0  0  0  0  0  0  0  0  0  0  0  0
  -28.4927  -12.9265   20.3678 C   0  0  0  0  0  0  0  0  0  0  0  0
  -29.1251  -15.3826   20.2774 C   0  0  0  0  0  0  0  0  0  0  0  0
  -28.8829  -18.4364   19.8878 C   0  0  0  0  0  0  0  0  0  0  0  0
  -27.0107  -14.6111   19.2239 C   0  0  0  0  0  0  0  0  0  0  0  0
  -26.6079  -32.9601   24.7294 C   0  0  1  0  0  0  0  0  0  0  0  0
  -29.2724  -19.7169   19.1147 C   0  0  1  0  0  0  0  0  0  0  0  0
  -24.8388  -31.3292   21.7894 C   0  0  1  0  0  0  0  0  0  0  0  0
  -27.5194  -13.1631   19.2033 C   0  0  2  0  0  0  0  0  0  0  0  0
  -28.6855  -19.0362   17.8504 C   0  0  1  0  0  0  0  0  0  0  0  0
  -29.9378  -21.0761   21.7587 C   0  0  0  0  0  0  0  0  0  0  0  0
  -17.8799  -27.9322   21.5948 C   0  0  0  0  0  0  0  0  0  0  0  0
  -30.4097  -20.2798   14.5642 C   0  0  0  0  0  0  0  0  0  0  0  0
  -28.0615  -20.6037   15.3668 C   0  0  0  0  0  0  0  0  0  0  0  0
  -22.9038  -29.5568   25.5939 C   0  0  0  0  0  0  0  0  0  0  0  0
  -20.7710  -28.2963   25.2322 C   0  0  0  0  0  0  0  0  0  0  0  0
  -20.7856  -30.7866   25.0884 C   0  0  0  0  0  0  0  0  0  0  0  0
  -20.1552  -28.6214   18.6242 C   0  0  0  0  0  0  0  0  0  0  0  0
  -26.8559  -24.8066   20.4820 C   0  0  0  0  0  0  0  0  0  1  0  0
  -29.5707  -19.0266   16.6205 C   0  0  0  0  0  0  0  0  0  0  0  0
  -21.8522  -29.4320   23.2392 C   0  0  1  0  0  0  0  0  0  0  0  0
  -19.0270  -28.6001   20.8526 C   0  0  2  0  0  0  0  0  0  0  0  0
  -29.5043  -20.3270   15.7958 C   0  0  0  0  0  0  0  0  0  0  0  0
  -21.6005  -29.5138   24.7713 C   0  0  0  0  0  0  0  0  0  0  0  0
  -27.8181  -21.6368   18.6862 N   0  0  0  0  0  0  0  0  0  0  0  0
  -25.9347  -11.6886   20.3855 N   0  0  0  0  0  0  0  0  0  0  0  0
  -26.3789  -12.1620   19.2087 N   0  0  0  0  0  0  0  0  0  0  0  0
  -23.9006  -30.2549   22.1208 N   0  0  0  0  0  0  0  0  0  0  0  0
  -28.1151  -15.5757   19.2313 N   0  0  0  0  0  0  0  0  0  0  0  0
  -28.7574  -17.7727   18.5926 N   0  0  0  0  0  0  0  0  0  0  0  0
  -26.0363  -12.0288   16.8687 N   0  0  0  0  0  0  0  0  0  0  0  0
  -22.9418   -9.1943   18.5378 N   0  0  0  0  0  0  0  0  0  0  0  0
  -25.7630  -32.6470   23.5969 N   0  0  0  0  0  0  0  0  0  0  0  0
  -20.6358  -29.4173   22.4338 N   0  0  0  0  0  0  0  0  0  0  0  0
  -19.0859  -28.0370   19.4740 N   0  3  0  0  0  0  0  0  0  0  0  0
  -23.8124  -10.0736   16.6071 O   0  0  0  0  0  0  0  0  0  0  0  0
  -26.5359  -30.4869   23.1983 O   0  0  0  0  0  0  0  0  0  0  0  0
  -22.2609  -31.7378   22.8614 O   0  0  0  0  0  0  0  0  0  0  0  0
  -21.0530  -27.3941   21.3802 O   0  0  0  0  0  0  0  0  0  0  0  0
  -27.6642  -16.4137   17.1273 O   0  0  0  0  0  0  0  0  0  0  0  0
  -22.0807   -8.0582   23.9233 O   0  0  0  0  0  0  0  0  0  0  0  0
  -27.4690  -25.8299   19.7048 O   0  0  0  0  0  0  0  0  0  1  0  0
  -21.1298   -2.6968   23.0544 F   0  0  0  0  0  0  0  0  0  0  0  0
  -23.0094   -6.1481   25.6929 F   0  0  0  0  0  0  0  0  0  0  0  0
  1  2  1  0  0  0  0
  1  5  2  0  0  0  0
  2  6  2  0  0  0  0
  3  8  2  0  0  0  0
  3 17  1  0  0  0  0
  4  9  1  0  0  0  0
  4 17  2  0  0  0  0
  5 19  1  0  0  0  0
  6 21  1  0  0  0  0
  7 10  2  0  0  0  0
  7 20  1  0  0  0  0
  8 25  1  0  0  0  0
  9 25  2  0  0  0  0
 10 26  1  0  0  0  0
 11 12  2  0  0  0  0
 11 27  1  0  0  0  0
 12 28  1  0  0  0  0
 13 22  1  0  0  0  0
 13 26  2  0  0  0  0
 14 23  2  0  0  0  0
 14 24  1  0  0  0  0
 15 28  2  0  0  0  0
 15 29  1  0  0  0  0
 16 23  1  0  0  0  0
 16 67  2  0  0  0  0
 17 30  1  0  0  0  0
 18 30  1  0  0  0  0
 18 32  2  0  0  0  0
 18 33  1  0  0  0  0
 19 21  2  0  0  0  0
 19 38  1  0  0  0  0
 20 22  2  0  0  0  0
 20 39  1  0  0  0  0
 21 48  1  0  0  0  0
 22 40  1  0  0  0  0
 23 61  1  0  0  0  0
 24 31  2  0  0  0  0
 24 53  1  0  0  0  0
 25 83  1  0  0  0  0
 26 84  1  0  0  0  0
 27 29  2  0  0  0  0
 27 83  1  0  0  0  0
 28 85  1  0  0  0  0
 29 86  1  0  0  0  0
 30 68  2  0  0  0  0
 31 49  1  0  0  0  0
 31 67  1  0  0  0  0
 32 69  1  0  0  0  0
 32 73  1  0  0  0  0
 33 74  1  0  0  0  0
 33 78  2  0  0  0  0
 34 50  1  0  0  0  0
 34 75  1  0  0  0  0
 34 79  2  0  0  0  0
 35 63  1  0  0  0  0
 35 70  1  0  0  0  0
 35 80  2  0  0  0  0
 36 64  1  0  0  0  0
 36 76  1  0  0  0  0
 36 81  2  0  0  0  0
 37 71  1  0  0  0  0
 37 72  1  0  0  0  0
 37 82  2  0  0  0  0
 38 41  1  0  0  0  0
 39 50  1  0  0  0  0
 40 70  1  0  0  0  0
 41 43  1  0  0  0  0
 42 44  1  0  0  0  0
 42 45  1  0  0  0  0
 43 48  1  0  0  0  0
 44 51  1  0  0  0  0
 45 71  1  0  0  0  0
 46 49  1  0  0  0  0
 46 72  1  0  0  0  0
 47 51  1  0  0  0  0
 47 71  1  0  0  0  0
 48 75  1  0  0  0  0
 49 52  1  0  0  0  0
 50 70  1  0  0  0  0
 51 69  1  0  0  0  0
 52 62  1  0  0  0  0
 52 72  1  0  0  0  0
 54 64  1  0  0  0  0
 55 65  1  0  0  0  0
 56 65  1  0  0  0  0
 57 66  1  0  0  0  0
 58 66  1  0  0  0  0
 59 66  1  0  0  0  0
 60 77  1  0  0  0  0
 61 84  1  0  0  0  0
 62 65  1  0  0  0  0
 63 66  1  0  0  0  0
 63 76  1  0  0  0  0
 64 77  1  0  0  0  0
 68 69  1  0  0  0  0
M  CHG  1  77   1
M  ISO  4  37 100  61 101  72 100  84 101
M  END
> <Batch ID>
0143

> <Smiles>
CNC(C)C(=O)NC(C(=O)N1Cc2cc([101O:1][101CH2:1]c3cnc(C4C[100N:0]([100C:0](=O)N5CCCC(n6nc(-c7ccc(Oc8ccc(F)cc8F)cc7)c(C(N)=O)c6N)C5)C4CC(C)C)c(C)c3)ccc2CC1C(=O)NC1CCCc2ccccc21)C(C)(C)C

> <Shape>
0.331

> <Color>
0.099

> <Negative vol penalty>
0.000

$$$$

  -OEChem-04052321213D

 91100  0     1  0  0  0  0  0999 V2000
  -26.4971  -35.5739   18.2419 C   0  0  0  0  0  0  0  0  0  0  0  0
  -27.3191  -34.4609   18.0969 C   0  0  0  0  0  0  0  0  0  0  0  0
  -24.4916   -9.4071   21.6297 C   0  0  0  0  0  0  0  0  0  0  0  0
  -22.7303  -10.5346   20.4198 C   0  0  0  0  0  0  0  0  0  0  0  0
  -25.5624  -35.6188   19.2754 C   0  0  0  0  0  0  0  0  0  0  0  0
  -27.2076  -33.3926   18.9861 C   0  0  0  0  0  0  0  0  0  0  0  0
  -27.8391  -26.2620   19.2532 C   0  0  0  0  0  0  0  0  0  0  0  0
  -23.6558   -8.3069   21.8211 C   0  0  0  0  0  0  0  0  0  0  0  0
  -21.8945   -9.4344   20.6112 C   0  0  0  0  0  0  0  0  0  0  0  0
  -28.4826  -25.2643   19.9842 C   0  0  0  0  0  0  0  0  0  0  0  0
  -22.5787   -5.6542   20.0222 C   0  0  0  0  0  0  0  0  0  0  0  0
  -23.1153   -4.3860   19.8000 C   0  0  0  0  0  0  0  0  0  0  0  0
  -26.7777  -25.4184   21.6839 C   0  0  0  0  0  0  0  0  0  0  0  0
  -29.8977  -16.4515   18.3240 C   0  0  0  0  0  0  0  0  0  0  0  0
  -30.7359  -18.2603   19.6888 C   0  0  0  0  0  0  0  0  0  0  0  0
  -22.6440   -3.7850   22.0921 C   0  0  0  0  0  0  0  0  0  0  0  0
  -24.0288  -10.5210   20.9291 C   0  0  0  0  0  0  0  0  0  0  0  0
  -25.7722  -11.8802   19.6561 C   0  0  0  0  0  0  0  0  0  0  0  0
  -25.4327  -34.5464   20.1719 C   0  0  0  0  0  0  0  0  0  0  0  0
  -26.6640  -26.8540   19.7381 C   0  0  0  0  0  0  0  0  0  0  0  0
  -26.2712  -33.4238   20.0334 C   0  0  0  0  0  0  0  0  0  0  0  0
  -26.1198  -26.4215   20.9559 C   0  0  0  0  0  0  0  0  0  0  0  0
  -28.6104  -18.4822   18.5618 C   0  0  0  0  0  0  0  0  0  0  0  0
  -30.8856  -16.9805   19.1546 C   0  0  0  0  0  0  0  0  0  0  0  0
  -28.7601  -17.2024   18.0276 C   0  0  0  0  0  0  0  0  0  0  0  0
  -22.3573   -8.3205   21.3118 C   0  0  0  0  0  0  0  0  0  0  0  0
  -27.9536  -24.8444   21.2011 C   0  0  0  0  0  0  0  0  0  0  0  0
  -22.0747   -5.9878   21.2793 C   0  0  0  0  0  0  0  0  0  0  0  0
  -29.5983  -19.0111   19.3924 C   0  0  0  0  0  0  0  0  0  0  0  0
  -23.1480   -3.4514   20.8349 C   0  0  0  0  0  0  0  0  0  0  0  0
  -22.1074   -5.0532   22.3143 C   0  0  0  0  0  0  0  0  0  0  0  0
  -24.8915  -11.6580   20.7316 C   0  0  0  0  0  0  0  0  0  0  0  0
  -26.3555  -13.0921   19.9347 C   0  0  0  0  0  0  0  0  0  0  0  0
  -26.0392  -11.0642   18.5079 C   0  0  0  0  0  0  0  0  0  0  0  0
  -25.8216  -29.7986   20.5887 C   0  0  0  0  0  0  0  0  0  0  0  0
  -22.8823  -28.4563   20.8736 C   0  0  0  0  0  0  0  0  0  0  0  0
  -21.0187  -25.6392   21.3616 C   0  0  0  0  0  0  0  0  0  0  0  0
  -26.0039  -18.3950   21.6191 C   0  0  0  0  0  0  0  0  0  0  0  0
  -24.4405  -34.6608   21.3020 C   0  0  0  0  0  0  0  0  0  0  0  0
  -25.9673  -27.9101   18.9248 C   0  0  0  0  0  0  0  0  0  0  0  0
  -24.8496  -27.0108   21.5107 C   0  0  0  0  0  0  0  0  0  0  0  0
  -24.1278  -33.3270   21.9754 C   0  0  0  0  0  0  0  0  0  0  0  0
  -26.2572  -15.9051   24.1387 C   0  0  0  0  0  0  0  0  0  0  0  0
  -25.4143  -32.5588   22.2612 C   0  0  0  0  0  0  0  0  0  0  0  0
  -25.9954  -14.5968   23.3905 C   0  0  0  0  0  0  0  0  0  0  0  0
  -27.8153  -20.5676   17.4964 C   0  0  0  0  0  0  0  0  0  0  0  0
  -25.4198  -20.5597   19.2171 C   0  0  0  0  0  0  0  0  0  0  0  0
  -25.3939  -17.0446   23.6017 C   0  0  0  0  0  0  0  0  0  0  0  0
  -25.2260  -15.9548   21.3994 C   0  0  0  0  0  0  0  0  0  0  0  0
  -27.3924  -19.2911   18.2480 C   0  0  2  0  0  0  0  0  0  0  0  0
  -26.1632  -32.2345   20.9630 C   0  0  1  0  0  0  0  0  0  0  0  0
  -25.0572  -28.8046   19.7609 C   0  0  1  0  0  0  0  0  0  0  0  0
  -26.6170  -21.4790   17.1766 C   0  0  1  0  0  0  0  0  0  0  0  0
  -25.8437  -21.8354   18.4683 C   0  0  1  0  0  0  0  0  0  0  0  0
  -26.1138  -14.7885   21.8663 C   0  0  2  0  0  0  0  0  0  0  0  0
  -26.6124  -19.6515   19.5312 C   0  0  2  0  0  0  0  0  0  0  0  0
  -32.1023  -16.1780   19.4703 C   0  0  0  0  0  0  0  0  0  0  0  0
  -27.7174  -16.6138   17.1345 C   0  0  0  0  0  0  0  0  0  0  0  0
  -27.1115  -22.7202   16.4276 C   0  0  0  0  0  0  0  0  0  0  0  0
  -24.6052  -22.6939   18.1931 C   0  0  0  0  0  0  0  0  0  0  0  0
  -18.9657  -24.2066   21.5352 C   0  0  0  0  0  0  0  0  0  0  0  0
  -22.7850  -29.5729   23.7115 C   0  0  0  0  0  0  0  0  0  0  0  0
  -20.8899  -28.0077   24.1877 C   0  0  0  0  0  0  0  0  0  0  0  0
  -20.6410  -29.7692   22.4391 C   0  0  0  0  0  0  0  0  0  0  0  0
  -21.0422  -25.0516   18.4610 C   0  0  0  0  0  0  0  0  0  0  0  0
  -29.3274  -21.5772   21.9425 C   0  0  0  0  0  0  0  0  0  0  0  0
  -29.3129  -22.8930   21.1805 C   0  0  0  0  0  0  0  0  0  1  0  0
  -30.0809  -20.4920   21.1896 C   0  0  0  0  0  0  0  0  0  0  0  0
  -22.1227  -27.7718   21.9842 C   0  0  1  0  0  0  0  0  0  0  0  0
  -19.8047  -25.0954   20.6302 C   0  0  2  0  0  0  0  0  0  0  0  0
  -21.6347  -28.7705   23.0714 C   0  0  0  0  0  0  0  0  0  0  0  0
  -24.9104  -12.6491   21.6268 N   0  0  0  0  0  0  0  0  0  0  0  0
  -25.8102  -13.5058   21.1144 N   0  0  0  0  0  0  0  0  0  0  0  0
  -24.2089  -28.0449   20.6814 N   0  0  0  0  0  0  0  0  0  0  0  0
  -25.5586  -17.1749   22.1517 N   0  0  0  0  0  0  0  0  0  0  0  0
  -27.2766  -13.8335   19.2833 N   0  0  0  0  0  0  0  0  0  0  0  0
  -25.3523   -9.8495   18.3772 N   0  0  0  0  0  0  0  0  0  0  0  0
  -25.5407  -31.1172   20.2859 N   0  0  0  0  0  0  0  0  0  0  0  0
  -21.0518  -27.0176   21.3418 N   0  0  0  0  0  0  0  0  0  0  0  0
  -26.1447  -18.4402   20.2359 N   0  0  0  0  0  0  0  0  0  0  0  0
  -20.2285  -24.2947   19.4469 N   0  3  0  0  0  0  0  0  0  0  0  0
  -26.8745  -11.3944   17.6322 O   0  0  0  0  0  0  0  0  0  0  0  0
  -26.6070  -29.3987   21.4402 O   0  0  0  0  0  0  0  0  0  0  0  0
  -22.3172  -29.3189   20.1967 O   0  0  0  0  0  0  0  0  0  0  0  0
  -21.8522  -24.9140   21.9000 O   0  0  0  0  0  0  0  0  0  0  0  0
  -26.2674  -19.3771   22.3214 O   0  0  0  0  0  0  0  0  0  0  0  0
  -21.5416   -7.2470   21.4981 O   0  0  0  0  0  0  0  0  0  0  0  0
  -28.5800  -23.8712   21.9169 O   0  0  0  0  0  0  0  0  0  1  0  0
  -29.4680  -20.2663   19.9274 O   0  0  0  0  0  0  0  0  0  0  0  0
  -23.6620   -2.2331   20.6210 F   0  0  0  0  0  0  0  0  0  0  0  0
  -21.6237   -5.3675   23.5238 F   0  0  0  0  0  0  0  0  0  0  0  0
  1  2  1  0  0  0  0
  1  5  2  0  0  0  0
  2  6  2  0  0  0  0
  3  8  2  0  0  0  0
  3 17  1  0  0  0  0
  4  9  1  0  0  0  0
  4 17  2  0  0  0  0
  5 19  1  0  0  0  0
  6 21  1  0  0  0  0
  7 10  2  0  0  0  0
  7 20  1  0  0  0  0
  8 26  1  0  0  0  0
  9 26  2  0  0  0  0
 10 27  1  0  0  0  0
 11 12  2  0  0  0  0
 11 28  1  0  0  0  0
 12 30  1  0  0  0  0
 13 22  1  0  0  0  0
 13 27  2  0  0  0  0
 14 24  1  0  0  0  0
 14 25  2  0  0  0  0
 15 24  2  0  0  0  0
 15 29  1  0  0  0  0
 16 30  2  0  0  0  0
 16 31  1  0  0  0  0
 17 32  1  0  0  0  0
 18 32  1  0  0  0  0
 18 33  2  0  0  0  0
 18 34  1  0  0  0  0
 19 21  2  0  0  0  0
 19 39  1  0  0  0  0
 20 22  2  0  0  0  0
 20 40  1  0  0  0  0
 21 51  1  0  0  0  0
 22 41  1  0  0  0  0
 23 25  1  0  0  0  0
 23 29  2  0  0  0  0
 23 50  1  0  0  0  0
 24 57  1  0  0  0  0
 25 58  1  0  0  0  0
 26 87  1  0  0  0  0
 27 88  1  0  0  0  0
 28 31  2  0  0  0  0
 28 87  1  0  0  0  0
 29 89  1  0  0  0  0
 30 90  1  0  0  0  0
 31 91  1  0  0  0  0
 32 72  2  0  0  0  0
 33 73  1  0  0  0  0
 33 76  1  0  0  0  0
 34 77  1  0  0  0  0
 34 82  2  0  0  0  0
 35 52  1  0  0  0  0
 35 78  1  0  0  0  0
 35 83  2  0  0  0  0
 36 69  1  0  0  0  0
 36 74  1  0  0  0  0
 36 84  2  0  0  0  0
 37 70  1  0  0  0  0
 37 79  1  0  0  0  0
 37 85  2  0  0  0  0
 38 75  1  0  0  0  0
 38 80  1  0  0  0  0
 38 86  2  0  0  0  0
 39 42  1  0  0  0  0
 40 52  1  0  0  0  0
 41 74  1  0  0  0  0
 42 44  1  0  0  0  0
 43 45  1  0  0  0  0
 43 48  1  0  0  0  0
 44 51  1  0  0  0  0
 45 55  1  0  0  0  0
 46 50  1  0  0  0  0
 46 53  1  0  0  0  0
 47 54  1  0  0  0  0
 47 56  1  0  0  0  0
 48 75  1  0  0  0  0
 49 55  1  0  0  0  0
 49 75  1  0  0  0  0
 50 56  1  0  0  0  0
 51 78  1  0  0  0  0
 52 74  1  0  0  0  0
 53 54  1  0  0  0  0
 53 59  1  0  0  0  0
 54 60  1  0  0  0  0
 55 73  1  0  0  0  0
 56 80  1  0  0  0  0
 61 70  1  0  0  0  0
 62 71  1  0  0  0  0
 63 71  1  0  0  0  0
 64 71  1  0  0  0  0
 65 81  1  0  0  0  0
 66 67  1  0  0  0  0
 66 68  1  0  0  0  0
 67 88  1  0  0  0  0
 68 89  1  0  0  0  0
 69 71  1  0  0  0  0
 69 79  1  0  0  0  0
 70 81  1  0  0  0  0
 72 73  1  0  0  0  0
M  CHG  1  81   1
M  ISO  4  38 100  67 101  80 100  88 101
M  END
> <Batch ID>
0143

> <Smiles>
CNC(C)C(=O)NC(C(=O)N1Cc2cc([101O:1][101CH2:1]CCOc3cc(C)cc(C)c3C3CC(C)C(C)CC3[100NH:0][100C:0](=O)N3CCCC(n4nc(-c5ccc(Oc6ccc(F)cc6F)cc5)c(C(N)=O)c4N)C3)ccc2CC1C(=O)NC1CCCc2ccccc21)C(C)(C)C

> <Shape>
0.259

> <Color>
0.080

> <Negative vol penalty>
0.000

$$$$

  -OEChem-04052321213D

 89 99  0     1  0  0  0  0  0999 V2000
  -30.6174  -24.8757   14.4354 C   0  0  0  0  0  0  0  0  0  0  0  0
  -19.1663  -30.7898   24.8983 C   0  0  0  0  0  0  0  0  0  0  0  0
  -20.5197  -30.5492   24.6844 C   0  0  0  0  0  0  0  0  0  0  0  0
  -29.9522  -26.0904   14.3247 C   0  0  0  0  0  0  0  0  0  0  0  0
  -30.7477  -24.2750   15.6842 C   0  0  0  0  0  0  0  0  0  0  0  0
  -23.1627  -10.5518   21.8397 C   0  0  0  0  0  0  0  0  0  0  0  0
  -24.7569   -8.7650   21.5195 C   0  0  0  0  0  0  0  0  0  0  0  0
  -18.2121  -29.9337   24.3502 C   0  0  0  0  0  0  0  0  0  0  0  0
  -20.9198  -29.4515   23.9231 C   0  0  0  0  0  0  0  0  0  0  0  0
  -25.7525  -29.1357   20.1747 C   0  0  0  0  0  0  0  0  0  0  0  0
  -29.4189  -26.7013   15.4623 C   0  0  0  0  0  0  0  0  0  0  0  0
  -22.1170   -9.6313   21.7705 C   0  0  0  0  0  0  0  0  0  0  0  0
  -23.7113   -7.8444   21.4503 C   0  0  0  0  0  0  0  0  0  0  0  0
  -27.0355  -28.6158   20.3402 C   0  0  0  0  0  0  0  0  0  0  0  0
  -21.6650   -6.2352   23.6053 C   0  0  0  0  0  0  0  0  0  0  0  0
  -21.8010   -5.0471   24.3233 C   0  0  0  0  0  0  0  0  0  0  0  0
  -26.3275  -26.5551   19.3050 C   0  0  0  0  0  0  0  0  0  0  0  0
  -21.6177   -3.7857   22.2708 C   0  0  0  0  0  0  0  0  0  0  0  0
  -30.2111  -24.8897   16.8283 C   0  0  0  0  0  0  0  0  0  0  0  0
  -24.4826  -10.1187   21.7141 C   0  0  0  0  0  0  0  0  0  0  0  0
  -26.2579  -11.4822   22.9376 C   0  0  0  0  0  0  0  0  0  0  0  0
  -18.6003  -28.8305   23.5737 C   0  0  0  0  0  0  0  0  0  0  0  0
  -24.7428  -28.3640   19.5820 C   0  0  0  0  0  0  0  0  0  0  0  0
  -19.9699  -28.5791   23.3652 C   0  0  0  0  0  0  0  0  0  0  0  0
  -25.0332  -27.0685   19.1308 C   0  0  0  0  0  0  0  0  0  0  0  0
  -30.3278  -24.3071   18.0976 C   0  0  0  0  0  0  0  0  0  0  0  0
  -29.7870  -24.9391   19.2080 C   0  0  0  0  0  0  0  0  0  0  0  0
  -29.5344  -26.1229   16.7234 C   0  0  0  0  0  0  0  0  0  0  0  0
  -22.3913   -8.2776   21.5759 C   0  0  0  0  0  0  0  0  0  0  0  0
  -27.3224  -27.3243   19.9079 C   0  0  0  0  0  0  0  0  0  0  0  0
  -21.5053   -6.1986   22.2201 C   0  0  0  0  0  0  0  0  0  0  0  0
  -21.7774   -3.8224   23.6561 C   0  0  0  0  0  0  0  0  0  0  0  0
  -21.4817   -4.9739   21.5528 C   0  0  0  0  0  0  0  0  0  0  0  0
  -25.5632  -11.0692   21.7849 C   0  0  0  0  0  0  0  0  0  0  0  0
  -29.1428  -26.1429   19.0063 C   0  0  0  0  0  0  0  0  0  1  0  0
  -27.1815  -12.3879   22.4758 C   0  0  0  0  0  0  0  0  0  0  0  0
  -26.0840  -11.0828   24.3036 C   0  0  0  0  0  0  0  0  0  0  0  0
  -21.9321  -27.2299   20.5399 C   0  0  0  0  0  0  0  0  0  0  0  0
  -21.6885  -26.3041   17.4406 C   0  0  0  0  0  0  0  0  0  0  0  0
  -23.2686  -25.4911   14.5270 C   0  0  0  0  0  0  0  0  0  0  0  0
  -28.0950  -16.8774   19.2662 C   0  0  0  0  0  0  0  0  0  0  0  0
  -17.5341  -27.9062   23.0414 C   0  0  0  0  0  0  0  0  0  0  0  0
  -23.3710  -28.9490   19.3865 C   0  0  0  0  0  0  0  0  0  0  0  0
  -23.9898  -26.2065   18.4699 C   0  0  0  0  0  0  0  0  0  0  0  0
  -18.0290  -26.9789   21.9344 C   0  0  0  0  0  0  0  0  0  0  0  0
  -28.6169  -13.5266   17.7645 C   0  0  0  0  0  0  0  0  0  0  0  0
  -19.3604  -26.3449   22.3246 C   0  0  0  0  0  0  0  0  0  0  0  0
  -27.8824  -12.6321   18.7642 C   0  0  0  0  0  0  0  0  0  0  0  0
  -31.2196  -18.0830   17.7511 C   0  0  0  0  0  0  0  0  0  0  0  0
  -27.9709  -14.9039   17.6886 C   0  0  0  0  0  0  0  0  0  0  0  0
  -30.1996  -16.9499   17.8034 C   0  0  0  0  0  0  0  0  0  0  0  0
  -27.1416  -14.7232   20.0031 C   0  0  0  0  0  0  0  0  0  0  0  0
  -29.1567  -18.9919   18.5258 C   0  0  0  0  0  0  0  0  0  0  0  0
  -20.4425  -27.4129   22.5244 C   0  0  1  0  0  0  0  0  0  0  0  0
  -22.2849  -27.8883   19.2361 C   0  0  1  0  0  0  0  0  0  0  0  0
  -27.7554  -13.3182   20.1366 C   0  0  1  0  0  0  0  0  0  0  0  0
  -30.3210  -19.3018   17.6029 C   0  0  1  0  0  0  0  0  0  0  0  0
  -29.8931  -24.3455   20.5720 C   0  0  0  0  0  0  0  0  0  0  0  0
  -22.8051  -24.7396   12.1779 C   0  0  0  0  0  0  0  0  0  0  0  0
  -21.1148  -23.4853   18.4581 C   0  0  0  0  0  0  0  0  0  0  0  0
  -21.6030  -22.6302   16.1563 C   0  0  0  0  0  0  0  0  0  0  0  0
  -19.7024  -24.2036   16.5233 C   0  0  0  0  0  0  0  0  0  0  0  0
  -24.5211  -27.9152   13.3808 C   0  0  0  0  0  0  0  0  0  0  0  0
  -31.0337  -22.9962   18.2904 C   0  0  0  0  0  0  0  0  0  0  0  0
  -30.2222  -21.7863   17.8383 C   0  0  0  0  0  0  0  0  0  0  0  0
  -22.0733  -25.0707   16.6598 C   0  0  1  0  0  0  0  0  0  0  0  0
  -23.0294  -25.9324   13.0943 C   0  0  2  0  0  0  0  0  0  0  0  0
  -21.1427  -23.8627   16.9635 C   0  0  0  0  0  0  0  0  0  0  0  0
  -29.0086  -26.7386   17.7992 N   0  0  0  0  0  0  0  0  0  0  0  0
  -26.0073  -11.6638   20.6744 N   0  0  0  0  0  0  0  0  0  0  0  0
  -26.9910  -12.4597   21.1272 N   0  0  0  0  0  0  0  0  0  0  0  0
  -22.6619  -26.8211   18.3071 N   0  0  0  0  0  0  0  0  0  0  0  0
  -27.8752  -15.5182   19.0158 N   0  0  0  0  0  0  0  0  0  0  0  0
  -29.0340  -17.5359   18.4735 N   0  0  0  0  0  0  0  0  0  0  0  0
  -28.1298  -13.1219   23.0958 N   0  0  0  0  0  0  0  0  0  0  0  0
  -25.0890  -10.1424   24.6032 N   0  0  0  0  0  0  0  0  0  0  0  0
  -20.9362  -27.8775   21.2458 N   0  0  0  0  0  0  0  0  0  0  0  0
  -22.0985  -25.4675   15.2561 N   0  0  0  0  0  0  0  0  0  0  0  0
  -31.0174  -20.5340   18.0075 N   0  3  0  0  0  0  0  0  0  0  0  0
  -24.2009  -26.7012   12.5867 N   0  3  0  0  0  0  0  0  0  0  0  0
  -26.7791  -11.5585   25.2332 O   0  0  0  0  0  0  0  0  0  0  0  0
  -22.5188  -26.2091   20.8795 O   0  0  0  0  0  0  0  0  0  0  0  0
  -20.5680  -26.7951   17.2819 O   0  0  0  0  0  0  0  0  0  0  0  0
  -24.3814  -25.1933   14.9553 O   0  0  0  0  0  0  0  0  0  0  0  0
  -27.5145  -17.4651   20.1885 O   0  0  0  0  0  0  0  0  0  0  0  0
  -21.3712   -7.3790   21.5086 O   0  0  0  0  0  0  0  0  0  0  0  0
  -28.5917  -26.8068   20.0711 O   0  0  0  0  0  0  0  0  0  1  0  0
  -21.9096   -2.6816   24.3455 F   0  0  0  0  0  0  0  0  0  0  0  0
  -21.3297   -4.9324   20.2221 F   0  0  0  0  0  0  0  0  0  0  0  0
  1  4  1  0  0  0  0
  1  5  2  0  0  0  0
  2  3  1  0  0  0  0
  2  8  2  0  0  0  0
  3  9  2  0  0  0  0
  4 11  2  0  0  0  0
  5 19  1  0  0  0  0
  6 12  2  0  0  0  0
  6 20  1  0  0  0  0
  7 13  1  0  0  0  0
  7 20  2  0  0  0  0
  8 22  1  0  0  0  0
  9 24  1  0  0  0  0
 10 14  2  0  0  0  0
 10 23  1  0  0  0  0
 11 28  1  0  0  0  0
 12 29  1  0  0  0  0
 13 29  2  0  0  0  0
 14 30  1  0  0  0  0
 15 16  2  0  0  0  0
 15 31  1  0  0  0  0
 16 32  1  0  0  0  0
 17 25  1  0  0  0  0
 17 30  2  0  0  0  0
 18 32  2  0  0  0  0
 18 33  1  0  0  0  0
 19 26  2  0  0  0  0
 19 28  1  0  0  0  0
 20 34  1  0  0  0  0
 21 34  1  0  0  0  0
 21 36  2  0  0  0  0
 21 37  1  0  0  0  0
 22 24  2  0  0  0  0
 22 42  1  0  0  0  0
 23 25  2  0  0  0  0
 23 43  1  0  0  0  0
 24 54  1  0  0  0  0
 25 44  1  0  0  0  0
 26 27  1  0  0  0  0
 26 64  1  0  0  0  0
 27 35  2  0  0  0  0
 27 58  1  0  0  0  0
 28 69  2  0  0  0  0
 29 86  1  0  0  0  0
 30 87  1  0  0  0  0
 31 33  2  0  0  0  0
 31 86  1  0  0  0  0
 32 88  1  0  0  0  0
 33 89  1  0  0  0  0
 34 70  2  0  0  0  0
 35 69  1  0  0  0  0
 35 87  1  0  0  0  0
 36 71  1  0  0  0  0
 36 75  1  0  0  0  0
 37 76  1  0  0  0  0
 37 81  2  0  0  0  0
 38 55  1  0  0  0  0
 38 77  1  0  0  0  0
 38 82  2  0  0  0  0
 39 66  1  0  0  0  0
 39 72  1  0  0  0  0
 39 83  2  0  0  0  0
 40 67  1  0  0  0  0
 40 78  1  0  0  0  0
 40 84  2  0  0  0  0
 41 73  1  0  0  0  0
 41 74  1  0  0  0  0
 41 85  2  0  0  0  0
 42 45  1  0  0  0  0
 43 55  1  0  0  0  0
 44 72  1  0  0  0  0
 45 47  1  0  0  0  0
 46 48  1  0  0  0  0
 46 50  1  0  0  0  0
 47 54  1  0  0  0  0
 48 56  1  0  0  0  0
 49 51  1  0  0  0  0
 49 57  1  0  0  0  0
 50 73  1  0  0  0  0
 51 74  1  0  0  0  0
 52 56  1  0  0  0  0
 52 73  1  0  0  0  0
 53 57  1  0  0  0  0
 53 74  1  0  0  0  0
 54 77  1  0  0  0  0
 55 72  1  0  0  0  0
 56 71  1  0  0  0  0
 57 79  1  0  0  0  0
 59 67  1  0  0  0  0
 60 68  1  0  0  0  0
 61 68  1  0  0  0  0
 62 68  1  0  0  0  0
 63 80  1  0  0  0  0
 64 65  1  0  0  0  0
 65 79  1  0  0  0  0
 66 68  1  0  0  0  0
 66 78  1  0  0  0  0
 67 80  1  0  0  0  0
 70 71  1  0  0  0  0
M  CHG  2  79   1  80   1
M  ISO  4  35 101  41 100  74 100  87 101
M  END
> <Batch ID>
0143

> <Smiles>
CNC(C)C(=O)NC(C(=O)N1Cc2cc([101O:1][101c:1]3nc4ccccc4c(CCNC4CC[100N:0]([100C:0](=O)N5CCCC(n6nc(-c7ccc(Oc8ccc(F)cc8F)cc7)c(C(N)=O)c6N)C5)C4)c3C)ccc2CC1C(=O)NC1CCCc2ccccc21)C(C)(C)C

> <Shape>
0.286

> <Color>
0.110

> <Negative vol penalty>
0.000

$$$$

  -OEChem-04052321213D

 83 91  0     1  0  0  0  0  0999 V2000
  -17.7961  -28.4283   22.2358 C   0  0  0  0  0  0  0  0  0  0  0  0
  -18.4810  -27.2548   21.9372 C   0  0  0  0  0  0  0  0  0  0  0  0
  -23.7247   -9.8085   21.8305 C   0  0  0  0  0  0  0  0  0  0  0  0
  -24.2965  -11.0680   23.8113 C   0  0  0  0  0  0  0  0  0  0  0  0
  -18.3078  -29.3100   23.1869 C   0  0  0  0  0  0  0  0  0  0  0  0
  -19.6787  -26.9628   22.5888 C   0  0  0  0  0  0  0  0  0  0  0  0
  -21.7315  -21.4261   24.2127 C   0  0  0  0  0  0  0  0  0  0  0  0
  -23.1615   -8.8115   22.6270 C   0  0  0  0  0  0  0  0  0  0  0  0
  -23.7333  -10.0711   24.6079 C   0  0  0  0  0  0  0  0  0  0  0  0
  -22.6411  -20.5518   23.6193 C   0  0  0  0  0  0  0  0  0  0  0  0
  -20.6417   -9.1047   25.5713 C   0  0  0  0  0  0  0  0  0  0  0  0
  -19.8144   -9.5055   26.6203 C   0  0  0  0  0  0  0  0  0  0  0  0
  -24.3891  -21.4161   25.0393 C   0  0  0  0  0  0  0  0  0  0  0  0
  -28.7586  -17.3352   21.5452 C   0  0  0  0  0  0  0  0  0  0  0  0
  -21.2948   -8.4308   28.1984 C   0  0  0  0  0  0  0  0  0  0  0  0
  -24.2922  -10.9368   22.4227 C   0  0  0  0  0  0  0  0  0  0  0  0
  -24.2267  -13.0977   21.0686 C   0  0  0  0  0  0  0  0  0  0  0  0
  -19.5075  -29.0240   23.8575 C   0  0  0  0  0  0  0  0  0  0  0  0
  -22.1471  -22.3111   25.2179 C   0  0  0  0  0  0  0  0  0  0  0  0
  -20.2077  -27.8422   23.5488 C   0  0  0  0  0  0  0  0  0  0  0  0
  -23.4824  -22.2988   25.6457 C   0  0  0  0  0  0  0  0  0  0  0  0
  -29.8400  -16.4612   21.5369 C   0  0  0  0  0  0  0  0  0  0  0  0
  -29.7696  -15.2701   22.2508 C   0  0  0  0  0  0  0  0  0  0  0  0
  -23.1658   -8.9428   24.0157 C   0  0  0  0  0  0  0  0  0  0  0  0
  -23.9707  -20.5487   24.0306 C   0  0  0  0  0  0  0  0  0  0  0  0
  -21.7955   -8.3668   25.8358 C   0  0  0  0  0  0  0  0  0  0  0  0
  -20.1410   -9.1686   27.9339 C   0  0  0  0  0  0  0  0  0  0  0  0
  -22.1221   -8.0299   27.1493 C   0  0  0  0  0  0  0  0  0  0  0  0
  -24.8746  -11.9667   21.6004 C   0  0  0  0  0  0  0  0  0  0  0  0
  -28.6046  -15.0017   22.9513 C   0  0  0  0  0  0  0  0  0  0  0  0
  -27.6388  -16.9743   22.2771 C   0  0  0  0  0  0  0  0  0  0  0  0
  -25.2068  -13.7569   20.3675 C   0  0  0  0  0  0  0  0  0  0  0  0
  -22.8611  -13.5152   21.1968 C   0  0  0  0  0  0  0  0  0  0  0  0
  -22.2438  -25.4736   25.5229 C   0  0  0  0  0  0  0  0  0  0  0  0
  -31.1939  -13.7650   20.8838 C   0  0  0  0  0  0  0  0  0  0  0  0
  -23.1592  -24.7632   28.5527 C   0  0  0  0  0  0  0  0  0  0  0  0
  -24.5667  -22.5175   30.7028 C   0  0  0  0  0  0  0  0  0  0  0  0
  -20.0456  -30.0304   24.8436 C   0  0  0  0  0  0  0  0  0  0  0  0
  -21.1478  -23.2293   25.8666 C   0  0  0  0  0  0  0  0  0  0  0  0
  -23.9745  -23.2150   26.7351 C   0  0  0  0  0  0  0  0  0  0  0  0
  -21.1281  -29.4662   25.7602 C   0  0  0  0  0  0  0  0  0  0  0  0
  -29.2641  -12.9888   17.9661 C   0  0  0  0  0  0  0  0  0  0  0  0
  -22.1522  -28.6750   24.9527 C   0  0  0  0  0  0  0  0  0  0  0  0
  -27.8675  -12.7137   18.5221 C   0  0  0  0  0  0  0  0  0  0  0  0
  -30.3507  -12.5131   18.9253 C   0  0  0  0  0  0  0  0  0  0  0  0
  -28.8385  -12.8044   20.8618 C   0  0  0  0  0  0  0  0  0  0  0  0
  -21.4972  -27.4783   24.2523 C   0  0  1  0  0  0  0  0  0  0  0  0
  -21.7927  -24.4465   26.5225 C   0  0  1  0  0  0  0  0  0  0  0  0
  -27.7112  -13.2975   19.9374 C   0  0  2  0  0  0  0  0  0  0  0  0
  -31.0606  -16.8223   20.7567 C   0  0  0  0  0  0  0  0  0  0  0  0
  -28.4704  -13.7385   23.7371 C   0  0  0  0  0  0  0  0  0  0  0  0
  -32.2054  -14.9190   22.8302 C   0  0  0  0  0  0  0  0  0  0  0  0
  -25.2149  -22.2354   33.1106 C   0  0  0  0  0  0  0  0  0  0  0  0
  -25.5843  -26.5608   28.1081 C   0  0  0  0  0  0  0  0  0  0  0  0
  -26.6444  -25.5100   30.1181 C   0  0  0  0  0  0  0  0  0  0  0  0
  -24.5156  -26.7882   30.3576 C   0  0  0  0  0  0  0  0  0  0  0  0
  -22.7442  -20.2107   31.0435 C   0  0  0  0  0  0  0  0  0  0  0  0
  -24.3507  -18.4549   22.9687 C   0  0  0  0  0  0  0  0  0  1  0  0
  -25.4369  -17.4013   23.0676 C   0  0  0  0  0  0  0  0  0  0  0  0
  -30.9149  -14.3143   22.2602 C   0  0  1  0  0  0  0  0  0  0  0  0
  -24.4806  -24.5201   29.2411 C   0  0  1  0  0  0  0  0  0  0  0  0
  -24.1287  -22.0195   32.0683 C   0  0  2  0  0  0  0  0  0  0  0  0
  -25.2977  -25.8288   29.4343 C   0  0  0  0  0  0  0  0  0  0  0  0
  -26.1664  -11.9075   21.2658 N   0  0  0  0  0  0  0  0  0  0  0  0
  -27.5336  -15.8261   22.9830 N   0  0  0  0  0  0  0  0  0  0  0  0
  -26.3380  -13.0095   20.5160 N   0  0  0  0  0  0  0  0  0  0  0  0
  -22.9608  -24.0987   27.3342 N   0  0  0  0  0  0  0  0  0  0  0  0
  -30.1540  -13.0717   20.2641 N   0  0  0  0  0  0  0  0  0  0  0  0
  -25.2027  -14.8970   19.6446 N   0  0  0  0  0  0  0  0  0  0  0  0
  -21.9879  -12.7213   21.9528 N   0  0  0  0  0  0  0  0  0  0  0  0
  -21.2745  -26.4017   25.1934 N   0  0  0  0  0  0  0  0  0  0  0  0
  -24.1712  -23.8200   30.4831 N   0  0  0  0  0  0  0  0  0  0  0  0
  -23.8136  -20.5640   32.0123 N   0  3  0  0  0  0  0  0  0  0  0  0
  -22.4241  -14.5526   20.6434 O   0  0  0  0  0  0  0  0  0  0  0  0
  -23.3871  -25.4284   25.0843 O   0  0  0  0  0  0  0  0  0  0  0  0
  -32.3026  -13.9502   20.3751 O   0  0  0  0  0  0  0  0  0  0  0  0
  -22.3307  -25.5093   29.0804 O   0  0  0  0  0  0  0  0  0  0  0  0
  -25.1999  -21.8219   29.9117 O   0  0  0  0  0  0  0  0  0  0  0  0
  -22.6162   -7.9702   24.7932 O   0  0  0  0  0  0  0  0  0  0  0  0
  -24.8607  -19.6968   23.4526 O   0  0  0  0  0  0  0  0  0  1  0  0
  -26.5604  -17.8189   22.3015 O   0  0  0  0  0  0  0  0  0  0  0  0
  -19.3473   -9.5549   28.9414 F   0  0  0  0  0  0  0  0  0  0  0  0
  -23.2299   -7.3222   27.4097 F   0  0  0  0  0  0  0  0  0  0  0  0
  1  2  1  0  0  0  0
  1  5  2  0  0  0  0
  2  6  2  0  0  0  0
  3  8  2  0  0  0  0
  3 16  1  0  0  0  0
  4  9  1  0  0  0  0
  4 16  2  0  0  0  0
  5 18  1  0  0  0  0
  6 20  1  0  0  0  0
  7 10  2  0  0  0  0
  7 19  1  0  0  0  0
  8 24  1  0  0  0  0
  9 24  2  0  0  0  0
 10 25  1  0  0  0  0
 11 12  2  0  0  0  0
 11 26  1  0  0  0  0
 12 27  1  0  0  0  0
 13 21  1  0  0  0  0
 13 25  2  0  0  0  0
 14 22  2  0  0  0  0
 14 31  1  0  0  0  0
 15 27  2  0  0  0  0
 15 28  1  0  0  0  0
 16 29  1  0  0  0  0
 17 29  1  0  0  0  0
 17 32  2  0  0  0  0
 17 33  1  0  0  0  0
 18 20  2  0  0  0  0
 18 38  1  0  0  0  0
 19 21  2  0  0  0  0
 19 39  1  0  0  0  0
 20 47  1  0  0  0  0
 21 40  1  0  0  0  0
 22 23  1  0  0  0  0
 22 50  1  0  0  0  0
 23 30  2  0  0  0  0
 23 60  1  0  0  0  0
 24 79  1  0  0  0  0
 25 80  1  0  0  0  0
 26 28  2  0  0  0  0
 26 79  1  0  0  0  0
 27 82  1  0  0  0  0
 28 83  1  0  0  0  0
 29 64  2  0  0  0  0
 30 51  1  0  0  0  0
 30 65  1  0  0  0  0
 31 65  2  0  0  0  0
 31 81  1  0  0  0  0
 32 66  1  0  0  0  0
 32 69  1  0  0  0  0
 33 70  1  0  0  0  0
 33 74  2  0  0  0  0
 34 48  1  0  0  0  0
 34 71  1  0  0  0  0
 34 75  2  0  0  0  0
 35 60  1  0  0  0  0
 35 68  1  0  0  0  0
 35 76  2  0  0  0  0
 36 61  1  0  0  0  0
 36 67  1  0  0  0  0
 36 77  2  0  0  0  0
 37 62  1  0  0  0  0
 37 72  1  0  0  0  0
 37 78  2  0  0  0  0
 38 41  1  0  0  0  0
 39 48  1  0  0  0  0
 40 67  1  0  0  0  0
 41 43  1  0  0  0  0
 42 44  1  0  0  0  0
 42 45  1  0  0  0  0
 43 47  1  0  0  0  0
 44 49  1  0  0  0  0
 45 68  1  0  0  0  0
 46 49  1  0  0  0  0
 46 68  1  0  0  0  0
 47 71  1  0  0  0  0
 48 67  1  0  0  0  0
 49 66  1  0  0  0  0
 52 60  1  0  0  0  0
 53 62  1  0  0  0  0
 54 63  1  0  0  0  0
 55 63  1  0  0  0  0
 56 63  1  0  0  0  0
 57 73  1  0  0  0  0
 58 59  1  0  0  0  0
 58 80  1  0  0  0  0
 59 81  1  0  0  0  0
 61 63  1  0  0  0  0
 61 72  1  0  0  0  0
 62 73  1  0  0  0  0
 64 66  1  0  0  0  0
M  CHG  1  73   1
M  ISO  4  35 100  58 101  60 100  80 101
M  END
> <Batch ID>
0143

> <Smiles>
CNC(C)C(=O)NC(C(=O)N1Cc2cc([101O:1][101CH2:1]COc3cc(C)c([100CH:0](C)[100C:0](=O)N4CCCC(n5nc(-c6ccc(Oc7ccc(F)cc7F)cc6)c(C(N)=O)c5N)C4)c(C)n3)ccc2CC1C(=O)NC1CCCc2ccccc21)C(C)(C)C

> <Shape>
0.177

> <Color>
0.130

> <Negative vol penalty>
0.000

$$$$

  -OEChem-04052321213D

 87 97  0     1  0  0  0  0  0999 V2000
  -23.2627  -35.4223   26.9503 C   0  0  0  0  0  0  0  0  0  0  0  0
  -22.9623  -34.1421   26.4959 C   0  0  0  0  0  0  0  0  0  0  0  0
  -24.6552   -9.4542   20.1033 C   0  0  0  0  0  0  0  0  0  0  0  0
  -25.3892   -9.8423   22.3722 C   0  0  0  0  0  0  0  0  0  0  0  0
  -24.0477  -36.2710   26.1710 C   0  0  0  0  0  0  0  0  0  0  0  0
  -23.4458  -33.7104   25.2613 C   0  0  0  0  0  0  0  0  0  0  0  0
  -25.3366  -29.0163   25.4491 C   0  0  0  0  0  0  0  0  0  0  0  0
  -24.4989   -8.0973   20.3860 C   0  0  0  0  0  0  0  0  0  0  0  0
  -25.2329   -8.4854   22.6549 C   0  0  0  0  0  0  0  0  0  0  0  0
  -24.4243  -27.9621   25.4523 C   0  0  0  0  0  0  0  0  0  0  0  0
  -22.2345   -6.1200   21.9340 C   0  0  0  0  0  0  0  0  0  0  0  0
  -21.0693   -5.4953   21.4894 C   0  0  0  0  0  0  0  0  0  0  0  0
  -28.4982  -20.0392   20.4352 C   0  0  0  0  0  0  0  0  0  0  0  0
  -26.9682  -19.5272   22.2831 C   0  0  0  0  0  0  0  0  0  0  0  0
  -24.8127  -27.6268   23.0952 C   0  0  0  0  0  0  0  0  0  0  0  0
  -22.3932   -3.9665   20.1676 C   0  0  0  0  0  0  0  0  0  0  0  0
  -25.1004  -10.3267   21.0964 C   0  0  0  0  0  0  0  0  0  0  0  0
  -24.2967  -12.7430   20.9440 C   0  0  0  0  0  0  0  0  0  0  0  0
  -24.5491  -35.8461   24.9306 C   0  0  0  0  0  0  0  0  0  0  0  0
  -25.9868  -29.3914   24.2645 C   0  0  0  0  0  0  0  0  0  0  0  0
  -24.2372  -34.5548   24.4640 C   0  0  0  0  0  0  0  0  0  0  0  0
  -28.0085  -21.3150   20.4777 C   0  0  0  0  0  0  0  0  0  0  0  0
  -26.4879  -20.8382   22.3020 C   0  0  0  0  0  0  0  0  0  0  0  0
  -25.7347  -28.6845   23.0801 C   0  0  0  0  0  0  0  0  0  0  0  0
  -27.9641  -19.1304   21.3586 C   0  0  0  0  0  0  0  0  0  0  0  0
  -27.0461  -21.6714   21.3814 C   0  0  0  0  0  0  0  0  0  0  0  0
  -24.7877   -7.6128   21.6618 C   0  0  0  0  0  0  0  0  0  0  0  0
  -24.1601  -27.2690   24.2746 C   0  0  0  0  0  0  0  0  0  0  0  0
  -23.4791   -5.6681   21.4952 C   0  0  0  0  0  0  0  0  0  0  0  0
  -21.1486   -4.4186   20.6063 C   0  0  0  0  0  0  0  0  0  0  0  0
  -23.5584   -4.5913   20.6121 C   0  0  0  0  0  0  0  0  0  0  0  0
  -25.2626  -11.7284   20.8048 C   0  0  0  0  0  0  0  0  0  0  0  0
  -24.9403  -13.8874   20.5409 C   0  0  0  0  0  0  0  0  0  0  0  0
  -22.9390  -12.6585   21.3972 C   0  0  0  0  0  0  0  0  0  0  0  0
  -26.0687  -32.0261   22.4882 C   0  0  0  0  0  0  0  0  0  0  0  0
  -28.3377  -30.3839   20.8520 C   0  0  0  0  0  0  0  0  0  0  0  0
  -29.6684  -27.3632   19.9852 C   0  0  0  0  0  0  0  0  0  0  0  0
  -29.3959  -17.2267   20.5387 C   0  0  0  0  0  0  0  0  0  0  0  0
  -25.3541  -36.8158   24.1022 C   0  0  0  0  0  0  0  0  0  0  0  0
  -26.9881  -30.5136   24.2834 C   0  0  0  0  0  0  0  0  0  0  0  0
  -26.4215  -29.0346   21.7862 C   0  0  0  0  0  0  0  0  0  0  0  0
  -28.0012  -22.6979   19.9583 C   0  0  0  0  0  0  0  0  0  0  0  0
  -26.1389  -36.1491   22.9753 C   0  0  0  0  0  0  0  0  0  0  0  0
  -29.3976  -14.5189   18.2268 C   0  0  0  0  0  0  0  0  0  0  0  0
  -25.2537  -35.1638   22.2187 C   0  0  0  0  0  0  0  0  0  0  0  0
  -28.2426  -13.6350   18.7029 C   0  0  0  0  0  0  0  0  0  0  0  0
  -25.9876  -22.4068   24.1666 C   0  0  0  0  0  0  0  0  0  0  0  0
  -24.1919  -21.7733   22.5050 C   0  0  0  0  0  0  0  0  0  0  0  0
  -30.1478  -15.1512   19.3978 C   0  0  0  0  0  0  0  0  0  0  0  0
  -28.1498  -14.9956   20.8305 C   0  0  0  0  0  0  0  0  0  0  0  0
  -24.9156  -22.9466   25.1046 C   0  0  0  0  0  0  0  0  0  0  0  0
  -23.1336  -22.3176   23.4559 C   0  0  0  0  0  0  0  0  0  0  0  0
  -25.4376  -21.2898   23.2649 C   0  0  0  0  0  0  0  0  0  0  0  0
  -24.7638  -34.0413   23.1415 C   0  0  1  0  0  0  0  0  0  0  0  0
  -27.2076  -31.1417   22.9106 C   0  0  1  0  0  0  0  0  0  0  0  0
  -27.3239  -14.3885   19.6847 C   0  0  2  0  0  0  0  0  0  0  0  0
  -31.4965  -26.3392   18.6043 C   0  0  0  0  0  0  0  0  0  0  0  0
  -26.7229  -30.9220   18.3196 C   0  0  0  0  0  0  0  0  0  0  0  0
  -28.0407  -29.1236   17.1807 C   0  0  0  0  0  0  0  0  0  0  0  0
  -29.1979  -31.1562   18.0480 C   0  0  0  0  0  0  0  0  0  0  0  0
  -30.9305  -26.1293   22.3609 C   0  0  0  0  0  0  0  0  0  0  0  0
  -22.6962  -24.0804   25.1636 C   0  0  0  0  0  0  0  0  0  0  0  0
  -23.1390  -25.4942   25.4845 C   0  0  0  0  0  0  0  0  0  1  0  0
  -28.3321  -29.4311   19.6810 C   0  0  1  0  0  0  0  0  0  0  0  0
  -31.0999  -26.8579   19.9777 C   0  0  2  0  0  0  0  0  0  0  0  0
  -28.0588  -30.1526   18.3311 C   0  0  0  0  0  0  0  0  0  0  0  0
  -26.4310  -12.1878   20.3488 N   0  0  0  0  0  0  0  0  0  0  0  0
  -26.2033  -13.5037   20.1978 N   0  0  0  0  0  0  0  0  0  0  0  0
  -27.3875  -30.1435   21.8545 N   0  0  0  0  0  0  0  0  0  0  0  0
  -29.2143  -15.8511   20.2829 N   0  0  0  0  0  0  0  0  0  0  0  0
  -24.5433  -15.1745   20.4499 N   0  0  0  0  0  0  0  0  0  0  0  0
  -22.4370  -11.4052   21.7732 N   0  0  0  0  0  0  0  0  0  0  0  0
  -28.4279  -17.7916   21.3685 N   0  0  0  0  0  0  0  0  0  0  0  0
  -25.8144  -33.0698   23.3574 N   0  0  0  0  0  0  0  0  0  0  0  0
  -29.6032  -28.7167   19.7301 N   0  0  0  0  0  0  0  0  0  0  0  0
  -23.7189  -23.4291   24.3067 N   0  3  0  0  0  0  0  0  0  0  0  0
  -31.2640  -25.7521   20.9632 N   0  3  0  0  0  0  0  0  0  0  0  0
  -22.1882  -13.6620   21.4510 O   0  0  0  0  0  0  0  0  0  0  0  0
  -25.4662  -31.7806   21.4497 O   0  0  0  0  0  0  0  0  0  0  0  0
  -29.1597  -31.3033   20.8796 O   0  0  0  0  0  0  0  0  0  0  0  0
  -28.7043  -26.6298   20.1927 O   0  0  0  0  0  0  0  0  0  0  0  0
  -30.3250  -17.8633   20.0352 O   0  0  0  0  0  0  0  0  0  0  0  0
  -26.9730  -22.9419   20.9760 O   0  0  0  0  0  0  0  0  0  0  0  0
  -24.6350   -6.2889   21.9381 O   0  0  0  0  0  0  0  0  0  0  0  0
  -23.2696  -26.2400   24.2748 O   0  0  0  0  0  0  0  0  0  1  0  0
  -20.0297   -3.8177   20.1807 F   0  0  0  0  0  0  0  0  0  0  0  0
  -24.7513   -4.1519   20.1881 F   0  0  0  0  0  0  0  0  0  0  0  0
  1  2  1  0  0  0  0
  1  5  2  0  0  0  0
  2  6  2  0  0  0  0
  3  8  2  0  0  0  0
  3 17  1  0  0  0  0
  4  9  1  0  0  0  0
  4 17  2  0  0  0  0
  5 19  1  0  0  0  0
  6 21  1  0  0  0  0
  7 10  2  0  0  0  0
  7 20  1  0  0  0  0
  8 27  1  0  0  0  0
  9 27  2  0  0  0  0
 10 28  1  0  0  0  0
 11 12  2  0  0  0  0
 11 29  1  0  0  0  0
 12 30  1  0  0  0  0
 13 22  2  0  0  0  0
 13 25  1  0  0  0  0
 14 23  1  0  0  0  0
 14 25  2  0  0  0  0
 15 24  1  0  0  0  0
 15 28  2  0  0  0  0
 16 30  2  0  0  0  0
 16 31  1  0  0  0  0
 17 32  1  0  0  0  0
 18 32  1  0  0  0  0
 18 33  2  0  0  0  0
 18 34  1  0  0  0  0
 19 21  2  0  0  0  0
 19 39  1  0  0  0  0
 20 24  2  0  0  0  0
 20 40  1  0  0  0  0
 21 54  1  0  0  0  0
 22 26  1  0  0  0  0
 22 42  1  0  0  0  0
 23 26  2  0  0  0  0
 23 53  1  0  0  0  0
 24 41  1  0  0  0  0
 25 73  1  0  0  0  0
 26 83  1  0  0  0  0
 27 84  1  0  0  0  0
 28 85  1  0  0  0  0
 29 31  2  0  0  0  0
 29 84  1  0  0  0  0
 30 86  1  0  0  0  0
 31 87  1  0  0  0  0
 32 67  2  0  0  0  0
 33 68  1  0  0  0  0
 33 71  1  0  0  0  0
 34 72  1  0  0  0  0
 34 78  2  0  0  0  0
 35 55  1  0  0  0  0
 35 74  1  0  0  0  0
 35 79  2  0  0  0  0
 36 64  1  0  0  0  0
 36 69  1  0  0  0  0
 36 80  2  0  0  0  0
 37 65  1  0  0  0  0
 37 75  1  0  0  0  0
 37 81  2  0  0  0  0
 38 70  1  0  0  0  0
 38 73  1  0  0  0  0
 38 82  2  0  0  0  0
 39 43  1  0  0  0  0
 40 55  1  0  0  0  0
 41 69  1  0  0  0  0
 42 83  1  0  0  0  0
 43 45  1  0  0  0  0
 44 46  1  0  0  0  0
 44 49  1  0  0  0  0
 45 54  1  0  0  0  0
 46 56  1  0  0  0  0
 47 51  1  0  0  0  0
 47 53  1  0  0  0  0
 48 52  1  0  0  0  0
 48 53  1  0  0  0  0
 49 70  1  0  0  0  0
 50 56  1  0  0  0  0
 50 70  1  0  0  0  0
 51 76  1  0  0  0  0
 52 76  1  0  0  0  0
 54 74  1  0  0  0  0
 55 69  1  0  0  0  0
 56 68  1  0  0  0  0
 57 65  1  0  0  0  0
 58 66  1  0  0  0  0
 59 66  1  0  0  0  0
 60 66  1  0  0  0  0
 61 77  1  0  0  0  0
 62 63  1  0  0  0  0
 62 76  1  0  0  0  0
 63 85  1  0  0  0  0
 64 66  1  0  0  0  0
 64 75  1  0  0  0  0
 65 77  1  0  0  0  0
 67 68  1  0  0  0  0
M  CHG  2  76   1  77   1
M  ISO  4  38 100  63 101  73 100  85 101
M  END
> <Batch ID>
0143

> <Smiles>
CNC(C)C(=O)NC(C(=O)N1Cc2cc([101O:1][101CH2:1]CN3CCC(c4cc([100NH:0][100C:0](=O)N5CCCC(n6nc(-c7ccc(Oc8ccc(F)cc8F)cc7)c(C(N)=O)c6N)C5)cc5c4OC5)CC3)ccc2CC1C(=O)NC1CCCc2ccccc21)C(C)(C)C

> <Shape>
0.263

> <Color>
0.091

> <Negative vol penalty>
0.000

$$$$

  -OEChem-04052321213D

 87 96  0     1  0  0  0  0  0999 V2000
  -26.4542  -34.3667   24.8313 C   0  0  0  0  0  0  0  0  0  0  0  0
  -26.9293  -33.1641   24.3180 C   0  0  0  0  0  0  0  0  0  0  0  0
  -25.5983  -14.6616   21.1260 C   0  0  0  0  0  0  0  0  0  0  0  0
  -26.8988  -12.6574   21.4853 C   0  0  0  0  0  0  0  0  0  0  0  0
  -25.1446  -34.4537   25.3016 C   0  0  0  0  0  0  0  0  0  0  0  0
  -26.0953  -32.0474   24.2757 C   0  0  0  0  0  0  0  0  0  0  0  0
  -26.3661  -29.5867   19.8579 C   0  0  0  0  0  0  0  0  0  0  0  0
  -24.5924  -13.9018   20.5291 C   0  0  0  0  0  0  0  0  0  0  0  0
  -25.8928  -11.8976   20.8884 C   0  0  0  0  0  0  0  0  0  0  0  0
  -27.4707  -28.7604   19.6560 C   0  0  0  0  0  0  0  0  0  0  0  0
  -23.5084   -9.3850   19.7841 C   0  0  0  0  0  0  0  0  0  0  0  0
  -23.1302   -8.1992   20.4137 C   0  0  0  0  0  0  0  0  0  0  0  0
  -26.1283  -26.8378   20.2223 C   0  0  0  0  0  0  0  0  0  0  0  0
  -22.5009   -9.4464   22.3849 C   0  0  0  0  0  0  0  0  0  0  0  0
  -26.7516  -14.0394   21.6040 C   0  0  0  0  0  0  0  0  0  0  0  0
  -27.6797  -15.6329   23.3668 C   0  0  0  0  0  0  0  0  0  0  0  0
  -24.2910  -33.3401   25.2561 C   0  0  0  0  0  0  0  0  0  0  0  0
  -25.1350  -29.0451   20.2547 C   0  0  0  0  0  0  0  0  0  0  0  0
  -24.7734  -32.1192   24.7470 C   0  0  0  0  0  0  0  0  0  0  0  0
  -25.0089  -27.6591   20.4260 C   0  0  0  0  0  0  0  0  0  0  0  0
  -24.7395  -12.5198   20.4103 C   0  0  0  0  0  0  0  0  0  0  0  0
  -27.3527  -27.3860   19.8410 C   0  0  0  0  0  0  0  0  0  0  0  0
  -23.3829  -10.6016   20.4549 C   0  0  0  0  0  0  0  0  0  0  0  0
  -22.6265   -8.2299   21.7141 C   0  0  0  0  0  0  0  0  0  0  0  0
  -22.8791  -10.6323   21.7553 C   0  0  0  0  0  0  0  0  0  0  0  0
  -27.7915  -14.8238   22.2202 C   0  0  0  0  0  0  0  0  0  0  0  0
  -28.9365  -16.1593   23.5394 C   0  0  0  0  0  0  0  0  0  0  0  0
  -26.5415  -15.8859   24.2012 C   0  0  0  0  0  0  0  0  0  0  0  0
  -23.2563  -29.3711   22.7979 C   0  0  0  0  0  0  0  0  0  0  0  0
  -21.2400  -27.5165   21.0608 C   0  0  0  0  0  0  0  0  0  0  0  0
  -20.8403  -25.2068   18.5804 C   0  0  0  0  0  0  0  0  0  0  0  0
  -30.5268  -17.6272   19.0765 C   0  0  0  0  0  0  0  0  0  0  0  0
  -22.8981  -33.4697   25.8196 C   0  0  0  0  0  0  0  0  0  0  0  0
  -23.9461  -29.9471   20.4424 C   0  0  0  0  0  0  0  0  0  0  0  0
  -23.7041  -27.0257   20.8319 C   0  0  0  0  0  0  0  0  0  0  0  0
  -21.9615  -32.3419   25.3940 C   0  0  0  0  0  0  0  0  0  0  0  0
  -31.7747  -14.5348   20.1873 C   0  0  0  0  0  0  0  0  0  0  0  0
  -22.6479  -30.9890   25.5536 C   0  0  0  0  0  0  0  0  0  0  0  0
  -29.8734  -25.1309   16.8150 C   0  0  0  0  0  0  0  0  0  0  0  0
  -31.8948  -14.6834   21.7016 C   0  0  0  0  0  0  0  0  0  0  0  0
  -28.7940  -26.1024   17.2948 C   0  0  0  0  0  0  0  0  0  0  0  0
  -32.1706  -15.8235   19.4816 C   0  0  0  0  0  0  0  0  0  0  0  0
  -31.2762  -19.8884   19.9302 C   0  0  0  0  0  0  0  0  0  0  0  0
  -31.4380  -17.1922   21.4151 C   0  0  0  0  0  0  0  0  0  0  0  0
  -31.6781  -21.0145   18.9868 C   0  0  0  0  0  0  0  0  0  0  0  0
  -29.5085  -20.7728   17.7810 C   0  0  0  0  0  0  0  0  0  0  0  0
  -23.8913  -30.8925   24.6614 C   0  0  1  0  0  0  0  0  0  0  0  0
  -22.8745  -29.3433   21.3449 C   0  0  1  0  0  0  0  0  0  0  0  0
  -29.6019  -23.8455   17.5911 C   0  0  2  0  0  0  0  0  0  0  0  0
  -31.1696  -15.9228   22.2544 C   0  0  1  0  0  0  0  0  0  0  0  0
  -28.3138  -25.5672   18.6477 C   0  0  1  0  0  0  0  0  0  1  0  0
  -29.2190  -24.3793   18.9683 C   0  0  1  0  0  0  0  0  0  0  0  0
  -29.1051  -19.6329   18.7174 C   0  0  2  0  0  0  0  0  0  0  0  0
  -27.6965  -18.9344   20.6607 C   0  0  0  0  0  0  0  0  0  0  0  0
  -19.0780  -23.8531   17.4146 C   0  0  0  0  0  0  0  0  0  0  0  0
  -31.1642  -22.3959   16.2374 C   0  0  0  0  0  0  0  0  0  0  0  0
  -21.0913  -25.6440   23.4652 C   0  0  0  0  0  0  0  0  0  0  0  0
  -20.1306  -23.8937   21.9547 C   0  0  0  0  0  0  0  0  0  0  0  0
  -18.9069  -26.0377   22.3130 C   0  0  0  0  0  0  0  0  0  0  0  0
  -21.4420  -26.4594   15.9674 C   0  0  0  0  0  0  0  0  0  0  0  0
  -28.5565  -23.6696   21.1084 C   0  0  0  0  0  0  0  0  0  0  0  0
  -28.1270  -20.0803   19.8079 C   0  0  0  0  0  0  0  0  0  0  0  0
  -21.0126  -26.0314   20.9138 C   0  0  1  0  0  0  0  0  0  0  0  0
  -19.8797  -25.1453   17.4065 C   0  0  2  0  0  0  0  0  0  0  0  0
  -30.7943  -22.9030   17.6221 C   0  0  2  0  0  0  0  0  0  0  0  0
  -20.3106  -25.4135   22.1559 C   0  0  0  0  0  0  0  0  0  0  0  0
  -29.0220  -14.8324   21.7010 N   0  0  0  0  0  0  0  0  0  0  0  0
  -29.6950  -15.6535   22.5250 N   0  0  0  0  0  0  0  0  0  0  0  0
  -22.5723  -27.9503   21.0094 N   0  0  0  0  0  0  0  0  0  0  0  0
  -31.3869  -16.9595   19.9638 N   0  0  0  0  0  0  0  0  0  0  0  0
  -30.2879  -18.9898   19.3158 N   0  0  0  0  0  0  0  0  0  0  0  0
  -29.4556  -17.0010   24.4583 N   0  0  0  0  0  0  0  0  0  0  0  0
  -25.7058  -16.9648   23.8822 N   0  0  0  0  0  0  0  0  0  0  0  0
  -23.5099  -30.6376   23.2888 N   0  0  0  0  0  0  0  0  0  0  0  0
  -20.2822  -25.8520   19.6637 N   0  0  0  0  0  0  0  0  0  0  0  0
  -30.4459  -21.7218   18.4851 N   0  3  2  0  0  0  0  0  0  0  0  0
  -20.6279  -25.2262   16.1202 N   0  3  0  0  0  0  0  0  0  0  0  0
  -26.2828  -15.1863   25.2097 O   0  0  0  0  0  0  0  0  0  0  0  0
  -23.3149  -28.3213   23.4274 O   0  0  0  0  0  0  0  0  0  0  0  0
  -20.2706  -28.2650   21.2083 O   0  0  0  0  0  0  0  0  0  0  0  0
  -21.9711  -24.7271   18.5415 O   0  0  0  0  0  0  0  0  0  0  0  0
  -29.9882  -17.0341   18.1331 O   0  0  0  0  0  0  0  0  0  0  0  0
  -23.7580  -11.7781   19.8282 O   0  0  0  0  0  0  0  0  0  0  0  0
  -28.4379  -26.5709   19.6438 O   0  0  0  0  0  0  0  0  0  1  0  0
  -28.5245  -23.3934   19.7133 O   0  0  0  0  0  0  0  0  0  0  0  0
  -22.2619   -7.0912   22.3180 F   0  0  0  0  0  0  0  0  0  0  0  0
  -22.7550  -11.7981   22.4043 F   0  0  0  0  0  0  0  0  0  0  0  0
  1  2  1  0  0  0  0
  1  5  2  0  0  0  0
  2  6  2  0  0  0  0
  3  8  2  0  0  0  0
  3 15  1  0  0  0  0
  4  9  1  0  0  0  0
  4 15  2  0  0  0  0
  5 17  1  0  0  0  0
  6 19  1  0  0  0  0
  7 10  2  0  0  0  0
  7 18  1  0  0  0  0
  8 21  1  0  0  0  0
  9 21  2  0  0  0  0
 10 22  1  0  0  0  0
 11 12  2  0  0  0  0
 11 23  1  0  0  0  0
 12 24  1  0  0  0  0
 13 20  1  0  0  0  0
 13 22  2  0  0  0  0
 14 24  2  0  0  0  0
 14 25  1  0  0  0  0
 15 26  1  0  0  0  0
 16 26  1  0  0  0  0
 16 27  2  0  0  0  0
 16 28  1  0  0  0  0
 17 19  2  0  0  0  0
 17 33  1  0  0  0  0
 18 20  2  0  0  0  0
 18 34  1  0  0  0  0
 19 47  1  0  0  0  0
 20 35  1  0  0  0  0
 21 83  1  0  0  0  0
 22 84  1  0  0  0  0
 23 25  2  0  0  0  0
 23 83  1  0  0  0  0
 24 86  1  0  0  0  0
 25 87  1  0  0  0  0
 26 67  2  0  0  0  0
 27 68  1  0  0  0  0
 27 72  1  0  0  0  0
 28 73  1  0  0  0  0
 28 78  2  0  0  0  0
 29 48  1  0  0  0  0
 29 74  1  0  0  0  0
 29 79  2  0  0  0  0
 30 63  1  0  0  0  0
 30 69  1  0  0  0  0
 30 80  2  0  0  0  0
 31 64  1  0  0  0  0
 31 75  1  0  0  0  0
 31 81  2  0  0  0  0
 32 70  1  0  0  0  0
 32 71  1  0  0  0  0
 32 82  2  0  0  0  0
 33 36  1  0  0  0  0
 34 48  1  0  0  0  0
 35 69  1  0  0  0  0
 36 38  1  0  0  0  0
 37 40  1  0  0  0  0
 37 42  1  0  0  0  0
 38 47  1  0  0  0  0
 39 41  1  0  0  0  0
 39 49  1  0  0  0  0
 40 50  1  0  0  0  0
 41 51  1  0  0  0  0
 42 70  1  0  0  0  0
 43 45  1  0  0  0  0
 43 71  1  0  0  0  0
 44 50  1  0  0  0  0
 44 70  1  0  0  0  0
 45 76  1  0  0  0  0
 46 53  1  0  0  0  0
 46 76  1  0  0  0  0
 47 74  1  0  0  0  0
 48 69  1  0  0  0  0
 49 52  1  0  0  0  0
 49 65  1  0  0  0  0
 50 68  1  0  0  0  0
 51 52  1  0  0  0  0
 51 84  1  0  0  0  0
 52 85  1  0  0  0  0
 53 62  1  0  0  0  0
 53 71  1  0  0  0  0
 54 62  1  0  0  0  0
 55 64  1  0  0  0  0
 56 65  1  0  0  0  0
 57 66  1  0  0  0  0
 58 66  1  0  0  0  0
 59 66  1  0  0  0  0
 60 77  1  0  0  0  0
 61 85  1  0  0  0  0
 63 66  1  0  0  0  0
 63 75  1  0  0  0  0
 64 77  1  0  0  0  0
 65 76  1  0  0  0  0
 67 68  1  0  0  0  0
M  CHG  2  76   1  77   1
M  ISO  4  32 100  51 101  71 100  84 101
M  END
> <Batch ID>
0143

> <Smiles>
CCC1CN(C(C)C2CC[101CH:1]([101O:1]c3ccc4c(c3)CN(C(=O)C(NC(=O)C(C)NC)C(C)(C)C)C(C(=O)NC3CCCc5ccccc53)C4)C2OC)CC[100N:0]1[100C:0](=O)N1CCCC(n2nc(-c3ccc(Oc4ccc(F)cc4F)cc3)c(C(N)=O)c2N)C1

> <Shape>
0.309

> <Color>
0.081

> <Negative vol penalty>
0.000

$$$$

  -OEChem-04052321213D

 83 92  0     1  0  0  0  0  0999 V2000
  -22.6745   -8.7542   20.4897 C   0  0  0  0  0  0  0  0  0  0  0  0
  -22.1055  -10.0022   20.2575 C   0  0  0  0  0  0  0  0  0  0  0  0
  -26.6433  -27.9058   22.2551 C   0  0  0  0  0  0  0  0  0  0  0  0
  -25.5999  -28.7061   20.2282 C   0  0  0  0  0  0  0  0  0  0  0  0
  -23.9244   -8.6619   21.1005 C   0  0  0  0  0  0  0  0  0  0  0  0
  -22.7856  -11.1588   20.6371 C   0  0  0  0  0  0  0  0  0  0  0  0
  -20.5681  -24.0512   18.9330 C   0  0  0  0  0  0  0  0  0  0  0  0
  -20.1542  -23.4005   21.2226 C   0  0  0  0  0  0  0  0  0  0  0  0
  -22.7681  -16.5569   17.7446 C   0  0  0  0  0  0  0  0  0  0  0  0
  -21.4284  -22.9641   18.7796 C   0  0  0  0  0  0  0  0  0  0  0  0
  -21.0145  -22.3133   21.0692 C   0  0  0  0  0  0  0  0  0  0  0  0
  -27.5750  -27.1979   21.4959 C   0  0  0  0  0  0  0  0  0  0  0  0
  -26.5317  -27.9981   19.4691 C   0  0  0  0  0  0  0  0  0  0  0  0
  -22.0536  -17.7344   17.9605 C   0  0  0  0  0  0  0  0  0  0  0  0
  -30.4490  -25.4699   20.0926 C   0  0  0  0  0  0  0  0  0  0  0  0
  -31.7883  -25.5449   20.4749 C   0  0  0  0  0  0  0  0  0  0  0  0
  -23.9087  -18.6217   19.2216 C   0  0  0  0  0  0  0  0  0  0  0  0
  -31.7462  -27.9390   20.1533 C   0  0  0  0  0  0  0  0  0  0  0  0
  -25.6557  -28.6599   21.6212 C   0  0  0  0  0  0  0  0  0  0  0  0
  -24.8042  -30.7150   22.8699 C   0  0  0  0  0  0  0  0  0  0  0  0
  -19.9310  -24.2695   20.1546 C   0  0  0  0  0  0  0  0  0  0  0  0
  -24.6245   -9.8183   21.4790 C   0  0  0  0  0  0  0  0  0  0  0  0
  -24.0562  -16.3984   18.2757 C   0  0  0  0  0  0  0  0  0  0  0  0
  -24.0455  -11.0820   21.2548 C   0  0  0  0  0  0  0  0  0  0  0  0
  -24.6385  -17.4422   19.0089 C   0  0  0  0  0  0  0  0  0  0  0  0
  -21.6516  -22.0951   19.8476 C   0  0  0  0  0  0  0  0  0  0  0  0
  -27.5192  -27.2440   20.1030 C   0  0  0  0  0  0  0  0  0  0  0  0
  -22.6227  -18.7659   18.7015 C   0  0  0  0  0  0  0  0  0  0  0  0
  -29.7583  -26.6295   19.7405 C   0  0  0  0  0  0  0  0  0  0  0  0
  -32.4369  -26.7794   20.5053 C   0  0  0  0  0  0  0  0  0  0  0  0
  -30.4068  -27.8640   19.7709 C   0  0  0  0  0  0  0  0  0  0  0  0
  -24.6926  -29.3909   22.4048 C   0  0  0  0  0  0  0  0  0  0  0  0
  -23.6362  -30.9369   23.5578 C   0  0  0  0  0  0  0  0  0  0  0  0
  -25.8684  -31.6598   22.6957 C   0  0  0  0  0  0  0  0  0  0  0  0
  -25.3949  -14.4021   20.3558 C   0  0  0  0  0  0  0  0  0  0  0  0
  -28.1189  -15.9251   19.4710 C   0  0  0  0  0  0  0  0  0  0  0  0
  -29.5851  -18.7228   18.1788 C   0  0  0  0  0  0  0  0  0  0  0  0
  -18.2372  -28.0377   22.9451 C   0  0  0  0  0  0  0  0  0  0  0  0
  -25.9518   -9.6669   22.1791 C   0  0  0  0  0  0  0  0  0  0  0  0
  -24.8243  -15.1325   18.0112 C   0  0  0  0  0  0  0  0  0  0  0  0
  -26.0262  -17.3298   19.5834 C   0  0  0  0  0  0  0  0  0  0  0  0
  -26.7737  -10.9528   22.2113 C   0  0  0  0  0  0  0  0  0  0  0  0
  -20.4096  -28.2433   25.9697 C   0  0  0  0  0  0  0  0  0  0  0  0
  -25.9026  -12.1328   22.6305 C   0  0  0  0  0  0  0  0  0  0  0  0
  -21.6583  -28.9951   25.5095 C   0  0  0  0  0  0  0  0  0  0  0  0
  -19.1805  -28.5939   25.1436 C   0  0  0  0  0  0  0  0  0  0  0  0
  -19.5208  -26.4462   21.3690 C   0  0  0  0  0  0  0  0  0  0  0  0
  -17.1323  -26.5888   21.2720 C   0  0  0  0  0  0  0  0  0  0  0  0
  -20.7271  -28.5297   23.1872 C   0  0  0  0  0  0  0  0  0  0  0  0
  -18.9983  -25.4476   20.3218 C   0  0  2  0  0  0  0  0  0  0  0  0
  -24.7632  -12.3604   21.6298 C   0  0  1  0  0  0  0  0  0  0  0  0
  -25.9274  -14.8782   19.0339 C   0  0  1  0  0  0  0  0  0  0  0  0
  -17.5528  -25.2012   20.7898 C   0  0  2  0  0  0  0  0  0  0  0  0
  -21.5550  -29.4915   24.0577 C   0  0  2  0  0  0  0  0  0  0  0  0
  -16.6380  -24.6646   19.6989 C   0  0  0  0  0  0  0  0  0  0  0  0
  -31.8317  -19.6866   17.6122 C   0  0  0  0  0  0  0  0  0  0  0  0
  -28.6342  -16.4575   22.4308 C   0  0  0  0  0  0  0  0  0  0  0  0
  -30.3142  -18.1867   21.7557 C   0  0  0  0  0  0  0  0  0  0  0  0
  -30.6604  -15.7993   21.1211 C   0  0  0  0  0  0  0  0  0  0  0  0
  -28.8895  -18.9597   15.3119 C   0  0  0  0  0  0  0  0  0  0  0  0
  -22.5703  -20.9319   19.6822 C   0  0  0  0  0  0  0  0  0  1  0  0
  -28.8667  -17.1447   19.9530 C   0  0  1  0  0  0  0  0  0  0  0  0
  -30.6353  -18.9016   17.0973 C   0  0  2  0  0  0  0  0  0  0  0  0
  -29.5920  -16.8987   21.3061 C   0  0  0  0  0  0  0  0  0  0  0  0
  -23.5444  -28.8123   22.7668 N   0  0  0  0  0  0  0  0  0  0  0  0
  -22.9239  -29.7773   23.4667 N   0  0  0  0  0  0  0  0  0  0  0  0
  -26.7345  -16.0700   19.3029 N   0  0  0  0  0  0  0  0  0  0  0  0
  -19.3759  -28.3040   23.7186 N   0  0  0  0  0  0  0  0  0  0  0  0
  -18.3393  -27.1544   21.8698 N   0  0  0  0  0  0  0  0  0  0  0  0
  -23.1594  -32.0088   24.2256 N   0  0  0  0  0  0  0  0  0  0  0  0
  -26.9961  -31.2680   21.9614 N   0  0  0  0  0  0  0  0  0  0  0  0
  -25.2568  -13.0302   20.4456 N   0  0  0  0  0  0  0  0  0  0  0  0
  -29.7530  -17.5374   18.8627 N   0  0  0  0  0  0  0  0  0  0  0  0
  -30.0601  -19.6318   15.9324 N   0  3  0  0  0  0  0  0  0  0  0  0
  -25.8279  -32.8116   23.1908 O   0  0  0  0  0  0  0  0  0  0  0  0
  -25.1303  -15.2190   21.2301 O   0  0  0  0  0  0  0  0  0  0  0  0
  -28.7412  -14.8843   19.2449 O   0  0  0  0  0  0  0  0  0  0  0  0
  -28.7061  -19.5535   18.3975 O   0  0  0  0  0  0  0  0  0  0  0  0
  -17.1480  -28.5544   23.2359 O   0  0  0  0  0  0  0  0  0  0  0  0
  -28.4284  -26.5536   19.3619 O   0  0  0  0  0  0  0  0  0  0  0  0
  -21.9224  -19.9240   18.9157 O   0  0  0  0  0  0  0  0  0  1  0  0
  -33.7226  -26.8514   20.8740 F   0  0  0  0  0  0  0  0  0  0  0  0
  -29.7481  -28.9816   19.4349 F   0  0  0  0  0  0  0  0  0  0  0  0
  1  2  1  0  0  0  0
  1  5  2  0  0  0  0
  2  6  2  0  0  0  0
  3 12  2  0  0  0  0
  3 19  1  0  0  0  0
  4 13  1  0  0  0  0
  4 19  2  0  0  0  0
  5 22  1  0  0  0  0
  6 24  1  0  0  0  0
  7 10  2  0  0  0  0
  7 21  1  0  0  0  0
  8 11  1  0  0  0  0
  8 21  2  0  0  0  0
  9 14  2  0  0  0  0
  9 23  1  0  0  0  0
 10 26  1  0  0  0  0
 11 26  2  0  0  0  0
 12 27  1  0  0  0  0
 13 27  2  0  0  0  0
 14 28  1  0  0  0  0
 15 16  2  0  0  0  0
 15 29  1  0  0  0  0
 16 30  1  0  0  0  0
 17 25  1  0  0  0  0
 17 28  2  0  0  0  0
 18 30  2  0  0  0  0
 18 31  1  0  0  0  0
 19 32  1  0  0  0  0
 20 32  1  0  0  0  0
 20 33  2  0  0  0  0
 20 34  1  0  0  0  0
 21 50  1  0  0  0  0
 22 24  2  0  0  0  0
 22 39  1  0  0  0  0
 23 25  2  0  0  0  0
 23 40  1  0  0  0  0
 24 51  1  0  0  0  0
 25 41  1  0  0  0  0
 26 61  1  0  0  0  0
 27 80  1  0  0  0  0
 28 81  1  0  0  0  0
 29 31  2  0  0  0  0
 29 80  1  0  0  0  0
 30 82  1  0  0  0  0
 31 83  1  0  0  0  0
 32 65  2  0  0  0  0
 33 66  1  0  0  0  0
 33 70  1  0  0  0  0
 34 71  1  0  0  0  0
 34 75  2  0  0  0  0
 35 52  1  0  0  0  0
 35 72  1  0  0  0  0
 35 76  2  0  0  0  0
 36 62  1  0  0  0  0
 36 67  1  0  0  0  0
 36 77  2  0  0  0  0
 37 63  1  0  0  0  0
 37 73  1  0  0  0  0
 37 78  2  0  0  0  0
 38 68  1  0  0  0  0
 38 69  1  0  0  0  0
 38 79  2  0  0  0  0
 39 42  1  0  0  0  0
 40 52  1  0  0  0  0
 41 67  1  0  0  0  0
 42 44  1  0  0  0  0
 43 45  1  0  0  0  0
 43 46  1  0  0  0  0
 44 51  1  0  0  0  0
 45 54  1  0  0  0  0
 46 68  1  0  0  0  0
 47 50  1  0  0  0  0
 47 69  1  0  0  0  0
 48 53  1  0  0  0  0
 48 69  1  0  0  0  0
 49 54  1  0  0  0  0
 49 68  1  0  0  0  0
 50 53  1  0  0  0  0
 51 72  1  0  0  0  0
 52 67  1  0  0  0  0
 53 55  1  0  0  0  0
 54 66  1  0  0  0  0
 56 63  1  0  0  0  0
 57 64  1  0  0  0  0
 58 64  1  0  0  0  0
 59 64  1  0  0  0  0
 60 74  1  0  0  0  0
 61 81  1  0  0  0  0
 62 64  1  0  0  0  0
 62 73  1  0  0  0  0
 63 74  1  0  0  0  0
 65 66  1  0  0  0  0
M  CHG  1  74   1
M  ISO  4  38 100  61 101  69 100  81 101
M  END
> <Batch ID>
0143

> <Smiles>
CNC(C)C(=O)NC(C(=O)N1Cc2cc([101O:1][101CH2:1]c3ccc(C4C[100N:0]([100C:0](=O)N5CCCC(n6nc(-c7ccc(Oc8ccc(F)cc8F)cc7)c(C(N)=O)c6N)C5)CC4C)cc3)ccc2CC1C(=O)NC1CCCc2ccccc21)C(C)(C)C

> <Shape>
0.269

> <Color>
0.071

> <Negative vol penalty>
0.000

$$$$

  -OEChem-04052321213D

 83 92  0     1  0  0  0  0  0999 V2000
  -38.4221  -31.3632   20.1736 C   0  0  0  0  0  0  0  0  0  0  0  0
  -37.9107  -30.5770   21.2011 C   0  0  0  0  0  0  0  0  0  0  0  0
  -23.0010   -9.8898   19.9828 C   0  0  0  0  0  0  0  0  0  0  0  0
  -23.7260   -9.9452   22.2868 C   0  0  0  0  0  0  0  0  0  0  0  0
  -37.7661  -31.4150   18.9444 C   0  0  0  0  0  0  0  0  0  0  0  0
  -36.7424  -29.8427   21.0003 C   0  0  0  0  0  0  0  0  0  0  0  0
  -33.6111  -23.6953   22.9290 C   0  0  0  0  0  0  0  0  0  0  0  0
  -22.2356   -8.7549   20.2509 C   0  0  0  0  0  0  0  0  0  0  0  0
  -22.9606   -8.8104   22.5550 C   0  0  0  0  0  0  0  0  0  0  0  0
  -32.4138  -23.2163   23.4589 C   0  0  0  0  0  0  0  0  0  0  0  0
  -23.2084   -5.4709   22.0884 C   0  0  0  0  0  0  0  0  0  0  0  0
  -23.7970   -4.4556   22.8422 C   0  0  0  0  0  0  0  0  0  0  0  0
  -31.4093  -23.3206   21.2682 C   0  0  0  0  0  0  0  0  0  0  0  0
  -31.5185  -19.3380   22.6820 C   0  0  0  0  0  0  0  0  0  0  0  0
  -29.7560  -17.7016   22.6628 C   0  0  0  0  0  0  0  0  0  0  0  0
  -22.0728   -4.6994   24.5169 C   0  0  0  0  0  0  0  0  0  0  0  0
  -23.7462  -10.4849   21.0007 C   0  0  0  0  0  0  0  0  0  0  0  0
  -24.1289  -13.0006   20.8207 C   0  0  0  0  0  0  0  0  0  0  0  0
  -36.5944  -30.6734   18.7253 C   0  0  0  0  0  0  0  0  0  0  0  0
  -33.7134  -24.0013   21.5643 C   0  0  0  0  0  0  0  0  0  0  0  0
  -36.0694  -29.8856   19.7675 C   0  0  0  0  0  0  0  0  0  0  0  0
  -32.6098  -23.8008   20.7229 C   0  0  0  0  0  0  0  0  0  0  0  0
  -30.2434  -18.9393   23.0674 C   0  0  0  0  0  0  0  0  0  0  0  0
  -22.2154   -8.2152   21.5370 C   0  0  0  0  0  0  0  0  0  0  0  0
  -31.3118  -23.0316   22.6291 C   0  0  0  0  0  0  0  0  0  0  0  0
  -22.0520   -6.1006   22.5489 C   0  0  0  0  0  0  0  0  0  0  0  0
  -23.2292   -4.0698   24.0564 C   0  0  0  0  0  0  0  0  0  0  0  0
  -21.4842   -5.7148   23.7632 C   0  0  0  0  0  0  0  0  0  0  0  0
  -24.5375  -11.6569   20.7243 C   0  0  0  0  0  0  0  0  0  0  0  0
  -32.2603  -18.4692   21.8980 C   0  0  0  0  0  0  0  0  0  0  0  0
  -30.5767  -16.9061   21.8795 C   0  0  0  0  0  0  0  0  0  0  0  0
  -25.2379  -13.7238   20.4552 C   0  0  0  0  0  0  0  0  0  0  0  0
  -22.8604  -13.5463   21.2063 C   0  0  0  0  0  0  0  0  0  0  0  0
  -34.3059  -26.6411   19.8958 C   0  0  0  0  0  0  0  0  0  0  0  0
  -34.3036  -24.5872   17.3851 C   0  0  0  0  0  0  0  0  0  0  0  0
  -33.2769  -21.6044   16.0830 C   0  0  0  0  0  0  0  0  0  0  0  0
  -30.7164  -14.6910   20.6879 C   0  0  0  0  0  0  0  0  0  0  0  0
  -35.8944  -30.7982   17.3952 C   0  0  0  0  0  0  0  0  0  0  0  0
  -35.0199  -24.4918   21.0032 C   0  0  0  0  0  0  0  0  0  0  0  0
  -32.6739  -24.0951   19.2472 C   0  0  0  0  0  0  0  0  0  0  0  0
  -34.8681  -29.6971   17.1414 C   0  0  0  0  0  0  0  0  0  0  0  0
  -29.6008  -12.2332   18.3658 C   0  0  0  0  0  0  0  0  0  0  0  0
  -33.9861  -29.4961   18.3696 C   0  0  0  0  0  0  0  0  0  0  0  0
  -33.7919  -19.7172   20.2335 C   0  0  0  0  0  0  0  0  0  0  0  0
  -34.2142  -18.2813   20.2170 C   0  0  0  0  0  0  0  0  0  0  0  0
  -28.1504  -11.9747   18.7803 C   0  0  0  0  0  0  0  0  0  0  0  0
  -30.5010  -12.4795   19.5753 C   0  0  0  0  0  0  0  0  0  0  0  0
  -28.5848  -13.2685   20.9074 C   0  0  0  0  0  0  0  0  0  0  0  0
  -34.8180  -29.0555   19.5801 C   0  0  1  0  0  0  0  0  0  0  0  0
  -33.6313  -18.8757   21.4719 C   0  0  0  0  0  0  0  0  0  0  0  0
  -34.8579  -25.2583   19.6942 C   0  0  1  0  0  0  0  0  0  0  0  0
  -27.6273  -13.0792   19.7195 C   0  0  2  0  0  0  0  0  0  0  0  0
  -33.1081  -19.7161   14.4388 C   0  0  0  0  0  0  0  0  0  0  0  0
  -32.2408  -26.4046   16.0614 C   0  0  0  0  0  0  0  0  0  0  0  0
  -31.7120  -24.5365   14.4806 C   0  0  0  0  0  0  0  0  0  0  0  0
  -34.0013  -25.5267   14.5172 C   0  0  0  0  0  0  0  0  0  0  0  0
  -35.6169  -20.2219   17.2542 C   0  0  0  0  0  0  0  0  0  0  0  0
  -29.3925  -19.8461   23.9202 C   0  0  0  0  0  0  0  0  0  0  0  0
  -28.5129  -20.8036   23.1133 C   0  0  0  0  0  0  0  0  0  0  0  0
  -29.3110  -21.7957   22.2753 C   0  0  0  0  0  0  0  0  0  1  0  0
  -33.2545  -24.0598   16.4363 C   0  0  1  0  0  0  0  0  0  0  0  0
  -34.0325  -20.5138   15.3455 C   0  0  2  0  0  0  0  0  0  0  0  0
  -32.8000  -25.1281   15.4020 C   0  0  0  0  0  0  0  0  0  0  0  0
  -25.8069  -11.5311   20.3283 N   0  0  0  0  0  0  0  0  0  0  0  0
  -31.8207  -17.2592   21.4854 N   0  0  0  0  0  0  0  0  0  0  0  0
  -26.2056  -12.8051   20.1727 N   0  0  0  0  0  0  0  0  0  0  0  0
  -33.9715  -24.5786   18.7472 N   0  0  0  0  0  0  0  0  0  0  0  0
  -29.9448  -13.5412   20.4168 N   0  0  0  0  0  0  0  0  0  0  0  0
  -25.4700  -15.0496   20.3510 N   0  0  0  0  0  0  0  0  0  0  0  0
  -21.8295  -12.6617   21.5512 N   0  0  0  0  0  0  0  0  0  0  0  0
  -30.0711  -15.6468   21.4719 N   0  0  0  0  0  0  0  0  0  0  0  0
  -35.1523  -27.6510   19.4794 N   0  0  0  0  0  0  0  0  0  0  0  0
  -33.8135  -22.8512   15.8405 N   0  0  0  0  0  0  0  0  0  0  0  0
  -34.6647  -19.5751   16.3151 N   0  3  0  0  0  0  0  0  0  0  0  0
  -22.6424  -14.7815   21.2280 O   0  0  0  0  0  0  0  0  0  0  0  0
  -33.1939  -26.7815   20.3911 O   0  0  0  0  0  0  0  0  0  0  0  0
  -35.3808  -24.9853   16.9348 O   0  0  0  0  0  0  0  0  0  0  0  0
  -32.3052  -21.3738   16.7995 O   0  0  0  0  0  0  0  0  0  0  0  0
  -31.8549  -14.8303   20.2337 O   0  0  0  0  0  0  0  0  0  0  0  0
  -21.4685   -7.1080   21.7991 O   0  0  0  0  0  0  0  0  0  0  0  0
  -30.1418  -22.5649   23.1439 O   0  0  0  0  0  0  0  0  0  1  0  0
  -23.7936   -3.0936   24.7794 F   0  0  0  0  0  0  0  0  0  0  0  0
  -20.3727   -6.3152   24.2102 F   0  0  0  0  0  0  0  0  0  0  0  0
  1  2  1  0  0  0  0
  1  5  2  0  0  0  0
  2  6  2  0  0  0  0
  3  8  2  0  0  0  0
  3 17  1  0  0  0  0
  4  9  1  0  0  0  0
  4 17  2  0  0  0  0
  5 19  1  0  0  0  0
  6 21  1  0  0  0  0
  7 10  2  0  0  0  0
  7 20  1  0  0  0  0
  8 24  1  0  0  0  0
  9 24  2  0  0  0  0
 10 25  1  0  0  0  0
 11 12  2  0  0  0  0
 11 26  1  0  0  0  0
 12 27  1  0  0  0  0
 13 22  1  0  0  0  0
 13 25  2  0  0  0  0
 14 23  2  0  0  0  0
 14 30  1  0  0  0  0
 15 23  1  0  0  0  0
 15 31  2  0  0  0  0
 16 27  2  0  0  0  0
 16 28  1  0  0  0  0
 17 29  1  0  0  0  0
 18 29  1  0  0  0  0
 18 32  2  0  0  0  0
 18 33  1  0  0  0  0
 19 21  2  0  0  0  0
 19 38  1  0  0  0  0
 20 22  2  0  0  0  0
 20 39  1  0  0  0  0
 21 49  1  0  0  0  0
 22 40  1  0  0  0  0
 23 58  1  0  0  0  0
 24 80  1  0  0  0  0
 25 81  1  0  0  0  0
 26 28  2  0  0  0  0
 26 80  1  0  0  0  0
 27 82  1  0  0  0  0
 28 83  1  0  0  0  0
 29 64  2  0  0  0  0
 30 50  1  0  0  0  0
 30 65  2  0  0  0  0
 31 65  1  0  0  0  0
 31 71  1  0  0  0  0
 32 66  1  0  0  0  0
 32 69  1  0  0  0  0
 33 70  1  0  0  0  0
 33 75  2  0  0  0  0
 34 51  1  0  0  0  0
 34 72  1  0  0  0  0
 34 76  2  0  0  0  0
 35 61  1  0  0  0  0
 35 67  1  0  0  0  0
 35 77  2  0  0  0  0
 36 62  1  0  0  0  0
 36 73  1  0  0  0  0
 36 78  2  0  0  0  0
 37 68  1  0  0  0  0
 37 71  1  0  0  0  0
 37 79  2  0  0  0  0
 38 41  1  0  0  0  0
 39 51  1  0  0  0  0
 40 67  1  0  0  0  0
 41 43  1  0  0  0  0
 42 46  1  0  0  0  0
 42 47  1  0  0  0  0
 43 49  1  0  0  0  0
 44 45  1  0  0  0  0
 44 50  1  0  0  0  0
 45 50  1  0  0  0  0
 46 52  1  0  0  0  0
 47 68  1  0  0  0  0
 48 52  1  0  0  0  0
 48 68  1  0  0  0  0
 49 72  1  0  0  0  0
 51 67  1  0  0  0  0
 52 66  1  0  0  0  0
 53 62  1  0  0  0  0
 54 63  1  0  0  0  0
 55 63  1  0  0  0  0
 56 63  1  0  0  0  0
 57 74  1  0  0  0  0
 58 59  1  0  0  0  0
 59 60  1  0  0  0  0
 60 81  1  0  0  0  0
 61 63  1  0  0  0  0
 61 73  1  0  0  0  0
 62 74  1  0  0  0  0
 64 66  1  0  0  0  0
M  CHG  1  74   1
M  ISO  4  37 100  60 101  71 100  81 101
M  END
> <Batch ID>
0143

> <Smiles>
CNC(C)C(=O)NC(C(=O)N1Cc2cc([101O:1][101CH2:1]CCc3cc([100NH:0][100C:0](=O)N4CCCC(n5nc(-c6ccc(Oc7ccc(F)cc7F)cc6)c(C(N)=O)c5N)C4)nc(C4CC4)c3)ccc2CC1C(=O)NC1CCCc2ccccc21)C(C)(C)C

> <Shape>
0.187

> <Color>
0.202

> <Negative vol penalty>
0.000

$$$$

  -OEChem-04052321213D

 89 99  0     1  0  0  0  0  0999 V2000
  -24.4873  -31.1610   34.3283 C   0  0  0  0  0  0  0  0  0  0  0  0
  -25.0755  -30.0967   33.6524 C   0  0  0  0  0  0  0  0  0  0  0  0
  -22.6061  -10.3061   20.2413 C   0  0  0  0  0  0  0  0  0  0  0  0
  -24.3513   -9.3572   21.6164 C   0  0  0  0  0  0  0  0  0  0  0  0
  -23.5543  -31.9678   33.6784 C   0  0  0  0  0  0  0  0  0  0  0  0
  -24.7300  -29.8380   32.3264 C   0  0  0  0  0  0  0  0  0  0  0  0
  -27.5186  -27.3529   26.2138 C   0  0  0  0  0  0  0  0  0  0  0  0
  -21.8570   -9.1385   20.3862 C   0  0  0  0  0  0  0  0  0  0  0  0
  -23.6021   -8.1896   21.7614 C   0  0  0  0  0  0  0  0  0  0  0  0
  -27.2695  -26.4030   25.2241 C   0  0  0  0  0  0  0  0  0  0  0  0
  -20.9667   -7.1346   23.5950 C   0  0  0  0  0  0  0  0  0  0  0  0
  -20.8692   -6.5834   24.8725 C   0  0  0  0  0  0  0  0  0  0  0  0
  -25.7046  -27.9119   24.1783 C   0  0  0  0  0  0  0  0  0  0  0  0
  -21.8933   -4.5468   24.0720 C   0  0  0  0  0  0  0  0  0  0  0  0
  -30.4927  -18.6599   21.5178 C   0  0  0  0  0  0  0  0  0  0  0  0
  -23.8533  -10.4155   20.8563 C   0  0  0  0  0  0  0  0  0  0  0  0
  -24.2566  -12.9234   21.0911 C   0  0  0  0  0  0  0  0  0  0  0  0
  -23.2044  -31.7248   32.3408 C   0  0  0  0  0  0  0  0  0  0  0  0
  -26.8533  -28.5872   26.1992 C   0  0  0  0  0  0  0  0  0  0  0  0
  -23.7904  -30.6416   31.6585 C   0  0  0  0  0  0  0  0  0  0  0  0
  -25.9489  -28.8767   25.1675 C   0  0  0  0  0  0  0  0  0  0  0  0
  -22.3550   -8.0802   21.1463 C   0  0  0  0  0  0  0  0  0  0  0  0
  -26.3602  -26.6813   24.2078 C   0  0  0  0  0  0  0  0  0  0  0  0
  -21.5274   -6.3919   22.5558 C   0  0  0  0  0  0  0  0  0  0  0  0
  -21.3325   -5.2895   25.1111 C   0  0  0  0  0  0  0  0  0  0  0  0
  -21.9907   -5.0980   22.7944 C   0  0  0  0  0  0  0  0  0  0  0  0
  -24.6279  -11.6211   20.7065 C   0  0  0  0  0  0  0  0  0  0  0  0
  -31.3700  -17.6297   21.2473 C   0  0  0  0  0  0  0  0  0  0  0  0
  -30.5637  -19.7436   20.6665 C   0  0  0  0  0  0  0  0  0  0  0  0
  -25.3287  -13.7051   20.7363 C   0  0  0  0  0  0  0  0  0  0  0  0
  -32.2248  -18.7575   19.4684 C   0  0  0  0  0  0  0  0  0  0  0  0
  -23.0503  -13.3852   21.7135 C   0  0  0  0  0  0  0  0  0  0  0  0
  -24.8458  -30.0767   28.1628 C   0  0  0  0  0  0  0  0  0  0  0  0
  -30.8602  -14.5249   20.5935 C   0  0  0  0  0  0  0  0  0  0  0  0
  -25.2257  -32.5231   26.0668 C   0  0  0  0  0  0  0  0  0  0  0  0
  -26.0280  -33.5331   22.9072 C   0  0  0  0  0  0  0  0  0  0  0  0
  -22.1557  -32.5954   31.6951 C   0  0  0  0  0  0  0  0  0  0  0  0
  -27.1530  -29.6115   27.2591 C   0  0  0  0  0  0  0  0  0  0  0  0
  -25.2237  -30.1947   25.0952 C   0  0  0  0  0  0  0  0  0  0  0  0
  -22.1231  -32.4824   30.1731 C   0  0  0  0  0  0  0  0  0  0  0  0
  -29.3839  -12.6614   17.9125 C   0  0  0  0  0  0  0  0  0  0  0  0
  -22.1645  -31.0187   29.7454 C   0  0  0  0  0  0  0  0  0  0  0  0
  -26.6769  -22.0779   22.7156 C   0  0  0  0  0  0  0  0  0  0  0  0
  -28.8828  -23.3007   22.5289 C   0  0  0  0  0  0  0  0  0  0  0  0
  -27.9960  -12.3059   18.4440 C   0  0  0  0  0  0  0  0  0  0  0  0
  -25.9433  -23.4150   22.7559 C   0  0  0  0  0  0  0  0  0  0  0  0
  -28.1431  -24.6345   22.5704 C   0  0  0  0  0  0  0  0  0  0  0  0
  -31.6577  -16.6142   23.5986 C   0  0  0  0  0  0  0  0  0  0  0  0
  -32.6794  -15.9666   22.7173 C   0  0  0  0  0  0  0  0  0  0  0  0
  -30.4255  -12.6617   19.0270 C   0  0  0  0  0  0  0  0  0  0  0  0
  -28.6945  -13.1956   20.7124 C   0  0  0  0  0  0  0  0  0  0  0  0
  -23.4601  -30.3440   30.2119 C   0  0  1  0  0  0  0  0  0  0  0  0
  -26.0353  -30.6350   27.4340 C   0  0  1  0  0  0  0  0  0  0  0  0
  -28.0031  -22.1838   21.9500 C   0  0  0  0  0  0  0  0  0  0  0  0
  -27.6067  -13.2140   19.6239 C   0  0  2  0  0  0  0  0  0  0  0  0
  -26.8222  -24.5237   23.3289 C   0  0  0  0  0  0  0  0  0  1  0  0
  -31.3597  -16.4224   22.1231 C   0  0  0  0  0  0  0  0  0  0  0  0
  -26.2109  -35.5919   21.4840 C   0  0  0  0  0  0  0  0  0  0  0  0
  -22.1856  -32.6247   25.8273 C   0  0  0  0  0  0  0  0  0  0  0  0
  -22.4648  -33.9913   23.7482 C   0  0  0  0  0  0  0  0  0  0  0  0
  -23.2992  -34.8616   25.9320 C   0  0  0  0  0  0  0  0  0  0  0  0
  -28.9177  -33.0953   22.4415 C   0  0  0  0  0  0  0  0  0  0  0  0
  -30.3597  -15.3682   21.7390 C   0  0  0  0  0  0  0  0  0  0  0  0
  -28.7449  -20.8486   21.9691 C   0  0  0  0  0  0  0  0  0  0  0  0
  -24.5305  -32.9647   24.8016 C   0  0  1  0  0  0  0  0  0  0  0  0
  -26.9479  -34.6307   22.4036 C   0  0  2  0  0  0  0  0  0  0  0  0
  -23.1321  -33.5849   25.0794 C   0  0  0  0  0  0  0  0  0  0  0  0
  -25.8412  -11.5741   20.1498 N   0  0  0  0  0  0  0  0  0  0  0  0
  -32.2528  -17.6453   20.2271 N   0  0  0  0  0  0  0  0  0  0  0  0
  -31.4211  -19.8262   19.6280 N   0  0  0  0  0  0  0  0  0  0  0  0
  -26.2414  -12.8566   20.1820 N   0  0  0  0  0  0  0  0  0  0  0  0
  -25.5460  -31.1612   26.1581 N   0  0  0  0  0  0  0  0  0  0  0  0
  -30.0084  -13.5182   20.1386 N   0  0  0  0  0  0  0  0  0  0  0  0
  -25.5704  -15.0286   20.8474 N   0  0  0  0  0  0  0  0  0  0  0  0
  -33.1336  -18.8086   18.3890 N   0  0  0  0  0  0  0  0  0  0  0  0
  -22.9902  -13.4158   23.1134 N   0  0  0  0  0  0  0  0  0  0  0  0
  -29.6937  -20.8094   20.9079 N   0  0  0  0  0  0  0  0  0  0  0  0
  -24.5628  -30.7191   29.3530 N   0  0  0  0  0  0  0  0  0  0  0  0
  -25.4568  -33.8613   24.1185 N   0  0  0  0  0  0  0  0  0  0  0  0
  -28.0914  -34.0429   21.6501 N   0  3  0  0  0  0  0  0  0  0  0  0
  -22.0494  -13.7442   21.0480 O   0  0  0  0  0  0  0  0  0  0  0  0
  -24.2295  -29.1339   27.6801 O   0  0  0  0  0  0  0  0  0  0  0  0
  -31.9740  -14.7574   20.1165 O   0  0  0  0  0  0  0  0  0  0  0  0
  -25.4818  -33.3572   26.9388 O   0  0  0  0  0  0  0  0  0  0  0  0
  -25.8326  -32.4907   22.2862 O   0  0  0  0  0  0  0  0  0  0  0  0
  -21.6241   -6.9408   21.2882 O   0  0  0  0  0  0  0  0  0  0  0  0
  -26.1147  -25.7557   23.2409 O   0  0  0  0  0  0  0  0  0  1  0  0
  -21.2403   -4.7609   26.3384 F   0  0  0  0  0  0  0  0  0  0  0  0
  -22.5314   -4.3801   21.8004 F   0  0  0  0  0  0  0  0  0  0  0  0
  1  2  1  0  0  0  0
  1  5  2  0  0  0  0
  2  6  2  0  0  0  0
  3  8  2  0  0  0  0
  3 16  1  0  0  0  0
  4  9  1  0  0  0  0
  4 16  2  0  0  0  0
  5 18  1  0  0  0  0
  6 20  1  0  0  0  0
  7 10  2  0  0  0  0
  7 19  1  0  0  0  0
  8 22  1  0  0  0  0
  9 22  2  0  0  0  0
 10 23  1  0  0  0  0
 11 12  2  0  0  0  0
 11 24  1  0  0  0  0
 12 25  1  0  0  0  0
 13 21  1  0  0  0  0
 13 23  2  0  0  0  0
 14 25  2  0  0  0  0
 14 26  1  0  0  0  0
 15 28  2  0  0  0  0
 15 29  1  0  0  0  0
 16 27  1  0  0  0  0
 17 27  1  0  0  0  0
 17 30  2  0  0  0  0
 17 32  1  0  0  0  0
 18 20  2  0  0  0  0
 18 37  1  0  0  0  0
 19 21  2  0  0  0  0
 19 38  1  0  0  0  0
 20 52  1  0  0  0  0
 21 39  1  0  0  0  0
 22 86  1  0  0  0  0
 23 87  1  0  0  0  0
 24 26  2  0  0  0  0
 24 86  1  0  0  0  0
 25 88  1  0  0  0  0
 26 89  1  0  0  0  0
 27 68  2  0  0  0  0
 28 57  1  0  0  0  0
 28 69  1  0  0  0  0
 29 70  2  0  0  0  0
 29 77  1  0  0  0  0
 30 71  1  0  0  0  0
 30 74  1  0  0  0  0
 31 69  2  0  0  0  0
 31 70  1  0  0  0  0
 31 75  1  0  0  0  0
 32 76  1  0  0  0  0
 32 81  2  0  0  0  0
 33 53  1  0  0  0  0
 33 78  1  0  0  0  0
 33 82  2  0  0  0  0
 34 63  1  0  0  0  0
 34 73  1  0  0  0  0
 34 83  2  0  0  0  0
 35 65  1  0  0  0  0
 35 72  1  0  0  0  0
 35 84  2  0  0  0  0
 36 66  1  0  0  0  0
 36 79  1  0  0  0  0
 36 85  2  0  0  0  0
 37 40  1  0  0  0  0
 38 53  1  0  0  0  0
 39 72  1  0  0  0  0
 40 42  1  0  0  0  0
 41 45  1  0  0  0  0
 41 50  1  0  0  0  0
 42 52  1  0  0  0  0
 43 46  1  0  0  0  0
 43 54  1  0  0  0  0
 44 47  1  0  0  0  0
 44 54  1  0  0  0  0
 45 55  1  0  0  0  0
 46 56  1  0  0  0  0
 47 56  1  0  0  0  0
 48 49  1  0  0  0  0
 48 57  1  0  0  0  0
 49 57  1  0  0  0  0
 50 73  1  0  0  0  0
 51 55  1  0  0  0  0
 51 73  1  0  0  0  0
 52 78  1  0  0  0  0
 53 72  1  0  0  0  0
 54 64  1  0  0  0  0
 55 71  1  0  0  0  0
 56 87  1  0  0  0  0
 57 63  1  0  0  0  0
 58 66  1  0  0  0  0
 59 67  1  0  0  0  0
 60 67  1  0  0  0  0
 61 67  1  0  0  0  0
 62 80  1  0  0  0  0
 64 77  1  0  0  0  0
 65 67  1  0  0  0  0
 65 79  1  0  0  0  0
 66 80  1  0  0  0  0
 68 71  1  0  0  0  0
M  CHG  1  80   1
M  ISO  4  34 100  56 101  63 100  87 101
M  END
> <Batch ID>
0143

> <Smiles>
CNC(C)C(=O)NC(C(=O)N1Cc2cc([101O:1][101CH:1]3CCC(CNc4cc(C5([100CH2:0][100C:0](=O)N6CCCC(n7nc(-c8ccc(Oc9ccc(F)cc9F)cc8)c(C(N)=O)c7N)C6)CC5)nc(N)n4)CC3)ccc2CC1C(=O)NC1CCCc2ccccc21)C(C)(C)C

> <Shape>
0.279

> <Color>
0.186

> <Negative vol penalty>
0.000

$$$$

  -OEChem-04052321213D

 92102  0     1  0  0  0  0  0999 V2000
  -16.9603  -27.7958   24.1986 C   0  0  0  0  0  0  0  0  0  0  0  0
  -17.7078  -26.9920   23.3439 C   0  0  0  0  0  0  0  0  0  0  0  0
  -22.9572  -10.1088   19.9921 C   0  0  0  0  0  0  0  0  0  0  0  0
  -23.6348   -9.9184   22.3033 C   0  0  0  0  0  0  0  0  0  0  0  0
  -17.1985  -29.1686   24.2486 C   0  0  0  0  0  0  0  0  0  0  0  0
  -18.6932  -27.5607   22.5378 C   0  0  0  0  0  0  0  0  0  0  0  0
  -25.1164  -18.3654   18.6405 C   0  0  0  0  0  0  0  0  0  0  0  0
  -22.9937  -24.8866   22.5477 C   0  0  0  0  0  0  0  0  0  0  0  0
  -23.9991  -19.1217   18.9944 C   0  0  0  0  0  0  0  0  0  0  0  0
  -22.1193   -9.0045   20.1468 C   0  0  0  0  0  0  0  0  0  0  0  0
  -22.7968   -8.8141   22.4581 C   0  0  0  0  0  0  0  0  0  0  0  0
  -23.0284  -23.7338   21.7643 C   0  0  0  0  0  0  0  0  0  0  0  0
  -22.8528   -5.5190   21.7028 C   0  0  0  0  0  0  0  0  0  0  0  0
  -23.3628   -4.4074   22.3734 C   0  0  0  0  0  0  0  0  0  0  0  0
  -25.3769  -19.6881   16.6356 C   0  0  0  0  0  0  0  0  0  0  0  0
  -24.2179  -24.9426   20.0488 C   0  0  0  0  0  0  0  0  0  0  0  0
  -21.6210   -4.6108   24.0353 C   0  0  0  0  0  0  0  0  0  0  0  0
  -23.7151  -10.5657   21.0704 C   0  0  0  0  0  0  0  0  0  0  0  0
  -24.2525  -13.0590   21.1191 C   0  0  0  0  0  0  0  0  0  0  0  0
  -25.8053  -18.6486   17.4611 C   0  0  0  0  0  0  0  0  0  0  0  0
  -18.1940  -29.7531   23.4498 C   0  0  0  0  0  0  0  0  0  0  0  0
  -23.5622  -26.0809   22.0821 C   0  0  0  0  0  0  0  0  0  0  0  0
  -18.9441  -28.9429   22.5762 C   0  0  0  0  0  0  0  0  0  0  0  0
  -24.1913  -26.1085   20.8293 C   0  0  0  0  0  0  0  0  0  0  0  0
  -23.5707  -20.1612   18.1688 C   0  0  0  0  0  0  0  0  0  0  0  0
  -24.2596  -20.4444   16.9894 C   0  0  0  0  0  0  0  0  0  0  0  0
  -22.0390   -8.3571   21.3798 C   0  0  0  0  0  0  0  0  0  0  0  0
  -23.6380  -23.7624   20.5135 C   0  0  0  0  0  0  0  0  0  0  0  0
  -21.7269   -6.1767   22.1985 C   0  0  0  0  0  0  0  0  0  0  0  0
  -22.7469   -3.9533   23.5396 C   0  0  0  0  0  0  0  0  0  0  0  0
  -21.1110   -5.7225   23.3647 C   0  0  0  0  0  0  0  0  0  0  0  0
  -24.5813  -11.7061   20.9111 C   0  0  0  0  0  0  0  0  0  0  0  0
  -25.4107  -13.7411   20.8366 C   0  0  0  0  0  0  0  0  0  0  0  0
  -23.0112  -13.6466   21.5310 C   0  0  0  0  0  0  0  0  0  0  0  0
  -22.4505  -28.9823   21.4115 C   0  0  0  0  0  0  0  0  0  0  0  0
  -25.5936  -29.6634   20.9879 C   0  0  0  0  0  0  0  0  0  0  0  0
  -28.7345  -28.5293   20.2840 C   0  0  0  0  0  0  0  0  0  0  0  0
  -29.8759  -14.6923   17.8248 C   0  0  0  0  0  0  0  0  0  0  0  0
  -18.3829  -31.2485   23.5036 C   0  0  0  0  0  0  0  0  0  0  0  0
  -23.5399  -27.3088   22.9505 C   0  0  0  0  0  0  0  0  0  0  0  0
  -24.8342  -27.3602   20.2921 C   0  0  0  0  0  0  0  0  0  0  0  0
  -19.7001  -31.7184   22.8918 C   0  0  0  0  0  0  0  0  0  0  0  0
  -20.0913  -18.2959   15.5034 C   0  0  0  0  0  0  0  0  0  0  0  0
  -18.7258  -18.6712   16.0808 C   0  0  0  0  0  0  0  0  0  0  0  0
  -30.1238  -12.0870   20.0836 C   0  0  0  0  0  0  0  0  0  0  0  0
  -19.9352  -31.0408   21.5455 C   0  0  0  0  0  0  0  0  0  0  0  0
  -28.6795  -11.8547   20.5276 C   0  0  0  0  0  0  0  0  0  0  0  0
  -21.1245  -18.7145   16.5482 C   0  0  0  0  0  0  0  0  0  0  0  0
  -18.9989  -19.3224   17.4366 C   0  0  0  0  0  0  0  0  0  0  0  0
  -28.1558  -17.9570   18.1058 C   0  0  0  0  0  0  0  0  0  0  0  0
  -26.6646  -16.3455   16.8487 C   0  0  0  0  0  0  0  0  0  0  0  0
  -30.1981  -12.3570   18.5849 C   0  0  0  0  0  0  0  0  0  0  0  0
  -29.3626  -17.1044   17.7209 C   0  0  0  0  0  0  0  0  0  0  0  0
  -27.9042  -15.5309   16.4909 C   0  0  0  0  0  0  0  0  0  0  0  0
  -27.9059  -13.2844   18.5727 C   0  0  0  0  0  0  0  0  0  0  0  0
  -27.0203  -17.8254   17.0762 C   0  0  0  0  0  0  0  0  0  0  0  0
  -20.0387  -29.5191   21.7044 C   0  0  1  0  0  0  0  0  0  0  0  0
  -23.6976  -28.6034   22.1589 C   0  0  1  0  0  0  0  0  0  0  0  0
  -27.7724  -13.0163   20.0852 C   0  0  1  0  0  0  0  0  0  0  0  0
  -20.4342  -19.8309   17.3286 C   0  0  0  0  0  0  0  0  0  0  0  0
  -23.8191  -21.5523   16.0898 C   0  0  0  0  0  0  0  0  0  0  0  0
  -31.0928  -29.3276   19.9703 C   0  0  0  0  0  0  0  0  0  0  0  0
  -24.8602  -30.7379   18.2279 C   0  0  0  0  0  0  0  0  0  0  0  0
  -27.2856  -30.6274   17.6171 C   0  0  0  0  0  0  0  0  0  0  0  0
  -26.5351  -32.1161   19.4727 C   0  0  0  0  0  0  0  0  0  0  0  0
  -29.7138  -26.8874   22.5432 C   0  0  0  0  0  0  0  0  0  0  0  0
  -21.0728  -20.1091   18.6800 C   0  0  0  0  0  0  0  0  0  0  0  0
  -22.5949  -21.7154   19.8992 C   0  0  0  0  0  0  0  0  0  1  0  0
  -22.3712  -20.9565   18.5679 C   0  0  1  0  0  0  0  0  0  0  0  0
  -26.5509  -29.6121   19.8217 C   0  0  1  0  0  0  0  0  0  0  0  0
  -30.0714  -28.7832   20.9568 C   0  0  2  0  0  0  0  0  0  0  0  0
  -26.2942  -30.7501   18.7939 C   0  0  0  0  0  0  0  0  0  0  0  0
  -25.8490  -11.5368   20.5260 N   0  0  0  0  0  0  0  0  0  0  0  0
  -26.3270  -12.7923   20.4897 N   0  0  0  0  0  0  0  0  0  0  0  0
  -24.7809  -28.5364   21.1759 N   0  0  0  0  0  0  0  0  0  0  0  0
  -29.3183  -13.4619   18.2043 N   0  0  0  0  0  0  0  0  0  0  0  0
  -28.9779  -15.7148   17.4769 N   0  0  0  0  0  0  0  0  0  0  0  0
  -25.7245  -15.0540   20.8535 N   0  0  0  0  0  0  0  0  0  0  0  0
  -21.9217  -12.8008   21.7800 N   0  0  0  0  0  0  0  0  0  0  0  0
  -21.3411  -29.1520   22.2176 N   0  0  0  0  0  0  0  0  0  0  0  0
  -27.8926  -29.6157   20.3945 N   0  0  0  0  0  0  0  0  0  0  0  0
  -30.6068  -27.5199   21.5385 N   0  3  0  0  0  0  0  0  0  0  0  0
  -22.8677  -14.8862   21.6581 O   0  0  0  0  0  0  0  0  0  0  0  0
  -22.4920  -29.1127   20.1937 O   0  0  0  0  0  0  0  0  0  0  0  0
  -25.5729  -30.6634   21.7098 O   0  0  0  0  0  0  0  0  0  0  0  0
  -28.4654  -27.4742   19.7140 O   0  0  0  0  0  0  0  0  0  0  0  0
  -31.1000  -14.8710   17.8026 O   0  0  0  0  0  0  0  0  0  0  0  0
  -20.4400  -21.0318   16.5582 O   0  0  0  0  0  0  0  0  0  0  0  0
  -21.2213   -7.2797   21.5312 O   0  0  0  0  0  0  0  0  0  0  0  0
  -23.6730  -22.6315   19.7416 O   0  0  0  0  0  0  0  0  0  1  0  0
  -23.2359   -2.8848   24.1826 F   0  0  0  0  0  0  0  0  0  0  0  0
  -20.0284   -6.3494   23.8451 F   0  0  0  0  0  0  0  0  0  0  0  0
  1  2  1  0  0  0  0
  1  5  2  0  0  0  0
  2  6  2  0  0  0  0
  3 10  2  0  0  0  0
  3 18  1  0  0  0  0
  4 11  1  0  0  0  0
  4 18  2  0  0  0  0
  5 21  1  0  0  0  0
  6 23  1  0  0  0  0
  7  9  2  0  0  0  0
  7 20  1  0  0  0  0
  8 12  2  0  0  0  0
  8 22  1  0  0  0  0
  9 25  1  0  0  0  0
 10 27  1  0  0  0  0
 11 27  2  0  0  0  0
 12 28  1  0  0  0  0
 13 14  2  0  0  0  0
 13 29  1  0  0  0  0
 14 30  1  0  0  0  0
 15 20  2  0  0  0  0
 15 26  1  0  0  0  0
 16 24  1  0  0  0  0
 16 28  2  0  0  0  0
 17 30  2  0  0  0  0
 17 31  1  0  0  0  0
 18 32  1  0  0  0  0
 19 32  1  0  0  0  0
 19 33  2  0  0  0  0
 19 34  1  0  0  0  0
 20 56  1  0  0  0  0
 21 23  2  0  0  0  0
 21 39  1  0  0  0  0
 22 24  2  0  0  0  0
 22 40  1  0  0  0  0
 23 57  1  0  0  0  0
 24 41  1  0  0  0  0
 25 26  2  0  0  0  0
 25 69  1  0  0  0  0
 26 61  1  0  0  0  0
 27 89  1  0  0  0  0
 28 90  1  0  0  0  0
 29 31  2  0  0  0  0
 29 89  1  0  0  0  0
 30 91  1  0  0  0  0
 31 92  1  0  0  0  0
 32 73  2  0  0  0  0
 33 74  1  0  0  0  0
 33 78  1  0  0  0  0
 34 79  1  0  0  0  0
 34 83  2  0  0  0  0
 35 58  1  0  0  0  0
 35 80  1  0  0  0  0
 35 84  2  0  0  0  0
 36 70  1  0  0  0  0
 36 75  1  0  0  0  0
 36 85  2  0  0  0  0
 37 71  1  0  0  0  0
 37 81  1  0  0  0  0
 37 86  2  0  0  0  0
 38 76  1  0  0  0  0
 38 77  1  0  0  0  0
 38 87  2  0  0  0  0
 39 42  1  0  0  0  0
 40 58  1  0  0  0  0
 41 75  1  0  0  0  0
 42 46  1  0  0  0  0
 43 44  1  0  0  0  0
 43 48  1  0  0  0  0
 44 49  1  0  0  0  0
 45 47  1  0  0  0  0
 45 52  1  0  0  0  0
 46 57  1  0  0  0  0
 47 59  1  0  0  0  0
 48 60  1  0  0  0  0
 49 60  1  0  0  0  0
 50 53  1  0  0  0  0
 50 56  1  0  0  0  0
 51 54  1  0  0  0  0
 51 56  1  0  0  0  0
 52 76  1  0  0  0  0
 53 77  1  0  0  0  0
 54 77  1  0  0  0  0
 55 59  1  0  0  0  0
 55 76  1  0  0  0  0
 57 80  1  0  0  0  0
 58 75  1  0  0  0  0
 59 74  1  0  0  0  0
 60 67  1  0  0  0  0
 60 88  1  0  0  0  0
 62 71  1  0  0  0  0
 63 72  1  0  0  0  0
 64 72  1  0  0  0  0
 65 72  1  0  0  0  0
 66 82  1  0  0  0  0
 67 69  1  0  0  0  0
 68 69  1  0  0  0  0
 68 90  1  0  0  0  0
 70 72  1  0  0  0  0
 70 81  1  0  0  0  0
 71 82  1  0  0  0  0
 73 74  1  0  0  0  0
M  CHG  1  82   1
M  ISO  4  38 100  68 101  77 100  90 101
M  END
> <Batch ID>
0143

> <Smiles>
CNC(C)C(=O)NC(C(=O)N1Cc2cc([101O:1][101CH2:1]C(CC3(O)CCCC3)c3ccc(C4CC[100N:0]([100C:0](=O)N5CCCC(n6nc(-c7ccc(Oc8ccc(F)cc8F)cc7)c(C(N)=O)c6N)C5)CC4)cc3C)ccc2CC1C(=O)NC1CCCc2ccccc21)C(C)(C)C

> <Shape>
0.276

> <Color>
0.197

> <Negative vol penalty>
0.000

$$$$

  -OEChem-04052321213D

 87 96  0     1  0  0  0  0  0999 V2000
  -33.0226  -32.2896   19.6943 C   0  0  0  0  0  0  0  0  0  0  0  0
  -33.2012  -30.9129   19.6046 C   0  0  0  0  0  0  0  0  0  0  0  0
  -23.3934   -9.6291   20.2239 C   0  0  0  0  0  0  0  0  0  0  0  0
  -23.7758  -10.1048   22.5615 C   0  0  0  0  0  0  0  0  0  0  0  0
  -31.8220  -32.8054   20.1805 C   0  0  0  0  0  0  0  0  0  0  0  0
  -32.1796  -30.0511   20.0021 C   0  0  0  0  0  0  0  0  0  0  0  0
  -30.7522  -24.6395   17.5156 C   0  0  0  0  0  0  0  0  0  0  0  0
  -22.7117   -8.4632   20.5726 C   0  0  0  0  0  0  0  0  0  0  0  0
  -23.0941   -8.9390   22.9103 C   0  0  0  0  0  0  0  0  0  0  0  0
  -31.0610  -23.3294   17.8791 C   0  0  0  0  0  0  0  0  0  0  0  0
  -19.8835   -7.9196   23.1823 C   0  0  0  0  0  0  0  0  0  0  0  0
  -18.9554   -7.9994   24.2205 C   0  0  0  0  0  0  0  0  0  0  0  0
  -29.7792  -19.6955   23.0718 C   0  0  0  0  0  0  0  0  0  0  0  0
  -28.9459  -23.1554   19.0260 C   0  0  0  0  0  0  0  0  0  0  0  0
  -31.3691  -18.0913   22.2452 C   0  0  0  0  0  0  0  0  0  0  0  0
  -20.2115   -6.3565   25.4696 C   0  0  0  0  0  0  0  0  0  0  0  0
  -29.2663  -18.6915   23.8773 C   0  0  0  0  0  0  0  0  0  0  0  0
  -23.9255  -10.4499   21.2183 C   0  0  0  0  0  0  0  0  0  0  0  0
  -24.0836  -12.9398   20.6866 C   0  0  0  0  0  0  0  0  0  0  0  0
  -30.7816  -31.9497   20.5751 C   0  0  0  0  0  0  0  0  0  0  0  0
  -29.5405  -25.2220   17.9144 C   0  0  0  0  0  0  0  0  0  0  0  0
  -30.9645  -30.5559   20.4953 C   0  0  0  0  0  0  0  0  0  0  0  0
  -28.6229  -24.4721   18.6640 C   0  0  0  0  0  0  0  0  0  0  0  0
  -22.5620   -8.1182   21.9158 C   0  0  0  0  0  0  0  0  0  0  0  0
  -30.1592  -22.5882   18.6369 C   0  0  0  0  0  0  0  0  0  0  0  0
  -20.9756   -7.0582   23.2878 C   0  0  0  0  0  0  0  0  0  0  0  0
  -30.8506  -19.3815   22.2432 C   0  0  0  0  0  0  0  0  0  0  0  0
  -19.1194   -7.2178   25.3642 C   0  0  0  0  0  0  0  0  0  0  0  0
  -21.1396   -6.2767   24.4314 C   0  0  0  0  0  0  0  0  0  0  0  0
  -24.6303  -11.6540   20.8586 C   0  0  0  0  0  0  0  0  0  0  0  0
  -30.7851  -17.1592   23.0878 C   0  0  0  0  0  0  0  0  0  0  0  0
  -25.1576  -13.7276   20.3514 C   0  0  0  0  0  0  0  0  0  0  0  0
  -22.7262  -13.3826   20.8181 C   0  0  0  0  0  0  0  0  0  0  0  0
  -28.7355  -27.7138   19.7161 C   0  0  0  0  0  0  0  0  0  0  0  0
  -25.7425  -26.9881   18.6975 C   0  0  0  0  0  0  0  0  0  0  0  0
  -23.5863  -24.6397   17.4799 C   0  0  0  0  0  0  0  0  0  0  0  0
  -31.0342  -12.6837   21.5139 C   0  0  0  0  0  0  0  0  0  0  0  0
  -29.5195  -32.5532   21.1387 C   0  0  0  0  0  0  0  0  0  0  0  0
  -29.2106  -26.6272   17.4914 C   0  0  0  0  0  0  0  0  0  0  0  0
  -27.2998  -25.0444   19.1002 C   0  0  0  0  0  0  0  0  0  0  0  0
  -28.3467  -31.5772   21.1874 C   0  0  0  0  0  0  0  0  0  0  0  0
  -29.4355  -13.5460   18.2401 C   0  0  0  0  0  0  0  0  0  0  0  0
  -28.7904  -30.2380   21.7674 C   0  0  0  0  0  0  0  0  0  0  0  0
  -27.9778  -13.1896   18.5264 C   0  0  0  0  0  0  0  0  0  0  0  0
  -32.3394  -13.8891   24.5240 C   0  0  0  0  0  0  0  0  0  0  0  0
  -30.3867  -12.6970   19.0752 C   0  0  0  0  0  0  0  0  0  0  0  0
  -31.2589  -12.9333   24.0245 C   0  0  0  0  0  0  0  0  0  0  0  0
  -30.2543  -14.7331   22.6644 C   0  0  0  0  0  0  0  0  0  0  0  0
  -28.6738  -12.4188   20.8400 C   0  0  0  0  0  0  0  0  0  0  0  0
  -29.8705  -29.5890   20.8935 C   0  0  1  0  0  0  0  0  0  0  0  0
  -31.3263  -15.7379   23.1167 C   0  0  2  0  0  0  0  0  0  0  0  0
  -28.1717  -27.2929   18.3885 C   0  0  1  0  0  0  0  0  0  0  0  0
  -27.6787  -13.2688   20.0330 C   0  0  2  0  0  0  0  0  0  0  0  0
  -31.8800  -15.3501   24.5037 C   0  0  2  0  0  0  0  0  0  0  0  0
  -21.1956  -24.3344   16.7810 C   0  0  0  0  0  0  0  0  0  0  0  0
  -24.8973  -26.9169   21.6285 C   0  0  0  0  0  0  0  0  0  0  0  0
  -22.8209  -25.7062   20.9281 C   0  0  0  0  0  0  0  0  0  0  0  0
  -23.2557  -28.0172   20.0959 C   0  0  0  0  0  0  0  0  0  0  0  0
  -24.3638  -23.9351   14.7126 C   0  0  0  0  0  0  0  0  0  0  0  0
  -33.2414  -16.2221   26.2090 C   0  0  0  0  0  0  0  0  0  0  0  0
  -31.8376  -20.9904   19.1716 C   0  0  0  0  0  0  0  0  0  1  0  0
  -31.9693  -19.8904   20.2071 C   0  0  0  0  0  0  0  0  0  0  0  0
  -24.6307  -26.0963   19.1951 C   0  0  1  0  0  0  0  0  0  0  0  0
  -22.6045  -24.6773   16.3227 C   0  0  2  0  0  0  0  0  0  0  0  0
  -23.9268  -26.6737   20.4555 C   0  0  0  0  0  0  0  0  0  0  0  0
  -29.7434  -17.4270   23.9067 N   0  0  0  0  0  0  0  0  0  0  0  0
  -25.9492  -11.6223   20.6498 N   0  0  0  0  0  0  0  0  0  0  0  0
  -26.2402  -12.8980   20.3431 N   0  0  0  0  0  0  0  0  0  0  0  0
  -27.0260  -26.4246   18.6671 N   0  0  0  0  0  0  0  0  0  0  0  0
  -30.0583  -12.7600   20.5062 N   0  0  0  0  0  0  0  0  0  0  0  0
  -30.7629  -13.3622   22.7112 N   0  0  0  0  0  0  0  0  0  0  0  0
  -25.2722  -15.0420   20.0659 N   0  0  0  0  0  0  0  0  0  0  0  0
  -21.7478  -12.4424   21.1687 N   0  0  0  0  0  0  0  0  0  0  0  0
  -29.2761  -28.9855   19.7201 N   0  0  0  0  0  0  0  0  0  0  0  0
  -23.7406  -25.8813   18.0594 N   0  0  0  0  0  0  0  0  0  0  0  0
  -23.0068  -23.7020   15.2701 N   0  3  0  0  0  0  0  0  0  0  0  0
  -22.3884  -14.5733   20.6142 O   0  0  0  0  0  0  0  0  0  0  0  0
  -28.6826  -26.9426   20.6669 O   0  0  0  0  0  0  0  0  0  0  0  0
  -25.4805  -28.1399   18.3420 O   0  0  0  0  0  0  0  0  0  0  0  0
  -24.1564  -23.6109   17.8366 O   0  0  0  0  0  0  0  0  0  0  0  0
  -32.0821  -12.0455   21.3533 O   0  0  0  0  0  0  0  0  0  0  0  0
  -21.8966   -6.9807   22.2565 O   0  0  0  0  0  0  0  0  0  0  0  0
  -30.4605  -21.3008   18.9961 O   0  0  0  0  0  0  0  0  0  1  0  0
  -31.3893  -20.3330   21.4336 O   0  0  0  0  0  0  0  0  0  0  0  0
  -32.9974  -16.1819   24.8116 O   0  0  0  0  0  0  0  0  0  0  0  0
  -18.2289   -7.2957   26.3617 F   0  0  0  0  0  0  0  0  0  0  0  0
  -22.1874   -5.4482   24.5390 F   0  0  0  0  0  0  0  0  0  0  0  0
  1  2  1  0  0  0  0
  1  5  2  0  0  0  0
  2  6  2  0  0  0  0
  3  8  2  0  0  0  0
  3 18  1  0  0  0  0
  4  9  1  0  0  0  0
  4 18  2  0  0  0  0
  5 20  1  0  0  0  0
  6 22  1  0  0  0  0
  7 10  2  0  0  0  0
  7 21  1  0  0  0  0
  8 24  1  0  0  0  0
  9 24  2  0  0  0  0
 10 25  1  0  0  0  0
 11 12  2  0  0  0  0
 11 26  1  0  0  0  0
 12 28  1  0  0  0  0
 13 17  2  0  0  0  0
 13 27  1  0  0  0  0
 14 23  1  0  0  0  0
 14 25  2  0  0  0  0
 15 27  2  0  0  0  0
 15 31  1  0  0  0  0
 16 28  2  0  0  0  0
 16 29  1  0  0  0  0
 17 66  1  0  0  0  0
 18 30  1  0  0  0  0
 19 30  1  0  0  0  0
 19 32  2  0  0  0  0
 19 33  1  0  0  0  0
 20 22  2  0  0  0  0
 20 38  1  0  0  0  0
 21 23  2  0  0  0  0
 21 39  1  0  0  0  0
 22 50  1  0  0  0  0
 23 40  1  0  0  0  0
 24 82  1  0  0  0  0
 25 83  1  0  0  0  0
 26 29  2  0  0  0  0
 26 82  1  0  0  0  0
 27 84  1  0  0  0  0
 28 86  1  0  0  0  0
 29 87  1  0  0  0  0
 30 67  2  0  0  0  0
 31 51  1  0  0  0  0
 31 66  2  0  0  0  0
 32 68  1  0  0  0  0
 32 72  1  0  0  0  0
 33 73  1  0  0  0  0
 33 77  2  0  0  0  0
 34 52  1  0  0  0  0
 34 74  1  0  0  0  0
 34 78  2  0  0  0  0
 35 63  1  0  0  0  0
 35 69  1  0  0  0  0
 35 79  2  0  0  0  0
 36 64  1  0  0  0  0
 36 75  1  0  0  0  0
 36 80  2  0  0  0  0
 37 70  1  0  0  0  0
 37 71  1  0  0  0  0
 37 81  2  0  0  0  0
 38 41  1  0  0  0  0
 39 52  1  0  0  0  0
 40 69  1  0  0  0  0
 41 43  1  0  0  0  0
 42 44  1  0  0  0  0
 42 46  1  0  0  0  0
 43 50  1  0  0  0  0
 44 53  1  0  0  0  0
 45 47  1  0  0  0  0
 45 54  1  0  0  0  0
 46 70  1  0  0  0  0
 47 71  1  0  0  0  0
 48 51  1  0  0  0  0
 48 71  1  0  0  0  0
 49 53  1  0  0  0  0
 49 70  1  0  0  0  0
 50 74  1  0  0  0  0
 51 54  1  0  0  0  0
 52 69  1  0  0  0  0
 53 68  1  0  0  0  0
 54 85  1  0  0  0  0
 55 64  1  0  0  0  0
 56 65  1  0  0  0  0
 57 65  1  0  0  0  0
 58 65  1  0  0  0  0
 59 76  1  0  0  0  0
 60 85  1  0  0  0  0
 61 62  1  0  0  0  0
 61 83  1  0  0  0  0
 62 84  1  0  0  0  0
 63 65  1  0  0  0  0
 63 75  1  0  0  0  0
 64 76  1  0  0  0  0
 67 68  1  0  0  0  0
M  CHG  1  76   1
M  ISO  4  37 100  61 101  71 100  83 101
M  END
> <Batch ID>
0143

> <Smiles>
CNC(C)C(=O)NC(C(=O)N1Cc2cc([101O:1][101CH2:1]COc3ccnc(C4C[100N:0]([100C:0](=O)N5CCCC(n6nc(-c7ccc(Oc8ccc(F)cc8F)cc7)c(C(N)=O)c6N)C5)CCC4OC)c3)ccc2CC1C(=O)NC1CCCc2ccccc21)C(C)(C)C

> <Shape>
0.240

> <Color>
0.164

> <Negative vol penalty>
0.000

$$$$

  -OEChem-04052321213D

 85 93  0     1  0  0  0  0  0999 V2000
  -16.6920  -30.5866   23.2570 C   0  0  0  0  0  0  0  0  0  0  0  0
  -17.7955  -31.0793   22.5678 C   0  0  0  0  0  0  0  0  0  0  0  0
  -24.8365  -13.3178   18.9409 C   0  0  0  0  0  0  0  0  0  0  0  0
  -23.7289  -14.8597   20.4351 C   0  0  0  0  0  0  0  0  0  0  0  0
  -16.8527  -29.5569   24.1831 C   0  0  0  0  0  0  0  0  0  0  0  0
  -19.0607  -30.5432   22.8052 C   0  0  0  0  0  0  0  0  0  0  0  0
  -25.2379  -29.1219   19.4679 C   0  0  0  0  0  0  0  0  0  0  0  0
  -23.9675  -12.3036   19.3433 C   0  0  0  0  0  0  0  0  0  0  0  0
  -22.8599  -13.8455   20.8375 C   0  0  0  0  0  0  0  0  0  0  0  0
  -26.6080  -29.3456   19.5967 C   0  0  0  0  0  0  0  0  0  0  0  0
  -23.6319  -10.2109   21.9763 C   0  0  0  0  0  0  0  0  0  0  0  0
  -24.1831   -8.9619   22.2623 C   0  0  0  0  0  0  0  0  0  0  0  0
  -26.7536  -27.5153   21.1614 C   0  0  0  0  0  0  0  0  0  0  0  0
  -22.8238   -7.9656   20.5311 C   0  0  0  0  0  0  0  0  0  0  0  0
  -24.7172  -14.5958   19.4868 C   0  0  0  0  0  0  0  0  0  0  0  0
  -25.4336  -16.5461   18.0066 C   0  0  0  0  0  0  0  0  0  0  0  0
  -18.1190  -29.0014   24.4250 C   0  0  0  0  0  0  0  0  0  0  0  0
  -24.6124  -28.0985   20.1944 C   0  0  0  0  0  0  0  0  0  0  0  0
  -19.2387  -29.5060   23.7365 C   0  0  0  0  0  0  0  0  0  0  0  0
  -25.3759  -27.2790   21.0380 C   0  0  0  0  0  0  0  0  0  0  0  0
  -22.9792  -12.5674   20.2916 C   0  0  0  0  0  0  0  0  0  0  0  0
  -27.3656  -28.5441   20.4457 C   0  0  0  0  0  0  0  0  0  0  0  0
  -22.6767  -10.3373   20.9677 C   0  0  0  0  0  0  0  0  0  0  0  0
  -23.7790   -7.8393   21.5397 C   0  0  0  0  0  0  0  0  0  0  0  0
  -22.2726   -9.2147   20.2451 C   0  0  0  0  0  0  0  0  0  0  0  0
  -25.6148  -15.6438   19.0719 C   0  0  0  0  0  0  0  0  0  0  0  0
  -26.5585  -17.3339   18.0288 C   0  0  0  0  0  0  0  0  0  0  0  0
  -24.3457  -16.6619   17.0800 C   0  0  0  0  0  0  0  0  0  0  0  0
  -22.3359  -27.9891   22.4101 C   0  0  0  0  0  0  0  0  0  0  0  0
  -22.6453  -24.7846   22.0128 C   0  0  0  0  0  0  0  0  0  0  0  0
  -24.6009  -22.1607   21.0448 C   0  0  0  0  0  0  0  0  0  0  0  0
  -30.3453  -20.3330   20.8237 C   0  0  0  0  0  0  0  0  0  0  0  0
  -18.2505  -27.9218   25.4700 C   0  0  0  0  0  0  0  0  0  0  0  0
  -23.1383  -27.8530   20.0239 C   0  0  0  0  0  0  0  0  0  0  0  0
  -24.7558  -26.1541   21.8245 C   0  0  0  0  0  0  0  0  0  0  0  0
  -19.5672  -27.1536   25.3897 C   0  0  0  0  0  0  0  0  0  0  0  0
  -30.8867  -16.8213   20.5959 C   0  0  0  0  0  0  0  0  0  0  0  0
  -20.7398  -28.1179   25.2417 C   0  0  0  0  0  0  0  0  0  0  0  0
  -29.5472  -16.2762   20.0975 C   0  0  0  0  0  0  0  0  0  0  0  0
  -32.7340  -28.2469   20.7501 C   0  0  0  0  0  0  0  0  0  0  0  0
  -31.5927  -29.2445   20.6956 C   0  0  0  0  0  0  0  0  0  0  0  0
  -30.6969  -17.9930   21.5567 C   0  0  0  0  0  0  0  0  0  0  0  0
  -28.5222  -18.5466   20.5379 C   0  0  0  0  0  0  0  0  0  0  0  0
  -20.6235  -28.9336   23.9484 C   0  0  1  0  0  0  0  0  0  0  0  0
  -22.5156  -27.1122   21.2033 C   0  0  1  0  0  0  0  0  0  0  0  0
  -28.6636  -17.3997   19.5225 C   0  0  2  0  0  0  0  0  0  0  0  0
  -32.0975  -26.9133   20.3685 C   0  0  1  0  0  0  0  0  0  0  0  0
  -30.8247  -28.8116   19.4570 C   0  0  2  0  0  0  0  0  0  0  0  0
  -31.6309  -26.1042   21.5714 C   0  0  0  0  0  0  0  0  0  0  0  0
  -24.5935  -19.6573   20.8707 C   0  0  0  0  0  0  0  0  0  0  0  0
  -27.8744  -25.5815   18.3888 C   0  0  0  0  0  0  0  0  0  0  0  0
  -30.4204  -24.5208   16.9176 C   0  0  0  0  0  0  0  0  0  0  0  0
  -23.0510  -24.5760   25.0298 C   0  0  0  0  0  0  0  0  0  0  0  0
  -23.9640  -22.2716   24.6774 C   0  0  0  0  0  0  0  0  0  0  0  0
  -21.6067  -22.7874   24.0452 C   0  0  0  0  0  0  0  0  0  0  0  0
  -24.9772  -22.2478   18.1106 C   0  0  0  0  0  0  0  0  0  0  0  0
  -29.3858  -29.2950   19.4405 C   0  0  0  0  0  0  0  0  0  1  0  0
  -28.7400  -23.4417   19.3609 C   0  0  0  0  0  0  0  0  0  0  0  0
  -29.8493  -22.6305   20.0270 C   0  0  0  0  0  0  0  0  0  0  0  0
  -30.8430  -26.6207   18.1894 C   0  0  0  0  0  0  0  0  0  0  0  0
  -23.4964  -23.7069   22.6397 C   0  0  1  0  0  0  0  0  0  0  0  0
  -24.3154  -20.9676   20.1507 C   0  0  2  0  0  0  0  0  0  0  0  0
  -29.0776  -24.9289   19.0852 C   0  0  1  0  0  0  0  0  0  0  0  0
  -30.4193  -25.1470   18.3189 C   0  0  1  0  0  0  0  0  0  0  0  0
  -23.0412  -23.3578   24.0848 C   0  0  0  0  0  0  0  0  0  0  0  0
  -26.7644  -15.8392   19.7232 N   0  0  0  0  0  0  0  0  0  0  0  0
  -27.3158  -16.8733   19.0654 N   0  0  0  0  0  0  0  0  0  0  0  0
  -23.3099  -25.9579   21.6288 N   0  0  0  0  0  0  0  0  0  0  0  0
  -29.8513  -19.0242   20.9504 N   0  0  0  0  0  0  0  0  0  0  0  0
  -26.9638  -18.3688   17.2625 N   0  0  0  0  0  0  0  0  0  0  0  0
  -23.2692  -15.7723   17.1989 N   0  0  0  0  0  0  0  0  0  0  0  0
  -21.0210  -28.1343   22.8093 N   0  0  0  0  0  0  0  0  0  0  0  0
  -23.4711  -22.5779   21.7161 N   0  0  0  0  0  0  0  0  0  0  0  0
  -29.4819  -21.2471   20.2323 N   0  0  0  0  0  0  0  0  0  0  0  0
  -30.8753  -27.2928   19.5293 N   0  3  1  0  0  0  0  0  0  0  0  0
  -25.1655  -21.0216   18.9278 N   0  3  0  0  0  0  0  0  0  0  0  0
  -24.3362  -17.5179   16.1632 O   0  0  0  0  0  0  0  0  0  0  0  0
  -23.3177  -28.4954   22.9407 O   0  0  0  0  0  0  0  0  0  0  0  0
  -21.4365  -24.5898   21.8627 O   0  0  0  0  0  0  0  0  0  0  0  0
  -25.7157  -22.6692   21.1412 O   0  0  0  0  0  0  0  0  0  0  0  0
  -31.4742  -20.6612   21.2041 O   0  0  0  0  0  0  0  0  0  0  0  0
  -22.1310  -11.5781   20.6844 O   0  0  0  0  0  0  0  0  0  0  0  0
  -28.7029  -28.7607   20.5738 O   0  0  0  0  0  0  0  0  0  1  0  0
  -24.3095   -6.6402   21.8134 F   0  0  0  0  0  0  0  0  0  0  0  0
  -21.3562   -9.3301   19.2742 F   0  0  0  0  0  0  0  0  0  0  0  0
  1  2  1  0  0  0  0
  1  5  2  0  0  0  0
  2  6  2  0  0  0  0
  3  8  2  0  0  0  0
  3 15  1  0  0  0  0
  4  9  1  0  0  0  0
  4 15  2  0  0  0  0
  5 17  1  0  0  0  0
  6 19  1  0  0  0  0
  7 10  2  0  0  0  0
  7 18  1  0  0  0  0
  8 21  1  0  0  0  0
  9 21  2  0  0  0  0
 10 22  1  0  0  0  0
 11 12  2  0  0  0  0
 11 23  1  0  0  0  0
 12 24  1  0  0  0  0
 13 20  1  0  0  0  0
 13 22  2  0  0  0  0
 14 24  2  0  0  0  0
 14 25  1  0  0  0  0
 15 26  1  0  0  0  0
 16 26  1  0  0  0  0
 16 27  2  0  0  0  0
 16 28  1  0  0  0  0
 17 19  2  0  0  0  0
 17 33  1  0  0  0  0
 18 20  2  0  0  0  0
 18 34  1  0  0  0  0
 19 44  1  0  0  0  0
 20 35  1  0  0  0  0
 21 82  1  0  0  0  0
 22 83  1  0  0  0  0
 23 25  2  0  0  0  0
 23 82  1  0  0  0  0
 24 84  1  0  0  0  0
 25 85  1  0  0  0  0
 26 66  2  0  0  0  0
 27 67  1  0  0  0  0
 27 70  1  0  0  0  0
 28 71  1  0  0  0  0
 28 77  2  0  0  0  0
 29 45  1  0  0  0  0
 29 72  1  0  0  0  0
 29 78  2  0  0  0  0
 30 61  1  0  0  0  0
 30 68  1  0  0  0  0
 30 79  2  0  0  0  0
 31 62  1  0  0  0  0
 31 73  1  0  0  0  0
 31 80  2  0  0  0  0
 32 69  1  0  0  0  0
 32 74  1  0  0  0  0
 32 81  2  0  0  0  0
 33 36  1  0  0  0  0
 34 45  1  0  0  0  0
 35 68  1  0  0  0  0
 36 38  1  0  0  0  0
 37 39  1  0  0  0  0
 37 42  1  0  0  0  0
 38 44  1  0  0  0  0
 39 46  1  0  0  0  0
 40 41  1  0  0  0  0
 40 47  1  0  0  0  0
 41 48  1  0  0  0  0
 42 69  1  0  0  0  0
 43 46  1  0  0  0  0
 43 69  1  0  0  0  0
 44 72  1  0  0  0  0
 45 68  1  0  0  0  0
 46 67  1  0  0  0  0
 47 49  1  0  0  0  0
 47 75  1  0  0  0  0
 48 57  1  0  0  0  0
 48 75  1  0  0  0  0
 50 62  1  0  0  0  0
 51 63  1  0  0  0  0
 52 64  1  0  0  0  0
 53 65  1  0  0  0  0
 54 65  1  0  0  0  0
 55 65  1  0  0  0  0
 56 76  1  0  0  0  0
 57 83  1  0  0  0  0
 58 59  1  0  0  0  0
 58 63  1  0  0  0  0
 59 74  1  0  0  0  0
 60 64  1  0  0  0  0
 60 75  1  0  0  0  0
 61 65  1  0  0  0  0
 61 73  1  0  0  0  0
 62 76  1  0  0  0  0
 63 64  1  0  0  0  0
 66 67  1  0  0  0  0
M  CHG  2  75   1  76   1
M  ISO  4  32 100  57 101  74 100  83 101
M  END
> <Batch ID>
0143

> <Smiles>
CNC(C)C(=O)NC(C(=O)N1Cc2cc([101O:1][101CH2:1]C3CCC(C)N3CC(C)C(C)CC[100NH:0][100C:0](=O)N3CCCC(n4nc(-c5ccc(Oc6ccc(F)cc6F)cc5)c(C(N)=O)c4N)C3)ccc2CC1C(=O)NC1CCCc2ccccc21)C(C)(C)C

> <Shape>
0.248

> <Color>
0.067

> <Negative vol penalty>
0.000

$$$$

  -OEChem-04052321213D

 86 94  0     1  0  0  0  0  0999 V2000
  -31.4458  -24.8769   18.0748 C   0  0  0  0  0  0  0  0  0  0  0  0
  -30.6435  -24.3316   19.0720 C   0  0  0  0  0  0  0  0  0  0  0  0
  -27.8974  -16.6791   18.8604 C   0  0  0  0  0  0  0  0  0  0  0  0
  -28.6633  -16.4364   21.1389 C   0  0  0  0  0  0  0  0  0  0  0  0
  -31.4560  -26.2554   17.8659 C   0  0  0  0  0  0  0  0  0  0  0  0
  -29.8516  -25.1647   19.8616 C   0  0  0  0  0  0  0  0  0  0  0  0
  -25.1550  -23.3724   20.4732 C   0  0  0  0  0  0  0  0  0  0  0  0
  -28.7958  -17.7289   18.6702 C   0  0  0  0  0  0  0  0  0  0  0  0
  -29.5618  -17.4862   20.9487 C   0  0  0  0  0  0  0  0  0  0  0  0
  -24.9815  -22.3434   21.3977 C   0  0  0  0  0  0  0  0  0  0  0  0
  -31.8039  -20.3379   21.1749 C   0  0  0  0  0  0  0  0  0  0  0  0
  -31.8918  -21.3053   22.1759 C   0  0  0  0  0  0  0  0  0  0  0  0
  -24.1853  -23.9423   23.0190 C   0  0  0  0  0  0  0  0  0  0  0  0
  -23.0765  -17.5269   26.2648 C   0  0  0  0  0  0  0  0  0  0  0  0
  -25.2707  -18.1819   27.0352 C   0  0  0  0  0  0  0  0  0  0  0  0
  -29.5540  -21.8332   21.8711 C   0  0  0  0  0  0  0  0  0  0  0  0
  -27.8311  -16.0328   20.0948 C   0  0  0  0  0  0  0  0  0  0  0  0
  -27.1359  -13.5785   20.0680 C   0  0  0  0  0  0  0  0  0  0  0  0
  -30.6566  -27.1048   18.6469 C   0  0  0  0  0  0  0  0  0  0  0  0
  -24.8547  -24.6979   20.8188 C   0  0  0  0  0  0  0  0  0  0  0  0
  -29.8522  -26.5559   19.6638 C   0  0  0  0  0  0  0  0  0  0  0  0
  -24.3534  -24.9860   22.0963 C   0  0  0  0  0  0  0  0  0  0  0  0
  -23.0939  -16.4403   27.1392 C   0  0  0  0  0  0  0  0  0  0  0  0
  -25.2881  -17.0953   27.9096 C   0  0  0  0  0  0  0  0  0  0  0  0
  -24.1997  -16.2244   27.9615 C   0  0  0  0  0  0  0  0  0  0  0  0
  -29.6281  -18.1325   19.7143 C   0  0  0  0  0  0  0  0  0  0  0  0
  -24.4994  -22.6286   22.6718 C   0  0  0  0  0  0  0  0  0  0  0  0
  -30.5910  -20.1181   20.5220 C   0  0  0  0  0  0  0  0  0  0  0  0
  -24.1649  -18.3977   26.2128 C   0  0  0  0  0  0  0  0  0  0  0  0
  -30.7669  -22.0530   22.5240 C   0  0  0  0  0  0  0  0  0  0  0  0
  -29.4660  -20.8658   20.8701 C   0  0  0  0  0  0  0  0  0  0  0  0
  -26.9028  -14.9486   20.2921 C   0  0  0  0  0  0  0  0  0  0  0  0
  -25.9511  -12.9694   20.4023 C   0  0  0  0  0  0  0  0  0  0  0  0
  -28.3178  -12.9156   19.5996 C   0  0  0  0  0  0  0  0  0  0  0  0
  -26.5266  -27.3922   21.0401 C   0  0  0  0  0  0  0  0  0  0  0  0
  -23.6078  -28.7013   21.5775 C   0  0  0  0  0  0  0  0  0  0  0  0
  -20.3879  -28.2715   22.6236 C   0  0  0  0  0  0  0  0  0  0  0  0
  -21.4548  -14.5181   24.0404 C   0  0  0  0  0  0  0  0  0  0  0  0
  -30.7369  -28.5930   18.4153 C   0  0  0  0  0  0  0  0  0  0  0  0
  -25.0220  -25.7929   19.8014 C   0  0  0  0  0  0  0  0  0  0  0  0
  -23.9968  -26.3896   22.5102 C   0  0  0  0  0  0  0  0  0  0  0  0
  -29.5851  -29.3707   19.0469 C   0  0  0  0  0  0  0  0  0  0  0  0
  -21.2388  -13.7811   20.5638 C   0  0  0  0  0  0  0  0  0  0  0  0
  -29.3507  -28.9068   20.4810 C   0  0  0  0  0  0  0  0  0  0  0  0
  -22.6869  -13.8731   20.0797 C   0  0  0  0  0  0  0  0  0  0  0  0
  -20.9354  -14.8236   21.6377 C   0  0  0  0  0  0  0  0  0  0  0  0
  -23.3067  -14.9067   22.3038 C   0  0  0  0  0  0  0  0  0  0  0  0
  -28.9605  -27.4244   20.5245 C   0  0  1  0  0  0  0  0  0  0  0  0
  -25.1708  -27.1750   20.4300 C   0  0  1  0  0  0  0  0  0  0  0  0
  -23.6761  -13.8385   21.2603 C   0  0  2  0  0  0  0  0  0  0  0  0
  -26.7112  -18.0597   29.7530 C   0  0  0  0  0  0  0  0  0  0  0  0
  -27.7658  -16.6343   27.9611 C   0  0  0  0  0  0  0  0  0  0  0  0
  -18.2493  -29.5335   22.9861 C   0  0  0  0  0  0  0  0  0  0  0  0
  -24.7627  -29.9221   24.1242 C   0  0  0  0  0  0  0  0  0  0  0  0
  -22.4204  -30.3442   24.9010 C   0  0  0  0  0  0  0  0  0  0  0  0
  -23.2615  -31.4436   22.8258 C   0  0  0  0  0  0  0  0  0  0  0  0
  -18.9335  -26.6007   20.6608 C   0  0  0  0  0  0  0  0  0  0  0  0
  -21.9135  -15.5245   27.1726 C   0  0  0  0  0  0  0  0  0  0  0  0
  -22.1338  -14.2150   26.4082 C   0  0  0  0  0  0  0  0  0  0  0  0
  -25.2048  -20.5036   23.4734 C   0  0  0  0  0  0  0  0  0  1  0  0
  -25.4044  -19.9033   24.8516 C   0  0  0  0  0  0  0  0  0  0  0  0
  -26.4865  -16.8897   28.7783 C   0  0  0  0  0  0  0  0  0  0  0  0
  -22.7632  -28.9651   22.8007 C   0  0  1  0  0  0  0  0  0  0  0  0
  -19.0649  -28.6970   22.0126 C   0  0  2  0  0  0  0  0  0  0  0  0
  -23.3104  -30.1424   23.6561 C   0  0  0  0  0  0  0  0  0  0  0  0
  -25.6670  -15.1958   20.7343 N   0  0  0  0  0  0  0  0  0  0  0  0
  -25.1129  -13.9727   20.7908 N   0  0  0  0  0  0  0  0  0  0  0  0
  -24.1839  -27.4266   21.4821 N   0  0  0  0  0  0  0  0  0  0  0  0
  -21.9085  -14.7366   22.7292 N   0  0  0  0  0  0  0  0  0  0  0  0
  -24.2173  -15.1228   28.8480 N   0  0  0  0  0  0  0  0  0  0  0  0
  -25.5549  -11.6789   20.3987 N   0  0  0  0  0  0  0  0  0  0  0  0
  -29.4460  -13.6921   19.3023 N   0  0  0  0  0  0  0  0  0  0  0  0
  -27.5733  -27.2557   20.1483 N   0  0  0  0  0  0  0  0  0  0  0  0
  -21.3991  -29.1586   22.3208 N   0  0  0  0  0  0  0  0  0  0  0  0
  -22.4432  -14.4424   25.0141 N   0  0  0  0  0  0  0  0  0  0  0  0
  -18.2612  -27.5008   21.6329 N   0  3  0  0  0  0  0  0  0  0  0  0
  -28.3665  -11.6732   19.4336 O   0  0  0  0  0  0  0  0  0  0  0  0
  -26.6164  -27.6649   22.2314 O   0  0  0  0  0  0  0  0  0  0  0  0
  -23.7453  -29.5910   20.7342 O   0  0  0  0  0  0  0  0  0  0  0  0
  -20.5110  -27.2559   23.3047 O   0  0  0  0  0  0  0  0  0  0  0  0
  -20.2580  -14.3940   24.3217 O   0  0  0  0  0  0  0  0  0  0  0  0
  -30.5051  -19.1567   19.5290 O   0  0  0  0  0  0  0  0  0  0  0  0
  -24.3298  -21.6261   23.5763 O   0  0  0  0  0  0  0  0  0  1  0  0
  -24.1479  -19.4651   25.3539 O   0  0  0  0  0  0  0  0  0  0  0  0
  -30.8511  -22.9809   23.4863 F   0  0  0  0  0  0  0  0  0  0  0  0
  -28.2978  -20.6584   20.2472 F   0  0  0  0  0  0  0  0  0  0  0  0
  1  2  1  0  0  0  0
  1  5  2  0  0  0  0
  2  6  2  0  0  0  0
  3  8  2  0  0  0  0
  3 17  1  0  0  0  0
  4  9  1  0  0  0  0
  4 17  2  0  0  0  0
  5 19  1  0  0  0  0
  6 21  1  0  0  0  0
  7 10  2  0  0  0  0
  7 20  1  0  0  0  0
  8 26  1  0  0  0  0
  9 26  2  0  0  0  0
 10 27  1  0  0  0  0
 11 12  2  0  0  0  0
 11 28  1  0  0  0  0
 12 30  1  0  0  0  0
 13 22  1  0  0  0  0
 13 27  2  0  0  0  0
 14 23  2  0  0  0  0
 14 29  1  0  0  0  0
 15 24  1  0  0  0  0
 15 29  2  0  0  0  0
 16 30  2  0  0  0  0
 16 31  1  0  0  0  0
 17 32  1  0  0  0  0
 18 32  1  0  0  0  0
 18 33  2  0  0  0  0
 18 34  1  0  0  0  0
 19 21  2  0  0  0  0
 19 39  1  0  0  0  0
 20 22  2  0  0  0  0
 20 40  1  0  0  0  0
 21 48  1  0  0  0  0
 22 41  1  0  0  0  0
 23 25  1  0  0  0  0
 23 58  1  0  0  0  0
 24 25  2  0  0  0  0
 24 62  1  0  0  0  0
 25 70  1  0  0  0  0
 26 82  1  0  0  0  0
 27 83  1  0  0  0  0
 28 31  2  0  0  0  0
 28 82  1  0  0  0  0
 29 84  1  0  0  0  0
 30 85  1  0  0  0  0
 31 86  1  0  0  0  0
 32 66  2  0  0  0  0
 33 67  1  0  0  0  0
 33 71  1  0  0  0  0
 34 72  1  0  0  0  0
 34 77  2  0  0  0  0
 35 49  1  0  0  0  0
 35 73  1  0  0  0  0
 35 78  2  0  0  0  0
 36 63  1  0  0  0  0
 36 68  1  0  0  0  0
 36 79  2  0  0  0  0
 37 64  1  0  0  0  0
 37 74  1  0  0  0  0
 37 80  2  0  0  0  0
 38 69  1  0  0  0  0
 38 75  1  0  0  0  0
 38 81  2  0  0  0  0
 39 42  1  0  0  0  0
 40 49  1  0  0  0  0
 41 68  1  0  0  0  0
 42 44  1  0  0  0  0
 43 45  1  0  0  0  0
 43 46  1  0  0  0  0
 44 48  1  0  0  0  0
 45 50  1  0  0  0  0
 46 69  1  0  0  0  0
 47 50  1  0  0  0  0
 47 69  1  0  0  0  0
 48 73  1  0  0  0  0
 49 68  1  0  0  0  0
 50 67  1  0  0  0  0
 51 62  1  0  0  0  0
 52 62  1  0  0  0  0
 53 64  1  0  0  0  0
 54 65  1  0  0  0  0
 55 65  1  0  0  0  0
 56 65  1  0  0  0  0
 57 76  1  0  0  0  0
 58 59  1  0  0  0  0
 59 75  1  0  0  0  0
 60 61  1  0  0  0  0
 60 83  1  0  0  0  0
 61 84  1  0  0  0  0
 63 65  1  0  0  0  0
 63 74  1  0  0  0  0
 64 76  1  0  0  0  0
 66 67  1  0  0  0  0
M  CHG  1  76   1
M  ISO  4  38 100  60 101  75 100  83 101
M  END
> <Batch ID>
0143

> <Smiles>
CNC(C)C(=O)NC(C(=O)N1Cc2cc([101O:1][101CH2:1]COc3cc(CC[100NH:0][100C:0](=O)N4CCCC(n5nc(-c6ccc(Oc7ccc(F)cc7F)cc6)c(C(N)=O)c5N)C4)c(N)c(C(C)C)c3)ccc2CC1C(=O)NC1CCCc2ccccc21)C(C)(C)C

> <Shape>
0.246

> <Color>
0.051

> <Negative vol penalty>
0.000

$$$$

  -OEChem-04052321213D

 84 92  0     1  0  0  0  0  0999 V2000
  -19.3882  -28.7326   23.5821 C   0  0  0  0  0  0  0  0  0  0  0  0
  -19.8147  -27.4415   23.8768 C   0  0  0  0  0  0  0  0  0  0  0  0
  -29.3568  -21.8663   21.0957 C   0  0  0  0  0  0  0  0  0  0  0  0
  -29.8937  -21.1338   18.8569 C   0  0  0  0  0  0  0  0  0  0  0  0
  -18.6721  -28.9788   22.4114 C   0  0  0  0  0  0  0  0  0  0  0  0
  -19.5244  -26.3957   23.0013 C   0  0  0  0  0  0  0  0  0  0  0  0
  -23.0409  -21.5326   21.7809 C   0  0  0  0  0  0  0  0  0  0  0  0
  -25.4565  -12.2384   19.4034 C   0  0  0  0  0  0  0  0  0  0  0  0
  -29.8518  -23.1361   20.7989 C   0  0  0  0  0  0  0  0  0  0  0  0
  -30.3886  -22.4037   18.5601 C   0  0  0  0  0  0  0  0  0  0  0  0
  -23.0273  -20.2221   22.2566 C   0  0  0  0  0  0  0  0  0  0  0  0
  -24.3994  -13.1484   19.4006 C   0  0  0  0  0  0  0  0  0  0  0  0
  -28.7992  -25.8993   19.1589 C   0  0  0  0  0  0  0  0  0  0  0  0
  -28.0410  -27.0001   19.5578 C   0  0  0  0  0  0  0  0  0  0  0  0
  -21.7377  -19.5440   20.3341 C   0  0  0  0  0  0  0  0  0  0  0  0
  -24.6524  -13.4498   21.7843 C   0  0  0  0  0  0  0  0  0  0  0  0
  -29.8823  -27.7762   20.9159 C   0  0  0  0  0  0  0  0  0  0  0  0
  -29.3778  -20.8651   20.1247 C   0  0  0  0  0  0  0  0  0  0  0  0
  -27.5467  -19.0944   20.2640 C   0  0  0  0  0  0  0  0  0  0  0  0
  -18.3813  -27.9371   21.5164 C   0  0  0  0  0  0  0  0  0  0  0  0
  -22.3926  -21.8612   20.5816 C   0  0  0  0  0  0  0  0  0  0  0  0
  -18.8026  -26.6280   21.8182 C   0  0  0  0  0  0  0  0  0  0  0  0
  -21.7467  -20.8588   19.8440 C   0  0  0  0  0  0  0  0  0  0  0  0
  -26.1116  -11.9340   20.5967 C   0  0  0  0  0  0  0  0  0  0  0  0
  -25.7095  -12.5397   21.7872 C   0  0  0  0  0  0  0  0  0  0  0  0
  -30.3677  -23.4048   19.5311 C   0  0  0  0  0  0  0  0  0  0  0  0
  -22.3732  -19.2281   21.5347 C   0  0  0  0  0  0  0  0  0  0  0  0
  -23.9974  -13.7541   20.5910 C   0  0  0  0  0  0  0  0  0  0  0  0
  -30.0989  -25.7369   19.6386 C   0  0  0  0  0  0  0  0  0  0  0  0
  -28.5826  -27.9385   20.4362 C   0  0  0  0  0  0  0  0  0  0  0  0
  -30.6404  -26.6753   20.5171 C   0  0  0  0  0  0  0  0  0  0  0  0
  -28.8672  -19.5530   20.4308 C   0  0  0  0  0  0  0  0  0  0  0  0
  -27.5784  -17.7914   20.6971 C   0  0  0  0  0  0  0  0  0  0  0  0
  -26.3944  -19.7846   19.7624 C   0  0  0  0  0  0  0  0  0  0  0  0
  -19.9853  -23.7781   19.7854 C   0  0  0  0  0  0  0  0  0  0  0  0
  -20.8259  -22.9364   16.7676 C   0  0  0  0  0  0  0  0  0  0  0  0
  -22.3250  -20.6697   14.7032 C   0  0  0  0  0  0  0  0  0  0  0  0
  -30.0230  -12.7774   20.8664 C   0  0  0  0  0  0  0  0  0  0  0  0
  -17.5635  -28.2437   20.2868 C   0  0  0  0  0  0  0  0  0  0  0  0
  -22.4393  -23.2743   20.0685 C   0  0  0  0  0  0  0  0  0  0  0  0
  -21.0530  -21.1558   18.5405 C   0  0  0  0  0  0  0  0  0  0  0  0
  -17.6212  -27.1458   19.2277 C   0  0  0  0  0  0  0  0  0  0  0  0
  -31.1689  -15.2325   23.1764 C   0  0  0  0  0  0  0  0  0  0  0  0
  -17.4193  -25.7758   19.8673 C   0  0  0  0  0  0  0  0  0  0  0  0
  -30.5687  -16.5377   22.6507 C   0  0  0  0  0  0  0  0  0  0  0  0
  -31.5838  -14.3033   22.0378 C   0  0  0  0  0  0  0  0  0  0  0  0
  -29.9222  -15.3215   20.5290 C   0  0  0  0  0  0  0  0  0  0  0  0
  -18.5286  -25.4715   20.8813 C   0  0  1  0  0  0  0  0  0  0  0  0
  -21.3080  -23.5947   19.0965 C   0  0  1  0  0  0  0  0  0  0  0  0
  -29.4372  -16.2677   21.6407 C   0  0  2  0  0  0  0  0  0  0  0  0
  -26.3951  -12.2285   23.0769 C   0  0  0  0  0  0  0  0  0  0  0  0
  -22.8215  -20.2376   12.2816 C   0  0  0  0  0  0  0  0  0  0  0  0
  -17.9204  -22.1190   16.3202 C   0  0  0  0  0  0  0  0  0  0  0  0
  -18.6625  -20.8492   14.2941 C   0  0  0  0  0  0  0  0  0  0  0  0
  -18.9736  -23.3221   14.3972 C   0  0  0  0  0  0  0  0  0  0  0  0
  -25.2461  -20.6920   15.1783 C   0  0  0  0  0  0  0  0  0  0  0  0
  -28.3830  -11.3806   19.6341 C   0  0  0  0  0  0  0  0  0  0  0  0
  -22.2963  -16.9067   21.0237 C   0  0  0  0  0  0  0  0  0  1  0  0
  -22.9972  -15.6775   21.5688 C   0  0  0  0  0  0  0  0  0  0  0  0
  -27.2405  -10.9567   20.5747 C   0  0  2  0  0  0  0  0  0  0  0  0
  -20.4364  -21.8285   15.8190 C   0  0  1  0  0  0  0  0  0  0  0  0
  -23.3321  -20.8417   13.5805 C   0  0  2  0  0  0  0  0  0  0  0  0
  -19.0096  -22.0241   15.2331 C   0  0  0  0  0  0  0  0  0  0  0  0
  -29.6786  -18.6173   20.9310 N   0  0  0  0  0  0  0  0  0  0  0  0
  -28.8657  -17.5579   21.0823 N   0  0  0  0  0  0  0  0  0  0  0  0
  -21.1212  -22.5537   18.0837 N   0  0  0  0  0  0  0  0  0  0  0  0
  -30.4656  -14.0868   21.1166 N   0  0  0  0  0  0  0  0  0  0  0  0
  -26.6304  -16.8341   20.7822 N   0  0  0  0  0  0  0  0  0  0  0  0
  -26.5377  -21.1197   19.3607 N   0  0  0  0  0  0  0  0  0  0  0  0
  -19.7415  -25.0737   20.1994 N   0  0  0  0  0  0  0  0  0  0  0  0
  -21.4914  -21.7625   14.8134 N   0  0  0  0  0  0  0  0  0  0  0  0
  -28.9543  -12.6615   19.9860 N   0  0  0  0  0  0  0  0  0  0  0  0
  -26.8075   -9.5703   20.1805 N   0  3  0  0  0  0  0  0  0  0  0  0
  -24.6193  -20.1786   13.9331 N   0  3  0  0  0  0  0  0  0  0  0  0
  -25.2674  -19.2388   19.6884 O   0  0  0  0  0  0  0  0  0  0  0  0
  -19.2404  -22.8158   19.9293 O   0  0  0  0  0  0  0  0  0  0  0  0
  -20.8736  -24.0976   16.3542 O   0  0  0  0  0  0  0  0  0  0  0  0
  -22.2798  -19.6647   15.4093 O   0  0  0  0  0  0  0  0  0  0  0  0
  -30.5385  -11.7855   21.3931 O   0  0  0  0  0  0  0  0  0  0  0  0
  -30.8506  -24.6439   19.2411 O   0  0  0  0  0  0  0  0  0  0  0  0
  -22.3578  -17.9484   21.9971 O   0  0  0  0  0  0  0  0  0  1  0  0
  -22.9587  -14.6476   20.5884 O   0  0  0  0  0  0  0  0  0  0  0  0
  -27.8550  -28.9964   20.8179 F   0  0  0  0  0  0  0  0  0  0  0  0
  -31.8889  -26.5253   20.9804 F   0  0  0  0  0  0  0  0  0  0  0  0
  1  2  1  0  0  0  0
  1  5  2  0  0  0  0
  2  6  2  0  0  0  0
  3  9  2  0  0  0  0
  3 18  1  0  0  0  0
  4 10  1  0  0  0  0
  4 18  2  0  0  0  0
  5 20  1  0  0  0  0
  6 22  1  0  0  0  0
  7 11  2  0  0  0  0
  7 21  1  0  0  0  0
  8 12  2  0  0  0  0
  8 24  1  0  0  0  0
  9 26  1  0  0  0  0
 10 26  2  0  0  0  0
 11 27  1  0  0  0  0
 12 28  1  0  0  0  0
 13 14  2  0  0  0  0
 13 29  1  0  0  0  0
 14 30  1  0  0  0  0
 15 23  1  0  0  0  0
 15 27  2  0  0  0  0
 16 25  1  0  0  0  0
 16 28  2  0  0  0  0
 17 30  2  0  0  0  0
 17 31  1  0  0  0  0
 18 32  1  0  0  0  0
 19 32  1  0  0  0  0
 19 33  2  0  0  0  0
 19 34  1  0  0  0  0
 20 22  2  0  0  0  0
 20 39  1  0  0  0  0
 21 23  2  0  0  0  0
 21 40  1  0  0  0  0
 22 48  1  0  0  0  0
 23 41  1  0  0  0  0
 24 25  2  0  0  0  0
 24 60  1  0  0  0  0
 25 51  1  0  0  0  0
 26 80  1  0  0  0  0
 27 81  1  0  0  0  0
 28 82  1  0  0  0  0
 29 31  2  0  0  0  0
 29 80  1  0  0  0  0
 30 83  1  0  0  0  0
 31 84  1  0  0  0  0
 32 64  2  0  0  0  0
 33 65  1  0  0  0  0
 33 68  1  0  0  0  0
 34 69  1  0  0  0  0
 34 75  2  0  0  0  0
 35 49  1  0  0  0  0
 35 70  1  0  0  0  0
 35 76  2  0  0  0  0
 36 61  1  0  0  0  0
 36 66  1  0  0  0  0
 36 77  2  0  0  0  0
 37 62  1  0  0  0  0
 37 71  1  0  0  0  0
 37 78  2  0  0  0  0
 38 67  1  0  0  0  0
 38 72  1  0  0  0  0
 38 79  2  0  0  0  0
 39 42  1  0  0  0  0
 40 49  1  0  0  0  0
 41 66  1  0  0  0  0
 42 44  1  0  0  0  0
 43 45  1  0  0  0  0
 43 46  1  0  0  0  0
 44 48  1  0  0  0  0
 45 50  1  0  0  0  0
 46 67  1  0  0  0  0
 47 50  1  0  0  0  0
 47 67  1  0  0  0  0
 48 70  1  0  0  0  0
 49 66  1  0  0  0  0
 50 65  1  0  0  0  0
 52 62  1  0  0  0  0
 53 63  1  0  0  0  0
 54 63  1  0  0  0  0
 55 63  1  0  0  0  0
 56 74  1  0  0  0  0
 57 60  1  0  0  0  0
 57 72  1  0  0  0  0
 58 59  1  0  0  0  0
 58 81  1  0  0  0  0
 59 82  1  0  0  0  0
 60 73  1  0  0  0  0
 61 63  1  0  0  0  0
 61 71  1  0  0  0  0
 62 74  1  0  0  0  0
 64 65  1  0  0  0  0
M  CHG  2  73   1  74   1
M  ISO  4  38 100  58 101  72 100  81 101
M  END
> <Batch ID>
0143

> <Smiles>
CNC(C)C(=O)NC(C(=O)N1Cc2cc([101O:1][101CH2:1]COc3ccc(C(N)C[100NH:0][100C:0](=O)N4CCCC(n5nc(-c6ccc(Oc7ccc(F)cc7F)cc6)c(C(N)=O)c5N)C4)c(C)c3)ccc2CC1C(=O)NC1CCCc2ccccc21)C(C)(C)C

> <Shape>
0.223

> <Color>
0.062

> <Negative vol penalty>
0.000

$$$$

  -OEChem-04052321213D

 84 93  0     1  0  0  0  0  0999 V2000
  -17.2633  -21.2344   26.0458 C   0  0  0  0  0  0  0  0  0  0  0  0
  -18.4037  -20.6983   25.4563 C   0  0  0  0  0  0  0  0  0  0  0  0
  -23.0010   -9.8949   19.9813 C   0  0  0  0  0  0  0  0  0  0  0  0
  -23.7313   -9.9437   22.2838 C   0  0  0  0  0  0  0  0  0  0  0  0
  -16.0211  -20.6410   25.8250 C   0  0  0  0  0  0  0  0  0  0  0  0
  -18.3026  -19.5676   24.6465 C   0  0  0  0  0  0  0  0  0  0  0  0
  -20.9899  -19.9906   20.3752 C   0  0  0  0  0  0  0  0  0  0  0  0
  -22.2361   -8.7594   20.2479 C   0  0  0  0  0  0  0  0  0  0  0  0
  -22.9663   -8.8082   22.5504 C   0  0  0  0  0  0  0  0  0  0  0  0
  -22.3669  -19.7929   20.4670 C   0  0  0  0  0  0  0  0  0  0  0  0
  -23.2125   -5.4700   22.0738 C   0  0  0  0  0  0  0  0  0  0  0  0
  -23.8026   -4.4524   22.8233 C   0  0  0  0  0  0  0  0  0  0  0  0
  -22.0935  -17.5450   19.6356 C   0  0  0  0  0  0  0  0  0  0  0  0
  -22.0821   -4.6917   24.5026 C   0  0  0  0  0  0  0  0  0  0  0  0
  -28.4136  -18.7431   21.8855 C   0  0  0  0  0  0  0  0  0  0  0  0
  -23.7487  -10.4870   20.9992 C   0  0  0  0  0  0  0  0  0  0  0  0
  -24.1314  -13.0032   20.8255 C   0  0  0  0  0  0  0  0  0  0  0  0
  -15.9034  -19.5082   25.0043 C   0  0  0  0  0  0  0  0  0  0  0  0
  -20.1517  -18.9616   19.9223 C   0  0  0  0  0  0  0  0  0  0  0  0
  -17.0579  -18.9576   24.4156 C   0  0  0  0  0  0  0  0  0  0  0  0
  -20.7065  -17.7331   19.5364 C   0  0  0  0  0  0  0  0  0  0  0  0
  -27.1166  -18.6917   19.4854 C   0  0  0  0  0  0  0  0  0  0  0  0
  -29.1263  -18.3545   20.7627 C   0  0  0  0  0  0  0  0  0  0  0  0
  -28.4581  -18.3310   19.5436 C   0  0  0  0  0  0  0  0  0  0  0  0
  -22.2187   -8.2161   21.5324 C   0  0  0  0  0  0  0  0  0  0  0  0
  -22.9186  -18.5690   20.1000 C   0  0  0  0  0  0  0  0  0  0  0  0
  -22.0572   -6.0986   22.5387 C   0  0  0  0  0  0  0  0  0  0  0  0
  -23.2374   -4.0632   24.0377 C   0  0  0  0  0  0  0  0  0  0  0  0
  -21.4921   -5.7094   23.7531 C   0  0  0  0  0  0  0  0  0  0  0  0
  -24.5395  -11.6597   20.7243 C   0  0  0  0  0  0  0  0  0  0  0  0
  -26.4937  -19.0650   20.6654 C   0  0  0  0  0  0  0  0  0  0  0  0
  -25.2397  -13.7272   20.4596 C   0  0  0  0  0  0  0  0  0  0  0  0
  -22.8638  -13.5480   21.2155 C   0  0  0  0  0  0  0  0  0  0  0  0
  -17.7535  -17.3020   21.1864 C   0  0  0  0  0  0  0  0  0  0  0  0
  -17.5291  -16.0858   18.1876 C   0  0  0  0  0  0  0  0  0  0  0  0
  -19.0597  -15.4106   15.2130 C   0  0  0  0  0  0  0  0  0  0  0  0
  -30.7358  -14.6663   20.6973 C   0  0  0  0  0  0  0  0  0  0  0  0
  -14.5460  -18.8736   24.8333 C   0  0  0  0  0  0  0  0  0  0  0  0
  -18.6713  -19.1998   19.8037 C   0  0  0  0  0  0  0  0  0  0  0  0
  -19.8523  -16.6030   19.0247 C   0  0  0  0  0  0  0  0  0  0  0  0
  -14.4724  -17.8998   23.6600 C   0  0  0  0  0  0  0  0  0  0  0  0
  -29.5921  -12.2446   18.3512 C   0  0  0  0  0  0  0  0  0  0  0  0
  -26.9102  -19.4672   17.0298 C   0  0  0  0  0  0  0  0  0  0  0  0
  -25.6734  -19.9292   17.7349 C   0  0  0  0  0  0  0  0  0  0  0  0
  -15.6765  -16.9634   23.6670 C   0  0  0  0  0  0  0  0  0  0  0  0
  -28.1448  -11.9831   18.7717 C   0  0  0  0  0  0  0  0  0  0  0  0
  -30.4970  -12.4792   19.5588 C   0  0  0  0  0  0  0  0  0  0  0  0
  -28.5891  -13.2714   20.9028 C   0  0  0  0  0  0  0  0  0  0  0  0
  -26.3716  -18.6761   18.1919 C   0  0  0  0  0  0  0  0  0  0  0  0
  -16.9855  -17.7467   23.5109 C   0  0  1  0  0  0  0  0  0  0  0  0
  -17.8558  -17.9105   19.8164 C   0  0  1  0  0  0  0  0  0  0  0  0
  -27.6276  -13.0844   19.7166 C   0  0  2  0  0  0  0  0  0  0  0  0
  -29.1832  -17.9197   18.3020 C   0  0  0  0  0  0  0  0  0  0  0  0
  -18.6307  -14.3770   12.9669 C   0  0  0  0  0  0  0  0  0  0  0  0
  -17.6987  -13.3071   19.4366 C   0  0  0  0  0  0  0  0  0  0  0  0
  -18.2203  -12.3939   17.1646 C   0  0  0  0  0  0  0  0  0  0  0  0
  -16.0330  -13.5178   17.5831 C   0  0  0  0  0  0  0  0  0  0  0  0
  -19.6323  -17.9504   13.8057 C   0  0  0  0  0  0  0  0  0  0  0  0
  -30.5623  -17.9786   20.8849 C   0  0  0  0  0  0  0  0  0  0  0  0
  -25.0475  -19.4646   20.6673 C   0  0  0  0  0  0  0  0  0  1  0  0
  -30.8192  -16.8438   21.8850 C   0  0  0  0  0  0  0  0  0  0  0  0
  -18.1393  -14.9110   17.4619 C   0  0  1  0  0  0  0  0  0  0  0  0
  -18.6300  -15.6627   13.7790 C   0  0  2  0  0  0  0  0  0  0  0  0
  -17.5390  -13.5529   17.9230 C   0  0  0  0  0  0  0  0  0  0  0  0
  -27.1098  -19.1003   21.8682 N   0  0  0  0  0  0  0  0  0  0  0  0
  -25.8080  -11.5348   20.3252 N   0  0  0  0  0  0  0  0  0  0  0  0
  -26.2066  -12.8091   20.1723 N   0  0  0  0  0  0  0  0  0  0  0  0
  -18.4097  -16.8826   18.9329 N   0  0  0  0  0  0  0  0  0  0  0  0
  -29.9511  -13.5364   20.4134 N   0  0  0  0  0  0  0  0  0  0  0  0
  -25.4718  -15.0532   20.3587 N   0  0  0  0  0  0  0  0  0  0  0  0
  -21.8336  -12.6625   21.5602 N   0  0  0  0  0  0  0  0  0  0  0  0
  -17.1814  -18.1335   22.1302 N   0  0  0  0  0  0  0  0  0  0  0  0
  -17.9783  -15.1827   16.0376 N   0  0  0  0  0  0  0  0  0  0  0  0
  -30.1404  -15.6235   21.5096 N   0  0  0  0  0  0  0  0  0  0  0  0
  -19.5531  -16.6325   13.1246 N   0  3  0  0  0  0  0  0  0  0  0  0
  -22.6461  -14.7831   21.2413 O   0  0  0  0  0  0  0  0  0  0  0  0
  -18.1620  -16.1618   21.3731 O   0  0  0  0  0  0  0  0  0  0  0  0
  -16.3170  -16.2932   18.0908 O   0  0  0  0  0  0  0  0  0  0  0  0
  -20.2370  -15.4117   15.5656 O   0  0  0  0  0  0  0  0  0  0  0  0
  -31.8801  -14.8137   20.2548 O   0  0  0  0  0  0  0  0  0  0  0  0
  -21.4722   -7.1082   21.7930 O   0  0  0  0  0  0  0  0  0  0  0  0
  -24.2623  -18.3731   20.1893 O   0  0  0  0  0  0  0  0  0  1  0  0
  -23.8033   -3.0849   24.7566 F   0  0  0  0  0  0  0  0  0  0  0  0
  -20.3817   -6.3087   24.2043 F   0  0  0  0  0  0  0  0  0  0  0  0
  1  2  1  0  0  0  0
  1  5  2  0  0  0  0
  2  6  2  0  0  0  0
  3  8  2  0  0  0  0
  3 16  1  0  0  0  0
  4  9  1  0  0  0  0
  4 16  2  0  0  0  0
  5 18  1  0  0  0  0
  6 20  1  0  0  0  0
  7 10  2  0  0  0  0
  7 19  1  0  0  0  0
  8 25  1  0  0  0  0
  9 25  2  0  0  0  0
 10 26  1  0  0  0  0
 11 12  2  0  0  0  0
 11 27  1  0  0  0  0
 12 28  1  0  0  0  0
 13 21  1  0  0  0  0
 13 26  2  0  0  0  0
 14 28  2  0  0  0  0
 14 29  1  0  0  0  0
 15 23  1  0  0  0  0
 15 65  2  0  0  0  0
 16 30  1  0  0  0  0
 17 30  1  0  0  0  0
 17 32  2  0  0  0  0
 17 33  1  0  0  0  0
 18 20  2  0  0  0  0
 18 38  1  0  0  0  0
 19 21  2  0  0  0  0
 19 39  1  0  0  0  0
 20 50  1  0  0  0  0
 21 40  1  0  0  0  0
 22 24  1  0  0  0  0
 22 31  2  0  0  0  0
 22 49  1  0  0  0  0
 23 24  2  0  0  0  0
 23 59  1  0  0  0  0
 24 53  1  0  0  0  0
 25 81  1  0  0  0  0
 26 82  1  0  0  0  0
 27 29  2  0  0  0  0
 27 81  1  0  0  0  0
 28 83  1  0  0  0  0
 29 84  1  0  0  0  0
 30 66  2  0  0  0  0
 31 60  1  0  0  0  0
 31 65  1  0  0  0  0
 32 67  1  0  0  0  0
 32 70  1  0  0  0  0
 33 71  1  0  0  0  0
 33 76  2  0  0  0  0
 34 51  1  0  0  0  0
 34 72  1  0  0  0  0
 34 77  2  0  0  0  0
 35 62  1  0  0  0  0
 35 68  1  0  0  0  0
 35 78  2  0  0  0  0
 36 63  1  0  0  0  0
 36 73  1  0  0  0  0
 36 79  2  0  0  0  0
 37 69  1  0  0  0  0
 37 74  1  0  0  0  0
 37 80  2  0  0  0  0
 38 41  1  0  0  0  0
 39 51  1  0  0  0  0
 40 68  1  0  0  0  0
 41 45  1  0  0  0  0
 42 46  1  0  0  0  0
 42 47  1  0  0  0  0
 43 44  1  0  0  0  0
 43 49  1  0  0  0  0
 44 49  1  0  0  0  0
 45 50  1  0  0  0  0
 46 52  1  0  0  0  0
 47 69  1  0  0  0  0
 48 52  1  0  0  0  0
 48 69  1  0  0  0  0
 50 72  1  0  0  0  0
 51 68  1  0  0  0  0
 52 67  1  0  0  0  0
 54 63  1  0  0  0  0
 55 64  1  0  0  0  0
 56 64  1  0  0  0  0
 57 64  1  0  0  0  0
 58 75  1  0  0  0  0
 59 61  1  0  0  0  0
 60 82  1  0  0  0  0
 61 74  1  0  0  0  0
 62 64  1  0  0  0  0
 62 73  1  0  0  0  0
 63 75  1  0  0  0  0
 66 67  1  0  0  0  0
M  CHG  1  75   1
M  ISO  4  37 100  60 101  74 100  82 101
M  END
> <Batch ID>
0143

> <Smiles>
CNC(C)C(=O)NC(C(=O)N1Cc2cc([101O:1][101CH2:1]c3ncc(CC[100NH:0][100C:0](=O)N4CCCC(n5nc(-c6ccc(Oc7ccc(F)cc7F)cc6)c(C(N)=O)c5N)C4)c(C)c3C3CC3)ccc2CC1C(=O)NC1CCCc2ccccc21)C(C)(C)C

> <Shape>
0.201

> <Color>
0.202

> <Negative vol penalty>
0.000

$$$$

  -OEChem-04052321213D

 84 93  0     1  0  0  0  0  0999 V2000
  -16.7820  -29.3199   24.1126 C   0  0  0  0  0  0  0  0  0  0  0  0
  -17.4404  -28.1061   23.9432 C   0  0  0  0  0  0  0  0  0  0  0  0
  -26.2239  -12.0916   21.3639 C   0  0  0  0  0  0  0  0  0  0  0  0
  -25.4704  -13.6801   19.7068 C   0  0  0  0  0  0  0  0  0  0  0  0
  -17.2563  -30.4642   23.4727 C   0  0  0  0  0  0  0  0  0  0  0  0
  -18.5729  -28.0357   23.1327 C   0  0  0  0  0  0  0  0  0  0  0  0
  -24.8142  -24.5683   22.5500 C   0  0  0  0  0  0  0  0  0  0  0  0
  -27.4668  -21.7464   17.4800 C   0  0  0  0  0  0  0  0  0  0  0  0
  -28.2927  -21.1778   16.5119 C   0  0  0  0  0  0  0  0  0  0  0  0
  -24.9087  -11.9166   21.7942 C   0  0  0  0  0  0  0  0  0  0  0  0
  -24.1552  -13.5051   20.1371 C   0  0  0  0  0  0  0  0  0  0  0  0
  -25.5581  -23.8378   21.6244 C   0  0  0  0  0  0  0  0  0  0  0  0
  -21.7073  -10.7808   23.0888 C   0  0  0  0  0  0  0  0  0  0  0  0
  -21.2666   -9.4767   23.3137 C   0  0  0  0  0  0  0  0  0  0  0  0
  -29.0940  -21.2085   19.1808 C   0  0  0  0  0  0  0  0  0  0  0  0
  -26.3329  -25.8955   20.6321 C   0  0  0  0  0  0  0  0  0  0  0  0
  -21.7173   -8.9261   21.0049 C   0  0  0  0  0  0  0  0  0  0  0  0
  -26.5048  -12.9734   20.3202 C   0  0  0  0  0  0  0  0  0  0  0  0
  -28.5342  -12.4284   18.8737 C   0  0  0  0  0  0  0  0  0  0  0  0
  -18.4009  -30.4098   22.6617 C   0  0  0  0  0  0  0  0  0  0  0  0
  -24.8154  -25.9702   22.5166 C   0  0  0  0  0  0  0  0  0  0  0  0
  -19.0622  -29.1801   22.4802 C   0  0  0  0  0  0  0  0  0  0  0  0
  -29.9361  -20.6351   18.2159 C   0  0  0  0  0  0  0  0  0  0  0  0
  -25.5902  -26.6415   21.5599 C   0  0  0  0  0  0  0  0  0  0  0  0
  -27.8660  -21.7598   18.8142 C   0  0  0  0  0  0  0  0  0  0  0  0
  -29.5176  -20.6132   16.8784 C   0  0  0  0  0  0  0  0  0  0  0  0
  -23.8743  -12.6233   21.1808 C   0  0  0  0  0  0  0  0  0  0  0  0
  -26.3154  -24.5013   20.6635 C   0  0  0  0  0  0  0  0  0  0  0  0
  -22.1529  -11.1577   21.8219 C   0  0  0  0  0  0  0  0  0  0  0  0
  -21.2717   -8.5493   22.2718 C   0  0  0  0  0  0  0  0  0  0  0  0
  -22.1579  -10.2303   20.7799 C   0  0  0  0  0  0  0  0  0  0  0  0
  -27.8633  -13.1550   19.8756 C   0  0  0  0  0  0  0  0  0  0  0  0
  -29.7906  -12.9816   18.8314 C   0  0  0  0  0  0  0  0  0  0  0  0
  -28.0636  -11.3499   18.0544 C   0  0  0  0  0  0  0  0  0  0  0  0
  -22.6015  -28.2051   22.0610 C   0  0  0  0  0  0  0  0  0  0  0  0
  -25.0363  -30.2161   22.8026 C   0  0  0  0  0  0  0  0  0  0  0  0
  -28.4023  -30.7581   22.9543 C   0  0  0  0  0  0  0  0  0  0  0  0
  -31.9253  -18.3713   20.3300 C   0  0  0  0  0  0  0  0  0  0  0  0
  -18.8484  -31.6634   21.9527 C   0  0  0  0  0  0  0  0  0  0  0  0
  -24.0287  -26.7439   23.5388 C   0  0  0  0  0  0  0  0  0  0  0  0
  -25.6415  -28.1454   21.4944 C   0  0  0  0  0  0  0  0  0  0  0  0
  -20.2730  -31.5811   21.4106 C   0  0  0  0  0  0  0  0  0  0  0  0
  -32.9918  -15.2187   21.5952 C   0  0  0  0  0  0  0  0  0  0  0  0
  -20.4908  -30.2596   20.6804 C   0  0  0  0  0  0  0  0  0  0  0  0
  -31.8589  -14.2668   21.2076 C   0  0  0  0  0  0  0  0  0  0  0  0
  -32.4631  -16.5998   21.9760 C   0  0  0  0  0  0  0  0  0  0  0  0
  -30.4588  -16.2774   20.5786 C   0  0  0  0  0  0  0  0  0  0  0  0
  -20.3083  -29.0686   21.6289 C   0  0  1  0  0  0  0  0  0  0  0  0
  -31.2650  -20.0512   18.6268 C   0  0  2  0  0  0  0  0  0  0  0  0
  -23.6970  -28.1633   23.0885 C   0  0  1  0  0  0  0  0  0  0  0  0
  -32.1808  -19.8459   17.4031 C   0  0  1  0  0  0  0  0  0  0  0  0
  -30.9471  -14.8886   20.1327 C   0  0  2  0  0  0  0  0  0  0  0  0
  -31.3423  -19.2350   16.2624 C   0  0  2  0  0  0  0  0  0  0  0  0
  -32.8591  -21.1688   17.0116 C   0  0  0  0  0  0  0  0  0  0  0  0
  -32.1697  -18.9246   15.0181 C   0  0  0  0  0  0  0  0  0  0  0  0
  -30.0896  -32.5118   23.5665 C   0  0  0  0  0  0  0  0  0  0  0  0
  -24.4472  -31.6893   20.1963 C   0  0  0  0  0  0  0  0  0  0  0  0
  -26.6904  -32.7842   20.3895 C   0  0  0  0  0  0  0  0  0  0  0  0
  -24.9586  -33.1751   22.1419 C   0  0  0  0  0  0  0  0  0  0  0  0
  -29.5756  -29.0554   25.0716 C   0  0  0  0  0  0  0  0  0  0  0  0
  -26.9829  -22.3684   19.8507 C   0  0  0  0  0  0  0  0  0  1  0  0
  -26.1113  -30.9283   22.0178 C   0  0  1  0  0  0  0  0  0  0  0  0
  -29.2837  -31.3185   24.0558 C   0  0  2  0  0  0  0  0  0  0  0  0
  -25.5496  -32.1159   21.1861 C   0  0  0  0  0  0  0  0  0  0  0  0
  -28.6301  -14.0977   20.4299 N   0  0  0  0  0  0  0  0  0  0  0  0
  -29.7958  -13.9673   19.7741 N   0  0  0  0  0  0  0  0  0  0  0  0
  -24.8502  -28.8572   22.5116 N   0  0  0  0  0  0  0  0  0  0  0  0
  -31.6070  -17.1341   20.9141 N   0  0  0  0  0  0  0  0  0  0  0  0
  -30.8805  -12.7161   18.0803 N   0  0  0  0  0  0  0  0  0  0  0  0
  -26.7461  -10.9048   18.2279 N   0  0  0  0  0  0  0  0  0  0  0  0
  -21.4790  -28.9032   22.4636 N   0  0  0  0  0  0  0  0  0  0  0  0
  -27.1379  -31.3073   22.9827 N   0  0  0  0  0  0  0  0  0  0  0  0
  -31.0658  -18.8017   19.3267 N   0  0  0  0  0  0  0  0  0  0  0  0
  -30.2332  -30.2768   24.5399 N   0  3  0  0  0  0  0  0  0  0  0  0
  -28.7953  -10.7865   17.2054 O   0  0  0  0  0  0  0  0  0  0  0  0
  -22.7632  -27.6466   20.9823 O   0  0  0  0  0  0  0  0  0  0  0  0
  -24.3904  -30.8406   23.6479 O   0  0  0  0  0  0  0  0  0  0  0  0
  -28.7972  -29.9198   22.1468 O   0  0  0  0  0  0  0  0  0  0  0  0
  -32.9060  -19.0400   20.6734 O   0  0  0  0  0  0  0  0  0  0  0  0
  -30.2716  -20.0994   15.8551 O   0  0  0  0  0  0  0  0  0  0  0  0
  -22.5908  -12.4526   21.6003 O   0  0  0  0  0  0  0  0  0  0  0  0
  -27.0469  -23.7858   19.7522 O   0  0  0  0  0  0  0  0  0  1  0  0
  -20.8499   -7.2966   22.4883 F   0  0  0  0  0  0  0  0  0  0  0  0
  -22.5860  -10.5862   19.5609 F   0  0  0  0  0  0  0  0  0  0  0  0
  1  2  1  0  0  0  0
  1  5  2  0  0  0  0
  2  6  2  0  0  0  0
  3 10  2  0  0  0  0
  3 18  1  0  0  0  0
  4 11  1  0  0  0  0
  4 18  2  0  0  0  0
  5 20  1  0  0  0  0
  6 22  1  0  0  0  0
  7 12  2  0  0  0  0
  7 21  1  0  0  0  0
  8  9  2  0  0  0  0
  8 25  1  0  0  0  0
  9 26  1  0  0  0  0
 10 27  1  0  0  0  0
 11 27  2  0  0  0  0
 12 28  1  0  0  0  0
 13 14  2  0  0  0  0
 13 29  1  0  0  0  0
 14 30  1  0  0  0  0
 15 23  1  0  0  0  0
 15 25  2  0  0  0  0
 16 24  1  0  0  0  0
 16 28  2  0  0  0  0
 17 30  2  0  0  0  0
 17 31  1  0  0  0  0
 18 32  1  0  0  0  0
 19 32  1  0  0  0  0
 19 33  2  0  0  0  0
 19 34  1  0  0  0  0
 20 22  2  0  0  0  0
 20 39  1  0  0  0  0
 21 24  2  0  0  0  0
 21 40  1  0  0  0  0
 22 48  1  0  0  0  0
 23 26  2  0  0  0  0
 23 49  1  0  0  0  0
 24 41  1  0  0  0  0
 25 61  1  0  0  0  0
 26 80  1  0  0  0  0
 27 81  1  0  0  0  0
 28 82  1  0  0  0  0
 29 31  2  0  0  0  0
 29 81  1  0  0  0  0
 30 83  1  0  0  0  0
 31 84  1  0  0  0  0
 32 65  2  0  0  0  0
 33 66  1  0  0  0  0
 33 69  1  0  0  0  0
 34 70  1  0  0  0  0
 34 75  2  0  0  0  0
 35 50  1  0  0  0  0
 35 71  1  0  0  0  0
 35 76  2  0  0  0  0
 36 62  1  0  0  0  0
 36 67  1  0  0  0  0
 36 77  2  0  0  0  0
 37 63  1  0  0  0  0
 37 72  1  0  0  0  0
 37 78  2  0  0  0  0
 38 68  1  0  0  0  0
 38 73  1  0  0  0  0
 38 79  2  0  0  0  0
 39 42  1  0  0  0  0
 40 50  1  0  0  0  0
 41 67  1  0  0  0  0
 42 44  1  0  0  0  0
 43 45  1  0  0  0  0
 43 46  1  0  0  0  0
 44 48  1  0  0  0  0
 45 52  1  0  0  0  0
 46 68  1  0  0  0  0
 47 52  1  0  0  0  0
 47 68  1  0  0  0  0
 48 71  1  0  0  0  0
 49 51  1  0  0  0  0
 49 73  1  0  0  0  0
 50 67  1  0  0  0  0
 51 53  1  0  0  0  0
 51 54  1  0  0  0  0
 52 66  1  0  0  0  0
 53 55  1  0  0  0  0
 53 80  1  0  0  0  0
 56 63  1  0  0  0  0
 57 64  1  0  0  0  0
 58 64  1  0  0  0  0
 59 64  1  0  0  0  0
 60 74  1  0  0  0  0
 61 82  1  0  0  0  0
 62 64  1  0  0  0  0
 62 72  1  0  0  0  0
 63 74  1  0  0  0  0
 65 66  1  0  0  0  0
M  CHG  1  74   1
M  ISO  4  38 100  61 101  73 100  82 101
M  END
> <Batch ID>
0143

> <Smiles>
CNC(C)C(=O)NC(C(=O)N1Cc2cc([101O:1][101CH2:1]c3ccc4c(c3)C([100NH:0][100C:0](=O)N3CCCC(n5nc(-c6ccc(Oc7ccc(F)cc7F)cc6)c(C(N)=O)c5N)C3)C(C)C(C)O4)ccc2CC1C(=O)NC1CCCc2ccccc21)C(C)(C)C

> <Shape>
0.251

> <Color>
0.069

> <Negative vol penalty>
0.000

$$$$

  -OEChem-04052321213D

 85 94  0     1  0  0  0  0  0999 V2000
  -32.2307  -33.1660   14.9292 C   0  0  0  0  0  0  0  0  0  0  0  0
  -32.0572  -31.8365   15.3005 C   0  0  0  0  0  0  0  0  0  0  0  0
  -23.1036   -9.8661   19.8840 C   0  0  0  0  0  0  0  0  0  0  0  0
  -23.8262   -9.8528   22.1894 C   0  0  0  0  0  0  0  0  0  0  0  0
  -31.9489  -34.1849   15.8382 C   0  0  0  0  0  0  0  0  0  0  0  0
  -31.6028  -31.5252   16.5816 C   0  0  0  0  0  0  0  0  0  0  0  0
  -27.9617  -26.8622   18.1640 C   0  0  0  0  0  0  0  0  0  0  0  0
  -22.3937   -8.6850   20.0997 C   0  0  0  0  0  0  0  0  0  0  0  0
  -23.1163   -8.6716   22.4051 C   0  0  0  0  0  0  0  0  0  0  0  0
  -28.2291  -25.6036   18.7008 C   0  0  0  0  0  0  0  0  0  0  0  0
  -23.5237   -5.3722   21.7897 C   0  0  0  0  0  0  0  0  0  0  0  0
  -24.1607   -4.3535   22.4982 C   0  0  0  0  0  0  0  0  0  0  0  0
  -27.7889  -26.4600   20.9126 C   0  0  0  0  0  0  0  0  0  0  0  0
  -30.1438  -21.6941   21.2009 C   0  0  0  0  0  0  0  0  0  0  0  0
  -28.0194  -20.8551   20.4140 C   0  0  0  0  0  0  0  0  0  0  0  0
  -22.4276   -4.4389   24.1793 C   0  0  0  0  0  0  0  0  0  0  0  0
  -23.8199  -10.4500   20.9289 C   0  0  0  0  0  0  0  0  0  0  0  0
  -24.0814  -12.9867   20.8624 C   0  0  0  0  0  0  0  0  0  0  0  0
  -31.4816  -33.8862   17.1278 C   0  0  0  0  0  0  0  0  0  0  0  0
  -27.6159  -27.9337   19.0000 C   0  0  0  0  0  0  0  0  0  0  0  0
  -31.3158  -32.5410   17.5091 C   0  0  0  0  0  0  0  0  0  0  0  0
  -27.5151  -27.7306   20.3837 C   0  0  0  0  0  0  0  0  0  0  0  0
  -29.3880  -19.4999   21.8725 C   0  0  0  0  0  0  0  0  0  0  0  0
  -28.9795  -21.8661   20.4524 C   0  0  0  0  0  0  0  0  0  0  0  0
  -30.3481  -20.5110   21.9110 C   0  0  0  0  0  0  0  0  0  0  0  0
  -28.2236  -19.6719   21.1240 C   0  0  0  0  0  0  0  0  0  0  0  0
  -22.4000   -8.0877   21.3602 C   0  0  0  0  0  0  0  0  0  0  0  0
  -28.1456  -25.4030   20.0756 C   0  0  0  0  0  0  0  0  0  0  0  0
  -22.3387   -5.9245   22.2761 C   0  0  0  0  0  0  0  0  0  0  0  0
  -23.6126   -3.8868   23.6929 C   0  0  0  0  0  0  0  0  0  0  0  0
  -21.7907   -5.4578   23.4708 C   0  0  0  0  0  0  0  0  0  0  0  0
  -24.5539  -11.6698   20.7065 C   0  0  0  0  0  0  0  0  0  0  0  0
  -25.1543  -13.7779   20.5316 C   0  0  0  0  0  0  0  0  0  0  0  0
  -22.7883  -13.4531   21.2700 C   0  0  0  0  0  0  0  0  0  0  0  0
  -28.9015  -30.7628   19.6684 C   0  0  0  0  0  0  0  0  0  0  0  0
  -26.1614  -31.1733   21.3552 C   0  0  0  0  0  0  0  0  0  0  0  0
  -23.5296  -29.7509   22.9975 C   0  0  0  0  0  0  0  0  0  0  0  0
  -30.5911  -14.9793   20.8125 C   0  0  0  0  0  0  0  0  0  0  0  0
  -31.2355  -35.0200   18.0915 C   0  0  0  0  0  0  0  0  0  0  0  0
  -27.3043  -29.2785   18.4027 C   0  0  0  0  0  0  0  0  0  0  0  0
  -27.1280  -28.8431   21.3223 C   0  0  0  0  0  0  0  0  0  0  0  0
  -30.4007  -34.6179   19.3046 C   0  0  0  0  0  0  0  0  0  0  0  0
  -29.5791  -12.5955   18.3824 C   0  0  0  0  0  0  0  0  0  0  0  0
  -30.9138  -33.3086   19.8955 C   0  0  0  0  0  0  0  0  0  0  0  0
  -28.1442  -12.2484   18.7830 C   0  0  0  0  0  0  0  0  0  0  0  0
  -30.4667  -12.8227   19.6042 C   0  0  0  0  0  0  0  0  0  0  0  0
  -28.5199  -13.4650   20.9692 C   0  0  0  0  0  0  0  0  0  0  0  0
  -31.1865  -17.1432   23.4771 C   0  0  0  0  0  0  0  0  0  0  0  0
  -30.8011  -32.1640   18.8814 C   0  0  1  0  0  0  0  0  0  0  0  0
  -29.6165  -18.1790   22.6655 C   0  0  1  0  0  0  0  0  0  0  0  0
  -27.4629  -30.4249   19.3967 C   0  0  1  0  0  0  0  0  0  0  0  0
  -27.5717  -13.2823   19.7716 C   0  0  2  0  0  0  0  0  0  0  0  0
  -30.5853  -17.1521   22.0722 C   0  0  2  0  0  0  0  0  0  0  0  0
  -31.6018  -20.3482   22.7057 C   0  0  0  0  0  0  0  0  0  0  0  0
  -25.9785  -18.9203   21.9494 C   0  0  0  0  0  0  0  0  0  0  0  0
  -21.4722  -30.3429   24.3067 C   0  0  0  0  0  0  0  0  0  0  0  0
  -27.8975  -31.8584   23.7690 C   0  0  0  0  0  0  0  0  0  0  0  0
  -25.8914  -31.5046   25.2246 C   0  0  0  0  0  0  0  0  0  0  0  0
  -25.8742  -33.3027   23.4956 C   0  0  0  0  0  0  0  0  0  0  0  0
  -21.7579  -28.4145   21.0393 C   0  0  0  0  0  0  0  0  0  0  0  0
  -27.1826  -18.6029   21.0676 C   0  0  0  0  0  0  0  0  0  0  0  0
  -28.7606  -23.1386   19.6881 C   0  0  0  0  0  0  0  0  0  1  0  0
  -25.7243  -30.8851   22.7711 C   0  0  1  0  0  0  0  0  0  0  0  0
  -22.0370  -30.0202   22.9321 C   0  0  2  0  0  0  0  0  0  0  0  0
  -26.3561  -31.8670   23.7978 C   0  0  0  0  0  0  0  0  0  0  0  0
  -25.8277  -11.6229   20.3075 N   0  0  0  0  0  0  0  0  0  0  0  0
  -26.1647  -12.9202   20.2098 N   0  0  0  0  0  0  0  0  0  0  0  0
  -26.8392  -30.1413   20.6909 N   0  0  0  0  0  0  0  0  0  0  0  0
  -29.8677  -13.8184   20.4966 N   0  0  0  0  0  0  0  0  0  0  0  0
  -25.3225  -15.1166   20.4873 N   0  0  0  0  0  0  0  0  0  0  0  0
  -21.8012  -12.5055   21.5732 N   0  0  0  0  0  0  0  0  0  0  0  0
  -29.4345  -31.6949   18.7985 N   0  0  0  0  0  0  0  0  0  0  0  0
  -24.2655  -30.8920   22.7574 N   0  0  0  0  0  0  0  0  0  0  0  0
  -29.9544  -15.8822   21.6577 N   0  0  0  0  0  0  0  0  0  0  0  0
  -21.3188  -28.8294   22.3965 N   0  3  0  0  0  0  0  0  0  0  0  0
  -22.5114  -14.6741   21.3468 O   0  0  0  0  0  0  0  0  0  0  0  0
  -29.4845  -30.2192   20.5992 O   0  0  0  0  0  0  0  0  0  0  0  0
  -25.9044  -32.2710   20.8545 O   0  0  0  0  0  0  0  0  0  0  0  0
  -23.9960  -28.6402   23.2411 O   0  0  0  0  0  0  0  0  0  0  0  0
  -31.7224  -15.2059   20.3697 O   0  0  0  0  0  0  0  0  0  0  0  0
  -30.4655  -18.3494   23.8302 O   0  0  0  0  0  0  0  0  0  0  0  0
  -21.7071   -6.9353   21.5711 O   0  0  0  0  0  0  0  0  0  0  0  0
  -28.4068  -24.1757   20.6022 O   0  0  0  0  0  0  0  0  0  1  0  0
  -24.2236   -2.9073   24.3724 F   0  0  0  0  0  0  0  0  0  0  0  0
  -20.6518   -5.9836   23.9424 F   0  0  0  0  0  0  0  0  0  0  0  0
  1  2  1  0  0  0  0
  1  5  2  0  0  0  0
  2  6  2  0  0  0  0
  3  8  2  0  0  0  0
  3 17  1  0  0  0  0
  4  9  1  0  0  0  0
  4 17  2  0  0  0  0
  5 19  1  0  0  0  0
  6 21  1  0  0  0  0
  7 10  2  0  0  0  0
  7 20  1  0  0  0  0
  8 27  1  0  0  0  0
  9 27  2  0  0  0  0
 10 28  1  0  0  0  0
 11 12  2  0  0  0  0
 11 29  1  0  0  0  0
 12 30  1  0  0  0  0
 13 22  1  0  0  0  0
 13 28  2  0  0  0  0
 14 24  1  0  0  0  0
 14 25  2  0  0  0  0
 15 24  2  0  0  0  0
 15 26  1  0  0  0  0
 16 30  2  0  0  0  0
 16 31  1  0  0  0  0
 17 32  1  0  0  0  0
 18 32  1  0  0  0  0
 18 33  2  0  0  0  0
 18 34  1  0  0  0  0
 19 21  2  0  0  0  0
 19 39  1  0  0  0  0
 20 22  2  0  0  0  0
 20 40  1  0  0  0  0
 21 49  1  0  0  0  0
 22 41  1  0  0  0  0
 23 25  1  0  0  0  0
 23 26  2  0  0  0  0
 23 50  1  0  0  0  0
 24 62  1  0  0  0  0
 25 54  1  0  0  0  0
 26 61  1  0  0  0  0
 27 82  1  0  0  0  0
 28 83  1  0  0  0  0
 29 31  2  0  0  0  0
 29 82  1  0  0  0  0
 30 84  1  0  0  0  0
 31 85  1  0  0  0  0
 32 66  2  0  0  0  0
 33 67  1  0  0  0  0
 33 70  1  0  0  0  0
 34 71  1  0  0  0  0
 34 76  2  0  0  0  0
 35 51  1  0  0  0  0
 35 72  1  0  0  0  0
 35 77  2  0  0  0  0
 36 63  1  0  0  0  0
 36 68  1  0  0  0  0
 36 78  2  0  0  0  0
 37 64  1  0  0  0  0
 37 73  1  0  0  0  0
 37 79  2  0  0  0  0
 38 69  1  0  0  0  0
 38 74  1  0  0  0  0
 38 80  2  0  0  0  0
 39 42  1  0  0  0  0
 40 51  1  0  0  0  0
 41 68  1  0  0  0  0
 42 44  1  0  0  0  0
 43 45  1  0  0  0  0
 43 46  1  0  0  0  0
 44 49  1  0  0  0  0
 45 52  1  0  0  0  0
 46 69  1  0  0  0  0
 47 52  1  0  0  0  0
 47 69  1  0  0  0  0
 48 53  1  0  0  0  0
 48 81  1  0  0  0  0
 49 72  1  0  0  0  0
 50 53  1  0  0  0  0
 50 81  1  0  0  0  0
 51 68  1  0  0  0  0
 52 67  1  0  0  0  0
 53 74  1  0  0  0  0
 55 61  1  0  0  0  0
 56 64  1  0  0  0  0
 57 65  1  0  0  0  0
 58 65  1  0  0  0  0
 59 65  1  0  0  0  0
 60 75  1  0  0  0  0
 62 83  1  0  0  0  0
 63 65  1  0  0  0  0
 63 73  1  0  0  0  0
 64 75  1  0  0  0  0
 66 67  1  0  0  0  0
M  CHG  1  75   1
M  ISO  4  38 100  62 101  74 100  83 101
M  END
> <Batch ID>
0143

> <Smiles>
CCc1cc([101CH2:1][101O:1]c2ccc3c(c2)CN(C(=O)C(NC(=O)C(C)NC)C(C)(C)C)C(C(=O)NC2CCCc4ccccc42)C3)cc(C)c1C1OCC1[100NH:0][100C:0](=O)N1CCCC(n2nc(-c3ccc(Oc4ccc(F)cc4F)cc3)c(C(N)=O)c2N)C1

> <Shape>
0.346

> <Color>
0.226

> <Negative vol penalty>
0.000

$$$$

  -OEChem-04052321213D

 87 96  0     1  0  0  0  0  0999 V2000
  -24.2521   -9.2362   23.5362 C   0  0  0  0  0  0  0  0  0  0  0  0
  -25.3054  -10.1429   23.5992 C   0  0  0  0  0  0  0  0  0  0  0  0
  -19.4161  -28.3191   22.0160 C   0  0  0  0  0  0  0  0  0  0  0  0
  -20.4949  -27.2184   23.8766 C   0  0  0  0  0  0  0  0  0  0  0  0
  -23.2363   -9.4136   22.5978 C   0  0  0  0  0  0  0  0  0  0  0  0
  -25.3440  -11.2270   22.7231 C   0  0  0  0  0  0  0  0  0  0  0  0
  -27.4749  -18.0579   22.3842 C   0  0  0  0  0  0  0  0  0  0  0  0
  -18.4418  -27.3213   21.9906 C   0  0  0  0  0  0  0  0  0  0  0  0
  -19.5205  -26.2206   23.8513 C   0  0  0  0  0  0  0  0  0  0  0  0
  -28.2468  -18.9073   21.5928 C   0  0  0  0  0  0  0  0  0  0  0  0
  -17.1137  -23.5762   24.5089 C   0  0  0  0  0  0  0  0  0  0  0  0
  -16.5627  -23.1757   25.7261 C   0  0  0  0  0  0  0  0  0  0  0  0
  -31.8941  -26.1591   18.2060 C   0  0  0  0  0  0  0  0  0  0  0  0
  -30.0405  -25.0744   19.3124 C   0  0  0  0  0  0  0  0  0  0  0  0
  -26.3960  -19.1570   20.0660 C   0  0  0  0  0  0  0  0  0  0  0  0
  -31.5765  -23.7753   17.9746 C   0  0  0  0  0  0  0  0  0  0  0  0
  -15.7767  -25.4276   26.1112 C   0  0  0  0  0  0  0  0  0  0  0  0
  -20.4427  -28.2677   22.9590 C   0  0  0  0  0  0  0  0  0  0  0  0
  -21.4166  -30.5005   23.7163 C   0  0  0  0  0  0  0  0  0  0  0  0
  -23.2575  -10.5058   21.7162 C   0  0  0  0  0  0  0  0  0  0  0  0
  -26.1591  -17.7424   22.0161 C   0  0  0  0  0  0  0  0  0  0  0  0
  -24.3282  -11.4185   21.7712 C   0  0  0  0  0  0  0  0  0  0  0  0
  -30.7642  -26.2306   19.0207 C   0  0  0  0  0  0  0  0  0  0  0  0
  -25.6086  -18.3053   20.8558 C   0  0  0  0  0  0  0  0  0  0  0  0
  -18.4940  -26.2720   22.9082 C   0  0  0  0  0  0  0  0  0  0  0  0
  -27.7084  -19.4547   20.4320 C   0  0  0  0  0  0  0  0  0  0  0  0
  -16.9963  -24.9024   24.0929 C   0  0  0  0  0  0  0  0  0  0  0  0
  -32.3003  -24.9314   17.6829 C   0  0  0  0  0  0  0  0  0  0  0  0
  -30.4466  -23.8468   18.7894 C   0  0  0  0  0  0  0  0  0  0  0  0
  -15.8941  -24.1014   26.5273 C   0  0  0  0  0  0  0  0  0  0  0  0
  -16.3278  -25.8281   24.8940 C   0  0  0  0  0  0  0  0  0  0  0  0
  -21.4497  -29.2978   22.9854 C   0  0  0  0  0  0  0  0  0  0  0  0
  -22.5984  -31.1259   23.4022 C   0  0  0  0  0  0  0  0  0  0  0  0
  -20.4078  -31.0070   24.6003 C   0  0  0  0  0  0  0  0  0  0  0  0
  -24.6230  -15.0655   21.2558 C   0  0  0  0  0  0  0  0  0  0  0  0
  -22.0302  -17.0148   21.2539 C   0  0  0  0  0  0  0  0  0  0  0  0
  -20.7825  -20.1761   20.9435 C   0  0  0  0  0  0  0  0  0  0  0  0
  -27.7966  -28.8952   21.6141 C   0  0  0  0  0  0  0  0  0  0  0  0
  -22.1615  -10.6297   20.6875 C   0  0  0  0  0  0  0  0  0  0  0  0
  -25.3306  -16.8457   22.8947 C   0  0  0  0  0  0  0  0  0  0  0  0
  -24.1943  -18.0144   20.4274 C   0  0  0  0  0  0  0  0  0  0  0  0
  -22.0825  -12.0123   20.0451 C   0  0  0  0  0  0  0  0  0  0  0  0
  -25.8479  -31.5043   19.9411 C   0  0  0  0  0  0  0  0  0  0  0  0
  -23.4717  -12.4906   19.6351 C   0  0  0  0  0  0  0  0  0  0  0  0
  -24.4723  -31.2901   20.5639 C   0  0  0  0  0  0  0  0  0  0  0  0
  -26.6217  -30.1963   19.7739 C   0  0  0  0  0  0  0  0  0  0  0  0
  -28.8412  -28.0832   19.3937 C   0  0  0  0  0  0  0  0  0  0  0  0
  -25.3418  -29.1923   21.6527 C   0  0  0  0  0  0  0  0  0  0  0  0
  -30.3019  -27.6291   19.6155 C   0  0  1  0  0  0  0  0  0  0  0  0
  -24.3925  -12.6208   20.8544 C   0  0  1  0  0  0  0  0  0  0  0  0
  -24.1736  -16.1847   22.1519 C   0  0  1  0  0  0  0  0  0  0  0  0
  -24.5946  -30.5131   21.8832 C   0  0  2  0  0  0  0  0  0  0  0  0
  -30.0232  -27.7459   21.1369 C   0  0  1  0  0  0  0  0  0  0  0  0
  -18.6205  -21.4501   20.9509 C   0  0  0  0  0  0  0  0  0  0  0  0
  -30.6169  -28.6099   23.4183 C   0  0  0  0  0  0  0  0  0  0  0  0
  -32.4321  -27.9492   21.8145 C   0  0  0  0  0  0  0  0  0  0  0  0
  -21.4255  -16.0002   18.4406 C   0  0  0  0  0  0  0  0  0  0  0  0
  -19.8774  -17.9458   18.1469 C   0  0  0  0  0  0  0  0  0  0  0  0
  -19.4200  -16.2460   19.9144 C   0  0  0  0  0  0  0  0  0  0  0  0
  -21.6077  -21.7904   23.2827 C   0  0  0  0  0  0  0  0  0  0  0  0
  -29.7921  -20.5497   20.0932 C   0  0  0  0  0  0  0  0  0  1  0  0
  -30.4643  -21.4906   19.1121 C   0  0  0  0  0  0  0  0  0  0  0  0
  -21.3350  -17.8681   20.2207 C   0  0  1  0  0  0  0  0  0  0  0  0
  -19.7897  -20.9545   21.7877 C   0  0  2  0  0  0  0  0  0  0  0  0
  -31.0271  -28.5437   21.9445 C   0  0  0  0  0  0  0  0  0  0  0  0
  -20.5418  -17.0192   19.1874 C   0  0  0  0  0  0  0  0  0  0  0  0
  -22.5642  -29.1650   22.2613 N   0  0  0  0  0  0  0  0  0  0  0  0
  -23.2423  -30.2924   22.5356 N   0  0  0  0  0  0  0  0  0  0  0  0
  -23.4264  -17.1269   21.3164 N   0  0  0  0  0  0  0  0  0  0  0  0
  -26.6424  -29.4079   21.0107 N   0  0  0  0  0  0  0  0  0  0  0  0
  -28.8435  -28.5420   20.7806 N   0  0  0  0  0  0  0  0  0  0  0  0
  -23.1392  -32.3020   23.7853 N   0  0  0  0  0  0  0  0  0  0  0  0
  -19.2562  -30.2366   24.8112 N   0  0  0  0  0  0  0  0  0  0  0  0
  -24.0934  -13.8327   21.5866 N   0  0  0  0  0  0  0  0  0  0  0  0
  -20.5184  -18.8229   20.9623 N   0  0  0  0  0  0  0  0  0  0  0  0
  -20.4534  -22.1335   22.4126 N   0  3  0  0  0  0  0  0  0  0  0  0
  -20.5167  -32.1177   25.1730 O   0  0  0  0  0  0  0  0  0  0  0  0
  -25.3921  -15.3030   20.3318 O   0  0  0  0  0  0  0  0  0  0  0  0
  -21.3586  -16.2813   21.9836 O   0  0  0  0  0  0  0  0  0  0  0  0
  -21.6983  -20.7149   20.3259 O   0  0  0  0  0  0  0  0  0  0  0  0
  -27.8828  -28.7314   22.8372 O   0  0  0  0  0  0  0  0  0  0  0  0
  -33.4021  -24.8614   16.8869 O   0  0  0  0  0  0  0  0  0  0  0  0
  -17.5433  -25.2983   22.8839 O   0  0  0  0  0  0  0  0  0  0  0  0
  -28.4650  -20.2893   19.6521 O   0  0  0  0  0  0  0  0  0  1  0  0
  -29.7395  -22.7190   19.0731 O   0  0  0  0  0  0  0  0  0  0  0  0
  -15.3636  -23.7163   27.6954 F   0  0  0  0  0  0  0  0  0  0  0  0
  -16.2108  -27.1033   24.4991 F   0  0  0  0  0  0  0  0  0  0  0  0
  1  2  1  0  0  0  0
  1  5  2  0  0  0  0
  2  6  2  0  0  0  0
  3  8  2  0  0  0  0
  3 18  1  0  0  0  0
  4  9  1  0  0  0  0
  4 18  2  0  0  0  0
  5 20  1  0  0  0  0
  6 22  1  0  0  0  0
  7 10  2  0  0  0  0
  7 21  1  0  0  0  0
  8 25  1  0  0  0  0
  9 25  2  0  0  0  0
 10 26  1  0  0  0  0
 11 12  2  0  0  0  0
 11 27  1  0  0  0  0
 12 30  1  0  0  0  0
 13 23  2  0  0  0  0
 13 28  1  0  0  0  0
 14 23  1  0  0  0  0
 14 29  2  0  0  0  0
 15 24  1  0  0  0  0
 15 26  2  0  0  0  0
 16 28  2  0  0  0  0
 16 29  1  0  0  0  0
 17 30  2  0  0  0  0
 17 31  1  0  0  0  0
 18 32  1  0  0  0  0
 19 32  1  0  0  0  0
 19 33  2  0  0  0  0
 19 34  1  0  0  0  0
 20 22  2  0  0  0  0
 20 39  1  0  0  0  0
 21 24  2  0  0  0  0
 21 40  1  0  0  0  0
 22 50  1  0  0  0  0
 23 49  1  0  0  0  0
 24 41  1  0  0  0  0
 25 83  1  0  0  0  0
 26 84  1  0  0  0  0
 27 31  2  0  0  0  0
 27 83  1  0  0  0  0
 28 82  1  0  0  0  0
 29 85  1  0  0  0  0
 30 86  1  0  0  0  0
 31 87  1  0  0  0  0
 32 67  2  0  0  0  0
 33 68  1  0  0  0  0
 33 72  1  0  0  0  0
 34 73  1  0  0  0  0
 34 77  2  0  0  0  0
 35 51  1  0  0  0  0
 35 74  1  0  0  0  0
 35 78  2  0  0  0  0
 36 63  1  0  0  0  0
 36 69  1  0  0  0  0
 36 79  2  0  0  0  0
 37 64  1  0  0  0  0
 37 75  1  0  0  0  0
 37 80  2  0  0  0  0
 38 70  1  0  0  0  0
 38 71  1  0  0  0  0
 38 81  2  0  0  0  0
 39 42  1  0  0  0  0
 40 51  1  0  0  0  0
 41 69  1  0  0  0  0
 42 44  1  0  0  0  0
 43 45  1  0  0  0  0
 43 46  1  0  0  0  0
 44 50  1  0  0  0  0
 45 52  1  0  0  0  0
 46 70  1  0  0  0  0
 47 49  1  0  0  0  0
 47 71  1  0  0  0  0
 48 52  1  0  0  0  0
 48 70  1  0  0  0  0
 49 53  1  0  0  0  0
 50 74  1  0  0  0  0
 51 69  1  0  0  0  0
 52 68  1  0  0  0  0
 53 65  1  0  0  0  0
 53 71  1  0  0  0  0
 54 64  1  0  0  0  0
 55 65  1  0  0  0  0
 56 65  1  0  0  0  0
 57 66  1  0  0  0  0
 58 66  1  0  0  0  0
 59 66  1  0  0  0  0
 60 76  1  0  0  0  0
 61 62  1  0  0  0  0
 61 84  1  0  0  0  0
 62 85  1  0  0  0  0
 63 66  1  0  0  0  0
 63 75  1  0  0  0  0
 64 76  1  0  0  0  0
 67 68  1  0  0  0  0
M  CHG  1  76   1
M  ISO  4  38 100  61 101  71 100  84 101
M  END
> <Batch ID>
0143

> <Smiles>
CNC(C)C(=O)NC(C(=O)N1Cc2cc([101O:1][101CH2:1]COc3cc(O)cc(C4C[100N:0]([100C:0](=O)N5CCCC(n6nc(-c7ccc(Oc8ccc(F)cc8F)cc7)c(C(N)=O)c6N)C5)C4C(C)C)c3)ccc2CC1C(=O)NC1CCCc2ccccc21)C(C)(C)C

> <Shape>
0.231

> <Color>
0.076

> <Negative vol penalty>
0.000

$$$$

  -OEChem-04052321212D

  0  0  0     0  0  0  0  0  0999 V2000
M  END
$$$$

  -OEChem-04052321213D

 84 93  0     1  0  0  0  0  0999 V2000
  -29.7611  -33.8964   25.1052 C   0  0  0  0  0  0  0  0  0  0  0  0
  -29.5042  -32.6065   24.6517 C   0  0  0  0  0  0  0  0  0  0  0  0
  -24.5088   -9.7570   21.6442 C   0  0  0  0  0  0  0  0  0  0  0  0
  -24.7801  -10.9644   23.7192 C   0  0  0  0  0  0  0  0  0  0  0  0
  -28.7050  -34.7245   25.4830 C   0  0  0  0  0  0  0  0  0  0  0  0
  -28.1909  -32.1436   24.5770 C   0  0  0  0  0  0  0  0  0  0  0  0
  -27.2342  -29.7058   20.2426 C   0  0  0  0  0  0  0  0  0  0  0  0
  -24.1796   -8.6046   22.3577 C   0  0  0  0  0  0  0  0  0  0  0  0
  -24.4509   -9.8120   24.4328 C   0  0  0  0  0  0  0  0  0  0  0  0
  -27.6950  -28.3944   20.1345 C   0  0  0  0  0  0  0  0  0  0  0  0
  -21.4778   -7.3538   23.9604 C   0  0  0  0  0  0  0  0  0  0  0  0
  -20.3825   -6.6102   23.5213 C   0  0  0  0  0  0  0  0  0  0  0  0
  -25.4831  -27.5812   20.6497 C   0  0  0  0  0  0  0  0  0  0  0  0
  -27.4052  -19.9954   20.8528 C   0  0  0  0  0  0  0  0  0  0  0  0
  -21.8172   -4.6957   23.1847 C   0  0  0  0  0  0  0  0  0  0  0  0
  -24.8091  -10.9369   22.3249 C   0  0  0  0  0  0  0  0  0  0  0  0
  -24.2678  -13.1221   21.1252 C   0  0  0  0  0  0  0  0  0  0  0  0
  -27.3775  -34.2749   25.4037 C   0  0  0  0  0  0  0  0  0  0  0  0
  -25.8947  -29.9652   20.5662 C   0  0  0  0  0  0  0  0  0  0  0  0
  -27.1162  -32.9660   24.9554 C   0  0  0  0  0  0  0  0  0  0  0  0
  -25.0072  -28.8967   20.7587 C   0  0  0  0  0  0  0  0  0  0  0  0
  -27.3334  -21.3768   20.7112 C   0  0  0  0  0  0  0  0  0  0  0  0
  -28.4184  -22.0741   20.1919 C   0  0  0  0  0  0  0  0  0  0  0  0
  -24.1506   -8.6321   23.7520 C   0  0  0  0  0  0  0  0  0  0  0  0
  -26.8201  -27.3318   20.3409 C   0  0  0  0  0  0  0  0  0  0  0  0
  -22.7429   -6.7684   24.0117 C   0  0  0  0  0  0  0  0  0  0  0  0
  -20.5521   -5.2812   23.1334 C   0  0  0  0  0  0  0  0  0  0  0  0
  -22.9126   -5.4394   23.6238 C   0  0  0  0  0  0  0  0  0  0  0  0
  -25.1498  -12.1275   21.5884 C   0  0  0  0  0  0  0  0  0  0  0  0
  -29.5431  -21.3493   19.8320 C   0  0  0  0  0  0  0  0  0  0  0  0
  -28.5752  -19.3636   20.4631 C   0  0  0  0  0  0  0  0  0  0  0  0
  -25.0785  -14.0316   20.4910 C   0  0  0  0  0  0  0  0  0  0  0  0
  -22.8432  -13.2157   21.2565 C   0  0  0  0  0  0  0  0  0  0  0  0
  -24.4094  -31.4248   22.9677 C   0  0  0  0  0  0  0  0  0  0  0  0
  -21.7800  -30.9141   21.1380 C   0  0  0  0  0  0  0  0  0  0  0  0
  -20.2669  -29.0838   18.6870 C   0  0  0  0  0  0  0  0  0  0  0  0
  -29.7071  -17.1199   20.2871 C   0  0  0  0  0  0  0  0  0  0  0  0
  -26.2722  -35.1899   25.8680 C   0  0  0  0  0  0  0  0  0  0  0  0
  -25.4071  -31.3854   20.6528 C   0  0  0  0  0  0  0  0  0  0  0  0
  -23.5549  -29.1217   21.0884 C   0  0  0  0  0  0  0  0  0  0  0  0
  -24.8849  -34.7534   25.4042 C   0  0  0  0  0  0  0  0  0  0  0  0
  -29.9604  -13.7439   19.1847 C   0  0  0  0  0  0  0  0  0  0  0  0
  -24.7714  -21.6523   20.5267 C   0  0  0  0  0  0  0  0  0  0  0  0
  -25.3774  -22.9603   20.1239 C   0  0  0  0  0  0  0  0  0  0  0  0
  -24.6889  -33.2591   25.6397 C   0  0  0  0  0  0  0  0  0  0  0  0
  -28.6589  -13.1042   19.6736 C   0  0  0  0  0  0  0  0  0  0  0  0
  -30.4994  -14.7670   20.1829 C   0  0  0  0  0  0  0  0  0  0  0  0
  -28.2390  -15.1622   21.0792 C   0  0  0  0  0  0  0  0  0  0  0  0
  -26.0842  -22.0840   21.1231 C   0  0  0  0  0  0  0  0  0  0  0  0
  -25.7036  -32.4363   24.8366 C   0  0  1  0  0  0  0  0  0  0  0  0
  -24.1423  -31.5328   21.4930 C   0  0  1  0  0  0  0  0  0  0  0  0
  -27.6231  -14.1719   20.0774 C   0  0  2  0  0  0  0  0  0  0  0  0
  -30.7421  -22.0405   19.2680 C   0  0  0  0  0  0  0  0  0  0  0  0
  -18.1026  -28.8785   17.4335 C   0  0  0  0  0  0  0  0  0  0  0  0
  -20.5026  -29.5805   23.5669 C   0  0  0  0  0  0  0  0  0  0  0  0
  -18.7951  -28.5807   22.0328 C   0  0  0  0  0  0  0  0  0  0  0  0
  -18.9661  -31.0590   22.2601 C   0  0  0  0  0  0  0  0  0  0  0  0
  -21.5816  -29.6396   16.0944 C   0  0  0  0  0  0  0  0  0  0  0  0
  -28.7932  -24.3827   21.0612 C   0  0  0  0  0  0  0  0  0  0  0  0
  -28.6346  -25.8113   20.5682 C   0  0  0  0  0  0  0  0  0  1  0  0
  -20.7674  -29.8020   21.0082 C   0  0  1  0  0  0  0  0  0  0  0  0
  -19.4895  -29.5020   17.4520 C   0  0  2  0  0  0  0  0  0  0  0  0
  -19.7856  -29.7510   22.2127 C   0  0  0  0  0  0  0  0  0  0  0  0
  -26.4233  -12.3810   21.2750 N   0  0  0  0  0  0  0  0  0  0  0  0
  -29.6498  -20.0072   19.9547 N   0  0  0  0  0  0  0  0  0  0  0  0
  -26.3473  -13.5452   20.6080 N   0  0  0  0  0  0  0  0  0  0  0  0
  -23.1276  -30.5283   21.1681 N   0  0  0  0  0  0  0  0  0  0  0  0
  -29.4648  -15.7488   20.5154 N   0  0  0  0  0  0  0  0  0  0  0  0
  -24.8226  -15.1919   19.8501 N   0  0  0  0  0  0  0  0  0  0  0  0
  -22.1666  -12.1948   21.9381 N   0  0  0  0  0  0  0  0  0  0  0  0
  -28.3751  -23.4501   20.0397 N   0  0  0  0  0  0  0  0  0  0  0  0
  -28.6389  -17.9558   20.6110 N   0  0  0  0  0  0  0  0  0  0  0  0
  -25.3062  -32.3604   23.4471 N   0  0  0  0  0  0  0  0  0  0  0  0
  -20.1179  -29.9900   19.7155 N   0  0  0  0  0  0  0  0  0  0  0  0
  -20.2111  -29.0800   16.2182 N   0  3  0  0  0  0  0  0  0  0  0  0
  -22.1876  -14.1677   20.7693 O   0  0  0  0  0  0  0  0  0  0  0  0
  -23.8426  -30.5578   23.6224 O   0  0  0  0  0  0  0  0  0  0  0  0
  -21.3900  -32.0825   21.2028 O   0  0  0  0  0  0  0  0  0  0  0  0
  -20.9361  -28.0540   18.7358 O   0  0  0  0  0  0  0  0  0  0  0  0
  -30.7729  -17.5203   19.8120 O   0  0  0  0  0  0  0  0  0  0  0  0
  -23.8292   -7.5078   24.4486 O   0  0  0  0  0  0  0  0  0  0  0  0
  -27.2674  -26.0508   20.2367 O   0  0  0  0  0  0  0  0  0  1  0  0
  -19.5000   -4.5667   22.7132 F   0  0  0  0  0  0  0  0  0  0  0  0
  -24.1253   -4.8712   23.6720 F   0  0  0  0  0  0  0  0  0  0  0  0
  1  2  1  0  0  0  0
  1  5  2  0  0  0  0
  2  6  2  0  0  0  0
  3  8  2  0  0  0  0
  3 16  1  0  0  0  0
  4  9  1  0  0  0  0
  4 16  2  0  0  0  0
  5 18  1  0  0  0  0
  6 20  1  0  0  0  0
  7 10  2  0  0  0  0
  7 19  1  0  0  0  0
  8 24  1  0  0  0  0
  9 24  2  0  0  0  0
 10 25  1  0  0  0  0
 11 12  2  0  0  0  0
 11 26  1  0  0  0  0
 12 27  1  0  0  0  0
 13 21  1  0  0  0  0
 13 25  2  0  0  0  0
 14 22  2  0  0  0  0
 14 31  1  0  0  0  0
 15 27  2  0  0  0  0
 15 28  1  0  0  0  0
 16 29  1  0  0  0  0
 17 29  1  0  0  0  0
 17 32  2  0  0  0  0
 17 33  1  0  0  0  0
 18 20  2  0  0  0  0
 18 38  1  0  0  0  0
 19 21  2  0  0  0  0
 19 39  1  0  0  0  0
 20 50  1  0  0  0  0
 21 40  1  0  0  0  0
 22 23  1  0  0  0  0
 22 49  1  0  0  0  0
 23 30  2  0  0  0  0
 23 71  1  0  0  0  0
 24 81  1  0  0  0  0
 25 82  1  0  0  0  0
 26 28  2  0  0  0  0
 26 81  1  0  0  0  0
 27 83  1  0  0  0  0
 28 84  1  0  0  0  0
 29 64  2  0  0  0  0
 30 53  1  0  0  0  0
 30 65  1  0  0  0  0
 31 65  2  0  0  0  0
 31 72  1  0  0  0  0
 32 66  1  0  0  0  0
 32 69  1  0  0  0  0
 33 70  1  0  0  0  0
 33 76  2  0  0  0  0
 34 51  1  0  0  0  0
 34 73  1  0  0  0  0
 34 77  2  0  0  0  0
 35 61  1  0  0  0  0
 35 67  1  0  0  0  0
 35 78  2  0  0  0  0
 36 62  1  0  0  0  0
 36 74  1  0  0  0  0
 36 79  2  0  0  0  0
 37 68  1  0  0  0  0
 37 72  1  0  0  0  0
 37 80  2  0  0  0  0
 38 41  1  0  0  0  0
 39 51  1  0  0  0  0
 40 67  1  0  0  0  0
 41 45  1  0  0  0  0
 42 46  1  0  0  0  0
 42 47  1  0  0  0  0
 43 44  1  0  0  0  0
 43 49  1  0  0  0  0
 44 49  1  0  0  0  0
 45 50  1  0  0  0  0
 46 52  1  0  0  0  0
 47 68  1  0  0  0  0
 48 52  1  0  0  0  0
 48 68  1  0  0  0  0
 50 73  1  0  0  0  0
 51 67  1  0  0  0  0
 52 66  1  0  0  0  0
 54 62  1  0  0  0  0
 55 63  1  0  0  0  0
 56 63  1  0  0  0  0
 57 63  1  0  0  0  0
 58 75  1  0  0  0  0
 59 60  1  0  0  0  0
 59 71  1  0  0  0  0
 60 82  1  0  0  0  0
 61 63  1  0  0  0  0
 61 74  1  0  0  0  0
 62 75  1  0  0  0  0
 64 66  1  0  0  0  0
M  CHG  1  75   1
M  ISO  4  37 100  60 101  72 100  82 101
M  END
> <Batch ID>
0143

> <Smiles>
CNC(C)C(=O)NC(C(=O)N1Cc2cc([101O:1][101CH2:1]CNc3c(C4CC4)cc([100NH:0][100C:0](=O)N4CCCC(n5nc(-c6ccc(Oc7ccc(F)cc7F)cc6)c(C(N)=O)c5N)C4)nc3C)ccc2CC1C(=O)NC1CCCc2ccccc21)C(C)(C)C

> <Shape>
0.339

> <Color>
0.158

> <Negative vol penalty>
0.000

$$$$

  -OEChem-04052321212D

  0  0  0     0  0  0  0  0  0999 V2000
M  END
$$$$

  -OEChem-04052321213D

 84 92  0     1  0  0  0  0  0999 V2000
  -16.8628  -29.3793   24.4970 C   0  0  0  0  0  0  0  0  0  0  0  0
  -17.0600  -28.1079   23.9679 C   0  0  0  0  0  0  0  0  0  0  0  0
  -25.6631  -14.2519   21.2133 C   0  0  0  0  0  0  0  0  0  0  0  0
  -25.5710  -14.5371   18.8160 C   0  0  0  0  0  0  0  0  0  0  0  0
  -17.6030  -30.4571   24.0129 C   0  0  0  0  0  0  0  0  0  0  0  0
  -17.9968  -27.9137   22.9535 C   0  0  0  0  0  0  0  0  0  0  0  0
  -22.6312  -23.0367   20.4931 C   0  0  0  0  0  0  0  0  0  0  0  0
  -24.6361  -13.3109   21.1409 C   0  0  0  0  0  0  0  0  0  0  0  0
  -24.5439  -13.5961   18.7435 C   0  0  0  0  0  0  0  0  0  0  0  0
  -22.9732  -22.3739   19.3151 C   0  0  0  0  0  0  0  0  0  0  0  0
  -24.2996  -10.0495   20.3142 C   0  0  0  0  0  0  0  0  0  0  0  0
  -24.4465   -8.8719   21.0471 C   0  0  0  0  0  0  0  0  0  0  0  0
  -27.8007  -22.7455   14.1832 C   0  0  0  0  0  0  0  0  0  0  0  0
  -24.2508  -24.2956   18.6121 C   0  0  0  0  0  0  0  0  0  0  0  0
  -22.4330   -9.3872   22.2789 C   0  0  0  0  0  0  0  0  0  0  0  0
  -28.9639  -23.4758   14.3662 C   0  0  0  0  0  0  0  0  0  0  0  0
  -26.1306  -14.8651   20.0509 C   0  0  0  0  0  0  0  0  0  0  0  0
  -28.5752  -15.5941   20.0428 C   0  0  0  0  0  0  0  0  0  0  0  0
  -18.5563  -30.2743   22.9988 C   0  0  0  0  0  0  0  0  0  0  0  0
  -23.0882  -24.3402   20.7348 C   0  0  0  0  0  0  0  0  0  0  0  0
  -18.7495  -28.9902   22.4544 C   0  0  0  0  0  0  0  0  0  0  0  0
  -23.9153  -24.9717   19.7950 C   0  0  0  0  0  0  0  0  0  0  0  0
  -27.1925  -22.1978   15.3072 C   0  0  0  0  0  0  0  0  0  0  0  0
  -27.7581  -22.3944   16.5621 C   0  0  0  0  0  0  0  0  0  0  0  0
  -24.0765  -12.9829   19.9060 C   0  0  0  0  0  0  0  0  0  0  0  0
  -23.7808  -23.0045   18.3731 C   0  0  0  0  0  0  0  0  0  0  0  0
  -23.2194  -10.8961   20.5638 C   0  0  0  0  0  0  0  0  0  0  0  0
  -23.5132   -8.5406   22.0294 C   0  0  0  0  0  0  0  0  0  0  0  0
  -22.2861  -10.5649   21.5461 C   0  0  0  0  0  0  0  0  0  0  0  0
  -27.1911  -15.8376   20.1252 C   0  0  0  0  0  0  0  0  0  0  0  0
  -28.9233  -23.1402   16.6386 C   0  0  0  0  0  0  0  0  0  0  0  0
  -29.1502  -16.8351   20.1675 C   0  0  0  0  0  0  0  0  0  0  0  0
  -29.2782  -14.3566   19.8690 C   0  0  0  0  0  0  0  0  0  0  0  0
  -21.6918  -27.1627   21.1677 C   0  0  0  0  0  0  0  0  0  0  0  0
  -24.7238  -28.1290   21.7965 C   0  0  0  0  0  0  0  0  0  0  0  0
  -28.0726  -27.6127   21.3888 C   0  0  0  0  0  0  0  0  0  0  0  0
  -27.2076  -22.3682   19.0203 C   0  0  0  0  0  0  0  0  0  0  0  0
  -19.2987  -31.4780   22.4748 C   0  0  0  0  0  0  0  0  0  0  0  0
  -22.7323  -25.0313   22.0225 C   0  0  0  0  0  0  0  0  0  0  0  0
  -24.4487  -26.3628   20.0160 C   0  0  0  0  0  0  0  0  0  0  0  0
  -20.5385  -31.1212   21.6588 C   0  0  0  0  0  0  0  0  0  0  0  0
  -28.3928  -21.1320   22.1418 C   0  0  0  0  0  0  0  0  0  0  0  0
  -20.2182  -30.0172   20.6561 C   0  0  0  0  0  0  0  0  0  0  0  0
  -28.3508  -19.6119   21.9693 C   0  0  0  0  0  0  0  0  0  0  0  0
  -27.2185  -21.8147   21.4428 C   0  0  0  0  0  0  0  0  0  0  0  0
  -27.0075  -19.9434   19.8544 C   0  0  0  0  0  0  0  0  0  0  0  0
  -19.7742  -28.7350   21.3704 C   0  0  1  0  0  0  0  0  0  0  0  0
  -22.8315  -26.5510   21.9322 C   0  0  1  0  0  0  0  0  0  0  0  0
  -28.2059  -19.2169   20.4865 C   0  0  2  0  0  0  0  0  0  0  0  0
  -32.4899  -25.0744   19.3653 C   0  0  0  0  0  0  0  0  0  0  0  0
  -30.3041  -28.5909   21.9895 C   0  0  0  0  0  0  0  0  0  0  0  0
  -24.3321  -30.3066   19.6954 C   0  0  0  0  0  0  0  0  0  0  0  0
  -26.8160  -30.6179   19.6557 C   0  0  0  0  0  0  0  0  0  0  0  0
  -25.5401  -31.0497   21.7552 C   0  0  0  0  0  0  0  0  0  0  0  0
  -28.8754  -25.1739   22.8607 C   0  0  0  0  0  0  0  0  0  0  0  0
  -25.9256  -21.3985   15.1353 C   0  0  0  0  0  0  0  0  0  0  0  0
  -31.2209  -24.2451   19.2842 C   0  0  0  0  0  0  0  0  0  0  0  0
  -24.6830  -22.2582   14.8932 C   0  0  0  0  0  0  0  0  0  0  0  0
  -30.7086  -24.1328   17.8565 C   0  0  0  0  0  0  0  0  0  0  0  0
  -24.3400  -23.1677   16.0673 C   0  0  0  0  0  0  0  0  0  1  0  0
  -25.8669  -28.6685   20.9709 C   0  0  1  0  0  0  0  0  0  0  0  0
  -29.2186  -27.6016   22.3842 C   0  0  2  0  0  0  0  0  0  0  0  0
  -25.6273  -30.1352   20.5140 C   0  0  0  0  0  0  0  0  0  0  0  0
  -29.5429  -23.6880   15.5692 N   0  0  0  0  0  0  0  0  0  0  0  0
  -26.9041  -17.1317   20.2897 N   0  0  0  0  0  0  0  0  0  0  0  0
  -28.1159  -17.7124   20.3117 N   0  0  0  0  0  0  0  0  0  0  0  0
  -24.0675  -26.9994   21.2876 N   0  0  0  0  0  0  0  0  0  0  0  0
  -27.1465  -21.3962   20.0412 N   0  0  0  0  0  0  0  0  0  0  0  0
  -30.4346  -17.2507   20.1669 N   0  0  0  0  0  0  0  0  0  0  0  0
  -28.5331  -13.1748   19.7578 N   0  0  0  0  0  0  0  0  0  0  0  0
  -27.1627  -21.8494   17.7267 N   0  0  0  0  0  0  0  0  0  0  0  0
  -20.9198  -28.0350   21.9109 N   0  0  0  0  0  0  0  0  0  0  0  0
  -27.0723  -28.4813   21.7712 N   0  0  0  0  0  0  0  0  0  0  0  0
  -29.8260  -26.2428   22.4598 N   0  3  0  0  0  0  0  0  0  0  0  0
  -30.5307  -14.2987   19.8304 O   0  0  0  0  0  0  0  0  0  0  0  0
  -21.5261  -26.8663   19.9902 O   0  0  0  0  0  0  0  0  0  0  0  0
  -24.4289  -28.6851   22.8573 O   0  0  0  0  0  0  0  0  0  0  0  0
  -28.0671  -26.9228   20.3716 O   0  0  0  0  0  0  0  0  0  0  0  0
  -27.3208  -23.5701   19.2745 O   0  0  0  0  0  0  0  0  0  0  0  0
  -23.0745  -12.0646   19.8348 O   0  0  0  0  0  0  0  0  0  0  0  0
  -24.1156  -22.3601   17.2222 O   0  0  0  0  0  0  0  0  0  1  0  0
  -29.5155  -23.3586   17.8557 O   0  0  0  0  0  0  0  0  0  0  0  0
  -23.6536   -7.4089   22.7320 F   0  0  0  0  0  0  0  0  0  0  0  0
  -21.2456  -11.3736   21.7895 F   0  0  0  0  0  0  0  0  0  0  0  0
  1  2  1  0  0  0  0
  1  5  2  0  0  0  0
  2  6  2  0  0  0  0
  3  8  2  0  0  0  0
  3 17  1  0  0  0  0
  4  9  1  0  0  0  0
  4 17  2  0  0  0  0
  5 19  1  0  0  0  0
  6 21  1  0  0  0  0
  7 10  2  0  0  0  0
  7 20  1  0  0  0  0
  8 25  1  0  0  0  0
  9 25  2  0  0  0  0
 10 26  1  0  0  0  0
 11 12  2  0  0  0  0
 11 27  1  0  0  0  0
 12 28  1  0  0  0  0
 13 16  1  0  0  0  0
 13 23  2  0  0  0  0
 14 22  1  0  0  0  0
 14 26  2  0  0  0  0
 15 28  2  0  0  0  0
 15 29  1  0  0  0  0
 16 64  2  0  0  0  0
 17 30  1  0  0  0  0
 18 30  1  0  0  0  0
 18 32  2  0  0  0  0
 18 33  1  0  0  0  0
 19 21  2  0  0  0  0
 19 38  1  0  0  0  0
 20 22  2  0  0  0  0
 20 39  1  0  0  0  0
 21 47  1  0  0  0  0
 22 40  1  0  0  0  0
 23 24  1  0  0  0  0
 23 56  1  0  0  0  0
 24 31  2  0  0  0  0
 24 71  1  0  0  0  0
 25 80  1  0  0  0  0
 26 81  1  0  0  0  0
 27 29  2  0  0  0  0
 27 80  1  0  0  0  0
 28 83  1  0  0  0  0
 29 84  1  0  0  0  0
 30 65  2  0  0  0  0
 31 64  1  0  0  0  0
 31 82  1  0  0  0  0
 32 66  1  0  0  0  0
 32 69  1  0  0  0  0
 33 70  1  0  0  0  0
 33 75  2  0  0  0  0
 34 48  1  0  0  0  0
 34 72  1  0  0  0  0
 34 76  2  0  0  0  0
 35 61  1  0  0  0  0
 35 67  1  0  0  0  0
 35 77  2  0  0  0  0
 36 62  1  0  0  0  0
 36 73  1  0  0  0  0
 36 78  2  0  0  0  0
 37 68  1  0  0  0  0
 37 71  1  0  0  0  0
 37 79  2  0  0  0  0
 38 41  1  0  0  0  0
 39 48  1  0  0  0  0
 40 67  1  0  0  0  0
 41 43  1  0  0  0  0
 42 44  1  0  0  0  0
 42 45  1  0  0  0  0
 43 47  1  0  0  0  0
 44 49  1  0  0  0  0
 45 68  1  0  0  0  0
 46 49  1  0  0  0  0
 46 68  1  0  0  0  0
 47 72  1  0  0  0  0
 48 67  1  0  0  0  0
 49 66  1  0  0  0  0
 50 57  1  0  0  0  0
 51 62  1  0  0  0  0
 52 63  1  0  0  0  0
 53 63  1  0  0  0  0
 54 63  1  0  0  0  0
 55 74  1  0  0  0  0
 56 58  1  0  0  0  0
 57 59  1  0  0  0  0
 58 60  1  0  0  0  0
 59 82  1  0  0  0  0
 60 81  1  0  0  0  0
 61 63  1  0  0  0  0
 61 73  1  0  0  0  0
 62 74  1  0  0  0  0
 65 66  1  0  0  0  0
M  CHG  1  74   1
M  ISO  4  37 100  60 101  71 100  81 101
M  END
> <Batch ID>
0143

> <Smiles>
CCCOc1nccc(CC[101CH2:1][101O:1]c2ccc3c(c2)CN(C(=O)C(NC(=O)C(C)NC)C(C)(C)C)C(C(=O)NC2CCCc4ccccc42)C3)c1[100NH:0][100C:0](=O)N1CCCC(n2nc(-c3ccc(Oc4ccc(F)cc4F)cc3)c(C(N)=O)c2N)C1

> <Shape>
0.252

> <Color>
0.080

> <Negative vol penalty>
0.000

$$$$

  -OEChem-04052321213D

 88 98  0     1  0  0  0  0  0999 V2000
  -22.8123  -33.8455   27.8978 C   0  0  0  0  0  0  0  0  0  0  0  0
  -23.9048  -33.5473   27.0897 C   0  0  0  0  0  0  0  0  0  0  0  0
  -27.1711  -11.4508   20.5701 C   0  0  0  0  0  0  0  0  0  0  0  0
  -26.2933  -13.5313   19.7111 C   0  0  0  0  0  0  0  0  0  0  0  0
  -21.7596  -32.9379   28.0077 C   0  0  0  0  0  0  0  0  0  0  0  0
  -23.9458  -32.3407   26.3919 C   0  0  0  0  0  0  0  0  0  0  0  0
  -30.1357  -23.8299   16.5437 C   0  0  0  0  0  0  0  0  0  0  0  0
  -26.3443  -29.5156   20.2615 C   0  0  0  0  0  0  0  0  0  0  0  0
  -29.5390  -24.9996   17.0141 C   0  0  0  0  0  0  0  0  0  0  0  0
  -25.9756  -10.8111   20.2425 C   0  0  0  0  0  0  0  0  0  0  0  0
  -25.0978  -12.8917   19.3835 C   0  0  0  0  0  0  0  0  0  0  0  0
  -27.1114  -28.4491   19.7945 C   0  0  0  0  0  0  0  0  0  0  0  0
  -22.8603  -10.5454   21.5265 C   0  0  0  0  0  0  0  0  0  0  0  0
  -22.3033   -9.6887   22.4759 C   0  0  0  0  0  0  0  0  0  0  0  0
  -25.1993  -26.9925   19.9984 C   0  0  0  0  0  0  0  0  0  0  0  0
  -29.6373  -24.1422   19.2707 C   0  0  0  0  0  0  0  0  0  0  0  0
  -22.4633   -7.8530   20.9132 C   0  0  0  0  0  0  0  0  0  0  0  0
  -27.3299  -12.8109   20.3044 C   0  0  0  0  0  0  0  0  0  0  0  0
  -29.7030  -13.6164   19.8279 C   0  0  0  0  0  0  0  0  0  0  0  0
  -21.7832  -31.7238   27.3033 C   0  0  0  0  0  0  0  0  0  0  0  0
  -24.9997  -29.3258   20.6114 C   0  0  0  0  0  0  0  0  0  0  0  0
  -22.8930  -31.4154   26.4936 C   0  0  0  0  0  0  0  0  0  0  0  0
  -30.4832  -22.8163   17.4367 C   0  0  0  0  0  0  0  0  0  0  0  0
  -24.4167  -28.0588   20.4672 C   0  0  0  0  0  0  0  0  0  0  0  0
  -29.2898  -25.1558   18.3776 C   0  0  0  0  0  0  0  0  0  0  0  0
  -30.2340  -22.9724   18.8003 C   0  0  0  0  0  0  0  0  0  0  0  0
  -24.9390  -11.5315   19.6492 C   0  0  0  0  0  0  0  0  0  0  0  0
  -26.5397  -27.1867   19.6656 C   0  0  0  0  0  0  0  0  0  0  0  0
  -23.2188  -10.0560   20.2704 C   0  0  0  0  0  0  0  0  0  0  0  0
  -22.1048   -8.3425   22.1692 C   0  0  0  0  0  0  0  0  0  0  0  0
  -23.0203   -8.7098   19.9638 C   0  0  0  0  0  0  0  0  0  0  0  0
  -28.5644  -13.4723   20.6431 C   0  0  0  0  0  0  0  0  0  0  0  0
  -30.5952  -14.3144   20.6045 C   0  0  0  0  0  0  0  0  0  0  0  0
  -29.9336  -13.1601   18.4883 C   0  0  0  0  0  0  0  0  0  0  0  0
  -23.3160  -29.6213   23.2912 C   0  0  0  0  0  0  0  0  0  0  0  0
  -29.8100  -18.0435   25.2510 C   0  0  0  0  0  0  0  0  0  0  0  0
  -20.8111  -29.0034   21.3250 C   0  0  0  0  0  0  0  0  0  0  0  0
  -19.6844  -27.6223   18.4146 C   0  0  0  0  0  0  0  0  0  0  0  0
  -20.6439  -30.7535   27.4907 C   0  0  0  0  0  0  0  0  0  0  0  0
  -24.1786  -30.4923   21.0882 C   0  0  0  0  0  0  0  0  0  0  0  0
  -22.9718  -27.8070   20.8100 C   0  0  0  0  0  0  0  0  0  0  0  0
  -20.5917  -29.6622   26.4247 C   0  0  0  0  0  0  0  0  0  0  0  0
  -31.8117  -15.0728   25.1612 C   0  0  0  0  0  0  0  0  0  0  0  0
  -30.8675  -21.1706   15.4827 C   0  0  0  0  0  0  0  0  0  0  0  0
  -30.2542  -20.3827   16.5978 C   0  0  0  0  0  0  0  0  0  0  0  0
  -21.9779  -29.0651   26.2036 C   0  0  0  0  0  0  0  0  0  0  0  0
  -31.2899  -14.3253   23.9348 C   0  0  0  0  0  0  0  0  0  0  0  0
  -28.8368  -18.8499   20.9112 C   0  0  0  0  0  0  0  0  0  0  0  0
  -30.6915  -15.8200   25.8781 C   0  0  0  0  0  0  0  0  0  0  0  0
  -29.4055  -16.0128   23.7732 C   0  0  0  0  0  0  0  0  0  0  0  0
  -31.1211  -21.5731   16.9110 C   0  0  0  0  0  0  0  0  0  0  0  0
  -22.9627  -30.1278   25.7015 C   0  0  1  0  0  0  0  0  0  0  0  0
  -22.9593  -30.0715   21.9028 C   0  0  1  0  0  0  0  0  0  0  0  0
  -29.2859  -19.8626   21.9280 C   0  0  2  0  0  0  0  0  0  0  0  0
  -30.5106  -15.2693   23.0022 C   0  0  2  0  0  0  0  0  0  0  0  0
  -29.9671  -19.7889   20.5876 C   0  0  2  0  0  0  0  0  0  0  0  0
  -17.5813  -27.2412   17.0997 C   0  0  0  0  0  0  0  0  0  0  0  0
  -30.8342  -20.5507   23.7561 C   0  0  0  0  0  0  0  0  0  0  0  0
  -20.0253  -26.7591   23.2369 C   0  0  0  0  0  0  0  0  0  0  0  0
  -18.5483  -25.8377   21.4376 C   0  0  0  0  0  0  0  0  0  0  0  0
  -18.1075  -28.1095   22.3690 C   0  0  0  0  0  0  0  0  0  0  0  0
  -20.6920  -29.2027   16.1243 C   0  0  0  0  0  0  0  0  0  0  0  0
  -28.6487  -26.4144   18.8838 C   0  0  0  0  0  0  0  0  0  1  0  0
  -30.5981  -21.9026   19.7772 C   0  0  0  0  0  0  0  0  0  0  0  0
  -29.0491  -18.8752   24.2494 C   0  0  0  0  0  0  0  0  0  0  0  0
  -20.1022  -27.7556   20.8564 C   0  0  1  0  0  0  0  0  0  0  0  0
  -18.7685  -28.1629   17.3315 C   0  0  2  0  0  0  0  0  0  0  0  0
  -30.0032  -19.4231   23.1572 C   0  0  1  0  0  0  0  0  0  0  0  0
  -19.2236  -27.1195   21.9703 C   0  0  0  0  0  0  0  0  0  0  0  0
  -28.7167  -14.0336   21.8455 N   0  0  0  0  0  0  0  0  0  0  0  0
  -29.9616  -14.5371   21.7916 N   0  0  0  0  0  0  0  0  0  0  0  0
  -22.2121  -28.9780   21.2780 N   0  0  0  0  0  0  0  0  0  0  0  0
  -29.9611  -16.6890   24.9537 N   0  0  0  0  0  0  0  0  0  0  0  0
  -31.8522  -14.7533   20.3811 N   0  0  0  0  0  0  0  0  0  0  0  0
  -28.9106  -12.4584   17.8362 N   0  0  0  0  0  0  0  0  0  0  0  0
  -22.7517  -30.3872   24.2934 N   0  0  0  0  0  0  0  0  0  0  0  0
  -19.3645  -28.1319   19.6553 N   0  0  0  0  0  0  0  0  0  0  0  0
  -19.5116  -28.3040   16.0475 N   0  3  0  0  0  0  0  0  0  0  0  0
  -31.0208  -13.3543   17.8935 O   0  0  0  0  0  0  0  0  0  0  0  0
  -24.0476  -28.6499   23.4421 O   0  0  0  0  0  0  0  0  0  0  0  0
  -30.2586  -18.5840   26.2654 O   0  0  0  0  0  0  0  0  0  0  0  0
  -20.1460  -29.9677   21.7114 O   0  0  0  0  0  0  0  0  0  0  0  0
  -20.5905  -26.8246   18.1838 O   0  0  0  0  0  0  0  0  0  0  0  0
  -23.7724  -10.9077   19.3292 O   0  0  0  0  0  0  0  0  0  0  0  0
  -27.2863  -26.1439   19.2107 O   0  0  0  0  0  0  0  0  0  1  0  0
  -29.6640  -20.8359   19.6757 O   0  0  0  0  0  0  0  0  0  0  0  0
  -21.5713   -7.5195   23.0816 F   0  0  0  0  0  0  0  0  0  0  0  0
  -23.3638   -8.2336   18.7592 F   0  0  0  0  0  0  0  0  0  0  0  0
  1  2  1  0  0  0  0
  1  5  2  0  0  0  0
  2  6  2  0  0  0  0
  3 10  2  0  0  0  0
  3 18  1  0  0  0  0
  4 11  1  0  0  0  0
  4 18  2  0  0  0  0
  5 20  1  0  0  0  0
  6 22  1  0  0  0  0
  7  9  2  0  0  0  0
  7 23  1  0  0  0  0
  8 12  2  0  0  0  0
  8 21  1  0  0  0  0
  9 25  1  0  0  0  0
 10 27  1  0  0  0  0
 11 27  2  0  0  0  0
 12 28  1  0  0  0  0
 13 14  2  0  0  0  0
 13 29  1  0  0  0  0
 14 30  1  0  0  0  0
 15 24  1  0  0  0  0
 15 28  2  0  0  0  0
 16 25  2  0  0  0  0
 16 26  1  0  0  0  0
 17 30  2  0  0  0  0
 17 31  1  0  0  0  0
 18 32  1  0  0  0  0
 19 32  1  0  0  0  0
 19 33  2  0  0  0  0
 19 34  1  0  0  0  0
 20 22  2  0  0  0  0
 20 39  1  0  0  0  0
 21 24  2  0  0  0  0
 21 40  1  0  0  0  0
 22 52  1  0  0  0  0
 23 26  2  0  0  0  0
 23 51  1  0  0  0  0
 24 41  1  0  0  0  0
 25 63  1  0  0  0  0
 26 64  1  0  0  0  0
 27 84  1  0  0  0  0
 28 85  1  0  0  0  0
 29 31  2  0  0  0  0
 29 84  1  0  0  0  0
 30 87  1  0  0  0  0
 31 88  1  0  0  0  0
 32 70  2  0  0  0  0
 33 71  1  0  0  0  0
 33 74  1  0  0  0  0
 34 75  1  0  0  0  0
 34 79  2  0  0  0  0
 35 53  1  0  0  0  0
 35 76  1  0  0  0  0
 35 80  2  0  0  0  0
 36 65  1  0  0  0  0
 36 73  1  0  0  0  0
 36 81  2  0  0  0  0
 37 66  1  0  0  0  0
 37 72  1  0  0  0  0
 37 82  2  0  0  0  0
 38 67  1  0  0  0  0
 38 77  1  0  0  0  0
 38 83  2  0  0  0  0
 39 42  1  0  0  0  0
 40 53  1  0  0  0  0
 41 72  1  0  0  0  0
 42 46  1  0  0  0  0
 43 47  1  0  0  0  0
 43 49  1  0  0  0  0
 44 45  1  0  0  0  0
 44 51  1  0  0  0  0
 45 51  1  0  0  0  0
 46 52  1  0  0  0  0
 47 55  1  0  0  0  0
 48 54  1  0  0  0  0
 48 56  1  0  0  0  0
 49 73  1  0  0  0  0
 50 55  1  0  0  0  0
 50 73  1  0  0  0  0
 52 76  1  0  0  0  0
 53 72  1  0  0  0  0
 54 56  1  0  0  0  0
 54 68  1  0  0  0  0
 55 71  1  0  0  0  0
 56 86  1  0  0  0  0
 57 67  1  0  0  0  0
 58 68  1  0  0  0  0
 59 69  1  0  0  0  0
 60 69  1  0  0  0  0
 61 69  1  0  0  0  0
 62 78  1  0  0  0  0
 63 85  1  0  0  0  0
 64 86  1  0  0  0  0
 65 68  1  0  0  0  0
 66 69  1  0  0  0  0
 66 77  1  0  0  0  0
 67 78  1  0  0  0  0
 70 71  1  0  0  0  0
M  CHG  1  78   1
M  ISO  4  36 100  63 101  65 100  85 101
M  END
> <Batch ID>
0143

> <Smiles>
CNC(C)C(=O)NC(C(=O)N1Cc2cc([101O:1][101CH2:1]c3ccc(C4CC4)c(COC4CC4C(C)[100CH2:0][100C:0](=O)N4CCCC(n5nc(-c6ccc(Oc7ccc(F)cc7F)cc6)c(C(N)=O)c5N)C4)c3)ccc2CC1C(=O)NC1CCCc2ccccc21)C(C)(C)C

> <Shape>
0.285

> <Color>
0.088

> <Negative vol penalty>
0.000

$$$$

  -OEChem-04052321213D

 85 94  0     1  0  0  0  0  0999 V2000
  -25.0469  -31.7134   28.6705 C   0  0  0  0  0  0  0  0  0  0  0  0
  -25.6812  -30.7815   27.8553 C   0  0  0  0  0  0  0  0  0  0  0  0
  -22.9453  -10.1601   19.9275 C   0  0  0  0  0  0  0  0  0  0  0  0
  -23.9882   -9.7385   22.0657 C   0  0  0  0  0  0  0  0  0  0  0  0
  -23.7345  -32.0974   28.3981 C   0  0  0  0  0  0  0  0  0  0  0  0
  -25.0032  -30.2322   26.7677 C   0  0  0  0  0  0  0  0  0  0  0  0
  -31.4481  -19.5827   19.7796 C   0  0  0  0  0  0  0  0  0  0  0  0
  -27.3984  -28.6289   21.3642 C   0  0  0  0  0  0  0  0  0  0  0  0
  -31.7145  -18.3990   20.4676 C   0  0  0  0  0  0  0  0  0  0  0  0
  -22.2012   -8.9878   20.0593 C   0  0  0  0  0  0  0  0  0  0  0  0
  -23.2441   -8.5661   22.1974 C   0  0  0  0  0  0  0  0  0  0  0  0
  -27.8091  -27.4009   20.8475 C   0  0  0  0  0  0  0  0  0  0  0  0
  -20.0931   -7.7016   23.0603 C   0  0  0  0  0  0  0  0  0  0  0  0
  -19.4890   -7.4543   24.2930 C   0  0  0  0  0  0  0  0  0  0  0  0
  -29.3277  -19.7699   20.9224 C   0  0  0  0  0  0  0  0  0  0  0  0
  -25.6668  -27.1451   19.7685 C   0  0  0  0  0  0  0  0  0  0  0  0
  -20.7486   -5.4030   24.4988 C   0  0  0  0  0  0  0  0  0  0  0  0
  -23.8389  -10.5355   20.9307 C   0  0  0  0  0  0  0  0  0  0  0  0
  -24.2462  -13.0364   21.2262 C   0  0  0  0  0  0  0  0  0  0  0  0
  -30.2547  -20.2682   20.0070 C   0  0  0  0  0  0  0  0  0  0  0  0
  -23.0433  -31.5597   27.3009 C   0  0  0  0  0  0  0  0  0  0  0  0
  -26.1127  -29.1200   21.0954 C   0  0  0  0  0  0  0  0  0  0  0  0
  -23.6799  -30.6083   26.4811 C   0  0  0  0  0  0  0  0  0  0  0  0
  -25.2431  -28.3808   20.2808 C   0  0  0  0  0  0  0  0  0  0  0  0
  -30.7875  -17.9007   21.3831 C   0  0  0  0  0  0  0  0  0  0  0  0
  -29.5941  -18.5861   21.6105 C   0  0  0  0  0  0  0  0  0  0  0  0
  -22.3505   -8.1907   21.1942 C   0  0  0  0  0  0  0  0  0  0  0  0
  -26.9423  -26.6574   20.0520 C   0  0  0  0  0  0  0  0  0  0  0  0
  -21.0249   -6.7995   22.5468 C   0  0  0  0  0  0  0  0  0  0  0  0
  -19.8168   -6.3051   25.0122 C   0  0  0  0  0  0  0  0  0  0  0  0
  -21.3527   -5.6502   23.2661 C   0  0  0  0  0  0  0  0  0  0  0  0
  -24.6083  -11.7462   20.7949 C   0  0  0  0  0  0  0  0  0  0  0  0
  -25.3080  -13.8295   20.8657 C   0  0  0  0  0  0  0  0  0  0  0  0
  -23.0564  -13.4784   21.8932 C   0  0  0  0  0  0  0  0  0  0  0  0
  -23.5766  -29.8545   22.8653 C   0  0  0  0  0  0  0  0  0  0  0  0
  -22.4027  -30.9308   20.0394 C   0  0  0  0  0  0  0  0  0  0  0  0
  -22.4694  -30.7848   16.6304 C   0  0  0  0  0  0  0  0  0  0  0  0
  -30.8023  -14.7450   20.5205 C   0  0  0  0  0  0  0  0  0  0  0  0
  -21.6098  -31.9700   27.0741 C   0  0  0  0  0  0  0  0  0  0  0  0
  -25.6943  -30.4590   21.6382 C   0  0  0  0  0  0  0  0  0  0  0  0
  -23.8596  -28.8732   19.9458 C   0  0  0  0  0  0  0  0  0  0  0  0
  -21.0893  -31.6210   25.6821 C   0  0  0  0  0  0  0  0  0  0  0  0
  -29.2945  -12.8504   17.9102 C   0  0  0  0  0  0  0  0  0  0  0  0
  -21.4636  -30.1883   25.3160 C   0  0  0  0  0  0  0  0  0  0  0  0
  -27.9142  -12.4957   18.4660 C   0  0  0  0  0  0  0  0  0  0  0  0
  -30.0350  -21.5349   17.7647 C   0  0  0  0  0  0  0  0  0  0  0  0
  -30.3626  -12.8382   19.0015 C   0  0  0  0  0  0  0  0  0  0  0  0
  -28.6762  -13.3199   20.7329 C   0  0  0  0  0  0  0  0  0  0  0  0
  -29.9710  -21.5268   19.2760 C   0  0  1  0  0  0  0  0  0  0  0  0
  -22.9860  -30.0085   25.2774 C   0  0  1  0  0  0  0  0  0  0  0  0
  -24.1799  -30.6224   21.7234 C   0  0  1  0  0  0  0  0  0  0  0  0
  -27.5560  -13.3738   19.6800 C   0  0  2  0  0  0  0  0  0  0  0  0
  -28.7069  -21.6328   18.4508 C   0  0  1  0  0  0  0  0  0  0  0  0
  -28.5869  -18.0714   22.5857 C   0  0  0  0  0  0  0  0  0  0  0  0
  -21.3675  -31.7550   14.5953 C   0  0  0  0  0  0  0  0  0  0  0  0
  -19.9560  -29.1750   20.5301 C   0  0  0  0  0  0  0  0  0  0  0  0
  -19.3704  -29.4353   18.1098 C   0  0  0  0  0  0  0  0  0  0  0  0
  -19.4457  -31.4378   19.5954 C   0  0  0  0  0  0  0  0  0  0  0  0
  -25.0194  -31.9225   15.6496 C   0  0  0  0  0  0  0  0  0  0  0  0
  -31.0948  -16.6310   22.1069 C   0  0  0  0  0  0  0  0  0  0  0  0
  -26.9356  -23.0902   19.4392 C   0  0  0  0  0  0  0  0  0  0  0  0
  -26.3283  -24.4751   19.3331 C   0  0  0  0  0  0  0  0  0  1  0  0
  -21.6079  -30.3210   18.9101 C   0  0  1  0  0  0  0  0  0  0  0  0
  -22.5232  -31.8759   15.5764 C   0  0  2  0  0  0  0  0  0  0  0  0
  -20.1203  -30.0818   19.2941 C   0  0  0  0  0  0  0  0  0  0  0  0
  -25.8064  -11.7169   20.2053 N   0  0  0  0  0  0  0  0  0  0  0  0
  -26.2063  -12.9986   20.2635 N   0  0  0  0  0  0  0  0  0  0  0  0
  -23.4948  -30.1851   20.5054 N   0  0  0  0  0  0  0  0  0  0  0  0
  -29.9625  -13.6915   20.1230 N   0  0  0  0  0  0  0  0  0  0  0  0
  -25.5514  -15.1497   21.0081 N   0  0  0  0  0  0  0  0  0  0  0  0
  -22.0656  -12.5323   22.1891 N   0  0  0  0  0  0  0  0  0  0  0  0
  -23.5290  -30.5580   24.0537 N   0  0  0  0  0  0  0  0  0  0  0  0
  -21.7943  -31.1982   17.7594 N   0  0  0  0  0  0  0  0  0  0  0  0
  -30.3452  -15.5089   21.5874 N   0  0  0  0  0  0  0  0  0  0  0  0
  -28.0113  -22.9478   18.4258 N   0  3  0  0  0  0  0  0  0  0  0  0
  -23.7996  -31.7947   14.8114 N   0  3  0  0  0  0  0  0  0  0  0  0
  -22.8701  -14.6797   22.2025 O   0  0  0  0  0  0  0  0  0  0  0  0
  -23.1821  -28.7089   22.6815 O   0  0  0  0  0  0  0  0  0  0  0  0
  -22.0713  -32.0316   20.4866 O   0  0  0  0  0  0  0  0  0  0  0  0
  -22.9725  -29.6754   16.4670 O   0  0  0  0  0  0  0  0  0  0  0  0
  -31.8772  -14.9901   19.9623 O   0  0  0  0  0  0  0  0  0  0  0  0
  -21.6244   -7.0468   21.3232 O   0  0  0  0  0  0  0  0  0  0  0  0
  -27.3405  -25.4581   19.5470 O   0  0  0  0  0  0  0  0  0  1  0  0
  -19.2377   -6.0685   26.1967 F   0  0  0  0  0  0  0  0  0  0  0  0
  -22.2481   -4.7805   22.7785 F   0  0  0  0  0  0  0  0  0  0  0  0
  1  2  1  0  0  0  0
  1  5  2  0  0  0  0
  2  6  2  0  0  0  0
  3 10  2  0  0  0  0
  3 18  1  0  0  0  0
  4 11  1  0  0  0  0
  4 18  2  0  0  0  0
  5 21  1  0  0  0  0
  6 23  1  0  0  0  0
  7  9  2  0  0  0  0
  7 20  1  0  0  0  0
  8 12  2  0  0  0  0
  8 22  1  0  0  0  0
  9 25  1  0  0  0  0
 10 27  1  0  0  0  0
 11 27  2  0  0  0  0
 12 28  1  0  0  0  0
 13 14  2  0  0  0  0
 13 29  1  0  0  0  0
 14 30  1  0  0  0  0
 15 20  2  0  0  0  0
 15 26  1  0  0  0  0
 16 24  1  0  0  0  0
 16 28  2  0  0  0  0
 17 30  2  0  0  0  0
 17 31  1  0  0  0  0
 18 32  1  0  0  0  0
 19 32  1  0  0  0  0
 19 33  2  0  0  0  0
 19 34  1  0  0  0  0
 20 49  1  0  0  0  0
 21 23  2  0  0  0  0
 21 39  1  0  0  0  0
 22 24  2  0  0  0  0
 22 40  1  0  0  0  0
 23 50  1  0  0  0  0
 24 41  1  0  0  0  0
 25 26  2  0  0  0  0
 25 60  1  0  0  0  0
 26 54  1  0  0  0  0
 27 82  1  0  0  0  0
 28 83  1  0  0  0  0
 29 31  2  0  0  0  0
 29 82  1  0  0  0  0
 30 84  1  0  0  0  0
 31 85  1  0  0  0  0
 32 66  2  0  0  0  0
 33 67  1  0  0  0  0
 33 70  1  0  0  0  0
 34 71  1  0  0  0  0
 34 77  2  0  0  0  0
 35 51  1  0  0  0  0
 35 72  1  0  0  0  0
 35 78  2  0  0  0  0
 36 63  1  0  0  0  0
 36 68  1  0  0  0  0
 36 79  2  0  0  0  0
 37 64  1  0  0  0  0
 37 73  1  0  0  0  0
 37 80  2  0  0  0  0
 38 69  1  0  0  0  0
 38 74  1  0  0  0  0
 38 81  2  0  0  0  0
 39 42  1  0  0  0  0
 40 51  1  0  0  0  0
 41 68  1  0  0  0  0
 42 44  1  0  0  0  0
 43 45  1  0  0  0  0
 43 47  1  0  0  0  0
 44 50  1  0  0  0  0
 45 52  1  0  0  0  0
 46 49  1  0  0  0  0
 46 53  1  0  0  0  0
 47 69  1  0  0  0  0
 48 52  1  0  0  0  0
 48 69  1  0  0  0  0
 49 53  1  0  0  0  0
 50 72  1  0  0  0  0
 51 68  1  0  0  0  0
 52 67  1  0  0  0  0
 53 75  1  0  0  0  0
 55 64  1  0  0  0  0
 56 65  1  0  0  0  0
 57 65  1  0  0  0  0
 58 65  1  0  0  0  0
 59 76  1  0  0  0  0
 60 74  1  0  0  0  0
 61 62  1  0  0  0  0
 61 75  1  0  0  0  0
 62 83  1  0  0  0  0
 63 65  1  0  0  0  0
 63 73  1  0  0  0  0
 64 76  1  0  0  0  0
 66 67  1  0  0  0  0
M  CHG  2  75   1  76   1
M  ISO  4  38 100  62 101  74 100  83 101
M  END
> <Batch ID>
0143

> <Smiles>
CNC(C)C(=O)NC(C(=O)N1Cc2cc([101O:1][101CH2:1]CNC3CC3c3ccc(C[100NH:0][100C:0](=O)N4CCCC(n5nc(-c6ccc(Oc7ccc(F)cc7F)cc6)c(C(N)=O)c5N)C4)c(C)c3)ccc2CC1C(=O)NC1CCCc2ccccc21)C(C)(C)C

> <Shape>
0.319

> <Color>
0.215

> <Negative vol penalty>
0.000

$$$$

  -OEChem-04052321213D

 85 94  0     1  0  0  0  0  0999 V2000
  -24.7605  -35.4091   21.1629 C   0  0  0  0  0  0  0  0  0  0  0  0
  -25.5290  -34.2509   21.2223 C   0  0  0  0  0  0  0  0  0  0  0  0
  -26.2422  -18.7484   19.6737 C   0  0  0  0  0  0  0  0  0  0  0  0
  -27.7895  -18.0035   21.3732 C   0  0  0  0  0  0  0  0  0  0  0  0
  -23.4900  -35.4315   21.7368 C   0  0  0  0  0  0  0  0  0  0  0  0
  -25.0278  -33.1147   21.8566 C   0  0  0  0  0  0  0  0  0  0  0  0
  -25.8306  -28.8864   19.1880 C   0  0  0  0  0  0  0  0  0  0  0  0
  -31.2954  -24.6579   24.7006 C   0  0  0  0  0  0  0  0  0  0  0  0
  -25.6886  -17.4694   19.6171 C   0  0  0  0  0  0  0  0  0  0  0  0
  -27.2359  -16.7244   21.3165 C   0  0  0  0  0  0  0  0  0  0  0  0
  -27.1117  -28.3381   19.2339 C   0  0  0  0  0  0  0  0  0  0  0  0
  -30.6467  -25.6094   23.9121 C   0  0  0  0  0  0  0  0  0  0  0  0
  -27.4347  -14.0104   19.3102 C   0  0  0  0  0  0  0  0  0  0  0  0
  -28.3111  -12.9258   19.2768 C   0  0  0  0  0  0  0  0  0  0  0  0
  -26.3568  -26.7260   20.8619 C   0  0  0  0  0  0  0  0  0  0  0  0
  -32.5649  -25.7405   22.4176 C   0  0  0  0  0  0  0  0  0  0  0  0
  -27.3488  -12.0849   21.3272 C   0  0  0  0  0  0  0  0  0  0  0  0
  -27.2927  -19.0155   20.5518 C   0  0  0  0  0  0  0  0  0  0  0  0
  -27.4654  -21.4002   21.4411 C   0  0  0  0  0  0  0  0  0  0  0  0
  -22.9692  -34.2920   22.3700 C   0  0  0  0  0  0  0  0  0  0  0  0
  -24.8040  -28.3647   19.9882 C   0  0  0  0  0  0  0  0  0  0  0  0
  -23.7497  -33.1223   22.4407 C   0  0  0  0  0  0  0  0  0  0  0  0
  -25.0630  -27.2678   20.8224 C   0  0  0  0  0  0  0  0  0  0  0  0
  -33.1952  -24.7886   23.1998 C   0  0  0  0  0  0  0  0  0  0  0  0
  -32.5626  -24.2618   24.3183 C   0  0  0  0  0  0  0  0  0  0  0  0
  -26.1854  -16.4574   20.4385 C   0  0  0  0  0  0  0  0  0  0  0  0
  -27.3756  -27.2596   20.0731 C   0  0  0  0  0  0  0  0  0  0  0  0
  -31.2765  -26.1460   22.7771 C   0  0  0  0  0  0  0  0  0  0  0  0
  -26.5153  -14.1323   20.3522 C   0  0  0  0  0  0  0  0  0  0  0  0
  -28.2682  -11.9630   20.2852 C   0  0  0  0  0  0  0  0  0  0  0  0
  -26.4724  -13.1696   21.3607 C   0  0  0  0  0  0  0  0  0  0  0  0
  -27.8653  -20.3363   20.6103 C   0  0  0  0  0  0  0  0  0  0  0  0
  -28.3172  -22.4278   21.1171 C   0  0  0  0  0  0  0  0  0  0  0  0
  -26.4176  -21.4546   22.4183 C   0  0  0  0  0  0  0  0  0  0  0  0
  -22.9796  -29.5103   22.3254 C   0  0  0  0  0  0  0  0  0  0  0  0
  -21.4930  -26.6410   22.0434 C   0  0  0  0  0  0  0  0  0  0  0  0
  -22.4752  -23.2014   21.5731 C   0  0  0  0  0  0  0  0  0  0  0  0
  -33.8244  -23.3557   19.5926 C   0  0  0  0  0  0  0  0  0  0  0  0
  -21.6097  -34.3788   23.0173 C   0  0  0  0  0  0  0  0  0  0  0  0
  -23.4210  -28.9504   19.9073 C   0  0  0  0  0  0  0  0  0  0  0  0
  -23.9905  -26.6580   21.6864 C   0  0  0  0  0  0  0  0  0  0  0  0
  -21.0021  -33.0168   23.3430 C   0  0  0  0  0  0  0  0  0  0  0  0
  -31.1709  -23.4913   17.2225 C   0  0  0  0  0  0  0  0  0  0  0  0
  -22.0335  -32.1205   24.0208 C   0  0  0  0  0  0  0  0  0  0  0  0
  -30.0108  -22.7905   17.9317 C   0  0  0  0  0  0  0  0  0  0  0  0
  -32.5118  -22.8409   17.5558 C   0  0  0  0  0  0  0  0  0  0  0  0
  -31.6374  -22.0138   19.7065 C   0  0  0  0  0  0  0  0  0  0  0  0
  -34.3896  -23.0343   24.0636 C   0  0  0  0  0  0  0  0  0  0  0  0
  -34.5665  -24.2231   23.1082 C   0  0  1  0  0  0  0  0  0  0  0  0
  -23.2309  -31.8620   23.0984 C   0  0  1  0  0  0  0  0  0  0  0  0
  -22.5789  -28.6678   21.1476 C   0  0  1  0  0  0  0  0  0  0  0  0
  -30.2703  -22.6688   19.4454 C   0  0  2  0  0  0  0  0  0  0  0  0
  -21.2422  -21.2805   20.5304 C   0  0  0  0  0  0  0  0  0  0  0  0
  -36.1763  -22.8120   21.7891 C   0  0  0  0  0  0  0  0  0  0  0  0
  -20.6183  -26.0281   24.9016 C   0  0  0  0  0  0  0  0  0  0  0  0
  -20.8651  -23.5917   24.3805 C   0  0  0  0  0  0  0  0  0  0  0  0
  -19.2058  -24.9711   23.1289 C   0  0  0  0  0  0  0  0  0  0  0  0
  -24.6805  -22.6659   19.6734 C   0  0  0  0  0  0  0  0  0  0  0  0
  -29.7199  -27.6024   19.8657 C   0  0  0  0  0  0  0  0  0  1  0  0
  -30.9342  -27.1166   20.6331 C   0  0  0  0  0  0  0  0  0  0  0  0
  -21.6725  -25.2781   22.6673 C   0  0  1  0  0  0  0  0  0  0  0  0
  -22.2867  -22.3656   20.3199 C   0  0  2  0  0  0  0  0  0  0  0  0
  -35.0196  -23.8035   21.7210 C   0  0  1  0  0  0  0  0  0  0  0  0
  -20.6124  -24.9851   23.7662 C   0  0  0  0  0  0  0  0  0  0  0  0
  -28.8913  -20.6584   19.8181 N   0  0  0  0  0  0  0  0  0  0  0  0
  -29.1432  -21.9362   20.1494 N   0  0  0  0  0  0  0  0  0  0  0  0
  -22.6560  -27.2699   21.5767 N   0  0  0  0  0  0  0  0  0  0  0  0
  -32.6968  -22.7572   19.0066 N   0  0  0  0  0  0  0  0  0  0  0  0
  -28.4327  -23.6948   21.5683 N   0  0  0  0  0  0  0  0  0  0  0  0
  -25.6372  -20.3091   22.6256 N   0  0  0  0  0  0  0  0  0  0  0  0
  -22.8943  -30.8708   22.0990 N   0  0  0  0  0  0  0  0  0  0  0  0
  -21.6713  -24.3216   21.5657 N   0  0  0  0  0  0  0  0  0  0  0  0
  -33.9200  -23.2352   20.9736 N   0  0  0  0  0  0  0  0  0  0  0  0
  -23.5702  -21.7140   19.9339 N   0  3  0  0  0  0  0  0  0  0  0  0
  -26.1698  -22.4936   23.0760 O   0  0  0  0  0  0  0  0  0  0  0  0
  -23.3381  -28.9664   23.3634 O   0  0  0  0  0  0  0  0  0  0  0  0
  -20.3617  -27.1266   21.9665 O   0  0  0  0  0  0  0  0  0  0  0  0
  -23.2547  -22.8895   22.4707 O   0  0  0  0  0  0  0  0  0  0  0  0
  -34.6796  -23.9577   18.9345 O   0  0  0  0  0  0  0  0  0  0  0  0
  -33.3240  -23.3415   24.9945 O   0  0  0  0  0  0  0  0  0  0  0  0
  -25.6453  -15.2092   20.3836 O   0  0  0  0  0  0  0  0  0  0  0  0
  -28.6253  -26.7229   20.1203 O   0  0  0  0  0  0  0  0  0  1  0  0
  -30.6245  -27.0843   22.0210 O   0  0  0  0  0  0  0  0  0  0  0  0
  -29.1088  -10.9208   20.2521 F   0  0  0  0  0  0  0  0  0  0  0  0
  -25.5906  -13.2807   22.3636 F   0  0  0  0  0  0  0  0  0  0  0  0
  1  2  1  0  0  0  0
  1  5  2  0  0  0  0
  2  6  2  0  0  0  0
  3  9  2  0  0  0  0
  3 18  1  0  0  0  0
  4 10  1  0  0  0  0
  4 18  2  0  0  0  0
  5 20  1  0  0  0  0
  6 22  1  0  0  0  0
  7 11  2  0  0  0  0
  7 21  1  0  0  0  0
  8 12  2  0  0  0  0
  8 25  1  0  0  0  0
  9 26  1  0  0  0  0
 10 26  2  0  0  0  0
 11 27  1  0  0  0  0
 12 28  1  0  0  0  0
 13 14  2  0  0  0  0
 13 29  1  0  0  0  0
 14 30  1  0  0  0  0
 15 23  1  0  0  0  0
 15 27  2  0  0  0  0
 16 24  1  0  0  0  0
 16 28  2  0  0  0  0
 17 30  2  0  0  0  0
 17 31  1  0  0  0  0
 18 32  1  0  0  0  0
 19 32  1  0  0  0  0
 19 33  2  0  0  0  0
 19 34  1  0  0  0  0
 20 22  2  0  0  0  0
 20 39  1  0  0  0  0
 21 23  2  0  0  0  0
 21 40  1  0  0  0  0
 22 50  1  0  0  0  0
 23 41  1  0  0  0  0
 24 25  2  0  0  0  0
 24 49  1  0  0  0  0
 25 80  1  0  0  0  0
 26 81  1  0  0  0  0
 27 82  1  0  0  0  0
 28 83  1  0  0  0  0
 29 31  2  0  0  0  0
 29 81  1  0  0  0  0
 30 84  1  0  0  0  0
 31 85  1  0  0  0  0
 32 65  2  0  0  0  0
 33 66  1  0  0  0  0
 33 69  1  0  0  0  0
 34 70  1  0  0  0  0
 34 75  2  0  0  0  0
 35 51  1  0  0  0  0
 35 71  1  0  0  0  0
 35 76  2  0  0  0  0
 36 61  1  0  0  0  0
 36 67  1  0  0  0  0
 36 77  2  0  0  0  0
 37 62  1  0  0  0  0
 37 72  1  0  0  0  0
 37 78  2  0  0  0  0
 38 68  1  0  0  0  0
 38 73  1  0  0  0  0
 38 79  2  0  0  0  0
 39 42  1  0  0  0  0
 40 51  1  0  0  0  0
 41 67  1  0  0  0  0
 42 44  1  0  0  0  0
 43 45  1  0  0  0  0
 43 46  1  0  0  0  0
 44 50  1  0  0  0  0
 45 52  1  0  0  0  0
 46 68  1  0  0  0  0
 47 52  1  0  0  0  0
 47 68  1  0  0  0  0
 48 49  1  0  0  0  0
 48 80  1  0  0  0  0
 49 63  1  0  0  0  0
 50 71  1  0  0  0  0
 51 67  1  0  0  0  0
 52 66  1  0  0  0  0
 53 62  1  0  0  0  0
 54 63  1  0  0  0  0
 55 64  1  0  0  0  0
 56 64  1  0  0  0  0
 57 64  1  0  0  0  0
 58 74  1  0  0  0  0
 59 60  1  0  0  0  0
 59 82  1  0  0  0  0
 60 83  1  0  0  0  0
 61 64  1  0  0  0  0
 61 72  1  0  0  0  0
 62 74  1  0  0  0  0
 63 73  1  0  0  0  0
 65 66  1  0  0  0  0
M  CHG  1  74   1
M  ISO  4  38 100  59 101  73 100  82 101
M  END
> <Batch ID>
0143

> <Smiles>
CNC(C)C(=O)NC(C(=O)N1Cc2cc([101O:1][101CH2:1]COc3ccc4c(c3)C(C(C)[100NH:0][100C:0](=O)N3CCCC(n5nc(-c6ccc(Oc7ccc(F)cc7F)cc6)c(C(N)=O)c5N)C3)CO4)ccc2CC1C(=O)NC1CCCc2ccccc21)C(C)(C)C

> <Shape>
0.206

> <Color>
0.085

> <Negative vol penalty>
0.000

$$$$

  -OEChem-04052321213D

 87 95  0     1  0  0  0  0  0999 V2000
  -17.0811  -25.5506   12.7549 C   0  0  0  0  0  0  0  0  0  0  0  0
  -17.7421  -24.7094   13.6442 C   0  0  0  0  0  0  0  0  0  0  0  0
  -22.9604  -10.0408   19.9150 C   0  0  0  0  0  0  0  0  0  0  0  0
  -23.9230   -9.7153   22.1069 C   0  0  0  0  0  0  0  0  0  0  0  0
  -17.5105  -26.8670   12.5921 C   0  0  0  0  0  0  0  0  0  0  0  0
  -18.8338  -25.1839   14.3705 C   0  0  0  0  0  0  0  0  0  0  0  0
  -20.4049  -23.6408   20.0851 C   0  0  0  0  0  0  0  0  0  0  0  0
  -22.1958   -8.8859   20.0793 C   0  0  0  0  0  0  0  0  0  0  0  0
  -23.1583   -8.5603   22.2712 C   0  0  0  0  0  0  0  0  0  0  0  0
  -21.3395  -22.7375   20.5894 C   0  0  0  0  0  0  0  0  0  0  0  0
  -19.9676   -7.7795   23.0652 C   0  0  0  0  0  0  0  0  0  0  0  0
  -19.3180   -7.6025   24.2867 C   0  0  0  0  0  0  0  0  0  0  0  0
  -22.9346  -24.5311   20.8293 C   0  0  0  0  0  0  0  0  0  0  0  0
  -27.8992  -21.4525   19.2223 C   0  0  0  0  0  0  0  0  0  0  0  0
  -29.7661  -20.0224   19.7756 C   0  0  0  0  0  0  0  0  0  0  0  0
  -27.5964  -19.6095   20.7549 C   0  0  0  0  0  0  0  0  0  0  0  0
  -20.5408   -5.5489   24.6395 C   0  0  0  0  0  0  0  0  0  0  0  0
  -23.8241  -10.4555   20.9288 C   0  0  0  0  0  0  0  0  0  0  0  0
  -24.2560  -12.9630   21.1125 C   0  0  0  0  0  0  0  0  0  0  0  0
  -18.6020  -27.3607   13.3240 C   0  0  0  0  0  0  0  0  0  0  0  0
  -20.7324  -24.9964   19.9386 C   0  0  0  0  0  0  0  0  0  0  0  0
  -19.2791  -26.5077   14.2164 C   0  0  0  0  0  0  0  0  0  0  0  0
  -22.0016  -25.4501   20.3252 C   0  0  0  0  0  0  0  0  0  0  0  0
  -29.2447  -21.1134   19.0804 C   0  0  0  0  0  0  0  0  0  0  0  0
  -27.0750  -20.7005   20.0596 C   0  0  0  0  0  0  0  0  0  0  0  0
  -28.9420  -19.2704   20.6129 C   0  0  0  0  0  0  0  0  0  0  0  0
  -22.2947   -8.1456   21.2573 C   0  0  0  0  0  0  0  0  0  0  0  0
  -22.6055  -23.1821   20.9589 C   0  0  0  0  0  0  0  0  0  0  0  0
  -20.9038   -6.8411   22.6307 C   0  0  0  0  0  0  0  0  0  0  0  0
  -19.6046   -6.4872   25.0739 C   0  0  0  0  0  0  0  0  0  0  0  0
  -21.1904   -5.7258   23.4179 C   0  0  0  0  0  0  0  0  0  0  0  0
  -24.6146  -11.6482   20.7595 C   0  0  0  0  0  0  0  0  0  0  0  0
  -25.3407  -13.7237   20.7501 C   0  0  0  0  0  0  0  0  0  0  0  0
  -23.0504  -13.4528   21.7142 C   0  0  0  0  0  0  0  0  0  0  0  0
  -20.9386  -27.0014   17.4807 C   0  0  0  0  0  0  0  0  0  0  0  0
  -21.4331  -29.1978   19.8159 C   0  0  0  0  0  0  0  0  0  0  0  0
  -22.4533  -29.8558   23.0054 C   0  0  0  0  0  0  0  0  0  0  0  0
  -30.8560  -14.5528   20.5525 C   0  0  0  0  0  0  0  0  0  0  0  0
  -19.0591  -28.7770   13.0792 C   0  0  0  0  0  0  0  0  0  0  0  0
  -19.7040  -25.9628   19.4180 C   0  0  0  0  0  0  0  0  0  0  0  0
  -22.3960  -26.8988   20.2068 C   0  0  0  0  0  0  0  0  0  0  0  0
  -19.9907  -29.3123   14.1636 C   0  0  0  0  0  0  0  0  0  0  0  0
  -29.4126  -12.5470   17.9893 C   0  0  0  0  0  0  0  0  0  0  0  0
  -21.0695  -28.2861   14.4950 C   0  0  0  0  0  0  0  0  0  0  0  0
  -28.0091  -12.2379   18.5135 C   0  0  0  0  0  0  0  0  0  0  0  0
  -30.4421  -12.5770   19.1168 C   0  0  0  0  0  0  0  0  0  0  0  0
  -28.7040  -13.1666   20.7615 C   0  0  0  0  0  0  0  0  0  0  0  0
  -20.4519  -26.9929   15.0406 C   0  0  1  0  0  0  0  0  0  0  0  0
  -20.3181  -27.2295   18.8300 C   0  0  1  0  0  0  0  0  0  0  0  0
  -27.6216  -13.1808   19.6685 C   0  0  2  0  0  0  0  0  0  0  0  0
  -30.7806  -21.0816   17.0831 C   0  0  0  0  0  0  0  0  0  0  0  0
  -22.7809  -31.7509   24.6174 C   0  0  0  0  0  0  0  0  0  0  0  0
  -30.8599  -16.7225   23.5401 C   0  0  0  0  0  0  0  0  0  0  0  0
  -23.9764  -30.0109   18.3394 C   0  0  0  0  0  0  0  0  0  0  0  0
  -24.7260  -31.1843   20.4201 C   0  0  0  0  0  0  0  0  0  0  0  0
  -22.6464  -31.9204   19.2556 C   0  0  0  0  0  0  0  0  0  0  0  0
  -20.4962  -28.7231   24.9147 C   0  0  0  0  0  0  0  0  0  0  0  0
  -24.8157  -20.3156   21.0461 C   0  0  0  0  0  0  0  0  0  0  0  0
  -30.8383  -17.7656   21.2170 C   0  0  0  0  0  0  0  0  0  0  0  0
  -23.4382  -20.9546   20.9892 C   0  0  0  0  0  0  0  0  0  1  0  0
  -30.1255  -21.9169   18.1844 C   0  0  2  0  0  0  0  0  0  0  0  0
  -22.6450  -29.7396   20.5347 C   0  0  1  0  0  0  0  0  0  0  0  0
  -21.8249  -30.6807   24.1140 C   0  0  2  0  0  0  0  0  0  0  0  0
  -31.1201  -16.5130   22.0515 C   0  0  2  0  0  0  0  0  0  0  0  0
  -23.4920  -30.6861   19.6380 C   0  0  0  0  0  0  0  0  0  0  0  0
  -25.8318  -11.5743   20.2146 N   0  0  0  0  0  0  0  0  0  0  0  0
  -26.2475  -12.8523   20.2223 N   0  0  0  0  0  0  0  0  0  0  0  0
  -21.3578  -27.8038   19.6864 N   0  0  0  0  0  0  0  0  0  0  0  0
  -30.0157  -13.4909   20.1792 N   0  0  0  0  0  0  0  0  0  0  0  0
  -25.5976  -15.0463   20.8344 N   0  0  0  0  0  0  0  0  0  0  0  0
  -22.0367  -12.5352   22.0222 N   0  0  0  0  0  0  0  0  0  0  0  0
  -25.7392  -21.0381   20.2016 N   0  0  0  0  0  0  0  0  0  0  0  0
  -29.4694  -18.1675   21.3163 N   0  0  0  0  0  0  0  0  0  0  0  0
  -20.0628  -27.1632   16.4241 N   0  0  0  0  0  0  0  0  0  0  0  0
  -22.1500  -30.3605   21.7586 N   0  0  0  0  0  0  0  0  0  0  0  0
  -30.3732  -15.3753   21.5630 N   0  0  0  0  0  0  0  0  0  0  0  0
  -21.4513  -29.8067   25.2619 N   0  3  0  0  0  0  0  0  0  0  0  0
  -22.8704  -14.6704   21.9561 O   0  0  0  0  0  0  0  0  0  0  0  0
  -22.1244  -26.7022   17.4037 O   0  0  0  0  0  0  0  0  0  0  0  0
  -20.5810  -29.9822   19.3914 O   0  0  0  0  0  0  0  0  0  0  0  0
  -23.1472  -28.8651   23.2237 O   0  0  0  0  0  0  0  0  0  0  0  0
  -31.9528  -14.7560   20.0208 O   0  0  0  0  0  0  0  0  0  0  0  0
  -31.1636  -22.5191   18.9661 O   0  0  0  0  0  0  0  0  0  0  0  0
  -21.5485   -7.0187   21.4181 O   0  0  0  0  0  0  0  0  0  0  0  0
  -23.5199  -22.3024   21.4509 O   0  0  0  0  0  0  0  0  0  1  0  0
  -18.9818   -6.3182   26.2477 F   0  0  0  0  0  0  0  0  0  0  0  0
  -22.0897   -4.8216   23.0063 F   0  0  0  0  0  0  0  0  0  0  0  0
  1  2  1  0  0  0  0
  1  5  2  0  0  0  0
  2  6  2  0  0  0  0
  3  8  2  0  0  0  0
  3 18  1  0  0  0  0
  4  9  1  0  0  0  0
  4 18  2  0  0  0  0
  5 20  1  0  0  0  0
  6 22  1  0  0  0  0
  7 10  2  0  0  0  0
  7 21  1  0  0  0  0
  8 27  1  0  0  0  0
  9 27  2  0  0  0  0
 10 28  1  0  0  0  0
 11 12  2  0  0  0  0
 11 29  1  0  0  0  0
 12 30  1  0  0  0  0
 13 23  1  0  0  0  0
 13 28  2  0  0  0  0
 14 24  1  0  0  0  0
 14 25  2  0  0  0  0
 15 24  2  0  0  0  0
 15 26  1  0  0  0  0
 16 25  1  0  0  0  0
 16 26  2  0  0  0  0
 17 30  2  0  0  0  0
 17 31  1  0  0  0  0
 18 32  1  0  0  0  0
 19 32  1  0  0  0  0
 19 33  2  0  0  0  0
 19 34  1  0  0  0  0
 20 22  2  0  0  0  0
 20 39  1  0  0  0  0
 21 23  2  0  0  0  0
 21 40  1  0  0  0  0
 22 48  1  0  0  0  0
 23 41  1  0  0  0  0
 24 61  1  0  0  0  0
 25 72  1  0  0  0  0
 26 73  1  0  0  0  0
 27 84  1  0  0  0  0
 28 85  1  0  0  0  0
 29 31  2  0  0  0  0
 29 84  1  0  0  0  0
 30 86  1  0  0  0  0
 31 87  1  0  0  0  0
 32 66  2  0  0  0  0
 33 67  1  0  0  0  0
 33 70  1  0  0  0  0
 34 71  1  0  0  0  0
 34 78  2  0  0  0  0
 35 49  1  0  0  0  0
 35 74  1  0  0  0  0
 35 79  2  0  0  0  0
 36 62  1  0  0  0  0
 36 68  1  0  0  0  0
 36 80  2  0  0  0  0
 37 63  1  0  0  0  0
 37 75  1  0  0  0  0
 37 81  2  0  0  0  0
 38 69  1  0  0  0  0
 38 76  1  0  0  0  0
 38 82  2  0  0  0  0
 39 42  1  0  0  0  0
 40 49  1  0  0  0  0
 41 68  1  0  0  0  0
 42 44  1  0  0  0  0
 43 45  1  0  0  0  0
 43 46  1  0  0  0  0
 44 48  1  0  0  0  0
 45 50  1  0  0  0  0
 46 69  1  0  0  0  0
 47 50  1  0  0  0  0
 47 69  1  0  0  0  0
 48 74  1  0  0  0  0
 49 68  1  0  0  0  0
 50 67  1  0  0  0  0
 51 61  1  0  0  0  0
 52 63  1  0  0  0  0
 53 64  1  0  0  0  0
 54 65  1  0  0  0  0
 55 65  1  0  0  0  0
 56 65  1  0  0  0  0
 57 77  1  0  0  0  0
 58 60  1  0  0  0  0
 58 72  1  0  0  0  0
 59 64  1  0  0  0  0
 59 73  1  0  0  0  0
 60 85  1  0  0  0  0
 61 83  1  0  0  0  0
 62 65  1  0  0  0  0
 62 75  1  0  0  0  0
 63 77  1  0  0  0  0
 64 76  1  0  0  0  0
 66 67  1  0  0  0  0
M  CHG  1  77   1
M  ISO  4  38 100  60 101  76 100  85 101
M  END
> <Batch ID>
0143

> <Smiles>
CNC(C)C(=O)NC(C(=O)N1Cc2cc([101O:1][101CH2:1]CNc3cc(NCC(C)[100NH:0][100C:0](=O)N4CCCC(n5nc(-c6ccc(Oc7ccc(F)cc7F)cc6)c(C(N)=O)c5N)C4)cc(C(C)O)c3)ccc2CC1C(=O)NC1CCCc2ccccc21)C(C)(C)C

> <Shape>
0.274

> <Color>
0.194

> <Negative vol penalty>
0.000

$$$$

  -OEChem-04052321213D

 83 92  0     1  0  0  0  0  0999 V2000
  -28.9589  -32.7159   25.5326 C   0  0  0  0  0  0  0  0  0  0  0  0
  -28.8495  -31.4596   24.9451 C   0  0  0  0  0  0  0  0  0  0  0  0
  -24.5789  -12.5927   24.1607 C   0  0  0  0  0  0  0  0  0  0  0  0
  -24.2714  -14.9145   23.5676 C   0  0  0  0  0  0  0  0  0  0  0  0
  -27.8097  -33.4155   25.8985 C   0  0  0  0  0  0  0  0  0  0  0  0
  -27.5908  -30.9017   24.7241 C   0  0  0  0  0  0  0  0  0  0  0  0
  -27.1659  -28.8270   20.1241 C   0  0  0  0  0  0  0  0  0  0  0  0
  -29.7035  -19.1688   19.7263 C   0  0  0  0  0  0  0  0  0  0  0  0
  -24.1751  -12.8727   25.4661 C   0  0  0  0  0  0  0  0  0  0  0  0
  -23.8675  -15.1945   24.8730 C   0  0  0  0  0  0  0  0  0  0  0  0
  -27.7467  -27.5737   19.9348 C   0  0  0  0  0  0  0  0  0  0  0  0
  -29.2684  -20.4621   20.0250 C   0  0  0  0  0  0  0  0  0  0  0  0
  -21.0768  -14.8393   26.7455 C   0  0  0  0  0  0  0  0  0  0  0  0
  -19.9487  -15.6419   26.9152 C   0  0  0  0  0  0  0  0  0  0  0  0
  -29.0050  -20.9692   17.6608 C   0  0  0  0  0  0  0  0  0  0  0  0
  -25.5835  -26.5385   20.1959 C   0  0  0  0  0  0  0  0  0  0  0  0
  -21.2787  -17.2553   28.1257 C   0  0  0  0  0  0  0  0  0  0  0  0
  -24.6271  -13.6137   23.2114 C   0  0  0  0  0  0  0  0  0  0  0  0
  -24.2268  -12.9413   20.7834 C   0  0  0  0  0  0  0  0  0  0  0  0
  -26.5360  -32.8701   25.6731 C   0  0  0  0  0  0  0  0  0  0  0  0
  -25.7889  -28.9447   20.3621 C   0  0  0  0  0  0  0  0  0  0  0  0
  -26.4235  -31.5941   25.0886 C   0  0  0  0  0  0  0  0  0  0  0  0
  -29.7689  -18.7854   18.3958 C   0  0  0  0  0  0  0  0  0  0  0  0
  -29.4250  -19.6810   17.3740 C   0  0  0  0  0  0  0  0  0  0  0  0
  -24.9873  -27.7946   20.3854 C   0  0  0  0  0  0  0  0  0  0  0  0
  -23.8194  -14.1735   25.8223 C   0  0  0  0  0  0  0  0  0  0  0  0
  -26.9559  -26.4290   19.9736 C   0  0  0  0  0  0  0  0  0  0  0  0
  -28.9212  -21.3555   18.9998 C   0  0  0  0  0  0  0  0  0  0  0  0
  -22.3058  -15.2446   27.2660 C   0  0  0  0  0  0  0  0  0  0  0  0
  -20.0497  -16.8499   27.6053 C   0  0  0  0  0  0  0  0  0  0  0  0
  -22.4068  -16.4526   27.9560 C   0  0  0  0  0  0  0  0  0  0  0  0
  -25.0447  -13.3252   21.8629 C   0  0  0  0  0  0  0  0  0  0  0  0
  -25.0962  -12.7886   19.7311 C   0  0  0  0  0  0  0  0  0  0  0  0
  -22.8079  -12.7408   20.7360 C   0  0  0  0  0  0  0  0  0  0  0  0
  -24.0124  -30.0397   22.7597 C   0  0  0  0  0  0  0  0  0  0  0  0
  -21.5764  -29.4985   20.6873 C   0  0  0  0  0  0  0  0  0  0  0  0
  -20.4100  -27.7986   17.9676 C   0  0  0  0  0  0  0  0  0  0  0  0
  -30.4775  -15.1166   18.5174 C   0  0  0  0  0  0  0  0  0  0  0  0
  -25.3240  -33.6435   26.1287 C   0  0  0  0  0  0  0  0  0  0  0  0
  -25.1735  -30.3059   20.5378 C   0  0  0  0  0  0  0  0  0  0  0  0
  -29.6304  -19.0619   16.0267 C   0  0  0  0  0  0  0  0  0  0  0  0
  -23.5009  -27.8685   20.6172 C   0  0  0  0  0  0  0  0  0  0  0  0
  -24.0174  -33.1435   25.5180 C   0  0  0  0  0  0  0  0  0  0  0  0
  -29.6668  -17.5690   16.3888 C   0  0  0  0  0  0  0  0  0  0  0  0
  -29.6452  -11.6637   18.7655 C   0  0  0  0  0  0  0  0  0  0  0  0
  -23.9371  -31.6225   25.6007 C   0  0  0  0  0  0  0  0  0  0  0  0
  -28.2980  -11.6634   19.4901 C   0  0  0  0  0  0  0  0  0  0  0  0
  -30.5665  -12.7639   19.2877 C   0  0  0  0  0  0  0  0  0  0  0  0
  -28.6348  -14.1177   20.0017 C   0  0  0  0  0  0  0  0  0  0  0  0
  -30.2406  -17.4851   17.8148 C   0  0  2  0  0  0  0  0  0  0  0  0
  -25.0752  -30.9661   24.8099 C   0  0  1  0  0  0  0  0  0  0  0  0
  -23.8436  -30.2685   21.2843 C   0  0  1  0  0  0  0  0  0  0  0  0
  -27.6507  -13.0612   19.4710 C   0  0  2  0  0  0  0  0  0  0  0  0
  -18.3678  -27.5420   16.5320 C   0  0  0  0  0  0  0  0  0  0  0  0
  -20.2499  -27.8367   22.8756 C   0  0  0  0  0  0  0  0  0  0  0  0
  -18.7515  -26.8561   21.1259 C   0  0  0  0  0  0  0  0  0  0  0  0
  -18.6873  -29.3062   21.5898 C   0  0  0  0  0  0  0  0  0  0  0  0
  -21.8537  -28.7078   15.5493 C   0  0  0  0  0  0  0  0  0  0  0  0
  -26.7036  -24.1951   19.1978 C   0  0  0  0  0  0  0  0  0  1  0  0
  -27.5857  -23.2364   18.4215 C   0  0  0  0  0  0  0  0  0  0  0  0
  -20.6774  -28.3262   20.3768 C   0  0  1  0  0  0  0  0  0  0  0  0
  -19.6896  -28.2707   16.7175 C   0  0  2  0  0  0  0  0  0  0  0  0
  -19.6198  -28.0794   21.4895 C   0  0  0  0  0  0  0  0  0  0  0  0
  -26.3347  -13.4109   21.5273 N   0  0  0  0  0  0  0  0  0  0  0  0
  -26.3339  -13.0786   20.2252 N   0  0  0  0  0  0  0  0  0  0  0  0
  -22.9471  -29.2216   20.7898 N   0  0  0  0  0  0  0  0  0  0  0  0
  -29.8934  -14.0642   19.2414 N   0  0  0  0  0  0  0  0  0  0  0  0
  -24.9151  -12.4357   18.4407 N   0  0  0  0  0  0  0  0  0  0  0  0
  -22.0653  -12.9409   21.9077 N   0  0  0  0  0  0  0  0  0  0  0  0
  -24.7868  -30.9937   23.3920 N   0  0  0  0  0  0  0  0  0  0  0  0
  -20.1085  -28.5858   19.0588 N   0  0  0  0  0  0  0  0  0  0  0  0
  -29.7710  -16.3132   18.5197 N   0  0  0  0  0  0  0  0  0  0  0  0
  -20.5322  -28.0300   15.5120 N   0  3  0  0  0  0  0  0  0  0  0  0
  -22.2182  -12.3784   19.6898 O   0  0  0  0  0  0  0  0  0  0  0  0
  -23.4784  -29.0703   23.2858 O   0  0  0  0  0  0  0  0  0  0  0  0
  -21.0816  -30.6198   20.8264 O   0  0  0  0  0  0  0  0  0  0  0  0
  -21.1618  -26.8264   17.9761 O   0  0  0  0  0  0  0  0  0  0  0  0
  -31.5465  -14.9971   17.9092 O   0  0  0  0  0  0  0  0  0  0  0  0
  -23.4250  -14.4470   27.0959 O   0  0  0  0  0  0  0  0  0  0  0  0
  -27.5204  -25.2045   19.7897 O   0  0  0  0  0  0  0  0  0  1  0  0
  -28.5040  -22.6214   19.3170 O   0  0  0  0  0  0  0  0  0  0  0  0
  -18.9666  -17.6213   27.7669 F   0  0  0  0  0  0  0  0  0  0  0  0
  -23.5851  -16.8478   28.4573 F   0  0  0  0  0  0  0  0  0  0  0  0
  1  2  1  0  0  0  0
  1  5  2  0  0  0  0
  2  6  2  0  0  0  0
  3  9  2  0  0  0  0
  3 18  1  0  0  0  0
  4 10  1  0  0  0  0
  4 18  2  0  0  0  0
  5 20  1  0  0  0  0
  6 22  1  0  0  0  0
  7 11  2  0  0  0  0
  7 21  1  0  0  0  0
  8 12  2  0  0  0  0
  8 23  1  0  0  0  0
  9 26  1  0  0  0  0
 10 26  2  0  0  0  0
 11 27  1  0  0  0  0
 12 28  1  0  0  0  0
 13 14  2  0  0  0  0
 13 29  1  0  0  0  0
 14 30  1  0  0  0  0
 15 24  1  0  0  0  0
 15 28  2  0  0  0  0
 16 25  1  0  0  0  0
 16 27  2  0  0  0  0
 17 30  2  0  0  0  0
 17 31  1  0  0  0  0
 18 32  1  0  0  0  0
 19 32  1  0  0  0  0
 19 33  2  0  0  0  0
 19 34  1  0  0  0  0
 20 22  2  0  0  0  0
 20 39  1  0  0  0  0
 21 25  2  0  0  0  0
 21 40  1  0  0  0  0
 22 51  1  0  0  0  0
 23 24  2  0  0  0  0
 23 50  1  0  0  0  0
 24 41  1  0  0  0  0
 25 42  1  0  0  0  0
 26 79  1  0  0  0  0
 27 80  1  0  0  0  0
 28 81  1  0  0  0  0
 29 31  2  0  0  0  0
 29 79  1  0  0  0  0
 30 82  1  0  0  0  0
 31 83  1  0  0  0  0
 32 64  2  0  0  0  0
 33 65  1  0  0  0  0
 33 68  1  0  0  0  0
 34 69  1  0  0  0  0
 34 74  2  0  0  0  0
 35 52  1  0  0  0  0
 35 70  1  0  0  0  0
 35 75  2  0  0  0  0
 36 61  1  0  0  0  0
 36 66  1  0  0  0  0
 36 76  2  0  0  0  0
 37 62  1  0  0  0  0
 37 71  1  0  0  0  0
 37 77  2  0  0  0  0
 38 67  1  0  0  0  0
 38 72  1  0  0  0  0
 38 78  2  0  0  0  0
 39 43  1  0  0  0  0
 40 52  1  0  0  0  0
 41 44  1  0  0  0  0
 42 66  1  0  0  0  0
 43 46  1  0  0  0  0
 44 50  1  0  0  0  0
 45 47  1  0  0  0  0
 45 48  1  0  0  0  0
 46 51  1  0  0  0  0
 47 53  1  0  0  0  0
 48 67  1  0  0  0  0
 49 53  1  0  0  0  0
 49 67  1  0  0  0  0
 50 72  1  0  0  0  0
 51 70  1  0  0  0  0
 52 66  1  0  0  0  0
 53 65  1  0  0  0  0
 54 62  1  0  0  0  0
 55 63  1  0  0  0  0
 56 63  1  0  0  0  0
 57 63  1  0  0  0  0
 58 73  1  0  0  0  0
 59 60  1  0  0  0  0
 59 80  1  0  0  0  0
 60 81  1  0  0  0  0
 61 63  1  0  0  0  0
 61 71  1  0  0  0  0
 62 73  1  0  0  0  0
 64 65  1  0  0  0  0
M  CHG  1  73   1
M  ISO  4  38 100  59 101  72 100  80 101
M  END
> <Batch ID>
0143

> <Smiles>
CNC(C)C(=O)NC(C(=O)N1Cc2cc([101O:1][101CH2:1]COc3ccc4c(c3)CCC4[100NH:0][100C:0](=O)N3CCCC(n4nc(-c5ccc(Oc6ccc(F)cc6F)cc5)c(C(N)=O)c4N)C3)ccc2CC1C(=O)NC1CCCc2ccccc21)C(C)(C)C

> <Shape>
0.264

> <Color>
0.102

> <Negative vol penalty>
0.000

$$$$

  -OEChem-04052321213D

 85 94  0     1  0  0  0  0  0999 V2000
  -31.0464  -22.4439   24.2193 C   0  0  0  0  0  0  0  0  0  0  0  0
  -29.7910  -21.9082   23.9549 C   0  0  0  0  0  0  0  0  0  0  0  0
  -27.6945  -23.3066   20.7802 C   0  0  0  0  0  0  0  0  0  0  0  0
  -28.6825  -23.1844   18.5788 C   0  0  0  0  0  0  0  0  0  0  0  0
  -31.6504  -22.2178   25.4543 C   0  0  0  0  0  0  0  0  0  0  0  0
  -29.1341  -21.1562   24.9295 C   0  0  0  0  0  0  0  0  0  0  0  0
  -24.5837  -12.6518   21.6746 C   0  0  0  0  0  0  0  0  0  0  0  0
  -24.5240  -14.4527   20.0651 C   0  0  0  0  0  0  0  0  0  0  0  0
  -24.5008  -19.8102   23.9678 C   0  0  0  0  0  0  0  0  0  0  0  0
  -27.7402  -24.6995   20.7234 C   0  0  0  0  0  0  0  0  0  0  0  0
  -28.7281  -24.5774   18.5220 C   0  0  0  0  0  0  0  0  0  0  0  0
  -25.6888  -12.1054   21.0222 C   0  0  0  0  0  0  0  0  0  0  0  0
  -25.6292  -13.9062   19.4127 C   0  0  0  0  0  0  0  0  0  0  0  0
  -24.1798  -18.8331   23.0266 C   0  0  0  0  0  0  0  0  0  0  0  0
  -25.9602  -27.1940   19.2944 C   0  0  0  0  0  0  0  0  0  0  0  0
  -24.8271  -27.8970   19.7037 C   0  0  0  0  0  0  0  0  0  0  0  0
  -23.7724  -17.2590   24.8086 C   0  0  0  0  0  0  0  0  0  0  0  0
  -26.1282  -28.9966   21.4170 C   0  0  0  0  0  0  0  0  0  0  0  0
  -28.1657  -22.5490   19.7079 C   0  0  0  0  0  0  0  0  0  0  0  0
  -27.0685  -20.2755   19.3407 C   0  0  0  0  0  0  0  0  0  0  0  0
  -24.0012  -13.8255   21.1960 C   0  0  0  0  0  0  0  0  0  0  0  0
  -31.0052  -21.4521   26.4395 C   0  0  0  0  0  0  0  0  0  0  0  0
  -24.4707  -19.5155   25.3384 C   0  0  0  0  0  0  0  0  0  0  0  0
  -29.7168  -20.9369   26.1908 C   0  0  0  0  0  0  0  0  0  0  0  0
  -24.0911  -18.2349   25.7653 C   0  0  0  0  0  0  0  0  0  0  0  0
  -28.2570  -25.3349   19.5943 C   0  0  0  0  0  0  0  0  0  0  0  0
  -26.2116  -12.7326   19.8913 C   0  0  0  0  0  0  0  0  0  0  0  0
  -23.8183  -17.5564   23.4468 C   0  0  0  0  0  0  0  0  0  0  0  0
  -27.1773  -27.3923   19.9465 C   0  0  0  0  0  0  0  0  0  0  0  0
  -24.9111  -28.7983   20.7650 C   0  0  0  0  0  0  0  0  0  0  0  0
  -27.2613  -28.2935   21.0077 C   0  0  0  0  0  0  0  0  0  0  0  0
  -28.1193  -21.1101   19.7662 C   0  0  0  0  0  0  0  0  0  0  0  0
  -27.5106  -19.0030   19.6088 C   0  0  0  0  0  0  0  0  0  0  0  0
  -25.8057  -20.6197   18.7554 C   0  0  0  0  0  0  0  0  0  0  0  0
  -26.6268  -19.4824   27.6737 C   0  0  0  0  0  0  0  0  0  0  0  0
  -24.0330  -18.8972   29.5317 C   0  0  0  0  0  0  0  0  0  0  0  0
  -20.8408  -17.7122   29.7603 C   0  0  0  0  0  0  0  0  0  0  0  0
  -31.5136  -15.1232   19.5489 C   0  0  0  0  0  0  0  0  0  0  0  0
  -31.7014  -21.2452   27.7615 C   0  0  0  0  0  0  0  0  0  0  0  0
  -24.7939  -20.5882   26.3420 C   0  0  0  0  0  0  0  0  0  0  0  0
  -24.0235  -17.8734   27.2258 C   0  0  0  0  0  0  0  0  0  0  0  0
  -31.1300  -20.0765   28.5578 C   0  0  0  0  0  0  0  0  0  0  0  0
  -31.4967  -17.3958   22.2778 C   0  0  0  0  0  0  0  0  0  0  0  0
  -29.6140  -20.1855   28.6255 C   0  0  0  0  0  0  0  0  0  0  0  0
  -30.5324  -18.4969   21.8334 C   0  0  0  0  0  0  0  0  0  0  0  0
  -21.5655  -13.5609   21.9960 C   0  0  0  0  0  0  0  0  0  0  0  0
  -21.5914  -14.7286   21.0601 C   0  0  0  0  0  0  0  0  0  0  0  0
  -32.3244  -16.8652   21.1092 C   0  0  0  0  0  0  0  0  0  0  0  0
  -30.5755  -17.5160   19.5017 C   0  0  0  0  0  0  0  0  0  0  0  0
  -28.9965  -20.0901   27.2245 C   0  0  1  0  0  0  0  0  0  0  0  0
  -25.2279  -20.0305   27.6940 C   0  0  1  0  0  0  0  0  0  0  0  0
  -29.6778  -18.0442   20.6339 C   0  0  2  0  0  0  0  0  0  0  0  0
  -22.8202  -14.4092   21.8923 C   0  0  0  0  0  0  0  0  0  0  0  0
  -18.9958  -17.3286   31.4175 C   0  0  0  0  0  0  0  0  0  0  0  0
  -25.5115  -16.4550   30.6088 C   0  0  0  0  0  0  0  0  0  0  0  0
  -23.3278  -15.6113   31.4965 C   0  0  0  0  0  0  0  0  0  0  0  0
  -24.2647  -17.7654   32.3360 C   0  0  0  0  0  0  0  0  0  0  0  0
  -19.0108  -19.5393   28.3209 C   0  0  0  0  0  0  0  0  0  0  0  0
  -23.1435  -15.3142   23.0309 C   0  0  0  0  0  0  0  0  0  1  0  0
  -29.5816  -12.5497   18.6306 C   0  0  0  0  0  0  0  0  0  0  0  0
  -30.5932  -13.4427   17.9249 C   0  0  0  0  0  0  0  0  0  0  0  0
  -28.1652  -13.1102   18.5887 C   0  0  0  0  0  0  0  0  0  0  0  0
  -23.3096  -17.6568   29.9976 C   0  0  1  0  0  0  0  0  0  0  0  0
  -19.5947  -18.2922   30.4048 C   0  0  2  0  0  0  0  0  0  0  0  0
  -24.1064  -16.8781   31.0821 C   0  0  0  0  0  0  0  0  0  0  0  0
  -29.1512  -20.4255   20.2667 N   0  0  0  0  0  0  0  0  0  0  0  0
  -28.7508  -19.1472   20.1575 N   0  0  0  0  0  0  0  0  0  0  0  0
  -24.3547  -18.9549   28.1683 N   0  0  0  0  0  0  0  0  0  0  0  0
  -31.4516  -16.4481   20.0089 N   0  0  0  0  0  0  0  0  0  0  0  0
  -26.9554  -17.7861   19.4265 N   0  0  0  0  0  0  0  0  0  0  0  0
  -25.5119  -21.9745   18.5492 N   0  0  0  0  0  0  0  0  0  0  0  0
  -27.5875  -20.4056   27.3072 N   0  0  0  0  0  0  0  0  0  0  0  0
  -21.9856  -18.0936   30.4274 N   0  0  0  0  0  0  0  0  0  0  0  0
  -30.6493  -14.7989   18.5084 N   0  0  0  0  0  0  0  0  0  0  0  0
  -18.5644  -18.5856   29.3688 N   0  3  0  0  0  0  0  0  0  0  0  0
  -24.9560  -19.7524   18.4402 O   0  0  0  0  0  0  0  0  0  0  0  0
  -26.8204  -18.3092   27.9702 O   0  0  0  0  0  0  0  0  0  0  0  0
  -24.2964  -19.7854   30.3462 O   0  0  0  0  0  0  0  0  0  0  0  0
  -20.8021  -16.9898   28.7667 O   0  0  0  0  0  0  0  0  0  0  0  0
  -32.2775  -14.2805   20.0322 O   0  0  0  0  0  0  0  0  0  0  0  0
  -28.3015  -26.6942   19.5385 O   0  0  0  0  0  0  0  0  0  0  0  0
  -23.5050  -16.6006   22.5302 O   0  0  0  0  0  0  0  0  0  1  0  0
  -27.2916  -12.2008   19.2563 O   0  0  0  0  0  0  0  0  0  0  0  0
  -23.8233  -29.4744   21.1569 F   0  0  0  0  0  0  0  0  0  0  0  0
  -28.4280  -28.4891   21.6372 F   0  0  0  0  0  0  0  0  0  0  0  0
  1  2  1  0  0  0  0
  1  5  2  0  0  0  0
  2  6  2  0  0  0  0
  3 10  2  0  0  0  0
  3 19  1  0  0  0  0
  4 11  1  0  0  0  0
  4 19  2  0  0  0  0
  5 22  1  0  0  0  0
  6 24  1  0  0  0  0
  7 12  2  0  0  0  0
  7 21  1  0  0  0  0
  8 13  1  0  0  0  0
  8 21  2  0  0  0  0
  9 14  2  0  0  0  0
  9 23  1  0  0  0  0
 10 26  1  0  0  0  0
 11 26  2  0  0  0  0
 12 27  1  0  0  0  0
 13 27  2  0  0  0  0
 14 28  1  0  0  0  0
 15 16  2  0  0  0  0
 15 29  1  0  0  0  0
 16 30  1  0  0  0  0
 17 25  1  0  0  0  0
 17 28  2  0  0  0  0
 18 30  2  0  0  0  0
 18 31  1  0  0  0  0
 19 32  1  0  0  0  0
 20 32  1  0  0  0  0
 20 33  2  0  0  0  0
 20 34  1  0  0  0  0
 21 53  1  0  0  0  0
 22 24  2  0  0  0  0
 22 39  1  0  0  0  0
 23 25  2  0  0  0  0
 23 40  1  0  0  0  0
 24 50  1  0  0  0  0
 25 41  1  0  0  0  0
 26 81  1  0  0  0  0
 27 83  1  0  0  0  0
 28 82  1  0  0  0  0
 29 31  2  0  0  0  0
 29 81  1  0  0  0  0
 30 84  1  0  0  0  0
 31 85  1  0  0  0  0
 32 66  2  0  0  0  0
 33 67  1  0  0  0  0
 33 70  1  0  0  0  0
 34 71  1  0  0  0  0
 34 76  2  0  0  0  0
 35 51  1  0  0  0  0
 35 72  1  0  0  0  0
 35 77  2  0  0  0  0
 36 63  1  0  0  0  0
 36 68  1  0  0  0  0
 36 78  2  0  0  0  0
 37 64  1  0  0  0  0
 37 73  1  0  0  0  0
 37 79  2  0  0  0  0
 38 69  1  0  0  0  0
 38 74  1  0  0  0  0
 38 80  2  0  0  0  0
 39 42  1  0  0  0  0
 40 51  1  0  0  0  0
 41 68  1  0  0  0  0
 42 44  1  0  0  0  0
 43 45  1  0  0  0  0
 43 48  1  0  0  0  0
 44 50  1  0  0  0  0
 45 52  1  0  0  0  0
 46 47  1  0  0  0  0
 46 53  1  0  0  0  0
 47 53  1  0  0  0  0
 48 69  1  0  0  0  0
 49 52  1  0  0  0  0
 49 69  1  0  0  0  0
 50 72  1  0  0  0  0
 51 68  1  0  0  0  0
 52 67  1  0  0  0  0
 53 59  1  0  0  0  0
 54 64  1  0  0  0  0
 55 65  1  0  0  0  0
 56 65  1  0  0  0  0
 57 65  1  0  0  0  0
 58 75  1  0  0  0  0
 59 82  1  0  0  0  0
 60 61  1  0  0  0  0
 60 62  1  0  0  0  0
 61 74  1  0  0  0  0
 62 83  1  0  0  0  0
 63 65  1  0  0  0  0
 63 73  1  0  0  0  0
 64 75  1  0  0  0  0
 66 67  1  0  0  0  0
M  CHG  1  75   1
M  ISO  4  38 100  59 101  74 100  82 101
M  END
> <Batch ID>
0143

> <Smiles>
CNC(C)C(=O)NC(C(=O)N1Cc2cc([101O:1][101CH2:1]C3(c4ccc(OCCC[100NH:0][100C:0](=O)N5CCCC(n6nc(-c7ccc(Oc8ccc(F)cc8F)cc7)c(C(N)=O)c6N)C5)cc4)CC3)ccc2CC1C(=O)NC1CCCc2ccccc21)C(C)(C)C

> <Shape>
0.185

> <Color>
0.077

> <Negative vol penalty>
0.000

$$$$

  -OEChem-04052321213D

 84 93  0     1  0  0  0  0  0999 V2000
  -24.0145  -35.5298   21.4769 C   0  0  0  0  0  0  0  0  0  0  0  0
  -24.8771  -34.4449   21.5968 C   0  0  0  0  0  0  0  0  0  0  0  0
  -26.4172  -12.6019   21.4653 C   0  0  0  0  0  0  0  0  0  0  0  0
  -25.5680  -13.6617   19.4671 C   0  0  0  0  0  0  0  0  0  0  0  0
  -22.6785  -35.4017   21.8544 C   0  0  0  0  0  0  0  0  0  0  0  0
  -24.4043  -33.2315   22.0953 C   0  0  0  0  0  0  0  0  0  0  0  0
  -25.9993  -29.2634   19.3832 C   0  0  0  0  0  0  0  0  0  0  0  0
  -27.8082  -22.3351   16.4232 C   0  0  0  0  0  0  0  0  0  0  0  0
  -25.1992  -11.9434   21.6337 C   0  0  0  0  0  0  0  0  0  0  0  0
  -24.3500  -13.0032   19.6355 C   0  0  0  0  0  0  0  0  0  0  0  0
  -27.3081  -28.8322   19.5949 C   0  0  0  0  0  0  0  0  0  0  0  0
  -23.6231   -9.2496   20.3329 C   0  0  0  0  0  0  0  0  0  0  0  0
  -23.6587   -7.8922   20.6519 C   0  0  0  0  0  0  0  0  0  0  0  0
  -28.3558  -23.5814   16.7066 C   0  0  0  0  0  0  0  0  0  0  0  0
  -26.4888  -27.0623   21.0146 C   0  0  0  0  0  0  0  0  0  0  0  0
  -22.4722   -8.3441   22.7074 C   0  0  0  0  0  0  0  0  0  0  0  0
  -26.6016  -13.4611   20.3820 C   0  0  0  0  0  0  0  0  0  0  0  0
  -28.9807  -13.6859   19.4891 C   0  0  0  0  0  0  0  0  0  0  0  0
  -22.1868  -34.1833   22.3487 C   0  0  0  0  0  0  0  0  0  0  0  0
  -24.9244  -28.6029   19.9953 C   0  0  0  0  0  0  0  0  0  0  0  0
  -23.0608  -33.0874   22.4810 C   0  0  0  0  0  0  0  0  0  0  0  0
  -27.9499  -21.2959   17.3360 C   0  0  0  0  0  0  0  0  0  0  0  0
  -25.1672  -27.4856   20.8070 C   0  0  0  0  0  0  0  0  0  0  0  0
  -24.1655  -12.1441   20.7188 C   0  0  0  0  0  0  0  0  0  0  0  0
  -27.5532  -27.7333   20.4130 C   0  0  0  0  0  0  0  0  0  0  0  0
  -23.0121  -10.1543   21.2012 C   0  0  0  0  0  0  0  0  0  0  0  0
  -23.0832   -7.4394   21.8391 C   0  0  0  0  0  0  0  0  0  0  0  0
  -22.4366   -9.7016   22.3884 C   0  0  0  0  0  0  0  0  0  0  0  0
  -27.8594  -14.1421   20.2078 C   0  0  0  0  0  0  0  0  0  0  0  0
  -28.6425  -21.5523   18.5083 C   0  0  0  0  0  0  0  0  0  0  0  0
  -29.0301  -23.7355   17.9071 C   0  0  0  0  0  0  0  0  0  0  0  0
  -29.9081  -14.6896   19.6264 C   0  0  0  0  0  0  0  0  0  0  0  0
  -29.1672  -12.4641   18.7624 C   0  0  0  0  0  0  0  0  0  0  0  0
  -22.6767  -29.4339   22.0836 C   0  0  0  0  0  0  0  0  0  0  0  0
  -21.5378  -26.4637   21.4488 C   0  0  0  0  0  0  0  0  0  0  0  0
  -22.1694  -23.2879   20.3707 C   0  0  0  0  0  0  0  0  0  0  0  0
  -29.4510  -20.5544   20.6755 C   0  0  0  0  0  0  0  0  0  0  0  0
  -20.7461  -34.1066   22.7882 C   0  0  0  0  0  0  0  0  0  0  0  0
  -23.5165  -29.0641   19.7354 C   0  0  0  0  0  0  0  0  0  0  0  0
  -24.0466  -26.7294   21.4712 C   0  0  0  0  0  0  0  0  0  0  0  0
  -20.2355  -32.6778   22.9555 C   0  0  0  0  0  0  0  0  0  0  0  0
  -31.2379  -18.1745   22.6300 C   0  0  0  0  0  0  0  0  0  0  0  0
  -25.8936  -19.8634   16.7085 C   0  0  0  0  0  0  0  0  0  0  0  0
  -26.4050  -19.3381   18.0134 C   0  0  0  0  0  0  0  0  0  0  0  0
  -21.2416  -31.8395   23.7377 C   0  0  0  0  0  0  0  0  0  0  0  0
  -30.6807  -16.8285   22.1609 C   0  0  0  0  0  0  0  0  0  0  0  0
  -30.1564  -19.2527   22.6712 C   0  0  0  0  0  0  0  0  0  0  0  0
  -28.8395  -18.0719   20.9564 C   0  0  0  0  0  0  0  0  0  0  0  0
  -27.3618  -19.9598   17.0303 C   0  0  0  0  0  0  0  0  0  0  0  0
  -22.5796  -31.7475   22.9941 C   0  0  1  0  0  0  0  0  0  0  0  0
  -22.5360  -28.6314   20.8211 C   0  0  1  0  0  0  0  0  0  0  0  0
  -29.9053  -16.9703   20.8365 C   0  0  2  0  0  0  0  0  0  0  0  0
  -21.0474  -21.0743   19.9985 C   0  0  0  0  0  0  0  0  0  0  0  0
  -21.5668  -25.9461   24.4557 C   0  0  0  0  0  0  0  0  0  0  0  0
  -21.3670  -23.4989   23.9659 C   0  0  0  0  0  0  0  0  0  0  0  0
  -19.5537  -25.0617   23.2643 C   0  0  0  0  0  0  0  0  0  0  0  0
  -22.7742  -23.3374   17.4741 C   0  0  0  0  0  0  0  0  0  0  0  0
  -30.8436  -26.4566   19.6035 C   0  0  0  0  0  0  0  0  0  0  0  0
  -29.7672  -27.5302   19.5685 C   0  0  0  0  0  0  0  0  0  1  0  0
  -30.2599  -25.0606   19.4523 C   0  0  0  0  0  0  0  0  0  0  0  0
  -21.7591  -25.0874   22.0284 C   0  0  1  0  0  0  0  0  0  0  0  0
  -21.4478  -22.4010   19.3721 C   0  0  2  0  0  0  0  0  0  0  0  0
  -21.0831  -24.9137   23.4177 C   0  0  0  0  0  0  0  0  0  0  0  0
  -28.0547  -15.3421   20.7608 N   0  0  0  0  0  0  0  0  0  0  0  0
  -29.1882  -22.7496   18.8185 N   0  0  0  0  0  0  0  0  0  0  0  0
  -29.3095  -15.6485   20.3895 N   0  0  0  0  0  0  0  0  0  0  0  0
  -22.6881  -27.2229   21.1913 N   0  0  0  0  0  0  0  0  0  0  0  0
  -29.4673  -19.3329   21.3815 N   0  0  0  0  0  0  0  0  0  0  0  0
  -31.1692  -14.8367   19.1676 N   0  0  0  0  0  0  0  0  0  0  0  0
  -28.1120  -11.5425   18.7229 N   0  0  0  0  0  0  0  0  0  0  0  0
  -28.7941  -20.5014   19.4466 N   0  0  0  0  0  0  0  0  0  0  0  0
  -22.4909  -30.7922   21.9105 N   0  0  0  0  0  0  0  0  0  0  0  0
  -21.3001  -24.1404   21.0180 N   0  0  0  0  0  0  0  0  0  0  0  0
  -22.3243  -22.1216   18.1996 N   0  3  0  0  0  0  0  0  0  0  0  0
  -30.2436  -12.1903   18.1794 O   0  0  0  0  0  0  0  0  0  0  0  0
  -22.9333  -28.8629   23.1371 O   0  0  0  0  0  0  0  0  0  0  0  0
  -20.3871  -26.8481   21.2259 O   0  0  0  0  0  0  0  0  0  0  0  0
  -23.3822  -23.2277   20.5605 O   0  0  0  0  0  0  0  0  0  0  0  0
  -30.0043  -21.5655   21.1153 O   0  0  0  0  0  0  0  0  0  0  0  0
  -22.9769  -11.5015   20.8827 O   0  0  0  0  0  0  0  0  0  0  0  0
  -28.8298  -27.3107   20.6219 O   0  0  0  0  0  0  0  0  0  1  0  0
  -29.5790  -24.9546   18.2093 O   0  0  0  0  0  0  0  0  0  0  0  0
  -23.1161   -6.1357   22.1446 F   0  0  0  0  0  0  0  0  0  0  0  0
  -21.8472  -10.5658   23.2259 F   0  0  0  0  0  0  0  0  0  0  0  0
  1  2  1  0  0  0  0
  1  5  2  0  0  0  0
  2  6  2  0  0  0  0
  3  9  2  0  0  0  0
  3 17  1  0  0  0  0
  4 10  1  0  0  0  0
  4 17  2  0  0  0  0
  5 19  1  0  0  0  0
  6 21  1  0  0  0  0
  7 11  2  0  0  0  0
  7 20  1  0  0  0  0
  8 14  2  0  0  0  0
  8 22  1  0  0  0  0
  9 24  1  0  0  0  0
 10 24  2  0  0  0  0
 11 25  1  0  0  0  0
 12 13  2  0  0  0  0
 12 26  1  0  0  0  0
 13 27  1  0  0  0  0
 14 31  1  0  0  0  0
 15 23  1  0  0  0  0
 15 25  2  0  0  0  0
 16 27  2  0  0  0  0
 16 28  1  0  0  0  0
 17 29  1  0  0  0  0
 18 29  1  0  0  0  0
 18 32  2  0  0  0  0
 18 33  1  0  0  0  0
 19 21  2  0  0  0  0
 19 38  1  0  0  0  0
 20 23  2  0  0  0  0
 20 39  1  0  0  0  0
 21 50  1  0  0  0  0
 22 30  2  0  0  0  0
 22 49  1  0  0  0  0
 23 40  1  0  0  0  0
 24 80  1  0  0  0  0
 25 81  1  0  0  0  0
 26 28  2  0  0  0  0
 26 80  1  0  0  0  0
 27 83  1  0  0  0  0
 28 84  1  0  0  0  0
 29 64  2  0  0  0  0
 30 65  1  0  0  0  0
 30 71  1  0  0  0  0
 31 65  2  0  0  0  0
 31 82  1  0  0  0  0
 32 66  1  0  0  0  0
 32 69  1  0  0  0  0
 33 70  1  0  0  0  0
 33 75  2  0  0  0  0
 34 51  1  0  0  0  0
 34 72  1  0  0  0  0
 34 76  2  0  0  0  0
 35 61  1  0  0  0  0
 35 67  1  0  0  0  0
 35 77  2  0  0  0  0
 36 62  1  0  0  0  0
 36 73  1  0  0  0  0
 36 78  2  0  0  0  0
 37 68  1  0  0  0  0
 37 71  1  0  0  0  0
 37 79  2  0  0  0  0
 38 41  1  0  0  0  0
 39 51  1  0  0  0  0
 40 67  1  0  0  0  0
 41 45  1  0  0  0  0
 42 46  1  0  0  0  0
 42 47  1  0  0  0  0
 43 44  1  0  0  0  0
 43 49  1  0  0  0  0
 44 49  1  0  0  0  0
 45 50  1  0  0  0  0
 46 52  1  0  0  0  0
 47 68  1  0  0  0  0
 48 52  1  0  0  0  0
 48 68  1  0  0  0  0
 50 72  1  0  0  0  0
 51 67  1  0  0  0  0
 52 66  1  0  0  0  0
 53 62  1  0  0  0  0
 54 63  1  0  0  0  0
 55 63  1  0  0  0  0
 56 63  1  0  0  0  0
 57 74  1  0  0  0  0
 58 59  1  0  0  0  0
 58 60  1  0  0  0  0
 59 81  1  0  0  0  0
 60 82  1  0  0  0  0
 61 63  1  0  0  0  0
 61 73  1  0  0  0  0
 62 74  1  0  0  0  0
 64 66  1  0  0  0  0
M  CHG  1  74   1
M  ISO  4  37 100  59 101  71 100  81 101
M  END
> <Batch ID>
0143

> <Smiles>
CNC(C)C(=O)NC(C(=O)N1Cc2cc([101O:1][101CH2:1]CCOc3ccc(C4CC4)c([100NH:0][100C:0](=O)N4CCCC(n5nc(-c6ccc(Oc7ccc(F)cc7F)cc6)c(C(N)=O)c5N)C4)n3)ccc2CC1C(=O)NC1CCCc2ccccc21)C(C)(C)C

> <Shape>
0.291

> <Color>
0.102

> <Negative vol penalty>
0.000

$$$$

  -OEChem-04052321213D

 84 93  0     1  0  0  0  0  0999 V2000
  -23.0030  -23.3928   17.9313 C   0  0  0  0  0  0  0  0  0  0  0  0
  -24.1476  -22.6928   18.2991 C   0  0  0  0  0  0  0  0  0  0  0  0
  -21.4172  -26.6310   20.2815 C   0  0  0  0  0  0  0  0  0  0  0  0
  -22.2491  -26.0198   22.4659 C   0  0  0  0  0  0  0  0  0  0  0  0
  -21.7616  -23.0133   18.4400 C   0  0  0  0  0  0  0  0  0  0  0  0
  -24.0516  -21.6134   19.1767 C   0  0  0  0  0  0  0  0  0  0  0  0
  -31.4487  -19.7477   22.0902 C   0  0  0  0  0  0  0  0  0  0  0  0
  -31.7538  -19.9834   19.7052 C   0  0  0  0  0  0  0  0  0  0  0  0
  -26.7799  -17.6264   17.6587 C   0  0  0  0  0  0  0  0  0  0  0  0
  -20.2902  -25.8357   20.4882 C   0  0  0  0  0  0  0  0  0  0  0  0
  -21.1220  -25.2245   22.6726 C   0  0  0  0  0  0  0  0  0  0  0  0
  -31.3224  -21.1315   22.2109 C   0  0  0  0  0  0  0  0  0  0  0  0
  -31.6274  -21.3673   19.8258 C   0  0  0  0  0  0  0  0  0  0  0  0
  -28.1556  -17.6747   17.8801 C   0  0  0  0  0  0  0  0  0  0  0  0
  -17.0199  -24.2513   20.5866 C   0  0  0  0  0  0  0  0  0  0  0  0
  -15.7779  -24.7843   20.2416 C   0  0  0  0  0  0  0  0  0  0  0  0
  -27.8848  -16.2793   19.8292 C   0  0  0  0  0  0  0  0  0  0  0  0
  -16.1154  -26.5878   21.8134 C   0  0  0  0  0  0  0  0  0  0  0  0
  -22.3968  -26.7230   21.2704 C   0  0  0  0  0  0  0  0  0  0  0  0
  -23.7126  -28.9057   21.3810 C   0  0  0  0  0  0  0  0  0  0  0  0
  -31.6645  -19.1736   20.8374 C   0  0  0  0  0  0  0  0  0  0  0  0
  -21.6490  -21.9227   19.3167 C   0  0  0  0  0  0  0  0  0  0  0  0
  -25.9437  -16.9119   18.5285 C   0  0  0  0  0  0  0  0  0  0  0  0
  -22.8077  -21.2198   19.6987 C   0  0  0  0  0  0  0  0  0  0  0  0
  -26.4992  -16.2214   19.6151 C   0  0  0  0  0  0  0  0  0  0  0  0
  -20.1425  -25.1324   21.6837 C   0  0  0  0  0  0  0  0  0  0  0  0
  -31.4118  -21.9414   21.0787 C   0  0  0  0  0  0  0  0  0  0  0  0
  -28.7079  -17.0035   18.9671 C   0  0  0  0  0  0  0  0  0  0  0  0
  -17.8096  -24.8864   21.5450 C   0  0  0  0  0  0  0  0  0  0  0  0
  -15.3257  -25.9526   20.8550 C   0  0  0  0  0  0  0  0  0  0  0  0
  -17.3574  -26.0547   22.1584 C   0  0  0  0  0  0  0  0  0  0  0  0
  -23.5615  -27.5440   21.0573 C   0  0  0  0  0  0  0  0  0  0  0  0
  -24.9901  -29.2139   20.9816 C   0  0  0  0  0  0  0  0  0  0  0  0
  -22.7814  -29.8110   21.9884 C   0  0  0  0  0  0  0  0  0  0  0  0
  -23.5298  -17.6750   20.4507 C   0  0  0  0  0  0  0  0  0  0  0  0
  -23.3308  -14.4602   20.8350 C   0  0  0  0  0  0  0  0  0  0  0  0
  -24.8877  -11.4258   20.7119 C   0  0  0  0  0  0  0  0  0  0  0  0
  -29.9319  -25.9190   20.2241 C   0  0  0  0  0  0  0  0  0  0  0  0
  -20.2918  -21.5794   19.8777 C   0  0  0  0  0  0  0  0  0  0  0  0
  -24.4650  -16.8475   18.2606 C   0  0  0  0  0  0  0  0  0  0  0  0
  -25.6472  -15.4234   20.5669 C   0  0  0  0  0  0  0  0  0  0  0  0
  -20.2269  -20.1908   20.5085 C   0  0  0  0  0  0  0  0  0  0  0  0
  -28.3211  -27.9539   17.7866 C   0  0  0  0  0  0  0  0  0  0  0  0
  -21.4287  -19.9617   21.4195 C   0  0  0  0  0  0  0  0  0  0  0  0
  -26.9323  -28.2024   18.3777 C   0  0  0  0  0  0  0  0  0  0  0  0
  -32.9278  -17.0164   21.4644 C   0  0  0  0  0  0  0  0  0  0  0  0
  -33.0155  -17.1549   19.9767 C   0  0  0  0  0  0  0  0  0  0  0  0
  -28.8238  -26.5462   18.0992 C   0  0  0  0  0  0  0  0  0  0  0  0
  -27.4179  -26.4344   20.1203 C   0  0  0  0  0  0  0  0  0  0  0  0
  -22.7410  -20.0281   20.6289 C   0  0  1  0  0  0  0  0  0  0  0  0
  -23.6464  -16.5141   19.5040 C   0  0  1  0  0  0  0  0  0  0  0  0
  -26.8923  -27.8598   19.8791 C   0  0  2  0  0  0  0  0  0  0  0  0
  -31.8000  -17.6954   20.7082 C   0  0  0  0  0  0  0  0  0  0  0  0
  -24.4775   -8.9834   21.1169 C   0  0  0  0  0  0  0  0  0  0  0  0
  -23.4822  -14.9364   23.8450 C   0  0  0  0  0  0  0  0  0  0  0  0
  -24.0230  -12.5087   24.1315 C   0  0  0  0  0  0  0  0  0  0  0  0
  -21.8345  -13.1894   23.1468 C   0  0  0  0  0  0  0  0  0  0  0  0
  -25.4795  -10.7404   17.8943 C   0  0  0  0  0  0  0  0  0  0  0  0
  -30.5152  -16.9547   20.5638 C   0  0  0  0  0  0  0  0  0  1  0  0
  -30.9002  -25.3190   22.4290 C   0  0  0  0  0  0  0  0  0  0  0  0
  -31.0642  -23.8116   22.5061 C   0  0  0  0  0  0  0  0  0  0  0  0
  -23.9450  -13.4565   21.7806 C   0  0  1  0  0  0  0  0  0  0  0  0
  -24.4721  -10.1049   20.0898 C   0  0  2  0  0  0  0  0  0  0  0  0
  -23.3373  -13.5393   23.2093 C   0  0  0  0  0  0  0  0  0  0  0  0
  -24.6556  -27.0231   20.4954 N   0  0  0  0  0  0  0  0  0  0  0  0
  -25.5064  -28.0630   20.4629 N   0  0  0  0  0  0  0  0  0  0  0  0
  -24.2062  -15.3961   20.2662 N   0  0  0  0  0  0  0  0  0  0  0  0
  -28.7614  -26.2852   19.5393 N   0  0  0  0  0  0  0  0  0  0  0  0
  -25.7110  -30.3544   21.0270 N   0  0  0  0  0  0  0  0  0  0  0  0
  -21.5119  -29.3299   22.3364 N   0  0  0  0  0  0  0  0  0  0  0  0
  -22.9508  -18.7993   19.8937 N   0  0  0  0  0  0  0  0  0  0  0  0
  -23.7981  -12.1523   21.1434 N   0  0  0  0  0  0  0  0  0  0  0  0
  -29.7862  -25.6961   21.5879 N   0  0  0  0  0  0  0  0  0  0  0  0
  -25.4036   -9.7362   18.9865 N   0  3  0  0  0  0  0  0  0  0  0  0
  -23.0610  -31.0153   22.2008 O   0  0  0  0  0  0  0  0  0  0  0  0
  -23.9339  -17.5589   21.6018 O   0  0  0  0  0  0  0  0  0  0  0  0
  -22.1201  -14.4110   20.6038 O   0  0  0  0  0  0  0  0  0  0  0  0
  -26.0617  -11.7762   20.8091 O   0  0  0  0  0  0  0  0  0  0  0  0
  -31.0268  -25.8047   19.6628 O   0  0  0  0  0  0  0  0  0  0  0  0
  -19.0427  -24.3564   21.8858 O   0  0  0  0  0  0  0  0  0  0  0  0
  -30.0502  -17.0496   19.1859 O   0  0  0  0  0  0  0  0  0  1  0  0
  -31.2860  -23.2914   21.1961 O   0  0  0  0  0  0  0  0  0  0  0  0
  -14.1337  -26.4652   20.5226 F   0  0  0  0  0  0  0  0  0  0  0  0
  -18.1121  -26.6701   23.0790 F   0  0  0  0  0  0  0  0  0  0  0  0
  1  2  1  0  0  0  0
  1  5  2  0  0  0  0
  2  6  2  0  0  0  0
  3 10  2  0  0  0  0
  3 19  1  0  0  0  0
  4 11  1  0  0  0  0
  4 19  2  0  0  0  0
  5 22  1  0  0  0  0
  6 24  1  0  0  0  0
  7 12  2  0  0  0  0
  7 21  1  0  0  0  0
  8 13  1  0  0  0  0
  8 21  2  0  0  0  0
  9 14  2  0  0  0  0
  9 23  1  0  0  0  0
 10 26  1  0  0  0  0
 11 26  2  0  0  0  0
 12 27  1  0  0  0  0
 13 27  2  0  0  0  0
 14 28  1  0  0  0  0
 15 16  2  0  0  0  0
 15 29  1  0  0  0  0
 16 30  1  0  0  0  0
 17 25  1  0  0  0  0
 17 28  2  0  0  0  0
 18 30  2  0  0  0  0
 18 31  1  0  0  0  0
 19 32  1  0  0  0  0
 20 32  1  0  0  0  0
 20 33  2  0  0  0  0
 20 34  1  0  0  0  0
 21 53  1  0  0  0  0
 22 24  2  0  0  0  0
 22 39  1  0  0  0  0
 23 25  2  0  0  0  0
 23 40  1  0  0  0  0
 24 50  1  0  0  0  0
 25 41  1  0  0  0  0
 26 80  1  0  0  0  0
 27 82  1  0  0  0  0
 28 81  1  0  0  0  0
 29 31  2  0  0  0  0
 29 80  1  0  0  0  0
 30 83  1  0  0  0  0
 31 84  1  0  0  0  0
 32 65  2  0  0  0  0
 33 66  1  0  0  0  0
 33 69  1  0  0  0  0
 34 70  1  0  0  0  0
 34 75  2  0  0  0  0
 35 51  1  0  0  0  0
 35 71  1  0  0  0  0
 35 76  2  0  0  0  0
 36 62  1  0  0  0  0
 36 67  1  0  0  0  0
 36 77  2  0  0  0  0
 37 63  1  0  0  0  0
 37 72  1  0  0  0  0
 37 78  2  0  0  0  0
 38 68  1  0  0  0  0
 38 73  1  0  0  0  0
 38 79  2  0  0  0  0
 39 42  1  0  0  0  0
 40 51  1  0  0  0  0
 41 67  1  0  0  0  0
 42 44  1  0  0  0  0
 43 45  1  0  0  0  0
 43 48  1  0  0  0  0
 44 50  1  0  0  0  0
 45 52  1  0  0  0  0
 46 47  1  0  0  0  0
 46 53  1  0  0  0  0
 47 53  1  0  0  0  0
 48 68  1  0  0  0  0
 49 52  1  0  0  0  0
 49 68  1  0  0  0  0
 50 71  1  0  0  0  0
 51 67  1  0  0  0  0
 52 66  1  0  0  0  0
 53 59  1  0  0  0  0
 54 63  1  0  0  0  0
 55 64  1  0  0  0  0
 56 64  1  0  0  0  0
 57 64  1  0  0  0  0
 58 74  1  0  0  0  0
 59 81  1  0  0  0  0
 60 61  1  0  0  0  0
 60 73  1  0  0  0  0
 61 82  1  0  0  0  0
 62 64  1  0  0  0  0
 62 72  1  0  0  0  0
 63 74  1  0  0  0  0
 65 66  1  0  0  0  0
M  CHG  1  74   1
M  ISO  4  38 100  59 101  73 100  81 101
M  END
> <Batch ID>
0143

> <Smiles>
CNC(C)C(=O)NC(C(=O)N1Cc2cc([101O:1][101CH2:1]C3(c4ccc(OCC[100NH:0][100C:0](=O)N5CCCC(n6nc(-c7ccc(Oc8ccc(F)cc8F)cc7)c(C(N)=O)c6N)C5)cc4)CC3)ccc2CC1C(=O)NC1CCCc2ccccc21)C(C)(C)C

> <Shape>
0.192

> <Color>
0.078

> <Negative vol penalty>
0.000

$$$$

  -OEChem-04052321213D

 88 98  0     1  0  0  0  0  0999 V2000
  -23.4072  -31.4945   14.4188 C   0  0  0  0  0  0  0  0  0  0  0  0
  -23.9958  -30.4300   15.0940 C   0  0  0  0  0  0  0  0  0  0  0  0
  -23.6025   -8.9181   20.2310 C   0  0  0  0  0  0  0  0  0  0  0  0
  -23.0701  -10.8748   21.5443 C   0  0  0  0  0  0  0  0  0  0  0  0
  -23.3631  -32.7556   15.0116 C   0  0  0  0  0  0  0  0  0  0  0  0
  -24.5416  -30.6264   16.3621 C   0  0  0  0  0  0  0  0  0  0  0  0
  -23.2737  -26.9559   19.6124 C   0  0  0  0  0  0  0  0  0  0  0  0
  -22.6685   -8.1776   20.9555 C   0  0  0  0  0  0  0  0  0  0  0  0
  -22.1361  -10.1343   22.2688 C   0  0  0  0  0  0  0  0  0  0  0  0
  -23.9636  -25.7487   19.5103 C   0  0  0  0  0  0  0  0  0  0  0  0
  -22.4921   -6.6580   23.9694 C   0  0  0  0  0  0  0  0  0  0  0  0
  -22.8712   -5.3892   24.4076 C   0  0  0  0  0  0  0  0  0  0  0  0
  -27.4251  -22.1683   18.8745 C   0  0  0  0  0  0  0  0  0  0  0  0
  -25.3632  -26.3987   21.3644 C   0  0  0  0  0  0  0  0  0  0  0  0
  -25.5751  -20.9740   19.8688 C   0  0  0  0  0  0  0  0  0  0  0  0
  -21.0626   -4.4108   23.1392 C   0  0  0  0  0  0  0  0  0  0  0  0
  -23.8034  -10.2667   20.5254 C   0  0  0  0  0  0  0  0  0  0  0  0
  -24.5424  -11.7635   18.5965 C   0  0  0  0  0  0  0  0  0  0  0  0
  -23.9000  -32.9654   16.2916 C   0  0  0  0  0  0  0  0  0  0  0  0
  -23.6310  -27.8998   20.5859 C   0  0  0  0  0  0  0  0  0  0  0  0
  -24.5057  -31.8918   16.9720 C   0  0  0  0  0  0  0  0  0  0  0  0
  -28.2063  -21.0148   18.9425 C   0  0  0  0  0  0  0  0  0  0  0  0
  -24.6746  -27.6160   21.4784 C   0  0  0  0  0  0  0  0  0  0  0  0
  -27.6720  -19.8409   19.4735 C   0  0  0  0  0  0  0  0  0  0  0  0
  -26.1095  -22.1480   19.3378 C   0  0  0  0  0  0  0  0  0  0  0  0
  -26.3564  -19.8205   19.9367 C   0  0  0  0  0  0  0  0  0  0  0  0
  -21.9353   -8.7857   21.9744 C   0  0  0  0  0  0  0  0  0  0  0  0
  -25.0104  -25.4711   20.3845 C   0  0  0  0  0  0  0  0  0  0  0  0
  -21.3982   -6.8032   23.1162 C   0  0  0  0  0  0  0  0  0  0  0  0
  -22.1564   -4.2656   23.9925 C   0  0  0  0  0  0  0  0  0  0  0  0
  -20.6835   -5.6797   22.7010 C   0  0  0  0  0  0  0  0  0  0  0  0
  -24.7685  -11.0319   19.7777 C   0  0  0  0  0  0  0  0  0  0  0  0
  -25.7665  -12.3047   18.2881 C   0  0  0  0  0  0  0  0  0  0  0  0
  -23.3338  -11.9384   17.8451 C   0  0  0  0  0  0  0  0  0  0  0  0
  -24.7097  -30.8891   20.5225 C   0  0  0  0  0  0  0  0  0  0  0  0
  -24.3259  -30.6830   23.7369 C   0  0  0  0  0  0  0  0  0  0  0  0
  -24.1249  -28.7035   26.5097 C   0  0  0  0  0  0  0  0  0  0  0  0
  -30.4593  -14.9111   19.8144 C   0  0  0  0  0  0  0  0  0  0  0  0
  -23.8709  -34.3572   16.8719 C   0  0  0  0  0  0  0  0  0  0  0  0
  -22.8595  -29.1859   20.7002 C   0  0  0  0  0  0  0  0  0  0  0  0
  -25.0842  -28.5873   22.5542 C   0  0  0  0  0  0  0  0  0  0  0  0
  -24.1377  -34.3963   18.3744 C   0  0  0  0  0  0  0  0  0  0  0  0
  -30.3546  -11.3736   20.2037 C   0  0  0  0  0  0  0  0  0  0  0  0
  -30.1762  -22.3768   17.9739 C   0  0  0  0  0  0  0  0  0  0  0  0
  -29.8563  -21.3086   16.9754 C   0  0  0  0  0  0  0  0  0  0  0  0
  -29.7662  -18.7146   20.4496 C   0  0  0  0  0  0  0  0  0  0  0  0
  -25.3405  -33.5266   18.7259 C   0  0  0  0  0  0  0  0  0  0  0  0
  -28.8732  -11.0309   20.0364 C   0  0  0  0  0  0  0  0  0  0  0  0
  -30.8837  -17.9063   19.7812 C   0  0  0  0  0  0  0  0  0  0  0  0
  -29.0891  -18.0452   18.2266 C   0  0  0  0  0  0  0  0  0  0  0  0
  -30.5478  -12.7020   20.9317 C   0  0  0  0  0  0  0  0  0  0  0  0
  -28.3432  -13.5005   20.1731 C   0  0  0  0  0  0  0  0  0  0  0  0
  -29.6116  -21.0616   18.4400 C   0  0  0  0  0  0  0  0  0  0  0  0
  -28.5187  -18.5872   19.5483 C   0  0  2  0  0  0  0  0  0  0  0  0
  -25.0865  -32.0595   18.3594 C   0  0  1  0  0  0  0  0  0  0  0  0
  -23.6436  -30.2931   21.3977 C   0  0  1  0  0  0  0  0  0  0  0  0
  -28.0969  -12.1967   19.3948 C   0  0  2  0  0  0  0  0  0  0  0  0
  -30.2120  -17.0974   18.6663 C   0  0  1  0  0  0  0  0  0  0  0  0
  -25.7606  -18.5766   20.5100 C   0  0  0  0  0  0  0  0  0  0  0  0
  -31.1721  -16.7708   17.5269 C   0  0  0  0  0  0  0  0  0  0  0  0
  -23.8469  -28.8248   29.0007 C   0  0  0  0  0  0  0  0  0  0  0  0
  -27.2304  -31.5756   24.0152 C   0  0  0  0  0  0  0  0  0  0  0  0
  -27.1770  -30.7730   26.3861 C   0  0  0  0  0  0  0  0  0  0  0  0
  -25.6579  -32.6135   25.6598 C   0  0  0  0  0  0  0  0  0  0  0  0
  -21.6110  -27.1441   26.4215 C   0  0  0  0  0  0  0  0  0  0  0  0
  -25.2691  -23.3889   19.2650 C   0  0  0  0  0  0  0  0  0  1  0  0
  -25.1961  -30.2494   24.8919 C   0  0  1  0  0  0  0  0  0  0  0  0
  -23.1379  -28.6824   27.6629 C   0  0  2  0  0  0  0  0  0  0  0  0
  -26.3091  -31.2852   25.2168 C   0  0  0  0  0  0  0  0  0  0  0  0
  -26.0366  -11.0999   20.1916 N   0  0  0  0  0  0  0  0  0  0  0  0
  -26.6184  -11.8805   19.2651 N   0  0  0  0  0  0  0  0  0  0  0  0
  -24.3034  -29.8337   22.6216 N   0  0  0  0  0  0  0  0  0  0  0  0
  -29.7870  -13.7659   20.2722 N   0  0  0  0  0  0  0  0  0  0  0  0
  -26.1867  -13.0971   17.2791 N   0  0  0  0  0  0  0  0  0  0  0  0
  -22.1662  -11.3127   18.3027 N   0  0  0  0  0  0  0  0  0  0  0  0
  -24.2322  -31.4328   19.3453 N   0  0  0  0  0  0  0  0  0  0  0  0
  -24.2920  -29.9752   26.0036 N   0  0  0  0  0  0  0  0  0  0  0  0
  -29.6646  -15.8680   19.1952 N   0  0  0  0  0  0  0  0  0  0  0  0
  -22.3756  -27.4019   27.6689 N   0  3  0  0  0  0  0  0  0  0  0  0
  -23.2943  -12.6157   16.7900 O   0  0  0  0  0  0  0  0  0  0  0  0
  -25.8787  -30.8593   20.8889 O   0  0  0  0  0  0  0  0  0  0  0  0
  -23.6841  -31.7328   23.8241 O   0  0  0  0  0  0  0  0  0  0  0  0
  -24.6938  -27.6934   26.1012 O   0  0  0  0  0  0  0  0  0  0  0  0
  -31.6784  -15.0666   19.9429 O   0  0  0  0  0  0  0  0  0  0  0  0
  -21.0236   -8.0635   22.6814 O   0  0  0  0  0  0  0  0  0  0  0  0
  -25.6860  -24.2939   20.2866 O   0  0  0  0  0  0  0  0  0  1  0  0
  -22.5215   -3.0471   24.4121 F   0  0  0  0  0  0  0  0  0  0  0  0
  -19.6325   -5.8128   21.8804 F   0  0  0  0  0  0  0  0  0  0  0  0
  1  2  1  0  0  0  0
  1  5  2  0  0  0  0
  2  6  2  0  0  0  0
  3  8  2  0  0  0  0
  3 17  1  0  0  0  0
  4  9  1  0  0  0  0
  4 17  2  0  0  0  0
  5 19  1  0  0  0  0
  6 21  1  0  0  0  0
  7 10  2  0  0  0  0
  7 20  1  0  0  0  0
  8 27  1  0  0  0  0
  9 27  2  0  0  0  0
 10 28  1  0  0  0  0
 11 12  2  0  0  0  0
 11 29  1  0  0  0  0
 12 30  1  0  0  0  0
 13 22  1  0  0  0  0
 13 25  2  0  0  0  0
 14 23  1  0  0  0  0
 14 28  2  0  0  0  0
 15 25  1  0  0  0  0
 15 26  2  0  0  0  0
 16 30  2  0  0  0  0
 16 31  1  0  0  0  0
 17 32  1  0  0  0  0
 18 32  1  0  0  0  0
 18 33  2  0  0  0  0
 18 34  1  0  0  0  0
 19 21  2  0  0  0  0
 19 39  1  0  0  0  0
 20 23  2  0  0  0  0
 20 40  1  0  0  0  0
 21 55  1  0  0  0  0
 22 24  2  0  0  0  0
 22 53  1  0  0  0  0
 23 41  1  0  0  0  0
 24 26  1  0  0  0  0
 24 54  1  0  0  0  0
 25 66  1  0  0  0  0
 26 59  1  0  0  0  0
 27 85  1  0  0  0  0
 28 86  1  0  0  0  0
 29 31  2  0  0  0  0
 29 85  1  0  0  0  0
 30 87  1  0  0  0  0
 31 88  1  0  0  0  0
 32 70  2  0  0  0  0
 33 71  1  0  0  0  0
 33 74  1  0  0  0  0
 34 75  1  0  0  0  0
 34 80  2  0  0  0  0
 35 56  1  0  0  0  0
 35 76  1  0  0  0  0
 35 81  2  0  0  0  0
 36 67  1  0  0  0  0
 36 72  1  0  0  0  0
 36 82  2  0  0  0  0
 37 68  1  0  0  0  0
 37 77  1  0  0  0  0
 37 83  2  0  0  0  0
 38 73  1  0  0  0  0
 38 78  1  0  0  0  0
 38 84  2  0  0  0  0
 39 42  1  0  0  0  0
 40 56  1  0  0  0  0
 41 72  1  0  0  0  0
 42 47  1  0  0  0  0
 43 48  1  0  0  0  0
 43 51  1  0  0  0  0
 44 45  1  0  0  0  0
 44 53  1  0  0  0  0
 45 53  1  0  0  0  0
 46 49  1  0  0  0  0
 46 54  1  0  0  0  0
 47 55  1  0  0  0  0
 48 57  1  0  0  0  0
 49 58  1  0  0  0  0
 50 54  1  0  0  0  0
 50 58  1  0  0  0  0
 51 73  1  0  0  0  0
 52 57  1  0  0  0  0
 52 73  1  0  0  0  0
 55 76  1  0  0  0  0
 56 72  1  0  0  0  0
 57 71  1  0  0  0  0
 58 60  1  0  0  0  0
 58 78  1  0  0  0  0
 61 68  1  0  0  0  0
 62 69  1  0  0  0  0
 63 69  1  0  0  0  0
 64 69  1  0  0  0  0
 65 79  1  0  0  0  0
 66 86  1  0  0  0  0
 67 69  1  0  0  0  0
 67 77  1  0  0  0  0
 68 79  1  0  0  0  0
 70 71  1  0  0  0  0
M  CHG  1  79   1
M  ISO  4  38 100  66 101  78 100  86 101
M  END
> <Batch ID>
0143

> <Smiles>
CNC(C)C(=O)NC(C(=O)N1Cc2cc([101O:1][101CH2:1]c3cc(C)c(C4CCC(C)([100NH:0][100C:0](=O)N5CCCC(n6nc(-c7ccc(Oc8ccc(F)cc8F)cc7)c(C(N)=O)c6N)C5)C4)c(C4CC4)c3)ccc2CC1C(=O)NC1CCCc2ccccc21)C(C)(C)C

> <Shape>
0.251

> <Color>
0.116

> <Negative vol penalty>
0.000

$$$$

  -OEChem-04052321213D

 90100  0     1  0  0  0  0  0999 V2000
  -23.7607  -35.7770   15.2907 C   0  0  0  0  0  0  0  0  0  0  0  0
  -24.1914  -34.4561   15.3623 C   0  0  0  0  0  0  0  0  0  0  0  0
  -23.4660   -9.8987   21.9673 C   0  0  0  0  0  0  0  0  0  0  0  0
  -24.2091   -8.2141   20.4029 C   0  0  0  0  0  0  0  0  0  0  0  0
  -24.0369  -36.6567   16.3365 C   0  0  0  0  0  0  0  0  0  0  0  0
  -24.8996  -34.0145   16.4794 C   0  0  0  0  0  0  0  0  0  0  0  0
  -24.6491  -28.4551   19.0360 C   0  0  0  0  0  0  0  0  0  0  0  0
  -22.1421   -9.5182   21.7481 C   0  0  0  0  0  0  0  0  0  0  0  0
  -22.8852   -7.8336   20.1838 C   0  0  0  0  0  0  0  0  0  0  0  0
  -25.4728  -27.3353   18.9287 C   0  0  0  0  0  0  0  0  0  0  0  0
  -19.7255   -6.1769   19.4837 C   0  0  0  0  0  0  0  0  0  0  0  0
  -19.4365   -4.8125   19.4662 C   0  0  0  0  0  0  0  0  0  0  0  0
  -26.6348  -28.0055   20.9337 C   0  0  0  0  0  0  0  0  0  0  0  0
  -30.1729  -22.1886   18.4942 C   0  0  0  0  0  0  0  0  0  0  0  0
  -20.2448   -4.6122   21.7342 C   0  0  0  0  0  0  0  0  0  0  0  0
  -28.9255  -20.2207   19.9145 C   0  0  0  0  0  0  0  0  0  0  0  0
  -24.4996   -9.2467   21.2946 C   0  0  0  0  0  0  0  0  0  0  0  0
  -26.7499   -9.1279   22.4902 C   0  0  0  0  0  0  0  0  0  0  0  0
  -24.7405  -36.2232   17.4712 C   0  0  0  0  0  0  0  0  0  0  0  0
  -24.8195  -29.3658   20.0887 C   0  0  0  0  0  0  0  0  0  0  0  0
  -25.1867  -34.8896   17.5407 C   0  0  0  0  0  0  0  0  0  0  0  0
  -25.8103  -29.1346   21.0535 C   0  0  0  0  0  0  0  0  0  0  0  0
  -30.4655  -20.8577   18.2176 C   0  0  0  0  0  0  0  0  0  0  0  0
  -29.8342  -19.8489   18.9368 C   0  0  0  0  0  0  0  0  0  0  0  0
  -21.8517   -8.4857   20.8564 C   0  0  0  0  0  0  0  0  0  0  0  0
  -26.4677  -27.1119   19.8760 C   0  0  0  0  0  0  0  0  0  0  0  0
  -20.2743   -6.7591   20.6264 C   0  0  0  0  0  0  0  0  0  0  0  0
  -19.6961   -4.0301   20.5915 C   0  0  0  0  0  0  0  0  0  0  0  0
  -20.5339   -5.9767   21.7517 C   0  0  0  0  0  0  0  0  0  0  0  0
  -25.8673   -9.6396   21.5202 C   0  0  0  0  0  0  0  0  0  0  0  0
  -29.2490  -22.4556   19.4916 C   0  0  0  0  0  0  0  0  0  0  0  0
  -27.9174   -9.8242   22.2937 C   0  0  0  0  0  0  0  0  0  0  0  0
  -26.5338   -8.1137   23.4804 C   0  0  0  0  0  0  0  0  0  0  0  0
  -25.5669  -32.4488   20.2886 C   0  0  0  0  0  0  0  0  0  0  0  0
  -24.9433  -31.9954   23.4394 C   0  0  0  0  0  0  0  0  0  0  0  0
  -24.7307  -29.8297   26.0684 C   0  0  0  0  0  0  0  0  0  0  0  0
  -29.0261  -15.1355   20.1213 C   0  0  0  0  0  0  0  0  0  0  0  0
  -25.0565  -37.2230   18.5553 C   0  0  0  0  0  0  0  0  0  0  0  0
  -23.9054  -30.5546   20.2052 C   0  0  0  0  0  0  0  0  0  0  0  0
  -26.0210  -30.0712   22.2140 C   0  0  0  0  0  0  0  0  0  0  0  0
  -25.4867  -36.5793   19.8709 C   0  0  0  0  0  0  0  0  0  0  0  0
  -30.4298  -12.0656   18.9136 C   0  0  0  0  0  0  0  0  0  0  0  0
  -32.8928  -20.3013   17.5304 C   0  0  0  0  0  0  0  0  0  0  0  0
  -32.5113  -21.5500   16.7985 C   0  0  0  0  0  0  0  0  0  0  0  0
  -26.5198  -35.4859   19.6175 C   0  0  0  0  0  0  0  0  0  0  0  0
  -29.4740  -11.0408   19.5192 C   0  0  0  0  0  0  0  0  0  0  0  0
  -29.1999  -17.7552   17.6182 C   0  0  0  0  0  0  0  0  0  0  0  0
  -29.7079  -13.3367   18.4616 C   0  0  0  0  0  0  0  0  0  0  0  0
  -29.3893  -16.2663   17.8703 C   0  0  0  0  0  0  0  0  0  0  0  0
  -27.9147  -12.9251   20.1220 C   0  0  0  0  0  0  0  0  0  0  0  0
  -31.4552  -20.5352   17.1484 C   0  0  0  0  0  0  0  0  0  0  0  0
  -30.1111  -18.3871   18.6778 C   0  0  2  0  0  0  0  0  0  0  0  0
  -25.9361  -34.3666   18.7469 C   0  0  1  0  0  0  0  0  0  0  0  0
  -24.5036  -31.6896   21.0306 C   0  0  1  0  0  0  0  0  0  0  0  0
  -28.6370  -11.6741   20.6425 C   0  0  1  0  0  0  0  0  0  0  0  0
  -29.9095  -17.4630   19.8991 C   0  0  2  0  0  0  0  0  0  0  0  0
  -24.2359  -29.7593   28.5276 C   0  0  0  0  0  0  0  0  0  0  0  0
  -32.3290  -16.7929   19.9601 C   0  0  0  0  0  0  0  0  0  0  0  0
  -31.5350  -18.7535   21.3125 C   0  0  0  0  0  0  0  0  0  0  0  0
  -27.6998  -33.1651   24.0251 C   0  0  0  0  0  0  0  0  0  0  0  0
  -27.5384  -32.2089   26.3333 C   0  0  0  0  0  0  0  0  0  0  0  0
  -25.8928  -33.9248   25.5781 C   0  0  0  0  0  0  0  0  0  0  0  0
  -22.4180  -28.0266   25.6694 C   0  0  0  0  0  0  0  0  0  0  0  0
  -27.7803  -25.4700   20.9882 C   0  0  0  0  0  0  0  0  0  1  0  0
  -27.9897  -23.9780   20.8153 C   0  0  0  0  0  0  0  0  0  0  0  0
  -25.7569  -31.5804   24.6414 C   0  0  1  0  0  0  0  0  0  0  0  0
  -23.6599  -29.6313   27.1260 C   0  0  2  0  0  0  0  0  0  0  0  0
  -31.1669  -17.3778   20.7606 C   0  0  0  0  0  0  0  0  0  0  0  0
  -26.7196  -32.7030   25.1216 C   0  0  0  0  0  0  0  0  0  0  0  0
  -28.6155  -21.5026   20.2115 N   0  0  0  0  0  0  0  0  0  0  0  0
  -26.4262  -10.5880   20.7637 N   0  0  0  0  0  0  0  0  0  0  0  0
  -27.6725  -10.6777   21.2584 N   0  0  0  0  0  0  0  0  0  0  0  0
  -25.1060  -31.2227   22.2809 N   0  0  0  0  0  0  0  0  0  0  0  0
  -28.8581  -13.8772   19.5293 N   0  0  0  0  0  0  0  0  0  0  0  0
  -29.5420  -16.1602   19.3227 N   0  0  0  0  0  0  0  0  0  0  0  0
  -29.1192   -9.7836   22.9072 N   0  0  0  0  0  0  0  0  0  0  0  0
  -25.2754   -7.5000   23.5446 N   0  0  0  0  0  0  0  0  0  0  0  0
  -25.0847  -33.5035   19.5372 N   0  0  0  0  0  0  0  0  0  0  0  0
  -24.7993  -31.1421   25.6510 N   0  0  0  0  0  0  0  0  0  0  0  0
  -23.0440  -28.2808   26.9925 N   0  3  0  0  0  0  0  0  0  0  0  0
  -27.4250   -7.7736   24.2951 O   0  0  0  0  0  0  0  0  0  0  0  0
  -26.7384  -32.1042   20.3914 O   0  0  0  0  0  0  0  0  0  0  0  0
  -24.1857  -32.9649   23.5274 O   0  0  0  0  0  0  0  0  0  0  0  0
  -25.4383  -28.9130   25.6567 O   0  0  0  0  0  0  0  0  0  0  0  0
  -28.7029  -15.3420   21.2983 O   0  0  0  0  0  0  0  0  0  0  0  0
  -20.5599   -8.1140   20.6425 O   0  0  0  0  0  0  0  0  0  0  0  0
  -27.2789  -26.0126   19.7725 O   0  0  0  0  0  0  0  0  0  1  0  0
  -28.9441  -23.7593   19.7833 O   0  0  0  0  0  0  0  0  0  0  0  0
  -19.4171   -2.7201   20.5751 F   0  0  0  0  0  0  0  0  0  0  0  0
  -21.0598   -6.5305   22.8528 F   0  0  0  0  0  0  0  0  0  0  0  0
  1  2  1  0  0  0  0
  1  5  2  0  0  0  0
  2  6  2  0  0  0  0
  3  8  2  0  0  0  0
  3 17  1  0  0  0  0
  4  9  1  0  0  0  0
  4 17  2  0  0  0  0
  5 19  1  0  0  0  0
  6 21  1  0  0  0  0
  7 10  2  0  0  0  0
  7 20  1  0  0  0  0
  8 25  1  0  0  0  0
  9 25  2  0  0  0  0
 10 26  1  0  0  0  0
 11 12  2  0  0  0  0
 11 27  1  0  0  0  0
 12 28  1  0  0  0  0
 13 22  1  0  0  0  0
 13 26  2  0  0  0  0
 14 23  2  0  0  0  0
 14 31  1  0  0  0  0
 15 28  2  0  0  0  0
 15 29  1  0  0  0  0
 16 24  2  0  0  0  0
 16 70  1  0  0  0  0
 17 30  1  0  0  0  0
 18 30  1  0  0  0  0
 18 32  2  0  0  0  0
 18 33  1  0  0  0  0
 19 21  2  0  0  0  0
 19 38  1  0  0  0  0
 20 22  2  0  0  0  0
 20 39  1  0  0  0  0
 21 53  1  0  0  0  0
 22 40  1  0  0  0  0
 23 24  1  0  0  0  0
 23 51  1  0  0  0  0
 24 52  1  0  0  0  0
 25 86  1  0  0  0  0
 26 87  1  0  0  0  0
 27 29  2  0  0  0  0
 27 86  1  0  0  0  0
 28 89  1  0  0  0  0
 29 90  1  0  0  0  0
 30 71  2  0  0  0  0
 31 70  2  0  0  0  0
 31 88  1  0  0  0  0
 32 72  1  0  0  0  0
 32 76  1  0  0  0  0
 33 77  1  0  0  0  0
 33 81  2  0  0  0  0
 34 54  1  0  0  0  0
 34 78  1  0  0  0  0
 34 82  2  0  0  0  0
 35 66  1  0  0  0  0
 35 73  1  0  0  0  0
 35 83  2  0  0  0  0
 36 67  1  0  0  0  0
 36 79  1  0  0  0  0
 36 84  2  0  0  0  0
 37 74  1  0  0  0  0
 37 75  1  0  0  0  0
 37 85  2  0  0  0  0
 38 41  1  0  0  0  0
 39 54  1  0  0  0  0
 40 73  1  0  0  0  0
 41 45  1  0  0  0  0
 42 46  1  0  0  0  0
 42 48  1  0  0  0  0
 43 44  1  0  0  0  0
 43 51  1  0  0  0  0
 44 51  1  0  0  0  0
 45 53  1  0  0  0  0
 46 55  1  0  0  0  0
 47 49  1  0  0  0  0
 47 52  1  0  0  0  0
 48 74  1  0  0  0  0
 49 75  1  0  0  0  0
 50 55  1  0  0  0  0
 50 74  1  0  0  0  0
 52 56  1  0  0  0  0
 53 78  1  0  0  0  0
 54 73  1  0  0  0  0
 55 72  1  0  0  0  0
 56 68  1  0  0  0  0
 56 75  1  0  0  0  0
 57 67  1  0  0  0  0
 58 68  1  0  0  0  0
 59 68  1  0  0  0  0
 60 69  1  0  0  0  0
 61 69  1  0  0  0  0
 62 69  1  0  0  0  0
 63 80  1  0  0  0  0
 64 65  1  0  0  0  0
 64 87  1  0  0  0  0
 65 88  1  0  0  0  0
 66 69  1  0  0  0  0
 66 79  1  0  0  0  0
 67 80  1  0  0  0  0
 71 72  1  0  0  0  0
M  CHG  1  80   1
M  ISO  4  37 100  64 101  75 100  87 101
M  END
> <Batch ID>
0143

> <Smiles>
CNC(C)C(=O)NC(C(=O)N1Cc2cc([101O:1][101CH2:1]COc3cc(C4CC4)c(C4CC[100N:0]([100C:0](=O)N5CCCC(n6nc(-c7ccc(Oc8ccc(F)cc8F)cc7)c(C(N)=O)c6N)C5)C4C(C)C)cn3)ccc2CC1C(=O)NC1CCCc2ccccc21)C(C)(C)C

> <Shape>
0.268

> <Color>
0.090

> <Negative vol penalty>
0.000

$$$$

  -OEChem-04052321213D

 86 95  0     1  0  0  0  0  0999 V2000
  -16.3818  -26.4752   24.1320 C   0  0  0  0  0  0  0  0  0  0  0  0
  -17.2545  -25.4921   24.5872 C   0  0  0  0  0  0  0  0  0  0  0  0
  -24.6879  -13.0462   24.2127 C   0  0  0  0  0  0  0  0  0  0  0  0
  -24.1378  -15.1296   23.1199 C   0  0  0  0  0  0  0  0  0  0  0  0
  -16.7676  -27.3217   23.0935 C   0  0  0  0  0  0  0  0  0  0  0  0
  -18.5133  -25.3541   24.0032 C   0  0  0  0  0  0  0  0  0  0  0  0
  -25.2464  -23.5184   25.6192 C   0  0  0  0  0  0  0  0  0  0  0  0
  -24.3159  -13.5923   25.4411 C   0  0  0  0  0  0  0  0  0  0  0  0
  -23.7657  -15.6757   24.3484 C   0  0  0  0  0  0  0  0  0  0  0  0
  -26.2612  -22.6625   25.1934 C   0  0  0  0  0  0  0  0  0  0  0  0
  -23.0116  -17.7360   27.2460 C   0  0  0  0  0  0  0  0  0  0  0  0
  -23.4560  -19.0240   27.5441 C   0  0  0  0  0  0  0  0  0  0  0  0
  -26.8499  -24.2328   23.4594 C   0  0  0  0  0  0  0  0  0  0  0  0
  -25.7461  -18.2769   27.3582 C   0  0  0  0  0  0  0  0  0  0  0  0
  -30.1379  -18.3148   19.5884 C   0  0  0  0  0  0  0  0  0  0  0  0
  -24.5989  -13.8149   23.0521 C   0  0  0  0  0  0  0  0  0  0  0  0
  -24.1597  -12.5584   20.8759 C   0  0  0  0  0  0  0  0  0  0  0  0
  -18.0354  -27.2003   22.5030 C   0  0  0  0  0  0  0  0  0  0  0  0
  -25.0183  -24.7351   24.9604 C   0  0  0  0  0  0  0  0  0  0  0  0
  -18.9159  -26.1988   22.9549 C   0  0  0  0  0  0  0  0  0  0  0  0
  -25.8332  -25.1036   23.8804 C   0  0  0  0  0  0  0  0  0  0  0  0
  -28.1904  -20.1791   19.1670 C   0  0  0  0  0  0  0  0  0  0  0  0
  -29.7685  -18.5942   18.2826 C   0  0  0  0  0  0  0  0  0  0  0  0
  -28.7755  -19.5453   18.0764 C   0  0  0  0  0  0  0  0  0  0  0  0
  -23.8548  -14.9070   25.5090 C   0  0  0  0  0  0  0  0  0  0  0  0
  -27.0612  -23.0182   24.1115 C   0  0  0  0  0  0  0  0  0  0  0  0
  -23.9344  -16.7183   27.0041 C   0  0  0  0  0  0  0  0  0  0  0  0
  -24.8233  -19.2945   27.6002 C   0  0  0  0  0  0  0  0  0  0  0  0
  -25.3016  -16.9888   27.0601 C   0  0  0  0  0  0  0  0  0  0  0  0
  -24.9835  -13.2515   21.7829 C   0  0  0  0  0  0  0  0  0  0  0  0
  -28.6302  -19.8286   20.4333 C   0  0  0  0  0  0  0  0  0  0  0  0
  -24.9937  -12.2332   19.8341 C   0  0  0  0  0  0  0  0  0  0  0  0
  -22.7653  -12.2373   20.9667 C   0  0  0  0  0  0  0  0  0  0  0  0
  -22.5841  -25.9906   23.3474 C   0  0  0  0  0  0  0  0  0  0  0  0
  -24.4659  -28.6327   23.3290 C   0  0  0  0  0  0  0  0  0  0  0  0
  -27.6056  -29.9549   23.5319 C   0  0  0  0  0  0  0  0  0  0  0  0
  -30.0746  -14.6400   17.7743 C   0  0  0  0  0  0  0  0  0  0  0  0
  -18.3897  -28.1075   21.3514 C   0  0  0  0  0  0  0  0  0  0  0  0
  -23.9370  -25.6595   25.4488 C   0  0  0  0  0  0  0  0  0  0  0  0
  -25.6425  -26.4079   23.1519 C   0  0  0  0  0  0  0  0  0  0  0  0
  -19.8835  -28.1394   21.0384 C   0  0  0  0  0  0  0  0  0  0  0  0
  -29.5827  -11.2871   18.8664 C   0  0  0  0  0  0  0  0  0  0  0  0
  -27.3966  -22.3960   18.1044 C   0  0  0  0  0  0  0  0  0  0  0  0
  -27.3078  -22.5712   19.5882 C   0  0  0  0  0  0  0  0  0  0  0  0
  -20.4518  -26.7243   21.0028 C   0  0  0  0  0  0  0  0  0  0  0  0
  -28.2739  -11.3478   19.6559 C   0  0  0  0  0  0  0  0  0  0  0  0
  -30.4179  -12.5508   19.0603 C   0  0  0  0  0  0  0  0  0  0  0  0
  -28.3997  -13.8726   19.5638 C   0  0  0  0  0  0  0  0  0  0  0  0
  -27.1220  -21.2048   18.9834 C   0  0  0  0  0  0  0  0  0  0  0  0
  -20.2991  -26.0340   22.3636 C   0  0  1  0  0  0  0  0  0  0  0  0
  -23.4610  -26.6393   24.3807 C   0  0  1  0  0  0  0  0  0  0  0  0
  -27.4976  -12.6441   19.3556 C   0  0  2  0  0  0  0  0  0  0  0  0
  -28.3412  -19.8827   16.6858 C   0  0  0  0  0  0  0  0  0  0  0  0
  -28.8310  -32.1431   23.4449 C   0  0  0  0  0  0  0  0  0  0  0  0
  -24.1320  -28.6964   20.2968 C   0  0  0  0  0  0  0  0  0  0  0  0
  -26.0840  -30.2601   20.1845 C   0  0  0  0  0  0  0  0  0  0  0  0
  -24.0164  -30.9347   21.4063 C   0  0  0  0  0  0  0  0  0  0  0  0
  -28.6346  -29.6208   26.2866 C   0  0  0  0  0  0  0  0  0  0  0  0
  -30.4300  -17.8840   17.1526 C   0  0  0  0  0  0  0  0  0  0  0  0
  -29.5857  -16.7484   16.5599 C   0  0  0  0  0  0  0  0  0  0  0  0
  -27.8502  -20.7855   23.8913 C   0  0  0  0  0  0  0  0  0  1  0  0
  -28.5790  -20.0212   22.8031 C   0  0  0  0  0  0  0  0  0  0  0  0
  -25.5328  -29.1790   22.4112 C   0  0  1  0  0  0  0  0  0  0  0  0
  -28.1603  -31.1134   24.3409 C   0  0  2  0  0  0  0  0  0  0  0  0
  -24.9439  -29.7420   21.0870 C   0  0  0  0  0  0  0  0  0  0  0  0
  -29.5924  -18.9096   20.6730 N   0  0  0  0  0  0  0  0  0  0  0  0
  -26.2441  -13.3605   21.3551 N   0  0  0  0  0  0  0  0  0  0  0  0
  -26.2187  -12.7315   20.1677 N   0  0  0  0  0  0  0  0  0  0  0  0
  -24.5680  -27.2749   23.6632 N   0  0  0  0  0  0  0  0  0  0  0  0
  -29.6239  -13.7441   18.7578 N   0  0  0  0  0  0  0  0  0  0  0  0
  -24.7914  -11.5723   18.6745 N   0  0  0  0  0  0  0  0  0  0  0  0
  -22.0582  -12.6470   22.1054 N   0  0  0  0  0  0  0  0  0  0  0  0
  -21.3053  -26.5110   23.2880 N   0  0  0  0  0  0  0  0  0  0  0  0
  -26.2839  -30.1547   23.1936 N   0  0  0  0  0  0  0  0  0  0  0  0
  -29.2593  -15.7416   17.5451 N   0  0  0  0  0  0  0  0  0  0  0  0
  -29.1647  -30.6229   25.3266 N   0  3  0  0  0  0  0  0  0  0  0  0
  -22.1680  -11.5916   20.0725 O   0  0  0  0  0  0  0  0  0  0  0  0
  -23.0347  -25.0861   22.6543 O   0  0  0  0  0  0  0  0  0  0  0  0
  -23.5789  -29.3848   23.7402 O   0  0  0  0  0  0  0  0  0  0  0  0
  -28.2786  -28.9727   23.2270 O   0  0  0  0  0  0  0  0  0  0  0  0
  -31.1230  -14.4680   17.1433 O   0  0  0  0  0  0  0  0  0  0  0  0
  -23.4916  -15.4402   26.7074 O   0  0  0  0  0  0  0  0  0  0  0  0
  -28.0520  -22.1843   23.6934 O   0  0  0  0  0  0  0  0  0  1  0  0
  -28.0800  -20.4290   21.5350 O   0  0  0  0  0  0  0  0  0  0  0  0
  -25.2499  -20.5319   27.8850 F   0  0  0  0  0  0  0  0  0  0  0  0
  -26.1929  -16.0155   26.8274 F   0  0  0  0  0  0  0  0  0  0  0  0
  1  2  1  0  0  0  0
  1  5  2  0  0  0  0
  2  6  2  0  0  0  0
  3  8  2  0  0  0  0
  3 16  1  0  0  0  0
  4  9  1  0  0  0  0
  4 16  2  0  0  0  0
  5 18  1  0  0  0  0
  6 20  1  0  0  0  0
  7 10  2  0  0  0  0
  7 19  1  0  0  0  0
  8 25  1  0  0  0  0
  9 25  2  0  0  0  0
 10 26  1  0  0  0  0
 11 12  2  0  0  0  0
 11 27  1  0  0  0  0
 12 28  1  0  0  0  0
 13 21  1  0  0  0  0
 13 26  2  0  0  0  0
 14 28  2  0  0  0  0
 14 29  1  0  0  0  0
 15 23  1  0  0  0  0
 15 66  2  0  0  0  0
 16 30  1  0  0  0  0
 17 30  1  0  0  0  0
 17 32  2  0  0  0  0
 17 33  1  0  0  0  0
 18 20  2  0  0  0  0
 18 38  1  0  0  0  0
 19 21  2  0  0  0  0
 19 39  1  0  0  0  0
 20 50  1  0  0  0  0
 21 40  1  0  0  0  0
 22 24  1  0  0  0  0
 22 31  2  0  0  0  0
 22 49  1  0  0  0  0
 23 24  2  0  0  0  0
 23 59  1  0  0  0  0
 24 53  1  0  0  0  0
 25 82  1  0  0  0  0
 26 83  1  0  0  0  0
 27 29  2  0  0  0  0
 27 82  1  0  0  0  0
 28 85  1  0  0  0  0
 29 86  1  0  0  0  0
 30 67  2  0  0  0  0
 31 66  1  0  0  0  0
 31 84  1  0  0  0  0
 32 68  1  0  0  0  0
 32 71  1  0  0  0  0
 33 72  1  0  0  0  0
 33 77  2  0  0  0  0
 34 51  1  0  0  0  0
 34 73  1  0  0  0  0
 34 78  2  0  0  0  0
 35 63  1  0  0  0  0
 35 69  1  0  0  0  0
 35 79  2  0  0  0  0
 36 64  1  0  0  0  0
 36 74  1  0  0  0  0
 36 80  2  0  0  0  0
 37 70  1  0  0  0  0
 37 75  1  0  0  0  0
 37 81  2  0  0  0  0
 38 41  1  0  0  0  0
 39 51  1  0  0  0  0
 40 69  1  0  0  0  0
 41 45  1  0  0  0  0
 42 46  1  0  0  0  0
 42 47  1  0  0  0  0
 43 44  1  0  0  0  0
 43 49  1  0  0  0  0
 44 49  1  0  0  0  0
 45 50  1  0  0  0  0
 46 52  1  0  0  0  0
 47 70  1  0  0  0  0
 48 52  1  0  0  0  0
 48 70  1  0  0  0  0
 50 73  1  0  0  0  0
 51 69  1  0  0  0  0
 52 68  1  0  0  0  0
 54 64  1  0  0  0  0
 55 65  1  0  0  0  0
 56 65  1  0  0  0  0
 57 65  1  0  0  0  0
 58 76  1  0  0  0  0
 59 60  1  0  0  0  0
 60 75  1  0  0  0  0
 61 62  1  0  0  0  0
 61 83  1  0  0  0  0
 62 84  1  0  0  0  0
 63 65  1  0  0  0  0
 63 74  1  0  0  0  0
 64 76  1  0  0  0  0
 67 68  1  0  0  0  0
M  CHG  1  76   1
M  ISO  4  37 100  61 101  75 100  83 101
M  END
> <Batch ID>
0143

> <Smiles>
CNC(C)C(=O)NC(C(=O)N1Cc2cc([101O:1][101CH2:1]COc3ncc(CC[100NH:0][100C:0](=O)N4CCCC(n5nc(-c6ccc(Oc7ccc(F)cc7F)cc6)c(C(N)=O)c5N)C4)c(C)c3C3CC3)ccc2CC1C(=O)NC1CCCc2ccccc21)C(C)(C)C

> <Shape>
0.217

> <Color>
0.076

> <Negative vol penalty>
0.000

$$$$

  -OEChem-04052321213D

 86 96  0     1  0  0  0  0  0999 V2000
  -27.5690  -32.2073   25.9929 C   0  0  0  0  0  0  0  0  0  0  0  0
  -27.7757  -31.0368   25.2700 C   0  0  0  0  0  0  0  0  0  0  0  0
  -24.2813   -9.8616   21.1746 C   0  0  0  0  0  0  0  0  0  0  0  0
  -24.7745  -10.7675   23.3593 C   0  0  0  0  0  0  0  0  0  0  0  0
  -26.2861  -32.5411   26.4250 C   0  0  0  0  0  0  0  0  0  0  0  0
  -26.6996  -30.1988   24.9797 C   0  0  0  0  0  0  0  0  0  0  0  0
  -26.7272  -28.5946   20.1765 C   0  0  0  0  0  0  0  0  0  0  0  0
  -23.9044   -8.6533   21.7606 C   0  0  0  0  0  0  0  0  0  0  0  0
  -24.3976   -9.5592   23.9454 C   0  0  0  0  0  0  0  0  0  0  0  0
  -27.6081  -27.5630   19.8548 C   0  0  0  0  0  0  0  0  0  0  0  0
  -21.2132   -7.4035   23.3818 C   0  0  0  0  0  0  0  0  0  0  0  0
  -20.0370   -6.8039   22.9319 C   0  0  0  0  0  0  0  0  0  0  0  0
  -25.7923  -25.9802   19.9846 C   0  0  0  0  0  0  0  0  0  0  0  0
  -30.2172  -21.2898   20.5268 C   0  0  0  0  0  0  0  0  0  0  0  0
  -28.0230  -21.3296   21.5373 C   0  0  0  0  0  0  0  0  0  0  0  0
  -21.2900   -4.8507   22.2594 C   0  0  0  0  0  0  0  0  0  0  0  0
  -24.7163  -10.9188   21.9739 C   0  0  0  0  0  0  0  0  0  0  0  0
  -24.2806  -13.2742   21.0966 C   0  0  0  0  0  0  0  0  0  0  0  0
  -25.1923  -31.7117   26.1315 C   0  0  0  0  0  0  0  0  0  0  0  0
  -25.3721  -28.3248   20.4157 C   0  0  0  0  0  0  0  0  0  0  0  0
  -25.4011  -30.5211   25.4094 C   0  0  0  0  0  0  0  0  0  0  0  0
  -24.8958  -27.0105   20.3066 C   0  0  0  0  0  0  0  0  0  0  0  0
  -30.1641  -19.8973   20.4664 C   0  0  0  0  0  0  0  0  0  0  0  0
  -27.9699  -19.9370   21.4768 C   0  0  0  0  0  0  0  0  0  0  0  0
  -29.0405  -19.2209   20.9414 C   0  0  0  0  0  0  0  0  0  0  0  0
  -23.9626   -8.5021   23.1461 C   0  0  0  0  0  0  0  0  0  0  0  0
  -27.1413  -26.2551   19.7616 C   0  0  0  0  0  0  0  0  0  0  0  0
  -22.4279   -6.7268   23.2705 C   0  0  0  0  0  0  0  0  0  0  0  0
  -29.1466  -22.0060   21.0623 C   0  0  0  0  0  0  0  0  0  0  0  0
  -20.0753   -5.5274   22.3708 C   0  0  0  0  0  0  0  0  0  0  0  0
  -22.4662   -5.4504   22.7093 C   0  0  0  0  0  0  0  0  0  0  0  0
  -25.1063  -12.1670   21.3690 C   0  0  0  0  0  0  0  0  0  0  0  0
  -25.1217  -14.1973   20.5248 C   0  0  0  0  0  0  0  0  0  0  0  0
  -22.8787  -13.4523   21.3387 C   0  0  0  0  0  0  0  0  0  0  0  0
  -23.4246  -28.6558   22.9061 C   0  0  0  0  0  0  0  0  0  0  0  0
  -21.1676  -27.7286   20.7687 C   0  0  0  0  0  0  0  0  0  0  0  0
  -20.4224  -26.0887   17.8700 C   0  0  0  0  0  0  0  0  0  0  0  0
  -29.9627  -16.9445   20.3808 C   0  0  0  0  0  0  0  0  0  0  0  0
  -23.8316  -32.0903   26.6605 C   0  0  0  0  0  0  0  0  0  0  0  0
  -24.4295  -29.4525   20.7355 C   0  0  0  0  0  0  0  0  0  0  0  0
  -23.4461  -26.6709   20.5340 C   0  0  0  0  0  0  0  0  0  0  0  0
  -22.6859  -31.3376   25.9888 C   0  0  0  0  0  0  0  0  0  0  0  0
  -29.8761  -13.7302   18.8519 C   0  0  0  0  0  0  0  0  0  0  0  0
  -32.2183  -19.8586   18.9002 C   0  0  0  0  0  0  0  0  0  0  0  0
  -31.2972  -18.7754   18.4327 C   0  0  0  0  0  0  0  0  0  0  0  0
  -26.3093  -19.5007   23.4071 C   0  0  0  0  0  0  0  0  0  0  0  0
  -26.9131  -18.1789   23.0486 C   0  0  0  0  0  0  0  0  0  0  0  0
  -23.0034  -29.8481   25.9032 C   0  0  0  0  0  0  0  0  0  0  0  0
  -28.5596  -13.1281   19.3480 C   0  0  0  0  0  0  0  0  0  0  0  0
  -30.5554  -14.5740   19.9291 C   0  0  0  0  0  0  0  0  0  0  0  0
  -28.3928  -15.0116   21.0248 C   0  0  0  0  0  0  0  0  0  0  0  0
  -31.3260  -19.1570   19.8882 C   0  0  0  0  0  0  0  0  0  0  0  0
  -26.7535  -19.2397   21.9932 C   0  0  0  0  0  0  0  0  0  0  0  0
  -24.2553  -29.5989   25.0535 C   0  0  1  0  0  0  0  0  0  0  0  0
  -23.1708  -28.9910   21.4635 C   0  0  1  0  0  0  0  0  0  0  0  0
  -27.6395  -14.2063   19.9535 C   0  0  2  0  0  0  0  0  0  0  0  0
  -18.4857  -25.4679   16.3999 C   0  0  0  0  0  0  0  0  0  0  0  0
  -20.3631  -25.5531   22.7512 C   0  0  0  0  0  0  0  0  0  0  0  0
  -19.1321  -24.4125   20.8932 C   0  0  0  0  0  0  0  0  0  0  0  0
  -18.4465  -26.6972   21.6232 C   0  0  0  0  0  0  0  0  0  0  0  0
  -21.5297  -27.5970   15.5771 C   0  0  0  0  0  0  0  0  0  0  0  0
  -29.3584  -25.3997   19.8548 C   0  0  0  0  0  0  0  0  0  1  0  0
  -29.9562  -24.0299   20.1114 C   0  0  0  0  0  0  0  0  0  0  0  0
  -20.5958  -26.4038   20.3246 C   0  0  1  0  0  0  0  0  0  0  0  0
  -19.5779  -26.4900   16.6741 C   0  0  2  0  0  0  0  0  0  0  0  0
  -19.6621  -25.7725   21.3956 C   0  0  0  0  0  0  0  0  0  0  0  0
  -26.3745  -12.3665   21.0006 N   0  0  0  0  0  0  0  0  0  0  0  0
  -26.3520  -13.6097   20.4906 N   0  0  0  0  0  0  0  0  0  0  0  0
  -22.5651  -27.8073   20.8503 N   0  0  0  0  0  0  0  0  0  0  0  0
  -29.6253  -15.5764   20.4532 N   0  0  0  0  0  0  0  0  0  0  0  0
  -24.9215  -15.4462   20.0530 N   0  0  0  0  0  0  0  0  0  0  0  0
  -22.1649  -12.4033   21.9340 N   0  0  0  0  0  0  0  0  0  0  0  0
  -28.9869  -17.8063   20.8807 N   0  0  0  0  0  0  0  0  0  0  0  0
  -23.9393  -29.7038   23.6451 N   0  0  0  0  0  0  0  0  0  0  0  0
  -19.9510  -26.6480   19.0389 N   0  0  0  0  0  0  0  0  0  0  0  0
  -20.4280  -26.6079   15.4558 N   0  3  0  0  0  0  0  0  0  0  0  0
  -22.2735  -14.5041   21.0211 O   0  0  0  0  0  0  0  0  0  0  0  0
  -23.1708  -27.5301   23.3184 O   0  0  0  0  0  0  0  0  0  0  0  0
  -20.4027  -28.6614   21.0266 O   0  0  0  0  0  0  0  0  0  0  0  0
  -21.4000  -25.3497   17.7772 O   0  0  0  0  0  0  0  0  0  0  0  0
  -31.0264  -17.3253   19.8852 O   0  0  0  0  0  0  0  0  0  0  0  0
  -23.5947   -7.3232   23.7183 O   0  0  0  0  0  0  0  0  0  0  0  0
  -27.9991  -25.2462   19.4484 O   0  0  0  0  0  0  0  0  0  1  0  0
  -29.1984  -23.3738   21.1207 O   0  0  0  0  0  0  0  0  0  0  0  0
  -18.9455   -4.9511   21.9402 F   0  0  0  0  0  0  0  0  0  0  0  0
  -23.6300   -4.7949   22.6008 F   0  0  0  0  0  0  0  0  0  0  0  0
  1  2  1  0  0  0  0
  1  5  2  0  0  0  0
  2  6  2  0  0  0  0
  3  8  2  0  0  0  0
  3 17  1  0  0  0  0
  4  9  1  0  0  0  0
  4 17  2  0  0  0  0
  5 19  1  0  0  0  0
  6 21  1  0  0  0  0
  7 10  2  0  0  0  0
  7 20  1  0  0  0  0
  8 26  1  0  0  0  0
  9 26  2  0  0  0  0
 10 27  1  0  0  0  0
 11 12  2  0  0  0  0
 11 28  1  0  0  0  0
 12 30  1  0  0  0  0
 13 22  1  0  0  0  0
 13 27  2  0  0  0  0
 14 23  2  0  0  0  0
 14 29  1  0  0  0  0
 15 24  1  0  0  0  0
 15 29  2  0  0  0  0
 16 30  2  0  0  0  0
 16 31  1  0  0  0  0
 17 32  1  0  0  0  0
 18 32  1  0  0  0  0
 18 33  2  0  0  0  0
 18 34  1  0  0  0  0
 19 21  2  0  0  0  0
 19 39  1  0  0  0  0
 20 22  2  0  0  0  0
 20 40  1  0  0  0  0
 21 54  1  0  0  0  0
 22 41  1  0  0  0  0
 23 25  1  0  0  0  0
 23 52  1  0  0  0  0
 24 25  2  0  0  0  0
 24 53  1  0  0  0  0
 25 73  1  0  0  0  0
 26 82  1  0  0  0  0
 27 83  1  0  0  0  0
 28 31  2  0  0  0  0
 28 82  1  0  0  0  0
 29 84  1  0  0  0  0
 30 85  1  0  0  0  0
 31 86  1  0  0  0  0
 32 67  2  0  0  0  0
 33 68  1  0  0  0  0
 33 71  1  0  0  0  0
 34 72  1  0  0  0  0
 34 77  2  0  0  0  0
 35 55  1  0  0  0  0
 35 74  1  0  0  0  0
 35 78  2  0  0  0  0
 36 64  1  0  0  0  0
 36 69  1  0  0  0  0
 36 79  2  0  0  0  0
 37 65  1  0  0  0  0
 37 75  1  0  0  0  0
 37 80  2  0  0  0  0
 38 70  1  0  0  0  0
 38 73  1  0  0  0  0
 38 81  2  0  0  0  0
 39 42  1  0  0  0  0
 40 55  1  0  0  0  0
 41 69  1  0  0  0  0
 42 48  1  0  0  0  0
 43 49  1  0  0  0  0
 43 50  1  0  0  0  0
 44 45  1  0  0  0  0
 44 52  1  0  0  0  0
 45 52  1  0  0  0  0
 46 47  1  0  0  0  0
 46 53  1  0  0  0  0
 47 53  1  0  0  0  0
 48 54  1  0  0  0  0
 49 56  1  0  0  0  0
 50 70  1  0  0  0  0
 51 56  1  0  0  0  0
 51 70  1  0  0  0  0
 54 74  1  0  0  0  0
 55 69  1  0  0  0  0
 56 68  1  0  0  0  0
 57 65  1  0  0  0  0
 58 66  1  0  0  0  0
 59 66  1  0  0  0  0
 60 66  1  0  0  0  0
 61 76  1  0  0  0  0
 62 63  1  0  0  0  0
 62 83  1  0  0  0  0
 63 84  1  0  0  0  0
 64 66  1  0  0  0  0
 64 75  1  0  0  0  0
 65 76  1  0  0  0  0
 67 68  1  0  0  0  0
M  CHG  1  76   1
M  ISO  4  38 100  62 101  73 100  83 101
M  END
> <Batch ID>
0143

> <Smiles>
CNC(C)C(=O)NC(C(=O)N1Cc2cc([101O:1][101CH2:1]COc3cc(C4CC4)c([100NH:0][100C:0](=O)N4CCCC(n5nc(-c6ccc(Oc7ccc(F)cc7F)cc6)c(C(N)=O)c5N)C4)c(C4CC4)c3)ccc2CC1C(=O)NC1CCCc2ccccc21)C(C)(C)C

> <Shape>
0.333

> <Color>
0.114

> <Negative vol penalty>
0.000

$$$$

  -OEChem-04052321213D

 89 99  0     1  0  0  0  0  0999 V2000
  -27.7529  -25.0049   34.1388 C   0  0  0  0  0  0  0  0  0  0  0  0
  -27.6304  -24.2934   32.9496 C   0  0  0  0  0  0  0  0  0  0  0  0
  -23.0983   -9.8039   20.0421 C   0  0  0  0  0  0  0  0  0  0  0  0
  -23.7990   -9.9699   22.3483 C   0  0  0  0  0  0  0  0  0  0  0  0
  -27.4355  -26.3621   34.1737 C   0  0  0  0  0  0  0  0  0  0  0  0
  -27.1892  -24.9385   31.7948 C   0  0  0  0  0  0  0  0  0  0  0  0
  -28.9701  -23.8180   26.0434 C   0  0  0  0  0  0  0  0  0  0  0  0
  -22.3518   -8.6668   20.3508 C   0  0  0  0  0  0  0  0  0  0  0  0
  -23.0525   -8.8327   22.6570 C   0  0  0  0  0  0  0  0  0  0  0  0
  -28.4002  -23.0702   25.0138 C   0  0  0  0  0  0  0  0  0  0  0  0
  -19.8124   -8.0621   23.2300 C   0  0  0  0  0  0  0  0  0  0  0  0
  -19.0257   -8.0980   24.3813 C   0  0  0  0  0  0  0  0  0  0  0  0
  -27.3988  -25.0747   24.1204 C   0  0  0  0  0  0  0  0  0  0  0  0
  -20.2538   -6.2209   25.2788 C   0  0  0  0  0  0  0  0  0  0  0  0
  -28.5408  -20.7382   21.2507 C   0  0  0  0  0  0  0  0  0  0  0  0
  -23.8220  -10.4554   21.0409 C   0  0  0  0  0  0  0  0  0  0  0  0
  -24.1591  -12.9683   20.7585 C   0  0  0  0  0  0  0  0  0  0  0  0
  -26.9995  -27.0264   33.0164 C   0  0  0  0  0  0  0  0  0  0  0  0
  -28.7492  -25.2003   26.1254 C   0  0  0  0  0  0  0  0  0  0  0  0
  -26.8644  -26.3056   31.8145 C   0  0  0  0  0  0  0  0  0  0  0  0
  -27.9691  -25.8382   25.1504 C   0  0  0  0  0  0  0  0  0  0  0  0
  -29.3161  -22.2585   19.7818 C   0  0  0  0  0  0  0  0  0  0  0  0
  -28.2010  -21.8885   20.5734 C   0  0  0  0  0  0  0  0  0  0  0  0
  -22.3288   -8.1812   21.6582 C   0  0  0  0  0  0  0  0  0  0  0  0
  -27.6121  -23.6981   24.0538 C   0  0  0  0  0  0  0  0  0  0  0  0
  -20.8197   -7.1056   23.1031 C   0  0  0  0  0  0  0  0  0  0  0  0
  -19.2464   -7.1774   25.4057 C   0  0  0  0  0  0  0  0  0  0  0  0
  -21.0404   -6.1850   24.1275 C   0  0  0  0  0  0  0  0  0  0  0  0
  -24.5938  -11.6298   20.7226 C   0  0  0  0  0  0  0  0  0  0  0  0
  -30.3035  -21.3229   19.9994 C   0  0  0  0  0  0  0  0  0  0  0  0
  -25.2579  -13.6966   20.3731 C   0  0  0  0  0  0  0  0  0  0  0  0
  -22.8767  -13.5052   21.1091 C   0  0  0  0  0  0  0  0  0  0  0  0
  -27.3885  -27.1322   28.2515 C   0  0  0  0  0  0  0  0  0  0  0  0
  -28.5094  -29.4519   26.2806 C   0  0  0  0  0  0  0  0  0  0  0  0
  -29.5318  -30.3501   23.1509 C   0  0  0  0  0  0  0  0  0  0  0  0
  -30.7251  -14.7614   20.6128 C   0  0  0  0  0  0  0  0  0  0  0  0
  -26.6228  -28.4835   33.1142 C   0  0  0  0  0  0  0  0  0  0  0  0
  -29.3929  -25.9970   27.2270 C   0  0  0  0  0  0  0  0  0  0  0  0
  -27.7181  -27.3229   25.1821 C   0  0  0  0  0  0  0  0  0  0  0  0
  -26.5206  -29.1784   31.7588 C   0  0  0  0  0  0  0  0  0  0  0  0
  -29.6653  -12.2058   18.3862 C   0  0  0  0  0  0  0  0  0  0  0  0
  -30.0190  -24.7531   19.3882 C   0  0  0  0  0  0  0  0  0  0  0  0
  -28.5442  -24.6814   19.1432 C   0  0  0  0  0  0  0  0  0  0  0  0
  -25.7230  -28.3233   30.7793 C   0  0  0  0  0  0  0  0  0  0  0  0
  -28.2171  -11.9361   18.7984 C   0  0  0  0  0  0  0  0  0  0  0  0
  -30.9202  -17.9661   20.4695 C   0  0  0  0  0  0  0  0  0  0  0  0
  -29.8386  -18.0866   22.2937 C   0  0  0  0  0  0  0  0  0  0  0  0
  -30.5480  -12.5125   19.5941 C   0  0  0  0  0  0  0  0  0  0  0  0
  -28.6086  -13.3264   20.8756 C   0  0  0  0  0  0  0  0  0  0  0  0
  -29.4099  -23.4667   18.8597 C   0  0  0  0  0  0  0  0  0  0  0  0
  -26.4128  -26.9757   30.5350 C   0  0  1  0  0  0  0  0  0  0  0  0
  -28.6797  -27.3165   27.5054 C   0  0  1  0  0  0  0  0  0  0  0  0
  -27.6665  -13.0678   19.6872 C   0  0  2  0  0  0  0  0  0  0  0  0
  -30.6064  -19.1422   21.4425 C   0  0  0  0  0  0  0  0  0  0  0  0
  -30.7615  -17.0143   21.6750 C   0  0  0  0  0  0  0  0  0  0  0  0
  -32.5603  -22.4286   19.8054 C   0  0  0  0  0  0  0  0  0  0  0  0
  -31.6677  -21.0426   17.8983 C   0  0  0  0  0  0  0  0  0  0  0  0
  -30.3533  -32.3245   21.8378 C   0  0  0  0  0  0  0  0  0  0  0  0
  -25.6687  -30.5608   26.1754 C   0  0  0  0  0  0  0  0  0  0  0  0
  -26.3384  -31.8949   24.1655 C   0  0  0  0  0  0  0  0  0  0  0  0
  -27.4600  -32.2965   26.3571 C   0  0  0  0  0  0  0  0  0  0  0  0
  -32.1044  -29.0205   22.5402 C   0  0  0  0  0  0  0  0  0  0  0  0
  -26.8443  -23.6366   21.8037 C   0  0  0  0  0  0  0  0  0  1  0  0
  -26.8783  -22.6134   20.6662 C   0  0  2  0  0  0  0  0  0  0  0  0
  -31.6655  -21.2248   19.4330 C   0  0  0  0  0  0  0  0  0  0  0  0
  -27.9718  -30.1800   25.0723 C   0  0  1  0  0  0  0  0  0  0  0  0
  -30.7514  -31.1160   22.6707 C   0  0  2  0  0  0  0  0  0  0  0  0
  -26.8627  -31.2047   25.4428 C   0  0  0  0  0  0  0  0  0  0  0  0
  -25.8692  -11.5119   20.3440 N   0  0  0  0  0  0  0  0  0  0  0  0
  -29.8209  -20.4035   20.8937 N   0  0  0  0  0  0  0  0  0  0  0  0
  -26.2454  -12.7856   20.1385 N   0  0  0  0  0  0  0  0  0  0  0  0
  -28.3641  -28.0574   26.2825 N   0  0  0  0  0  0  0  0  0  0  0  0
  -29.9706  -13.5987   20.3899 N   0  0  0  0  0  0  0  0  0  0  0  0
  -25.4660  -15.0211   20.2153 N   0  0  0  0  0  0  0  0  0  0  0  0
  -21.8592  -12.6161   21.4815 N   0  0  0  0  0  0  0  0  0  0  0  0
  -27.5277  -27.1360   29.6263 N   0  0  0  0  0  0  0  0  0  0  0  0
  -29.1271  -30.7664   24.4016 N   0  0  0  0  0  0  0  0  0  0  0  0
  -30.1077  -15.7521   21.3693 N   0  0  0  0  0  0  0  0  0  0  0  0
  -25.7272  -21.6722   20.8500 N   0  3  0  0  0  0  0  0  0  0  0  0
  -31.6204  -30.2370   21.8381 N   0  3  0  0  0  0  0  0  0  0  0  0
  -22.6353  -14.7357   21.0768 O   0  0  0  0  0  0  0  0  0  0  0  0
  -26.3432  -26.9980   27.6262 O   0  0  0  0  0  0  0  0  0  0  0  0
  -29.0451  -30.0961   27.1859 O   0  0  0  0  0  0  0  0  0  0  0  0
  -28.9900  -29.4730   22.4818 O   0  0  0  0  0  0  0  0  0  0  0  0
  -31.8666  -14.9162   20.1653 O   0  0  0  0  0  0  0  0  0  0  0  0
  -21.6003   -7.0718   21.9598 O   0  0  0  0  0  0  0  0  0  0  0  0
  -27.0542  -22.9705   23.0482 O   0  0  0  0  0  0  0  0  0  1  0  0
  -18.4920   -7.2129   26.5120 F   0  0  0  0  0  0  0  0  0  0  0  0
  -22.0073   -5.2645   24.0117 F   0  0  0  0  0  0  0  0  0  0  0  0
  1  2  1  0  0  0  0
  1  5  2  0  0  0  0
  2  6  2  0  0  0  0
  3  8  2  0  0  0  0
  3 16  1  0  0  0  0
  4  9  1  0  0  0  0
  4 16  2  0  0  0  0
  5 18  1  0  0  0  0
  6 20  1  0  0  0  0
  7 10  2  0  0  0  0
  7 19  1  0  0  0  0
  8 24  1  0  0  0  0
  9 24  2  0  0  0  0
 10 25  1  0  0  0  0
 11 12  2  0  0  0  0
 11 26  1  0  0  0  0
 12 27  1  0  0  0  0
 13 21  1  0  0  0  0
 13 25  2  0  0  0  0
 14 27  2  0  0  0  0
 14 28  1  0  0  0  0
 15 23  2  0  0  0  0
 15 70  1  0  0  0  0
 16 29  1  0  0  0  0
 17 29  1  0  0  0  0
 17 31  2  0  0  0  0
 17 32  1  0  0  0  0
 18 20  2  0  0  0  0
 18 37  1  0  0  0  0
 19 21  2  0  0  0  0
 19 38  1  0  0  0  0
 20 51  1  0  0  0  0
 21 39  1  0  0  0  0
 22 23  1  0  0  0  0
 22 30  2  0  0  0  0
 22 50  1  0  0  0  0
 23 64  1  0  0  0  0
 24 86  1  0  0  0  0
 25 87  1  0  0  0  0
 26 28  2  0  0  0  0
 26 86  1  0  0  0  0
 27 88  1  0  0  0  0
 28 89  1  0  0  0  0
 29 69  2  0  0  0  0
 30 65  1  0  0  0  0
 30 70  1  0  0  0  0
 31 71  1  0  0  0  0
 31 74  1  0  0  0  0
 32 75  1  0  0  0  0
 32 81  2  0  0  0  0
 33 52  1  0  0  0  0
 33 76  1  0  0  0  0
 33 82  2  0  0  0  0
 34 66  1  0  0  0  0
 34 72  1  0  0  0  0
 34 83  2  0  0  0  0
 35 67  1  0  0  0  0
 35 77  1  0  0  0  0
 35 84  2  0  0  0  0
 36 73  1  0  0  0  0
 36 78  1  0  0  0  0
 36 85  2  0  0  0  0
 37 40  1  0  0  0  0
 38 52  1  0  0  0  0
 39 72  1  0  0  0  0
 40 44  1  0  0  0  0
 41 45  1  0  0  0  0
 41 48  1  0  0  0  0
 42 43  1  0  0  0  0
 42 50  1  0  0  0  0
 43 50  1  0  0  0  0
 44 51  1  0  0  0  0
 45 53  1  0  0  0  0
 46 54  1  0  0  0  0
 46 55  1  0  0  0  0
 47 54  1  0  0  0  0
 47 55  1  0  0  0  0
 48 73  1  0  0  0  0
 49 53  1  0  0  0  0
 49 73  1  0  0  0  0
 51 76  1  0  0  0  0
 52 72  1  0  0  0  0
 53 71  1  0  0  0  0
 54 70  1  0  0  0  0
 55 78  1  0  0  0  0
 56 65  1  0  0  0  0
 57 65  1  0  0  0  0
 58 67  1  0  0  0  0
 59 68  1  0  0  0  0
 60 68  1  0  0  0  0
 61 68  1  0  0  0  0
 62 80  1  0  0  0  0
 63 64  1  0  0  0  0
 63 87  1  0  0  0  0
 64 79  1  0  0  0  0
 66 68  1  0  0  0  0
 66 77  1  0  0  0  0
 67 80  1  0  0  0  0
 69 71  1  0  0  0  0
M  CHG  2  79   1  80   1
M  ISO  4  36 100  63 101  78 100  87 101
M  END
> <Batch ID>
0143

> <Smiles>
CNC(C)C(=O)NC(C(=O)N1Cc2cc([101O:1][101CH2:1]C(N)c3cn(C4CC([100NH:0][100C:0](=O)N5CCCC(n6nc(-c7ccc(Oc8ccc(F)cc8F)cc7)c(C(N)=O)c6N)C5)C4)c(C(C)C)c3C3CC3)ccc2CC1C(=O)NC1CCCc2ccccc21)C(C)(C)C

> <Shape>
0.264

> <Color>
0.203

> <Negative vol penalty>
0.000

$$$$

  -OEChem-04052321213D

 88 97  0     1  0  0  0  0  0999 V2000
  -22.2894  -11.6172   35.6517 C   0  0  0  0  0  0  0  0  0  0  0  0
  -22.5582  -12.4291   34.5544 C   0  0  0  0  0  0  0  0  0  0  0  0
  -23.1024   -9.8617   19.9215 C   0  0  0  0  0  0  0  0  0  0  0  0
  -23.7958   -9.8786   22.2358 C   0  0  0  0  0  0  0  0  0  0  0  0
  -21.3787  -12.0361   36.6208 C   0  0  0  0  0  0  0  0  0  0  0  0
  -21.9156  -13.6598   34.4250 C   0  0  0  0  0  0  0  0  0  0  0  0
  -25.0816  -17.3711   33.0657 C   0  0  0  0  0  0  0  0  0  0  0  0
  -27.6633  -18.4148   27.3034 C   0  0  0  0  0  0  0  0  0  0  0  0
  -27.9354  -18.6336   25.9530 C   0  0  0  0  0  0  0  0  0  0  0  0
  -22.3448   -8.7144   20.1569 C   0  0  0  0  0  0  0  0  0  0  0  0
  -23.0381   -8.7314   22.4712 C   0  0  0  0  0  0  0  0  0  0  0  0
  -25.4525  -17.4317   31.7231 C   0  0  0  0  0  0  0  0  0  0  0  0
  -19.7893   -7.9559   22.9850 C   0  0  0  0  0  0  0  0  0  0  0  0
  -18.9986   -7.9276   24.1338 C   0  0  0  0  0  0  0  0  0  0  0  0
  -23.8335  -19.1830   31.3611 C   0  0  0  0  0  0  0  0  0  0  0  0
  -25.6146  -17.2817   26.7071 C   0  0  0  0  0  0  0  0  0  0  0  0
  -20.2068   -5.9877   24.9175 C   0  0  0  0  0  0  0  0  0  0  0  0
  -23.8279  -10.4438   20.9610 C   0  0  0  0  0  0  0  0  0  0  0  0
  -24.1880  -12.9662   20.8356 C   0  0  0  0  0  0  0  0  0  0  0  0
  -20.7318  -13.2768   36.5081 C   0  0  0  0  0  0  0  0  0  0  0  0
  -24.0745  -18.2098   33.5645 C   0  0  0  0  0  0  0  0  0  0  0  0
  -20.9943  -14.0950   35.3927 C   0  0  0  0  0  0  0  0  0  0  0  0
  -23.4534  -19.1328   32.7110 C   0  0  0  0  0  0  0  0  0  0  0  0
  -26.5029  -17.7388   27.6805 C   0  0  0  0  0  0  0  0  0  0  0  0
  -27.0471  -18.1764   24.9796 C   0  0  0  0  0  0  0  0  0  0  0  0
  -25.8867  -17.5004   25.3566 C   0  0  0  0  0  0  0  0  0  0  0  0
  -22.3126   -8.1493   21.4317 C   0  0  0  0  0  0  0  0  0  0  0  0
  -24.8264  -18.3358   30.8700 C   0  0  0  0  0  0  0  0  0  0  0  0
  -20.7886   -7.0000   22.8024 C   0  0  0  0  0  0  0  0  0  0  0  0
  -19.2074   -6.9435   25.1000 C   0  0  0  0  0  0  0  0  0  0  0  0
  -20.9974   -6.0159   23.7687 C   0  0  0  0  0  0  0  0  0  0  0  0
  -24.6112  -11.6286   20.7184 C   0  0  0  0  0  0  0  0  0  0  0  0
  -25.2946  -13.7071   20.4995 C   0  0  0  0  0  0  0  0  0  0  0  0
  -22.9090  -13.4919   21.2145 C   0  0  0  0  0  0  0  0  0  0  0  0
  -21.2196  -17.7478   34.8836 C   0  0  0  0  0  0  0  0  0  0  0  0
  -21.3318  -20.9607   35.3160 C   0  0  0  0  0  0  0  0  0  0  0  0
  -22.6024  -23.9731   34.3374 C   0  0  0  0  0  0  0  0  0  0  0  0
  -30.6611  -14.7756   20.6720 C   0  0  0  0  0  0  0  0  0  0  0  0
  -19.7198  -13.6657   37.5566 C   0  0  0  0  0  0  0  0  0  0  0  0
  -23.7045  -18.1507   35.0212 C   0  0  0  0  0  0  0  0  0  0  0  0
  -22.3806  -20.0693   33.2016 C   0  0  0  0  0  0  0  0  0  0  0  0
  -19.3623  -15.1497   37.5373 C   0  0  0  0  0  0  0  0  0  0  0  0
  -29.6919  -12.3279   18.4306 C   0  0  0  0  0  0  0  0  0  0  0  0
  -19.0915  -15.6150   36.1100 C   0  0  0  0  0  0  0  0  0  0  0  0
  -28.2456  -12.0280   18.8239 C   0  0  0  0  0  0  0  0  0  0  0  0
  -29.0132  -17.9424   21.6630 C   0  0  0  0  0  0  0  0  0  0  0  0
  -28.4875  -16.1750   23.3802 C   0  0  0  0  0  0  0  0  0  0  0  0
  -30.5660  -12.5148   19.6656 C   0  0  0  0  0  0  0  0  0  0  0  0
  -30.2403  -17.1397   21.2397 C   0  0  0  0  0  0  0  0  0  0  0  0
  -29.7266  -15.4090   22.9287 C   0  0  0  0  0  0  0  0  0  0  0  0
  -28.6323  -13.2911   20.9973 C   0  0  0  0  0  0  0  0  0  0  0  0
  -20.3359  -15.4478   35.2297 C   0  0  1  0  0  0  0  0  0  0  0  0
  -22.3077  -18.6942   35.3055 C   0  0  1  0  0  0  0  0  0  0  0  0
  -28.6418  -17.6810   23.1284 C   0  0  0  0  0  0  0  0  0  0  0  0
  -27.7003  -13.1003   19.7838 C   0  0  2  0  0  0  0  0  0  0  0  0
  -24.9208  -17.0022   24.3321 C   0  0  0  0  0  0  0  0  0  0  0  0
  -22.4781  -26.4254   34.8552 C   0  0  0  0  0  0  0  0  0  0  0  0
  -28.7698  -20.5750   23.5627 C   0  0  0  0  0  0  0  0  0  0  0  0
  -26.3012  -20.7373   23.8651 C   0  0  0  0  0  0  0  0  0  0  0  0
  -18.6295  -21.1187   33.9078 C   0  0  0  0  0  0  0  0  0  0  0  0
  -19.0072  -23.5756   33.6091 C   0  0  0  0  0  0  0  0  0  0  0  0
  -18.8545  -22.6088   35.9036 C   0  0  0  0  0  0  0  0  0  0  0  0
  -25.4794  -24.0929   35.0208 C   0  0  0  0  0  0  0  0  0  0  0  0
  -26.2120  -17.5055   29.1244 C   0  0  0  0  0  0  0  0  0  1  0  0
  -27.3661  -18.4289   23.5081 C   0  0  2  0  0  0  0  0  0  0  0  0
  -20.9135  -22.1637   34.5056 C   0  0  1  0  0  0  0  0  0  0  0  0
  -23.2045  -25.1182   35.1315 C   0  0  2  0  0  0  0  0  0  0  0  0
  -27.4214  -19.9530   23.1703 C   0  0  0  0  0  0  0  0  0  0  0  0
  -19.3700  -22.3479   34.4715 C   0  0  0  0  0  0  0  0  0  0  0  0
  -25.8870  -11.5229   20.3374 N   0  0  0  0  0  0  0  0  0  0  0  0
  -26.2750  -12.8035   20.2122 N   0  0  0  0  0  0  0  0  0  0  0  0
  -22.0495  -19.9689   34.6326 N   0  0  0  0  0  0  0  0  0  0  0  0
  -30.0124  -13.5372   20.5531 N   0  0  0  0  0  0  0  0  0  0  0  0
  -30.0776  -15.7171   21.5359 N   0  0  0  0  0  0  0  0  0  0  0  0
  -25.5149  -15.0368   20.4245 N   0  0  0  0  0  0  0  0  0  0  0  0
  -21.8824  -12.5906   21.5279 N   0  0  0  0  0  0  0  0  0  0  0  0
  -21.2857  -16.5082   35.4906 N   0  0  0  0  0  0  0  0  0  0  0  0
  -21.6389  -23.3016   35.0600 N   0  0  0  0  0  0  0  0  0  0  0  0
  -24.6413  -25.2950   34.7772 N   0  3  0  0  0  0  0  0  0  0  0  0
  -22.6785  -14.7241   21.2575 O   0  0  0  0  0  0  0  0  0  0  0  0
  -20.3813  -18.1155   34.0689 O   0  0  0  0  0  0  0  0  0  0  0  0
  -21.0388  -20.9064   36.5130 O   0  0  0  0  0  0  0  0  0  0  0  0
  -22.9491  -23.7038   33.1895 O   0  0  0  0  0  0  0  0  0  0  0  0
  -31.6958  -15.0290   20.0426 O   0  0  0  0  0  0  0  0  0  0  0  0
  -21.5733   -7.0299   21.6618 O   0  0  0  0  0  0  0  0  0  0  0  0
  -25.1886  -18.3970   29.5499 O   0  0  0  0  0  0  0  0  0  1  0  0
  -18.4491   -6.9174   26.2039 F   0  0  0  0  0  0  0  0  0  0  0  0
  -21.9568   -5.0957   23.5994 F   0  0  0  0  0  0  0  0  0  0  0  0
  1  2  1  0  0  0  0
  1  5  2  0  0  0  0
  2  6  2  0  0  0  0
  3 10  2  0  0  0  0
  3 18  1  0  0  0  0
  4 11  1  0  0  0  0
  4 18  2  0  0  0  0
  5 20  1  0  0  0  0
  6 22  1  0  0  0  0
  7 12  2  0  0  0  0
  7 21  1  0  0  0  0
  8  9  2  0  0  0  0
  8 24  1  0  0  0  0
  9 25  1  0  0  0  0
 10 27  1  0  0  0  0
 11 27  2  0  0  0  0
 12 28  1  0  0  0  0
 13 14  2  0  0  0  0
 13 29  1  0  0  0  0
 14 30  1  0  0  0  0
 15 23  1  0  0  0  0
 15 28  2  0  0  0  0
 16 24  2  0  0  0  0
 16 26  1  0  0  0  0
 17 30  2  0  0  0  0
 17 31  1  0  0  0  0
 18 32  1  0  0  0  0
 19 32  1  0  0  0  0
 19 33  2  0  0  0  0
 19 34  1  0  0  0  0
 20 22  2  0  0  0  0
 20 39  1  0  0  0  0
 21 23  2  0  0  0  0
 21 40  1  0  0  0  0
 22 52  1  0  0  0  0
 23 41  1  0  0  0  0
 24 64  1  0  0  0  0
 25 26  2  0  0  0  0
 25 65  1  0  0  0  0
 26 56  1  0  0  0  0
 27 85  1  0  0  0  0
 28 86  1  0  0  0  0
 29 31  2  0  0  0  0
 29 85  1  0  0  0  0
 30 87  1  0  0  0  0
 31 88  1  0  0  0  0
 32 70  2  0  0  0  0
 33 71  1  0  0  0  0
 33 75  1  0  0  0  0
 34 76  1  0  0  0  0
 34 80  2  0  0  0  0
 35 53  1  0  0  0  0
 35 77  1  0  0  0  0
 35 81  2  0  0  0  0
 36 66  1  0  0  0  0
 36 72  1  0  0  0  0
 36 82  2  0  0  0  0
 37 67  1  0  0  0  0
 37 78  1  0  0  0  0
 37 83  2  0  0  0  0
 38 73  1  0  0  0  0
 38 74  1  0  0  0  0
 38 84  2  0  0  0  0
 39 42  1  0  0  0  0
 40 53  1  0  0  0  0
 41 72  1  0  0  0  0
 42 44  1  0  0  0  0
 43 45  1  0  0  0  0
 43 48  1  0  0  0  0
 44 52  1  0  0  0  0
 45 55  1  0  0  0  0
 46 49  1  0  0  0  0
 46 54  1  0  0  0  0
 47 50  1  0  0  0  0
 47 54  1  0  0  0  0
 48 73  1  0  0  0  0
 49 74  1  0  0  0  0
 50 74  1  0  0  0  0
 51 55  1  0  0  0  0
 51 73  1  0  0  0  0
 52 77  1  0  0  0  0
 53 72  1  0  0  0  0
 54 65  1  0  0  0  0
 55 71  1  0  0  0  0
 57 67  1  0  0  0  0
 58 68  1  0  0  0  0
 59 68  1  0  0  0  0
 60 69  1  0  0  0  0
 61 69  1  0  0  0  0
 62 69  1  0  0  0  0
 63 79  1  0  0  0  0
 64 86  1  0  0  0  0
 65 68  1  0  0  0  0
 66 69  1  0  0  0  0
 66 78  1  0  0  0  0
 67 79  1  0  0  0  0
 70 71  1  0  0  0  0
M  CHG  1  79   1
M  ISO  4  38 100  64 101  74 100  86 101
M  END
> <Batch ID>
0143

> <Smiles>
CNC(C)C(=O)NC(C(=O)N1Cc2cc([101O:1][101CH2:1]c3ccc(C(C(C)C)C4CC[100N:0]([100C:0](=O)N5CCCC(n6nc(-c7ccc(Oc8ccc(F)cc8F)cc7)c(C(N)=O)c6N)C5)CC4)c(C)c3)ccc2CC1C(=O)NC1CCCc2ccccc21)C(C)(C)C

> <Shape>
0.165

> <Color>
0.194

> <Negative vol penalty>
0.000

$$$$

  -OEChem-04052321213D

 77 85  0     1  0  0  0  0  0999 V2000
  -27.2814   -3.7748   33.1668 C   0  0  0  0  0  0  0  0  0  0  0  0
  -28.0818   -4.7507   32.5816 C   0  0  0  0  0  0  0  0  0  0  0  0
  -23.1908   -9.8189   19.9317 C   0  0  0  0  0  0  0  0  0  0  0  0
  -23.5684   -9.9991   22.3112 C   0  0  0  0  0  0  0  0  0  0  0  0
  -25.9369   -3.6726   32.8118 C   0  0  0  0  0  0  0  0  0  0  0  0
  -27.5385   -5.6242   31.6402 C   0  0  0  0  0  0  0  0  0  0  0  0
  -29.0155  -11.5069   30.7930 C   0  0  0  0  0  0  0  0  0  0  0  0
  -22.4246   -8.6722   20.1401 C   0  0  0  0  0  0  0  0  0  0  0  0
  -22.8021   -8.8524   22.5196 C   0  0  0  0  0  0  0  0  0  0  0  0
  -29.8557  -12.1408   29.8786 C   0  0  0  0  0  0  0  0  0  0  0  0
  -23.2036   -5.5058   22.2554 C   0  0  0  0  0  0  0  0  0  0  0  0
  -23.7018   -4.5444   23.1347 C   0  0  0  0  0  0  0  0  0  0  0  0
  -27.9574  -12.6021   28.4634 C   0  0  0  0  0  0  0  0  0  0  0  0
  -21.7448   -4.8041   24.5274 C   0  0  0  0  0  0  0  0  0  0  0  0
  -23.7628  -10.4824   21.0173 C   0  0  0  0  0  0  0  0  0  0  0  0
  -24.1013  -12.9991   20.7738 C   0  0  0  0  0  0  0  0  0  0  0  0
  -25.3745   -4.5515   31.8728 C   0  0  0  0  0  0  0  0  0  0  0  0
  -27.6392  -11.4061   30.5438 C   0  0  0  0  0  0  0  0  0  0  0  0
  -26.1856   -5.5327   31.2713 C   0  0  0  0  0  0  0  0  0  0  0  0
  -27.1015  -11.9688   29.3774 C   0  0  0  0  0  0  0  0  0  0  0  0
  -22.2302   -8.1889   21.4340 C   0  0  0  0  0  0  0  0  0  0  0  0
  -29.3271  -12.6860   28.7123 C   0  0  0  0  0  0  0  0  0  0  0  0
  -21.9760   -6.1164   22.5121 C   0  0  0  0  0  0  0  0  0  0  0  0
  -22.9724   -4.1935   24.2707 C   0  0  0  0  0  0  0  0  0  0  0  0
  -21.2466   -5.7655   23.6481 C   0  0  0  0  0  0  0  0  0  0  0  0
  -24.5549  -11.6667   20.8026 C   0  0  0  0  0  0  0  0  0  0  0  0
  -25.2325  -13.7419   20.5390 C   0  0  0  0  0  0  0  0  0  0  0  0
  -22.7760  -13.5189   20.9443 C   0  0  0  0  0  0  0  0  0  0  0  0
  -25.6046   -8.9991   30.1314 C   0  0  0  0  0  0  0  0  0  0  0  0
  -23.3983  -11.3771   30.1289 C   0  0  0  0  0  0  0  0  0  0  0  0
  -22.6973  -14.6782   29.6210 C   0  0  0  0  0  0  0  0  0  0  0  0
  -31.0471  -12.7524   21.5699 C   0  0  0  0  0  0  0  0  0  0  0  0
  -23.9279   -4.3718   31.4859 C   0  0  0  0  0  0  0  0  0  0  0  0
  -26.7425  -10.7428   31.5529 C   0  0  0  0  0  0  0  0  0  0  0  0
  -25.6279  -11.9051   29.0727 C   0  0  0  0  0  0  0  0  0  0  0  0
  -23.3379   -5.5768   30.7578 C   0  0  0  0  0  0  0  0  0  0  0  0
  -29.5206  -13.4699   18.4343 C   0  0  0  0  0  0  0  0  0  0  0  0
  -24.2893   -6.0602   29.6677 C   0  0  0  0  0  0  0  0  0  0  0  0
  -31.9549  -14.5000   25.8634 C   0  0  0  0  0  0  0  0  0  0  0  0
  -28.0339  -13.2094   18.6831 C   0  0  0  0  0  0  0  0  0  0  0  0
  -31.5593  -14.4779   24.3833 C   0  0  0  0  0  0  0  0  0  0  0  0
  -31.1506  -12.2940   25.2804 C   0  0  0  0  0  0  0  0  0  0  0  0
  -30.4017  -12.4806   19.1937 C   0  0  0  0  0  0  0  0  0  0  0  0
  -28.6477  -12.1375   20.8906 C   0  0  0  0  0  0  0  0  0  0  0  0
  -25.6268   -6.5146   30.2645 C   0  0  1  0  0  0  0  0  0  0  0  0
  -25.4313  -10.2459   30.9518 C   0  0  1  0  0  0  0  0  0  0  0  0
  -31.9897  -13.0357   26.3198 C   0  0  2  0  0  0  0  0  0  0  0  0
  -27.7204  -13.1452   20.1901 C   0  0  2  0  0  0  0  0  0  0  0  0
  -31.5365  -13.0034   23.9899 C   0  0  1  0  0  0  0  0  0  0  0  0
  -20.7973  -16.3171   29.6595 C   0  0  0  0  0  0  0  0  0  0  0  0
  -22.3980  -10.2763   27.4648 C   0  0  0  0  0  0  0  0  0  0  0  0
  -21.1925  -12.4405   27.1027 C   0  0  0  0  0  0  0  0  0  0  0  0
  -20.5934  -10.9904   29.0421 C   0  0  0  0  0  0  0  0  0  0  0  0
  -23.9791  -16.2914   31.7455 C   0  0  0  0  0  0  0  0  0  0  0  0
  -31.4914  -12.8384   27.7383 C   0  0  0  0  0  0  0  0  0  1  0  0
  -22.7795  -12.2602   29.0725 C   0  0  1  0  0  0  0  0  0  0  0  0
  -21.9273  -15.6846   30.4569 C   0  0  2  0  0  0  0  0  0  0  0  0
  -21.7690  -11.4915   28.1750 C   0  0  0  0  0  0  0  0  0  0  0  0
  -25.8715  -11.5658   20.6018 N   0  0  0  0  0  0  0  0  0  0  0  0
  -26.2550  -12.8442   20.4446 N   0  0  0  0  0  0  0  0  0  0  0  0
  -24.7931  -11.2407   30.0872 N   0  0  0  0  0  0  0  0  0  0  0  0
  -30.0548  -12.4693   20.6169 N   0  0  0  0  0  0  0  0  0  0  0  0
  -25.4423  -15.0688   20.4059 N   0  0  0  0  0  0  0  0  0  0  0  0
  -21.7293  -12.6165   21.1779 N   0  0  0  0  0  0  0  0  0  0  0  0
  -25.4954   -7.8283   30.8573 N   0  0  0  0  0  0  0  0  0  0  0  0
  -22.2046  -13.4000   29.7787 N   0  0  0  0  0  0  0  0  0  0  0  0
  -30.6324  -12.7269   22.8958 N   0  0  0  0  0  0  0  0  0  0  0  0
  -22.8346  -16.7691   30.9277 N   0  3  0  0  0  0  0  0  0  0  0  0
  -22.5247  -14.7459   20.8747 O   0  0  0  0  0  0  0  0  0  0  0  0
  -25.8198   -9.0923   28.9286 O   0  0  0  0  0  0  0  0  0  0  0  0
  -22.6717  -10.8342   30.9649 O   0  0  0  0  0  0  0  0  0  0  0  0
  -23.6390  -14.9948   28.8975 O   0  0  0  0  0  0  0  0  0  0  0  0
  -32.2147  -13.0142   21.2616 O   0  0  0  0  0  0  0  0  0  0  0  0
  -21.4824   -7.0701   21.6378 O   0  0  0  0  0  0  0  0  0  0  0  0
  -30.1450  -13.3046   27.8178 O   0  0  0  0  0  0  0  0  0  1  0  0
  -23.4502   -3.2692   25.1141 F   0  0  0  0  0  0  0  0  0  0  0  0
  -20.0661   -6.3478   23.8995 F   0  0  0  0  0  0  0  0  0  0  0  0
  1  2  1  0  0  0  0
  1  5  2  0  0  0  0
  2  6  2  0  0  0  0
  3  8  2  0  0  0  0
  3 15  1  0  0  0  0
  4  9  1  0  0  0  0
  4 15  2  0  0  0  0
  5 17  1  0  0  0  0
  6 19  1  0  0  0  0
  7 10  2  0  0  0  0
  7 18  1  0  0  0  0
  8 21  1  0  0  0  0
  9 21  2  0  0  0  0
 10 22  1  0  0  0  0
 11 12  2  0  0  0  0
 11 23  1  0  0  0  0
 12 24  1  0  0  0  0
 13 20  1  0  0  0  0
 13 22  2  0  0  0  0
 14 24  2  0  0  0  0
 14 25  1  0  0  0  0
 15 26  1  0  0  0  0
 16 26  1  0  0  0  0
 16 27  2  0  0  0  0
 16 28  1  0  0  0  0
 17 19  2  0  0  0  0
 17 33  1  0  0  0  0
 18 20  2  0  0  0  0
 18 34  1  0  0  0  0
 19 45  1  0  0  0  0
 20 35  1  0  0  0  0
 21 74  1  0  0  0  0
 22 75  1  0  0  0  0
 23 25  2  0  0  0  0
 23 74  1  0  0  0  0
 24 76  1  0  0  0  0
 25 77  1  0  0  0  0
 26 59  2  0  0  0  0
 27 60  1  0  0  0  0
 27 63  1  0  0  0  0
 28 64  1  0  0  0  0
 28 69  2  0  0  0  0
 29 46  1  0  0  0  0
 29 65  1  0  0  0  0
 29 70  2  0  0  0  0
 30 56  1  0  0  0  0
 30 61  1  0  0  0  0
 30 71  2  0  0  0  0
 31 57  1  0  0  0  0
 31 66  1  0  0  0  0
 31 72  2  0  0  0  0
 32 62  1  0  0  0  0
 32 67  1  0  0  0  0
 32 73  2  0  0  0  0
 33 36  1  0  0  0  0
 34 46  1  0  0  0  0
 35 61  1  0  0  0  0
 36 38  1  0  0  0  0
 37 40  1  0  0  0  0
 37 43  1  0  0  0  0
 38 45  1  0  0  0  0
 39 41  1  0  0  0  0
 39 47  1  0  0  0  0
 40 48  1  0  0  0  0
 41 49  1  0  0  0  0
 42 47  1  0  0  0  0
 42 49  1  0  0  0  0
 43 62  1  0  0  0  0
 44 48  1  0  0  0  0
 44 62  1  0  0  0  0
 45 65  1  0  0  0  0
 46 61  1  0  0  0  0
 47 55  1  0  0  0  0
 48 60  1  0  0  0  0
 49 67  1  0  0  0  0
 50 57  1  0  0  0  0
 51 58  1  0  0  0  0
 52 58  1  0  0  0  0
 53 58  1  0  0  0  0
 54 68  1  0  0  0  0
 55 75  1  0  0  0  0
 56 58  1  0  0  0  0
 56 66  1  0  0  0  0
 57 68  1  0  0  0  0
 59 60  1  0  0  0  0
M  CHG  1  68   1
M  ISO  4  32 100  55 101  67 100  75 101
M  END
> <Batch ID>
0143

> <Smiles>
CNC(C)C(=O)NC(C(=O)N1Cc2cc([101O:1][101CH2:1]C3CCC([100NH:0][100C:0](=O)N4CCCC(n5nc(-c6ccc(Oc7ccc(F)cc7F)cc6)c(C(N)=O)c5N)C4)C3)ccc2CC1C(=O)NC1CCCc2ccccc21)C(C)(C)C

> <Shape>
0.144

> <Color>
0.190

> <Negative vol penalty>
0.000

$$$$

  -OEChem-04052321213D

 85 93  0     1  0  0  0  0  0999 V2000
  -28.7325  -24.9896   16.6728 C   0  0  0  0  0  0  0  0  0  0  0  0
  -27.6088  -25.0007   17.4929 C   0  0  0  0  0  0  0  0  0  0  0  0
  -26.3068  -13.6837   18.4690 C   0  0  0  0  0  0  0  0  0  0  0  0
  -24.0712  -14.0524   19.3078 C   0  0  0  0  0  0  0  0  0  0  0  0
  -29.8616  -25.7258   17.0293 C   0  0  0  0  0  0  0  0  0  0  0  0
  -27.6139  -25.7473   18.6706 C   0  0  0  0  0  0  0  0  0  0  0  0
  -23.3432  -28.3917   19.3132 C   0  0  0  0  0  0  0  0  0  0  0  0
  -26.4340  -12.5692   19.2979 C   0  0  0  0  0  0  0  0  0  0  0  0
  -24.1984  -12.9377   20.1367 C   0  0  0  0  0  0  0  0  0  0  0  0
  -22.2250  -27.6944   19.7686 C   0  0  0  0  0  0  0  0  0  0  0  0
  -24.0126   -9.5770   19.8348 C   0  0  0  0  0  0  0  0  0  0  0  0
  -22.9416   -8.6849   19.8877 C   0  0  0  0  0  0  0  0  0  0  0  0
  -22.6311  -28.5133   22.0010 C   0  0  0  0  0  0  0  0  0  0  0  0
  -22.7264   -9.0841   22.2607 C   0  0  0  0  0  0  0  0  0  0  0  0
  -25.1254  -14.4254   18.4740 C   0  0  0  0  0  0  0  0  0  0  0  0
  -24.5029  -15.6045   16.2992 C   0  0  0  0  0  0  0  0  0  0  0  0
  -29.8771  -26.4895   18.2070 C   0  0  0  0  0  0  0  0  0  0  0  0
  -24.1213  -29.1474   20.2019 C   0  0  0  0  0  0  0  0  0  0  0  0
  -28.7448  -26.4934   19.0439 C   0  0  0  0  0  0  0  0  0  0  0  0
  -23.7571  -29.2213   21.5539 C   0  0  0  0  0  0  0  0  0  0  0  0
  -25.3798  -12.1961   20.1318 C   0  0  0  0  0  0  0  0  0  0  0  0
  -21.8704  -27.7529   21.1132 C   0  0  0  0  0  0  0  0  0  0  0  0
  -24.4406  -10.2225   20.9949 C   0  0  0  0  0  0  0  0  0  0  0  0
  -22.2985   -8.4385   21.1006 C   0  0  0  0  0  0  0  0  0  0  0  0
  -23.7975   -9.9761   22.2078 C   0  0  0  0  0  0  0  0  0  0  0  0
  -24.9935  -15.5772   17.6184 C   0  0  0  0  0  0  0  0  0  0  0  0
  -24.5816  -16.9253   15.9308 C   0  0  0  0  0  0  0  0  0  0  0  0
  -24.0191  -14.5318   15.4800 C   0  0  0  0  0  0  0  0  0  0  0  0
  -27.1424  -29.0434   21.1846 C   0  0  0  0  0  0  0  0  0  0  0  0
  -24.6346  -21.9945   19.1577 C   0  0  0  0  0  0  0  0  0  0  0  0
  -26.3404  -31.8043   22.6867 C   0  0  0  0  0  0  0  0  0  0  0  0
  -23.8894  -33.7766   24.0095 C   0  0  0  0  0  0  0  0  0  0  0  0
  -31.1377  -27.2314   18.5746 C   0  0  0  0  0  0  0  0  0  0  0  0
  -25.3090  -29.9153   19.6899 C   0  0  0  0  0  0  0  0  0  0  0  0
  -24.5476  -30.0348   22.5448 C   0  0  0  0  0  0  0  0  0  0  0  0
  -30.9272  -28.2948   19.6493 C   0  0  0  0  0  0  0  0  0  0  0  0
  -27.0760  -20.9121   16.7685 C   0  0  0  0  0  0  0  0  0  0  0  0
  -30.0955  -27.7348   20.7989 C   0  0  0  0  0  0  0  0  0  0  0  0
  -26.7924  -19.4182   16.6172 C   0  0  0  0  0  0  0  0  0  0  0  0
  -26.8305  -21.3851   18.1979 C   0  0  0  0  0  0  0  0  0  0  0  0
  -25.1771  -19.5811   18.5638 C   0  0  0  0  0  0  0  0  0  0  0  0
  -28.7030  -27.3106   20.3168 C   0  0  1  0  0  0  0  0  0  0  0  0
  -26.3266  -30.2384   20.7796 C   0  0  1  0  0  0  0  0  0  0  0  0
  -19.9021  -23.3133   23.6833 C   0  0  1  0  0  0  0  0  0  0  0  0
  -19.8908  -24.6872   24.4202 C   0  0  1  0  0  0  0  0  0  0  0  0
  -20.6353  -24.0358   22.5123 C   0  0  2  0  0  0  0  0  0  0  0  0
  -19.9706  -25.3542   23.0132 C   0  0  2  0  0  0  0  0  0  0  0  0
  -25.3832  -19.0685   17.1274 C   0  0  2  0  0  0  0  0  0  0  0  0
  -20.6614  -22.1909   24.3632 C   0  0  0  0  0  0  0  0  0  0  0  0
  -18.6573  -24.9993   25.2446 C   0  0  0  0  0  0  0  0  0  0  0  0
  -23.5451  -35.9576   25.2020 C   0  0  0  0  0  0  0  0  0  0  0  0
  -19.6550  -19.4946   20.6219 C   0  0  0  0  0  0  0  0  0  0  0  0
  -18.1133  -20.6824   19.0136 C   0  0  0  0  0  0  0  0  0  0  0  0
  -27.3711  -30.5513   25.2708 C   0  0  0  0  0  0  0  0  0  0  0  0
  -26.1571  -32.3365   26.5387 C   0  0  0  0  0  0  0  0  0  0  0  0
  -27.9862  -32.9553   24.9594 C   0  0  0  0  0  0  0  0  0  0  0  0
  -22.1979  -34.8371   21.8247 C   0  0  0  0  0  0  0  0  0  0  0  0
  -23.2686  -21.5367   19.6033 C   0  0  0  0  0  0  0  0  0  0  0  0
  -20.2702  -23.5879   21.1105 C   0  0  0  0  0  0  0  0  0  0  0  0
  -20.8101  -26.6129   22.9110 C   0  0  0  0  0  0  0  0  0  1  0  0
  -22.4407  -22.7076   20.1313 C   0  0  0  0  0  0  0  0  0  0  0  0
  -25.7702  -32.1591   24.0388 C   0  0  1  0  0  0  0  0  0  0  0  0
  -23.5939  -35.2573   23.8529 C   0  0  2  0  0  0  0  0  0  0  0  0
  -19.1326  -20.8353   20.1311 C   0  0  0  0  0  0  0  0  0  0  0  0
  -21.0526  -22.3358   20.6795 C   0  0  2  0  0  0  0  0  0  0  0  0
  -26.8072  -31.9836   25.1839 C   0  0  0  0  0  0  0  0  0  0  0  0
  -25.3572  -16.7847   18.0583 N   0  0  0  0  0  0  0  0  0  0  0  0
  -25.0949  -17.5832   17.0097 N   0  0  0  0  0  0  0  0  0  0  0  0
  -25.7040  -30.7627   21.9968 N   0  0  0  0  0  0  0  0  0  0  0  0
  -25.4894  -21.0143   18.6532 N   0  0  0  0  0  0  0  0  0  0  0  0
  -24.2611  -17.5766   14.7926 N   0  0  0  0  0  0  0  0  0  0  0  0
  -24.0068  -13.2362   16.0144 N   0  0  0  0  0  0  0  0  0  0  0  0
  -27.8522  -28.4690   20.1474 N   0  0  0  0  0  0  0  0  0  0  0  0
  -25.2395  -33.5125   23.9155 N   0  0  0  0  0  0  0  0  0  0  0  0
  -22.2824  -35.4548   23.1732 N   0  3  0  0  0  0  0  0  0  0  0  0
  -20.2785  -21.6277   19.6181 N   0  3  0  0  0  0  0  0  0  0  0  0
  -23.6253  -14.7143   14.3031 O   0  0  0  0  0  0  0  0  0  0  0  0
  -27.1300  -28.6709   22.3520 O   0  0  0  0  0  0  0  0  0  0  0  0
  -24.9302  -23.1886   19.2531 O   0  0  0  0  0  0  0  0  0  0  0  0
  -27.3101  -32.4330   22.2555 O   0  0  0  0  0  0  0  0  0  0  0  0
  -23.0108  -32.9385   24.2000 O   0  0  0  0  0  0  0  0  0  0  0  0
  -25.5036  -11.1084   20.9406 O   0  0  0  0  0  0  0  0  0  0  0  0
  -20.7799  -27.0728   21.5604 O   0  0  0  0  0  0  0  0  0  1  0  0
  -21.2690   -7.5831   21.1510 F   0  0  0  0  0  0  0  0  0  0  0  0
  -24.2033  -10.5942   23.3254 F   0  0  0  0  0  0  0  0  0  0  0  0
  1  2  1  0  0  0  0
  1  5  2  0  0  0  0
  2  6  2  0  0  0  0
  3  8  2  0  0  0  0
  3 15  1  0  0  0  0
  4  9  1  0  0  0  0
  4 15  2  0  0  0  0
  5 17  1  0  0  0  0
  6 19  1  0  0  0  0
  7 10  2  0  0  0  0
  7 18  1  0  0  0  0
  8 21  1  0  0  0  0
  9 21  2  0  0  0  0
 10 22  1  0  0  0  0
 11 12  2  0  0  0  0
 11 23  1  0  0  0  0
 12 24  1  0  0  0  0
 13 20  1  0  0  0  0
 13 22  2  0  0  0  0
 14 24  2  0  0  0  0
 14 25  1  0  0  0  0
 15 26  1  0  0  0  0
 16 26  1  0  0  0  0
 16 27  2  0  0  0  0
 16 28  1  0  0  0  0
 17 19  2  0  0  0  0
 17 33  1  0  0  0  0
 18 20  2  0  0  0  0
 18 34  1  0  0  0  0
 19 42  1  0  0  0  0
 20 35  1  0  0  0  0
 21 82  1  0  0  0  0
 22 83  1  0  0  0  0
 23 25  2  0  0  0  0
 23 82  1  0  0  0  0
 24 84  1  0  0  0  0
 25 85  1  0  0  0  0
 26 67  2  0  0  0  0
 27 68  1  0  0  0  0
 27 71  1  0  0  0  0
 28 72  1  0  0  0  0
 28 77  2  0  0  0  0
 29 43  1  0  0  0  0
 29 73  1  0  0  0  0
 29 78  2  0  0  0  0
 30 58  1  0  0  0  0
 30 70  1  0  0  0  0
 30 79  2  0  0  0  0
 31 62  1  0  0  0  0
 31 69  1  0  0  0  0
 31 80  2  0  0  0  0
 32 63  1  0  0  0  0
 32 74  1  0  0  0  0
 32 81  2  0  0  0  0
 33 36  1  0  0  0  0
 34 43  1  0  0  0  0
 35 69  1  0  0  0  0
 36 38  1  0  0  0  0
 37 39  1  0  0  0  0
 37 40  1  0  0  0  0
 38 42  1  0  0  0  0
 39 48  1  0  0  0  0
 40 70  1  0  0  0  0
 41 48  1  0  0  0  0
 41 70  1  0  0  0  0
 42 73  1  0  0  0  0
 43 69  1  0  0  0  0
 44 45  1  0  0  0  0
 44 46  1  0  0  0  0
 44 49  1  0  0  0  0
 45 47  1  0  0  0  0
 45 50  1  0  0  0  0
 46 47  1  0  0  0  0
 46 59  1  0  0  0  0
 47 60  1  0  0  0  0
 48 68  1  0  0  0  0
 51 63  1  0  0  0  0
 52 64  1  0  0  0  0
 53 64  1  0  0  0  0
 54 66  1  0  0  0  0
 55 66  1  0  0  0  0
 56 66  1  0  0  0  0
 57 75  1  0  0  0  0
 58 61  1  0  0  0  0
 59 65  1  0  0  0  0
 60 83  1  0  0  0  0
 61 65  1  0  0  0  0
 62 66  1  0  0  0  0
 62 74  1  0  0  0  0
 63 75  1  0  0  0  0
 64 76  1  0  0  0  0
 65 76  1  0  0  0  0
 67 68  1  0  0  0  0
M  CHG  2  75   1  76   1
M  ISO  4  30 100  58 100  60 101  83 101
M  END
> <Batch ID>
0143

> <Smiles>
CNC(C)C(=O)NC(C(=O)N1Cc2cc([101O:1][101CH2:1]C3C(C)C(C)C3CC(C[100CH2:0][100C:0](=O)N3CCCC(n4nc(-c5ccc(Oc6ccc(F)cc6F)cc5)c(C(N)=O)c4N)C3)NC(C)C)ccc2CC1C(=O)NC1CCCc2ccccc21)C(C)(C)C

> <Shape>
0.233

> <Color>
0.079

> <Negative vol penalty>
0.000

$$$$

  -OEChem-04052321213D

 90100  0     1  0  0  0  0  0999 V2000
  -24.1872  -31.6135   13.4950 C   0  0  0  0  0  0  0  0  0  0  0  0
  -24.8739  -30.7258   14.3170 C   0  0  0  0  0  0  0  0  0  0  0  0
  -23.2473  -10.3029   21.0211 C   0  0  0  0  0  0  0  0  0  0  0  0
  -24.7528   -8.7875   22.1498 C   0  0  0  0  0  0  0  0  0  0  0  0
  -24.0236  -32.9413   13.8877 C   0  0  0  0  0  0  0  0  0  0  0  0
  -25.3985  -31.1656   15.5318 C   0  0  0  0  0  0  0  0  0  0  0  0
  -24.4840  -27.9379   19.3253 C   0  0  0  0  0  0  0  0  0  0  0  0
  -22.3072   -9.2796   20.9011 C   0  0  0  0  0  0  0  0  0  0  0  0
  -23.8126   -7.7641   22.0298 C   0  0  0  0  0  0  0  0  0  0  0  0
  -25.2852  -26.7994   19.3997 C   0  0  0  0  0  0  0  0  0  0  0  0
  -20.9677   -6.8032   23.5801 C   0  0  0  0  0  0  0  0  0  0  0  0
  -20.7290   -6.0095   24.7021 C   0  0  0  0  0  0  0  0  0  0  0  0
  -26.6168  -27.8558   21.1115 C   0  0  0  0  0  0  0  0  0  0  0  0
  -29.0427  -23.4513   19.2821 C   0  0  0  0  0  0  0  0  0  0  0  0
  -21.4258   -4.0536   23.4667 C   0  0  0  0  0  0  0  0  0  0  0  0
  -27.3137  -22.3016   20.4419 C   0  0  0  0  0  0  0  0  0  0  0  0
  -24.4702  -10.0569   21.6455 C   0  0  0  0  0  0  0  0  0  0  0  0
  -25.5704  -12.0304   22.8297 C   0  0  0  0  0  0  0  0  0  0  0  0
  -24.5381  -33.3952   15.1124 C   0  0  0  0  0  0  0  0  0  0  0  0
  -24.7502  -29.0499   20.1370 C   0  0  0  0  0  0  0  0  0  0  0  0
  -25.2428  -32.5010   15.9407 C   0  0  0  0  0  0  0  0  0  0  0  0
  -25.8159  -29.0062   21.0472 C   0  0  0  0  0  0  0  0  0  0  0  0
  -27.7318  -23.4236   19.7447 C   0  0  0  0  0  0  0  0  0  0  0  0
  -29.8836  -22.3714   19.5272 C   0  0  0  0  0  0  0  0  0  0  0  0
  -22.5898   -8.0102   21.4054 C   0  0  0  0  0  0  0  0  0  0  0  0
  -26.3536  -26.7593   20.2908 C   0  0  0  0  0  0  0  0  0  0  0  0
  -21.4353   -6.2220   22.4014 C   0  0  0  0  0  0  0  0  0  0  0  0
  -20.9581   -4.6348   24.6454 C   0  0  0  0  0  0  0  0  0  0  0  0
  -21.6644   -4.8473   22.3447 C   0  0  0  0  0  0  0  0  0  0  0  0
  -25.4420  -11.1134   21.7693 C   0  0  0  0  0  0  0  0  0  0  0  0
  -29.3691  -21.2966   20.2343 C   0  0  0  0  0  0  0  0  0  0  0  0
  -26.6352  -12.8211   22.4729 C   0  0  0  0  0  0  0  0  0  0  0  0
  -24.7963  -12.1561   24.0300 C   0  0  0  0  0  0  0  0  0  0  0  0
  -25.5406  -32.0815   19.5997 C   0  0  0  0  0  0  0  0  0  0  0  0
  -25.1779  -32.3385   22.8129 C   0  0  0  0  0  0  0  0  0  0  0  0
  -25.1651  -30.8003   25.8593 C   0  0  0  0  0  0  0  0  0  0  0  0
  -29.1155  -15.8506   18.4003 C   0  0  0  0  0  0  0  0  0  0  0  0
  -24.3772  -34.8510   15.4724 C   0  0  0  0  0  0  0  0  0  0  0  0
  -23.8602  -30.2603   20.0637 C   0  0  0  0  0  0  0  0  0  0  0  0
  -26.1314  -30.1659   21.9550 C   0  0  0  0  0  0  0  0  0  0  0  0
  -24.6389  -35.1462   16.9471 C   0  0  0  0  0  0  0  0  0  0  0  0
  -30.0448  -12.3138   18.7755 C   0  0  0  0  0  0  0  0  0  0  0  0
  -25.9188  -34.4577   17.4104 C   0  0  0  0  0  0  0  0  0  0  0  0
  -27.7623  -20.0192   17.9286 C   0  0  0  0  0  0  0  0  0  0  0  0
  -27.5876  -18.7260   17.1824 C   0  0  0  0  0  0  0  0  0  0  0  0
  -28.9081  -11.7540   19.6314 C   0  0  0  0  0  0  0  0  0  0  0  0
  -29.5816  -13.4765   17.9012 C   0  0  0  0  0  0  0  0  0  0  0  0
  -29.3863  -16.4482   20.8570 C   0  0  0  0  0  0  0  0  0  0  0  0
  -27.7724  -14.0024   19.4943 C   0  0  0  0  0  0  0  0  0  0  0  0
  -25.8050  -32.9343   17.2772 C   0  0  1  0  0  0  0  0  0  0  0  0
  -24.5358  -31.5304   20.5714 C   0  0  1  0  0  0  0  0  0  0  0  0
  -27.8113  -18.7115   18.6692 C   0  0  0  0  0  0  0  0  0  0  0  0
  -30.1483  -17.6800   21.3414 C   0  0  1  0  0  0  0  0  0  0  0  0
  -29.4130  -18.8193   20.6179 C   0  0  2  0  0  0  0  0  0  0  0  0
  -28.2169  -12.8721   20.4331 C   0  0  1  0  0  0  0  0  0  0  0  0
  -29.1102  -18.2091   19.2337 C   0  0  1  0  0  0  0  0  0  0  0  0
  -30.1468  -17.8104   22.8564 C   0  0  0  0  0  0  0  0  0  0  0  0
  -33.7293  -22.6860   19.6559 C   0  0  0  0  0  0  0  0  0  0  0  0
  -24.8767  -31.2778   28.3059 C   0  0  0  0  0  0  0  0  0  0  0  0
  -27.9846  -33.5315   22.9085 C   0  0  0  0  0  0  0  0  0  0  0  0
  -28.0074  -33.1027   25.3750 C   0  0  0  0  0  0  0  0  0  0  0  0
  -26.3207  -34.6586   24.3969 C   0  0  0  0  0  0  0  0  0  0  0  0
  -22.8104  -29.0175   26.0482 C   0  0  0  0  0  0  0  0  0  0  0  0
  -31.2887  -22.3938   19.0328 C   0  0  0  0  0  0  0  0  0  0  0  0
  -26.8076  -24.5629   19.4999 C   0  0  0  0  0  0  0  0  0  1  0  0
  -30.2333  -20.1000   20.5300 C   0  0  0  0  0  0  0  0  0  0  0  0
  -32.2933  -22.6977   20.1555 C   0  0  0  0  0  0  0  0  0  0  0  0
  -26.0851  -32.1716   24.0079 C   0  0  1  0  0  0  0  0  0  0  0  0
  -24.1845  -30.8650   27.0163 C   0  0  2  0  0  0  0  0  0  0  0  0
  -27.0949  -33.3448   24.1537 C   0  0  0  0  0  0  0  0  0  0  0  0
  -28.1014  -21.2335   20.6995 N   0  0  0  0  0  0  0  0  0  0  0  0
  -26.3525  -11.3031   20.8106 N   0  0  0  0  0  0  0  0  0  0  0  0
  -27.0631  -12.3483   21.2673 N   0  0  0  0  0  0  0  0  0  0  0  0
  -25.2361  -31.3290   21.8416 N   0  0  0  0  0  0  0  0  0  0  0  0
  -28.9022  -14.4979   18.6985 N   0  0  0  0  0  0  0  0  0  0  0  0
  -29.0613  -16.7568   19.4638 N   0  0  0  0  0  0  0  0  0  0  0  0
  -27.2379  -13.8678   23.0759 N   0  0  0  0  0  0  0  0  0  0  0  0
  -23.7378  -11.2616   24.2392 N   0  0  0  0  0  0  0  0  0  0  0  0
  -25.0139  -32.3899   18.3600 N   0  0  0  0  0  0  0  0  0  0  0  0
  -25.2110  -31.9887   25.1616 N   0  0  0  0  0  0  0  0  0  0  0  0
  -23.5470  -29.5350   27.2299 N   0  3  0  0  0  0  0  0  0  0  0  0
  -25.0259  -13.0460   24.8838 O   0  0  0  0  0  0  0  0  0  0  0  0
  -26.7072  -32.2181   19.9492 O   0  0  0  0  0  0  0  0  0  0  0  0
  -24.4394  -33.3244   22.7472 O   0  0  0  0  0  0  0  0  0  0  0  0
  -25.8272  -29.7971   25.6025 O   0  0  0  0  0  0  0  0  0  0  0  0
  -29.3698  -16.2253   17.2485 O   0  0  0  0  0  0  0  0  0  0  0  0
  -21.6725   -7.0114   21.2886 O   0  0  0  0  0  0  0  0  0  0  0  0
  -27.1427  -25.6424   20.3655 O   0  0  0  0  0  0  0  0  0  1  0  0
  -20.7304   -3.8730   25.7233 F   0  0  0  0  0  0  0  0  0  0  0  0
  -22.1148   -4.2835   21.2155 F   0  0  0  0  0  0  0  0  0  0  0  0
  1  2  1  0  0  0  0
  1  5  2  0  0  0  0
  2  6  2  0  0  0  0
  3  8  2  0  0  0  0
  3 17  1  0  0  0  0
  4  9  1  0  0  0  0
  4 17  2  0  0  0  0
  5 19  1  0  0  0  0
  6 21  1  0  0  0  0
  7 10  2  0  0  0  0
  7 20  1  0  0  0  0
  8 25  1  0  0  0  0
  9 25  2  0  0  0  0
 10 26  1  0  0  0  0
 11 12  2  0  0  0  0
 11 27  1  0  0  0  0
 12 28  1  0  0  0  0
 13 22  1  0  0  0  0
 13 26  2  0  0  0  0
 14 23  2  0  0  0  0
 14 24  1  0  0  0  0
 15 28  2  0  0  0  0
 15 29  1  0  0  0  0
 16 23  1  0  0  0  0
 16 71  2  0  0  0  0
 17 30  1  0  0  0  0
 18 30  1  0  0  0  0
 18 32  2  0  0  0  0
 18 33  1  0  0  0  0
 19 21  2  0  0  0  0
 19 38  1  0  0  0  0
 20 22  2  0  0  0  0
 20 39  1  0  0  0  0
 21 50  1  0  0  0  0
 22 40  1  0  0  0  0
 23 65  1  0  0  0  0
 24 31  2  0  0  0  0
 24 64  1  0  0  0  0
 25 87  1  0  0  0  0
 26 88  1  0  0  0  0
 27 29  2  0  0  0  0
 27 87  1  0  0  0  0
 28 89  1  0  0  0  0
 29 90  1  0  0  0  0
 30 72  2  0  0  0  0
 31 66  1  0  0  0  0
 31 71  1  0  0  0  0
 32 73  1  0  0  0  0
 32 77  1  0  0  0  0
 33 78  1  0  0  0  0
 33 82  2  0  0  0  0
 34 51  1  0  0  0  0
 34 79  1  0  0  0  0
 34 83  2  0  0  0  0
 35 68  1  0  0  0  0
 35 74  1  0  0  0  0
 35 84  2  0  0  0  0
 36 69  1  0  0  0  0
 36 80  1  0  0  0  0
 36 85  2  0  0  0  0
 37 75  1  0  0  0  0
 37 76  1  0  0  0  0
 37 86  2  0  0  0  0
 38 41  1  0  0  0  0
 39 51  1  0  0  0  0
 40 74  1  0  0  0  0
 41 43  1  0  0  0  0
 42 46  1  0  0  0  0
 42 47  1  0  0  0  0
 43 50  1  0  0  0  0
 44 45  1  0  0  0  0
 44 52  1  0  0  0  0
 45 52  1  0  0  0  0
 46 55  1  0  0  0  0
 47 75  1  0  0  0  0
 48 53  1  0  0  0  0
 48 76  1  0  0  0  0
 49 55  1  0  0  0  0
 49 75  1  0  0  0  0
 50 79  1  0  0  0  0
 51 74  1  0  0  0  0
 52 56  1  0  0  0  0
 53 54  1  0  0  0  0
 53 57  1  0  0  0  0
 54 56  1  0  0  0  0
 54 66  1  0  0  0  0
 55 73  1  0  0  0  0
 56 76  1  0  0  0  0
 58 67  1  0  0  0  0
 59 69  1  0  0  0  0
 60 70  1  0  0  0  0
 61 70  1  0  0  0  0
 62 70  1  0  0  0  0
 63 81  1  0  0  0  0
 64 67  1  0  0  0  0
 65 88  1  0  0  0  0
 68 70  1  0  0  0  0
 68 80  1  0  0  0  0
 69 81  1  0  0  0  0
 72 73  1  0  0  0  0
M  CHG  1  81   1
M  ISO  4  37 100  65 101  76 100  88 101
M  END
> <Batch ID>
0143

> <Smiles>
CCCc1cc([101CH2:1][101O:1]c2ccc3c(c2)CN(C(=O)C(NC(=O)C(C)NC)C(C)(C)C)C(C(=O)NC2CCCc4ccccc42)C3)cnc1CC1C(C)C[100N:0]([100C:0](=O)N2CCCC(n3nc(-c4ccc(Oc5ccc(F)cc5F)cc4)c(C(N)=O)c3N)C2)C1C1CC1

> <Shape>
0.338

> <Color>
0.113

> <Negative vol penalty>
0.000

$$$$

  -OEChem-04052321213D

 85 94  0     1  0  0  0  0  0999 V2000
  -16.9467  -29.8598   24.6253 C   0  0  0  0  0  0  0  0  0  0  0  0
  -17.3625  -28.6236   24.1411 C   0  0  0  0  0  0  0  0  0  0  0  0
  -22.6973  -12.6398   21.5229 C   0  0  0  0  0  0  0  0  0  0  0  0
  -22.2108  -14.9726   21.9212 C   0  0  0  0  0  0  0  0  0  0  0  0
  -17.5154  -31.0303   24.1247 C   0  0  0  0  0  0  0  0  0  0  0  0
  -18.3463  -28.5572   23.1552 C   0  0  0  0  0  0  0  0  0  0  0  0
  -22.6524  -24.2468   22.5357 C   0  0  0  0  0  0  0  0  0  0  0  0
  -21.8494  -12.2839   22.5716 C   0  0  0  0  0  0  0  0  0  0  0  0
  -21.3628  -14.6166   22.9699 C   0  0  0  0  0  0  0  0  0  0  0  0
  -22.7376  -23.1157   21.7251 C   0  0  0  0  0  0  0  0  0  0  0  0
  -21.9667  -12.1942   25.9484 C   0  0  0  0  0  0  0  0  0  0  0  0
  -22.4205  -11.2309   26.8493 C   0  0  0  0  0  0  0  0  0  0  0  0
  -28.2822  -22.2082   20.7451 C   0  0  0  0  0  0  0  0  0  0  0  0
  -24.0220  -24.3728   20.1161 C   0  0  0  0  0  0  0  0  0  0  0  0
  -20.5473   -9.8155   26.2794 C   0  0  0  0  0  0  0  0  0  0  0  0
  -29.6109  -22.5755   20.6055 C   0  0  0  0  0  0  0  0  0  0  0  0
  -22.8781  -13.9842   21.1977 C   0  0  0  0  0  0  0  0  0  0  0  0
  -23.4099  -14.5124   18.7593 C   0  0  0  0  0  0  0  0  0  0  0  0
  -18.5136  -30.9778   23.1391 C   0  0  0  0  0  0  0  0  0  0  0  0
  -23.2432  -25.4545   22.1368 C   0  0  0  0  0  0  0  0  0  0  0  0
  -18.9279  -29.7282   22.6400 C   0  0  0  0  0  0  0  0  0  0  0  0
  -23.9452  -25.5171   20.9246 C   0  0  0  0  0  0  0  0  0  0  0  0
  -27.9670  -20.8573   20.6500 C   0  0  0  0  0  0  0  0  0  0  0  0
  -28.9759  -19.9281   20.4215 C   0  0  0  0  0  0  0  0  0  0  0  0
  -21.1821  -13.2722   23.2951 C   0  0  0  0  0  0  0  0  0  0  0  0
  -23.4200  -23.1793   20.5138 C   0  0  0  0  0  0  0  0  0  0  0  0
  -20.8031  -11.9682   25.2130 C   0  0  0  0  0  0  0  0  0  0  0  0
  -21.7108  -10.0416   27.0148 C   0  0  0  0  0  0  0  0  0  0  0  0
  -20.0935  -10.7789   25.3785 C   0  0  0  0  0  0  0  0  0  0  0  0
  -23.7544  -14.3526   20.1149 C   0  0  0  0  0  0  0  0  0  0  0  0
  -30.2735  -20.3976   20.2962 C   0  0  0  0  0  0  0  0  0  0  0  0
  -24.5870  -14.8637   18.1450 C   0  0  0  0  0  0  0  0  0  0  0  0
  -22.1394  -14.3573   18.1132 C   0  0  0  0  0  0  0  0  0  0  0  0
  -22.1627  -28.3707   21.4797 C   0  0  0  0  0  0  0  0  0  0  0  0
  -25.3228  -29.0692   21.2613 C   0  0  0  0  0  0  0  0  0  0  0  0
  -28.5039  -27.9608   20.7144 C   0  0  0  0  0  0  0  0  0  0  0  0
  -29.5799  -17.5043   20.0954 C   0  0  0  0  0  0  0  0  0  0  0  0
  -19.0650  -32.2718   22.5949 C   0  0  0  0  0  0  0  0  0  0  0  0
  -23.1652  -26.6584   23.0350 C   0  0  0  0  0  0  0  0  0  0  0  0
  -24.6142  -26.7841   20.4602 C   0  0  0  0  0  0  0  0  0  0  0  0
  -20.3686  -32.1000   21.8193 C   0  0  0  0  0  0  0  0  0  0  0  0
  -29.3276  -14.3112   18.5404 C   0  0  0  0  0  0  0  0  0  0  0  0
  -20.2599  -30.9316   20.8447 C   0  0  0  0  0  0  0  0  0  0  0  0
  -32.6376  -19.9357   19.3627 C   0  0  0  0  0  0  0  0  0  0  0  0
  -31.6998  -19.0227   18.6367 C   0  0  0  0  0  0  0  0  0  0  0  0
  -27.8374  -13.9767   18.6389 C   0  0  0  0  0  0  0  0  0  0  0  0
  -29.8258  -15.0517   19.7803 C   0  0  0  0  0  0  0  0  0  0  0  0
  -27.5640  -15.9134   20.2394 C   0  0  0  0  0  0  0  0  0  0  0  0
  -20.0102  -29.6141   21.5886 C   0  0  1  0  0  0  0  0  0  0  0  0
  -31.3952  -19.4391   20.0495 C   0  0  0  0  0  0  0  0  0  0  0  0
  -23.3648  -27.9742   22.2892 C   0  0  1  0  0  0  0  0  0  0  0  0
  -27.0015  -15.2245   18.9854 C   0  0  2  0  0  0  0  0  0  0  0  0
  -30.8738  -28.7720   20.5624 C   0  0  0  0  0  0  0  0  0  0  0  0
  -23.7411  -19.6112   18.1704 C   0  0  0  0  0  0  0  0  0  0  0  0
  -24.7500  -30.2164   18.4926 C   0  0  0  0  0  0  0  0  0  0  0  0
  -27.2077  -30.1273   18.0237 C   0  0  0  0  0  0  0  0  0  0  0  0
  -26.3435  -31.5639   19.8709 C   0  0  0  0  0  0  0  0  0  0  0  0
  -29.3538  -26.2605   22.9827 C   0  0  0  0  0  0  0  0  0  0  0  0
  -26.5276  -20.4321   20.7986 C   0  0  0  0  0  0  0  0  0  0  0  0
  -25.8172  -20.1582   19.4657 C   0  0  0  0  0  0  0  0  0  0  0  0
  -23.4972  -20.8067   20.3706 C   0  0  0  0  0  0  0  0  0  1  0  0
  -26.3476  -29.0514   20.1529 C   0  0  1  0  0  0  0  0  0  0  0  0
  -29.7978  -28.1991   21.4717 C   0  0  2  0  0  0  0  0  0  0  0  0
  -24.3229  -19.7833   19.5793 C   0  0  1  0  0  0  0  0  0  0  0  0
  -26.1480  -30.2162   19.1426 C   0  0  0  0  0  0  0  0  0  0  0  0
  -30.6182  -21.7019   20.3827 N   0  0  0  0  0  0  0  0  0  0  0  0
  -25.0491  -14.5832   20.3485 N   0  0  0  0  0  0  0  0  0  0  0  0
  -25.5285  -14.8915   19.1315 N   0  0  0  0  0  0  0  0  0  0  0  0
  -24.5045  -27.9360   21.3706 N   0  0  0  0  0  0  0  0  0  0  0  0
  -28.9888  -16.2241   20.0444 N   0  0  0  0  0  0  0  0  0  0  0  0
  -24.8983  -15.1484   16.8626 N   0  0  0  0  0  0  0  0  0  0  0  0
  -21.0333  -13.9927   18.8930 N   0  0  0  0  0  0  0  0  0  0  0  0
  -28.6806  -18.5459   20.3208 N   0  0  0  0  0  0  0  0  0  0  0  0
  -21.2387  -29.1254   22.1771 N   0  0  0  0  0  0  0  0  0  0  0  0
  -27.6531  -29.0422   20.8040 N   0  0  0  0  0  0  0  0  0  0  0  0
  -30.3024  -26.9217   22.0499 N   0  3  0  0  0  0  0  0  0  0  0  0
  -21.9927  -14.5207   16.8782 O   0  0  0  0  0  0  0  0  0  0  0  0
  -22.0802  -28.0193   20.3086 O   0  0  0  0  0  0  0  0  0  0  0  0
  -25.2559  -30.0493   22.0073 O   0  0  0  0  0  0  0  0  0  0  0  0
  -28.2728  -26.9210   20.1013 O   0  0  0  0  0  0  0  0  0  0  0  0
  -30.7905  -17.6675   19.9228 O   0  0  0  0  0  0  0  0  0  0  0  0
  -20.3543  -12.9252   24.3183 O   0  0  0  0  0  0  0  0  0  0  0  0
  -23.5040  -22.0769   19.7204 O   0  0  0  0  0  0  0  0  0  1  0  0
  -22.1476   -9.1159   27.8789 F   0  0  0  0  0  0  0  0  0  0  0  0
  -18.9756  -10.5556   24.6740 F   0  0  0  0  0  0  0  0  0  0  0  0
  1  2  1  0  0  0  0
  1  5  2  0  0  0  0
  2  6  2  0  0  0  0
  3  8  2  0  0  0  0
  3 17  1  0  0  0  0
  4  9  1  0  0  0  0
  4 17  2  0  0  0  0
  5 19  1  0  0  0  0
  6 21  1  0  0  0  0
  7 10  2  0  0  0  0
  7 20  1  0  0  0  0
  8 25  1  0  0  0  0
  9 25  2  0  0  0  0
 10 26  1  0  0  0  0
 11 12  2  0  0  0  0
 11 27  1  0  0  0  0
 12 28  1  0  0  0  0
 13 16  2  0  0  0  0
 13 23  1  0  0  0  0
 14 22  1  0  0  0  0
 14 26  2  0  0  0  0
 15 28  2  0  0  0  0
 15 29  1  0  0  0  0
 16 66  1  0  0  0  0
 17 30  1  0  0  0  0
 18 30  1  0  0  0  0
 18 32  2  0  0  0  0
 18 33  1  0  0  0  0
 19 21  2  0  0  0  0
 19 38  1  0  0  0  0
 20 22  2  0  0  0  0
 20 39  1  0  0  0  0
 21 49  1  0  0  0  0
 22 40  1  0  0  0  0
 23 24  2  0  0  0  0
 23 59  1  0  0  0  0
 24 31  1  0  0  0  0
 24 73  1  0  0  0  0
 25 82  1  0  0  0  0
 26 83  1  0  0  0  0
 27 29  2  0  0  0  0
 27 82  1  0  0  0  0
 28 84  1  0  0  0  0
 29 85  1  0  0  0  0
 30 67  2  0  0  0  0
 31 50  1  0  0  0  0
 31 66  2  0  0  0  0
 32 68  1  0  0  0  0
 32 71  1  0  0  0  0
 33 72  1  0  0  0  0
 33 77  2  0  0  0  0
 34 51  1  0  0  0  0
 34 74  1  0  0  0  0
 34 78  2  0  0  0  0
 35 62  1  0  0  0  0
 35 69  1  0  0  0  0
 35 79  2  0  0  0  0
 36 63  1  0  0  0  0
 36 75  1  0  0  0  0
 36 80  2  0  0  0  0
 37 70  1  0  0  0  0
 37 73  1  0  0  0  0
 37 81  2  0  0  0  0
 38 41  1  0  0  0  0
 39 51  1  0  0  0  0
 40 69  1  0  0  0  0
 41 43  1  0  0  0  0
 42 46  1  0  0  0  0
 42 47  1  0  0  0  0
 43 49  1  0  0  0  0
 44 45  1  0  0  0  0
 44 50  1  0  0  0  0
 45 50  1  0  0  0  0
 46 52  1  0  0  0  0
 47 70  1  0  0  0  0
 48 52  1  0  0  0  0
 48 70  1  0  0  0  0
 49 74  1  0  0  0  0
 51 69  1  0  0  0  0
 52 68  1  0  0  0  0
 53 63  1  0  0  0  0
 54 64  1  0  0  0  0
 55 65  1  0  0  0  0
 56 65  1  0  0  0  0
 57 65  1  0  0  0  0
 58 76  1  0  0  0  0
 59 60  1  0  0  0  0
 60 64  1  0  0  0  0
 61 64  1  0  0  0  0
 61 83  1  0  0  0  0
 62 65  1  0  0  0  0
 62 75  1  0  0  0  0
 63 76  1  0  0  0  0
 67 68  1  0  0  0  0
M  CHG  1  76   1
M  ISO  4  37 100  61 101  73 100  83 101
M  END
> <Batch ID>
0143

> <Smiles>
CNC(C)C(=O)NC(C(=O)N1Cc2cc([101O:1][101CH2:1]C(C)CCc3ccnc(C4CC4)c3[100NH:0][100C:0](=O)N3CCCC(n4nc(-c5ccc(Oc6ccc(F)cc6F)cc5)c(C(N)=O)c4N)C3)ccc2CC1C(=O)NC1CCCc2ccccc21)C(C)(C)C

> <Shape>
0.207

> <Color>
0.080

> <Negative vol penalty>
0.000

$$$$

  -OEChem-04052321213D

 84 93  0     1  0  0  0  0  0999 V2000
  -16.7399  -30.1654   23.3000 C   0  0  0  0  0  0  0  0  0  0  0  0
  -17.8840  -30.7856   22.8084 C   0  0  0  0  0  0  0  0  0  0  0  0
  -26.6157  -17.6770   20.1874 C   0  0  0  0  0  0  0  0  0  0  0  0
  -28.9581  -17.3756   20.6970 C   0  0  0  0  0  0  0  0  0  0  0  0
  -16.8329  -28.9133   23.9063 C   0  0  0  0  0  0  0  0  0  0  0  0
  -19.1221  -30.1546   22.9239 C   0  0  0  0  0  0  0  0  0  0  0  0
  -25.3801  -29.4710   19.5053 C   0  0  0  0  0  0  0  0  0  0  0  0
  -34.3681  -27.2844   17.8909 C   0  0  0  0  0  0  0  0  0  0  0  0
  -26.3267  -16.4541   20.7928 C   0  0  0  0  0  0  0  0  0  0  0  0
  -28.6690  -16.1527   21.3024 C   0  0  0  0  0  0  0  0  0  0  0  0
  -26.7502  -29.5952   19.7315 C   0  0  0  0  0  0  0  0  0  0  0  0
  -33.2521  -27.7096   18.6138 C   0  0  0  0  0  0  0  0  0  0  0  0
  -26.5367  -13.1740   20.0048 C   0  0  0  0  0  0  0  0  0  0  0  0
  -25.6706  -12.3092   19.3358 C   0  0  0  0  0  0  0  0  0  0  0  0
  -26.7788  -27.3979   20.7267 C   0  0  0  0  0  0  0  0  0  0  0  0
  -31.8110  -26.2054   17.3572 C   0  0  0  0  0  0  0  0  0  0  0  0
  -24.1530  -12.3757   21.2145 C   0  0  0  0  0  0  0  0  0  0  0  0
  -27.9315  -18.1378   20.1395 C   0  0  0  0  0  0  0  0  0  0  0  0
  -28.2605  -20.6675   20.1272 C   0  0  0  0  0  0  0  0  0  0  0  0
  -18.0714  -28.2623   24.0205 C   0  0  0  0  0  0  0  0  0  0  0  0
  -24.6959  -28.3119   19.8986 C   0  0  0  0  0  0  0  0  0  0  0  0
  -34.1909  -26.3139   16.9184 C   0  0  0  0  0  0  0  0  0  0  0  0
  -19.2320  -28.8932   23.5334 C   0  0  0  0  0  0  0  0  0  0  0  0
  -25.4005  -27.2605   20.5020 C   0  0  0  0  0  0  0  0  0  0  0  0
  -32.9256  -25.7748   16.6540 C   0  0  0  0  0  0  0  0  0  0  0  0
  -27.3533  -15.6919   21.3503 C   0  0  0  0  0  0  0  0  0  0  0  0
  -27.4492  -28.5597   20.3450 C   0  0  0  0  0  0  0  0  0  0  0  0
  -31.9823  -27.1746   18.3482 C   0  0  0  0  0  0  0  0  0  0  0  0
  -26.2110  -13.6395   21.2787 C   0  0  0  0  0  0  0  0  0  0  0  0
  -24.4787  -11.9101   19.9406 C   0  0  0  0  0  0  0  0  0  0  0  0
  -25.0191  -13.2404   21.8835 C   0  0  0  0  0  0  0  0  0  0  0  0
  -28.2308  -19.4007   19.5138 C   0  0  0  0  0  0  0  0  0  0  0  0
  -28.5932  -21.5322   19.1133 C   0  0  0  0  0  0  0  0  0  0  0  0
  -28.0099  -21.0300   21.4916 C   0  0  0  0  0  0  0  0  0  0  0  0
  -22.3317  -27.6822   21.9279 C   0  0  0  0  0  0  0  0  0  0  0  0
  -22.5596  -24.7046   20.6613 C   0  0  0  0  0  0  0  0  0  0  0  0
  -24.4718  -22.3770   19.0573 C   0  0  0  0  0  0  0  0  0  0  0  0
  -31.6971  -22.8562   14.6683 C   0  0  0  0  0  0  0  0  0  0  0  0
  -18.1291  -26.9306   24.7261 C   0  0  0  0  0  0  0  0  0  0  0  0
  -23.2228  -28.1825   19.6232 C   0  0  0  0  0  0  0  0  0  0  0  0
  -35.2246  -25.7406   15.9998 C   0  0  0  0  0  0  0  0  0  0  0  0
  -24.7163  -25.9870   20.9247 C   0  0  0  0  0  0  0  0  0  0  0  0
  -19.4241  -26.1629   24.4733 C   0  0  0  0  0  0  0  0  0  0  0  0
  -28.8407  -20.8044   14.1138 C   0  0  0  0  0  0  0  0  0  0  0  0
  -20.6302  -27.0827   24.6348 C   0  0  0  0  0  0  0  0  0  0  0  0
  -28.4341  -20.3561   15.5187 C   0  0  0  0  0  0  0  0  0  0  0  0
  -30.3581  -20.8936   13.9670 C   0  0  0  0  0  0  0  0  0  0  0  0
  -30.6239  -21.2778   16.3868 C   0  0  0  0  0  0  0  0  0  0  0  0
  -20.5894  -28.2296   23.6177 C   0  0  1  0  0  0  0  0  0  0  0  0
  -32.9980  -24.7881   15.5254 C   0  0  1  0  0  0  0  0  0  0  0  0
  -22.5322  -27.1686   20.5301 C   0  0  1  0  0  0  0  0  0  0  0  0
  -34.5120  -24.4657   15.4978 C   0  0  1  0  0  0  0  0  0  0  0  0
  -29.1014  -21.2268   16.6002 C   0  0  2  0  0  0  0  0  0  0  0  0
  -35.0006  -24.0322   14.1231 C   0  0  0  0  0  0  0  0  0  0  0  0
  -24.3956  -20.0230   18.1912 C   0  0  0  0  0  0  0  0  0  0  0  0
  -22.8399  -23.6498   23.5107 C   0  0  0  0  0  0  0  0  0  0  0  0
  -23.6961  -21.4995   22.5561 C   0  0  0  0  0  0  0  0  0  0  0  0
  -21.3821  -22.2644   22.0241 C   0  0  0  0  0  0  0  0  0  0  0  0
  -24.9655  -23.2609   16.2763 C   0  0  0  0  0  0  0  0  0  0  0  0
  -29.5292  -29.4791   19.6490 C   0  0  0  0  0  0  0  0  0  1  0  0
  -30.9440  -28.9414   19.5551 C   0  0  0  0  0  0  0  0  0  0  0  0
  -23.3526  -23.4620   20.9872 C   0  0  1  0  0  0  0  0  0  0  0  0
  -24.1857  -21.4918   17.8577 C   0  0  2  0  0  0  0  0  0  0  0  0
  -22.8305  -22.7436   22.2635 C   0  0  0  0  0  0  0  0  0  0  0  0
  -28.5213  -19.4517   18.2111 N   0  0  0  0  0  0  0  0  0  0  0  0
  -28.7366  -20.7610   17.9976 N   0  0  0  0  0  0  0  0  0  0  0  0
  -23.2740  -25.9109   20.6397 N   0  0  0  0  0  0  0  0  0  0  0  0
  -30.9287  -21.7348   15.0219 N   0  0  0  0  0  0  0  0  0  0  0  0
  -28.7741  -22.8695   19.0762 N   0  0  0  0  0  0  0  0  0  0  0  0
  -27.6806  -20.0170   22.4024 N   0  0  0  0  0  0  0  0  0  0  0  0
  -21.0071  -27.7632   22.3130 N   0  0  0  0  0  0  0  0  0  0  0  0
  -23.3295  -22.6360   19.7849 N   0  0  0  0  0  0  0  0  0  0  0  0
  -32.1952  -23.6028   15.7290 N   0  0  0  0  0  0  0  0  0  0  0  0
  -25.0845  -21.8494   16.7240 N   0  3  0  0  0  0  0  0  0  0  0  0
  -28.0599  -22.2192   21.8876 O   0  0  0  0  0  0  0  0  0  0  0  0
  -23.3067  -27.9814   22.6073 O   0  0  0  0  0  0  0  0  0  0  0  0
  -21.3524  -24.6075   20.4274 O   0  0  0  0  0  0  0  0  0  0  0  0
  -25.5967  -22.7938   19.3244 O   0  0  0  0  0  0  0  0  0  0  0  0
  -31.9181  -23.1720   13.4942 O   0  0  0  0  0  0  0  0  0  0  0  0
  -27.0715  -14.4987   21.9413 O   0  0  0  0  0  0  0  0  0  0  0  0
  -28.7864  -28.6786   20.5676 O   0  0  0  0  0  0  0  0  0  1  0  0
  -30.9016  -27.6038   19.0729 O   0  0  0  0  0  0  0  0  0  0  0  0
  -23.6464  -11.0808   19.2973 F   0  0  0  0  0  0  0  0  0  0  0  0
  -24.7003  -13.6853   23.1067 F   0  0  0  0  0  0  0  0  0  0  0  0
  1  2  1  0  0  0  0
  1  5  2  0  0  0  0
  2  6  2  0  0  0  0
  3  9  2  0  0  0  0
  3 18  1  0  0  0  0
  4 10  1  0  0  0  0
  4 18  2  0  0  0  0
  5 20  1  0  0  0  0
  6 23  1  0  0  0  0
  7 11  2  0  0  0  0
  7 21  1  0  0  0  0
  8 12  2  0  0  0  0
  8 22  1  0  0  0  0
  9 26  1  0  0  0  0
 10 26  2  0  0  0  0
 11 27  1  0  0  0  0
 12 28  1  0  0  0  0
 13 14  2  0  0  0  0
 13 29  1  0  0  0  0
 14 30  1  0  0  0  0
 15 24  1  0  0  0  0
 15 27  2  0  0  0  0
 16 25  1  0  0  0  0
 16 28  2  0  0  0  0
 17 30  2  0  0  0  0
 17 31  1  0  0  0  0
 18 32  1  0  0  0  0
 19 32  1  0  0  0  0
 19 33  2  0  0  0  0
 19 34  1  0  0  0  0
 20 23  2  0  0  0  0
 20 39  1  0  0  0  0
 21 24  2  0  0  0  0
 21 40  1  0  0  0  0
 22 25  2  0  0  0  0
 22 41  1  0  0  0  0
 23 49  1  0  0  0  0
 24 42  1  0  0  0  0
 25 50  1  0  0  0  0
 26 80  1  0  0  0  0
 27 81  1  0  0  0  0
 28 82  1  0  0  0  0
 29 31  2  0  0  0  0
 29 80  1  0  0  0  0
 30 83  1  0  0  0  0
 31 84  1  0  0  0  0
 32 65  2  0  0  0  0
 33 66  1  0  0  0  0
 33 69  1  0  0  0  0
 34 70  1  0  0  0  0
 34 75  2  0  0  0  0
 35 51  1  0  0  0  0
 35 71  1  0  0  0  0
 35 76  2  0  0  0  0
 36 62  1  0  0  0  0
 36 67  1  0  0  0  0
 36 77  2  0  0  0  0
 37 63  1  0  0  0  0
 37 72  1  0  0  0  0
 37 78  2  0  0  0  0
 38 68  1  0  0  0  0
 38 73  1  0  0  0  0
 38 79  2  0  0  0  0
 39 43  1  0  0  0  0
 40 51  1  0  0  0  0
 41 52  1  0  0  0  0
 42 67  1  0  0  0  0
 43 45  1  0  0  0  0
 44 46  1  0  0  0  0
 44 47  1  0  0  0  0
 45 49  1  0  0  0  0
 46 53  1  0  0  0  0
 47 68  1  0  0  0  0
 48 53  1  0  0  0  0
 48 68  1  0  0  0  0
 49 71  1  0  0  0  0
 50 52  1  0  0  0  0
 50 73  1  0  0  0  0
 51 67  1  0  0  0  0
 52 54  1  0  0  0  0
 53 66  1  0  0  0  0
 55 63  1  0  0  0  0
 56 64  1  0  0  0  0
 57 64  1  0  0  0  0
 58 64  1  0  0  0  0
 59 74  1  0  0  0  0
 60 61  1  0  0  0  0
 60 81  1  0  0  0  0
 61 82  1  0  0  0  0
 62 64  1  0  0  0  0
 62 72  1  0  0  0  0
 63 74  1  0  0  0  0
 65 66  1  0  0  0  0
M  CHG  1  74   1
M  ISO  4  38 100  60 101  73 100  81 101
M  END
> <Batch ID>
0143

> <Smiles>
CNC(C)C(=O)NC(C(=O)N1Cc2cc([101O:1][101CH2:1]COc3ccc4c(c3)C([100NH:0][100C:0](=O)N3CCCC(n5nc(-c6ccc(Oc7ccc(F)cc7F)cc6)c(C(N)=O)c5N)C3)C(C)C4)ccc2CC1C(=O)NC1CCCc2ccccc21)C(C)(C)C

> <Shape>
0.191

> <Color>
0.083

> <Negative vol penalty>
0.000

$$$$

  -OEChem-04052321213D

 88 97  0     1  0  0  0  0  0999 V2000
  -24.2225  -36.3552   23.9258 C   0  0  0  0  0  0  0  0  0  0  0  0
  -25.0672  -35.2694   24.1329 C   0  0  0  0  0  0  0  0  0  0  0  0
  -24.9652   -8.6033   21.7039 C   0  0  0  0  0  0  0  0  0  0  0  0
  -23.4442  -10.4089   21.1912 C   0  0  0  0  0  0  0  0  0  0  0  0
  -22.8502  -36.1526   23.7858 C   0  0  0  0  0  0  0  0  0  0  0  0
  -24.5399  -33.9803   24.2013 C   0  0  0  0  0  0  0  0  0  0  0  0
  -26.6953  -28.8447   19.6329 C   0  0  0  0  0  0  0  0  0  0  0  0
  -23.8982   -7.7050   21.7061 C   0  0  0  0  0  0  0  0  0  0  0  0
  -22.3771   -9.5106   21.1934 C   0  0  0  0  0  0  0  0  0  0  0  0
  -27.2094  -27.7533   18.9323 C   0  0  0  0  0  0  0  0  0  0  0  0
  -21.4082   -6.8010   23.8054 C   0  0  0  0  0  0  0  0  0  0  0  0
  -21.3441   -5.8745   24.8462 C   0  0  0  0  0  0  0  0  0  0  0  0
  -25.5838  -26.3015   19.9801 C   0  0  0  0  0  0  0  0  0  0  0  0
  -30.0195  -20.7558   21.4188 C   0  0  0  0  0  0  0  0  0  0  0  0
  -21.4604   -4.0685   23.2456 C   0  0  0  0  0  0  0  0  0  0  0  0
  -24.7382   -9.9553   21.4465 C   0  0  0  0  0  0  0  0  0  0  0  0
  -26.7114  -11.1711   22.5123 C   0  0  0  0  0  0  0  0  0  0  0  0
  -22.3069  -34.8594   23.8429 C   0  0  0  0  0  0  0  0  0  0  0  0
  -25.6124  -28.6712   20.4991 C   0  0  0  0  0  0  0  0  0  0  0  0
  -23.1589  -33.7604   24.0633 C   0  0  0  0  0  0  0  0  0  0  0  0
  -25.0567  -27.3933   20.6751 C   0  0  0  0  0  0  0  0  0  0  0  0
  -30.5900  -19.6068   21.9548 C   0  0  0  0  0  0  0  0  0  0  0  0
  -30.0537  -18.3617   21.6455 C   0  0  0  0  0  0  0  0  0  0  0  0
  -22.6041   -8.1586   21.4508 C   0  0  0  0  0  0  0  0  0  0  0  0
  -26.6551  -26.4848   19.1057 C   0  0  0  0  0  0  0  0  0  0  0  0
  -21.4983   -6.3612   22.4847 C   0  0  0  0  0  0  0  0  0  0  0  0
  -21.3702   -4.5083   24.5663 C   0  0  0  0  0  0  0  0  0  0  0  0
  -21.5245   -4.9950   22.2048 C   0  0  0  0  0  0  0  0  0  0  0  0
  -25.8400  -10.8838   21.4447 C   0  0  0  0  0  0  0  0  0  0  0  0
  -28.9226  -20.6072   20.5853 C   0  0  0  0  0  0  0  0  0  0  0  0
  -28.9552  -18.3203   20.8021 C   0  0  0  0  0  0  0  0  0  0  0  0
  -27.5762  -12.1106   22.0065 C   0  0  0  0  0  0  0  0  0  0  0  0
  -26.7369  -10.6365   23.8425 C   0  0  0  0  0  0  0  0  0  0  0  0
  -23.1904  -30.2586   22.8845 C   0  0  0  0  0  0  0  0  0  0  0  0
  -21.6041  -28.2213   21.2281 C   0  0  0  0  0  0  0  0  0  0  0  0
  -20.1423  -26.1882   18.9115 C   0  0  0  0  0  0  0  0  0  0  0  0
  -28.3908  -16.8091   19.0972 C   0  0  0  0  0  0  0  0  0  0  0  0
  -20.8117  -34.6947   23.7333 C   0  0  0  0  0  0  0  0  0  0  0  0
  -25.0658  -29.8070   21.3207 C   0  0  0  0  0  0  0  0  0  0  0  0
  -23.9149  -27.2477   21.6436 C   0  0  0  0  0  0  0  0  0  0  0  0
  -20.3765  -33.2604   23.4440 C   0  0  0  0  0  0  0  0  0  0  0  0
  -28.3224  -13.7065   17.2731 C   0  0  0  0  0  0  0  0  0  0  0  0
  -21.1137  -32.2847   24.3558 C   0  0  0  0  0  0  0  0  0  0  0  0
  -27.7062  -12.7287   18.2733 C   0  0  0  0  0  0  0  0  0  0  0  0
  -27.6640  -23.1037   18.0991 C   0  0  0  0  0  0  0  0  0  0  0  0
  -27.8290  -24.1616   20.3576 C   0  0  0  0  0  0  0  0  0  0  0  0
  -27.7291  -15.1041   17.4194 C   0  0  0  0  0  0  0  0  0  0  0  0
  -27.7024  -21.7199   18.7416 C   0  0  0  0  0  0  0  0  0  0  0  0
  -27.8626  -22.7796   21.0027 C   0  0  0  0  0  0  0  0  0  0  0  0
  -27.2156  -14.6838   19.8095 C   0  0  0  0  0  0  0  0  0  0  0  0
  -22.6276  -32.3445   24.1187 C   0  0  1  0  0  0  0  0  0  0  0  0
  -23.5428  -29.7240   21.5275 C   0  0  1  0  0  0  0  0  0  0  0  0
  -27.8114  -13.2689   19.7107 C   0  0  1  0  0  0  0  0  0  0  0  0
  -27.0697  -24.1477   19.0359 C   0  0  0  0  0  0  0  0  0  1  0  0
  -31.9271  -16.7026   21.4892 C   0  0  0  0  0  0  0  0  0  0  0  0
  -31.4513  -20.5261   24.1381 C   0  0  0  0  0  0  0  0  0  0  0  0
  -32.9880  -20.3595   22.1467 C   0  0  0  0  0  0  0  0  0  0  0  0
  -17.9155  -25.2405   18.2476 C   0  0  0  0  0  0  0  0  0  0  0  0
  -21.7560  -26.2481   23.5492 C   0  0  0  0  0  0  0  0  0  0  0  0
  -20.1232  -24.7952   22.3281 C   0  0  0  0  0  0  0  0  0  0  0  0
  -19.4558  -27.0898   23.0439 C   0  0  0  0  0  0  0  0  0  0  0  0
  -20.2501  -27.4895   16.2556 C   0  0  0  0  0  0  0  0  0  0  0  0
  -30.6412  -17.1096   22.2040 C   0  0  0  0  0  0  0  0  0  0  0  0
  -31.7727  -19.7349   22.8567 C   0  0  0  0  0  0  0  0  0  0  0  0
  -21.0765  -26.8128   21.1232 C   0  0  1  0  0  0  0  0  0  0  0  0
  -18.9106  -26.3723   18.0435 C   0  0  2  0  0  0  0  0  0  0  0  0
  -20.6274  -26.2441   22.4989 C   0  0  0  0  0  0  0  0  0  0  0  0
  -26.1251  -11.5842   20.3437 N   0  0  0  0  0  0  0  0  0  0  0  0
  -28.3738  -19.4148   20.2620 N   0  0  0  0  0  0  0  0  0  0  0  0
  -27.1852  -12.3210   20.7169 N   0  0  0  0  0  0  0  0  0  0  0  0
  -28.3586  -21.7736   20.0529 N   0  0  0  0  0  0  0  0  0  0  0  0
  -22.9733  -28.3666   21.4821 N   0  0  0  0  0  0  0  0  0  0  0  0
  -27.8126  -15.5700   18.8030 N   0  0  0  0  0  0  0  0  0  0  0  0
  -28.6252  -12.7691   22.5434 N   0  0  0  0  0  0  0  0  0  0  0  0
  -25.9930  -11.2850   24.8376 N   0  0  0  0  0  0  0  0  0  0  0  0
  -22.9793  -31.6239   22.9139 N   0  0  0  0  0  0  0  0  0  0  0  0
  -20.0206  -26.8463   20.1170 N   0  0  0  0  0  0  0  0  0  0  0  0
  -19.2925  -26.4082   16.6034 N   0  3  0  0  0  0  0  0  0  0  0  0
  -27.4128   -9.6235   24.1433 O   0  0  0  0  0  0  0  0  0  0  0  0
  -23.1136  -29.4897   23.8356 O   0  0  0  0  0  0  0  0  0  0  0  0
  -20.8246  -29.1689   21.0947 O   0  0  0  0  0  0  0  0  0  0  0  0
  -21.1137  -25.5237   18.5572 O   0  0  0  0  0  0  0  0  0  0  0  0
  -28.8555  -17.5739   18.2527 O   0  0  0  0  0  0  0  0  0  0  0  0
  -21.5627   -7.2823   21.4527 O   0  0  0  0  0  0  0  0  0  0  0  0
  -27.1589  -25.4245   18.4153 O   0  0  0  0  0  0  0  0  0  1  0  0
  -28.3848  -17.0882   20.4667 O   0  0  0  0  0  0  0  0  0  0  0  0
  -21.3103   -3.6187   25.5659 F   0  0  0  0  0  0  0  0  0  0  0  0
  -21.6122   -4.5665   20.9381 F   0  0  0  0  0  0  0  0  0  0  0  0
  1  2  1  0  0  0  0
  1  5  2  0  0  0  0
  2  6  2  0  0  0  0
  3  8  2  0  0  0  0
  3 16  1  0  0  0  0
  4  9  1  0  0  0  0
  4 16  2  0  0  0  0
  5 18  1  0  0  0  0
  6 20  1  0  0  0  0
  7 10  2  0  0  0  0
  7 19  1  0  0  0  0
  8 24  1  0  0  0  0
  9 24  2  0  0  0  0
 10 25  1  0  0  0  0
 11 12  2  0  0  0  0
 11 26  1  0  0  0  0
 12 27  1  0  0  0  0
 13 21  1  0  0  0  0
 13 25  2  0  0  0  0
 14 22  2  0  0  0  0
 14 30  1  0  0  0  0
 15 27  2  0  0  0  0
 15 28  1  0  0  0  0
 16 29  1  0  0  0  0
 17 29  1  0  0  0  0
 17 32  2  0  0  0  0
 17 33  1  0  0  0  0
 18 20  2  0  0  0  0
 18 38  1  0  0  0  0
 19 21  2  0  0  0  0
 19 39  1  0  0  0  0
 20 51  1  0  0  0  0
 21 40  1  0  0  0  0
 22 23  1  0  0  0  0
 22 64  1  0  0  0  0
 23 31  2  0  0  0  0
 23 63  1  0  0  0  0
 24 84  1  0  0  0  0
 25 85  1  0  0  0  0
 26 28  2  0  0  0  0
 26 84  1  0  0  0  0
 27 87  1  0  0  0  0
 28 88  1  0  0  0  0
 29 68  2  0  0  0  0
 30 69  2  0  0  0  0
 30 71  1  0  0  0  0
 31 69  1  0  0  0  0
 31 86  1  0  0  0  0
 32 70  1  0  0  0  0
 32 74  1  0  0  0  0
 33 75  1  0  0  0  0
 33 79  2  0  0  0  0
 34 52  1  0  0  0  0
 34 76  1  0  0  0  0
 34 80  2  0  0  0  0
 35 65  1  0  0  0  0
 35 72  1  0  0  0  0
 35 81  2  0  0  0  0
 36 66  1  0  0  0  0
 36 77  1  0  0  0  0
 36 82  2  0  0  0  0
 37 73  1  0  0  0  0
 37 83  2  0  0  0  0
 37 86  1  0  0  0  0
 38 41  1  0  0  0  0
 39 52  1  0  0  0  0
 40 72  1  0  0  0  0
 41 43  1  0  0  0  0
 42 44  1  0  0  0  0
 42 47  1  0  0  0  0
 43 51  1  0  0  0  0
 44 53  1  0  0  0  0
 45 48  1  0  0  0  0
 45 54  1  0  0  0  0
 46 49  1  0  0  0  0
 46 54  1  0  0  0  0
 47 73  1  0  0  0  0
 48 71  1  0  0  0  0
 49 71  1  0  0  0  0
 50 53  1  0  0  0  0
 50 73  1  0  0  0  0
 51 76  1  0  0  0  0
 52 72  1  0  0  0  0
 53 70  1  0  0  0  0
 54 85  1  0  0  0  0
 55 63  1  0  0  0  0
 56 64  1  0  0  0  0
 57 64  1  0  0  0  0
 58 66  1  0  0  0  0
 59 67  1  0  0  0  0
 60 67  1  0  0  0  0
 61 67  1  0  0  0  0
 62 78  1  0  0  0  0
 65 67  1  0  0  0  0
 65 77  1  0  0  0  0
 66 78  1  0  0  0  0
 68 70  1  0  0  0  0
M  CHG  1  78   1
M  ISO  4  37 100  54 101  85 101  86 100
M  END
> <Batch ID>
0143

> <Smiles>
CCc1c(C(C)C)cc(N2CC[101CH:1]([101O:1]c3ccc4c(c3)CN(C(=O)C(NC(=O)C(C)NC)C(C)(C)C)C(C(=O)NC3CCCc5ccccc53)C4)CC2)nc1[100O:0][100C:0](=O)N1CCCC(n2nc(-c3ccc(Oc4ccc(F)cc4F)cc3)c(C(N)=O)c2N)C1

> <Shape>
0.317

> <Color>
0.088

> <Negative vol penalty>
0.000

$$$$
