
  -OEChem-04052321263D

 88 97  0     1  0  0  0  0  0999 V2000
  -28.3665  -35.6727   24.1865 C   0  0  0  0  0  0  0  0  0  0  0  0
  -28.6071  -34.3877   23.7108 C   0  0  0  0  0  0  0  0  0  0  0  0
  -22.5526  -10.3073   21.5338 C   0  0  0  0  0  0  0  0  0  0  0  0
  -24.5033   -8.8821   21.5589 C   0  0  0  0  0  0  0  0  0  0  0  0
  -27.1699  -35.9593   24.8423 C   0  0  0  0  0  0  0  0  0  0  0  0
  -27.6517  -33.3882   23.8916 C   0  0  0  0  0  0  0  0  0  0  0  0
  -26.9106  -30.6297   19.7100 C   0  0  0  0  0  0  0  0  0  0  0  0
  -27.4788  -22.1136   17.5363 C   0  0  0  0  0  0  0  0  0  0  0  0
  -21.7321   -9.1828   21.4467 C   0  0  0  0  0  0  0  0  0  0  0  0
  -23.6828   -7.7575   21.4720 C   0  0  0  0  0  0  0  0  0  0  0  0
  -27.8628  -29.6557   19.4127 C   0  0  0  0  0  0  0  0  0  0  0  0
  -27.4484  -23.5079   17.5123 C   0  0  0  0  0  0  0  0  0  0  0  0
  -21.7573   -5.9144   23.5494 C   0  0  0  0  0  0  0  0  0  0  0  0
  -22.0424   -4.8393   24.3911 C   0  0  0  0  0  0  0  0  0  0  0  0
  -26.4132  -27.9645   20.3390 C   0  0  0  0  0  0  0  0  0  0  0  0
  -29.8281  -23.5527   17.0974 C   0  0  0  0  0  0  0  0  0  0  0  0
  -22.3719   -3.4187   22.4648 C   0  0  0  0  0  0  0  0  0  0  0  0
  -23.9383  -10.1570   21.5898 C   0  0  0  0  0  0  0  0  0  0  0  0
  -25.2363  -11.9544   22.8517 C   0  0  0  0  0  0  0  0  0  0  0  0
  -26.1953  -34.9652   25.0227 C   0  0  0  0  0  0  0  0  0  0  0  0
  -25.7052  -30.2793   20.3349 C   0  0  0  0  0  0  0  0  0  0  0  0
  -26.4416  -33.6615   24.5516 C   0  0  0  0  0  0  0  0  0  0  0  0
  -28.6839  -21.4388   17.3409 C   0  0  0  0  0  0  0  0  0  0  0  0
  -25.4463  -28.9356   20.6408 C   0  0  0  0  0  0  0  0  0  0  0  0
  -29.8585  -22.1584   17.1214 C   0  0  0  0  0  0  0  0  0  0  0  0
  -22.2971   -7.9079   21.4159 C   0  0  0  0  0  0  0  0  0  0  0  0
  -27.6154  -28.3232   19.7298 C   0  0  0  0  0  0  0  0  0  0  0  0
  -28.6230  -24.2275   17.2929 C   0  0  0  0  0  0  0  0  0  0  0  0
  -21.7793   -5.7417   22.1654 C   0  0  0  0  0  0  0  0  0  0  0  0
  -22.3498   -3.5915   23.8488 C   0  0  0  0  0  0  0  0  0  0  0  0
  -22.0867   -4.4939   21.6231 C   0  0  0  0  0  0  0  0  0  0  0  0
  -24.7865  -11.3184   21.6791 C   0  0  0  0  0  0  0  0  0  0  0  0
  -26.0064  -12.9990   22.4019 C   0  0  0  0  0  0  0  0  0  0  0  0
  -24.9809  -11.6299   24.2247 C   0  0  0  0  0  0  0  0  0  0  0  0
  -24.3156  -31.0117   23.0983 C   0  0  0  0  0  0  0  0  0  0  0  0
  -21.8400  -29.3248   21.8540 C   0  0  0  0  0  0  0  0  0  0  0  0
  -20.7742  -26.9293   19.6695 C   0  0  0  0  0  0  0  0  0  0  0  0
  -26.8177  -17.2537   19.1506 C   0  0  0  0  0  0  0  0  0  0  0  0
  -24.9373  -35.3109   25.7795 C   0  0  0  0  0  0  0  0  0  0  0  0
  -24.6770  -31.3382   20.6247 C   0  0  0  0  0  0  0  0  0  0  0  0
  -24.1593  -28.5047   21.2937 C   0  0  0  0  0  0  0  0  0  0  0  0
  -23.8179  -34.2886   25.5995 C   0  0  0  0  0  0  0  0  0  0  0  0
  -27.7613  -14.0709   17.7969 C   0  0  0  0  0  0  0  0  0  0  0  0
  -24.3571  -32.8716   25.7669 C   0  0  0  0  0  0  0  0  0  0  0  0
  -27.0764  -13.1161   18.7716 C   0  0  0  0  0  0  0  0  0  0  0  0
  -27.8026  -19.2766   16.3052 C   0  0  0  0  0  0  0  0  0  0  0  0
  -26.9166  -15.3144   17.5121 C   0  0  0  0  0  0  0  0  0  0  0  0
  -27.6599  -17.8534   16.8248 C   0  0  0  0  0  0  0  0  0  0  0  0
  -25.7938  -15.0715   19.7080 C   0  0  0  0  0  0  0  0  0  0  0  0
  -28.6915  -19.9289   17.3712 C   0  0  2  0  0  0  0  0  0  0  0  0
  -25.4192  -32.5566   24.7066 C   0  0  1  0  0  0  0  0  0  0  0  0
  -23.7025  -30.9388   21.7285 C   0  0  1  0  0  0  0  0  0  0  0  0
  -26.6618  -13.8535   20.0553 C   0  0  1  0  0  0  0  0  0  0  0  0
  -28.1681  -19.3044   18.6836 C   0  0  2  0  0  0  0  0  0  0  0  0
  -31.1604  -21.4576   16.9109 C   0  0  0  0  0  0  0  0  0  0  0  0
  -18.6991  -25.7422   18.9062 C   0  0  0  0  0  0  0  0  0  0  0  0
  -30.4231  -18.3124   19.2178 C   0  0  0  0  0  0  0  0  0  0  0  0
  -21.8642  -27.6485   24.4034 C   0  0  0  0  0  0  0  0  0  0  0  0
  -20.4719  -25.9427   23.2119 C   0  0  0  0  0  0  0  0  0  0  0  0
  -19.5835  -28.2461   23.5693 C   0  0  0  0  0  0  0  0  0  0  0  0
  -21.0870  -27.9198   16.8982 C   0  0  0  0  0  0  0  0  0  0  0  0
  -29.3803  -27.6006   18.3089 C   0  0  0  0  0  0  0  0  0  1  0  0
  -29.7722  -26.2703   17.6954 C   0  0  0  0  0  0  0  0  0  0  0  0
  -21.4187  -27.8753   21.8704 C   0  0  1  0  0  0  0  0  0  0  0  0
  -19.6354  -26.9163   18.6658 C   0  0  2  0  0  0  0  0  0  0  0  0
  -29.2737  -19.1656   19.7270 C   0  0  1  0  0  0  0  0  0  0  0  0
  -20.8597  -27.4362   23.2532 C   0  0  0  0  0  0  0  0  0  0  0  0
  -25.2334  -11.9096   20.5680 N   0  0  0  0  0  0  0  0  0  0  0  0
  -25.9720  -12.9281   21.0403 N   0  0  0  0  0  0  0  0  0  0  0  0
  -23.1880  -29.5779   21.5629 N   0  0  0  0  0  0  0  0  0  0  0  0
  -26.4721  -15.9550   18.7556 N   0  0  0  0  0  0  0  0  0  0  0  0
  -27.6177  -18.0008   18.2811 N   0  0  0  0  0  0  0  0  0  0  0  0
  -26.7026  -13.9621   23.0423 N   0  0  0  0  0  0  0  0  0  0  0  0
  -24.1684  -10.5241   24.5100 N   0  0  0  0  0  0  0  0  0  0  0  0
  -24.7928  -32.2641   23.4352 N   0  0  0  0  0  0  0  0  0  0  0  0
  -20.4791  -27.7108   20.7665 N   0  0  0  0  0  0  0  0  0  0  0  0
  -20.1691  -26.8152   17.2780 N   0  3  0  0  0  0  0  0  0  0  0  0
  -25.4457  -12.3104   25.1704 O   0  0  0  0  0  0  0  0  0  0  0  0
  -24.3516  -30.0067   23.7985 O   0  0  0  0  0  0  0  0  0  0  0  0
  -21.0024  -30.2007   22.0838 O   0  0  0  0  0  0  0  0  0  0  0  0
  -21.8193  -26.3054   19.4992 O   0  0  0  0  0  0  0  0  0  0  0  0
  -26.4071  -17.7341   20.2150 O   0  0  0  0  0  0  0  0  0  0  0  0
  -29.7588  -20.4600   20.0639 O   0  0  0  0  0  0  0  0  0  0  0  0
  -21.4967   -6.8102   21.3312 O   0  0  0  0  0  0  0  0  0  0  0  0
  -28.5497  -27.3641   19.4393 O   0  0  0  0  0  0  0  0  0  1  0  0
  -28.5936  -25.5880   17.2699 O   0  0  0  0  0  0  0  0  0  0  0  0
  -22.6252   -2.5595   24.6571 F   0  0  0  0  0  0  0  0  0  0  0  0
  -22.1106   -4.3221   20.2943 F   0  0  0  0  0  0  0  0  0  0  0  0
  1  2  1  0  0  0  0
  1  5  2  0  0  0  0
  2  6  2  0  0  0  0
  3  9  2  0  0  0  0
  3 18  1  0  0  0  0
  4 10  1  0  0  0  0
  4 18  2  0  0  0  0
  5 20  1  0  0  0  0
  6 22  1  0  0  0  0
  7 11  2  0  0  0  0
  7 21  1  0  0  0  0
  8 12  2  0  0  0  0
  8 23  1  0  0  0  0
  9 26  1  0  0  0  0
 10 26  2  0  0  0  0
 11 27  1  0  0  0  0
 12 28  1  0  0  0  0
 13 14  2  0  0  0  0
 13 29  1  0  0  0  0
 14 30  1  0  0  0  0
 15 24  1  0  0  0  0
 15 27  2  0  0  0  0
 16 25  1  0  0  0  0
 16 28  2  0  0  0  0
 17 30  2  0  0  0  0
 17 31  1  0  0  0  0
 18 32  1  0  0  0  0
 19 32  1  0  0  0  0
 19 33  2  0  0  0  0
 19 34  1  0  0  0  0
 20 22  2  0  0  0  0
 20 39  1  0  0  0  0
 21 24  2  0  0  0  0
 21 40  1  0  0  0  0
 22 51  1  0  0  0  0
 23 25  2  0  0  0  0
 23 50  1  0  0  0  0
 24 41  1  0  0  0  0
 25 55  1  0  0  0  0
 26 84  1  0  0  0  0
 27 85  1  0  0  0  0
 28 86  1  0  0  0  0
 29 31  2  0  0  0  0
 29 84  1  0  0  0  0
 30 87  1  0  0  0  0
 31 88  1  0  0  0  0
 32 68  2  0  0  0  0
 33 69  1  0  0  0  0
 33 73  1  0  0  0  0
 34 74  1  0  0  0  0
 34 78  2  0  0  0  0
 35 52  1  0  0  0  0
 35 75  1  0  0  0  0
 35 79  2  0  0  0  0
 36 64  1  0  0  0  0
 36 70  1  0  0  0  0
 36 80  2  0  0  0  0
 37 65  1  0  0  0  0
 37 76  1  0  0  0  0
 37 81  2  0  0  0  0
 38 71  1  0  0  0  0
 38 72  1  0  0  0  0
 38 82  2  0  0  0  0
 39 42  1  0  0  0  0
 40 52  1  0  0  0  0
 41 70  1  0  0  0  0
 42 44  1  0  0  0  0
 43 45  1  0  0  0  0
 43 47  1  0  0  0  0
 44 51  1  0  0  0  0
 45 53  1  0  0  0  0
 46 48  1  0  0  0  0
 46 50  1  0  0  0  0
 47 71  1  0  0  0  0
 48 72  1  0  0  0  0
 49 53  1  0  0  0  0
 49 71  1  0  0  0  0
 50 54  1  0  0  0  0
 51 75  1  0  0  0  0
 52 70  1  0  0  0  0
 53 69  1  0  0  0  0
 54 66  1  0  0  0  0
 54 72  1  0  0  0  0
 56 65  1  0  0  0  0
 57 66  1  0  0  0  0
 58 67  1  0  0  0  0
 59 67  1  0  0  0  0
 60 67  1  0  0  0  0
 61 77  1  0  0  0  0
 62 63  1  0  0  0  0
 62 85  1  0  0  0  0
 63 86  1  0  0  0  0
 64 67  1  0  0  0  0
 64 76  1  0  0  0  0
 65 77  1  0  0  0  0
 66 83  1  0  0  0  0
 68 69  1  0  0  0  0
M  CHG  1  77   1
M  ISO  4  38 100  62 101  72 100  85 101
M  END
> <Batch ID>
0144

> <Smiles>
CNC(C)C(=O)NC(C(=O)N1Cc2cc([101O:1][101CH2:1]COc3ccc(C4CC[100N:0]([100C:0](=O)N5CCCC(n6nc(-c7ccc(Oc8ccc(F)cc8F)cc7)c(C(N)=O)c6N)C5)C4C(C)O)c(C)c3)ccc2CC1C(=O)NC1CCCc2ccccc21)C(C)(C)C

> <Shape>
0.319

> <Color>
0.111

> <Negative vol penalty>
0.000

$$$$

  -OEChem-04052321263D

 90 99  0     1  0  0  0  0  0999 V2000
  -25.4489  -37.0510   17.0707 C   0  0  0  0  0  0  0  0  0  0  0  0
  -26.0051  -35.7799   16.9697 C   0  0  0  0  0  0  0  0  0  0  0  0
  -23.2836  -13.1068   19.6175 C   0  0  0  0  0  0  0  0  0  0  0  0
  -24.5663  -14.2374   21.3244 C   0  0  0  0  0  0  0  0  0  0  0  0
  -25.1552  -37.5845   18.3249 C   0  0  0  0  0  0  0  0  0  0  0  0
  -26.2689  -35.0419   18.1231 C   0  0  0  0  0  0  0  0  0  0  0  0
  -25.8459  -28.9682   18.7845 C   0  0  0  0  0  0  0  0  0  0  0  0
  -24.3632  -12.2600   19.3670 C   0  0  0  0  0  0  0  0  0  0  0  0
  -25.6460  -13.3906   21.0739 C   0  0  0  0  0  0  0  0  0  0  0  0
  -26.7995  -27.9519   18.7466 C   0  0  0  0  0  0  0  0  0  0  0  0
  -28.8653  -11.7614   20.6363 C   0  0  0  0  0  0  0  0  0  0  0  0
  -30.1322  -12.3371   20.5409 C   0  0  0  0  0  0  0  0  0  0  0  0
  -26.6579  -23.8954   19.9285 C   0  0  0  0  0  0  0  0  0  0  0  0
  -26.9590  -28.0201   21.1527 C   0  0  0  0  0  0  0  0  0  0  0  0
  -27.4062  -21.7300   20.6813 C   0  0  0  0  0  0  0  0  0  0  0  0
  -29.3798  -13.6851   18.6824 C   0  0  0  0  0  0  0  0  0  0  0  0
  -23.3851  -14.0956   20.5962 C   0  0  0  0  0  0  0  0  0  0  0  0
  -21.2252  -14.7670   21.7759 C   0  0  0  0  0  0  0  0  0  0  0  0
  -25.4065  -36.8489   19.4937 C   0  0  0  0  0  0  0  0  0  0  0  0
  -25.4490  -29.5266   20.0080 C   0  0  0  0  0  0  0  0  0  0  0  0
  -25.9795  -35.5666   19.3942 C   0  0  0  0  0  0  0  0  0  0  0  0
  -27.9450  -24.1957   19.4526 C   0  0  0  0  0  0  0  0  0  0  0  0
  -25.9983  -29.0417   21.2035 C   0  0  0  0  0  0  0  0  0  0  0  0
  -28.9745  -23.2494   19.6108 C   0  0  0  0  0  0  0  0  0  0  0  0
  -28.6897  -22.0162   20.2179 C   0  0  0  0  0  0  0  0  0  0  0  0
  -26.3907  -22.6699   20.5376 C   0  0  0  0  0  0  0  0  0  0  0  0
  -25.5445  -12.4019   20.0952 C   0  0  0  0  0  0  0  0  0  0  0  0
  -27.3584  -27.4797   19.9306 C   0  0  0  0  0  0  0  0  0  0  0  0
  -27.8557  -12.1475   19.7547 C   0  0  0  0  0  0  0  0  0  0  0  0
  -30.3895  -13.2989   19.5640 C   0  0  0  0  0  0  0  0  0  0  0  0
  -28.1129  -13.1093   18.7778 C   0  0  0  0  0  0  0  0  0  0  0  0
  -22.2703  -14.9710   20.8551 C   0  0  0  0  0  0  0  0  0  0  0  0
  -20.4275  -15.8769   21.6413 C   0  0  0  0  0  0  0  0  0  0  0  0
  -20.9960  -13.6721   22.6728 C   0  0  0  0  0  0  0  0  0  0  0  0
  -25.5935  -32.4261   21.3024 C   0  0  0  0  0  0  0  0  0  0  0  0
  -23.8457  -31.0371   23.6557 C   0  0  0  0  0  0  0  0  0  0  0  0
  -22.9292  -28.1803   25.2824 C   0  0  0  0  0  0  0  0  0  0  0  0
  -21.4935  -21.4605   19.7603 C   0  0  0  0  0  0  0  0  0  0  0  0
  -25.1160  -37.4864   20.8293 C   0  0  0  0  0  0  0  0  0  0  0  0
  -24.3995  -30.6038   20.0337 C   0  0  0  0  0  0  0  0  0  0  0  0
  -30.3672  -23.4954   19.0878 C   0  0  0  0  0  0  0  0  0  0  0  0
  -25.5912  -29.5935   22.5445 C   0  0  0  0  0  0  0  0  0  0  0  0
  -25.0789  -36.4895   21.9849 C   0  0  0  0  0  0  0  0  0  0  0  0
  -30.6451  -24.9594   18.7503 C   0  0  0  0  0  0  0  0  0  0  0  0
  -19.1084  -19.1736   18.4346 C   0  0  0  0  0  0  0  0  0  0  0  0
  -26.2763  -35.5471   21.9155 C   0  0  0  0  0  0  0  0  0  0  0  0
  -19.5540  -17.8188   18.9877 C   0  0  0  0  0  0  0  0  0  0  0  0
  -20.3012  -20.0651   18.0967 C   0  0  0  0  0  0  0  0  0  0  0  0
  -21.7090  -18.9012   19.7511 C   0  0  0  0  0  0  0  0  0  0  0  0
  -26.2572  -34.7253   20.6210 C   0  0  1  0  0  0  0  0  0  0  0  0
  -28.1984  -25.5461   18.8251 C   0  0  2  0  0  0  0  0  0  1  0  0
  -24.4474  -31.4545   21.2992 C   0  0  1  0  0  0  0  0  0  0  0  0
  -29.4869  -25.6126   17.9837 C   0  0  2  0  0  0  0  0  0  0  0  0
  -20.5401  -17.9882   20.1590 C   0  0  2  0  0  0  0  0  0  0  0  0
  -29.4059  -19.6788   19.6037 C   0  0  0  0  0  0  0  0  0  0  0  0
  -30.0084  -20.6301   21.8592 C   0  0  0  0  0  0  0  0  0  0  0  0
  -21.5161  -27.3665   27.1898 C   0  0  0  0  0  0  0  0  0  0  0  0
  -28.1100  -25.6422   15.8845 C   0  0  0  0  0  0  0  0  0  0  0  0
  -30.5638  -25.1232   15.7694 C   0  0  0  0  0  0  0  0  0  0  0  0
  -25.9393  -32.0445   25.6335 C   0  0  0  0  0  0  0  0  0  0  0  0
  -25.0185  -30.4387   27.3192 C   0  0  0  0  0  0  0  0  0  0  0  0
  -23.5743  -32.2617   26.4171 C   0  0  0  0  0  0  0  0  0  0  0  0
  -21.2570  -26.5236   23.4886 C   0  0  0  0  0  0  0  0  0  0  0  0
  -24.0039  -23.3055   20.8909 C   0  0  0  0  0  0  0  0  0  0  0  0
  -22.7383  -22.7205   21.4988 C   0  0  0  0  0  0  0  0  0  0  0  0
  -29.7404  -20.9637   20.3812 C   0  0  0  0  0  0  0  0  0  0  0  0
  -24.1674  -30.3017   24.9343 C   0  0  1  0  0  0  0  0  0  0  0  0
  -21.5687  -27.6492   25.6964 C   0  0  2  0  0  0  0  0  0  0  0  0
  -29.2901  -24.9902   16.5981 C   0  0  0  0  0  0  0  0  0  0  0  0
  -24.6842  -31.2524   26.0508 C   0  0  0  0  0  0  0  0  0  0  0  0
  -22.1501  -16.1201   20.1849 N   0  0  0  0  0  0  0  0  0  0  0  0
  -21.0200  -16.6481   20.6851 N   0  0  0  0  0  0  0  0  0  0  0  0
  -24.5662  -30.6500   22.5169 N   0  0  0  0  0  0  0  0  0  0  0  0
  -21.1966  -20.1861   19.2498 N   0  0  0  0  0  0  0  0  0  0  0  0
  -19.2839  -16.2587   22.2488 N   0  0  0  0  0  0  0  0  0  0  0  0
  -21.9142  -12.6133   22.6830 N   0  0  0  0  0  0  0  0  0  0  0  0
  -25.0921  -22.3845   21.0070 N   0  0  0  0  0  0  0  0  0  0  0  0
  -25.2993  -33.6452   20.7220 N   0  0  0  0  0  0  0  0  0  0  0  0
  -22.9639  -29.5587   25.2918 N   0  0  0  0  0  0  0  0  0  0  0  0
  -22.3450  -21.4853   20.8581 N   0  0  0  0  0  0  0  0  0  0  0  0
  -21.2622  -26.3859   24.9678 N   0  3  0  0  0  0  0  0  0  0  0  0
  -19.9974  -13.6260   23.4306 O   0  0  0  0  0  0  0  0  0  0  0  0
  -26.6650  -32.0949   21.7963 O   0  0  0  0  0  0  0  0  0  0  0  0
  -22.9817  -31.9174   23.6655 O   0  0  0  0  0  0  0  0  0  0  0  0
  -23.8685  -27.4459   24.9843 O   0  0  0  0  0  0  0  0  0  0  0  0
  -21.0297  -22.4990   19.2772 O   0  0  0  0  0  0  0  0  0  0  0  0
  -26.5982  -11.5756   19.8511 O   0  0  0  0  0  0  0  0  0  0  0  0
  -28.2898  -26.4882   19.8965 O   0  0  0  0  0  0  0  0  0  1  0  0
  -31.6058  -13.8528   19.4736 F   0  0  0  0  0  0  0  0  0  0  0  0
  -27.1466  -13.4852   17.9288 F   0  0  0  0  0  0  0  0  0  0  0  0
  1  2  1  0  0  0  0
  1  5  2  0  0  0  0
  2  6  2  0  0  0  0
  3  8  2  0  0  0  0
  3 17  1  0  0  0  0
  4  9  1  0  0  0  0
  4 17  2  0  0  0  0
  5 19  1  0  0  0  0
  6 21  1  0  0  0  0
  7 10  2  0  0  0  0
  7 20  1  0  0  0  0
  8 27  1  0  0  0  0
  9 27  2  0  0  0  0
 10 28  1  0  0  0  0
 11 12  2  0  0  0  0
 11 29  1  0  0  0  0
 12 30  1  0  0  0  0
 13 22  1  0  0  0  0
 13 26  2  0  0  0  0
 14 23  1  0  0  0  0
 14 28  2  0  0  0  0
 15 25  2  0  0  0  0
 15 26  1  0  0  0  0
 16 30  2  0  0  0  0
 16 31  1  0  0  0  0
 17 32  1  0  0  0  0
 18 32  1  0  0  0  0
 18 33  2  0  0  0  0
 18 34  1  0  0  0  0
 19 21  2  0  0  0  0
 19 39  1  0  0  0  0
 20 23  2  0  0  0  0
 20 40  1  0  0  0  0
 21 50  1  0  0  0  0
 22 24  2  0  0  0  0
 22 51  1  0  0  0  0
 23 42  1  0  0  0  0
 24 25  1  0  0  0  0
 24 41  1  0  0  0  0
 25 66  1  0  0  0  0
 26 77  1  0  0  0  0
 27 87  1  0  0  0  0
 28 88  1  0  0  0  0
 29 31  2  0  0  0  0
 29 87  1  0  0  0  0
 30 89  1  0  0  0  0
 31 90  1  0  0  0  0
 32 71  2  0  0  0  0
 33 72  1  0  0  0  0
 33 75  1  0  0  0  0
 34 76  1  0  0  0  0
 34 82  2  0  0  0  0
 35 52  1  0  0  0  0
 35 78  1  0  0  0  0
 35 83  2  0  0  0  0
 36 67  1  0  0  0  0
 36 73  1  0  0  0  0
 36 84  2  0  0  0  0
 37 68  1  0  0  0  0
 37 79  1  0  0  0  0
 37 85  2  0  0  0  0
 38 74  1  0  0  0  0
 38 80  1  0  0  0  0
 38 86  2  0  0  0  0
 39 43  1  0  0  0  0
 40 52  1  0  0  0  0
 41 44  1  0  0  0  0
 42 73  1  0  0  0  0
 43 46  1  0  0  0  0
 44 53  1  0  0  0  0
 45 47  1  0  0  0  0
 45 48  1  0  0  0  0
 46 50  1  0  0  0  0
 47 54  1  0  0  0  0
 48 74  1  0  0  0  0
 49 54  1  0  0  0  0
 49 74  1  0  0  0  0
 50 78  1  0  0  0  0
 51 53  1  0  0  0  0
 51 88  1  0  0  0  0
 52 73  1  0  0  0  0
 53 69  1  0  0  0  0
 54 72  1  0  0  0  0
 55 66  1  0  0  0  0
 56 66  1  0  0  0  0
 57 68  1  0  0  0  0
 58 69  1  0  0  0  0
 59 69  1  0  0  0  0
 60 70  1  0  0  0  0
 61 70  1  0  0  0  0
 62 70  1  0  0  0  0
 63 81  1  0  0  0  0
 64 65  1  0  0  0  0
 64 77  1  0  0  0  0
 65 80  1  0  0  0  0
 67 70  1  0  0  0  0
 67 79  1  0  0  0  0
 68 81  1  0  0  0  0
 71 72  1  0  0  0  0
M  CHG  1  81   1
M  ISO  4  38 100  51 101  80 100  88 101
M  END
> <Batch ID>
0144

> <Smiles>
CNC(C)C(=O)NC(C(=O)N1Cc2cc([101O:1][101CH:1]3c4cc(NCC[100NH:0][100C:0](=O)N5CCCC(n6nc(-c7ccc(Oc8ccc(F)cc8F)cc7)c(C(N)=O)c6N)C5)cc(C(C)C)c4CCC3C(C)C)ccc2CC1C(=O)NC1CCCc2ccccc21)C(C)(C)C

> <Shape>
0.248

> <Color>
0.107

> <Negative vol penalty>
0.000

$$$$

  -OEChem-04052321263D

 88 98  0     1  0  0  0  0  0999 V2000
  -19.8727  -34.4236   21.2097 C   0  0  0  0  0  0  0  0  0  0  0  0
  -21.1337  -33.9438   20.8703 C   0  0  0  0  0  0  0  0  0  0  0  0
  -24.6649  -13.8818   20.0376 C   0  0  0  0  0  0  0  0  0  0  0  0
  -26.4690  -12.3427   20.4999 C   0  0  0  0  0  0  0  0  0  0  0  0
  -19.1410  -33.8029   22.2213 C   0  0  0  0  0  0  0  0  0  0  0  0
  -21.6642  -32.8437   21.5431 C   0  0  0  0  0  0  0  0  0  0  0  0
  -25.2517  -28.4710   19.1947 C   0  0  0  0  0  0  0  0  0  0  0  0
  -23.7725  -13.0320   20.6910 C   0  0  0  0  0  0  0  0  0  0  0  0
  -25.5765  -11.4929   21.1533 C   0  0  0  0  0  0  0  0  0  0  0  0
  -26.6324  -28.2789   19.2156 C   0  0  0  0  0  0  0  0  0  0  0  0
  -23.2411   -9.2014   20.3014 C   0  0  0  0  0  0  0  0  0  0  0  0
  -23.3186   -7.8380   20.0175 C   0  0  0  0  0  0  0  0  0  0  0  0
  -29.8913  -21.3184   18.3982 C   0  0  0  0  0  0  0  0  0  0  0  0
  -26.3931  -26.8094   21.1137 C   0  0  0  0  0  0  0  0  0  0  0  0
  -23.7855   -7.3802   22.3434 C   0  0  0  0  0  0  0  0  0  0  0  0
  -26.0132  -13.5372   19.9420 C   0  0  0  0  0  0  0  0  0  0  0  0
  -27.6838  -15.4621   19.8358 C   0  0  0  0  0  0  0  0  0  0  0  0
  -19.6588  -32.6887   22.9003 C   0  0  0  0  0  0  0  0  0  0  0  0
  -24.4310  -27.8413   20.1415 C   0  0  0  0  0  0  0  0  0  0  0  0
  -20.9393  -32.2084   22.5657 C   0  0  0  0  0  0  0  0  0  0  0  0
  -29.4545  -22.0044   17.2541 C   0  0  0  0  0  0  0  0  0  0  0  0
  -25.0020  -26.9932   21.1011 C   0  0  0  0  0  0  0  0  0  0  0  0
  -30.4249  -23.3999   19.4394 C   0  0  0  0  0  0  0  0  0  0  0  0
  -29.9896  -24.0835   18.2995 C   0  0  0  0  0  0  0  0  0  0  0  0
  -30.3871  -22.0170   19.5009 C   0  0  0  0  0  0  0  0  0  0  0  0
  -29.5074  -23.3987   17.1968 C   0  0  0  0  0  0  0  0  0  0  0  0
  -24.2282  -11.8375   21.2489 C   0  0  0  0  0  0  0  0  0  0  0  0
  -27.2036  -27.4503   20.1770 C   0  0  0  0  0  0  0  0  0  0  0  0
  -23.4358   -9.6543   21.6063 C   0  0  0  0  0  0  0  0  0  0  0  0
  -23.5908   -6.9274   21.0385 C   0  0  0  0  0  0  0  0  0  0  0  0
  -23.7080   -8.7437   22.6273 C   0  0  0  0  0  0  0  0  0  0  0  0
  -26.9355  -14.4143   19.2667 C   0  0  0  0  0  0  0  0  0  0  0  0
  -28.3988  -15.9834   18.7854 C   0  0  0  0  0  0  0  0  0  0  0  0
  -27.7286  -15.9229   21.1928 C   0  0  0  0  0  0  0  0  0  0  0  0
  -22.4662  -28.8464   22.4291 C   0  0  0  0  0  0  0  0  0  0  0  0
  -21.7736  -25.6876   22.6826 C   0  0  0  0  0  0  0  0  0  0  0  0
  -22.7567  -22.4572   22.1879 C   0  0  0  0  0  0  0  0  0  0  0  0
  -28.8878  -17.6760   13.6075 C   0  0  0  0  0  0  0  0  0  0  0  0
  -18.8506  -32.0802   24.0189 C   0  0  0  0  0  0  0  0  0  0  0  0
  -22.9407  -28.0378   20.0888 C   0  0  0  0  0  0  0  0  0  0  0  0
  -30.9419  -24.3523   20.4719 C   0  0  0  0  0  0  0  0  0  0  0  0
  -30.1724  -25.5607   18.4572 C   0  0  0  0  0  0  0  0  0  0  0  0
  -24.1628  -26.2780   22.1270 C   0  0  0  0  0  0  0  0  0  0  0  0
  -19.3272  -30.6888   24.4276 C   0  0  0  0  0  0  0  0  0  0  0  0
  -29.1117  -14.2602   14.0908 C   0  0  0  0  0  0  0  0  0  0  0  0
  -20.8446  -30.6681   24.5817 C   0  0  0  0  0  0  0  0  0  0  0  0
  -28.6285  -14.0659   15.5281 C   0  0  0  0  0  0  0  0  0  0  0  0
  -30.0369  -20.8801   15.0597 C   0  0  0  0  0  0  0  0  0  0  0  0
  -28.2235  -19.9109   16.5337 C   0  0  0  0  0  0  0  0  0  0  0  0
  -28.2588  -15.2928   13.3624 C   0  0  0  0  0  0  0  0  0  0  0  0
  -29.5029  -20.0490   13.8955 C   0  0  0  0  0  0  0  0  0  0  0  0
  -27.7294  -19.1036   15.3367 C   0  0  0  0  0  0  0  0  0  0  0  0
  -27.7186  -16.4396   15.4855 C   0  0  0  0  0  0  0  0  0  0  0  0
  -28.9302  -21.2001   16.0793 C   0  0  0  0  0  0  0  0  0  0  0  0
  -21.5384  -31.0021   23.2556 C   0  0  1  0  0  0  0  0  0  0  0  0
  -22.2530  -27.7532   21.4206 C   0  0  1  0  0  0  0  0  0  0  0  0
  -30.3598  -25.6987   19.9851 C   0  0  1  0  0  0  0  0  0  0  0  0
  -28.5551  -15.4108   16.2724 C   0  0  1  0  0  0  0  0  0  0  0  0
  -30.8640  -21.2776   20.7023 C   0  0  0  0  0  0  0  0  0  0  0  0
  -29.0602  -24.1366   15.9805 C   0  0  0  0  0  0  0  0  0  0  0  0
  -21.9931  -20.0913   22.5299 C   0  0  0  0  0  0  0  0  0  0  0  0
  -22.4103  -25.9147   25.6580 C   0  0  0  0  0  0  0  0  0  0  0  0
  -22.5612  -23.4171   25.7452 C   0  0  0  0  0  0  0  0  0  0  0  0
  -20.4087  -24.5139   25.1235 C   0  0  0  0  0  0  0  0  0  0  0  0
  -22.8355  -21.8894   19.2844 C   0  0  0  0  0  0  0  0  0  0  0  0
  -29.0321  -26.0162   20.6830 C   0  0  0  0  0  0  0  0  0  1  0  0
  -22.3291  -24.5318   23.4792 C   0  0  1  0  0  0  0  0  0  0  0  0
  -22.0408  -21.2698   21.5699 C   0  0  2  0  0  0  0  0  0  0  0  0
  -21.9436  -24.6092   24.9835 C   0  0  0  0  0  0  0  0  0  0  0  0
  -27.1546  -14.2769   17.9563 N   0  0  0  0  0  0  0  0  0  0  0  0
  -28.0487  -15.2452   17.6933 N   0  0  0  0  0  0  0  0  0  0  0  0
  -22.7112  -26.5071   22.0383 N   0  0  0  0  0  0  0  0  0  0  0  0
  -28.2090  -16.5527   14.1039 N   0  0  0  0  0  0  0  0  0  0  0  0
  -28.8063  -18.8535   14.3690 N   0  0  0  0  0  0  0  0  0  0  0  0
  -29.2865  -16.9967   18.6985 N   0  0  0  0  0  0  0  0  0  0  0  0
  -26.9305  -15.2747   22.1453 N   0  0  0  0  0  0  0  0  0  0  0  0
  -21.5227  -29.8545   22.3740 N   0  0  0  0  0  0  0  0  0  0  0  0
  -21.8762  -23.3183   22.8080 N   0  0  0  0  0  0  0  0  0  0  0  0
  -22.7374  -20.8349   20.3262 N   0  3  0  0  0  0  0  0  0  0  0  0
  -28.4425  -16.8917   21.5469 O   0  0  0  0  0  0  0  0  0  0  0  0
  -23.4155  -28.7795   23.2012 O   0  0  0  0  0  0  0  0  0  0  0  0
  -20.5524  -25.8528   22.6280 O   0  0  0  0  0  0  0  0  0  0  0  0
  -23.9756  -22.6040   22.1300 O   0  0  0  0  0  0  0  0  0  0  0  0
  -29.5324  -17.6311   12.5524 O   0  0  0  0  0  0  0  0  0  0  0  0
  -23.3577  -11.0082   21.8867 O   0  0  0  0  0  0  0  0  0  0  0  0
  -28.5643  -27.2596   20.2003 O   0  0  0  0  0  0  0  0  0  1  0  0
  -23.6638   -5.6180   20.7660 F   0  0  0  0  0  0  0  0  0  0  0  0
  -23.8948   -9.1727   23.8830 F   0  0  0  0  0  0  0  0  0  0  0  0
  1  2  1  0  0  0  0
  1  5  2  0  0  0  0
  2  6  2  0  0  0  0
  3  8  2  0  0  0  0
  3 16  1  0  0  0  0
  4  9  1  0  0  0  0
  4 16  2  0  0  0  0
  5 18  1  0  0  0  0
  6 20  1  0  0  0  0
  7 10  2  0  0  0  0
  7 19  1  0  0  0  0
  8 27  1  0  0  0  0
  9 27  2  0  0  0  0
 10 28  1  0  0  0  0
 11 12  2  0  0  0  0
 11 29  1  0  0  0  0
 12 30  1  0  0  0  0
 13 21  1  0  0  0  0
 13 25  2  0  0  0  0
 14 22  1  0  0  0  0
 14 28  2  0  0  0  0
 15 30  2  0  0  0  0
 15 31  1  0  0  0  0
 16 32  1  0  0  0  0
 17 32  1  0  0  0  0
 17 33  2  0  0  0  0
 17 34  1  0  0  0  0
 18 20  2  0  0  0  0
 18 39  1  0  0  0  0
 19 22  2  0  0  0  0
 19 40  1  0  0  0  0
 20 55  1  0  0  0  0
 21 26  2  0  0  0  0
 21 54  1  0  0  0  0
 22 43  1  0  0  0  0
 23 24  2  0  0  0  0
 23 25  1  0  0  0  0
 23 41  1  0  0  0  0
 24 26  1  0  0  0  0
 24 42  1  0  0  0  0
 25 59  1  0  0  0  0
 26 60  1  0  0  0  0
 27 85  1  0  0  0  0
 28 86  1  0  0  0  0
 29 31  2  0  0  0  0
 29 85  1  0  0  0  0
 30 87  1  0  0  0  0
 31 88  1  0  0  0  0
 32 70  2  0  0  0  0
 33 71  1  0  0  0  0
 33 75  1  0  0  0  0
 34 76  1  0  0  0  0
 34 80  2  0  0  0  0
 35 56  1  0  0  0  0
 35 77  1  0  0  0  0
 35 81  2  0  0  0  0
 36 67  1  0  0  0  0
 36 72  1  0  0  0  0
 36 82  2  0  0  0  0
 37 68  1  0  0  0  0
 37 78  1  0  0  0  0
 37 83  2  0  0  0  0
 38 73  1  0  0  0  0
 38 74  1  0  0  0  0
 38 84  2  0  0  0  0
 39 44  1  0  0  0  0
 40 56  1  0  0  0  0
 41 57  1  0  0  0  0
 42 57  1  0  0  0  0
 43 72  1  0  0  0  0
 44 46  1  0  0  0  0
 45 47  1  0  0  0  0
 45 50  1  0  0  0  0
 46 55  1  0  0  0  0
 47 58  1  0  0  0  0
 48 51  1  0  0  0  0
 48 54  1  0  0  0  0
 49 52  1  0  0  0  0
 49 54  1  0  0  0  0
 50 73  1  0  0  0  0
 51 74  1  0  0  0  0
 52 74  1  0  0  0  0
 53 58  1  0  0  0  0
 53 73  1  0  0  0  0
 55 77  1  0  0  0  0
 56 72  1  0  0  0  0
 57 66  1  0  0  0  0
 58 71  1  0  0  0  0
 61 68  1  0  0  0  0
 62 69  1  0  0  0  0
 63 69  1  0  0  0  0
 64 69  1  0  0  0  0
 65 79  1  0  0  0  0
 66 86  1  0  0  0  0
 67 69  1  0  0  0  0
 67 78  1  0  0  0  0
 68 79  1  0  0  0  0
 70 71  1  0  0  0  0
M  CHG  1  79   1
M  ISO  4  38 100  66 101  74 100  86 101
M  END
> <Batch ID>
0144

> <Smiles>
CNC(C)C(=O)NC(C(=O)N1Cc2cc([101O:1][101CH2:1]C3Cc4c(C)cc(C5CC[100N:0]([100C:0](=O)N6CCCC(n7nc(-c8ccc(Oc9ccc(F)cc9F)cc8)c(C(N)=O)c7N)C6)CC5)c(C)c4C3)ccc2CC1C(=O)NC1CCCc2ccccc21)C(C)(C)C

> <Shape>
0.204

> <Color>
0.089

> <Negative vol penalty>
0.000

$$$$

  -OEChem-04052321263D

 88 98  0     1  0  0  0  0  0999 V2000
  -16.9812  -30.1680   24.7679 C   0  0  0  0  0  0  0  0  0  0  0  0
  -17.4753  -28.8916   24.5188 C   0  0  0  0  0  0  0  0  0  0  0  0
  -30.7100  -19.0321   20.5261 C   0  0  0  0  0  0  0  0  0  0  0  0
  -28.3075  -19.1347   20.2925 C   0  0  0  0  0  0  0  0  0  0  0  0
  -17.4061  -31.2431   23.9884 C   0  0  0  0  0  0  0  0  0  0  0  0
  -18.3938  -28.6893   23.4893 C   0  0  0  0  0  0  0  0  0  0  0  0
  -22.7364  -16.1529   20.3878 C   0  0  0  0  0  0  0  0  0  0  0  0
  -23.2597  -14.8600   20.3984 C   0  0  0  0  0  0  0  0  0  0  0  0
  -23.0255  -24.6833   23.4221 C   0  0  0  0  0  0  0  0  0  0  0  0
  -30.8130  -20.3351   20.0391 C   0  0  0  0  0  0  0  0  0  0  0  0
  -28.4105  -20.4377   19.8056 C   0  0  0  0  0  0  0  0  0  0  0  0
  -23.1599  -23.4141   22.8609 C   0  0  0  0  0  0  0  0  0  0  0  0
  -31.6810  -23.7634   19.1974 C   0  0  0  0  0  0  0  0  0  0  0  0
  -32.5324  -24.6411   19.8683 C   0  0  0  0  0  0  0  0  0  0  0  0
  -24.2403  -16.7762   22.1730 C   0  0  0  0  0  0  0  0  0  0  0  0
  -24.2149  -24.3895   20.9231 C   0  0  0  0  0  0  0  0  0  0  0  0
  -31.2368  -24.3545   21.8873 C   0  0  0  0  0  0  0  0  0  0  0  0
  -29.4572  -18.4319   20.6528 C   0  0  0  0  0  0  0  0  0  0  0  0
  -29.2025  -16.6886   22.4977 C   0  0  0  0  0  0  0  0  0  0  0  0
  -23.2268  -17.1111   21.2750 C   0  0  0  0  0  0  0  0  0  0  0  0
  -18.3376  -31.0555   22.9551 C   0  0  0  0  0  0  0  0  0  0  0  0
  -23.4757  -25.8180   22.7321 C   0  0  0  0  0  0  0  0  0  0  0  0
  -18.8305  -29.7627   22.6944 C   0  0  0  0  0  0  0  0  0  0  0  0
  -24.2732  -14.5251   21.2963 C   0  0  0  0  0  0  0  0  0  0  0  0
  -24.0874  -25.6716   21.4789 C   0  0  0  0  0  0  0  0  0  0  0  0
  -29.6632  -21.0380   19.6789 C   0  0  0  0  0  0  0  0  0  0  0  0
  -23.7521  -23.2674   21.6099 C   0  0  0  0  0  0  0  0  0  0  0  0
  -30.6073  -23.1813   19.8713 C   0  0  0  0  0  0  0  0  0  0  0  0
  -24.7636  -15.4832   22.1836 C   0  0  0  0  0  0  0  0  0  0  0  0
  -32.3104  -24.9366   21.2133 C   0  0  0  0  0  0  0  0  0  0  0  0
  -30.3853  -23.4768   21.2163 C   0  0  0  0  0  0  0  0  0  0  0  0
  -29.3502  -17.0857   21.1552 C   0  0  0  0  0  0  0  0  0  0  0  0
  -29.1482  -15.3171   22.4461 C   0  0  0  0  0  0  0  0  0  0  0  0
  -29.1217  -17.4879   23.6852 C   0  0  0  0  0  0  0  0  0  0  0  0
  -22.0920  -28.4352   21.5749 C   0  0  0  0  0  0  0  0  0  0  0  0
  -25.1537  -29.3065   20.9510 C   0  0  0  0  0  0  0  0  0  0  0  0
  -28.3797  -28.3493   20.3818 C   0  0  0  0  0  0  0  0  0  0  0  0
  -27.1925  -11.0236   19.2793 C   0  0  0  0  0  0  0  0  0  0  0  0
  -18.7312  -32.2402   22.1088 C   0  0  0  0  0  0  0  0  0  0  0  0
  -23.3475  -27.1774   23.3630 C   0  0  0  0  0  0  0  0  0  0  0  0
  -24.6055  -26.8560   20.7062 C   0  0  0  0  0  0  0  0  0  0  0  0
  -19.9909  -32.0045   21.2793 C   0  0  0  0  0  0  0  0  0  0  0  0
  -24.3502  -10.6570   21.6245 C   0  0  0  0  0  0  0  0  0  0  0  0
  -30.5520  -11.8800   19.1915 C   0  0  0  0  0  0  0  0  0  0  0  0
  -23.7608  -12.0666   21.6532 C   0  0  0  0  0  0  0  0  0  0  0  0
  -19.9253  -30.6493   20.5823 C   0  0  0  0  0  0  0  0  0  0  0  0
  -30.5893  -13.2737   19.8180 C   0  0  0  0  0  0  0  0  0  0  0  0
  -22.6548  -19.2669   19.9674 C   0  0  0  0  0  0  0  0  0  0  0  0
  -25.0441  -10.3586   20.2987 C   0  0  0  0  0  0  0  0  0  0  0  0
  -29.3445  -11.7256   18.2739 C   0  0  0  0  0  0  0  0  0  0  0  0
  -25.4906  -12.7666   19.9520 C   0  0  0  0  0  0  0  0  0  0  0  0
  -28.0606  -13.3882   19.5796 C   0  0  0  0  0  0  0  0  0  0  0  0
  -22.6680  -18.4923   21.2634 C   0  0  2  0  0  0  0  0  0  0  0  0
  -24.8294  -13.1137   21.2943 C   0  0  1  0  0  0  0  0  0  0  0  0
  -19.8469  -29.5073   21.6026 C   0  0  1  0  0  0  0  0  0  0  0  0
  -23.3763  -28.3136   22.3453 C   0  0  1  0  0  0  0  0  0  0  0  0
  -23.6059  -19.6592   21.0586 C   0  0  2  0  0  0  0  0  0  0  0  0
  -29.2609  -13.5962   20.5242 C   0  0  2  0  0  0  0  0  0  0  0  0
  -30.8485  -28.5928   20.0037 C   0  0  0  0  0  0  0  0  0  0  0  0
  -24.2966  -29.7859   18.0622 C   0  0  0  0  0  0  0  0  0  0  0  0
  -26.7158  -29.7835   17.4173 C   0  0  0  0  0  0  0  0  0  0  0  0
  -25.8479  -31.5140   18.9905 C   0  0  0  0  0  0  0  0  0  0  0  0
  -28.9448  -28.3212   23.2868 C   0  0  0  0  0  0  0  0  0  0  0  0
  -25.3506  -14.6788   24.3433 C   0  0  0  0  0  0  0  0  0  0  0  0
  -23.3950  -20.9251   21.8157 C   0  0  0  0  0  0  0  0  0  1  0  0
  -26.1003  -29.1283   19.7886 C   0  0  1  0  0  0  0  0  0  0  0  0
  -29.6936  -28.8415   20.9614 C   0  0  2  0  0  0  0  0  0  0  0  0
  -25.7287  -30.0306   18.5781 C   0  0  0  0  0  0  0  0  0  0  0  0
  -29.3875  -16.0502   20.3123 N   0  0  0  0  0  0  0  0  0  0  0  0
  -29.2625  -14.9889   21.1272 N   0  0  0  0  0  0  0  0  0  0  0  0
  -24.4514  -28.1649   21.3624 N   0  0  0  0  0  0  0  0  0  0  0  0
  -26.0199  -11.3942   19.9579 N   0  0  0  0  0  0  0  0  0  0  0  0
  -28.1022  -12.0479   18.9761 N   0  0  0  0  0  0  0  0  0  0  0  0
  -29.0143  -14.3720   23.4007 N   0  0  0  0  0  0  0  0  0  0  0  0
  -29.1943  -18.8818   23.5585 N   0  0  0  0  0  0  0  0  0  0  0  0
  -21.1511  -29.2503   22.1748 N   0  0  0  0  0  0  0  0  0  0  0  0
  -27.4413  -29.3575   20.3153 N   0  0  0  0  0  0  0  0  0  0  0  0
  -29.9880  -28.1425   22.2442 N   0  3  0  0  0  0  0  0  0  0  0  0
  -29.0055  -16.9804   24.8264 O   0  0  0  0  0  0  0  0  0  0  0  0
  -21.9648  -27.8354   20.5139 O   0  0  0  0  0  0  0  0  0  0  0  0
  -25.0469  -30.4161   21.4793 O   0  0  0  0  0  0  0  0  0  0  0  0
  -28.2045  -27.1877   20.0205 O   0  0  0  0  0  0  0  0  0  0  0  0
  -27.4139   -9.8469   18.9668 O   0  0  0  0  0  0  0  0  0  0  0  0
  -29.7633  -22.3095   19.2039 O   0  0  0  0  0  0  0  0  0  0  0  0
  -25.7529  -15.1725   23.0671 O   0  0  0  0  0  0  0  0  0  0  0  0
  -23.8849  -22.0206   21.0554 O   0  0  0  0  0  0  0  0  0  1  0  0
  -33.1291  -25.7782   21.8580 F   0  0  0  0  0  0  0  0  0  0  0  0
  -29.3562  -22.9198   21.8694 F   0  0  0  0  0  0  0  0  0  0  0  0
  1  2  1  0  0  0  0
  1  5  2  0  0  0  0
  2  6  2  0  0  0  0
  3 10  2  0  0  0  0
  3 18  1  0  0  0  0
  4 11  1  0  0  0  0
  4 18  2  0  0  0  0
  5 21  1  0  0  0  0
  6 23  1  0  0  0  0
  7  8  2  0  0  0  0
  7 20  1  0  0  0  0
  8 24  1  0  0  0  0
  9 12  2  0  0  0  0
  9 22  1  0  0  0  0
 10 26  1  0  0  0  0
 11 26  2  0  0  0  0
 12 27  1  0  0  0  0
 13 14  2  0  0  0  0
 13 28  1  0  0  0  0
 14 30  1  0  0  0  0
 15 20  2  0  0  0  0
 15 29  1  0  0  0  0
 16 25  1  0  0  0  0
 16 27  2  0  0  0  0
 17 30  2  0  0  0  0
 17 31  1  0  0  0  0
 18 32  1  0  0  0  0
 19 32  1  0  0  0  0
 19 33  2  0  0  0  0
 19 34  1  0  0  0  0
 20 53  1  0  0  0  0
 21 23  2  0  0  0  0
 21 39  1  0  0  0  0
 22 25  2  0  0  0  0
 22 40  1  0  0  0  0
 23 55  1  0  0  0  0
 24 29  2  0  0  0  0
 24 54  1  0  0  0  0
 25 41  1  0  0  0  0
 26 84  1  0  0  0  0
 27 86  1  0  0  0  0
 28 31  2  0  0  0  0
 28 84  1  0  0  0  0
 29 85  1  0  0  0  0
 30 87  1  0  0  0  0
 31 88  1  0  0  0  0
 32 69  2  0  0  0  0
 33 70  1  0  0  0  0
 33 74  1  0  0  0  0
 34 75  1  0  0  0  0
 34 79  2  0  0  0  0
 35 56  1  0  0  0  0
 35 76  1  0  0  0  0
 35 80  2  0  0  0  0
 36 66  1  0  0  0  0
 36 71  1  0  0  0  0
 36 81  2  0  0  0  0
 37 67  1  0  0  0  0
 37 77  1  0  0  0  0
 37 82  2  0  0  0  0
 38 72  1  0  0  0  0
 38 73  1  0  0  0  0
 38 83  2  0  0  0  0
 39 42  1  0  0  0  0
 40 56  1  0  0  0  0
 41 71  1  0  0  0  0
 42 46  1  0  0  0  0
 43 45  1  0  0  0  0
 43 49  1  0  0  0  0
 44 47  1  0  0  0  0
 44 50  1  0  0  0  0
 45 54  1  0  0  0  0
 46 55  1  0  0  0  0
 47 58  1  0  0  0  0
 48 53  1  0  0  0  0
 48 57  1  0  0  0  0
 49 72  1  0  0  0  0
 50 73  1  0  0  0  0
 51 54  1  0  0  0  0
 51 72  1  0  0  0  0
 52 58  1  0  0  0  0
 52 73  1  0  0  0  0
 53 57  1  0  0  0  0
 55 76  1  0  0  0  0
 56 71  1  0  0  0  0
 57 65  1  0  0  0  0
 58 70  1  0  0  0  0
 59 67  1  0  0  0  0
 60 68  1  0  0  0  0
 61 68  1  0  0  0  0
 62 68  1  0  0  0  0
 63 78  1  0  0  0  0
 64 85  1  0  0  0  0
 65 86  1  0  0  0  0
 66 68  1  0  0  0  0
 66 77  1  0  0  0  0
 67 78  1  0  0  0  0
 69 70  1  0  0  0  0
M  CHG  1  78   1
M  ISO  4  38 100  65 101  72 100  86 101
M  END
> <Batch ID>
0144

> <Smiles>
CNC(C)C(=O)NC(C(=O)N1Cc2cc([101O:1][101CH2:1]C3CC3c3ccc(C4CCC[100N:0]([100C:0](=O)N5CCCC(n6nc(-c7ccc(Oc8ccc(F)cc8F)cc7)c(C(N)=O)c6N)C5)C4)c(OC)c3)ccc2CC1C(=O)NC1CCCc2ccccc21)C(C)(C)C

> <Shape>
0.257

> <Color>
0.077

> <Negative vol penalty>
0.000

$$$$

  -OEChem-04052321263D

 92101  0     1  0  0  0  0  0999 V2000
  -27.8829  -11.5603   18.1882 C   0  0  0  0  0  0  0  0  0  0  0  0
  -27.7510  -12.8767   17.7581 C   0  0  0  0  0  0  0  0  0  0  0  0
  -29.0135  -26.2085   18.3306 C   0  0  0  0  0  0  0  0  0  0  0  0
  -27.9927  -24.8043   20.0108 C   0  0  0  0  0  0  0  0  0  0  0  0
  -27.0625  -11.0752   19.2059 C   0  0  0  0  0  0  0  0  0  0  0  0
  -26.7979  -13.7086   18.3446 C   0  0  0  0  0  0  0  0  0  0  0  0
  -25.6952  -20.5654   20.1008 C   0  0  0  0  0  0  0  0  0  0  0  0
  -30.1846  -25.4552   18.4125 C   0  0  0  0  0  0  0  0  0  0  0  0
  -29.1638  -24.0510   20.0928 C   0  0  0  0  0  0  0  0  0  0  0  0
  -24.7556  -21.5820   19.9352 C   0  0  0  0  0  0  0  0  0  0  0  0
  -31.7602  -21.5362   20.4839 C   0  0  0  0  0  0  0  0  0  0  0  0
  -31.6383  -20.1469   20.5052 C   0  0  0  0  0  0  0  0  0  0  0  0
  -23.4475  -20.6585   21.7394 C   0  0  0  0  0  0  0  0  0  0  0  0
  -20.2282  -26.3338   21.9194 C   0  0  0  0  0  0  0  0  0  0  0  0
  -18.7631  -24.5619   21.1771 C   0  0  0  0  0  0  0  0  0  0  0  0
  -30.5560  -20.2087   18.3460 C   0  0  0  0  0  0  0  0  0  0  0  0
  -27.9176  -25.8831   19.1298 C   0  0  0  0  0  0  0  0  0  0  0  0
  -25.6106  -26.4375   18.1928 C   0  0  0  0  0  0  0  0  0  0  0  0
  -26.1054  -11.9043   19.8118 C   0  0  0  0  0  0  0  0  0  0  0  0
  -25.5123  -19.5799   21.0814 C   0  0  0  0  0  0  0  0  0  0  0  0
  -25.9630  -13.2337   19.3704 C   0  0  0  0  0  0  0  0  0  0  0  0
  -24.3876  -19.6320   21.9171 C   0  0  0  0  0  0  0  0  0  0  0  0
  -18.0038  -26.1397   22.8418 C   0  0  0  0  0  0  0  0  0  0  0  0
  -19.2336  -26.7950   22.7817 C   0  0  0  0  0  0  0  0  0  0  0  0
  -30.2598  -24.3765   19.2936 C   0  0  0  0  0  0  0  0  0  0  0  0
  -23.6300  -21.6270   20.7526 C   0  0  0  0  0  0  0  0  0  0  0  0
  -31.2799  -22.2618   19.3937 C   0  0  0  0  0  0  0  0  0  0  0  0
  -19.9930  -25.2173   21.1170 C   0  0  0  0  0  0  0  0  0  0  0  0
  -17.7685  -25.0231   22.0395 C   0  0  0  0  0  0  0  0  0  0  0  0
  -31.0363  -19.4831   19.4362 C   0  0  0  0  0  0  0  0  0  0  0  0
  -30.6778  -21.5981   18.3247 C   0  0  0  0  0  0  0  0  0  0  0  0
  -26.7078  -26.6612   19.0460 C   0  0  0  0  0  0  0  0  0  0  0  0
  -24.7273  -27.4439   18.4984 C   0  0  0  0  0  0  0  0  0  0  0  0
  -25.4079  -25.4117   17.2118 C   0  0  0  0  0  0  0  0  0  0  0  0
  -25.1444  -16.4228   21.0475 C   0  0  0  0  0  0  0  0  0  0  0  0
  -25.3075  -16.7601   24.2696 C   0  0  0  0  0  0  0  0  0  0  0  0
  -24.9132  -18.7754   26.9953 C   0  0  0  0  0  0  0  0  0  0  0  0
  -23.8656  -30.7616   23.4077 C   0  0  0  0  0  0  0  0  0  0  0  0
  -25.2092  -11.3214   20.8756 C   0  0  0  0  0  0  0  0  0  0  0  0
  -26.5486  -18.5053   21.2651 C   0  0  0  0  0  0  0  0  0  0  0  0
  -24.1549  -18.6095   22.9982 C   0  0  0  0  0  0  0  0  0  0  0  0
  -24.4793  -12.3768   21.7025 C   0  0  0  0  0  0  0  0  0  0  0  0
  -24.5916  -31.9404   20.1274 C   0  0  0  0  0  0  0  0  0  0  0  0
  -15.5804  -26.9607   23.1981 C   0  0  0  0  0  0  0  0  0  0  0  0
  -16.4827  -28.0606   23.6633 C   0  0  0  0  0  0  0  0  0  0  0  0
  -23.8709  -13.4402   20.7938 C   0  0  0  0  0  0  0  0  0  0  0  0
  -25.1173  -30.7009   19.4013 C   0  0  0  0  0  0  0  0  0  0  0  0
  -25.0353  -31.9693   21.5883 C   0  0  0  0  0  0  0  0  0  0  0  0
  -25.2383  -29.5135   21.6316 C   0  0  0  0  0  0  0  0  0  0  0  0
  -16.9340  -26.6290   23.7645 C   0  0  0  0  0  0  0  0  0  0  0  0
  -24.9577  -14.1741   19.9990 C   0  0  1  0  0  0  0  0  0  0  0  0
  -26.0016  -17.2593   21.9547 C   0  0  1  0  0  0  0  0  0  0  0  0
  -24.7703  -29.4116   20.1698 C   0  0  2  0  0  0  0  0  0  0  0  0
  -14.0897  -23.0533   19.5954 C   0  0  0  0  0  0  0  0  0  0  0  0
  -25.0845  -18.7587   29.4989 C   0  0  0  0  0  0  0  0  0  0  0  0
  -23.1991  -28.2391   26.0204 C   0  0  0  0  0  0  0  0  0  0  0  0
  -22.6710  -15.2335   24.4374 C   0  0  0  0  0  0  0  0  0  0  0  0
  -22.4203  -16.0633   26.7862 C   0  0  0  0  0  0  0  0  0  0  0  0
  -24.3522  -14.6064   26.1794 C   0  0  0  0  0  0  0  0  0  0  0  0
  -27.0090  -20.8650   26.9818 C   0  0  0  0  0  0  0  0  0  0  0  0
  -19.5122  -27.9923   23.6305 C   0  0  0  0  0  0  0  0  0  0  0  0
  -14.6231  -23.7387   20.8406 C   0  0  0  0  0  0  0  0  0  0  0  0
  -21.2575  -29.3506   24.7915 C   0  0  0  0  0  0  0  0  0  0  0  0
  -16.1433  -23.7244   20.8872 C   0  0  0  0  0  0  0  0  0  0  0  0
  -23.1871  -23.8738   20.1109 C   0  0  0  0  0  0  0  0  0  1  0  0
  -22.3174  -24.9816   20.6729 C   0  0  0  0  0  0  0  0  0  0  0  0
  -24.3042  -17.0016   25.3714 C   0  0  1  0  0  0  0  0  0  0  0  0
  -25.8097  -19.0384   28.1918 C   0  0  2  0  0  0  0  0  0  0  0  0
  -22.7395  -29.4118   25.1595 C   0  0  2  0  0  0  0  0  0  0  0  0
  -23.4401  -15.7445   25.6720 C   0  0  0  0  0  0  0  0  0  0  0  0
  -26.5393  -27.7261   19.8343 N   0  0  0  0  0  0  0  0  0  0  0  0
  -25.3259  -28.1807   19.4776 N   0  0  0  0  0  0  0  0  0  0  0  0
  -25.1935  -17.5750   23.1344 N   0  0  0  0  0  0  0  0  0  0  0  0
  -24.6751  -30.7185   22.2605 N   0  0  0  0  0  0  0  0  0  0  0  0
  -23.5047  -27.7617   18.0222 N   0  0  0  0  0  0  0  0  0  0  0  0
  -26.4167  -24.4567   17.0255 N   0  0  0  0  0  0  0  0  0  0  0  0
  -25.6277  -15.1454   20.8369 N   0  0  0  0  0  0  0  0  0  0  0  0
  -25.0648  -17.4915   26.5159 N   0  0  0  0  0  0  0  0  0  0  0  0
  -23.5663  -29.5310   23.9793 N   0  0  0  0  0  0  0  0  0  0  0  0
  -26.2604  -20.4589   28.1990 N   0  3  0  0  0  0  0  0  0  0  0  0
  -20.9481  -28.1346   23.9943 N   0  3  0  0  0  0  0  0  0  0  0  0
  -24.3703  -25.3536   16.5093 O   0  0  0  0  0  0  0  0  0  0  0  0
  -24.1196  -16.9003   20.5748 O   0  0  0  0  0  0  0  0  0  0  0  0
  -26.1655  -15.8855   24.4140 O   0  0  0  0  0  0  0  0  0  0  0  0
  -24.1516  -19.6229   26.5346 O   0  0  0  0  0  0  0  0  0  0  0  0
  -23.4367  -31.8182   23.8838 O   0  0  0  0  0  0  0  0  0  0  0  0
  -31.4023  -23.6411   19.3737 O   0  0  0  0  0  0  0  0  0  0  0  0
  -22.7110  -22.6177   20.5926 O   0  0  0  0  0  0  0  0  0  1  0  0
  -20.9705  -24.7642   20.2707 O   0  0  0  0  0  0  0  0  0  0  0  0
  -16.5739  -24.3688   22.0842 O   0  0  0  0  0  0  0  0  0  0  0  0
  -30.9207  -18.1488   19.4561 F   0  0  0  0  0  0  0  0  0  0  0  0
  -30.2156  -22.2897   17.2741 F   0  0  0  0  0  0  0  0  0  0  0  0
  1  2  1  0  0  0  0
  1  5  2  0  0  0  0
  2  6  2  0  0  0  0
  3  8  2  0  0  0  0
  3 17  1  0  0  0  0
  4  9  1  0  0  0  0
  4 17  2  0  0  0  0
  5 19  1  0  0  0  0
  6 21  1  0  0  0  0
  7 10  2  0  0  0  0
  7 20  1  0  0  0  0
  8 25  1  0  0  0  0
  9 25  2  0  0  0  0
 10 26  1  0  0  0  0
 11 12  2  0  0  0  0
 11 27  1  0  0  0  0
 12 30  1  0  0  0  0
 13 22  1  0  0  0  0
 13 26  2  0  0  0  0
 14 24  2  0  0  0  0
 14 28  1  0  0  0  0
 15 28  2  0  0  0  0
 15 29  1  0  0  0  0
 16 30  2  0  0  0  0
 16 31  1  0  0  0  0
 17 32  1  0  0  0  0
 18 32  1  0  0  0  0
 18 33  2  0  0  0  0
 18 34  1  0  0  0  0
 19 21  2  0  0  0  0
 19 39  1  0  0  0  0
 20 22  2  0  0  0  0
 20 40  1  0  0  0  0
 21 51  1  0  0  0  0
 22 41  1  0  0  0  0
 23 24  1  0  0  0  0
 23 29  2  0  0  0  0
 23 50  1  0  0  0  0
 24 61  1  0  0  0  0
 25 87  1  0  0  0  0
 26 88  1  0  0  0  0
 27 31  2  0  0  0  0
 27 87  1  0  0  0  0
 28 89  1  0  0  0  0
 29 90  1  0  0  0  0
 30 91  1  0  0  0  0
 31 92  1  0  0  0  0
 32 71  2  0  0  0  0
 33 72  1  0  0  0  0
 33 75  1  0  0  0  0
 34 76  1  0  0  0  0
 34 82  2  0  0  0  0
 35 52  1  0  0  0  0
 35 77  1  0  0  0  0
 35 83  2  0  0  0  0
 36 67  1  0  0  0  0
 36 73  1  0  0  0  0
 36 84  2  0  0  0  0
 37 68  1  0  0  0  0
 37 78  1  0  0  0  0
 37 85  2  0  0  0  0
 38 74  1  0  0  0  0
 38 79  1  0  0  0  0
 38 86  2  0  0  0  0
 39 42  1  0  0  0  0
 40 52  1  0  0  0  0
 41 73  1  0  0  0  0
 42 46  1  0  0  0  0
 43 47  1  0  0  0  0
 43 48  1  0  0  0  0
 44 45  1  0  0  0  0
 44 50  1  0  0  0  0
 45 50  1  0  0  0  0
 46 51  1  0  0  0  0
 47 53  1  0  0  0  0
 48 74  1  0  0  0  0
 49 53  1  0  0  0  0
 49 74  1  0  0  0  0
 51 77  1  0  0  0  0
 52 73  1  0  0  0  0
 53 72  1  0  0  0  0
 54 62  1  0  0  0  0
 55 68  1  0  0  0  0
 56 69  1  0  0  0  0
 57 70  1  0  0  0  0
 58 70  1  0  0  0  0
 59 70  1  0  0  0  0
 60 80  1  0  0  0  0
 61 81  1  0  0  0  0
 62 64  1  0  0  0  0
 63 69  1  0  0  0  0
 63 81  1  0  0  0  0
 64 90  1  0  0  0  0
 65 66  1  0  0  0  0
 65 88  1  0  0  0  0
 66 89  1  0  0  0  0
 67 70  1  0  0  0  0
 67 78  1  0  0  0  0
 68 80  1  0  0  0  0
 69 79  1  0  0  0  0
 71 72  1  0  0  0  0
M  CHG  2  80   1  81   1
M  ISO  4  38 100  65 101  79 100  88 101
M  END
> <Batch ID>
0144

> <Smiles>
CCCOc1cc(OC[101CH2:1][101O:1]c2ccc3c(c2)CN(C(=O)C(NC(=O)C(C)NC)C(C)(C)C)C(C(=O)NC2CCCc4ccccc42)C3)cc(CNCC(C)[100NH:0][100C:0](=O)N2CCCC(n3nc(-c4ccc(Oc5ccc(F)cc5F)cc4)c(C(N)=O)c3N)C2)c1C1CC1

> <Shape>
0.207

> <Color>
0.063

> <Negative vol penalty>
0.000

$$$$

  -OEChem-04052321263D

 92102  0     1  0  0  0  0  0999 V2000
  -19.7031   -8.7200   20.7058 C   0  0  0  0  0  0  0  0  0  0  0  0
  -19.6620   -9.9848   21.2838 C   0  0  0  0  0  0  0  0  0  0  0  0
  -25.2572  -27.5975   20.7002 C   0  0  0  0  0  0  0  0  0  0  0  0
  -25.7024  -25.6942   22.1202 C   0  0  0  0  0  0  0  0  0  0  0  0
  -20.9295   -8.0933   20.4893 C   0  0  0  0  0  0  0  0  0  0  0  0
  -20.8475  -10.6231   21.6467 C   0  0  0  0  0  0  0  0  0  0  0  0
  -22.0131  -16.6310   21.4180 C   0  0  0  0  0  0  0  0  0  0  0  0
  -23.8946  -27.3007   20.7294 C   0  0  0  0  0  0  0  0  0  0  0  0
  -24.3398  -25.3974   22.1495 C   0  0  0  0  0  0  0  0  0  0  0  0
  -21.9859  -17.6294   22.3907 C   0  0  0  0  0  0  0  0  0  0  0  0
  -20.2597  -27.2549   20.7250 C   0  0  0  0  0  0  0  0  0  0  0  0
  -19.3704  -28.3098   20.9301 C   0  0  0  0  0  0  0  0  0  0  0  0
  -24.3611  -17.3658   22.7193 C   0  0  0  0  0  0  0  0  0  0  0  0
  -26.2569  -23.9367   25.5587 C   0  0  0  0  0  0  0  0  0  0  0  0
  -26.5690  -22.6609   23.5309 C   0  0  0  0  0  0  0  0  0  0  0  0
  -20.4093  -28.7710   23.0621 C   0  0  0  0  0  0  0  0  0  0  0  0
  -26.1611  -26.7943   21.3955 C   0  0  0  0  0  0  0  0  0  0  0  0
  -28.2780  -27.9293   22.2547 C   0  0  0  0  0  0  0  0  0  0  0  0
  -22.1311   -8.7282   20.8408 C   0  0  0  0  0  0  0  0  0  0  0  0
  -23.2147  -15.9837   21.0958 C   0  0  0  0  0  0  0  0  0  0  0  0
  -22.0911  -10.0036   21.4359 C   0  0  0  0  0  0  0  0  0  0  0  0
  -24.4014  -16.3612   21.7403 C   0  0  0  0  0  0  0  0  0  0  0  0
  -27.6324  -24.1560   25.6324 C   0  0  0  0  0  0  0  0  0  0  0  0
  -27.9445  -22.8803   23.6046 C   0  0  0  0  0  0  0  0  0  0  0  0
  -23.4359  -26.2007   21.4541 C   0  0  0  0  0  0  0  0  0  0  0  0
  -23.1594  -17.9950   23.0435 C   0  0  0  0  0  0  0  0  0  0  0  0
  -21.2237  -26.9580   21.6885 C   0  0  0  0  0  0  0  0  0  0  0  0
  -25.7252  -23.1890   24.5079 C   0  0  0  0  0  0  0  0  0  0  0  0
  -28.4762  -23.6279   24.6554 C   0  0  0  0  0  0  0  0  0  0  0  0
  -19.4452  -29.0679   22.0986 C   0  0  0  0  0  0  0  0  0  0  0  0
  -21.2985  -27.7161   22.8570 C   0  0  0  0  0  0  0  0  0  0  0  0
  -27.5688  -27.1000   21.3652 C   0  0  0  0  0  0  0  0  0  0  0  0
  -29.5735  -27.8920   21.8000 C   0  0  0  0  0  0  0  0  0  0  0  0
  -27.8077  -28.6672   23.3905 C   0  0  0  0  0  0  0  0  0  0  0  0
  -24.2633  -12.9877   21.2623 C   0  0  0  0  0  0  0  0  0  0  0  0
  -26.8395  -14.2156   19.7204 C   0  0  0  0  0  0  0  0  0  0  0  0
  -28.7480  -16.9491   18.9910 C   0  0  0  0  0  0  0  0  0  0  0  0
  -29.6634  -23.2004   19.1608 C   0  0  0  0  0  0  0  0  0  0  0  0
  -23.4301   -7.9912   20.6308 C   0  0  0  0  0  0  0  0  0  0  0  0
  -23.2321  -14.9273   20.0253 C   0  0  0  0  0  0  0  0  0  0  0  0
  -25.7209  -15.7113   21.4166 C   0  0  0  0  0  0  0  0  0  0  0  0
  -24.6600   -8.8928   20.7000 C   0  0  0  0  0  0  0  0  0  0  0  0
  -29.7191  -26.3744   17.5207 C   0  0  0  0  0  0  0  0  0  0  0  0
  -31.8458  -20.7463   20.6982 C   0  0  0  0  0  0  0  0  0  0  0  0
  -29.2558  -24.3605   27.6316 C   0  0  0  0  0  0  0  0  0  0  0  0
  -27.8737  -24.5435   28.1761 C   0  0  0  0  0  0  0  0  0  0  0  0
  -24.5779   -9.8157   21.9117 C   0  0  0  0  0  0  0  0  0  0  0  0
  -30.5928  -27.2563   18.4059 C   0  0  0  0  0  0  0  0  0  0  0  0
  -30.5404  -20.3659   21.3826 C   0  0  0  0  0  0  0  0  0  0  0  0
  -30.2373  -24.9446   17.5107 C   0  0  0  0  0  0  0  0  0  0  0  0
  -31.6533  -22.2281   20.4155 C   0  0  0  0  0  0  0  0  0  0  0  0
  -31.1078  -25.1911   19.8275 C   0  0  0  0  0  0  0  0  0  0  0  0
  -28.1827  -24.9608   26.7629 C   0  0  0  0  0  0  0  0  0  0  0  0
  -23.3568  -10.7388   21.8204 C   0  0  1  0  0  0  0  0  0  0  0  0
  -24.4199  -13.9773   20.1426 C   0  0  1  0  0  0  0  0  0  0  0  0
  -30.7472  -26.6946   19.8283 C   0  0  2  0  0  0  0  0  0  0  0  0
  -29.4939  -21.1875   20.6249 C   0  0  1  0  0  0  0  0  0  0  0  0
  -30.8113  -17.6334   17.7372 C   0  0  0  0  0  0  0  0  0  0  0  0
  -28.5742  -13.0148   21.9246 C   0  0  0  0  0  0  0  0  0  0  0  0
  -30.4435  -14.4970   21.1650 C   0  0  0  0  0  0  0  0  0  0  0  0
  -29.5085  -12.7789   19.6168 C   0  0  0  0  0  0  0  0  0  0  0  0
  -27.2166  -18.7746   17.2356 C   0  0  0  0  0  0  0  0  0  0  0  0
  -30.3268  -25.0050   24.0770 C   0  0  0  0  0  0  0  0  0  0  0  0
  -28.3179  -21.5702   21.5142 C   0  0  0  0  0  0  0  0  0  0  0  0
  -22.6571  -21.2894   24.4676 C   0  0  0  0  0  0  0  0  0  0  0  0
  -22.1544  -19.9934   23.8512 C   0  0  0  0  0  0  0  0  0  1  0  0
  -23.9505  -21.7620   23.8225 C   0  0  0  0  0  0  0  0  0  0  0  0
  -28.1450  -14.8402   20.1499 C   0  0  1  0  0  0  0  0  0  0  0  0
  -29.3005  -17.4702   17.6766 C   0  0  2  0  0  0  0  0  0  0  0  0
  -29.1428  -13.7938   20.7218 C   0  0  0  0  0  0  0  0  0  0  0  0
  -28.3491  -26.5745   20.4170 N   0  0  0  0  0  0  0  0  0  0  0  0
  -29.5620  -27.0748   20.7081 N   0  0  0  0  0  0  0  0  0  0  0  0
  -25.6852  -14.6794   20.3671 N   0  0  0  0  0  0  0  0  0  0  0  0
  -30.3420  -24.3910   18.8609 N   0  0  0  0  0  0  0  0  0  0  0  0
  -30.2250  -22.3568   20.1219 N   0  0  0  0  0  0  0  0  0  0  0  0
  -30.7100  -28.4789   22.2316 N   0  0  0  0  0  0  0  0  0  0  0  0
  -26.4469  -28.5942   23.7179 N   0  0  0  0  0  0  0  0  0  0  0  0
  -28.7762  -22.3447   22.6196 N   0  0  0  0  0  0  0  0  0  0  0  0
  -23.6119  -11.8247   20.8983 N   0  0  0  0  0  0  0  0  0  0  0  0
  -28.6466  -15.5740   18.9930 N   0  0  0  0  0  0  0  0  0  0  0  0
  -28.6977  -18.7933   17.3494 N   0  3  0  0  0  0  0  0  0  0  0  0
  -28.5686  -29.3836   24.0843 O   0  0  0  0  0  0  0  0  0  0  0  0
  -24.7023  -13.2586   22.3739 O   0  0  0  0  0  0  0  0  0  0  0  0
  -26.8430  -13.3532   18.8383 O   0  0  0  0  0  0  0  0  0  0  0  0
  -28.4409  -17.6878   19.9240 O   0  0  0  0  0  0  0  0  0  0  0  0
  -28.6078  -22.8991   18.5881 O   0  0  0  0  0  0  0  0  0  0  0  0
  -22.1063  -25.9109   21.4831 O   0  0  0  0  0  0  0  0  0  0  0  0
  -29.8220  -23.8429   24.7291 O   0  0  0  0  0  0  0  0  0  0  0  0
  -23.1353  -18.9758   24.0007 O   0  0  0  0  0  0  0  0  0  1  0  0
  -24.3827  -22.9752   24.4363 O   0  0  0  0  0  0  0  0  0  0  0  0
  -18.5922  -30.0818   22.2947 F   0  0  0  0  0  0  0  0  0  0  0  0
  -22.2233  -27.4364   23.7856 F   0  0  0  0  0  0  0  0  0  0  0  0
  1  2  1  0  0  0  0
  1  5  2  0  0  0  0
  2  6  2  0  0  0  0
  3  8  2  0  0  0  0
  3 17  1  0  0  0  0
  4  9  1  0  0  0  0
  4 17  2  0  0  0  0
  5 19  1  0  0  0  0
  6 21  1  0  0  0  0
  7 10  2  0  0  0  0
  7 20  1  0  0  0  0
  8 25  1  0  0  0  0
  9 25  2  0  0  0  0
 10 26  1  0  0  0  0
 11 12  2  0  0  0  0
 11 27  1  0  0  0  0
 12 30  1  0  0  0  0
 13 22  1  0  0  0  0
 13 26  2  0  0  0  0
 14 23  1  0  0  0  0
 14 28  2  0  0  0  0
 15 24  2  0  0  0  0
 15 28  1  0  0  0  0
 16 30  2  0  0  0  0
 16 31  1  0  0  0  0
 17 32  1  0  0  0  0
 18 32  1  0  0  0  0
 18 33  2  0  0  0  0
 18 34  1  0  0  0  0
 19 21  2  0  0  0  0
 19 39  1  0  0  0  0
 20 22  2  0  0  0  0
 20 40  1  0  0  0  0
 21 54  1  0  0  0  0
 22 41  1  0  0  0  0
 23 29  2  0  0  0  0
 23 53  1  0  0  0  0
 24 29  1  0  0  0  0
 24 78  1  0  0  0  0
 25 87  1  0  0  0  0
 26 89  1  0  0  0  0
 27 31  2  0  0  0  0
 27 87  1  0  0  0  0
 28 90  1  0  0  0  0
 29 88  1  0  0  0  0
 30 91  1  0  0  0  0
 31 92  1  0  0  0  0
 32 71  2  0  0  0  0
 33 72  1  0  0  0  0
 33 76  1  0  0  0  0
 34 77  1  0  0  0  0
 34 82  2  0  0  0  0
 35 55  1  0  0  0  0
 35 79  1  0  0  0  0
 35 83  2  0  0  0  0
 36 68  1  0  0  0  0
 36 73  1  0  0  0  0
 36 84  2  0  0  0  0
 37 69  1  0  0  0  0
 37 80  1  0  0  0  0
 37 85  2  0  0  0  0
 38 74  1  0  0  0  0
 38 75  1  0  0  0  0
 38 86  2  0  0  0  0
 39 42  1  0  0  0  0
 40 55  1  0  0  0  0
 41 73  1  0  0  0  0
 42 47  1  0  0  0  0
 43 48  1  0  0  0  0
 43 50  1  0  0  0  0
 44 49  1  0  0  0  0
 44 51  1  0  0  0  0
 45 46  1  0  0  0  0
 45 53  1  0  0  0  0
 46 53  1  0  0  0  0
 47 54  1  0  0  0  0
 48 56  1  0  0  0  0
 49 57  1  0  0  0  0
 50 74  1  0  0  0  0
 51 75  1  0  0  0  0
 52 56  1  0  0  0  0
 52 74  1  0  0  0  0
 54 79  1  0  0  0  0
 55 73  1  0  0  0  0
 56 72  1  0  0  0  0
 57 64  1  0  0  0  0
 57 75  1  0  0  0  0
 58 69  1  0  0  0  0
 59 70  1  0  0  0  0
 60 70  1  0  0  0  0
 61 70  1  0  0  0  0
 62 81  1  0  0  0  0
 63 88  1  0  0  0  0
 64 78  1  0  0  0  0
 65 66  1  0  0  0  0
 65 67  1  0  0  0  0
 66 89  1  0  0  0  0
 67 90  1  0  0  0  0
 68 70  1  0  0  0  0
 68 80  1  0  0  0  0
 69 81  1  0  0  0  0
 71 72  1  0  0  0  0
M  CHG  1  81   1
M  ISO  4  38 100  66 101  75 100  89 101
M  END
> <Batch ID>
0144

> <Smiles>
CNC(C)C(=O)NC(C(=O)N1Cc2cc([101O:1][101CH2:1]CCOc3cc(NCC4CCC[100N:0]4[100C:0](=O)N4CCCC(n5nc(-c6ccc(Oc7ccc(F)cc7F)cc6)c(C(N)=O)c5N)C4)c(OC)c(C4CC4)c3)ccc2CC1C(=O)NC1CCCc2ccccc21)C(C)(C)C

> <Shape>
0.260

> <Color>
0.052

> <Negative vol penalty>
0.000

$$$$

  -OEChem-04052321263D

 87 96  0     1  0  0  0  0  0999 V2000
  -29.9352  -35.5678   21.1027 C   0  0  0  0  0  0  0  0  0  0  0  0
  -29.8993  -34.1775   21.1388 C   0  0  0  0  0  0  0  0  0  0  0  0
  -25.7934  -14.4905   19.3171 C   0  0  0  0  0  0  0  0  0  0  0  0
  -26.9871  -12.9150   20.7064 C   0  0  0  0  0  0  0  0  0  0  0  0
  -28.9582  -36.3068   21.7684 C   0  0  0  0  0  0  0  0  0  0  0  0
  -28.8868  -33.5254   21.8418 C   0  0  0  0  0  0  0  0  0  0  0  0
  -26.9007  -29.6571   19.2463 C   0  0  0  0  0  0  0  0  0  0  0  0
  -24.8264  -13.5216   19.0492 C   0  0  0  0  0  0  0  0  0  0  0  0
  -26.0200  -11.9461   20.4385 C   0  0  0  0  0  0  0  0  0  0  0  0
  -27.6319  -28.4705   19.2130 C   0  0  0  0  0  0  0  0  0  0  0  0
  -22.8979  -11.1889   21.4872 C   0  0  0  0  0  0  0  0  0  0  0  0
  -22.4222  -10.4361   22.5607 C   0  0  0  0  0  0  0  0  0  0  0  0
  -26.2163  -27.5567   20.9393 C   0  0  0  0  0  0  0  0  0  0  0  0
  -23.1982   -8.4154   21.4875 C   0  0  0  0  0  0  0  0  0  0  0  0
  -26.8738  -14.1872   20.1456 C   0  0  0  0  0  0  0  0  0  0  0  0
  -28.6958  -15.8479   19.4900 C   0  0  0  0  0  0  0  0  0  0  0  0
  -27.9277  -35.6633   22.4718 C   0  0  0  0  0  0  0  0  0  0  0  0
  -25.8268  -29.8066   20.1355 C   0  0  0  0  0  0  0  0  0  0  0  0
  -27.8958  -34.2565   22.5187 C   0  0  0  0  0  0  0  0  0  0  0  0
  -25.4714  -28.7453   20.9801 C   0  0  0  0  0  0  0  0  0  0  0  0
  -24.9396  -12.2495   19.6099 C   0  0  0  0  0  0  0  0  0  0  0  0
  -27.2916  -27.4211   20.0616 C   0  0  0  0  0  0  0  0  0  0  0  0
  -23.5237  -10.5550   20.4137 C   0  0  0  0  0  0  0  0  0  0  0  0
  -22.5724   -9.0493   22.5609 C   0  0  0  0  0  0  0  0  0  0  0  0
  -23.6738   -9.1683   20.4139 C   0  0  0  0  0  0  0  0  0  0  0  0
  -27.8734  -15.1874   20.4222 C   0  0  0  0  0  0  0  0  0  0  0  0
  -29.4652  -16.6945   20.2501 C   0  0  0  0  0  0  0  0  0  0  0  0
  -28.7587  -15.7086   18.0644 C   0  0  0  0  0  0  0  0  0  0  0  0
  -25.1818  -31.7495   22.5672 C   0  0  0  0  0  0  0  0  0  0  0  0
  -22.2988  -30.2653   22.4808 C   0  0  0  0  0  0  0  0  0  0  0  0
  -20.4825  -27.5123   21.6038 C   0  0  0  0  0  0  0  0  0  0  0  0
  -26.3981  -18.3984   22.9247 C   0  0  0  0  0  0  0  0  0  0  0  0
  -26.9209  -36.5048   23.2154 C   0  0  0  0  0  0  0  0  0  0  0  0
  -25.0313  -31.0832   20.1404 C   0  0  0  0  0  0  0  0  0  0  0  0
  -24.3144  -28.8479   21.9389 C   0  0  0  0  0  0  0  0  0  0  0  0
  -25.6679  -35.7352   23.6253 C   0  0  0  0  0  0  0  0  0  0  0  0
  -28.2727  -16.3316   24.8295 C   0  0  0  0  0  0  0  0  0  0  0  0
  -26.0447  -34.3959   24.2506 C   0  0  0  0  0  0  0  0  0  0  0  0
  -28.4946  -23.4206   19.3780 C   0  0  0  0  0  0  0  0  0  0  0  0
  -26.9972  -24.3104   17.5433 C   0  0  0  0  0  0  0  0  0  0  0  0
  -29.6230  -16.3749   24.1021 C   0  0  0  0  0  0  0  0  0  0  0  0
  -29.3831  -24.6031   18.9736 C   0  0  0  0  0  0  0  0  0  0  0  0
  -27.5055  -25.7475   17.7142 C   0  0  0  0  0  0  0  0  0  0  0  0
  -27.1029  -21.5573   21.0414 C   0  0  0  0  0  0  0  0  0  0  0  0
  -25.3550  -20.1835   19.8471 C   0  0  0  0  0  0  0  0  0  0  0  0
  -27.6462  -17.7151   24.9470 C   0  0  0  0  0  0  0  0  0  0  0  0
  -26.7584  -20.8194   22.3330 C   0  0  0  0  0  0  0  0  0  0  0  0
  -25.0493  -19.4689   21.1618 C   0  0  0  0  0  0  0  0  0  0  0  0
  -28.9238  -18.5574   23.0279 C   0  0  0  0  0  0  0  0  0  0  0  0
  -26.7994  -33.5126   23.2498 C   0  0  1  0  0  0  0  0  0  0  0  0
  -24.2794  -31.3137   21.4476 C   0  0  1  0  0  0  0  0  0  0  0  0
  -27.0523  -23.5200   18.8518 C   0  0  0  0  0  0  0  0  0  0  0  0
  -29.6138  -17.1927   22.7883 C   0  0  2  0  0  0  0  0  0  0  0  0
  -28.5963  -25.8944   18.7815 C   0  0  0  0  0  0  0  0  0  1  0  0
  -25.9263  -21.6056   20.0402 C   0  0  0  0  0  0  0  0  0  0  0  0
  -18.1563  -26.5757   21.6961 C   0  0  0  0  0  0  0  0  0  0  0  0
  -23.2156  -21.9813   18.6548 C   0  0  0  0  0  0  0  0  0  0  0  0
  -22.9220  -24.0786   19.9883 C   0  0  0  0  0  0  0  0  0  0  0  0
  -22.6661  -29.6518   25.4471 C   0  0  0  0  0  0  0  0  0  0  0  0
  -20.8399  -27.9504   25.2499 C   0  0  0  0  0  0  0  0  0  0  0  0
  -20.3537  -30.3565   24.8061 C   0  0  0  0  0  0  0  0  0  0  0  0
  -20.3049  -27.3534   18.6539 C   0  0  0  0  0  0  0  0  0  0  0  0
  -26.4383  -22.1313   18.6867 C   0  0  0  0  0  0  0  0  0  0  0  0
  -24.8282  -22.5649   20.5386 C   0  0  0  0  0  0  0  0  0  0  0  0
  -21.7093  -29.0362   23.1294 C   0  0  1  0  0  0  0  0  0  0  0  0
  -19.1595  -27.3692   20.8735 C   0  0  2  0  0  0  0  0  0  0  0  0
  -23.9423  -23.0962   19.4084 C   0  0  0  0  0  0  0  0  0  0  0  0
  -21.4153  -29.2472   24.6415 C   0  0  0  0  0  0  0  0  0  0  0  0
  -28.0992  -15.5805   21.6786 N   0  0  0  0  0  0  0  0  0  0  0  0
  -29.0723  -16.4971   21.5411 N   0  0  0  0  0  0  0  0  0  0  0  0
  -23.5713  -30.1186   21.9107 N   0  0  0  0  0  0  0  0  0  0  0  0
  -27.6038  -18.3704   23.6433 N   0  0  0  0  0  0  0  0  0  0  0  0
  -26.1985  -19.4897   22.0640 N   0  0  0  0  0  0  0  0  0  0  0  0
  -30.4327  -17.5811   19.9333 N   0  0  0  0  0  0  0  0  0  0  0  0
  -27.9382  -16.5272   17.2763 N   0  0  0  0  0  0  0  0  0  0  0  0
  -25.8775  -32.9150   22.3078 N   0  0  0  0  0  0  0  0  0  0  0  0
  -20.5376  -28.6787   22.3371 N   0  0  0  0  0  0  0  0  0  0  0  0
  -19.3588  -26.6696   19.5728 N   0  3  0  0  0  0  0  0  0  0  0  0
  -29.5079  -14.8714   17.5065 O   0  0  0  0  0  0  0  0  0  0  0  0
  -25.2414  -31.0790   23.5911 O   0  0  0  0  0  0  0  0  0  0  0  0
  -21.6510  -31.3151   22.4739 O   0  0  0  0  0  0  0  0  0  0  0  0
  -21.3763  -26.6716   21.5340 O   0  0  0  0  0  0  0  0  0  0  0  0
  -25.5576  -17.4967   23.0317 O   0  0  0  0  0  0  0  0  0  0  0  0
  -23.9960  -11.3039   19.3490 O   0  0  0  0  0  0  0  0  0  0  0  0
  -28.0087  -26.2545   20.0314 O   0  0  0  0  0  0  0  0  0  1  0  0
  -22.1170   -8.3266   23.5927 F   0  0  0  0  0  0  0  0  0  0  0  0
  -24.2752   -8.5538   19.3860 F   0  0  0  0  0  0  0  0  0  0  0  0
  1  2  1  0  0  0  0
  1  5  2  0  0  0  0
  2  6  2  0  0  0  0
  3  8  2  0  0  0  0
  3 15  1  0  0  0  0
  4  9  1  0  0  0  0
  4 15  2  0  0  0  0
  5 17  1  0  0  0  0
  6 19  1  0  0  0  0
  7 10  2  0  0  0  0
  7 18  1  0  0  0  0
  8 21  1  0  0  0  0
  9 21  2  0  0  0  0
 10 22  1  0  0  0  0
 11 12  2  0  0  0  0
 11 23  1  0  0  0  0
 12 24  1  0  0  0  0
 13 20  1  0  0  0  0
 13 22  2  0  0  0  0
 14 24  2  0  0  0  0
 14 25  1  0  0  0  0
 15 26  1  0  0  0  0
 16 26  1  0  0  0  0
 16 27  2  0  0  0  0
 16 28  1  0  0  0  0
 17 19  2  0  0  0  0
 17 33  1  0  0  0  0
 18 20  2  0  0  0  0
 18 34  1  0  0  0  0
 19 50  1  0  0  0  0
 20 35  1  0  0  0  0
 21 84  1  0  0  0  0
 22 85  1  0  0  0  0
 23 25  2  0  0  0  0
 23 84  1  0  0  0  0
 24 86  1  0  0  0  0
 25 87  1  0  0  0  0
 26 69  2  0  0  0  0
 27 70  1  0  0  0  0
 27 74  1  0  0  0  0
 28 75  1  0  0  0  0
 28 79  2  0  0  0  0
 29 51  1  0  0  0  0
 29 76  1  0  0  0  0
 29 80  2  0  0  0  0
 30 65  1  0  0  0  0
 30 71  1  0  0  0  0
 30 81  2  0  0  0  0
 31 66  1  0  0  0  0
 31 77  1  0  0  0  0
 31 82  2  0  0  0  0
 32 72  1  0  0  0  0
 32 73  1  0  0  0  0
 32 83  2  0  0  0  0
 33 36  1  0  0  0  0
 34 51  1  0  0  0  0
 35 71  1  0  0  0  0
 36 38  1  0  0  0  0
 37 41  1  0  0  0  0
 37 46  1  0  0  0  0
 38 50  1  0  0  0  0
 39 42  1  0  0  0  0
 39 52  1  0  0  0  0
 40 43  1  0  0  0  0
 40 52  1  0  0  0  0
 41 53  1  0  0  0  0
 42 54  1  0  0  0  0
 43 54  1  0  0  0  0
 44 47  1  0  0  0  0
 44 55  1  0  0  0  0
 45 48  1  0  0  0  0
 45 55  1  0  0  0  0
 46 72  1  0  0  0  0
 47 73  1  0  0  0  0
 48 73  1  0  0  0  0
 49 53  1  0  0  0  0
 49 72  1  0  0  0  0
 50 76  1  0  0  0  0
 51 71  1  0  0  0  0
 52 63  1  0  0  0  0
 53 70  1  0  0  0  0
 54 85  1  0  0  0  0
 55 63  1  0  0  0  0
 55 64  1  0  0  0  0
 56 66  1  0  0  0  0
 57 67  1  0  0  0  0
 58 67  1  0  0  0  0
 59 68  1  0  0  0  0
 60 68  1  0  0  0  0
 61 68  1  0  0  0  0
 62 78  1  0  0  0  0
 64 67  1  0  0  0  0
 65 68  1  0  0  0  0
 65 77  1  0  0  0  0
 66 78  1  0  0  0  0
 69 70  1  0  0  0  0
M  CHG  1  78   1
M  ISO  4  32 100  54 101  73 100  85 101
M  END
> <Batch ID>
0144

> <Smiles>
CNC(C)C(=O)NC(C(=O)N1Cc2cc([101O:1][101CH:1]3CCC(CC4(CC(C)C)CC[100N:0]([100C:0](=O)N5CCCC(n6nc(-c7ccc(Oc8ccc(F)cc8F)cc7)c(C(N)=O)c6N)C5)CC4)CC3)ccc2CC1C(=O)NC1CCCc2ccccc21)C(C)(C)C

> <Shape>
0.259

> <Color>
0.090

> <Negative vol penalty>
0.000

$$$$

  -OEChem-04052321263D

 88 98  0     1  0  0  0  0  0999 V2000
  -17.8455  -25.2536   21.9891 C   0  0  0  0  0  0  0  0  0  0  0  0
  -19.0016  -25.4745   21.2475 C   0  0  0  0  0  0  0  0  0  0  0  0
  -22.9528  -10.2346   21.7183 C   0  0  0  0  0  0  0  0  0  0  0  0
  -24.7408   -8.6359   21.4280 C   0  0  0  0  0  0  0  0  0  0  0  0
  -17.6061  -25.9982   23.1433 C   0  0  0  0  0  0  0  0  0  0  0  0
  -19.9186  -26.4410   21.6591 C   0  0  0  0  0  0  0  0  0  0  0  0
  -24.7055  -24.8070   21.4134 C   0  0  0  0  0  0  0  0  0  0  0  0
  -22.0148   -9.2211   21.5221 C   0  0  0  0  0  0  0  0  0  0  0  0
  -23.8027   -7.6224   21.2319 C   0  0  0  0  0  0  0  0  0  0  0  0
  -25.3064  -24.7830   20.1556 C   0  0  0  0  0  0  0  0  0  0  0  0
  -21.7860   -5.6942   23.1386 C   0  0  0  0  0  0  0  0  0  0  0  0
  -21.9925   -4.4849   23.8023 C   0  0  0  0  0  0  0  0  0  0  0  0
  -30.1583  -23.8140   18.5153 C   0  0  0  0  0  0  0  0  0  0  0  0
  -26.4301  -26.8573   20.6595 C   0  0  0  0  0  0  0  0  0  0  0  0
  -28.1465  -23.2545   17.3001 C   0  0  0  0  0  0  0  0  0  0  0  0
  -22.0847   -3.3355   21.6792 C   0  0  0  0  0  0  0  0  0  0  0  0
  -24.3159   -9.9420   21.6712 C   0  0  0  0  0  0  0  0  0  0  0  0
  -25.8511  -11.3991   23.0951 C   0  0  0  0  0  0  0  0  0  0  0  0
  -18.5253  -26.9676   23.5746 C   0  0  0  0  0  0  0  0  0  0  0  0
  -24.9543  -25.8637   22.3011 C   0  0  0  0  0  0  0  0  0  0  0  0
  -19.6906  -27.2002   22.8195 C   0  0  0  0  0  0  0  0  0  0  0  0
  -30.3364  -22.4691   18.8395 C   0  0  0  0  0  0  0  0  0  0  0  0
  -25.8331  -26.8910   21.9290 C   0  0  0  0  0  0  0  0  0  0  0  0
  -29.4197  -21.5169   18.3940 C   0  0  0  0  0  0  0  0  0  0  0  0
  -29.0632  -24.2067   17.7456 C   0  0  0  0  0  0  0  0  0  0  0  0
  -28.3246  -21.9096   17.6242 C   0  0  0  0  0  0  0  0  0  0  0  0
  -22.4397   -7.9150   21.2790 C   0  0  0  0  0  0  0  0  0  0  0  0
  -26.1665  -25.8097   19.7773 C   0  0  0  0  0  0  0  0  0  0  0  0
  -21.7288   -5.7242   21.7452 C   0  0  0  0  0  0  0  0  0  0  0  0
  -22.1418   -3.3056   23.0726 C   0  0  0  0  0  0  0  0  0  0  0  0
  -21.8782   -4.5449   21.0155 C   0  0  0  0  0  0  0  0  0  0  0  0
  -25.2854  -10.9886   21.8731 C   0  0  0  0  0  0  0  0  0  0  0  0
  -26.7069  -12.4172   22.7525 C   0  0  0  0  0  0  0  0  0  0  0  0
  -25.6234  -10.9043   24.4214 C   0  0  0  0  0  0  0  0  0  0  0  0
  -23.1690  -28.1044   23.6777 C   0  0  0  0  0  0  0  0  0  0  0  0
  -25.9226  -28.7794   25.2538 C   0  0  0  0  0  0  0  0  0  0  0  0
  -29.3318  -28.6387   25.3205 C   0  0  0  0  0  0  0  0  0  0  0  0
  -27.5722  -17.1157   20.0088 C   0  0  0  0  0  0  0  0  0  0  0  0
  -18.2003  -27.7806   24.8027 C   0  0  0  0  0  0  0  0  0  0  0  0
  -24.3193  -25.8611   23.6646 C   0  0  0  0  0  0  0  0  0  0  0  0
  -26.1492  -28.0376   22.8530 C   0  0  0  0  0  0  0  0  0  0  0  0
  -19.4034  -28.5247   25.3764 C   0  0  0  0  0  0  0  0  0  0  0  0
  -28.3635  -13.9693   18.2520 C   0  0  0  0  0  0  0  0  0  0  0  0
  -32.8951  -22.4586   19.1961 C   0  0  0  0  0  0  0  0  0  0  0  0
  -32.4605  -21.0275   19.1376 C   0  0  0  0  0  0  0  0  0  0  0  0
  -20.1741  -29.2304   24.2652 C   0  0  0  0  0  0  0  0  0  0  0  0
  -27.6265  -12.9547   19.1212 C   0  0  0  0  0  0  0  0  0  0  0  0
  -29.7585  -19.6857   20.1841 C   0  0  0  0  0  0  0  0  0  0  0  0
  -27.6308  -15.3088   18.1877 C   0  0  0  0  0  0  0  0  0  0  0  0
  -26.5987  -14.8744   20.3991 C   0  0  0  0  0  0  0  0  0  0  0  0
  -31.5170  -22.0753   19.6648 C   0  0  0  0  0  0  0  0  0  0  0  0
  -29.6098  -20.0741   18.7400 C   0  0  1  0  0  0  0  0  0  0  0  0
  -20.7212  -28.2225   23.2472 C   0  0  1  0  0  0  0  0  0  0  0  0
  -24.2424  -27.2502   24.2906 C   0  0  1  0  0  0  0  0  0  0  0  0
  -27.3457  -13.5369   20.5149 C   0  0  1  0  0  0  0  0  0  0  0  0
  -28.4958  -19.3442   19.4497 C   0  0  1  0  0  0  0  0  0  0  0  0
  -26.8560  -19.0730   15.4559 C   0  0  0  0  0  0  0  0  0  0  0  0
  -31.3040  -29.3072   26.7209 C   0  0  0  0  0  0  0  0  0  0  0  0
  -25.5967  -31.6689   24.3293 C   0  0  0  0  0  0  0  0  0  0  0  0
  -27.9985  -32.0557   24.9206 C   0  0  0  0  0  0  0  0  0  0  0  0
  -26.3674  -31.4110   26.6944 C   0  0  0  0  0  0  0  0  0  0  0  0
  -30.1911  -25.8271   25.6597 C   0  0  0  0  0  0  0  0  0  0  0  0
  -28.8706  -25.6620   17.3944 C   0  0  0  0  0  0  0  0  0  0  0  0
  -27.3280  -20.9112   17.1323 C   0  0  0  0  0  0  0  0  0  0  0  0
  -27.8585  -20.1115   15.9339 C   0  0  0  0  0  0  0  0  0  0  0  0
  -28.0364  -26.4037   18.4332 C   0  0  0  0  0  0  0  0  0  1  0  0
  -27.1047  -29.6839   25.0015 C   0  0  1  0  0  0  0  0  0  0  0  0
  -30.3011  -28.2080   26.4065 C   0  0  2  0  0  0  0  0  0  0  0  0
  -26.7596  -31.1844   25.2181 C   0  0  0  0  0  0  0  0  0  0  0  0
  -25.7432  -11.6889   20.8320 N   0  0  0  0  0  0  0  0  0  0  0  0
  -26.6055  -12.5497   21.3988 N   0  0  0  0  0  0  0  0  0  0  0  0
  -25.4986  -27.9934   24.1730 N   0  0  0  0  0  0  0  0  0  0  0  0
  -27.3148  -15.8178   19.5316 N   0  0  0  0  0  0  0  0  0  0  0  0
  -27.5288  -13.2031   23.4800 N   0  0  0  0  0  0  0  0  0  0  0  0
  -24.7116   -9.8541   24.5953 N   0  0  0  0  0  0  0  0  0  0  0  0
  -21.8999  -27.5654   23.7700 N   0  0  0  0  0  0  0  0  0  0  0  0
  -28.1844  -29.1907   25.8497 N   0  0  0  0  0  0  0  0  0  0  0  0
  -28.1772  -17.9839   19.1071 N   0  0  0  0  0  0  0  0  0  0  0  0
  -31.0528  -26.9945   25.9783 N   0  3  0  0  0  0  0  0  0  0  0  0
  -26.1987  -11.3902   25.4246 O   0  0  0  0  0  0  0  0  0  0  0  0
  -23.4696  -29.1741   23.1609 O   0  0  0  0  0  0  0  0  0  0  0  0
  -25.3994  -28.7654   26.3708 O   0  0  0  0  0  0  0  0  0  0  0  0
  -29.5704  -28.5028   24.1225 O   0  0  0  0  0  0  0  0  0  0  0  0
  -27.2797  -17.4787   21.1536 O   0  0  0  0  0  0  0  0  0  0  0  0
  -21.5246   -6.9258   21.0878 O   0  0  0  0  0  0  0  0  0  0  0  0
  -26.7538  -25.7891   18.5499 O   0  0  0  0  0  0  0  0  0  1  0  0
  -22.3416   -2.1445   23.7100 F   0  0  0  0  0  0  0  0  0  0  0  0
  -21.8254   -4.5676   19.6767 F   0  0  0  0  0  0  0  0  0  0  0  0
  1  2  1  0  0  0  0
  1  5  2  0  0  0  0
  2  6  2  0  0  0  0
  3  8  2  0  0  0  0
  3 17  1  0  0  0  0
  4  9  1  0  0  0  0
  4 17  2  0  0  0  0
  5 19  1  0  0  0  0
  6 21  1  0  0  0  0
  7 10  2  0  0  0  0
  7 20  1  0  0  0  0
  8 27  1  0  0  0  0
  9 27  2  0  0  0  0
 10 28  1  0  0  0  0
 11 12  2  0  0  0  0
 11 29  1  0  0  0  0
 12 30  1  0  0  0  0
 13 22  2  0  0  0  0
 13 25  1  0  0  0  0
 14 23  1  0  0  0  0
 14 28  2  0  0  0  0
 15 25  2  0  0  0  0
 15 26  1  0  0  0  0
 16 30  2  0  0  0  0
 16 31  1  0  0  0  0
 17 32  1  0  0  0  0
 18 32  1  0  0  0  0
 18 33  2  0  0  0  0
 18 34  1  0  0  0  0
 19 21  2  0  0  0  0
 19 39  1  0  0  0  0
 20 23  2  0  0  0  0
 20 40  1  0  0  0  0
 21 53  1  0  0  0  0
 22 24  1  0  0  0  0
 22 51  1  0  0  0  0
 23 41  1  0  0  0  0
 24 26  2  0  0  0  0
 24 52  1  0  0  0  0
 25 63  1  0  0  0  0
 26 64  1  0  0  0  0
 27 85  1  0  0  0  0
 28 86  1  0  0  0  0
 29 31  2  0  0  0  0
 29 85  1  0  0  0  0
 30 87  1  0  0  0  0
 31 88  1  0  0  0  0
 32 70  2  0  0  0  0
 33 71  1  0  0  0  0
 33 74  1  0  0  0  0
 34 75  1  0  0  0  0
 34 80  2  0  0  0  0
 35 54  1  0  0  0  0
 35 76  1  0  0  0  0
 35 81  2  0  0  0  0
 36 67  1  0  0  0  0
 36 72  1  0  0  0  0
 36 82  2  0  0  0  0
 37 68  1  0  0  0  0
 37 77  1  0  0  0  0
 37 83  2  0  0  0  0
 38 73  1  0  0  0  0
 38 78  1  0  0  0  0
 38 84  2  0  0  0  0
 39 42  1  0  0  0  0
 40 54  1  0  0  0  0
 41 72  1  0  0  0  0
 42 46  1  0  0  0  0
 43 47  1  0  0  0  0
 43 49  1  0  0  0  0
 44 45  1  0  0  0  0
 44 51  1  0  0  0  0
 45 51  1  0  0  0  0
 46 53  1  0  0  0  0
 47 55  1  0  0  0  0
 48 52  1  0  0  0  0
 48 56  1  0  0  0  0
 49 73  1  0  0  0  0
 50 55  1  0  0  0  0
 50 73  1  0  0  0  0
 52 56  1  0  0  0  0
 53 76  1  0  0  0  0
 54 72  1  0  0  0  0
 55 71  1  0  0  0  0
 56 78  1  0  0  0  0
 57 65  1  0  0  0  0
 58 68  1  0  0  0  0
 59 69  1  0  0  0  0
 60 69  1  0  0  0  0
 61 69  1  0  0  0  0
 62 79  1  0  0  0  0
 63 66  1  0  0  0  0
 64 65  1  0  0  0  0
 66 86  1  0  0  0  0
 67 69  1  0  0  0  0
 67 77  1  0  0  0  0
 68 79  1  0  0  0  0
 70 71  1  0  0  0  0
M  CHG  1  79   1
M  ISO  4  38 100  66 101  78 100  86 101
M  END
> <Batch ID>
0144

> <Smiles>
CCCc1cc(C[101CH2:1][101O:1]c2ccc3c(c2)CN(C(=O)C(NC(=O)C(C)NC)C(C)(C)C)C(C(=O)NC2CCCc4ccccc42)C3)cc(C2CC2)c1C1CC1[100NH:0][100C:0](=O)N1CCCC(n2nc(-c3ccc(Oc4ccc(F)cc4F)cc3)c(C(N)=O)c2N)C1

> <Shape>
0.269

> <Color>
0.096

> <Negative vol penalty>
0.000

$$$$

  -OEChem-04052321263D

 88 96  0     1  0  0  0  0  0999 V2000
  -31.6392  -28.7119   13.7687 C   0  0  0  0  0  0  0  0  0  0  0  0
  -30.9736  -27.6123   14.3009 C   0  0  0  0  0  0  0  0  0  0  0  0
  -22.4159  -10.3610   21.6913 C   0  0  0  0  0  0  0  0  0  0  0  0
  -24.0700   -9.4167   20.2050 C   0  0  0  0  0  0  0  0  0  0  0  0
  -31.9368  -29.8053   14.5809 C   0  0  0  0  0  0  0  0  0  0  0  0
  -30.6062  -27.6050   15.6461 C   0  0  0  0  0  0  0  0  0  0  0  0
  -25.5883  -25.0730   18.0783 C   0  0  0  0  0  0  0  0  0  0  0  0
  -21.8596   -9.0954   21.8765 C   0  0  0  0  0  0  0  0  0  0  0  0
  -23.5138   -8.1510   20.3901 C   0  0  0  0  0  0  0  0  0  0  0  0
  -25.3703  -23.8570   18.7244 C   0  0  0  0  0  0  0  0  0  0  0  0
  -23.5838   -5.7203   22.7369 C   0  0  0  0  0  0  0  0  0  0  0  0
  -24.4575   -4.6572   22.9651 C   0  0  0  0  0  0  0  0  0  0  0  0
  -25.6318  -24.9508   20.8585 C   0  0  0  0  0  0  0  0  0  0  0  0
  -29.7941  -20.7205   21.2000 C   0  0  0  0  0  0  0  0  0  0  0  0
  -23.6285   -3.5506   20.9838 C   0  0  0  0  0  0  0  0  0  0  0  0
  -23.5211  -10.5217   20.8555 C   0  0  0  0  0  0  0  0  0  0  0  0
  -25.1195  -12.4274   21.4222 C   0  0  0  0  0  0  0  0  0  0  0  0
  -31.5644  -29.8155   15.9344 C   0  0  0  0  0  0  0  0  0  0  0  0
  -25.8409  -26.2370   18.8185 C   0  0  0  0  0  0  0  0  0  0  0  0
  -30.9004  -28.6990   16.4775 C   0  0  0  0  0  0  0  0  0  0  0  0
  -25.8501  -26.1809   20.2195 C   0  0  0  0  0  0  0  0  0  0  0  0
  -28.6234  -21.0912   21.8616 C   0  0  0  0  0  0  0  0  0  0  0  0
  -29.7457  -19.7796   20.1713 C   0  0  0  0  0  0  0  0  0  0  0  0
  -27.4045  -20.5211   21.4947 C   0  0  0  0  0  0  0  0  0  0  0  0
  -27.3561  -19.5802   20.4660 C   0  0  0  0  0  0  0  0  0  0  0  0
  -22.4086   -7.9903   21.2259 C   0  0  0  0  0  0  0  0  0  0  0  0
  -25.3949  -23.7951   20.1146 C   0  0  0  0  0  0  0  0  0  0  0  0
  -22.7324   -5.6985   21.6322 C   0  0  0  0  0  0  0  0  0  0  0  0
  -28.5268  -19.2095   19.8044 C   0  0  0  0  0  0  0  0  0  0  0  0
  -24.4799   -3.5724   22.0886 C   0  0  0  0  0  0  0  0  0  0  0  0
  -22.7548   -4.6137   20.7556 C   0  0  0  0  0  0  0  0  0  0  0  0
  -24.0958  -11.8289   20.6634 C   0  0  0  0  0  0  0  0  0  0  0  0
  -25.3021  -13.6587   20.8417 C   0  0  0  0  0  0  0  0  0  0  0  0
  -25.8409  -11.9159   22.5507 C   0  0  0  0  0  0  0  0  0  0  0  0
  -28.2747  -28.2694   19.0415 C   0  0  0  0  0  0  0  0  0  0  0  0
  -26.2147  -29.9223   20.9249 C   0  0  0  0  0  0  0  0  0  0  0  0
  -23.4745  -29.8757   22.9585 C   0  0  0  0  0  0  0  0  0  0  0  0
  -25.8483  -16.8701   16.3102 C   0  0  0  0  0  0  0  0  0  0  0  0
  -31.9497  -31.0003   16.7844 C   0  0  0  0  0  0  0  0  0  0  0  0
  -26.0476  -27.5461   18.1072 C   0  0  0  0  0  0  0  0  0  0  0  0
  -26.0967  -27.4057   21.0606 C   0  0  0  0  0  0  0  0  0  0  0  0
  -31.1938  -31.0713   18.1087 C   0  0  0  0  0  0  0  0  0  0  0  0
  -22.5401  -16.1116   17.3861 C   0  0  0  0  0  0  0  0  0  0  0  0
  -31.1821  -29.7069   18.7906 C   0  0  0  0  0  0  0  0  0  0  0  0
  -22.7340  -14.9756   18.3919 C   0  0  0  0  0  0  0  0  0  0  0  0
  -23.5263  -16.0113   16.2244 C   0  0  0  0  0  0  0  0  0  0  0  0
  -25.1376  -14.7829   17.6274 C   0  0  0  0  0  0  0  0  0  0  0  0
  -30.4634  -28.6641   17.9259 C   0  0  1  0  0  0  0  0  0  0  0  0
  -26.8054  -28.5695   18.9474 C   0  0  1  0  0  0  0  0  0  0  0  0
  -24.2026  -14.8729   18.8457 C   0  0  2  0  0  0  0  0  0  0  0  0
  -31.0095  -19.3960   19.4747 C   0  0  0  0  0  0  0  0  0  0  0  0
  -26.0521  -18.9658   20.0674 C   0  0  0  0  0  0  0  0  0  0  0  0
  -29.3009  -23.4226   22.4879 C   0  0  0  0  0  0  0  0  0  0  0  0
  -26.3800  -19.1185   24.0114 C   0  0  0  0  0  0  0  0  0  0  0  0
  -22.0530  -31.3748   24.3832 C   0  0  0  0  0  0  0  0  0  0  0  0
  -28.3836  -29.9353   23.0710 C   0  0  0  0  0  0  0  0  0  0  0  0
  -26.6296  -30.5696   24.7411 C   0  0  0  0  0  0  0  0  0  0  0  0
  -27.1398  -32.0917   22.8318 C   0  0  0  0  0  0  0  0  0  0  0  0
  -21.0606  -29.3191   21.3393 C   0  0  0  0  0  0  0  0  0  0  0  0
  -28.7026  -22.1010   22.9597 C   0  0  0  0  0  0  0  0  0  0  0  0
  -26.1700  -20.6005   23.7247 C   0  0  0  0  0  0  0  0  0  0  0  0
  -28.2069  -17.6163   16.5086 C   0  0  0  0  0  0  0  0  0  0  0  0
  -28.2792  -18.7826   17.4779 C   0  0  0  0  0  0  0  0  0  0  0  0
  -25.8271  -22.4214   22.0072 C   0  0  0  0  0  0  0  0  0  1  0  0
  -26.1276  -20.9277   22.2173 C   0  0  1  0  0  0  0  0  0  0  0  0
  -25.8907  -29.9365   22.3993 C   0  0  1  0  0  0  0  0  0  0  0  0
  -22.2401  -30.7580   23.0058 C   0  0  2  0  0  0  0  0  0  0  0  0
  -27.0082  -30.6096   23.2452 C   0  0  0  0  0  0  0  0  0  0  0  0
  -23.6585  -12.6154   19.6764 N   0  0  0  0  0  0  0  0  0  0  0  0
  -24.4111  -13.7207   19.8109 N   0  0  0  0  0  0  0  0  0  0  0  0
  -26.2996  -28.6609   20.3185 N   0  0  0  0  0  0  0  0  0  0  0  0
  -24.9008  -15.9186   16.7226 N   0  0  0  0  0  0  0  0  0  0  0  0
  -26.1362  -14.6837   21.1176 N   0  0  0  0  0  0  0  0  0  0  0  0
  -25.5273  -10.6324   23.0184 N   0  0  0  0  0  0  0  0  0  0  0  0
  -29.0288  -28.8264   18.0263 N   0  0  0  0  0  0  0  0  0  0  0  0
  -24.5829  -30.5711   22.5236 N   0  0  0  0  0  0  0  0  0  0  0  0
  -27.1256  -16.7131   16.8342 N   0  0  0  0  0  0  0  0  0  0  0  0
  -21.0227  -29.9636   22.6773 N   0  3  0  0  0  0  0  0  0  0  0  0
  -26.7258  -12.5839   23.1375 O   0  0  0  0  0  0  0  0  0  0  0  0
  -28.6934  -27.5846   19.9675 O   0  0  0  0  0  0  0  0  0  0  0  0
  -26.3793  -30.9911   20.3315 O   0  0  0  0  0  0  0  0  0  0  0  0
  -23.4580  -28.6894   23.2792 O   0  0  0  0  0  0  0  0  0  0  0  0
  -25.5747  -17.7943   15.5370 O   0  0  0  0  0  0  0  0  0  0  0  0
  -21.8662   -6.7551   21.4065 O   0  0  0  0  0  0  0  0  0  0  0  0
  -25.1831  -22.6093   20.7477 O   0  0  0  0  0  0  0  0  0  1  0  0
  -28.4815  -18.2881   18.7994 O   0  0  0  0  0  0  0  0  0  0  0  0
  -25.3200   -2.5522   22.3070 F   0  0  0  0  0  0  0  0  0  0  0  0
  -21.9401   -4.5878   19.6920 F   0  0  0  0  0  0  0  0  0  0  0  0
  1  2  1  0  0  0  0
  1  5  2  0  0  0  0
  2  6  2  0  0  0  0
  3  8  2  0  0  0  0
  3 16  1  0  0  0  0
  4  9  1  0  0  0  0
  4 16  2  0  0  0  0
  5 18  1  0  0  0  0
  6 20  1  0  0  0  0
  7 10  2  0  0  0  0
  7 19  1  0  0  0  0
  8 26  1  0  0  0  0
  9 26  2  0  0  0  0
 10 27  1  0  0  0  0
 11 12  2  0  0  0  0
 11 28  1  0  0  0  0
 12 30  1  0  0  0  0
 13 21  1  0  0  0  0
 13 27  2  0  0  0  0
 14 22  1  0  0  0  0
 14 23  2  0  0  0  0
 15 30  2  0  0  0  0
 15 31  1  0  0  0  0
 16 32  1  0  0  0  0
 17 32  1  0  0  0  0
 17 33  2  0  0  0  0
 17 34  1  0  0  0  0
 18 20  2  0  0  0  0
 18 39  1  0  0  0  0
 19 21  2  0  0  0  0
 19 40  1  0  0  0  0
 20 48  1  0  0  0  0
 21 41  1  0  0  0  0
 22 24  2  0  0  0  0
 22 60  1  0  0  0  0
 23 29  1  0  0  0  0
 23 51  1  0  0  0  0
 24 25  1  0  0  0  0
 24 65  1  0  0  0  0
 25 29  2  0  0  0  0
 25 52  1  0  0  0  0
 26 84  1  0  0  0  0
 27 85  1  0  0  0  0
 28 31  2  0  0  0  0
 28 84  1  0  0  0  0
 29 86  1  0  0  0  0
 30 87  1  0  0  0  0
 31 88  1  0  0  0  0
 32 69  2  0  0  0  0
 33 70  1  0  0  0  0
 33 73  1  0  0  0  0
 34 74  1  0  0  0  0
 34 79  2  0  0  0  0
 35 49  1  0  0  0  0
 35 75  1  0  0  0  0
 35 80  2  0  0  0  0
 36 66  1  0  0  0  0
 36 71  1  0  0  0  0
 36 81  2  0  0  0  0
 37 67  1  0  0  0  0
 37 76  1  0  0  0  0
 37 82  2  0  0  0  0
 38 72  1  0  0  0  0
 38 77  1  0  0  0  0
 38 83  2  0  0  0  0
 39 42  1  0  0  0  0
 40 49  1  0  0  0  0
 41 71  1  0  0  0  0
 42 44  1  0  0  0  0
 43 45  1  0  0  0  0
 43 46  1  0  0  0  0
 44 48  1  0  0  0  0
 45 50  1  0  0  0  0
 46 72  1  0  0  0  0
 47 50  1  0  0  0  0
 47 72  1  0  0  0  0
 48 75  1  0  0  0  0
 49 71  1  0  0  0  0
 50 70  1  0  0  0  0
 53 60  1  0  0  0  0
 54 61  1  0  0  0  0
 55 67  1  0  0  0  0
 56 68  1  0  0  0  0
 57 68  1  0  0  0  0
 58 68  1  0  0  0  0
 59 78  1  0  0  0  0
 61 65  1  0  0  0  0
 62 63  1  0  0  0  0
 62 77  1  0  0  0  0
 63 86  1  0  0  0  0
 64 65  1  0  0  0  0
 64 85  1  0  0  0  0
 66 68  1  0  0  0  0
 66 76  1  0  0  0  0
 67 78  1  0  0  0  0
 69 70  1  0  0  0  0
M  CHG  1  78   1
M  ISO  4  38 100  64 101  77 100  85 101
M  END
> <Batch ID>
0144

> <Smiles>
CCc1cc(C)c(OCC[100NH:0][100C:0](=O)N2CCCC(n3nc(-c4ccc(Oc5ccc(F)cc5F)cc4)c(C(N)=O)c3N)C2)c(C)c1C(CC)[101CH2:1][101O:1]c1ccc2c(c1)CN(C(=O)C(NC(=O)C(C)NC)C(C)(C)C)C(C(=O)NC1CCCc3ccccc31)C2

> <Shape>
0.207

> <Color>
0.103

> <Negative vol penalty>
0.000

$$$$

  -OEChem-04052321263D

 86 94  0     1  0  0  0  0  0999 V2000
  -29.4221  -33.8865   14.5216 C   0  0  0  0  0  0  0  0  0  0  0  0
  -29.4511  -32.5171   14.7650 C   0  0  0  0  0  0  0  0  0  0  0  0
  -22.9688   -9.7584   20.2209 C   0  0  0  0  0  0  0  0  0  0  0  0
  -24.4176   -9.0464   22.0184 C   0  0  0  0  0  0  0  0  0  0  0  0
  -29.3806  -34.7824   15.5892 C   0  0  0  0  0  0  0  0  0  0  0  0
  -29.4397  -32.0427   16.0762 C   0  0  0  0  0  0  0  0  0  0  0  0
  -26.7544  -26.9317   18.1189 C   0  0  0  0  0  0  0  0  0  0  0  0
  -22.3730   -8.4973   20.2015 C   0  0  0  0  0  0  0  0  0  0  0  0
  -23.8219   -7.7853   21.9990 C   0  0  0  0  0  0  0  0  0  0  0  0
  -27.2492  -25.6573   18.3928 C   0  0  0  0  0  0  0  0  0  0  0  0
  -20.9744   -6.3599   23.1307 C   0  0  0  0  0  0  0  0  0  0  0  0
  -20.6301   -5.7887   24.3557 C   0  0  0  0  0  0  0  0  0  0  0  0
  -27.4750  -26.2517   20.7198 C   0  0  0  0  0  0  0  0  0  0  0  0
  -30.0740  -21.7182   19.7000 C   0  0  0  0  0  0  0  0  0  0  0  0
  -27.8620  -20.7670   19.5029 C   0  0  0  0  0  0  0  0  0  0  0  0
  -22.0909   -3.9203   23.8950 C   0  0  0  0  0  0  0  0  0  0  0  0
  -23.9911  -10.0329   21.1293 C   0  0  0  0  0  0  0  0  0  0  0  0
  -24.2116  -12.4513   21.9107 C   0  0  0  0  0  0  0  0  0  0  0  0
  -29.3589  -34.3185   16.9139 C   0  0  0  0  0  0  0  0  0  0  0  0
  -26.6263  -27.8808   19.1433 C   0  0  0  0  0  0  0  0  0  0  0  0
  -29.3992  -32.9333   17.1625 C   0  0  0  0  0  0  0  0  0  0  0  0
  -26.9760  -27.5365   20.4568 C   0  0  0  0  0  0  0  0  0  0  0  0
  -28.7260  -21.8538   19.3683 C   0  0  0  0  0  0  0  0  0  0  0  0
  -30.5581  -20.4959   20.1662 C   0  0  0  0  0  0  0  0  0  0  0  0
  -28.3460  -19.5447   19.9691 C   0  0  0  0  0  0  0  0  0  0  0  0
  -22.7995   -7.5108   21.0906 C   0  0  0  0  0  0  0  0  0  0  0  0
  -27.6122  -25.3181   19.6929 C   0  0  0  0  0  0  0  0  0  0  0  0
  -21.8769   -5.7114   22.2877 C   0  0  0  0  0  0  0  0  0  0  0  0
  -29.6940  -19.4091   20.3007 C   0  0  0  0  0  0  0  0  0  0  0  0
  -21.1884   -4.5689   24.7379 C   0  0  0  0  0  0  0  0  0  0  0  0
  -22.4352   -4.4916   22.6699 C   0  0  0  0  0  0  0  0  0  0  0  0
  -24.6073  -11.3352   21.1494 C   0  0  0  0  0  0  0  0  0  0  0  0
  -25.1119  -13.4327   21.5749 C   0  0  0  0  0  0  0  0  0  0  0  0
  -23.1272  -12.5885   22.8386 C   0  0  0  0  0  0  0  0  0  0  0  0
  -27.8902  -30.7389   19.7240 C   0  0  0  0  0  0  0  0  0  0  0  0
  -25.7973  -30.7291   22.2023 C   0  0  0  0  0  0  0  0  0  0  0  0
  -23.8996  -28.9172   24.3845 C   0  0  0  0  0  0  0  0  0  0  0  0
  -30.3428  -15.1060   20.5838 C   0  0  0  0  0  0  0  0  0  0  0  0
  -29.3616  -35.3263   18.0361 C   0  0  0  0  0  0  0  0  0  0  0  0
  -26.0659  -29.2424   18.8362 C   0  0  0  0  0  0  0  0  0  0  0  0
  -26.8385  -28.5125   21.5957 C   0  0  0  0  0  0  0  0  0  0  0  0
  -28.9736  -34.7333   19.3882 C   0  0  0  0  0  0  0  0  0  0  0  0
  -28.5678  -13.6075   17.8855 C   0  0  0  0  0  0  0  0  0  0  0  0
  -29.7211  -33.4262   19.6322 C   0  0  0  0  0  0  0  0  0  0  0  0
  -27.3506  -12.9699   18.5576 C   0  0  0  0  0  0  0  0  0  0  0  0
  -29.8130  -13.5107   18.7642 C   0  0  0  0  0  0  0  0  0  0  0  0
  -28.4323  -13.4035   20.8028 C   0  0  0  0  0  0  0  0  0  0  0  0
  -29.3630  -32.3794   18.5704 C   0  0  1  0  0  0  0  0  0  0  0  0
  -26.4610  -30.2971   19.8651 C   0  0  1  0  0  0  0  0  0  0  0  0
  -27.1392  -13.5262   19.9786 C   0  0  2  0  0  0  0  0  0  0  0  0
  -32.0044  -20.3704   20.5163 C   0  0  0  0  0  0  0  0  0  0  0  0
  -27.7562  -17.4964   17.7332 C   0  0  0  0  0  0  0  0  0  0  0  0
  -26.3077  -18.6846   21.1508 C   0  0  0  0  0  0  0  0  0  0  0  0
  -22.3251  -29.1870   26.3199 C   0  0  0  0  0  0  0  0  0  0  0  0
  -28.1593  -31.3356   24.0362 C   0  0  0  0  0  0  0  0  0  0  0  0
  -26.7342  -30.6587   25.9801 C   0  0  0  0  0  0  0  0  0  0  0  0
  -26.0720  -32.6060   24.5687 C   0  0  0  0  0  0  0  0  0  0  0  0
  -21.6844  -27.6179   22.9135 C   0  0  0  0  0  0  0  0  0  0  0  0
  -28.2052  -23.1684   18.8664 C   0  0  0  0  0  0  0  0  0  1  0  0
  -26.7414  -17.9562   18.7730 C   0  0  0  0  0  0  0  0  0  0  0  0
  -30.7426  -16.6481   22.4867 C   0  0  0  0  0  0  0  0  0  0  0  0
  -30.1330  -18.0011   22.1664 C   0  0  0  0  0  0  0  0  0  0  0  0
  -27.4055  -18.3930   20.1067 C   0  0  1  0  0  0  0  0  0  0  0  0
  -25.8432  -30.2663   23.6385 C   0  0  1  0  0  0  0  0  0  0  0  0
  -22.4487  -29.0522   24.8102 C   0  0  2  0  0  0  0  0  0  0  0  0
  -26.7067  -31.1987   24.5343 C   0  0  0  0  0  0  0  0  0  0  0  0
  -25.6757  -11.5836   20.3872 N   0  0  0  0  0  0  0  0  0  0  0  0
  -25.9589  -12.8670   20.6679 N   0  0  0  0  0  0  0  0  0  0  0  0
  -26.2917  -29.8333   21.2436 N   0  0  0  0  0  0  0  0  0  0  0  0
  -29.5461  -14.0564   20.0972 N   0  0  0  0  0  0  0  0  0  0  0  0
  -25.2536  -14.7158   21.9699 N   0  0  0  0  0  0  0  0  0  0  0  0
  -22.2988  -11.4812   23.0667 N   0  0  0  0  0  0  0  0  0  0  0  0
  -28.0688  -31.7960   18.8521 N   0  0  0  0  0  0  0  0  0  0  0  0
  -24.4557  -30.1394   24.0710 N   0  0  0  0  0  0  0  0  0  0  0  0
  -30.0185  -15.5687   21.8532 N   0  0  0  0  0  0  0  0  0  0  0  0
  -21.6692  -27.8573   24.3796 N   0  3  0  0  0  0  0  0  0  0  0  0
  -22.8896  -13.6662   23.4351 O   0  0  0  0  0  0  0  0  0  0  0  0
  -28.7659  -30.1643   20.3601 O   0  0  0  0  0  0  0  0  0  0  0  0
  -25.3332  -31.8415   21.9399 O   0  0  0  0  0  0  0  0  0  0  0  0
  -24.4824  -27.8361   24.3387 O   0  0  0  0  0  0  0  0  0  0  0  0
  -31.2708  -15.5980   19.9328 O   0  0  0  0  0  0  0  0  0  0  0  0
  -22.2183   -6.2802   21.0722 O   0  0  0  0  0  0  0  0  0  0  0  0
  -28.0960  -24.0751   19.9628 O   0  0  0  0  0  0  0  0  0  1  0  0
  -30.1673  -18.2142   20.7573 O   0  0  0  0  0  0  0  0  0  0  0  0
  -20.8588   -4.0212   25.9150 F   0  0  0  0  0  0  0  0  0  0  0  0
  -23.3037   -3.8644   21.8648 F   0  0  0  0  0  0  0  0  0  0  0  0
  1  2  1  0  0  0  0
  1  5  2  0  0  0  0
  2  6  2  0  0  0  0
  3  8  2  0  0  0  0
  3 17  1  0  0  0  0
  4  9  1  0  0  0  0
  4 17  2  0  0  0  0
  5 19  1  0  0  0  0
  6 21  1  0  0  0  0
  7 10  2  0  0  0  0
  7 20  1  0  0  0  0
  8 26  1  0  0  0  0
  9 26  2  0  0  0  0
 10 27  1  0  0  0  0
 11 12  2  0  0  0  0
 11 28  1  0  0  0  0
 12 30  1  0  0  0  0
 13 22  1  0  0  0  0
 13 27  2  0  0  0  0
 14 23  1  0  0  0  0
 14 24  2  0  0  0  0
 15 23  2  0  0  0  0
 15 25  1  0  0  0  0
 16 30  2  0  0  0  0
 16 31  1  0  0  0  0
 17 32  1  0  0  0  0
 18 32  1  0  0  0  0
 18 33  2  0  0  0  0
 18 34  1  0  0  0  0
 19 21  2  0  0  0  0
 19 39  1  0  0  0  0
 20 22  2  0  0  0  0
 20 40  1  0  0  0  0
 21 48  1  0  0  0  0
 22 41  1  0  0  0  0
 23 59  1  0  0  0  0
 24 29  1  0  0  0  0
 24 51  1  0  0  0  0
 25 29  2  0  0  0  0
 25 63  1  0  0  0  0
 26 82  1  0  0  0  0
 27 83  1  0  0  0  0
 28 31  2  0  0  0  0
 28 82  1  0  0  0  0
 29 84  1  0  0  0  0
 30 85  1  0  0  0  0
 31 86  1  0  0  0  0
 32 67  2  0  0  0  0
 33 68  1  0  0  0  0
 33 71  1  0  0  0  0
 34 72  1  0  0  0  0
 34 77  2  0  0  0  0
 35 49  1  0  0  0  0
 35 73  1  0  0  0  0
 35 78  2  0  0  0  0
 36 64  1  0  0  0  0
 36 69  1  0  0  0  0
 36 79  2  0  0  0  0
 37 65  1  0  0  0  0
 37 74  1  0  0  0  0
 37 80  2  0  0  0  0
 38 70  1  0  0  0  0
 38 75  1  0  0  0  0
 38 81  2  0  0  0  0
 39 42  1  0  0  0  0
 40 49  1  0  0  0  0
 41 69  1  0  0  0  0
 42 44  1  0  0  0  0
 43 45  1  0  0  0  0
 43 46  1  0  0  0  0
 44 48  1  0  0  0  0
 45 50  1  0  0  0  0
 46 70  1  0  0  0  0
 47 50  1  0  0  0  0
 47 70  1  0  0  0  0
 48 73  1  0  0  0  0
 49 69  1  0  0  0  0
 50 68  1  0  0  0  0
 52 60  1  0  0  0  0
 53 63  1  0  0  0  0
 54 65  1  0  0  0  0
 55 66  1  0  0  0  0
 56 66  1  0  0  0  0
 57 66  1  0  0  0  0
 58 76  1  0  0  0  0
 59 83  1  0  0  0  0
 60 63  1  0  0  0  0
 61 62  1  0  0  0  0
 61 75  1  0  0  0  0
 62 84  1  0  0  0  0
 64 66  1  0  0  0  0
 64 74  1  0  0  0  0
 65 76  1  0  0  0  0
 67 68  1  0  0  0  0
M  CHG  1  76   1
M  ISO  4  38 100  59 101  75 100  83 101
M  END
> <Batch ID>
0144

> <Smiles>
CCC(C)c1cc([101CH2:1][101O:1]c2ccc3c(c2)CN(C(=O)C(NC(=O)C(C)NC)C(C)(C)C)C(C(=O)NC2CCCc4ccccc42)C3)cc(C)c1OCC[100NH:0][100C:0](=O)N1CCCC(n2nc(-c3ccc(Oc4ccc(F)cc4F)cc3)c(C(N)=O)c2N)C1

> <Shape>
0.332

> <Color>
0.125

> <Negative vol penalty>
0.000

$$$$

  -OEChem-04052321263D

 89 98  0     1  0  0  0  0  0999 V2000
  -25.6785  -31.2176   17.5161 C   0  0  0  0  0  0  0  0  0  0  0  0
  -26.7186  -30.4525   18.0340 C   0  0  0  0  0  0  0  0  0  0  0  0
  -23.0578   -9.8408   19.9667 C   0  0  0  0  0  0  0  0  0  0  0  0
  -23.8141   -9.8736   22.2610 C   0  0  0  0  0  0  0  0  0  0  0  0
  -24.6054  -31.5757   18.3310 C   0  0  0  0  0  0  0  0  0  0  0  0
  -26.6868  -30.0461   19.3675 C   0  0  0  0  0  0  0  0  0  0  0  0
  -27.9690  -25.1814   19.9469 C   0  0  0  0  0  0  0  0  0  0  0  0
  -22.2997   -8.7006   20.2328 C   0  0  0  0  0  0  0  0  0  0  0  0
  -23.0560   -8.7333   22.5272 C   0  0  0  0  0  0  0  0  0  0  0  0
  -29.3269  -24.8699   19.8919 C   0  0  0  0  0  0  0  0  0  0  0  0
  -19.8176   -7.9835   23.1361 C   0  0  0  0  0  0  0  0  0  0  0  0
  -19.0584   -7.9705   24.3062 C   0  0  0  0  0  0  0  0  0  0  0  0
  -30.7479  -18.6344   23.4775 C   0  0  0  0  0  0  0  0  0  0  0  0
  -29.4006  -24.7929   22.3018 C   0  0  0  0  0  0  0  0  0  0  0  0
  -32.5272  -17.0449   23.8580 C   0  0  0  0  0  0  0  0  0  0  0  0
  -20.2753   -6.0297   25.0741 C   0  0  0  0  0  0  0  0  0  0  0  0
  -23.8150  -10.4273   20.9808 C   0  0  0  0  0  0  0  0  0  0  0  0
  -24.1873  -12.9461   20.8231 C   0  0  0  0  0  0  0  0  0  0  0  0
  -24.5556  -31.1653   19.6725 C   0  0  0  0  0  0  0  0  0  0  0  0
  -27.3181  -25.3119   21.1821 C   0  0  0  0  0  0  0  0  0  0  0  0
  -25.6126  -30.4002   20.2014 C   0  0  0  0  0  0  0  0  0  0  0  0
  -30.1466  -17.7475   22.5845 C   0  0  0  0  0  0  0  0  0  0  0  0
  -28.0338  -25.1035   22.3697 C   0  0  0  0  0  0  0  0  0  0  0  0
  -31.9383  -18.2831   24.1142 C   0  0  0  0  0  0  0  0  0  0  0  0
  -30.7355  -16.5093   22.3283 C   0  0  0  0  0  0  0  0  0  0  0  0
  -22.2988   -8.1469   21.5131 C   0  0  0  0  0  0  0  0  0  0  0  0
  -30.0435  -24.6785   21.0695 C   0  0  0  0  0  0  0  0  0  0  0  0
  -20.8056   -7.0196   22.9350 C   0  0  0  0  0  0  0  0  0  0  0  0
  -31.9258  -16.1580   22.9650 C   0  0  0  0  0  0  0  0  0  0  0  0
  -19.2872   -6.9936   25.2752 C   0  0  0  0  0  0  0  0  0  0  0  0
  -21.0344   -6.0427   23.9040 C   0  0  0  0  0  0  0  0  0  0  0  0
  -24.5987  -11.6048   20.7063 C   0  0  0  0  0  0  0  0  0  0  0  0
  -25.2890  -13.6768   20.4504 C   0  0  0  0  0  0  0  0  0  0  0  0
  -22.9225  -13.4834   21.2319 C   0  0  0  0  0  0  0  0  0  0  0  0
  -25.8161  -27.6743   22.6876 C   0  0  0  0  0  0  0  0  0  0  0  0
  -25.1142  -25.3410   24.8289 C   0  0  0  0  0  0  0  0  0  0  0  0
  -25.9252  -22.3183   26.1899 C   0  0  0  0  0  0  0  0  0  0  0  0
  -30.7671  -14.6593   20.6187 C   0  0  0  0  0  0  0  0  0  0  0  0
  -23.3980  -31.6169   20.5274 C   0  0  0  0  0  0  0  0  0  0  0  0
  -25.8469  -25.6219   21.2237 C   0  0  0  0  0  0  0  0  0  0  0  0
  -27.3771  -25.2121   23.7208 C   0  0  0  0  0  0  0  0  0  0  0  0
  -23.2579  -30.8300   21.8279 C   0  0  0  0  0  0  0  0  0  0  0  0
  -29.6274  -12.2233   18.2854 C   0  0  0  0  0  0  0  0  0  0  0  0
  -28.7991  -18.1288   20.4136 C   0  0  0  0  0  0  0  0  0  0  0  0
  -28.8310  -19.4378   21.1387 C   0  0  0  0  0  0  0  0  0  0  0  0
  -24.6120  -30.6914   22.5165 C   0  0  0  0  0  0  0  0  0  0  0  0
  -28.1837  -11.9556   18.7168 C   0  0  0  0  0  0  0  0  0  0  0  0
  -30.5433  -12.4594   19.4850 C   0  0  0  0  0  0  0  0  0  0  0  0
  -28.6431  -13.2275   20.8518 C   0  0  0  0  0  0  0  0  0  0  0  0
  -28.8723  -18.1502   21.9166 C   0  0  0  0  0  0  0  0  0  0  0  0
  -25.6021  -29.9192   21.6362 C   0  0  1  0  0  0  0  0  0  0  0  0
  -25.4030  -26.2364   22.5476 C   0  0  1  0  0  0  0  0  0  0  0  0
  -27.6701  -13.0481   19.6750 C   0  0  2  0  0  0  0  0  0  0  0  0
  -25.1858  -20.6875   27.9481 C   0  0  0  0  0  0  0  0  0  0  0  0
  -32.5890  -21.7749   20.4499 C   0  0  0  0  0  0  0  0  0  0  0  0
  -26.2779  -27.1501   26.9929 C   0  0  0  0  0  0  0  0  0  0  0  0
  -26.3898  -25.1557   28.5022 C   0  0  0  0  0  0  0  0  0  0  0  0
  -24.1841  -25.9509   27.6505 C   0  0  0  0  0  0  0  0  0  0  0  0
  -25.4709  -20.1871   24.1872 C   0  0  0  0  0  0  0  0  0  0  0  0
  -32.1393  -13.8684   23.5718 C   0  0  0  0  0  0  0  0  0  0  0  0
  -32.5878  -19.2375   25.0741 C   0  0  0  0  0  0  0  0  0  0  0  0
  -33.5803  -20.1920   24.4179 C   0  0  0  0  0  0  0  0  0  0  0  0
  -33.7823  -21.9812   22.6867 C   0  0  0  0  0  0  0  0  0  0  0  0
  -31.8941  -23.5782   22.0798 C   0  0  0  0  0  0  0  0  0  1  0  0
  -25.7791  -24.7918   26.0679 C   0  0  1  0  0  0  0  0  0  0  0  0
  -25.0855  -21.0884   26.4846 C   0  0  2  0  0  0  0  0  0  0  0  0
  -33.0567  -22.7240   21.5589 C   0  0  2  0  0  0  0  0  0  0  0  0
  -25.6708  -25.7619   27.2781 C   0  0  0  0  0  0  0  0  0  0  0  0
  -25.8630  -11.4875   20.2918 N   0  0  0  0  0  0  0  0  0  0  0  0
  -26.2555  -12.7643   20.1446 N   0  0  0  0  0  0  0  0  0  0  0  0
  -25.9382  -25.5234   23.7093 N   0  0  0  0  0  0  0  0  0  0  0  0
  -29.9954  -13.5100   20.3457 N   0  0  0  0  0  0  0  0  0  0  0  0
  -25.5155  -15.0044   20.3575 N   0  0  0  0  0  0  0  0  0  0  0  0
  -21.8992  -12.5916   21.5812 N   0  0  0  0  0  0  0  0  0  0  0  0
  -30.1296  -15.6044   21.4218 N   0  0  0  0  0  0  0  0  0  0  0  0
  -25.3276  -28.4994   21.6925 N   0  0  0  0  0  0  0  0  0  0  0  0
  -25.1881  -23.4783   26.3003 N   0  0  0  0  0  0  0  0  0  0  0  0
  -25.5389  -19.9397   25.6504 N   0  3  0  0  0  0  0  0  0  0  0  0
  -32.9120  -20.9774   23.3439 N   0  3  0  0  0  0  0  0  0  0  0  0
  -22.7010  -14.7175   21.2701 O   0  0  0  0  0  0  0  0  0  0  0  0
  -26.5243  -28.0105   23.6294 O   0  0  0  0  0  0  0  0  0  0  0  0
  -23.9066  -25.5919   24.8514 O   0  0  0  0  0  0  0  0  0  0  0  0
  -27.1167  -22.2563   25.8952 O   0  0  0  0  0  0  0  0  0  0  0  0
  -31.8988  -14.8074   20.1505 O   0  0  0  0  0  0  0  0  0  0  0  0
  -21.5590   -7.0344   21.7732 O   0  0  0  0  0  0  0  0  0  0  0  0
  -32.5197  -14.9537   22.7290 O   0  0  0  0  0  0  0  0  0  0  0  0
  -31.3691  -24.3750   21.0188 O   0  0  0  0  0  0  0  0  0  1  0  0
  -18.5592   -6.9821   26.3994 F   0  0  0  0  0  0  0  0  0  0  0  0
  -21.9830   -5.1148   23.7169 F   0  0  0  0  0  0  0  0  0  0  0  0
  1  2  1  0  0  0  0
  1  5  2  0  0  0  0
  2  6  2  0  0  0  0
  3  8  2  0  0  0  0
  3 17  1  0  0  0  0
  4  9  1  0  0  0  0
  4 17  2  0  0  0  0
  5 19  1  0  0  0  0
  6 21  1  0  0  0  0
  7 10  2  0  0  0  0
  7 20  1  0  0  0  0
  8 26  1  0  0  0  0
  9 26  2  0  0  0  0
 10 27  1  0  0  0  0
 11 12  2  0  0  0  0
 11 28  1  0  0  0  0
 12 30  1  0  0  0  0
 13 22  1  0  0  0  0
 13 24  2  0  0  0  0
 14 23  1  0  0  0  0
 14 27  2  0  0  0  0
 15 24  1  0  0  0  0
 15 29  2  0  0  0  0
 16 30  2  0  0  0  0
 16 31  1  0  0  0  0
 17 32  1  0  0  0  0
 18 32  1  0  0  0  0
 18 33  2  0  0  0  0
 18 34  1  0  0  0  0
 19 21  2  0  0  0  0
 19 39  1  0  0  0  0
 20 23  2  0  0  0  0
 20 40  1  0  0  0  0
 21 51  1  0  0  0  0
 22 25  2  0  0  0  0
 22 50  1  0  0  0  0
 23 41  1  0  0  0  0
 24 61  1  0  0  0  0
 25 29  1  0  0  0  0
 25 75  1  0  0  0  0
 26 85  1  0  0  0  0
 27 87  1  0  0  0  0
 28 31  2  0  0  0  0
 28 85  1  0  0  0  0
 29 86  1  0  0  0  0
 30 88  1  0  0  0  0
 31 89  1  0  0  0  0
 32 69  2  0  0  0  0
 33 70  1  0  0  0  0
 33 73  1  0  0  0  0
 34 74  1  0  0  0  0
 34 80  2  0  0  0  0
 35 52  1  0  0  0  0
 35 76  1  0  0  0  0
 35 81  2  0  0  0  0
 36 65  1  0  0  0  0
 36 71  1  0  0  0  0
 36 82  2  0  0  0  0
 37 66  1  0  0  0  0
 37 77  1  0  0  0  0
 37 83  2  0  0  0  0
 38 72  1  0  0  0  0
 38 75  1  0  0  0  0
 38 84  2  0  0  0  0
 39 42  1  0  0  0  0
 40 52  1  0  0  0  0
 41 71  1  0  0  0  0
 42 46  1  0  0  0  0
 43 47  1  0  0  0  0
 43 48  1  0  0  0  0
 44 45  1  0  0  0  0
 44 50  1  0  0  0  0
 45 50  1  0  0  0  0
 46 51  1  0  0  0  0
 47 53  1  0  0  0  0
 48 72  1  0  0  0  0
 49 53  1  0  0  0  0
 49 72  1  0  0  0  0
 51 76  1  0  0  0  0
 52 71  1  0  0  0  0
 53 70  1  0  0  0  0
 54 66  1  0  0  0  0
 55 67  1  0  0  0  0
 56 68  1  0  0  0  0
 57 68  1  0  0  0  0
 58 68  1  0  0  0  0
 59 78  1  0  0  0  0
 60 86  1  0  0  0  0
 61 62  1  0  0  0  0
 62 79  1  0  0  0  0
 63 67  1  0  0  0  0
 63 79  1  0  0  0  0
 64 67  1  0  0  0  0
 64 87  1  0  0  0  0
 65 68  1  0  0  0  0
 65 77  1  0  0  0  0
 66 78  1  0  0  0  0
 69 70  1  0  0  0  0
M  CHG  2  78   1  79   1
M  ISO  4  38 100  64 101  75 100  87 101
M  END
> <Batch ID>
0144

> <Smiles>
CNC(C)C(=O)NC(C(=O)N1Cc2cc([101O:1][101CH2:1]C(C)CNCCc3cc(OC)c([100NH:0][100C:0](=O)N4CCCC(n5nc(-c6ccc(Oc7ccc(F)cc7F)cc6)c(C(N)=O)c5N)C4)c(C4CC4)c3)ccc2CC1C(=O)NC1CCCc2ccccc21)C(C)(C)C

> <Shape>
0.244

> <Color>
0.198

> <Negative vol penalty>
0.000

$$$$

  -OEChem-04052321263D

 89 98  0     1  0  0  0  0  0999 V2000
  -24.0818  -37.4701   24.5298 C   0  0  0  0  0  0  0  0  0  0  0  0
  -23.2047  -36.3912   24.4828 C   0  0  0  0  0  0  0  0  0  0  0  0
  -26.2761  -12.8245   21.4206 C   0  0  0  0  0  0  0  0  0  0  0  0
  -26.1722  -13.2587   19.0462 C   0  0  0  0  0  0  0  0  0  0  0  0
  -25.0489  -37.6244   23.5375 C   0  0  0  0  0  0  0  0  0  0  0  0
  -23.2936  -35.4666   23.4428 C   0  0  0  0  0  0  0  0  0  0  0  0
  -22.3392  -28.5012   22.0683 C   0  0  0  0  0  0  0  0  0  0  0  0
  -25.0435  -12.1750   21.3558 C   0  0  0  0  0  0  0  0  0  0  0  0
  -24.9395  -12.6091   18.9814 C   0  0  0  0  0  0  0  0  0  0  0  0
  -21.6727  -27.6606   21.1778 C   0  0  0  0  0  0  0  0  0  0  0  0
  -23.8678   -9.1526   20.3988 C   0  0  0  0  0  0  0  0  0  0  0  0
  -23.7401   -7.9360   21.0690 C   0  0  0  0  0  0  0  0  0  0  0  0
  -23.4345  -27.9850   19.5623 C   0  0  0  0  0  0  0  0  0  0  0  0
  -23.9620  -21.0530   17.8008 C   0  0  0  0  0  0  0  0  0  0  0  0
  -25.6454  -22.4861   16.0994 C   0  0  0  0  0  0  0  0  0  0  0  0
  -21.9668   -8.8666   22.4205 C   0  0  0  0  0  0  0  0  0  0  0  0
  -26.8405  -13.3665   20.2658 C   0  0  0  0  0  0  0  0  0  0  0  0
  -29.3879  -13.4622   20.1709 C   0  0  0  0  0  0  0  0  0  0  0  0
  -25.1560  -36.6959   22.4901 C   0  0  0  0  0  0  0  0  0  0  0  0
  -23.5549  -29.0998   21.7077 C   0  0  0  0  0  0  0  0  0  0  0  0
  -24.2623  -35.6094   22.4348 C   0  0  0  0  0  0  0  0  0  0  0  0
  -24.1157  -28.8309   20.4509 C   0  0  0  0  0  0  0  0  0  0  0  0
  -23.5072  -22.2231   17.1929 C   0  0  0  0  0  0  0  0  0  0  0  0
  -24.3488  -22.9396   16.3422 C   0  0  0  0  0  0  0  0  0  0  0  0
  -25.2585  -20.5994   17.5580 C   0  0  0  0  0  0  0  0  0  0  0  0
  -24.3752  -12.0672   20.1362 C   0  0  0  0  0  0  0  0  0  0  0  0
  -22.2189  -27.4046   19.9235 C   0  0  0  0  0  0  0  0  0  0  0  0
  -23.0450  -10.2263   20.7394 C   0  0  0  0  0  0  0  0  0  0  0  0
  -26.1002  -21.3159   16.7073 C   0  0  0  0  0  0  0  0  0  0  0  0
  -22.7896   -7.7930   22.0798 C   0  0  0  0  0  0  0  0  0  0  0  0
  -22.0945  -10.0832   21.7503 C   0  0  0  0  0  0  0  0  0  0  0  0
  -28.1135  -14.0381   20.3322 C   0  0  0  0  0  0  0  0  0  0  0  0
  -30.2607  -14.5116   20.3237 C   0  0  0  0  0  0  0  0  0  0  0  0
  -29.7503  -12.1004   19.9065 C   0  0  0  0  0  0  0  0  0  0  0  0
  -24.5594  -32.0930   21.3396 C   0  0  0  0  0  0  0  0  0  0  0  0
  -27.4404  -30.6623   20.9204 C   0  0  0  0  0  0  0  0  0  0  0  0
  -29.1849  -27.8616   20.0489 C   0  0  0  0  0  0  0  0  0  0  0  0
  -29.7063  -20.4226   19.5463 C   0  0  0  0  0  0  0  0  0  0  0  0
  -26.1869  -36.9307   21.4145 C   0  0  0  0  0  0  0  0  0  0  0  0
  -24.2747  -29.9830   22.6897 C   0  0  0  0  0  0  0  0  0  0  0  0
  -25.4284  -29.4326   20.0231 C   0  0  0  0  0  0  0  0  0  0  0  0
  -26.4577  -35.7009   20.5515 C   0  0  0  0  0  0  0  0  0  0  0  0
  -30.6863  -18.7378   22.5259 C   0  0  0  0  0  0  0  0  0  0  0  0
  -25.1463  -35.0515   20.1211 C   0  0  0  0  0  0  0  0  0  0  0  0
  -30.2530  -17.2903   22.2870 C   0  0  0  0  0  0  0  0  0  0  0  0
  -23.9150  -17.6184   18.5387 C   0  0  0  0  0  0  0  0  0  0  0  0
  -25.1400  -17.1772   19.2839 C   0  0  0  0  0  0  0  0  0  0  0  0
  -29.6937  -19.7305   21.9248 C   0  0  0  0  0  0  0  0  0  0  0  0
  -28.9597  -18.0703   20.2578 C   0  0  0  0  0  0  0  0  0  0  0  0
  -24.3433  -34.5717   21.3363 C   0  0  1  0  0  0  0  0  0  0  0  0
  -25.2508  -30.9470   22.0225 C   0  0  1  0  0  0  0  0  0  0  0  0
  -29.9582  -17.0319   20.7972 C   0  0  2  0  0  0  0  0  0  0  0  0
  -24.8857  -18.6415   19.0591 C   0  0  0  0  0  0  0  0  0  0  0  0
  -23.8853  -24.1963   15.6814 C   0  0  0  0  0  0  0  0  0  0  0  0
  -31.5279  -27.0088   19.7660 C   0  0  0  0  0  0  0  0  0  0  0  0
  -27.6770  -32.1919   18.2909 C   0  0  0  0  0  0  0  0  0  0  0  0
  -29.5110  -30.6234   17.6241 C   0  0  0  0  0  0  0  0  0  0  0  0
  -29.7876  -32.0830   19.6280 C   0  0  0  0  0  0  0  0  0  0  0  0
  -28.8024  -25.7833   22.1210 C   0  0  0  0  0  0  0  0  0  0  0  0
  -22.1094  -22.6927   17.4701 C   0  0  0  0  0  0  0  0  0  0  0  0
  -29.6775  -20.9628   17.1242 C   0  0  0  0  0  0  0  0  0  0  0  0
  -20.6920  -24.3848   18.6391 C   0  0  0  0  0  0  0  0  0  0  0  0
  -28.4320  -21.7721   16.8103 C   0  0  0  0  0  0  0  0  0  0  0  0
  -20.7702  -25.5445   19.6124 C   0  0  0  0  0  0  0  0  0  1  0  0
  -28.2012  -30.1174   19.7359 C   0  0  1  0  0  0  0  0  0  0  0  0
  -30.3491  -27.1518   20.7161 C   0  0  2  0  0  0  0  0  0  0  0  0
  -28.7685  -31.2440   18.8268 C   0  0  0  0  0  0  0  0  0  0  0  0
  -28.1674  -15.3514   20.5695 N   0  0  0  0  0  0  0  0  0  0  0  0
  -29.4863  -15.6095   20.5585 N   0  0  0  0  0  0  0  0  0  0  0  0
  -26.0908  -30.2943   21.0161 N   0  0  0  0  0  0  0  0  0  0  0  0
  -29.4590  -19.4312   20.5101 N   0  0  0  0  0  0  0  0  0  0  0  0
  -31.6075  -14.5931   20.2790 N   0  0  0  0  0  0  0  0  0  0  0  0
  -28.7284  -11.1499   19.7782 N   0  0  0  0  0  0  0  0  0  0  0  0
  -25.7064  -19.4131   18.1796 N   0  0  0  0  0  0  0  0  0  0  0  0
  -24.8920  -33.3341   21.8480 N   0  0  0  0  0  0  0  0  0  0  0  0
  -29.2154  -29.2207   20.2795 N   0  0  0  0  0  0  0  0  0  0  0  0
  -29.4640  -20.0542   18.2286 N   0  0  0  0  0  0  0  0  0  0  0  0
  -29.9384  -25.7910   21.1636 N   0  3  0  0  0  0  0  0  0  0  0  0
  -22.0584  -23.8591   18.3925 N   0  3  0  0  0  0  0  0  0  0  0  0
  -30.9457  -11.7343   19.8038 O   0  0  0  0  0  0  0  0  0  0  0  0
  -23.7829  -31.8680   20.4188 O   0  0  0  0  0  0  0  0  0  0  0  0
  -28.0239  -31.3820   21.7349 O   0  0  0  0  0  0  0  0  0  0  0  0
  -28.3355  -27.2701   19.3862 O   0  0  0  0  0  0  0  0  0  0  0  0
  -30.1180  -21.5506   19.8379 O   0  0  0  0  0  0  0  0  0  0  0  0
  -23.1724  -11.4332   20.0726 O   0  0  0  0  0  0  0  0  0  0  0  0
  -21.5701  -26.5850   19.0523 O   0  0  0  0  0  0  0  0  0  1  0  0
  -27.3701  -20.8889   16.4562 O   0  0  0  0  0  0  0  0  0  0  0  0
  -22.6661   -6.6242   22.7223 F   0  0  0  0  0  0  0  0  0  0  0  0
  -21.3005  -11.1108   22.0812 F   0  0  0  0  0  0  0  0  0  0  0  0
  1  2  1  0  0  0  0
  1  5  2  0  0  0  0
  2  6  2  0  0  0  0
  3  8  2  0  0  0  0
  3 17  1  0  0  0  0
  4  9  1  0  0  0  0
  4 17  2  0  0  0  0
  5 19  1  0  0  0  0
  6 21  1  0  0  0  0
  7 10  2  0  0  0  0
  7 20  1  0  0  0  0
  8 26  1  0  0  0  0
  9 26  2  0  0  0  0
 10 27  1  0  0  0  0
 11 12  2  0  0  0  0
 11 28  1  0  0  0  0
 12 30  1  0  0  0  0
 13 22  1  0  0  0  0
 13 27  2  0  0  0  0
 14 23  1  0  0  0  0
 14 25  2  0  0  0  0
 15 24  1  0  0  0  0
 15 29  2  0  0  0  0
 16 30  2  0  0  0  0
 16 31  1  0  0  0  0
 17 32  1  0  0  0  0
 18 32  1  0  0  0  0
 18 33  2  0  0  0  0
 18 34  1  0  0  0  0
 19 21  2  0  0  0  0
 19 39  1  0  0  0  0
 20 22  2  0  0  0  0
 20 40  1  0  0  0  0
 21 50  1  0  0  0  0
 22 41  1  0  0  0  0
 23 24  2  0  0  0  0
 23 60  1  0  0  0  0
 24 54  1  0  0  0  0
 25 29  1  0  0  0  0
 25 74  1  0  0  0  0
 26 85  1  0  0  0  0
 27 86  1  0  0  0  0
 28 31  2  0  0  0  0
 28 85  1  0  0  0  0
 29 87  1  0  0  0  0
 30 88  1  0  0  0  0
 31 89  1  0  0  0  0
 32 68  2  0  0  0  0
 33 69  1  0  0  0  0
 33 72  1  0  0  0  0
 34 73  1  0  0  0  0
 34 80  2  0  0  0  0
 35 51  1  0  0  0  0
 35 75  1  0  0  0  0
 35 81  2  0  0  0  0
 36 65  1  0  0  0  0
 36 70  1  0  0  0  0
 36 82  2  0  0  0  0
 37 66  1  0  0  0  0
 37 76  1  0  0  0  0
 37 83  2  0  0  0  0
 38 71  1  0  0  0  0
 38 77  1  0  0  0  0
 38 84  2  0  0  0  0
 39 42  1  0  0  0  0
 40 51  1  0  0  0  0
 41 70  1  0  0  0  0
 42 44  1  0  0  0  0
 43 45  1  0  0  0  0
 43 48  1  0  0  0  0
 44 50  1  0  0  0  0
 45 52  1  0  0  0  0
 46 47  1  0  0  0  0
 46 53  1  0  0  0  0
 47 53  1  0  0  0  0
 48 71  1  0  0  0  0
 49 52  1  0  0  0  0
 49 71  1  0  0  0  0
 50 75  1  0  0  0  0
 51 70  1  0  0  0  0
 52 69  1  0  0  0  0
 53 74  1  0  0  0  0
 55 66  1  0  0  0  0
 56 67  1  0  0  0  0
 57 67  1  0  0  0  0
 58 67  1  0  0  0  0
 59 78  1  0  0  0  0
 60 79  1  0  0  0  0
 61 63  1  0  0  0  0
 61 77  1  0  0  0  0
 62 64  1  0  0  0  0
 62 79  1  0  0  0  0
 63 87  1  0  0  0  0
 64 86  1  0  0  0  0
 65 67  1  0  0  0  0
 65 76  1  0  0  0  0
 66 78  1  0  0  0  0
 68 69  1  0  0  0  0
M  CHG  2  78   1  79   1
M  ISO  4  38 100  64 101  77 100  86 101
M  END
> <Batch ID>
0144

> <Smiles>
CNC(C)C(=O)NC(C(=O)N1Cc2cc([101O:1][101CH2:1]CNCc3cc(NC4CC4)c(OCC[100NH:0][100C:0](=O)N4CCCC(n5nc(-c6ccc(Oc7ccc(F)cc7F)cc6)c(C(N)=O)c5N)C4)cc3C)ccc2CC1C(=O)NC1CCCc2ccccc21)C(C)(C)C

> <Shape>
0.280

> <Color>
0.074

> <Negative vol penalty>
0.000

$$$$

  -OEChem-04052321263D

 86 96  0     1  0  0  0  0  0999 V2000
  -27.6255  -33.4061   15.0098 C   0  0  0  0  0  0  0  0  0  0  0  0
  -27.7522  -32.0622   15.3464 C   0  0  0  0  0  0  0  0  0  0  0  0
  -23.1447   -9.7195   20.3501 C   0  0  0  0  0  0  0  0  0  0  0  0
  -23.8106  -10.1423   22.6337 C   0  0  0  0  0  0  0  0  0  0  0  0
  -27.6626  -34.3799   16.0069 C   0  0  0  0  0  0  0  0  0  0  0  0
  -27.9173  -31.6914   16.6804 C   0  0  0  0  0  0  0  0  0  0  0  0
  -25.7512  -26.6466   19.3942 C   0  0  0  0  0  0  0  0  0  0  0  0
  -22.4142   -8.6075   20.7689 C   0  0  0  0  0  0  0  0  0  0  0  0
  -23.0800   -9.0303   23.0526 C   0  0  0  0  0  0  0  0  0  0  0  0
  -26.3387  -25.4194   19.6984 C   0  0  0  0  0  0  0  0  0  0  0  0
  -19.8464   -8.2634   23.6659 C   0  0  0  0  0  0  0  0  0  0  0  0
  -19.0435   -8.4061   24.7975 C   0  0  0  0  0  0  0  0  0  0  0  0
  -27.3244  -20.6606   21.0785 C   0  0  0  0  0  0  0  0  0  0  0  0
  -26.8026  -26.2021   21.9325 C   0  0  0  0  0  0  0  0  0  0  0  0
  -29.4931  -21.7162   20.9399 C   0  0  0  0  0  0  0  0  0  0  0  0
  -20.2919   -6.6584   25.9038 C   0  0  0  0  0  0  0  0  0  0  0  0
  -23.8430  -10.4869   21.2824 C   0  0  0  0  0  0  0  0  0  0  0  0
  -24.1395  -12.9616   20.7387 C   0  0  0  0  0  0  0  0  0  0  0  0
  -27.8186  -34.0201   17.3549 C   0  0  0  0  0  0  0  0  0  0  0  0
  -25.6948  -27.6664   20.3551 C   0  0  0  0  0  0  0  0  0  0  0  0
  -27.9579  -32.6613   17.6964 C   0  0  0  0  0  0  0  0  0  0  0  0
  -27.9208  -19.4999   21.5710 C   0  0  0  0  0  0  0  0  0  0  0  0
  -26.2117  -27.4405   21.6388 C   0  0  0  0  0  0  0  0  0  0  0  0
  -29.3033  -19.4473   21.7481 C   0  0  0  0  0  0  0  0  0  0  0  0
  -28.1105  -21.7688   20.7629 C   0  0  0  0  0  0  0  0  0  0  0  0
  -22.3818   -8.2629   22.1201 C   0  0  0  0  0  0  0  0  0  0  0  0
  -26.8671  -25.1980   20.9668 C   0  0  0  0  0  0  0  0  0  0  0  0
  -20.8721   -7.3181   23.6532 C   0  0  0  0  0  0  0  0  0  0  0  0
  -19.2663   -7.6037   25.9165 C   0  0  0  0  0  0  0  0  0  0  0  0
  -21.0948   -6.5156   24.7721 C   0  0  0  0  0  0  0  0  0  0  0  0
  -30.0896  -20.5555   21.4325 C   0  0  0  0  0  0  0  0  0  0  0  0
  -24.5982  -11.6353   20.8503 C   0  0  0  0  0  0  0  0  0  0  0  0
  -25.2305  -13.6657   20.2911 C   0  0  0  0  0  0  0  0  0  0  0  0
  -22.8432  -13.5081   21.0151 C   0  0  0  0  0  0  0  0  0  0  0  0
  -26.8704  -30.6117   20.5720 C   0  0  0  0  0  0  0  0  0  0  0  0
  -25.0827  -30.7069   23.2771 C   0  0  0  0  0  0  0  0  0  0  0  0
  -23.5459  -28.9923   25.7961 C   0  0  0  0  0  0  0  0  0  0  0  0
  -30.6742  -14.8535   20.4809 C   0  0  0  0  0  0  0  0  0  0  0  0
  -27.9003  -35.1114   18.3927 C   0  0  0  0  0  0  0  0  0  0  0  0
  -25.0339  -28.9752   20.0195 C   0  0  0  0  0  0  0  0  0  0  0  0
  -26.1579  -28.4955   22.7123 C   0  0  0  0  0  0  0  0  0  0  0  0
  -27.7026  -34.6098   19.8208 C   0  0  0  0  0  0  0  0  0  0  0  0
  -29.6905  -12.0567   18.5261 C   0  0  0  0  0  0  0  0  0  0  0  0
  -25.6147  -18.5593   22.2575 C   0  0  0  0  0  0  0  0  0  0  0  0
  -26.5845  -18.1456   23.3199 C   0  0  0  0  0  0  0  0  0  0  0  0
  -28.5390  -33.3582   20.0676 C   0  0  0  0  0  0  0  0  0  0  0  0
  -28.2418  -11.8047   18.9475 C   0  0  0  0  0  0  0  0  0  0  0  0
  -30.5509  -12.5064   19.7049 C   0  0  0  0  0  0  0  0  0  0  0  0
  -28.5800  -13.4146   20.8696 C   0  0  0  0  0  0  0  0  0  0  0  0
  -31.8026  -17.2593   22.3223 C   0  0  0  0  0  0  0  0  0  0  0  0
  -27.0594  -18.3271   21.9027 C   0  0  0  0  0  0  0  0  0  0  0  0
  -28.1137  -32.2177   19.1349 C   0  0  1  0  0  0  0  0  0  0  0  0
  -29.9565  -18.1430   22.3007 C   0  0  1  0  0  0  0  0  0  0  0  0
  -25.4916  -30.1226   20.9147 C   0  0  1  0  0  0  0  0  0  0  0  0
  -27.6590  -13.0136   19.7044 C   0  0  2  0  0  0  0  0  0  0  0  0
  -30.6664  -17.2275   21.3009 C   0  0  2  0  0  0  0  0  0  0  0  0
  -22.1952  -29.3456   27.8813 C   0  0  0  0  0  0  0  0  0  0  0  0
  -27.6077  -31.5531   24.7665 C   0  0  0  0  0  0  0  0  0  0  0  0
  -26.4543  -30.9703   26.9108 C   0  0  0  0  0  0  0  0  0  0  0  0
  -25.5344  -32.7723   25.4516 C   0  0  0  0  0  0  0  0  0  0  0  0
  -21.2440  -27.4905   24.6985 C   0  0  0  0  0  0  0  0  0  0  0  0
  -27.4688  -23.0173   20.2330 C   0  0  0  0  0  0  0  0  0  1  0  0
  -25.3186  -30.3597   24.7272 C   0  0  1  0  0  0  0  0  0  0  0  0
  -22.1493  -29.0990   26.3814 C   0  0  2  0  0  0  0  0  0  0  0  0
  -26.2316  -31.3945   25.4434 C   0  0  0  0  0  0  0  0  0  0  0  0
  -25.8807  -11.5022   20.5015 N   0  0  0  0  0  0  0  0  0  0  0  0
  -26.2371  -12.7539   20.1663 N   0  0  0  0  0  0  0  0  0  0  0  0
  -25.5073  -29.7608   22.3336 N   0  0  0  0  0  0  0  0  0  0  0  0
  -29.9436  -13.6597   20.3740 N   0  0  0  0  0  0  0  0  0  0  0  0
  -25.4174  -14.9697   19.9960 N   0  0  0  0  0  0  0  0  0  0  0  0
  -21.8365  -12.6444   21.4677 N   0  0  0  0  0  0  0  0  0  0  0  0
  -26.8925  -31.6042   19.6109 N   0  0  0  0  0  0  0  0  0  0  0  0
  -23.9989  -30.2087   25.3306 N   0  0  0  0  0  0  0  0  0  0  0  0
  -30.0292  -15.9069   21.1205 N   0  0  0  0  0  0  0  0  0  0  0  0
  -21.3870  -27.8425   26.1347 N   0  3  0  0  0  0  0  0  0  0  0  0
  -22.5806  -14.7235   20.8494 O   0  0  0  0  0  0  0  0  0  0  0  0
  -27.8421  -30.1256   21.1388 O   0  0  0  0  0  0  0  0  0  0  0  0
  -24.5352  -31.7750   22.9924 O   0  0  0  0  0  0  0  0  0  0  0  0
  -24.1738  -27.9364   25.7592 O   0  0  0  0  0  0  0  0  0  0  0  0
  -31.8189  -14.9817   20.0331 O   0  0  0  0  0  0  0  0  0  0  0  0
  -31.1990  -18.3832   23.0095 O   0  0  0  0  0  0  0  0  0  0  0  0
  -21.6688   -7.1781   22.5293 O   0  0  0  0  0  0  0  0  0  0  0  0
  -27.4416  -24.0012   21.2662 O   0  0  0  0  0  0  0  0  0  1  0  0
  -18.4961   -7.7419   27.0036 F   0  0  0  0  0  0  0  0  0  0  0  0
  -22.0794   -5.6066   24.7663 F   0  0  0  0  0  0  0  0  0  0  0  0
  -31.8028  -20.5265   21.6401 Cl  0  0  0  0  0  0  0  0  0  0  0  0
  1  2  1  0  0  0  0
  1  5  2  0  0  0  0
  2  6  2  0  0  0  0
  3  8  2  0  0  0  0
  3 17  1  0  0  0  0
  4  9  1  0  0  0  0
  4 17  2  0  0  0  0
  5 19  1  0  0  0  0
  6 21  1  0  0  0  0
  7 10  2  0  0  0  0
  7 20  1  0  0  0  0
  8 26  1  0  0  0  0
  9 26  2  0  0  0  0
 10 27  1  0  0  0  0
 11 12  2  0  0  0  0
 11 28  1  0  0  0  0
 12 29  1  0  0  0  0
 13 22  1  0  0  0  0
 13 25  2  0  0  0  0
 14 23  1  0  0  0  0
 14 27  2  0  0  0  0
 15 25  1  0  0  0  0
 15 31  2  0  0  0  0
 16 29  2  0  0  0  0
 16 30  1  0  0  0  0
 17 32  1  0  0  0  0
 18 32  1  0  0  0  0
 18 33  2  0  0  0  0
 18 34  1  0  0  0  0
 19 21  2  0  0  0  0
 19 39  1  0  0  0  0
 20 23  2  0  0  0  0
 20 40  1  0  0  0  0
 21 52  1  0  0  0  0
 22 24  2  0  0  0  0
 22 51  1  0  0  0  0
 23 41  1  0  0  0  0
 24 31  1  0  0  0  0
 24 53  1  0  0  0  0
 25 62  1  0  0  0  0
 26 82  1  0  0  0  0
 27 83  1  0  0  0  0
 28 30  2  0  0  0  0
 28 82  1  0  0  0  0
 29 84  1  0  0  0  0
 30 85  1  0  0  0  0
 31 86  1  0  0  0  0
 32 66  2  0  0  0  0
 33 67  1  0  0  0  0
 33 70  1  0  0  0  0
 34 71  1  0  0  0  0
 34 76  2  0  0  0  0
 35 54  1  0  0  0  0
 35 72  1  0  0  0  0
 35 77  2  0  0  0  0
 36 63  1  0  0  0  0
 36 68  1  0  0  0  0
 36 78  2  0  0  0  0
 37 64  1  0  0  0  0
 37 73  1  0  0  0  0
 37 79  2  0  0  0  0
 38 69  1  0  0  0  0
 38 74  1  0  0  0  0
 38 80  2  0  0  0  0
 39 42  1  0  0  0  0
 40 54  1  0  0  0  0
 41 68  1  0  0  0  0
 42 46  1  0  0  0  0
 43 47  1  0  0  0  0
 43 48  1  0  0  0  0
 44 45  1  0  0  0  0
 44 51  1  0  0  0  0
 45 51  1  0  0  0  0
 46 52  1  0  0  0  0
 47 55  1  0  0  0  0
 48 69  1  0  0  0  0
 49 55  1  0  0  0  0
 49 69  1  0  0  0  0
 50 56  1  0  0  0  0
 50 81  1  0  0  0  0
 52 72  1  0  0  0  0
 53 56  1  0  0  0  0
 53 81  1  0  0  0  0
 54 68  1  0  0  0  0
 55 67  1  0  0  0  0
 56 74  1  0  0  0  0
 57 64  1  0  0  0  0
 58 65  1  0  0  0  0
 59 65  1  0  0  0  0
 60 65  1  0  0  0  0
 61 75  1  0  0  0  0
 62 83  1  0  0  0  0
 63 65  1  0  0  0  0
 63 73  1  0  0  0  0
 64 75  1  0  0  0  0
 66 67  1  0  0  0  0
M  CHG  1  75   1
M  ISO  4  38 100  62 101  74 100  83 101
M  END
> <Batch ID>
0144

> <Smiles>
CNC(C)C(=O)NC(C(=O)N1Cc2cc([101O:1][101CH2:1]c3cc(Cl)c(C4OCC4[100NH:0][100C:0](=O)N4CCCC(n5nc(-c6ccc(Oc7ccc(F)cc7F)cc6)c(C(N)=O)c5N)C4)c(C4CC4)c3)ccc2CC1C(=O)NC1CCCc2ccccc21)C(C)(C)C

> <Shape>
0.306

> <Color>
0.200

> <Negative vol penalty>
0.000

$$$$

  -OEChem-04052321263D

 90 99  0     1  0  0  0  0  0999 V2000
  -29.8656  -24.6569   17.7759 C   0  0  0  0  0  0  0  0  0  0  0  0
  -28.6158  -25.2344   17.9695 C   0  0  0  0  0  0  0  0  0  0  0  0
  -28.2702  -14.2558   19.3863 C   0  0  0  0  0  0  0  0  0  0  0  0
  -27.0896  -15.4740   21.1065 C   0  0  0  0  0  0  0  0  0  0  0  0
  -30.8929  -24.9072   18.6831 C   0  0  0  0  0  0  0  0  0  0  0  0
  -28.3964  -26.0719   19.0638 C   0  0  0  0  0  0  0  0  0  0  0  0
  -24.0726  -28.4110   19.2564 C   0  0  0  0  0  0  0  0  0  0  0  0
  -29.1449  -15.3304   19.2257 C   0  0  0  0  0  0  0  0  0  0  0  0
  -27.9643  -16.5485   20.9460 C   0  0  0  0  0  0  0  0  0  0  0  0
  -22.8744  -27.7579   19.5419 C   0  0  0  0  0  0  0  0  0  0  0  0
  -29.6645  -19.7542   20.7385 C   0  0  0  0  0  0  0  0  0  0  0  0
  -29.1148  -21.0349   20.6827 C   0  0  0  0  0  0  0  0  0  0  0  0
  -22.9278  -28.6520   21.7818 C   0  0  0  0  0  0  0  0  0  0  0  0
  -21.4751  -22.2844   22.0200 C   0  0  0  0  0  0  0  0  0  0  0  0
  -19.2521  -22.9324   22.7098 C   0  0  0  0  0  0  0  0  0  0  0  0
  -27.8349  -20.4007   18.7343 C   0  0  0  0  0  0  0  0  0  0  0  0
  -27.2425  -14.3276   20.3267 C   0  0  0  0  0  0  0  0  0  0  0  0
  -26.4852  -12.1253   21.3677 C   0  0  0  0  0  0  0  0  0  0  0  0
  -30.6816  -25.7382   19.7956 C   0  0  0  0  0  0  0  0  0  0  0  0
  -24.7141  -29.1820   20.2365 C   0  0  0  0  0  0  0  0  0  0  0  0
  -29.4274  -26.3559   19.9775 C   0  0  0  0  0  0  0  0  0  0  0  0
  -24.1327  -29.3159   21.5054 C   0  0  0  0  0  0  0  0  0  0  0  0
  -21.2220  -20.9764   22.4331 C   0  0  0  0  0  0  0  0  0  0  0  0
  -18.9990  -21.6243   23.1228 C   0  0  0  0  0  0  0  0  0  0  0  0
  -19.9839  -20.6463   22.9844 C   0  0  0  0  0  0  0  0  0  0  0  0
  -28.9920  -16.4767   20.0056 C   0  0  0  0  0  0  0  0  0  0  0  0
  -22.3033  -27.8759   20.8056 C   0  0  0  0  0  0  0  0  0  0  0  0
  -29.2995  -18.7967   19.7921 C   0  0  0  0  0  0  0  0  0  0  0  0
  -20.4902  -23.2624   22.1584 C   0  0  0  0  0  0  0  0  0  0  0  0
  -28.2000  -21.3581   19.6806 C   0  0  0  0  0  0  0  0  0  0  0  0
  -28.3846  -19.1199   18.7900 C   0  0  0  0  0  0  0  0  0  0  0  0
  -26.3382  -13.2182   20.4926 C   0  0  0  0  0  0  0  0  0  0  0  0
  -25.3687  -11.3563   21.1471 C   0  0  0  0  0  0  0  0  0  0  0  0
  -27.5368  -11.8315   22.2969 C   0  0  0  0  0  0  0  0  0  0  0  0
  -27.5257  -29.0455   21.7131 C   0  0  0  0  0  0  0  0  0  0  0  0
  -26.5664  -31.8797   22.9658 C   0  0  0  0  0  0  0  0  0  0  0  0
  -23.9886  -33.9576   23.7928 C   0  0  0  0  0  0  0  0  0  0  0  0
  -19.9371  -12.4490   19.2196 C   0  0  0  0  0  0  0  0  0  0  0  0
  -31.8308  -25.9813   20.7418 C   0  0  0  0  0  0  0  0  0  0  0  0
  -25.9923  -29.9019   19.9044 C   0  0  0  0  0  0  0  0  0  0  0  0
  -24.7710  -30.1482   22.5863 C   0  0  0  0  0  0  0  0  0  0  0  0
  -31.3816  -26.5163   22.0977 C   0  0  0  0  0  0  0  0  0  0  0  0
  -22.1774  -10.2537   17.7650 C   0  0  0  0  0  0  0  0  0  0  0  0
  -30.4321  -27.6893   21.9050 C   0  0  0  0  0  0  0  0  0  0  0  0
  -23.5209  -10.6465   18.3791 C   0  0  0  0  0  0  0  0  0  0  0  0
  -18.4493  -14.7016   21.7570 C   0  0  0  0  0  0  0  0  0  0  0  0
  -20.4492  -15.8373   20.7277 C   0  0  0  0  0  0  0  0  0  0  0  0
  -21.3499  -11.4885   17.4266 C   0  0  0  0  0  0  0  0  0  0  0  0
  -18.3440  -13.8097   20.5230 C   0  0  0  0  0  0  0  0  0  0  0  0
  -20.3030  -14.9285   19.5117 C   0  0  0  0  0  0  0  0  0  0  0  0
  -22.4482  -12.7953   19.2159 C   0  0  0  0  0  0  0  0  0  0  0  0
  -29.1568  -27.2457   21.1772 C   0  0  1  0  0  0  0  0  0  0  0  0
  -26.8238  -30.2427   21.1372 C   0  0  1  0  0  0  0  0  0  0  0  0
  -19.1004  -16.0512   21.4279 C   0  0  0  0  0  0  0  0  0  0  0  0
  -23.3247  -11.5817   19.5855 C   0  0  2  0  0  0  0  0  0  0  0  0
  -22.2935  -19.9482   22.2724 C   0  0  0  0  0  0  0  0  0  0  0  0
  -17.6661  -21.2966   23.7119 C   0  0  0  0  0  0  0  0  0  0  0  0
  -23.5150  -36.1900   24.8365 C   0  0  0  0  0  0  0  0  0  0  0  0
  -27.1164  -30.7029   25.7267 C   0  0  0  0  0  0  0  0  0  0  0  0
  -25.7615  -32.5631   26.7127 C   0  0  0  0  0  0  0  0  0  0  0  0
  -27.8448  -33.0783   25.4411 C   0  0  0  0  0  0  0  0  0  0  0  0
  -22.7153  -34.9727   21.3215 C   0  0  0  0  0  0  0  0  0  0  0  0
  -19.7122  -19.2394   23.4290 C   0  0  0  0  0  0  0  0  0  0  0  0
  -19.2707  -16.8950   22.6889 C   0  0  0  0  0  0  0  0  0  0  0  0
  -20.9258  -26.8304   22.4381 C   0  0  0  0  0  0  0  0  0  1  0  0
  -20.0640  -25.5828   22.4585 C   0  0  0  0  0  0  0  0  0  0  0  0
  -25.7902  -32.2992   24.1907 C   0  0  1  0  0  0  0  0  0  0  0  0
  -23.7667  -35.4377   23.5390 C   0  0  2  0  0  0  0  0  0  0  0  0
  -26.6169  -32.1435   25.4983 C   0  0  0  0  0  0  0  0  0  0  0  0
  -25.2169  -13.1529   19.7699 N   0  0  0  0  0  0  0  0  0  0  0  0
  -24.6491  -12.0097   20.1904 N   0  0  0  0  0  0  0  0  0  0  0  0
  -26.0232  -30.8276   22.2149 N   0  0  0  0  0  0  0  0  0  0  0  0
  -21.1903  -12.3525   18.5961 N   0  0  0  0  0  0  0  0  0  0  0  0
  -19.6368  -13.6651   19.8553 N   0  0  0  0  0  0  0  0  0  0  0  0
  -24.9422  -10.1916   21.6801 N   0  0  0  0  0  0  0  0  0  0  0  0
  -28.6095  -12.7279   22.3973 N   0  0  0  0  0  0  0  0  0  0  0  0
  -28.3808  -28.4155   20.8291 N   0  0  0  0  0  0  0  0  0  0  0  0
  -25.3271  -33.6588   23.9348 N   0  0  0  0  0  0  0  0  0  0  0  0
  -22.5927  -35.6394   22.6435 N   0  3  0  0  0  0  0  0  0  0  0  0
  -19.4736  -18.3035   22.2930 N   0  3  0  0  0  0  0  0  0  0  0  0
  -27.5338  -10.7961   23.0051 O   0  0  0  0  0  0  0  0  0  0  0  0
  -27.3086  -28.7183   22.8739 O   0  0  0  0  0  0  0  0  0  0  0  0
  -27.6123  -32.4687   22.6815 O   0  0  0  0  0  0  0  0  0  0  0  0
  -23.0664  -33.1480   23.8622 O   0  0  0  0  0  0  0  0  0  0  0  0
  -19.1355  -11.5065   19.2141 O   0  0  0  0  0  0  0  0  0  0  0  0
  -29.8455  -17.5254   19.8493 O   0  0  0  0  0  0  0  0  0  0  0  0
  -21.1262  -27.2346   21.0890 O   0  0  0  0  0  0  0  0  0  1  0  0
  -20.7384  -24.5391   21.7573 O   0  0  0  0  0  0  0  0  0  0  0  0
  -27.6710  -22.5876   19.6281 F   0  0  0  0  0  0  0  0  0  0  0  0
  -28.0292  -18.2039   17.8787 F   0  0  0  0  0  0  0  0  0  0  0  0
  1  2  1  0  0  0  0
  1  5  2  0  0  0  0
  2  6  2  0  0  0  0
  3  8  2  0  0  0  0
  3 17  1  0  0  0  0
  4  9  1  0  0  0  0
  4 17  2  0  0  0  0
  5 19  1  0  0  0  0
  6 21  1  0  0  0  0
  7 10  2  0  0  0  0
  7 20  1  0  0  0  0
  8 26  1  0  0  0  0
  9 26  2  0  0  0  0
 10 27  1  0  0  0  0
 11 12  2  0  0  0  0
 11 28  1  0  0  0  0
 12 30  1  0  0  0  0
 13 22  1  0  0  0  0
 13 27  2  0  0  0  0
 14 23  2  0  0  0  0
 14 29  1  0  0  0  0
 15 24  1  0  0  0  0
 15 29  2  0  0  0  0
 16 30  2  0  0  0  0
 16 31  1  0  0  0  0
 17 32  1  0  0  0  0
 18 32  1  0  0  0  0
 18 33  2  0  0  0  0
 18 34  1  0  0  0  0
 19 21  2  0  0  0  0
 19 39  1  0  0  0  0
 20 22  2  0  0  0  0
 20 40  1  0  0  0  0
 21 52  1  0  0  0  0
 22 41  1  0  0  0  0
 23 25  1  0  0  0  0
 23 56  1  0  0  0  0
 24 25  2  0  0  0  0
 24 57  1  0  0  0  0
 25 63  1  0  0  0  0
 26 86  1  0  0  0  0
 27 87  1  0  0  0  0
 28 31  2  0  0  0  0
 28 86  1  0  0  0  0
 29 88  1  0  0  0  0
 30 89  1  0  0  0  0
 31 90  1  0  0  0  0
 32 70  2  0  0  0  0
 33 71  1  0  0  0  0
 33 75  1  0  0  0  0
 34 76  1  0  0  0  0
 34 81  2  0  0  0  0
 35 53  1  0  0  0  0
 35 77  1  0  0  0  0
 35 82  2  0  0  0  0
 36 67  1  0  0  0  0
 36 72  1  0  0  0  0
 36 83  2  0  0  0  0
 37 68  1  0  0  0  0
 37 78  1  0  0  0  0
 37 84  2  0  0  0  0
 38 73  1  0  0  0  0
 38 74  1  0  0  0  0
 38 85  2  0  0  0  0
 39 42  1  0  0  0  0
 40 53  1  0  0  0  0
 41 72  1  0  0  0  0
 42 44  1  0  0  0  0
 43 45  1  0  0  0  0
 43 48  1  0  0  0  0
 44 52  1  0  0  0  0
 45 55  1  0  0  0  0
 46 49  1  0  0  0  0
 46 54  1  0  0  0  0
 47 50  1  0  0  0  0
 47 54  1  0  0  0  0
 48 73  1  0  0  0  0
 49 74  1  0  0  0  0
 50 74  1  0  0  0  0
 51 55  1  0  0  0  0
 51 73  1  0  0  0  0
 52 77  1  0  0  0  0
 53 72  1  0  0  0  0
 54 64  1  0  0  0  0
 55 71  1  0  0  0  0
 58 68  1  0  0  0  0
 59 69  1  0  0  0  0
 60 69  1  0  0  0  0
 61 69  1  0  0  0  0
 62 79  1  0  0  0  0
 63 80  1  0  0  0  0
 64 80  1  0  0  0  0
 65 66  1  0  0  0  0
 65 87  1  0  0  0  0
 66 88  1  0  0  0  0
 67 69  1  0  0  0  0
 67 78  1  0  0  0  0
 68 79  1  0  0  0  0
 70 71  1  0  0  0  0
M  CHG  2  79   1  80   1
M  ISO  4  38 100  65 101  74 100  87 101
M  END
> <Batch ID>
0144

> <Smiles>
CNC(C)C(=O)NC(C(=O)N1Cc2cc([101O:1][101CH2:1]COc3cc(C)c(CNCC4CC[100N:0]([100C:0](=O)N5CCCC(n6nc(-c7ccc(Oc8ccc(F)cc8F)cc7)c(C(N)=O)c6N)C5)CC4)c(C)c3)ccc2CC1C(=O)NC1CCCc2ccccc21)C(C)(C)C

> <Shape>
0.298

> <Color>
0.072

> <Negative vol penalty>
0.000

$$$$

  -OEChem-04052321263D

 96106  0     1  0  0  0  0  0999 V2000
  -30.0770  -22.3412   19.3492 C   0  0  0  0  0  0  0  0  0  0  0  0
  -28.9500  -22.4074   20.1605 C   0  0  0  0  0  0  0  0  0  0  0  0
  -23.2727   -9.7904   20.1225 C   0  0  0  0  0  0  0  0  0  0  0  0
  -23.7162  -10.1258   22.4737 C   0  0  0  0  0  0  0  0  0  0  0  0
  -30.9629  -23.4156   19.3042 C   0  0  0  0  0  0  0  0  0  0  0  0
  -28.7021  -23.5527   20.9179 C   0  0  0  0  0  0  0  0  0  0  0  0
  -24.4016  -23.7713   23.2972 C   0  0  0  0  0  0  0  0  0  0  0  0
  -22.5309   -8.6486   20.4253 C   0  0  0  0  0  0  0  0  0  0  0  0
  -22.9743   -8.9840   22.7765 C   0  0  0  0  0  0  0  0  0  0  0  0
  -24.1207  -22.9932   24.4194 C   0  0  0  0  0  0  0  0  0  0  0  0
  -19.4347   -7.9217   21.5734 C   0  0  0  0  0  0  0  0  0  0  0  0
  -18.2067   -7.7577   20.9326 C   0  0  0  0  0  0  0  0  0  0  0  0
  -27.9740  -17.8858   25.5757 C   0  0  0  0  0  0  0  0  0  0  0  0
  -24.4674  -24.9171   25.8328 C   0  0  0  0  0  0  0  0  0  0  0  0
  -29.9147  -16.1573   26.5899 C   0  0  0  0  0  0  0  0  0  0  0  0
  -18.9877   -5.6856   19.9662 C   0  0  0  0  0  0  0  0  0  0  0  0
  -23.8654  -10.5290   21.1467 C   0  0  0  0  0  0  0  0  0  0  0  0
  -24.1573  -13.0297   20.7358 C   0  0  0  0  0  0  0  0  0  0  0  0
  -30.7316  -24.5693   20.0713 C   0  0  0  0  0  0  0  0  0  0  0  0
  -24.7287  -25.1279   23.4355 C   0  0  0  0  0  0  0  0  0  0  0  0
  -29.5717  -24.6572   20.8678 C   0  0  0  0  0  0  0  0  0  0  0  0
  -28.2715  -17.8938   26.9384 C   0  0  0  0  0  0  0  0  0  0  0  0
  -24.7496  -25.7109   24.7106 C   0  0  0  0  0  0  0  0  0  0  0  0
  -28.6468  -17.0135   24.7201 C   0  0  0  0  0  0  0  0  0  0  0  0
  -29.2419  -17.0296   27.4455 C   0  0  0  0  0  0  0  0  0  0  0  0
  -29.6172  -16.1493   25.2272 C   0  0  0  0  0  0  0  0  0  0  0  0
  -22.3817   -8.2455   21.7522 C   0  0  0  0  0  0  0  0  0  0  0  0
  -24.1564  -23.5653   25.6877 C   0  0  0  0  0  0  0  0  0  0  0  0
  -20.4393   -6.9677   21.4106 C   0  0  0  0  0  0  0  0  0  0  0  0
  -17.9832   -6.6397   20.1290 C   0  0  0  0  0  0  0  0  0  0  0  0
  -20.2158   -5.8497   20.6070 C   0  0  0  0  0  0  0  0  0  0  0  0
  -24.6323  -11.7082   20.8345 C   0  0  0  0  0  0  0  0  0  0  0  0
  -25.2695  -13.7717   20.4210 C   0  0  0  0  0  0  0  0  0  0  0  0
  -22.8295  -13.5408   20.9129 C   0  0  0  0  0  0  0  0  0  0  0  0
  -27.2779  -26.9010   22.7563 C   0  0  0  0  0  0  0  0  0  0  0  0
  -25.3369  -29.3398   23.6548 C   0  0  0  0  0  0  0  0  0  0  0  0
  -22.6203  -30.3720   25.4441 C   0  0  0  0  0  0  0  0  0  0  0  0
  -31.1263  -12.9296   21.3376 C   0  0  0  0  0  0  0  0  0  0  0  0
  -31.7190  -25.7058   19.9787 C   0  0  0  0  0  0  0  0  0  0  0  0
  -25.0030  -25.9600   22.2129 C   0  0  0  0  0  0  0  0  0  0  0  0
  -25.0753  -27.1676   24.9113 C   0  0  0  0  0  0  0  0  0  0  0  0
  -31.6097  -26.6846   21.1433 C   0  0  0  0  0  0  0  0  0  0  0  0
  -29.4984  -13.4265   18.2103 C   0  0  0  0  0  0  0  0  0  0  0  0
  -30.1580  -27.0926   21.3449 C   0  0  0  0  0  0  0  0  0  0  0  0
  -28.0239  -13.1617   18.5193 C   0  0  0  0  0  0  0  0  0  0  0  0
  -27.7933  -18.6936   21.3364 C   0  0  0  0  0  0  0  0  0  0  0  0
  -27.3301  -19.3449   22.6082 C   0  0  0  0  0  0  0  0  0  0  0  0
  -27.8027  -20.2904   27.4116 C   0  0  0  0  0  0  0  0  0  0  0  0
  -26.0306  -18.5329   27.8085 C   0  0  0  0  0  0  0  0  0  0  0  0
  -30.4166  -12.4993   19.0035 C   0  0  0  0  0  0  0  0  0  0  0  0
  -28.7181  -12.2399   20.7703 C   0  0  0  0  0  0  0  0  0  0  0  0
  -27.0024  -21.2741   28.2555 C   0  0  0  0  0  0  0  0  0  0  0  0
  -25.2440  -19.5300   28.6497 C   0  0  0  0  0  0  0  0  0  0  0  0
  -27.5372  -18.8370   27.8359 C   0  0  0  0  0  0  0  0  0  0  0  0
  -29.2976  -25.8805   21.7238 C   0  0  1  0  0  0  0  0  0  0  0  0
  -25.8275  -27.2082   22.5123 C   0  0  1  0  0  0  0  0  0  0  0  0
  -27.7552  -13.1885   20.0360 C   0  0  2  0  0  0  0  0  0  0  0  0
  -28.5075  -18.3985   22.6347 C   0  0  0  0  0  0  0  0  0  0  0  0
  -29.5763  -17.0201   28.9010 C   0  0  0  0  0  0  0  0  0  0  0  0
  -30.8575  -18.5243   21.7919 C   0  0  0  0  0  0  0  0  0  0  0  0
  -21.3028  -32.4305   26.0136 C   0  0  0  0  0  0  0  0  0  0  0  0
  -32.4368  -12.1066   24.2076 C   0  0  0  0  0  0  0  0  0  0  0  0
  -27.5256  -30.1997   25.5990 C   0  0  0  0  0  0  0  0  0  0  0  0
  -25.8289  -31.6181   26.7728 C   0  0  0  0  0  0  0  0  0  0  0  0
  -26.4057  -32.0811   24.3904 C   0  0  0  0  0  0  0  0  0  0  0  0
  -20.1612  -29.2801   24.2113 C   0  0  0  0  0  0  0  0  0  0  0  0
  -28.3064  -17.0241   23.2652 C   0  0  0  0  0  0  0  0  0  0  0  0
  -29.8783  -18.9839   22.8344 C   0  0  0  0  0  0  0  0  0  0  0  0
  -30.9826  -14.0942   24.8559 C   0  0  0  0  0  0  0  0  0  0  0  0
  -24.6857  -21.9485   28.8824 C   0  0  0  0  0  0  0  0  0  0  0  0
  -24.5287  -23.1738   28.0037 C   0  0  0  0  0  0  0  0  0  1  0  0
  -25.0298  -30.0373   24.9579 C   0  0  1  0  0  0  0  0  0  0  0  0
  -21.4393  -31.2481   25.0669 C   0  0  2  0  0  0  0  0  0  0  0  0
  -31.6816  -13.3398   23.7214 C   0  0  2  0  0  0  0  0  0  0  0  0
  -26.1932  -30.9561   25.4267 C   0  0  0  0  0  0  0  0  0  0  0  0
  -25.9440  -11.6129   20.6012 N   0  0  0  0  0  0  0  0  0  0  0  0
  -26.3027  -12.8840   20.3527 N   0  0  0  0  0  0  0  0  0  0  0  0
  -25.3424  -27.9380   23.6854 N   0  0  0  0  0  0  0  0  0  0  0  0
  -30.1113  -12.5732   20.4344 N   0  0  0  0  0  0  0  0  0  0  0  0
  -25.4546  -15.0903   20.1988 N   0  0  0  0  0  0  0  0  0  0  0  0
  -21.8044  -12.6407   21.2339 N   0  0  0  0  0  0  0  0  0  0  0  0
  -30.3076  -15.2588   24.3758 N   0  0  0  0  0  0  0  0  0  0  0  0
  -27.9037  -26.2654   21.7009 N   0  0  0  0  0  0  0  0  0  0  0  0
  -23.7623  -30.7320   24.7603 N   0  0  0  0  0  0  0  0  0  0  0  0
  -30.7507  -12.9822   22.6743 N   0  0  0  0  0  0  0  0  0  0  0  0
  -25.5235  -20.9449   28.1787 N   0  3  0  0  0  0  0  0  0  0  0  0
  -20.1748  -30.4609   25.1128 N   0  3  0  0  0  0  0  0  0  0  0  0
  -22.5571  -14.7574   20.7740 O   0  0  0  0  0  0  0  0  0  0  0  0
  -27.7917  -27.2186   23.8225 O   0  0  0  0  0  0  0  0  0  0  0  0
  -25.5564  -30.0137   22.6452 O   0  0  0  0  0  0  0  0  0  0  0  0
  -22.5388  -29.4618   26.2660 O   0  0  0  0  0  0  0  0  0  0  0  0
  -32.2802  -13.1875   20.9787 O   0  0  0  0  0  0  0  0  0  0  0  0
  -21.6577   -7.1315   22.0481 O   0  0  0  0  0  0  0  0  0  0  0  0
  -23.8833  -22.8079   26.7848 O   0  0  0  0  0  0  0  0  0  1  0  0
  -16.8033   -6.4815   19.5149 F   0  0  0  0  0  0  0  0  0  0  0  0
  -21.1766   -4.9292   20.4478 F   0  0  0  0  0  0  0  0  0  0  0  0
  1  2  1  0  0  0  0
  1  5  2  0  0  0  0
  2  6  2  0  0  0  0
  3  8  2  0  0  0  0
  3 17  1  0  0  0  0
  4  9  1  0  0  0  0
  4 17  2  0  0  0  0
  5 19  1  0  0  0  0
  6 21  1  0  0  0  0
  7 10  2  0  0  0  0
  7 20  1  0  0  0  0
  8 27  1  0  0  0  0
  9 27  2  0  0  0  0
 10 28  1  0  0  0  0
 11 12  2  0  0  0  0
 11 29  1  0  0  0  0
 12 30  1  0  0  0  0
 13 22  2  0  0  0  0
 13 24  1  0  0  0  0
 14 23  1  0  0  0  0
 14 28  2  0  0  0  0
 15 25  2  0  0  0  0
 15 26  1  0  0  0  0
 16 30  2  0  0  0  0
 16 31  1  0  0  0  0
 17 32  1  0  0  0  0
 18 32  1  0  0  0  0
 18 33  2  0  0  0  0
 18 34  1  0  0  0  0
 19 21  2  0  0  0  0
 19 39  1  0  0  0  0
 20 23  2  0  0  0  0
 20 40  1  0  0  0  0
 21 55  1  0  0  0  0
 22 25  1  0  0  0  0
 22 54  1  0  0  0  0
 23 41  1  0  0  0  0
 24 26  2  0  0  0  0
 24 67  1  0  0  0  0
 25 59  1  0  0  0  0
 26 82  1  0  0  0  0
 27 93  1  0  0  0  0
 28 94  1  0  0  0  0
 29 31  2  0  0  0  0
 29 93  1  0  0  0  0
 30 95  1  0  0  0  0
 31 96  1  0  0  0  0
 32 76  2  0  0  0  0
 33 77  1  0  0  0  0
 33 80  1  0  0  0  0
 34 81  1  0  0  0  0
 34 88  2  0  0  0  0
 35 56  1  0  0  0  0
 35 83  1  0  0  0  0
 35 89  2  0  0  0  0
 36 72  1  0  0  0  0
 36 78  1  0  0  0  0
 36 90  2  0  0  0  0
 37 73  1  0  0  0  0
 37 84  1  0  0  0  0
 37 91  2  0  0  0  0
 38 79  1  0  0  0  0
 38 85  1  0  0  0  0
 38 92  2  0  0  0  0
 39 42  1  0  0  0  0
 40 56  1  0  0  0  0
 41 78  1  0  0  0  0
 42 44  1  0  0  0  0
 43 45  1  0  0  0  0
 43 50  1  0  0  0  0
 44 55  1  0  0  0  0
 45 57  1  0  0  0  0
 46 47  1  0  0  0  0
 46 58  1  0  0  0  0
 47 58  1  0  0  0  0
 48 52  1  0  0  0  0
 48 54  1  0  0  0  0
 49 53  1  0  0  0  0
 49 54  1  0  0  0  0
 50 79  1  0  0  0  0
 51 57  1  0  0  0  0
 51 79  1  0  0  0  0
 52 86  1  0  0  0  0
 53 86  1  0  0  0  0
 55 83  1  0  0  0  0
 56 78  1  0  0  0  0
 57 77  1  0  0  0  0
 58 67  1  0  0  0  0
 58 68  1  0  0  0  0
 60 68  1  0  0  0  0
 61 73  1  0  0  0  0
 62 74  1  0  0  0  0
 63 75  1  0  0  0  0
 64 75  1  0  0  0  0
 65 75  1  0  0  0  0
 66 87  1  0  0  0  0
 69 74  1  0  0  0  0
 69 82  1  0  0  0  0
 70 71  1  0  0  0  0
 70 86  1  0  0  0  0
 71 94  1  0  0  0  0
 72 75  1  0  0  0  0
 72 84  1  0  0  0  0
 73 87  1  0  0  0  0
 74 85  1  0  0  0  0
 76 77  1  0  0  0  0
M  CHG  2  86   1  87   1
M  ISO  4  38 100  71 101  85 100  94 101
M  END
> <Batch ID>
0144

> <Smiles>
CCC1(Cc2cc(C3CCN(C[101CH2:1][101O:1]c4ccc5c(c4)CN(C(=O)C(NC(=O)C(C)NC)C(C)(C)C)C(C(=O)NC4CCCc6ccccc64)C5)CC3)c(C)cc2NCC(C)[100NH:0][100C:0](=O)N2CCCC(n3nc(-c4ccc(Oc5ccc(F)cc5F)cc4)c(C(N)=O)c3N)C2)CC1

> <Shape>
0.230

> <Color>
0.176

> <Negative vol penalty>
0.000

$$$$

  -OEChem-04052321263D

 91100  0     1  0  0  0  0  0999 V2000
  -19.2721  -24.0182   23.0703 C   0  0  0  0  0  0  0  0  0  0  0  0
  -20.6013  -24.1861   22.6956 C   0  0  0  0  0  0  0  0  0  0  0  0
  -24.3952  -17.5255   19.3632 C   0  0  0  0  0  0  0  0  0  0  0  0
  -23.9088  -16.2178   17.3908 C   0  0  0  0  0  0  0  0  0  0  0  0
  -18.4063  -25.1110   23.0729 C   0  0  0  0  0  0  0  0  0  0  0  0
  -21.0653  -25.4470   22.3223 C   0  0  0  0  0  0  0  0  0  0  0  0
  -25.5413  -26.5665   24.4097 C   0  0  0  0  0  0  0  0  0  0  0  0
  -23.8437  -18.6518   18.7525 C   0  0  0  0  0  0  0  0  0  0  0  0
  -23.3573  -17.3441   16.7801 C   0  0  0  0  0  0  0  0  0  0  0  0
  -26.6733  -25.9883   23.8371 C   0  0  0  0  0  0  0  0  0  0  0  0
  -22.2374  -21.7856   17.8503 C   0  0  0  0  0  0  0  0  0  0  0  0
  -21.3754  -22.5778   18.6085 C   0  0  0  0  0  0  0  0  0  0  0  0
  -27.1231  -28.0468   22.6625 C   0  0  0  0  0  0  0  0  0  0  0  0
  -28.5004  -22.0845   20.6175 C   0  0  0  0  0  0  0  0  0  0  0  0
  -30.5124  -22.9711   19.6162 C   0  0  0  0  0  0  0  0  0  0  0  0
  -19.8970  -20.6894   18.9009 C   0  0  0  0  0  0  0  0  0  0  0  0
  -24.4278  -16.3085   18.6823 C   0  0  0  0  0  0  0  0  0  0  0  0
  -24.3288  -14.1947   20.1070 C   0  0  0  0  0  0  0  0  0  0  0  0
  -18.8623  -26.3878   22.7087 C   0  0  0  0  0  0  0  0  0  0  0  0
  -25.1849  -27.8879   24.1041 C   0  0  0  0  0  0  0  0  0  0  0  0
  -20.2045  -26.5577   22.3188 C   0  0  0  0  0  0  0  0  0  0  0  0
  -25.9875  -28.6403   23.2346 C   0  0  0  0  0  0  0  0  0  0  0  0
  -29.0384  -20.7989   20.5604 C   0  0  0  0  0  0  0  0  0  0  0  0
  -31.0506  -21.6855   19.5591 C   0  0  0  0  0  0  0  0  0  0  0  0
  -30.3135  -20.5994   20.0313 C   0  0  0  0  0  0  0  0  0  0  0  0
  -23.3247  -18.5611   17.4610 C   0  0  0  0  0  0  0  0  0  0  0  0
  -27.4628  -26.7276   22.9611 C   0  0  0  0  0  0  0  0  0  0  0  0
  -21.9291  -20.4452   17.6172 C   0  0  0  0  0  0  0  0  0  0  0  0
  -29.2374  -23.1706   20.1453 C   0  0  0  0  0  0  0  0  0  0  0  0
  -20.2052  -22.0297   19.1339 C   0  0  0  0  0  0  0  0  0  0  0  0
  -20.7589  -19.8972   18.1425 C   0  0  0  0  0  0  0  0  0  0  0  0
  -24.9979  -15.1448   19.3124 C   0  0  0  0  0  0  0  0  0  0  0  0
  -25.3045  -13.2954   20.4616 C   0  0  0  0  0  0  0  0  0  0  0  0
  -22.9487  -14.1307   20.4903 C   0  0  0  0  0  0  0  0  0  0  0  0
  -22.6747  -29.2743   22.7329 C   0  0  0  0  0  0  0  0  0  0  0  0
  -24.2013  -32.0029   23.5968 C   0  0  0  0  0  0  0  0  0  0  0  0
  -27.1351  -33.5529   24.3951 C   0  0  0  0  0  0  0  0  0  0  0  0
  -31.2520  -13.7461   20.9282 C   0  0  0  0  0  0  0  0  0  0  0  0
  -17.8776  -27.5298   22.6815 C   0  0  0  0  0  0  0  0  0  0  0  0
  -23.9757  -28.5057   24.7509 C   0  0  0  0  0  0  0  0  0  0  0  0
  -25.6596  -30.0693   22.8897 C   0  0  0  0  0  0  0  0  0  0  0  0
  -18.5401  -28.9042   22.6326 C   0  0  0  0  0  0  0  0  0  0  0  0
  -29.4330  -11.4433   18.9620 C   0  0  0  0  0  0  0  0  0  0  0  0
  -19.6504  -28.9248   21.5868 C   0  0  0  0  0  0  0  0  0  0  0  0
  -28.0356  -12.0497   18.8679 C   0  0  0  0  0  0  0  0  0  0  0  0
  -32.4167  -16.8127   22.6420 C   0  0  0  0  0  0  0  0  0  0  0  0
  -30.4984  -12.5303   18.9149 C   0  0  0  0  0  0  0  0  0  0  0  0
  -32.4512  -15.3072   22.4298 C   0  0  0  0  0  0  0  0  0  0  0  0
  -30.9080  -16.2888   20.8758 C   0  0  0  0  0  0  0  0  0  0  0  0
  -28.9491  -14.1736   19.9391 C   0  0  0  0  0  0  0  0  0  0  0  0
  -20.7514  -27.9145   21.9312 C   0  0  1  0  0  0  0  0  0  0  0  0
  -23.4201  -29.6919   23.9688 C   0  0  1  0  0  0  0  0  0  0  0  0
  -31.9477  -17.3329   21.2827 C   0  0  1  0  0  0  0  0  0  0  0  0
  -27.8311  -13.1108   19.9602 C   0  0  1  0  0  0  0  0  0  0  0  0
  -28.2286  -19.6537   21.0739 C   0  0  0  0  0  0  0  0  0  0  0  0
  -35.5939  -20.8333   20.7131 C   0  0  0  0  0  0  0  0  0  0  0  0
  -28.0720  -35.7962   25.0173 C   0  0  0  0  0  0  0  0  0  0  0  0
  -23.9808  -32.8989   20.6885 C   0  0  0  0  0  0  0  0  0  0  0  0
  -25.7190  -34.6367   21.1650 C   0  0  0  0  0  0  0  0  0  0  0  0
  -23.5358  -34.6956   22.3702 C   0  0  0  0  0  0  0  0  0  0  0  0
  -28.0898  -32.5572   27.0135 C   0  0  0  0  0  0  0  0  0  0  0  0
  -30.8947  -19.2094   19.9693 C   0  0  0  0  0  0  0  0  0  0  0  0
  -32.4171  -21.4978   18.9861 C   0  0  0  0  0  0  0  0  0  0  0  0
  -31.3933  -18.7451   21.3404 C   0  0  0  0  0  0  0  0  0  0  0  0
  -34.6604  -21.0777   19.5467 C   0  0  0  0  0  0  0  0  0  0  0  0
  -28.9484  -26.6313   21.1064 C   0  0  0  0  0  0  0  0  0  1  0  0
  -29.6278  -25.5078   20.3477 C   0  0  0  0  0  0  0  0  0  0  0  0
  -25.2244  -32.9059   22.9511 C   0  0  1  0  0  0  0  0  0  0  0  0
  -27.5045  -34.4840   25.5357 C   0  0  2  0  0  0  0  0  0  0  0  0
  -24.6204  -33.7568   21.7985 C   0  0  0  0  0  0  0  0  0  0  0  0
  -26.2982  -14.8744   19.1704 N   0  0  0  0  0  0  0  0  0  0  0  0
  -26.4540  -13.7443   19.8807 N   0  0  0  0  0  0  0  0  0  0  0  0
  -24.4636  -30.6266   23.5428 N   0  0  0  0  0  0  0  0  0  0  0  0
  -30.2794  -13.5512   19.9412 N   0  0  0  0  0  0  0  0  0  0  0  0
  -31.4193  -15.0345   21.4342 N   0  0  0  0  0  0  0  0  0  0  0  0
  -25.2828  -12.1725   21.2106 N   0  0  0  0  0  0  0  0  0  0  0  0
  -22.0825  -15.1357   20.0385 N   0  0  0  0  0  0  0  0  0  0  0  0
  -21.6050  -28.4344   22.9778 N   0  0  0  0  0  0  0  0  0  0  0  0
  -25.8129  -33.6926   24.0296 N   0  0  0  0  0  0  0  0  0  0  0  0
  -28.5242  -33.8460   26.4156 N   0  3  0  0  0  0  0  0  0  0  0  0
  -22.5004  -13.2187   21.2256 O   0  0  0  0  0  0  0  0  0  0  0  0
  -23.0418  -29.6849   21.6382 O   0  0  0  0  0  0  0  0  0  0  0  0
  -23.2097  -32.5007   24.1358 O   0  0  0  0  0  0  0  0  0  0  0  0
  -27.9399  -32.7817   23.8774 O   0  0  0  0  0  0  0  0  0  0  0  0
  -31.9726  -12.8153   21.3132 O   0  0  0  0  0  0  0  0  0  0  0  0
  -22.7863  -19.6598   16.8648 O   0  0  0  0  0  0  0  0  0  0  0  0
  -28.5755  -26.1616   22.3964 O   0  0  0  0  0  0  0  0  0  1  0  0
  -28.7111  -24.4246   20.1992 O   0  0  0  0  0  0  0  0  0  0  0  0
  -33.3410  -21.2633   20.0409 O   0  0  0  0  0  0  0  0  0  0  0  0
  -19.3784  -22.7902   19.8633 F   0  0  0  0  0  0  0  0  0  0  0  0
  -20.4581  -18.6099   17.9230 F   0  0  0  0  0  0  0  0  0  0  0  0
  1  2  1  0  0  0  0
  1  5  2  0  0  0  0
  2  6  2  0  0  0  0
  3  8  2  0  0  0  0
  3 17  1  0  0  0  0
  4  9  1  0  0  0  0
  4 17  2  0  0  0  0
  5 19  1  0  0  0  0
  6 21  1  0  0  0  0
  7 10  2  0  0  0  0
  7 20  1  0  0  0  0
  8 26  1  0  0  0  0
  9 26  2  0  0  0  0
 10 27  1  0  0  0  0
 11 12  2  0  0  0  0
 11 28  1  0  0  0  0
 12 30  1  0  0  0  0
 13 22  1  0  0  0  0
 13 27  2  0  0  0  0
 14 23  2  0  0  0  0
 14 29  1  0  0  0  0
 15 24  1  0  0  0  0
 15 29  2  0  0  0  0
 16 30  2  0  0  0  0
 16 31  1  0  0  0  0
 17 32  1  0  0  0  0
 18 32  1  0  0  0  0
 18 33  2  0  0  0  0
 18 34  1  0  0  0  0
 19 21  2  0  0  0  0
 19 39  1  0  0  0  0
 20 22  2  0  0  0  0
 20 40  1  0  0  0  0
 21 51  1  0  0  0  0
 22 41  1  0  0  0  0
 23 25  1  0  0  0  0
 23 55  1  0  0  0  0
 24 25  2  0  0  0  0
 24 63  1  0  0  0  0
 25 62  1  0  0  0  0
 26 86  1  0  0  0  0
 27 87  1  0  0  0  0
 28 31  2  0  0  0  0
 28 86  1  0  0  0  0
 29 88  1  0  0  0  0
 30 90  1  0  0  0  0
 31 91  1  0  0  0  0
 32 71  2  0  0  0  0
 33 72  1  0  0  0  0
 33 76  1  0  0  0  0
 34 77  1  0  0  0  0
 34 81  2  0  0  0  0
 35 52  1  0  0  0  0
 35 78  1  0  0  0  0
 35 82  2  0  0  0  0
 36 68  1  0  0  0  0
 36 73  1  0  0  0  0
 36 83  2  0  0  0  0
 37 69  1  0  0  0  0
 37 79  1  0  0  0  0
 37 84  2  0  0  0  0
 38 74  1  0  0  0  0
 38 75  1  0  0  0  0
 38 85  2  0  0  0  0
 39 42  1  0  0  0  0
 40 52  1  0  0  0  0
 41 73  1  0  0  0  0
 42 44  1  0  0  0  0
 43 45  1  0  0  0  0
 43 47  1  0  0  0  0
 44 51  1  0  0  0  0
 45 54  1  0  0  0  0
 46 48  1  0  0  0  0
 46 53  1  0  0  0  0
 47 74  1  0  0  0  0
 48 75  1  0  0  0  0
 49 53  1  0  0  0  0
 49 75  1  0  0  0  0
 50 54  1  0  0  0  0
 50 74  1  0  0  0  0
 51 78  1  0  0  0  0
 52 73  1  0  0  0  0
 53 64  1  0  0  0  0
 54 72  1  0  0  0  0
 56 65  1  0  0  0  0
 57 69  1  0  0  0  0
 58 70  1  0  0  0  0
 59 70  1  0  0  0  0
 60 70  1  0  0  0  0
 61 80  1  0  0  0  0
 62 64  1  0  0  0  0
 63 89  1  0  0  0  0
 65 89  1  0  0  0  0
 66 67  1  0  0  0  0
 66 87  1  0  0  0  0
 67 88  1  0  0  0  0
 68 70  1  0  0  0  0
 68 79  1  0  0  0  0
 69 80  1  0  0  0  0
 71 72  1  0  0  0  0
M  CHG  1  80   1
M  ISO  4  38 100  66 101  75 100  87 101
M  END
> <Batch ID>
0144

> <Smiles>
CCOCc1cc(OC[101CH2:1][101O:1]c2ccc3c(c2)CN(C(=O)C(NC(=O)C(C)NC)C(C)(C)C)C(C(=O)NC2CCCc4ccccc42)C3)cc(C)c1CCC1CC[100N:0]([100C:0](=O)N2CCCC(n3nc(-c4ccc(Oc5ccc(F)cc5F)cc4)c(C(N)=O)c3N)C2)C1

> <Shape>
0.282

> <Color>
0.085

> <Negative vol penalty>
0.000

$$$$

  -OEChem-04052321263D

 89 98  0     1  0  0  0  0  0999 V2000
  -19.7465  -34.1047   21.2310 C   0  0  0  0  0  0  0  0  0  0  0  0
  -21.0500  -33.7114   20.9455 C   0  0  0  0  0  0  0  0  0  0  0  0
  -23.3756   -9.6722   20.0443 C   0  0  0  0  0  0  0  0  0  0  0  0
  -24.0789   -9.9188   22.3425 C   0  0  0  0  0  0  0  0  0  0  0  0
  -18.9970  -33.3996   22.1717 C   0  0  0  0  0  0  0  0  0  0  0  0
  -21.6053  -32.6133   21.6015 C   0  0  0  0  0  0  0  0  0  0  0  0
  -25.5649  -28.5564   19.2844 C   0  0  0  0  0  0  0  0  0  0  0  0
  -22.7814   -8.4497   20.3573 C   0  0  0  0  0  0  0  0  0  0  0  0
  -23.4846   -8.6963   22.6555 C   0  0  0  0  0  0  0  0  0  0  0  0
  -26.9511  -28.4404   19.3773 C   0  0  0  0  0  0  0  0  0  0  0  0
  -20.3740   -7.5242   23.2646 C   0  0  0  0  0  0  0  0  0  0  0  0
  -19.6036   -7.4583   24.4255 C   0  0  0  0  0  0  0  0  0  0  0  0
  -29.2804  -20.9665   20.2601 C   0  0  0  0  0  0  0  0  0  0  0  0
  -31.0467  -20.0504   18.8899 C   0  0  0  0  0  0  0  0  0  0  0  0
  -26.6925  -26.8762   21.1954 C   0  0  0  0  0  0  0  0  0  0  0  0
  -21.0683   -5.7476   25.3004 C   0  0  0  0  0  0  0  0  0  0  0  0
  -24.0244  -10.4068   21.0369 C   0  0  0  0  0  0  0  0  0  0  0  0
  -24.0404  -12.9427   20.7607 C   0  0  0  0  0  0  0  0  0  0  0  0
  -19.5400  -32.2864   22.8325 C   0  0  0  0  0  0  0  0  0  0  0  0
  -24.7308  -27.8403   20.1550 C   0  0  0  0  0  0  0  0  0  0  0  0
  -20.8628  -31.8935   22.5529 C   0  0  0  0  0  0  0  0  0  0  0  0
  -30.3899  -21.1533   19.4358 C   0  0  0  0  0  0  0  0  0  0  0  0
  -25.2959  -26.9829   21.1098 C   0  0  0  0  0  0  0  0  0  0  0  0
  -28.8276  -19.6769   20.5388 C   0  0  0  0  0  0  0  0  0  0  0  0
  -30.5940  -18.7608   19.1685 C   0  0  0  0  0  0  0  0  0  0  0  0
  -29.4844  -18.5740   19.9929 C   0  0  0  0  0  0  0  0  0  0  0  0
  -22.8358   -7.9618   21.6629 C   0  0  0  0  0  0  0  0  0  0  0  0
  -27.5152  -27.6025   20.3347 C   0  0  0  0  0  0  0  0  0  0  0  0
  -21.4916   -6.7018   23.1216 C   0  0  0  0  0  0  0  0  0  0  0  0
  -19.9507   -6.5700   25.4434 C   0  0  0  0  0  0  0  0  0  0  0  0
  -21.8387   -5.8135   24.1395 C   0  0  0  0  0  0  0  0  0  0  0  0
  -24.6389  -11.6694   20.7141 C   0  0  0  0  0  0  0  0  0  0  0  0
  -25.0344  -13.8040   20.3650 C   0  0  0  0  0  0  0  0  0  0  0  0
  -22.7053  -13.3138   21.1290 C   0  0  0  0  0  0  0  0  0  0  0  0
  -22.5873  -28.6310   22.3650 C   0  0  0  0  0  0  0  0  0  0  0  0
  -22.0659  -25.4304   22.4460 C   0  0  0  0  0  0  0  0  0  0  0  0
  -23.2605  -22.2850   21.8748 C   0  0  0  0  0  0  0  0  0  0  0  0
  -30.4872  -15.2761   21.0110 C   0  0  0  0  0  0  0  0  0  0  0  0
  -18.7077  -31.5844   23.8761 C   0  0  0  0  0  0  0  0  0  0  0  0
  -23.2368  -27.9559   20.0244 C   0  0  0  0  0  0  0  0  0  0  0  0
  -24.4440  -26.1768   22.0548 C   0  0  0  0  0  0  0  0  0  0  0  0
  -19.2407  -30.2046   24.2534 C   0  0  0  0  0  0  0  0  0  0  0  0
  -29.5620  -12.9153   18.3143 C   0  0  0  0  0  0  0  0  0  0  0  0
  -20.7459  -30.2614   24.4942 C   0  0  0  0  0  0  0  0  0  0  0  0
  -28.1778  -12.4378   18.7500 C   0  0  0  0  0  0  0  0  0  0  0  0
  -29.7818  -23.3392   18.4164 C   0  0  0  0  0  0  0  0  0  0  0  0
  -31.2981  -23.2418   20.4359 C   0  0  0  0  0  0  0  0  0  0  0  0
  -30.4235  -13.3206   19.5065 C   0  0  0  0  0  0  0  0  0  0  0  0
  -28.4034  -13.8558   20.8282 C   0  0  0  0  0  0  0  0  0  0  0  0
  -30.2157  -24.7788   18.1721 C   0  0  0  0  0  0  0  0  0  0  0  0
  -31.7207  -24.6821   20.1758 C   0  0  0  0  0  0  0  0  0  0  0  0
  -30.8755  -22.5351   19.1378 C   0  0  0  0  0  0  0  0  0  0  0  0
  -21.4917  -30.6925   23.2255 C   0  0  1  0  0  0  0  0  0  0  0  0
  -22.4941  -27.5740   21.3011 C   0  0  1  0  0  0  0  0  0  0  0  0
  -27.4940  -13.4838   19.6474 C   0  0  2  0  0  0  0  0  0  0  0  0
  -27.6365  -19.5043   21.4237 C   0  0  0  0  0  0  0  0  0  0  0  0
  -31.3148  -17.5964   18.5715 C   0  0  0  0  0  0  0  0  0  0  0  0
  -22.6175  -19.8674   22.0731 C   0  0  0  0  0  0  0  0  0  0  0  0
  -22.5224  -25.5586   25.4601 C   0  0  0  0  0  0  0  0  0  0  0  0
  -22.8128  -23.0719   25.4517 C   0  0  0  0  0  0  0  0  0  0  0  0
  -20.6381  -24.0743   24.7527 C   0  0  0  0  0  0  0  0  0  0  0  0
  -30.2606  -17.2949   22.4085 C   0  0  0  0  0  0  0  0  0  0  0  0
  -23.5329  -21.8535   18.9596 C   0  0  0  0  0  0  0  0  0  0  0  0
  -28.9984  -17.1915   20.2914 C   0  0  0  0  0  0  0  0  0  0  0  0
  -30.9131  -26.8795   19.3190 C   0  0  0  0  0  0  0  0  0  0  0  0
  -29.6189  -27.6635   19.2272 C   0  0  0  0  0  0  0  0  0  1  0  0
  -22.6425  -24.2726   23.2245 C   0  0  1  0  0  0  0  0  0  0  0  0
  -22.6500  -21.0887   21.1674 C   0  0  2  0  0  0  0  0  0  0  0  0
  -22.1703  -24.2609   24.7059 C   0  0  0  0  0  0  0  0  0  0  0  0
  -25.9143  -11.7133   20.3196 N   0  0  0  0  0  0  0  0  0  0  0  0
  -26.1253  -13.0246   20.1148 N   0  0  0  0  0  0  0  0  0  0  0  0
  -22.9887  -26.3288   21.8918 N   0  0  0  0  0  0  0  0  0  0  0  0
  -29.7325  -14.2826   20.3658 N   0  0  0  0  0  0  0  0  0  0  0  0
  -25.0729  -15.1445   20.2101 N   0  0  0  0  0  0  0  0  0  0  0  0
  -21.8120  -12.3032   21.5100 N   0  0  0  0  0  0  0  0  0  0  0  0
  -21.5915  -29.5866   22.2974 N   0  0  0  0  0  0  0  0  0  0  0  0
  -22.2986  -23.0672   22.4782 N   0  0  0  0  0  0  0  0  0  0  0  0
  -29.8521  -16.5029   21.2571 N   0  0  0  0  0  0  0  0  0  0  0  0
  -30.6018  -25.4372   19.4832 N   0  3  0  0  0  0  0  0  0  0  0  0
  -23.4385  -20.7494   19.9491 N   0  3  0  0  0  0  0  0  0  0  0  0
  -22.3113  -14.5044   21.1046 O   0  0  0  0  0  0  0  0  0  0  0  0
  -23.4946  -28.5822   23.1872 O   0  0  0  0  0  0  0  0  0  0  0  0
  -20.8421  -25.5298   22.3276 O   0  0  0  0  0  0  0  0  0  0  0  0
  -24.4702  -22.5018   21.8937 O   0  0  0  0  0  0  0  0  0  0  0  0
  -31.6645  -15.0813   21.3392 O   0  0  0  0  0  0  0  0  0  0  0  0
  -22.2559   -6.7690   21.9688 O   0  0  0  0  0  0  0  0  0  0  0  0
  -28.8680  -27.4879   20.4279 O   0  0  0  0  0  0  0  0  0  1  0  0
  -19.2116   -6.5079   26.5588 F   0  0  0  0  0  0  0  0  0  0  0  0
  -22.9119   -5.0218   24.0083 F   0  0  0  0  0  0  0  0  0  0  0  0
  1  2  1  0  0  0  0
  1  5  2  0  0  0  0
  2  6  2  0  0  0  0
  3  8  2  0  0  0  0
  3 17  1  0  0  0  0
  4  9  1  0  0  0  0
  4 17  2  0  0  0  0
  5 19  1  0  0  0  0
  6 21  1  0  0  0  0
  7 10  2  0  0  0  0
  7 20  1  0  0  0  0
  8 27  1  0  0  0  0
  9 27  2  0  0  0  0
 10 28  1  0  0  0  0
 11 12  2  0  0  0  0
 11 29  1  0  0  0  0
 12 30  1  0  0  0  0
 13 22  1  0  0  0  0
 13 24  2  0  0  0  0
 14 22  2  0  0  0  0
 14 25  1  0  0  0  0
 15 23  1  0  0  0  0
 15 28  2  0  0  0  0
 16 30  2  0  0  0  0
 16 31  1  0  0  0  0
 17 32  1  0  0  0  0
 18 32  1  0  0  0  0
 18 33  2  0  0  0  0
 18 34  1  0  0  0  0
 19 21  2  0  0  0  0
 19 39  1  0  0  0  0
 20 23  2  0  0  0  0
 20 40  1  0  0  0  0
 21 53  1  0  0  0  0
 22 52  1  0  0  0  0
 23 41  1  0  0  0  0
 24 26  1  0  0  0  0
 24 56  1  0  0  0  0
 25 26  2  0  0  0  0
 25 57  1  0  0  0  0
 26 64  1  0  0  0  0
 27 86  1  0  0  0  0
 28 87  1  0  0  0  0
 29 31  2  0  0  0  0
 29 86  1  0  0  0  0
 30 88  1  0  0  0  0
 31 89  1  0  0  0  0
 32 70  2  0  0  0  0
 33 71  1  0  0  0  0
 33 74  1  0  0  0  0
 34 75  1  0  0  0  0
 34 81  2  0  0  0  0
 35 54  1  0  0  0  0
 35 76  1  0  0  0  0
 35 82  2  0  0  0  0
 36 67  1  0  0  0  0
 36 72  1  0  0  0  0
 36 83  2  0  0  0  0
 37 68  1  0  0  0  0
 37 77  1  0  0  0  0
 37 84  2  0  0  0  0
 38 73  1  0  0  0  0
 38 78  1  0  0  0  0
 38 85  2  0  0  0  0
 39 42  1  0  0  0  0
 40 54  1  0  0  0  0
 41 72  1  0  0  0  0
 42 44  1  0  0  0  0
 43 45  1  0  0  0  0
 43 48  1  0  0  0  0
 44 53  1  0  0  0  0
 45 55  1  0  0  0  0
 46 50  1  0  0  0  0
 46 52  1  0  0  0  0
 47 51  1  0  0  0  0
 47 52  1  0  0  0  0
 48 73  1  0  0  0  0
 49 55  1  0  0  0  0
 49 73  1  0  0  0  0
 50 79  1  0  0  0  0
 51 79  1  0  0  0  0
 53 76  1  0  0  0  0
 54 72  1  0  0  0  0
 55 71  1  0  0  0  0
 58 68  1  0  0  0  0
 59 69  1  0  0  0  0
 60 69  1  0  0  0  0
 61 69  1  0  0  0  0
 62 78  1  0  0  0  0
 63 80  1  0  0  0  0
 64 78  1  0  0  0  0
 65 66  1  0  0  0  0
 65 79  1  0  0  0  0
 66 87  1  0  0  0  0
 67 69  1  0  0  0  0
 67 77  1  0  0  0  0
 68 80  1  0  0  0  0
 70 71  1  0  0  0  0
M  CHG  2  79   1  80   1
M  ISO  4  38 100  66 101  78 100  87 101
M  END
> <Batch ID>
0144

> <Smiles>
CNC(C)C(=O)NC(C(=O)N1Cc2cc([101O:1][101CH2:1]CN3CCC(c4cc(C)c(C[100N:0](C)[100C:0](=O)N5CCCC(n6nc(-c7ccc(Oc8ccc(F)cc8F)cc7)c(C(N)=O)c6N)C5)c(C)c4)CC3)ccc2CC1C(=O)NC1CCCc2ccccc21)C(C)(C)C

> <Shape>
0.340

> <Color>
0.224

> <Negative vol penalty>
0.000

$$$$

  -OEChem-04052321263D

 84 93  0     1  0  0  0  0  0999 V2000
  -28.4579  -36.9933   23.7918 C   0  0  0  0  0  0  0  0  0  0  0  0
  -28.5709  -35.6067   23.7982 C   0  0  0  0  0  0  0  0  0  0  0  0
  -23.4947   -9.4849   21.8597 C   0  0  0  0  0  0  0  0  0  0  0  0
  -25.7362   -8.6424   21.5395 C   0  0  0  0  0  0  0  0  0  0  0  0
  -27.2047  -37.5901   23.9229 C   0  0  0  0  0  0  0  0  0  0  0  0
  -27.4307  -34.8161   23.9368 C   0  0  0  0  0  0  0  0  0  0  0  0
  -27.3531  -30.9324   20.6878 C   0  0  0  0  0  0  0  0  0  0  0  0
  -23.2330   -8.4484   22.7557 C   0  0  0  0  0  0  0  0  0  0  0  0
  -25.4746   -7.6059   22.4355 C   0  0  0  0  0  0  0  0  0  0  0  0
  -28.1471  -29.8286   20.9958 C   0  0  0  0  0  0  0  0  0  0  0  0
  -22.4575   -5.1621   22.6044 C   0  0  0  0  0  0  0  0  0  0  0  0
  -21.2442   -4.4861   22.4758 C   0  0  0  0  0  0  0  0  0  0  0  0
  -26.2054  -28.6764   21.8452 C   0  0  0  0  0  0  0  0  0  0  0  0
  -20.6427   -5.1384   24.7230 C   0  0  0  0  0  0  0  0  0  0  0  0
  -24.7463   -9.5819   21.2516 C   0  0  0  0  0  0  0  0  0  0  0  0
  -24.3428  -10.9239   19.1199 C   0  0  0  0  0  0  0  0  0  0  0  0
  -26.0475  -36.8062   24.0534 C   0  0  0  0  0  0  0  0  0  0  0  0
  -25.9789  -30.9206   20.9666 C   0  0  0  0  0  0  0  0  0  0  0  0
  -26.1609  -35.4029   24.0710 C   0  0  0  0  0  0  0  0  0  0  0  0
  -25.3957  -29.7804   21.5373 C   0  0  0  0  0  0  0  0  0  0  0  0
  -24.2230   -7.5089   23.0436 C   0  0  0  0  0  0  0  0  0  0  0  0
  -27.5739  -28.7015   21.5772 C   0  0  0  0  0  0  0  0  0  0  0  0
  -22.7635   -5.8261   23.7923 C   0  0  0  0  0  0  0  0  0  0  0  0
  -20.3368   -4.4742   23.5351 C   0  0  0  0  0  0  0  0  0  0  0  0
  -21.8561   -5.8143   24.8516 C   0  0  0  0  0  0  0  0  0  0  0  0
  -25.0169  -10.6520   20.3255 C   0  0  0  0  0  0  0  0  0  0  0  0
  -24.9742  -12.0349   18.6164 C   0  0  0  0  0  0  0  0  0  0  0  0
  -23.2441  -10.2338   18.5098 C   0  0  0  0  0  0  0  0  0  0  0  0
  -24.0511  -32.6401   22.8189 C   0  0  0  0  0  0  0  0  0  0  0  0
  -21.7374  -30.8843   21.3744 C   0  0  0  0  0  0  0  0  0  0  0  0
  -21.2692  -27.4444   20.3920 C   0  0  0  0  0  0  0  0  0  0  0  0
  -27.9623  -16.3927   21.2499 C   0  0  0  0  0  0  0  0  0  0  0  0
  -24.7199  -37.4972   24.2397 C   0  0  0  0  0  0  0  0  0  0  0  0
  -25.1314  -32.1091   20.6037 C   0  0  0  0  0  0  0  0  0  0  0  0
  -23.9216  -29.7096   21.8380 C   0  0  0  0  0  0  0  0  0  0  0  0
  -23.5196  -36.5835   24.0057 C   0  0  0  0  0  0  0  0  0  0  0  0
  -29.2153  -14.2530   18.6139 C   0  0  0  0  0  0  0  0  0  0  0  0
  -23.7127  -35.2532   24.7266 C   0  0  0  0  0  0  0  0  0  0  0  0
  -29.8255  -20.8943   21.8096 C   0  0  0  0  0  0  0  0  0  0  0  0
  -28.9560  -24.5715   19.7735 C   0  0  0  0  0  0  0  0  0  0  0  0
  -27.4257  -23.9741   21.6963 C   0  0  0  0  0  0  0  0  0  0  0  0
  -28.2032  -13.1064   18.6459 C   0  0  0  0  0  0  0  0  0  0  0  0
  -30.0746  -19.3916   21.9761 C   0  0  0  0  0  0  0  0  0  0  0  0
  -29.1961  -25.9437   20.3958 C   0  0  0  0  0  0  0  0  0  0  0  0
  -27.6697  -25.3482   22.3130 C   0  0  0  0  0  0  0  0  0  0  0  0
  -28.1510  -19.6612   20.5730 C   0  0  0  0  0  0  0  0  0  0  0  0
  -29.5184  -14.7623   20.0199 C   0  0  0  0  0  0  0  0  0  0  0  0
  -27.3046  -14.0409   20.8274 C   0  0  0  0  0  0  0  0  0  0  0  0
  -24.9446  -34.5110   24.1943 C   0  0  1  0  0  0  0  0  0  0  0  0
  -23.8344  -32.1847   21.4035 C   0  0  1  0  0  0  0  0  0  0  0  0
  -28.6148  -23.5199   20.8384 C   0  0  0  0  0  0  0  0  0  0  0  0
  -28.4287  -21.0313   21.1899 C   0  0  2  0  0  0  0  0  0  0  0  0
  -26.9391  -13.4968   19.4344 C   0  0  2  0  0  0  0  0  0  0  0  0
  -28.7581  -18.7167   21.6010 C   0  0  1  0  0  0  0  0  0  0  0  0
  -28.0132  -26.3903   21.2507 C   0  0  0  0  0  0  0  0  0  1  0  0
  -19.8646  -26.4452   18.5683 C   0  0  0  0  0  0  0  0  0  0  0  0
  -19.6335  -30.5733   23.5624 C   0  0  0  0  0  0  0  0  0  0  0  0
  -19.0105  -28.3684   22.5532 C   0  0  0  0  0  0  0  0  0  0  0  0
  -18.7370  -30.4655   21.2302 C   0  0  0  0  0  0  0  0  0  0  0  0
  -23.5924  -26.0401   19.2130 C   0  0  0  0  0  0  0  0  0  0  0  0
  -21.0602  -29.5658   21.6609 C   0  0  1  0  0  0  0  0  0  0  0  0
  -21.2582  -26.8971   18.9761 C   0  0  2  0  0  0  0  0  0  0  0  0
  -28.3256  -22.1682   20.1883 C   0  0  1  0  0  0  0  0  0  0  0  0
  -19.6371  -29.7484   22.2599 C   0  0  0  0  0  0  0  0  0  0  0  0
  -26.0013  -11.5203   20.5730 N   0  0  0  0  0  0  0  0  0  0  0  0
  -25.9503  -12.3486   19.5159 N   0  0  0  0  0  0  0  0  0  0  0  0
  -23.1361  -30.8994   21.4706 N   0  0  0  0  0  0  0  0  0  0  0  0
  -28.2750  -15.1343   20.7095 N   0  0  0  0  0  0  0  0  0  0  0  0
  -24.7841  -12.7643   17.4965 N   0  0  0  0  0  0  0  0  0  0  0  0
  -23.5234   -9.1879   17.6196 N   0  0  0  0  0  0  0  0  0  0  0  0
  -24.6467  -33.8824   22.9253 N   0  0  0  0  0  0  0  0  0  0  0  0
  -21.0908  -28.8115   20.4125 N   0  0  0  0  0  0  0  0  0  0  0  0
  -28.9377  -17.3713   21.1022 N   0  0  0  0  0  0  0  0  0  0  0  0
  -22.1815  -25.7327   18.8636 N   0  3  0  0  0  0  0  0  0  0  0  0
  -22.0502  -10.5466   18.7343 O   0  0  0  0  0  0  0  0  0  0  0  0
  -23.7022  -31.9184   23.7458 O   0  0  0  0  0  0  0  0  0  0  0  0
  -21.0512  -31.8629   21.0694 O   0  0  0  0  0  0  0  0  0  0  0  0
  -21.4173  -26.7300   21.3811 O   0  0  0  0  0  0  0  0  0  0  0  0
  -26.8904  -16.6287   21.8177 O   0  0  0  0  0  0  0  0  0  0  0  0
  -27.0167  -22.1932   19.6325 O   0  0  0  0  0  0  0  0  0  0  0  0
  -23.9681   -6.4975   23.9180 O   0  0  0  0  0  0  0  0  0  0  0  0
  -28.3467  -27.6230   21.8795 O   0  0  0  0  0  0  0  0  0  1  0  0
  -19.1710   -3.8264   23.4110 F   0  0  0  0  0  0  0  0  0  0  0  0
  -22.1439   -6.4515   25.9948 F   0  0  0  0  0  0  0  0  0  0  0  0
  1  2  1  0  0  0  0
  1  5  2  0  0  0  0
  2  6  2  0  0  0  0
  3  8  2  0  0  0  0
  3 15  1  0  0  0  0
  4  9  1  0  0  0  0
  4 15  2  0  0  0  0
  5 17  1  0  0  0  0
  6 19  1  0  0  0  0
  7 10  2  0  0  0  0
  7 18  1  0  0  0  0
  8 21  1  0  0  0  0
  9 21  2  0  0  0  0
 10 22  1  0  0  0  0
 11 12  2  0  0  0  0
 11 23  1  0  0  0  0
 12 24  1  0  0  0  0
 13 20  1  0  0  0  0
 13 22  2  0  0  0  0
 14 24  2  0  0  0  0
 14 25  1  0  0  0  0
 15 26  1  0  0  0  0
 16 26  1  0  0  0  0
 16 27  2  0  0  0  0
 16 28  1  0  0  0  0
 17 19  2  0  0  0  0
 17 33  1  0  0  0  0
 18 20  2  0  0  0  0
 18 34  1  0  0  0  0
 19 49  1  0  0  0  0
 20 35  1  0  0  0  0
 21 81  1  0  0  0  0
 22 82  1  0  0  0  0
 23 25  2  0  0  0  0
 23 81  1  0  0  0  0
 24 83  1  0  0  0  0
 25 84  1  0  0  0  0
 26 65  2  0  0  0  0
 27 66  1  0  0  0  0
 27 69  1  0  0  0  0
 28 70  1  0  0  0  0
 28 75  2  0  0  0  0
 29 50  1  0  0  0  0
 29 71  1  0  0  0  0
 29 76  2  0  0  0  0
 30 61  1  0  0  0  0
 30 67  1  0  0  0  0
 30 77  2  0  0  0  0
 31 62  1  0  0  0  0
 31 72  1  0  0  0  0
 31 78  2  0  0  0  0
 32 68  1  0  0  0  0
 32 73  1  0  0  0  0
 32 79  2  0  0  0  0
 33 36  1  0  0  0  0
 34 50  1  0  0  0  0
 35 67  1  0  0  0  0
 36 38  1  0  0  0  0
 37 42  1  0  0  0  0
 37 47  1  0  0  0  0
 38 49  1  0  0  0  0
 39 43  1  0  0  0  0
 39 52  1  0  0  0  0
 40 44  1  0  0  0  0
 40 51  1  0  0  0  0
 41 45  1  0  0  0  0
 41 51  1  0  0  0  0
 42 53  1  0  0  0  0
 43 54  1  0  0  0  0
 44 55  1  0  0  0  0
 45 55  1  0  0  0  0
 46 52  1  0  0  0  0
 46 54  1  0  0  0  0
 47 68  1  0  0  0  0
 48 53  1  0  0  0  0
 48 68  1  0  0  0  0
 49 71  1  0  0  0  0
 50 67  1  0  0  0  0
 51 63  1  0  0  0  0
 52 63  1  0  0  0  0
 53 66  1  0  0  0  0
 54 73  1  0  0  0  0
 55 82  1  0  0  0  0
 56 62  1  0  0  0  0
 57 64  1  0  0  0  0
 58 64  1  0  0  0  0
 59 64  1  0  0  0  0
 60 74  1  0  0  0  0
 61 64  1  0  0  0  0
 61 72  1  0  0  0  0
 62 74  1  0  0  0  0
 63 80  1  0  0  0  0
 65 66  1  0  0  0  0
M  CHG  1  74   1
M  ISO  4  32 100  55 101  73 100  82 101
M  END
> <Batch ID>
0144

> <Smiles>
CNC(C)C(=O)NC(C(=O)N1Cc2cc([101O:1][101CH:1]3CCC(C(O)C4CCC([100NH:0][100C:0](=O)N5CCCC(n6nc(-c7ccc(Oc8ccc(F)cc8F)cc7)c(C(N)=O)c6N)C5)C4)CC3)ccc2CC1C(=O)NC1CCCc2ccccc21)C(C)(C)C

> <Shape>
0.317

> <Color>
0.070

> <Negative vol penalty>
0.000

$$$$

  -OEChem-04052321263D

 85 94  0     1  0  0  0  0  0999 V2000
  -31.4141  -35.3061   19.8658 C   0  0  0  0  0  0  0  0  0  0  0  0
  -31.1072  -33.9815   19.5715 C   0  0  0  0  0  0  0  0  0  0  0  0
  -23.1020   -9.8372   19.9999 C   0  0  0  0  0  0  0  0  0  0  0  0
  -24.3832   -9.4641   22.0139 C   0  0  0  0  0  0  0  0  0  0  0  0
  -30.9225  -35.8920   21.0316 C   0  0  0  0  0  0  0  0  0  0  0  0
  -30.3093  -33.2416   20.4435 C   0  0  0  0  0  0  0  0  0  0  0  0
  -26.2414  -28.9177   18.9396 C   0  0  0  0  0  0  0  0  0  0  0  0
  -22.6876   -8.5055   20.0167 C   0  0  0  0  0  0  0  0  0  0  0  0
  -23.9687   -8.1323   22.0308 C   0  0  0  0  0  0  0  0  0  0  0  0
  -26.3148  -27.5256   18.9240 C   0  0  0  0  0  0  0  0  0  0  0  0
  -21.2127   -6.3942   22.9272 C   0  0  0  0  0  0  0  0  0  0  0  0
  -20.7892   -5.8642   24.1460 C   0  0  0  0  0  0  0  0  0  0  0  0
  -25.3082  -27.4540   21.1151 C   0  0  0  0  0  0  0  0  0  0  0  0
  -27.5098  -19.3926   22.5457 C   0  0  0  0  0  0  0  0  0  0  0  0
  -29.4277  -19.9822   21.2000 C   0  0  0  0  0  0  0  0  0  0  0  0
  -22.5341   -4.1973   24.0275 C   0  0  0  0  0  0  0  0  0  0  0  0
  -23.9498  -10.3165   20.9985 C   0  0  0  0  0  0  0  0  0  0  0  0
  -23.7407  -12.7890   21.5906 C   0  0  0  0  0  0  0  0  0  0  0  0
  -30.1103  -35.1617   21.9135 C   0  0  0  0  0  0  0  0  0  0  0  0
  -25.7099  -29.5901   20.0495 C   0  0  0  0  0  0  0  0  0  0  0  0
  -29.8076  -33.8178   21.6229 C   0  0  0  0  0  0  0  0  0  0  0  0
  -25.2268  -28.8546   21.1412 C   0  0  0  0  0  0  0  0  0  0  0  0
  -27.4633  -21.3887   21.1854 C   0  0  0  0  0  0  0  0  0  0  0  0
  -28.8038  -19.1203   22.1019 C   0  0  0  0  0  0  0  0  0  0  0  0
  -26.8395  -20.5268   22.0873 C   0  0  0  0  0  0  0  0  0  0  0  0
  -28.7574  -21.1165   20.7417 C   0  0  0  0  0  0  0  0  0  0  0  0
  -23.1209   -7.6530   21.0321 C   0  0  0  0  0  0  0  0  0  0  0  0
  -25.8508  -26.7936   20.0130 C   0  0  0  0  0  0  0  0  0  0  0  0
  -22.2968   -5.8257   22.2585 C   0  0  0  0  0  0  0  0  0  0  0  0
  -21.4499   -4.7658   24.6961 C   0  0  0  0  0  0  0  0  0  0  0  0
  -22.9575   -4.7273   22.8087 C   0  0  0  0  0  0  0  0  0  0  0  0
  -24.3787  -11.6920   20.9813 C   0  0  0  0  0  0  0  0  0  0  0  0
  -24.5384  -13.8641   21.2834 C   0  0  0  0  0  0  0  0  0  0  0  0
  -22.5349  -12.8324   22.3651 C   0  0  0  0  0  0  0  0  0  0  0  0
  -26.8428  -31.6791   22.1605 C   0  0  0  0  0  0  0  0  0  0  0  0
  -23.7574  -31.7524   23.1592 C   0  0  0  0  0  0  0  0  0  0  0  0
  -20.7359  -30.1774   23.3502 C   0  0  0  0  0  0  0  0  0  0  0  0
  -29.5841  -16.1980   20.7933 C   0  0  0  0  0  0  0  0  0  0  0  0
  -29.6413  -35.8235   23.1850 C   0  0  0  0  0  0  0  0  0  0  0  0
  -25.6132  -31.0911   20.0396 C   0  0  0  0  0  0  0  0  0  0  0  0
  -24.6286  -29.5277   22.3485 C   0  0  0  0  0  0  0  0  0  0  0  0
  -28.4940  -35.0845   23.8689 C   0  0  0  0  0  0  0  0  0  0  0  0
  -28.3962  -14.2806   18.0384 C   0  0  0  0  0  0  0  0  0  0  0  0
  -26.5308  -22.6659   19.1608 C   0  0  0  0  0  0  0  0  0  0  0  0
  -28.7872  -33.5890   23.9364 C   0  0  0  0  0  0  0  0  0  0  0  0
  -27.1970  -13.5225   18.6103 C   0  0  0  0  0  0  0  0  0  0  0  0
  -27.2621  -23.9175   18.6790 C   0  0  0  0  0  0  0  0  0  0  0  0
  -27.4691  -23.9258   21.0545 C   0  0  0  0  0  0  0  0  0  0  0  0
  -29.5164  -14.4231   19.0665 C   0  0  0  0  0  0  0  0  0  0  0  0
  -27.9056  -14.2583   20.9245 C   0  0  0  0  0  0  0  0  0  0  0  0
  -26.7366  -22.6187   20.6890 C   0  0  2  0  0  0  0  0  0  0  0  0
  -28.9248  -32.9899   22.5315 C   0  0  1  0  0  0  0  0  0  0  0  0
  -25.5252  -31.6934   21.4385 C   0  0  1  0  0  0  0  0  0  0  0  0
  -26.7278  -14.1382   19.9423 C   0  0  2  0  0  0  0  0  0  0  0  0
  -27.2147  -24.8552   19.8756 C   0  0  2  0  0  0  0  0  0  1  0  0
  -25.4548  -20.7963   22.5788 C   0  0  0  0  0  0  0  0  0  0  0  0
  -29.4476  -22.0237   19.7760 C   0  0  0  0  0  0  0  0  0  0  0  0
  -18.4156  -30.4706   24.2602 C   0  0  0  0  0  0  0  0  0  0  0  0
  -24.7819  -31.1300   25.9651 C   0  0  0  0  0  0  0  0  0  0  0  0
  -22.4437  -30.5039   26.6045 C   0  0  0  0  0  0  0  0  0  0  0  0
  -22.9540  -32.8345   25.8761 C   0  0  0  0  0  0  0  0  0  0  0  0
  -19.5333  -30.0315   20.6499 C   0  0  0  0  0  0  0  0  0  0  0  0
  -29.5201  -17.9073   22.5914 C   0  0  0  0  0  0  0  0  0  0  0  0
  -22.9398  -30.9755   24.1627 C   0  0  1  0  0  0  0  0  0  0  0  0
  -19.3272  -30.6619   23.0580 C   0  0  2  0  0  0  0  0  0  0  0  0
  -23.2928  -31.3481   25.6303 C   0  0  0  0  0  0  0  0  0  0  0  0
  -25.4955  -12.0384   20.3357 N   0  0  0  0  0  0  0  0  0  0  0  0
  -25.5655  -13.3652   20.5375 N   0  0  0  0  0  0  0  0  0  0  0  0
  -24.5619  -30.9974   22.2939 N   0  0  0  0  0  0  0  0  0  0  0  0
  -29.0057  -15.0145   20.3056 N   0  0  0  0  0  0  0  0  0  0  0  0
  -24.4544  -15.1782   21.5812 N   0  0  0  0  0  0  0  0  0  0  0  0
  -21.8389  -11.6360   22.5853 N   0  0  0  0  0  0  0  0  0  0  0  0
  -27.6208  -32.7983   21.9338 N   0  0  0  0  0  0  0  0  0  0  0  0
  -21.5418  -31.1976   23.8096 N   0  0  0  0  0  0  0  0  0  0  0  0
  -29.0364  -16.6948   21.9697 N   0  0  0  0  0  0  0  0  0  0  0  0
  -18.7500  -29.9122   21.9065 N   0  3  0  0  0  0  0  0  0  0  0  0
  -22.0792  -13.9030   22.8338 O   0  0  0  0  0  0  0  0  0  0  0  0
  -27.1315  -30.7240   22.8720 O   0  0  0  0  0  0  0  0  0  0  0  0
  -23.6796  -32.9833   23.1389 O   0  0  0  0  0  0  0  0  0  0  0  0
  -21.0853  -29.0099   23.1907 O   0  0  0  0  0  0  0  0  0  0  0  0
  -30.5157  -16.7724   20.2198 O   0  0  0  0  0  0  0  0  0  0  0  0
  -22.7166   -6.3535   21.0490 O   0  0  0  0  0  0  0  0  0  0  0  0
  -25.9218  -25.4347   20.0006 O   0  0  0  0  0  0  0  0  0  1  0  0
  -21.0440   -4.2579   25.8672 F   0  0  0  0  0  0  0  0  0  0  0  0
  -24.0004   -4.1776   22.1715 F   0  0  0  0  0  0  0  0  0  0  0  0
  1  2  1  0  0  0  0
  1  5  2  0  0  0  0
  2  6  2  0  0  0  0
  3  8  2  0  0  0  0
  3 17  1  0  0  0  0
  4  9  1  0  0  0  0
  4 17  2  0  0  0  0
  5 19  1  0  0  0  0
  6 21  1  0  0  0  0
  7 10  2  0  0  0  0
  7 20  1  0  0  0  0
  8 27  1  0  0  0  0
  9 27  2  0  0  0  0
 10 28  1  0  0  0  0
 11 12  2  0  0  0  0
 11 29  1  0  0  0  0
 12 30  1  0  0  0  0
 13 22  1  0  0  0  0
 13 28  2  0  0  0  0
 14 24  1  0  0  0  0
 14 25  2  0  0  0  0
 15 24  2  0  0  0  0
 15 26  1  0  0  0  0
 16 30  2  0  0  0  0
 16 31  1  0  0  0  0
 17 32  1  0  0  0  0
 18 32  1  0  0  0  0
 18 33  2  0  0  0  0
 18 34  1  0  0  0  0
 19 21  2  0  0  0  0
 19 39  1  0  0  0  0
 20 22  2  0  0  0  0
 20 40  1  0  0  0  0
 21 52  1  0  0  0  0
 22 41  1  0  0  0  0
 23 25  1  0  0  0  0
 23 26  2  0  0  0  0
 23 51  1  0  0  0  0
 24 63  1  0  0  0  0
 25 56  1  0  0  0  0
 26 57  1  0  0  0  0
 27 82  1  0  0  0  0
 28 83  1  0  0  0  0
 29 31  2  0  0  0  0
 29 82  1  0  0  0  0
 30 84  1  0  0  0  0
 31 85  1  0  0  0  0
 32 67  2  0  0  0  0
 33 68  1  0  0  0  0
 33 71  1  0  0  0  0
 34 72  1  0  0  0  0
 34 77  2  0  0  0  0
 35 53  1  0  0  0  0
 35 73  1  0  0  0  0
 35 78  2  0  0  0  0
 36 64  1  0  0  0  0
 36 69  1  0  0  0  0
 36 79  2  0  0  0  0
 37 65  1  0  0  0  0
 37 74  1  0  0  0  0
 37 80  2  0  0  0  0
 38 70  1  0  0  0  0
 38 75  1  0  0  0  0
 38 81  2  0  0  0  0
 39 42  1  0  0  0  0
 40 53  1  0  0  0  0
 41 69  1  0  0  0  0
 42 45  1  0  0  0  0
 43 46  1  0  0  0  0
 43 49  1  0  0  0  0
 44 47  1  0  0  0  0
 44 51  1  0  0  0  0
 45 52  1  0  0  0  0
 46 54  1  0  0  0  0
 47 55  1  0  0  0  0
 48 51  1  0  0  0  0
 48 55  1  0  0  0  0
 49 70  1  0  0  0  0
 50 54  1  0  0  0  0
 50 70  1  0  0  0  0
 52 73  1  0  0  0  0
 53 69  1  0  0  0  0
 54 68  1  0  0  0  0
 55 83  1  0  0  0  0
 58 65  1  0  0  0  0
 59 66  1  0  0  0  0
 60 66  1  0  0  0  0
 61 66  1  0  0  0  0
 62 76  1  0  0  0  0
 63 75  1  0  0  0  0
 64 66  1  0  0  0  0
 64 74  1  0  0  0  0
 65 76  1  0  0  0  0
 67 68  1  0  0  0  0
M  CHG  1  76   1
M  ISO  4  38 100  55 101  75 100  83 101
M  END
> <Batch ID>
0144

> <Smiles>
CNC(C)C(=O)NC(C(=O)N1Cc2cc([101O:1][101CH:1]3CCC(c4c(C)cc(C[100NH:0][100C:0](=O)N5CCCC(n6nc(-c7ccc(Oc8ccc(F)cc8F)cc7)c(C(N)=O)c6N)C5)cc4C)C3)ccc2CC1C(=O)NC1CCCc2ccccc21)C(C)(C)C

> <Shape>
0.303

> <Color>
0.125

> <Negative vol penalty>
0.000

$$$$

  -OEChem-04052321263D

 91 99  0     1  0  0  0  0  0999 V2000
  -31.0547  -25.6926   17.6009 C   0  0  0  0  0  0  0  0  0  0  0  0
  -29.7195  -25.4205   17.8811 C   0  0  0  0  0  0  0  0  0  0  0  0
  -25.1547  -14.7510   18.6946 C   0  0  0  0  0  0  0  0  0  0  0  0
  -25.6448  -15.4480   20.9554 C   0  0  0  0  0  0  0  0  0  0  0  0
  -31.8065  -26.4689   18.4819 C   0  0  0  0  0  0  0  0  0  0  0  0
  -29.1355  -25.9237   19.0430 C   0  0  0  0  0  0  0  0  0  0  0  0
  -23.3454  -27.7926   19.7416 C   0  0  0  0  0  0  0  0  0  0  0  0
  -26.3019  -15.4043   18.2445 C   0  0  0  0  0  0  0  0  0  0  0  0
  -26.7921  -16.1013   20.5052 C   0  0  0  0  0  0  0  0  0  0  0  0
  -22.2154  -27.1685   20.2684 C   0  0  0  0  0  0  0  0  0  0  0  0
  -19.1826  -22.6251   24.3441 C   0  0  0  0  0  0  0  0  0  0  0  0
  -19.0016  -21.3560   24.8937 C   0  0  0  0  0  0  0  0  0  0  0  0
  -27.5592  -19.0111   18.9639 C   0  0  0  0  0  0  0  0  0  0  0  0
  -27.8044  -20.2966   19.4464 C   0  0  0  0  0  0  0  0  0  0  0  0
  -22.6244  -28.2350   22.3931 C   0  0  0  0  0  0  0  0  0  0  0  0
  -21.2727  -21.9050   23.3695 C   0  0  0  0  0  0  0  0  0  0  0  0
  -29.9007  -19.5451   20.3834 C   0  0  0  0  0  0  0  0  0  0  0  0
  -24.8261  -14.7728   20.0501 C   0  0  0  0  0  0  0  0  0  0  0  0
  -23.5375  -12.7635   20.9499 C   0  0  0  0  0  0  0  0  0  0  0  0
  -31.2288  -26.9899   19.6504 C   0  0  0  0  0  0  0  0  0  0  0  0
  -24.1308  -28.6354   20.5411 C   0  0  0  0  0  0  0  0  0  0  0  0
  -29.8806  -26.7066   19.9411 C   0  0  0  0  0  0  0  0  0  0  0  0
  -23.7624  -28.8706   21.8734 C   0  0  0  0  0  0  0  0  0  0  0  0
  -21.0917  -20.6358   23.9191 C   0  0  0  0  0  0  0  0  0  0  0  0
  -27.1206  -16.0795   19.1497 C   0  0  0  0  0  0  0  0  0  0  0  0
  -21.8564  -27.3874   21.5952 C   0  0  0  0  0  0  0  0  0  0  0  0
  -20.3181  -22.8996   23.5819 C   0  0  0  0  0  0  0  0  0  0  0  0
  -19.9561  -20.3613   24.6813 C   0  0  0  0  0  0  0  0  0  0  0  0
  -28.4847  -17.9925   19.1912 C   0  0  0  0  0  0  0  0  0  0  0  0
  -28.9751  -20.5637   20.1562 C   0  0  0  0  0  0  0  0  0  0  0  0
  -29.6554  -18.2595   19.9009 C   0  0  0  0  0  0  0  0  0  0  0  0
  -23.6409  -14.0986   20.5157 C   0  0  0  0  0  0  0  0  0  0  0  0
  -22.2139  -12.6127   21.2843 C   0  0  0  0  0  0  0  0  0  0  0  0
  -24.5477  -11.7502   21.0429 C   0  0  0  0  0  0  0  0  0  0  0  0
  -27.1462  -28.6039   21.5463 C   0  0  0  0  0  0  0  0  0  0  0  0
  -26.3783  -31.5312   22.7138 C   0  0  0  0  0  0  0  0  0  0  0  0
  -23.9509  -33.6776   23.7852 C   0  0  0  0  0  0  0  0  0  0  0  0
  -17.9727  -16.4803   22.9886 C   0  0  0  0  0  0  0  0  0  0  0  0
  -32.0943  -27.7844   20.5961 C   0  0  0  0  0  0  0  0  0  0  0  0
  -25.3316  -29.3221   19.9502 C   0  0  0  0  0  0  0  0  0  0  0  0
  -24.5606  -29.7824   22.7677 C   0  0  0  0  0  0  0  0  0  0  0  0
  -31.2979  -28.5922   21.6177 C   0  0  0  0  0  0  0  0  0  0  0  0
  -17.8631  -14.2775   20.1935 C   0  0  0  0  0  0  0  0  0  0  0  0
  -30.2025  -27.7328   22.2409 C   0  0  0  0  0  0  0  0  0  0  0  0
  -19.3222  -13.8614   19.9983 C   0  0  0  0  0  0  0  0  0  0  0  0
  -17.7462  -15.7340   20.6374 C   0  0  0  0  0  0  0  0  0  0  0  0
  -19.9986  -15.6673   21.6354 C   0  0  0  0  0  0  0  0  0  0  0  0
  -29.2047  -27.2553   21.1790 C   0  0  1  0  0  0  0  0  0  0  0  0
  -26.3494  -29.7551   21.0009 C   0  0  1  0  0  0  0  0  0  0  0  0
  -20.1702  -14.1902   21.2417 C   0  0  2  0  0  0  0  0  0  0  0  0
  -22.2253  -19.2230   22.1841 C   0  0  0  0  0  0  0  0  0  0  0  0
  -23.6336  -35.9868   24.7149 C   0  0  0  0  0  0  0  0  0  0  0  0
  -23.3195  -17.9506   28.6552 C   0  0  0  0  0  0  0  0  0  0  0  0
  -22.0274  -20.1082   28.4320 C   0  0  0  0  0  0  0  0  0  0  0  0
  -27.3804  -30.5721   25.4315 C   0  0  0  0  0  0  0  0  0  0  0  0
  -26.1874  -32.5091   26.4770 C   0  0  0  0  0  0  0  0  0  0  0  0
  -28.0316  -32.9149   24.8469 C   0  0  0  0  0  0  0  0  0  0  0  0
  -22.2837  -34.5011   21.4827 C   0  0  0  0  0  0  0  0  0  0  0  0
  -23.5380  -19.9524   24.2139 C   0  0  0  0  0  0  0  0  0  0  0  0
  -18.3565  -17.1826   25.3378 C   0  0  0  0  0  0  0  0  0  0  0  0
  -23.6022  -20.2715   25.7062 C   0  0  0  0  0  0  0  0  0  0  0  0
  -18.4154  -18.6984   25.4000 C   0  0  0  0  0  0  0  0  0  0  0  0
  -20.7725  -26.4784   23.5069 C   0  0  0  0  0  0  0  0  0  1  0  0
  -19.9340  -25.2400   23.7576 C   0  0  0  0  0  0  0  0  0  0  0  0
  -22.1237  -19.5833   23.6817 C   0  0  1  0  0  0  0  0  0  0  0  0
  -25.8079  -32.0484   24.0123 C   0  0  1  0  0  0  0  0  0  0  0  0
  -23.6775  -35.1342   23.4564 C   0  0  2  0  0  0  0  0  0  0  0  0
  -23.2433  -19.3128   27.9846 C   0  0  0  0  0  0  0  0  0  0  0  0
  -26.8377  -31.9924   25.1759 C   0  0  0  0  0  0  0  0  0  0  0  0
  -22.4758  -14.7496   20.5681 N   0  0  0  0  0  0  0  0  0  0  0  0
  -21.6277  -13.8195   21.0392 N   0  0  0  0  0  0  0  0  0  0  0  0
  -25.7296  -30.4257   22.1456 N   0  0  0  0  0  0  0  0  0  0  0  0
  -18.5729  -15.9792   21.8216 N   0  0  0  0  0  0  0  0  0  0  0  0
  -21.5059  -11.5668   21.7610 N   0  0  0  0  0  0  0  0  0  0  0  0
  -25.8561  -12.0739   20.6586 N   0  0  0  0  0  0  0  0  0  0  0  0
  -28.2919  -28.3219   20.8271 N   0  0  0  0  0  0  0  0  0  0  0  0
  -25.2974  -33.3856   23.7301 N   0  0  0  0  0  0  0  0  0  0  0  0
  -18.8265  -16.6781   24.0668 N   0  0  0  0  0  0  0  0  0  0  0  0
  -22.3718  -35.2697   22.7510 N   0  3  0  0  0  0  0  0  0  0  0  0
  -23.1590  -19.1098   26.5116 N   0  3  0  0  0  0  0  0  0  0  0  0
  -24.2941  -10.5873   21.4389 O   0  0  0  0  0  0  0  0  0  0  0  0
  -26.7515  -28.0159   22.5464 O   0  0  0  0  0  0  0  0  0  0  0  0
  -27.3587  -32.0921   22.2180 O   0  0  0  0  0  0  0  0  0  0  0  0
  -23.0595  -32.8796   24.0666 O   0  0  0  0  0  0  0  0  0  0  0  0
  -16.7645  -16.7277   23.0657 O   0  0  0  0  0  0  0  0  0  0  0  0
  -28.2402  -16.7169   18.7108 O   0  0  0  0  0  0  0  0  0  0  0  0
  -20.7543  -26.7790   22.1120 O   0  0  0  0  0  0  0  0  0  1  0  0
  -20.4952  -24.1463   23.0420 O   0  0  0  0  0  0  0  0  0  0  0  0
  -19.7644  -19.1275   25.2265 O   0  0  0  0  0  0  0  0  0  0  0  0
  -29.2111  -21.7986   20.6181 F   0  0  0  0  0  0  0  0  0  0  0  0
  -30.5488  -17.2854   20.1214 F   0  0  0  0  0  0  0  0  0  0  0  0
  1  2  1  0  0  0  0
  1  5  2  0  0  0  0
  2  6  2  0  0  0  0
  3  8  2  0  0  0  0
  3 18  1  0  0  0  0
  4  9  1  0  0  0  0
  4 18  2  0  0  0  0
  5 20  1  0  0  0  0
  6 22  1  0  0  0  0
  7 10  2  0  0  0  0
  7 21  1  0  0  0  0
  8 25  1  0  0  0  0
  9 25  2  0  0  0  0
 10 26  1  0  0  0  0
 11 12  2  0  0  0  0
 11 27  1  0  0  0  0
 12 28  1  0  0  0  0
 13 14  2  0  0  0  0
 13 29  1  0  0  0  0
 14 30  1  0  0  0  0
 15 23  1  0  0  0  0
 15 26  2  0  0  0  0
 16 24  1  0  0  0  0
 16 27  2  0  0  0  0
 17 30  2  0  0  0  0
 17 31  1  0  0  0  0
 18 32  1  0  0  0  0
 19 32  1  0  0  0  0
 19 33  2  0  0  0  0
 19 34  1  0  0  0  0
 20 22  2  0  0  0  0
 20 39  1  0  0  0  0
 21 23  2  0  0  0  0
 21 40  1  0  0  0  0
 22 48  1  0  0  0  0
 23 41  1  0  0  0  0
 24 28  2  0  0  0  0
 24 65  1  0  0  0  0
 25 86  1  0  0  0  0
 26 87  1  0  0  0  0
 27 88  1  0  0  0  0
 28 89  1  0  0  0  0
 29 31  2  0  0  0  0
 29 86  1  0  0  0  0
 30 90  1  0  0  0  0
 31 91  1  0  0  0  0
 32 70  2  0  0  0  0
 33 71  1  0  0  0  0
 33 74  1  0  0  0  0
 34 75  1  0  0  0  0
 34 81  2  0  0  0  0
 35 49  1  0  0  0  0
 35 76  1  0  0  0  0
 35 82  2  0  0  0  0
 36 66  1  0  0  0  0
 36 72  1  0  0  0  0
 36 83  2  0  0  0  0
 37 67  1  0  0  0  0
 37 77  1  0  0  0  0
 37 84  2  0  0  0  0
 38 73  1  0  0  0  0
 38 78  1  0  0  0  0
 38 85  2  0  0  0  0
 39 42  1  0  0  0  0
 40 49  1  0  0  0  0
 41 72  1  0  0  0  0
 42 44  1  0  0  0  0
 43 45  1  0  0  0  0
 43 46  1  0  0  0  0
 44 48  1  0  0  0  0
 45 50  1  0  0  0  0
 46 73  1  0  0  0  0
 47 50  1  0  0  0  0
 47 73  1  0  0  0  0
 48 76  1  0  0  0  0
 49 72  1  0  0  0  0
 50 71  1  0  0  0  0
 51 65  1  0  0  0  0
 52 67  1  0  0  0  0
 53 68  1  0  0  0  0
 54 68  1  0  0  0  0
 55 69  1  0  0  0  0
 56 69  1  0  0  0  0
 57 69  1  0  0  0  0
 58 79  1  0  0  0  0
 59 61  1  0  0  0  0
 59 65  1  0  0  0  0
 60 62  1  0  0  0  0
 60 78  1  0  0  0  0
 61 80  1  0  0  0  0
 62 89  1  0  0  0  0
 63 64  1  0  0  0  0
 63 87  1  0  0  0  0
 64 88  1  0  0  0  0
 66 69  1  0  0  0  0
 66 77  1  0  0  0  0
 67 79  1  0  0  0  0
 68 80  1  0  0  0  0
 70 71  1  0  0  0  0
M  CHG  2  79   1  80   1
M  ISO  4  38 100  63 101  78 100  87 101
M  END
> <Batch ID>
0144

> <Smiles>
CNC(C)C(=O)NC(C(=O)N1Cc2cc([101O:1][101CH2:1]COc3ccc(OCC[100NH:0][100C:0](=O)N4CCCC(n5nc(-c6ccc(Oc7ccc(F)cc7F)cc6)c(C(N)=O)c5N)C4)c(C(C)CCNC(C)C)c3)ccc2CC1C(=O)NC1CCCc2ccccc21)C(C)(C)C

> <Shape>
0.287

> <Color>
0.057

> <Negative vol penalty>
0.000

$$$$

  -OEChem-04052321263D

 88 96  0     1  0  0  0  0  0999 V2000
  -14.6335  -28.5679   16.6974 C   0  0  0  0  0  0  0  0  0  0  0  0
  -15.2487  -27.3560   16.9945 C   0  0  0  0  0  0  0  0  0  0  0  0
  -22.9925   -9.9045   19.9872 C   0  0  0  0  0  0  0  0  0  0  0  0
  -23.7186   -9.9603   22.2909 C   0  0  0  0  0  0  0  0  0  0  0  0
  -15.2590  -29.7672   17.0355 C   0  0  0  0  0  0  0  0  0  0  0  0
  -16.4904  -27.3427   17.6288 C   0  0  0  0  0  0  0  0  0  0  0  0
  -18.4967  -23.2397   21.7088 C   0  0  0  0  0  0  0  0  0  0  0  0
  -22.2245   -8.7718   20.2567 C   0  0  0  0  0  0  0  0  0  0  0  0
  -22.9505   -8.8276   22.5604 C   0  0  0  0  0  0  0  0  0  0  0  0
  -19.3186  -22.1202   21.5867 C   0  0  0  0  0  0  0  0  0  0  0  0
  -23.1900   -5.4871   22.0969 C   0  0  0  0  0  0  0  0  0  0  0  0
  -23.7764   -4.4710   22.8513 C   0  0  0  0  0  0  0  0  0  0  0  0
  -21.2167  -23.4478   22.2603 C   0  0  0  0  0  0  0  0  0  0  0  0
  -26.7979  -20.7959   20.4444 C   0  0  0  0  0  0  0  0  0  0  0  0
  -25.0740  -19.0454   19.1228 C   0  0  0  0  0  0  0  0  0  0  0  0
  -22.0535   -4.7206   24.5266 C   0  0  0  0  0  0  0  0  0  0  0  0
  -23.7396  -10.4988   21.0043 C   0  0  0  0  0  0  0  0  0  0  0  0
  -24.1284  -13.0134   20.8217 C   0  0  0  0  0  0  0  0  0  0  0  0
  -16.5046  -29.7685   17.6829 C   0  0  0  0  0  0  0  0  0  0  0  0
  -19.0315  -24.4764   22.0976 C   0  0  0  0  0  0  0  0  0  0  0  0
  -17.1338  -28.5432   17.9746 C   0  0  0  0  0  0  0  0  0  0  0  0
  -20.3991  -24.5809   22.3890 C   0  0  0  0  0  0  0  0  0  0  0  0
  -27.3034  -19.6496   19.8312 C   0  0  0  0  0  0  0  0  0  0  0  0
  -22.2035   -8.2333   21.5433 C   0  0  0  0  0  0  0  0  0  0  0  0
  -20.6793  -22.2248   21.8597 C   0  0  0  0  0  0  0  0  0  0  0  0
  -22.0354   -6.1201   22.5573 C   0  0  0  0  0  0  0  0  0  0  0  0
  -25.4304  -21.0670   20.3969 C   0  0  0  0  0  0  0  0  0  0  0  0
  -26.4415  -18.7744   19.1703 C   0  0  0  0  0  0  0  0  0  0  0  0
  -24.5685  -20.1917   19.7361 C   0  0  0  0  0  0  0  0  0  0  0  0
  -23.2082   -4.0877   24.0662 C   0  0  0  0  0  0  0  0  0  0  0  0
  -21.4671   -5.7368   23.7721 C   0  0  0  0  0  0  0  0  0  0  0  0
  -24.5336  -11.6686   20.7264 C   0  0  0  0  0  0  0  0  0  0  0  0
  -25.2390  -13.7335   20.4551 C   0  0  0  0  0  0  0  0  0  0  0  0
  -22.8614  -13.5625   21.2074 C   0  0  0  0  0  0  0  0  0  0  0  0
  -19.2612  -27.3450   20.7479 C   0  0  0  0  0  0  0  0  0  0  0  0
  -20.4249  -28.1897   23.6557 C   0  0  0  0  0  0  0  0  0  0  0  0
  -21.9468  -27.2330   26.5566 C   0  0  0  0  0  0  0  0  0  0  0  0
  -30.7368  -14.6610   20.6992 C   0  0  0  0  0  0  0  0  0  0  0  0
  -17.1637  -31.0907   17.9861 C   0  0  0  0  0  0  0  0  0  0  0  0
  -18.1268  -25.6683   22.2504 C   0  0  0  0  0  0  0  0  0  0  0  0
  -21.0189  -25.8809   22.8296 C   0  0  0  0  0  0  0  0  0  0  0  0
  -18.3059  -30.9852   18.9934 C   0  0  0  0  0  0  0  0  0  0  0  0
  -29.5918  -12.2330   18.3603 C   0  0  0  0  0  0  0  0  0  0  0  0
  -19.2251  -29.8208   18.6382 C   0  0  0  0  0  0  0  0  0  0  0  0
  -28.1431  -11.9763   18.7791 C   0  0  0  0  0  0  0  0  0  0  0  0
  -30.4950  -12.4701   19.5686 C   0  0  0  0  0  0  0  0  0  0  0  0
  -28.5865  -13.2717   20.9061 C   0  0  0  0  0  0  0  0  0  0  0  0
  -18.4693  -28.4874   18.6843 C   0  0  1  0  0  0  0  0  0  0  0  0
  -18.8691  -26.9978   22.1562 C   0  0  1  0  0  0  0  0  0  0  0  0
  -27.6268  -13.0824   19.7189 C   0  0  2  0  0  0  0  0  0  0  0  0
  -22.8020  -28.1533   28.7289 C   0  0  0  0  0  0  0  0  0  0  0  0
  -22.8580  -29.3314   22.2113 C   0  0  0  0  0  0  0  0  0  0  0  0
  -24.0613  -29.3590   24.4066 C   0  0  0  0  0  0  0  0  0  0  0  0
  -22.0071  -30.7396   24.0947 C   0  0  0  0  0  0  0  0  0  0  0  0
  -20.0869  -25.5554   28.1331 C   0  0  0  0  0  0  0  0  0  0  0  0
  -24.8840  -23.3739   20.2086 C   0  0  0  0  0  0  0  0  0  0  0  0
  -27.3105  -17.7697   17.1978 C   0  0  0  0  0  0  0  0  0  0  0  0
  -28.7697  -19.3748   19.8932 C   0  0  0  0  0  0  0  0  0  0  0  0
  -30.8230  -16.8428   21.8788 C   0  0  0  0  0  0  0  0  0  0  0  0
  -30.5756  -17.9643   20.8872 C   0  0  0  0  0  0  0  0  0  0  0  0
  -21.1119  -20.1551   20.7711 C   0  0  0  0  0  0  0  0  0  1  0  0
  -22.3622  -19.4704   20.2537 C   0  0  0  0  0  0  0  0  0  0  0  0
  -21.7947  -28.2278   24.2891 C   0  0  1  0  0  0  0  0  0  0  0  0
  -21.6187  -27.5244   28.0098 C   0  0  2  0  0  0  0  0  0  0  0  0
  -22.6693  -29.3903   23.7403 C   0  0  0  0  0  0  0  0  0  0  0  0
  -25.8026  -11.5393   20.3300 N   0  0  0  0  0  0  0  0  0  0  0  0
  -26.2043  -12.8121   20.1731 N   0  0  0  0  0  0  0  0  0  0  0  0
  -20.0941  -27.0192   22.9582 N   0  0  0  0  0  0  0  0  0  0  0  0
  -29.9500  -13.5318   20.4182 N   0  0  0  0  0  0  0  0  0  0  0  0
  -25.4743  -15.0586   20.3496 N   0  0  0  0  0  0  0  0  0  0  0  0
  -21.8284  -12.6807   21.5535 N   0  0  0  0  0  0  0  0  0  0  0  0
  -18.2975  -28.0509   20.0534 N   0  0  0  0  0  0  0  0  0  0  0  0
  -21.5766  -28.2733   25.7309 N   0  0  0  0  0  0  0  0  0  0  0  0
  -30.1421  -15.6226   21.5068 N   0  0  0  0  0  0  0  0  0  0  0  0
  -21.2514  -26.2669   28.7202 N   0  3  0  0  0  0  0  0  0  0  0  0
  -29.1265  -18.2932   20.8514 N   0  3  0  0  0  0  0  0  0  0  0  0
  -22.6464  -14.7982   21.2281 O   0  0  0  0  0  0  0  0  0  0  0  0
  -20.3577  -26.9996   20.3234 O   0  0  0  0  0  0  0  0  0  0  0  0
  -19.6733  -29.1597   23.7814 O   0  0  0  0  0  0  0  0  0  0  0  0
  -22.4816  -26.1885   26.1910 O   0  0  0  0  0  0  0  0  0  0  0  0
  -31.8823  -14.8041   20.2583 O   0  0  0  0  0  0  0  0  0  0  0  0
  -21.4539   -7.1282   21.8067 O   0  0  0  0  0  0  0  0  0  0  0  0
  -24.9478  -22.1891   21.0000 O   0  0  0  0  0  0  0  0  0  0  0  0
  -26.9191  -17.6516   18.5640 O   0  0  0  0  0  0  0  0  0  0  0  0
  -21.4839  -21.1337   21.7407 O   0  0  0  0  0  0  0  0  0  1  0  0
  -23.2235  -20.4469   19.6810 O   0  0  0  0  0  0  0  0  0  0  0  0
  -23.7705   -3.1109   24.7898 F   0  0  0  0  0  0  0  0  0  0  0  0
  -20.3573   -6.3403   24.2190 F   0  0  0  0  0  0  0  0  0  0  0  0
  1  2  1  0  0  0  0
  1  5  2  0  0  0  0
  2  6  2  0  0  0  0
  3  8  2  0  0  0  0
  3 17  1  0  0  0  0
  4  9  1  0  0  0  0
  4 17  2  0  0  0  0
  5 19  1  0  0  0  0
  6 21  1  0  0  0  0
  7 10  2  0  0  0  0
  7 20  1  0  0  0  0
  8 24  1  0  0  0  0
  9 24  2  0  0  0  0
 10 25  1  0  0  0  0
 11 12  2  0  0  0  0
 11 26  1  0  0  0  0
 12 30  1  0  0  0  0
 13 22  1  0  0  0  0
 13 25  2  0  0  0  0
 14 23  2  0  0  0  0
 14 27  1  0  0  0  0
 15 28  2  0  0  0  0
 15 29  1  0  0  0  0
 16 30  2  0  0  0  0
 16 31  1  0  0  0  0
 17 32  1  0  0  0  0
 18 32  1  0  0  0  0
 18 33  2  0  0  0  0
 18 34  1  0  0  0  0
 19 21  2  0  0  0  0
 19 39  1  0  0  0  0
 20 22  2  0  0  0  0
 20 40  1  0  0  0  0
 21 48  1  0  0  0  0
 22 41  1  0  0  0  0
 23 28  1  0  0  0  0
 23 58  1  0  0  0  0
 24 82  1  0  0  0  0
 25 85  1  0  0  0  0
 26 31  2  0  0  0  0
 26 82  1  0  0  0  0
 27 29  2  0  0  0  0
 27 83  1  0  0  0  0
 28 84  1  0  0  0  0
 29 86  1  0  0  0  0
 30 87  1  0  0  0  0
 31 88  1  0  0  0  0
 32 66  2  0  0  0  0
 33 67  1  0  0  0  0
 33 70  1  0  0  0  0
 34 71  1  0  0  0  0
 34 77  2  0  0  0  0
 35 49  1  0  0  0  0
 35 72  1  0  0  0  0
 35 78  2  0  0  0  0
 36 63  1  0  0  0  0
 36 68  1  0  0  0  0
 36 79  2  0  0  0  0
 37 64  1  0  0  0  0
 37 73  1  0  0  0  0
 37 80  2  0  0  0  0
 38 69  1  0  0  0  0
 38 74  1  0  0  0  0
 38 81  2  0  0  0  0
 39 42  1  0  0  0  0
 40 49  1  0  0  0  0
 41 68  1  0  0  0  0
 42 44  1  0  0  0  0
 43 45  1  0  0  0  0
 43 46  1  0  0  0  0
 44 48  1  0  0  0  0
 45 50  1  0  0  0  0
 46 69  1  0  0  0  0
 47 50  1  0  0  0  0
 47 69  1  0  0  0  0
 48 72  1  0  0  0  0
 49 68  1  0  0  0  0
 50 67  1  0  0  0  0
 51 64  1  0  0  0  0
 52 65  1  0  0  0  0
 53 65  1  0  0  0  0
 54 65  1  0  0  0  0
 55 75  1  0  0  0  0
 56 83  1  0  0  0  0
 57 84  1  0  0  0  0
 58 76  1  0  0  0  0
 59 60  1  0  0  0  0
 59 74  1  0  0  0  0
 60 76  1  0  0  0  0
 61 62  1  0  0  0  0
 61 85  1  0  0  0  0
 62 86  1  0  0  0  0
 63 65  1  0  0  0  0
 63 73  1  0  0  0  0
 64 75  1  0  0  0  0
 66 67  1  0  0  0  0
M  CHG  2  75   1  76   1
M  ISO  4  38 100  61 101  74 100  85 101
M  END
> <Batch ID>
0144

> <Smiles>
CNC(C)C(=O)NC(C(=O)N1Cc2cc([101O:1][101CH2:1]COc3cc(OC)c(CNCC[100NH:0][100C:0](=O)N4CCCC(n5nc(-c6ccc(Oc7ccc(F)cc7F)cc6)c(C(N)=O)c5N)C4)cc3OC)ccc2CC1C(=O)NC1CCCc2ccccc21)C(C)(C)C

> <Shape>
0.272

> <Color>
0.186

> <Negative vol penalty>
0.000

$$$$

  -OEChem-04052321263D

 86 95  0     1  0  0  0  0  0999 V2000
  -22.6646  -11.0035   18.8152 C   0  0  0  0  0  0  0  0  0  0  0  0
  -22.0482  -12.2157   19.1085 C   0  0  0  0  0  0  0  0  0  0  0  0
  -26.4324  -28.4572   19.0165 C   0  0  0  0  0  0  0  0  0  0  0  0
  -24.9236  -28.4904   20.9032 C   0  0  0  0  0  0  0  0  0  0  0  0
  -23.9561  -10.7501   19.2754 C   0  0  0  0  0  0  0  0  0  0  0  0
  -22.7226  -13.1748   19.8633 C   0  0  0  0  0  0  0  0  0  0  0  0
  -22.3617  -19.2582   19.2565 C   0  0  0  0  0  0  0  0  0  0  0  0
  -27.1244  -29.5440   19.5508 C   0  0  0  0  0  0  0  0  0  0  0  0
  -25.6157  -29.5772   21.4376 C   0  0  0  0  0  0  0  0  0  0  0  0
  -21.6333  -20.2278   19.9442 C   0  0  0  0  0  0  0  0  0  0  0  0
  -25.7791  -32.9169   20.9369 C   0  0  0  0  0  0  0  0  0  0  0  0
  -25.0285  -33.9819   21.4347 C   0  0  0  0  0  0  0  0  0  0  0  0
  -23.5480  -20.6636   21.3454 C   0  0  0  0  0  0  0  0  0  0  0  0
  -18.9700  -23.8772   22.3998 C   0  0  0  0  0  0  0  0  0  0  0  0
  -26.0124  -33.6552   23.6170 C   0  0  0  0  0  0  0  0  0  0  0  0
  -25.3319  -27.9305   19.6926 C   0  0  0  0  0  0  0  0  0  0  0  0
  -24.8706  -25.4425   19.3686 C   0  0  0  0  0  0  0  0  0  0  0  0
  -24.6503  -11.7105   20.0280 C   0  0  0  0  0  0  0  0  0  0  0  0
  -23.6874  -18.9758   19.6158 C   0  0  0  0  0  0  0  0  0  0  0  0
  -24.0241  -12.9335   20.3351 C   0  0  0  0  0  0  0  0  0  0  0  0
  -24.2918  -19.6917   20.6590 C   0  0  0  0  0  0  0  0  0  0  0  0
  -20.2409  -26.2511   22.9332 C   0  0  0  0  0  0  0  0  0  0  0  0
  -19.1214  -26.2242   22.1371 C   0  0  0  0  0  0  0  0  0  0  0  0
  -20.1177  -23.9048   23.2159 C   0  0  0  0  0  0  0  0  0  0  0  0
  -20.7685  -25.1103   23.4908 C   0  0  0  0  0  0  0  0  0  0  0  0
  -26.7162  -30.1040   20.7614 C   0  0  0  0  0  0  0  0  0  0  0  0
  -22.2255  -20.9287   20.9907 C   0  0  0  0  0  0  0  0  0  0  0  0
  -26.6463  -32.2209   21.7791 C   0  0  0  0  0  0  0  0  0  0  0  0
  -18.4585  -25.0547   21.8482 C   0  0  0  0  0  0  0  0  0  0  0  0
  -25.1451  -34.3511   22.7748 C   0  0  0  0  0  0  0  0  0  0  0  0
  -26.7629  -32.5901   23.1192 C   0  0  0  0  0  0  0  0  0  0  0  0
  -24.6162  -26.8082   19.1409 C   0  0  0  0  0  0  0  0  0  0  0  0
  -23.9218  -24.7873   18.6224 C   0  0  0  0  0  0  0  0  0  0  0  0
  -25.8749  -24.8216   20.1821 C   0  0  0  0  0  0  0  0  0  0  0  0
  -25.2199  -16.4106   20.6998 C   0  0  0  0  0  0  0  0  0  0  0  0
  -27.8346  -18.2917   20.3163 C   0  0  0  0  0  0  0  0  0  0  0  0
  -29.1331  -21.4412   20.1123 C   0  0  0  0  0  0  0  0  0  0  0  0
  -18.5002  -26.3626   16.6283 C   0  0  0  0  0  0  0  0  0  0  0  0
  -26.0267  -11.3725   20.5437 C   0  0  0  0  0  0  0  0  0  0  0  0
  -24.4681  -17.9456   18.8465 C   0  0  0  0  0  0  0  0  0  0  0  0
  -20.4060  -27.7371   22.8159 C   0  0  0  0  0  0  0  0  0  0  0  0
  -19.1301  -27.7065   21.9095 C   0  0  0  0  0  0  0  0  0  0  0  0
  -25.7187  -19.4405   21.0705 C   0  0  0  0  0  0  0  0  0  0  0  0
  -26.8149  -12.5902   21.0195 C   0  0  0  0  0  0  0  0  0  0  0  0
  -21.2698  -25.2792   14.6707 C   0  0  0  0  0  0  0  0  0  0  0  0
  -25.9445  -13.4770   21.9043 C   0  0  0  0  0  0  0  0  0  0  0  0
  -22.4645  -25.4250   15.6149 C   0  0  0  0  0  0  0  0  0  0  0  0
  -20.2495  -26.3970   14.8747 C   0  0  0  0  0  0  0  0  0  0  0  0
  -20.9781  -26.7098   17.2082 C   0  0  0  0  0  0  0  0  0  0  0  0
  -24.7325  -14.0089   21.1300 C   0  0  1  0  0  0  0  0  0  0  0  0
  -25.6462  -17.3789   19.6328 C   0  0  1  0  0  0  0  0  0  0  0  0
  -22.0075  -25.5741   17.0785 C   0  0  2  0  0  0  0  0  0  0  0  0
  -21.9822  -25.1827   24.3475 C   0  0  0  0  0  0  0  0  0  0  0  0
  -31.3087  -22.6608   19.8351 C   0  0  0  0  0  0  0  0  0  0  0  0
  -28.5411  -17.6871   23.2224 C   0  0  0  0  0  0  0  0  0  0  0  0
  -30.1239  -19.6262   23.1682 C   0  0  0  0  0  0  0  0  0  0  0  0
  -30.4875  -17.6788   21.6522 C   0  0  0  0  0  0  0  0  0  0  0  0
  -28.2332  -22.7122   17.5956 C   0  0  0  0  0  0  0  0  0  0  0  0
  -20.6315  -22.6064   23.7888 C   0  0  0  0  0  0  0  0  0  0  0  0
  -16.4902  -24.9004   18.8265 C   0  0  0  0  0  0  0  0  0  0  0  0
  -16.8668  -26.3384   18.4966 C   0  0  0  0  0  0  0  0  0  0  0  0
  -21.8497  -22.0824   23.0362 C   0  0  0  0  0  0  0  0  0  1  0  0
  -17.4123  -24.2687   19.8623 C   0  0  0  0  0  0  0  0  0  0  0  0
  -28.5820  -19.2737   21.1859 C   0  0  1  0  0  0  0  0  0  0  0  0
  -30.1002  -22.0700   19.1256 C   0  0  2  0  0  0  0  0  0  0  0  0
  -29.4061  -18.5701   22.3009 C   0  0  0  0  0  0  0  0  0  0  0  0
  -23.5864  -27.0100   18.3145 N   0  0  0  0  0  0  0  0  0  0  0  0
  -23.1855  -25.7624   18.0164 N   0  0  0  0  0  0  0  0  0  0  0  0
  -26.4385  -18.4190   20.2921 N   0  0  0  0  0  0  0  0  0  0  0  0
  -19.8563  -26.4844   16.2831 N   0  0  0  0  0  0  0  0  0  0  0  0
  -23.6538  -23.4780   18.4320 N   0  0  0  0  0  0  0  0  0  0  0  0
  -26.7694  -25.6427   20.8821 N   0  0  0  0  0  0  0  0  0  0  0  0
  -25.1245  -15.1020   20.2663 N   0  0  0  0  0  0  0  0  0  0  0  0
  -29.3794  -20.0951   20.2816 N   0  0  0  0  0  0  0  0  0  0  0  0
  -18.2147  -26.4508   17.9853 N   0  0  0  0  0  0  0  0  0  0  0  0
  -29.4262  -23.1572   18.3610 N   0  3  0  0  0  0  0  0  0  0  0  0
  -25.9863  -23.5755   20.2722 O   0  0  0  0  0  0  0  0  0  0  0  0
  -24.9956  -16.8202   21.8327 O   0  0  0  0  0  0  0  0  0  0  0  0
  -28.4667  -17.4476   19.6764 O   0  0  0  0  0  0  0  0  0  0  0  0
  -28.2500  -22.0809   20.6793 O   0  0  0  0  0  0  0  0  0  0  0  0
  -17.6105  -26.1829   15.7898 O   0  0  0  0  0  0  0  0  0  0  0  0
  -27.3914  -31.1643   21.2832 O   0  0  0  0  0  0  0  0  0  0  0  0
  -21.5166  -21.8752   21.6641 O   0  0  0  0  0  0  0  0  0  1  0  0
  -17.3560  -25.0443   21.0626 O   0  0  0  0  0  0  0  0  0  0  0  0
  -24.4254  -35.3749   23.2524 F   0  0  0  0  0  0  0  0  0  0  0  0
  -27.5953  -31.9261   23.9329 F   0  0  0  0  0  0  0  0  0  0  0  0
  1  2  1  0  0  0  0
  1  5  2  0  0  0  0
  2  6  2  0  0  0  0
  3  8  2  0  0  0  0
  3 16  1  0  0  0  0
  4  9  1  0  0  0  0
  4 16  2  0  0  0  0
  5 18  1  0  0  0  0
  6 20  1  0  0  0  0
  7 10  2  0  0  0  0
  7 19  1  0  0  0  0
  8 26  1  0  0  0  0
  9 26  2  0  0  0  0
 10 27  1  0  0  0  0
 11 12  2  0  0  0  0
 11 28  1  0  0  0  0
 12 30  1  0  0  0  0
 13 21  1  0  0  0  0
 13 27  2  0  0  0  0
 14 24  1  0  0  0  0
 14 29  2  0  0  0  0
 15 30  2  0  0  0  0
 15 31  1  0  0  0  0
 16 32  1  0  0  0  0
 17 32  1  0  0  0  0
 17 33  2  0  0  0  0
 17 34  1  0  0  0  0
 18 20  2  0  0  0  0
 18 39  1  0  0  0  0
 19 21  2  0  0  0  0
 19 40  1  0  0  0  0
 20 50  1  0  0  0  0
 21 43  1  0  0  0  0
 22 23  2  0  0  0  0
 22 25  1  0  0  0  0
 22 41  1  0  0  0  0
 23 29  1  0  0  0  0
 23 42  1  0  0  0  0
 24 25  2  0  0  0  0
 24 59  1  0  0  0  0
 25 53  1  0  0  0  0
 26 82  1  0  0  0  0
 27 83  1  0  0  0  0
 28 31  2  0  0  0  0
 28 82  1  0  0  0  0
 29 84  1  0  0  0  0
 30 85  1  0  0  0  0
 31 86  1  0  0  0  0
 32 67  2  0  0  0  0
 33 68  1  0  0  0  0
 33 71  1  0  0  0  0
 34 72  1  0  0  0  0
 34 77  2  0  0  0  0
 35 51  1  0  0  0  0
 35 73  1  0  0  0  0
 35 78  2  0  0  0  0
 36 64  1  0  0  0  0
 36 69  1  0  0  0  0
 36 79  2  0  0  0  0
 37 65  1  0  0  0  0
 37 74  1  0  0  0  0
 37 80  2  0  0  0  0
 38 70  1  0  0  0  0
 38 75  1  0  0  0  0
 38 81  2  0  0  0  0
 39 44  1  0  0  0  0
 40 51  1  0  0  0  0
 41 42  1  0  0  0  0
 43 69  1  0  0  0  0
 44 46  1  0  0  0  0
 45 47  1  0  0  0  0
 45 48  1  0  0  0  0
 46 50  1  0  0  0  0
 47 52  1  0  0  0  0
 48 70  1  0  0  0  0
 49 52  1  0  0  0  0
 49 70  1  0  0  0  0
 50 73  1  0  0  0  0
 51 69  1  0  0  0  0
 52 68  1  0  0  0  0
 54 65  1  0  0  0  0
 55 66  1  0  0  0  0
 56 66  1  0  0  0  0
 57 66  1  0  0  0  0
 58 76  1  0  0  0  0
 59 62  1  0  0  0  0
 60 61  1  0  0  0  0
 60 63  1  0  0  0  0
 61 75  1  0  0  0  0
 62 83  1  0  0  0  0
 63 84  1  0  0  0  0
 64 66  1  0  0  0  0
 64 74  1  0  0  0  0
 65 76  1  0  0  0  0
 67 68  1  0  0  0  0
M  CHG  1  76   1
M  ISO  4  38 100  62 101  75 100  83 101
M  END
> <Batch ID>
0144

> <Smiles>
CNC(C)C(=O)NC(C(=O)N1Cc2cc([101O:1][101CH2:1]Cc3cc(OCCC[100NH:0][100C:0](=O)N4CCCC(n5nc(-c6ccc(Oc7ccc(F)cc7F)cc6)c(C(N)=O)c5N)C4)c4c(c3C)CC4)ccc2CC1C(=O)NC1CCCc2ccccc21)C(C)(C)C

> <Shape>
0.212

> <Color>
0.058

> <Negative vol penalty>
0.000

$$$$

  -OEChem-04052321263D

 87 96  0     1  0  0  0  0  0999 V2000
  -16.3794  -26.4816   24.1111 C   0  0  0  0  0  0  0  0  0  0  0  0
  -17.2524  -25.4992   24.5673 C   0  0  0  0  0  0  0  0  0  0  0  0
  -24.6978  -13.0355   24.2005 C   0  0  0  0  0  0  0  0  0  0  0  0
  -24.1428  -15.1195   23.1115 C   0  0  0  0  0  0  0  0  0  0  0  0
  -16.7649  -27.3268   23.0713 C   0  0  0  0  0  0  0  0  0  0  0  0
  -18.5110  -25.3606   23.9832 C   0  0  0  0  0  0  0  0  0  0  0  0
  -25.2448  -23.5280   25.6001 C   0  0  0  0  0  0  0  0  0  0  0  0
  -24.3283  -13.5798   25.4304 C   0  0  0  0  0  0  0  0  0  0  0  0
  -23.7732  -15.6638   24.3414 C   0  0  0  0  0  0  0  0  0  0  0  0
  -26.2595  -22.6716   25.1751 C   0  0  0  0  0  0  0  0  0  0  0  0
  -25.3152  -16.9720   27.0511 C   0  0  0  0  0  0  0  0  0  0  0  0
  -25.7622  -18.2588   27.3508 C   0  0  0  0  0  0  0  0  0  0  0  0
  -26.8476  -24.2397   23.4389 C   0  0  0  0  0  0  0  0  0  0  0  0
  -23.4737  -19.0087   27.5446 C   0  0  0  0  0  0  0  0  0  0  0  0
  -30.1305  -18.3155   19.5689 C   0  0  0  0  0  0  0  0  0  0  0  0
  -24.6051  -13.8054   23.0410 C   0  0  0  0  0  0  0  0  0  0  0  0
  -24.1619  -12.5510   20.8643 C   0  0  0  0  0  0  0  0  0  0  0  0
  -18.0325  -27.2047   22.4807 C   0  0  0  0  0  0  0  0  0  0  0  0
  -25.0164  -24.7438   24.9397 C   0  0  0  0  0  0  0  0  0  0  0  0
  -18.9133  -26.2040   22.9337 C   0  0  0  0  0  0  0  0  0  0  0  0
  -25.8310  -25.1109   23.8590 C   0  0  0  0  0  0  0  0  0  0  0  0
  -28.1850  -20.1831   19.1532 C   0  0  0  0  0  0  0  0  0  0  0  0
  -29.7580  -18.5957   18.2641 C   0  0  0  0  0  0  0  0  0  0  0  0
  -28.7660  -19.5486   18.0609 C   0  0  0  0  0  0  0  0  0  0  0  0
  -23.8660  -14.8939   25.5009 C   0  0  0  0  0  0  0  0  0  0  0  0
  -27.0593  -23.0260   24.0926 C   0  0  0  0  0  0  0  0  0  0  0  0
  -23.9474  -16.7035   26.9979 C   0  0  0  0  0  0  0  0  0  0  0  0
  -24.8415  -19.2771   27.5976 C   0  0  0  0  0  0  0  0  0  0  0  0
  -23.0267  -17.7218   27.2447 C   0  0  0  0  0  0  0  0  0  0  0  0
  -24.9872  -13.2439   21.7702 C   0  0  0  0  0  0  0  0  0  0  0  0
  -28.6279  -19.8317   20.4182 C   0  0  0  0  0  0  0  0  0  0  0  0
  -24.9936  -12.2278   19.8202 C   0  0  0  0  0  0  0  0  0  0  0  0
  -22.7680  -12.2284   20.9583 C   0  0  0  0  0  0  0  0  0  0  0  0
  -22.5815  -25.9969   23.3256 C   0  0  0  0  0  0  0  0  0  0  0  0
  -24.4631  -28.6391   23.3032 C   0  0  0  0  0  0  0  0  0  0  0  0
  -27.6026  -29.9620   23.5036 C   0  0  0  0  0  0  0  0  0  0  0  0
  -30.0668  -14.6424   17.7506 C   0  0  0  0  0  0  0  0  0  0  0  0
  -18.3864  -28.1105   21.3278 C   0  0  0  0  0  0  0  0  0  0  0  0
  -23.9350  -25.6687   25.4271 C   0  0  0  0  0  0  0  0  0  0  0  0
  -25.6399  -26.4143   23.1288 C   0  0  0  0  0  0  0  0  0  0  0  0
  -19.8801  -28.1422   21.0144 C   0  0  0  0  0  0  0  0  0  0  0  0
  -29.5812  -11.2877   18.8399 C   0  0  0  0  0  0  0  0  0  0  0  0
  -20.4486  -26.7271   20.9805 C   0  0  0  0  0  0  0  0  0  0  0  0
  -28.2743  -11.3461   19.6327 C   0  0  0  0  0  0  0  0  0  0  0  0
  -27.2001  -22.3921   17.9129 C   0  0  0  0  0  0  0  0  0  0  0  0
  -30.4155  -12.5521   19.0332 C   0  0  0  0  0  0  0  0  0  0  0  0
  -28.3972  -13.8711   19.5433 C   0  0  0  0  0  0  0  0  0  0  0  0
  -26.6691  -23.3228   19.0077 C   0  0  0  0  0  0  0  0  0  0  0  0
  -20.2964  -26.0386   22.3423 C   0  0  1  0  0  0  0  0  0  0  0  0
  -27.0572  -21.2688   18.9627 C   0  0  2  0  0  0  0  0  0  0  0  0
  -23.4587  -26.6470   24.3579 C   0  0  1  0  0  0  0  0  0  0  0  0
  -27.4958  -12.6420   19.3359 C   0  0  2  0  0  0  0  0  0  0  0  0
  -28.3264  -19.8913   16.6740 C   0  0  0  0  0  0  0  0  0  0  0  0
  -28.8277  -32.1503   23.4134 C   0  0  0  0  0  0  0  0  0  0  0  0
  -24.1284  -28.6988   20.2710 C   0  0  0  0  0  0  0  0  0  0  0  0
  -26.0801  -30.2626   20.1562 C   0  0  0  0  0  0  0  0  0  0  0  0
  -24.0128  -30.9385   21.3776 C   0  0  0  0  0  0  0  0  0  0  0  0
  -28.6323  -29.6317   26.2585 C   0  0  0  0  0  0  0  0  0  0  0  0
  -30.4173  -17.8875   17.1318 C   0  0  0  0  0  0  0  0  0  0  0  0
  -29.5727  -16.7517   16.5399 C   0  0  0  0  0  0  0  0  0  0  0  0
  -27.8485  -20.7931   23.8752 C   0  0  0  0  0  0  0  0  0  1  0  0
  -28.5772  -20.0275   22.7878 C   0  0  0  0  0  0  0  0  0  0  0  0
  -25.5297  -29.1843   22.3845 C   0  0  1  0  0  0  0  0  0  0  0  0
  -28.1574  -31.1217   24.3109 C   0  0  2  0  0  0  0  0  0  0  0  0
  -24.9403  -29.7455   21.0596 C   0  0  0  0  0  0  0  0  0  0  0  0
  -29.5891  -18.9111   20.6551 N   0  0  0  0  0  0  0  0  0  0  0  0
  -26.2466  -13.3548   21.3393 N   0  0  0  0  0  0  0  0  0  0  0  0
  -26.2188  -12.7271   20.1513 N   0  0  0  0  0  0  0  0  0  0  0  0
  -24.5654  -27.2817   23.6392 N   0  0  0  0  0  0  0  0  0  0  0  0
  -29.6195  -13.7449   18.7341 N   0  0  0  0  0  0  0  0  0  0  0  0
  -24.7891  -11.5681   18.6603 N   0  0  0  0  0  0  0  0  0  0  0  0
  -22.0633  -12.6360   22.0992 N   0  0  0  0  0  0  0  0  0  0  0  0
  -21.3027  -26.5169   23.2658 N   0  0  0  0  0  0  0  0  0  0  0  0
  -26.2808  -30.1612   23.1654 N   0  0  0  0  0  0  0  0  0  0  0  0
  -29.2498  -15.7434   17.5247 N   0  0  0  0  0  0  0  0  0  0  0  0
  -27.1303  -22.3355   19.9962 N   0  3  0  0  0  0  0  0  0  0  0  0
  -29.1621  -30.6326   25.2971 N   0  3  0  0  0  0  0  0  0  0  0  0
  -22.1692  -11.5830   20.0648 O   0  0  0  0  0  0  0  0  0  0  0  0
  -23.0321  -25.0914   22.6336 O   0  0  0  0  0  0  0  0  0  0  0  0
  -23.5760  -29.3917   23.7136 O   0  0  0  0  0  0  0  0  0  0  0  0
  -28.2757  -28.9795   23.1999 O   0  0  0  0  0  0  0  0  0  0  0  0
  -31.1138  -14.4722   17.1167 O   0  0  0  0  0  0  0  0  0  0  0  0
  -23.5052  -15.4253   26.7009 O   0  0  0  0  0  0  0  0  0  0  0  0
  -28.0500  -22.1917   23.6753 O   0  0  0  0  0  0  0  0  0  1  0  0
  -28.0778  -20.4335   21.5193 O   0  0  0  0  0  0  0  0  0  0  0  0
  -25.2709  -20.5124   27.8870 F   0  0  0  0  0  0  0  0  0  0  0  0
  -21.7114  -17.4697   27.1963 F   0  0  0  0  0  0  0  0  0  0  0  0
  1  2  1  0  0  0  0
  1  5  2  0  0  0  0
  2  6  2  0  0  0  0
  3  8  2  0  0  0  0
  3 16  1  0  0  0  0
  4  9  1  0  0  0  0
  4 16  2  0  0  0  0
  5 18  1  0  0  0  0
  6 20  1  0  0  0  0
  7 10  2  0  0  0  0
  7 19  1  0  0  0  0
  8 25  1  0  0  0  0
  9 25  2  0  0  0  0
 10 26  1  0  0  0  0
 11 12  2  0  0  0  0
 11 27  1  0  0  0  0
 12 28  1  0  0  0  0
 13 21  1  0  0  0  0
 13 26  2  0  0  0  0
 14 28  2  0  0  0  0
 14 29  1  0  0  0  0
 15 23  1  0  0  0  0
 15 66  2  0  0  0  0
 16 30  1  0  0  0  0
 17 30  1  0  0  0  0
 17 32  2  0  0  0  0
 17 33  1  0  0  0  0
 18 20  2  0  0  0  0
 18 38  1  0  0  0  0
 19 21  2  0  0  0  0
 19 39  1  0  0  0  0
 20 49  1  0  0  0  0
 21 40  1  0  0  0  0
 22 24  1  0  0  0  0
 22 31  2  0  0  0  0
 22 50  1  0  0  0  0
 23 24  2  0  0  0  0
 23 59  1  0  0  0  0
 24 53  1  0  0  0  0
 25 83  1  0  0  0  0
 26 84  1  0  0  0  0
 27 29  2  0  0  0  0
 27 83  1  0  0  0  0
 28 86  1  0  0  0  0
 29 87  1  0  0  0  0
 30 67  2  0  0  0  0
 31 66  1  0  0  0  0
 31 85  1  0  0  0  0
 32 68  1  0  0  0  0
 32 71  1  0  0  0  0
 33 72  1  0  0  0  0
 33 78  2  0  0  0  0
 34 51  1  0  0  0  0
 34 73  1  0  0  0  0
 34 79  2  0  0  0  0
 35 63  1  0  0  0  0
 35 69  1  0  0  0  0
 35 80  2  0  0  0  0
 36 64  1  0  0  0  0
 36 74  1  0  0  0  0
 36 81  2  0  0  0  0
 37 70  1  0  0  0  0
 37 75  1  0  0  0  0
 37 82  2  0  0  0  0
 38 41  1  0  0  0  0
 39 51  1  0  0  0  0
 40 69  1  0  0  0  0
 41 43  1  0  0  0  0
 42 44  1  0  0  0  0
 42 46  1  0  0  0  0
 43 49  1  0  0  0  0
 44 52  1  0  0  0  0
 45 48  1  0  0  0  0
 45 50  1  0  0  0  0
 46 70  1  0  0  0  0
 47 52  1  0  0  0  0
 47 70  1  0  0  0  0
 48 76  1  0  0  0  0
 49 73  1  0  0  0  0
 50 76  1  0  0  0  0
 51 69  1  0  0  0  0
 52 68  1  0  0  0  0
 54 64  1  0  0  0  0
 55 65  1  0  0  0  0
 56 65  1  0  0  0  0
 57 65  1  0  0  0  0
 58 77  1  0  0  0  0
 59 60  1  0  0  0  0
 60 75  1  0  0  0  0
 61 62  1  0  0  0  0
 61 84  1  0  0  0  0
 62 85  1  0  0  0  0
 63 65  1  0  0  0  0
 63 74  1  0  0  0  0
 64 77  1  0  0  0  0
 67 68  1  0  0  0  0
M  CHG  2  76   1  77   1
M  ISO  4  37 100  61 101  75 100  84 101
M  END
> <Batch ID>
0144

> <Smiles>
CNC(C)C(=O)NC(C(=O)N1Cc2cc([101O:1][101CH2:1]COc3ncc(CC[100NH:0][100C:0](=O)N4CCCC(n5nc(-c6ccc(Oc7ccc(F)cc7F)cc6)c(C(N)=O)c5N)C4)c(C)c3C3CCN3)ccc2CC1C(=O)NC1CCCc2ccccc21)C(C)(C)C

> <Shape>
0.216

> <Color>
0.072

> <Negative vol penalty>
0.000

$$$$

  -OEChem-04052321263D

 84 92  0     1  0  0  0  0  0999 V2000
  -34.0074  -30.4446   27.6223 C   0  0  0  0  0  0  0  0  0  0  0  0
  -33.4794  -29.1938   27.9257 C   0  0  0  0  0  0  0  0  0  0  0  0
  -23.3014   -9.7725   19.9240 C   0  0  0  0  0  0  0  0  0  0  0  0
  -23.7520   -9.9329   22.2921 C   0  0  0  0  0  0  0  0  0  0  0  0
  -33.6619  -31.0747   26.4275 C   0  0  0  0  0  0  0  0  0  0  0  0
  -32.6047  -28.5727   27.0348 C   0  0  0  0  0  0  0  0  0  0  0  0
  -32.1350  -22.5695   25.9186 C   0  0  0  0  0  0  0  0  0  0  0  0
  -22.5894   -8.5926   20.1393 C   0  0  0  0  0  0  0  0  0  0  0  0
  -23.0399   -8.7529   22.5075 C   0  0  0  0  0  0  0  0  0  0  0  0
  -31.2553  -21.5944   26.3867 C   0  0  0  0  0  0  0  0  0  0  0  0
  -19.8043   -7.8040   22.7327 C   0  0  0  0  0  0  0  0  0  0  0  0
  -18.9030   -7.7778   23.7969 C   0  0  0  0  0  0  0  0  0  0  0  0
  -29.8960  -21.8826   24.4148 C   0  0  0  0  0  0  0  0  0  0  0  0
  -28.6571  -17.9972   26.1776 C   0  0  0  0  0  0  0  0  0  0  0  0
  -20.1316   -5.9514   24.7926 C   0  0  0  0  0  0  0  0  0  0  0  0
  -30.8208  -17.4691   24.6013 C   0  0  0  0  0  0  0  0  0  0  0  0
  -23.8828  -10.4427   21.0004 C   0  0  0  0  0  0  0  0  0  0  0  0
  -24.1114  -12.9744   20.7863 C   0  0  0  0  0  0  0  0  0  0  0  0
  -32.7901  -30.4568   25.5171 C   0  0  0  0  0  0  0  0  0  0  0  0
  -31.8955  -23.2173   24.6982 C   0  0  0  0  0  0  0  0  0  0  0  0
  -32.2462  -29.1957   25.8273 C   0  0  0  0  0  0  0  0  0  0  0  0
  -30.7755  -22.8637   23.9322 C   0  0  0  0  0  0  0  0  0  0  0  0
  -28.9220  -16.6855   25.8000 C   0  0  0  0  0  0  0  0  0  0  0  0
  -30.0223  -16.4080   24.9964 C   0  0  0  0  0  0  0  0  0  0  0  0
  -22.4587   -8.0828   21.4311 C   0  0  0  0  0  0  0  0  0  0  0  0
  -30.1341  -21.2528   25.6362 C   0  0  0  0  0  0  0  0  0  0  0  0
  -20.8693   -6.9038   22.6984 C   0  0  0  0  0  0  0  0  0  0  0  0
  -19.0666   -6.8516   24.8268 C   0  0  0  0  0  0  0  0  0  0  0  0
  -21.0330   -5.9775   23.7284 C   0  0  0  0  0  0  0  0  0  0  0  0
  -24.6189  -11.6613   20.7785 C   0  0  0  0  0  0  0  0  0  0  0  0
  -29.5162  -18.9874   25.7289 C   0  0  0  0  0  0  0  0  0  1  0  0
  -25.2032  -13.7660   20.5258 C   0  0  0  0  0  0  0  0  0  0  0  0
  -22.7728  -13.4372   21.0092 C   0  0  0  0  0  0  0  0  0  0  0  0
  -31.3468  -26.2238   23.8244 C   0  0  0  0  0  0  0  0  0  0  0  0
  -31.5285  -24.9776   20.8350 C   0  0  0  0  0  0  0  0  0  0  0  0
  -31.2501  -22.2410   18.8151 C   0  0  0  0  0  0  0  0  0  0  0  0
  -31.0845  -12.9990   21.3463 C   0  0  0  0  0  0  0  0  0  0  0  0
  -32.4088  -31.1977   24.2600 C   0  0  0  0  0  0  0  0  0  0  0  0
  -32.8683  -24.2479   24.1944 C   0  0  0  0  0  0  0  0  0  0  0  0
  -30.4842  -23.5151   22.6058 C   0  0  0  0  0  0  0  0  0  0  0  0
  -31.7695  -30.3068   23.1980 C   0  0  0  0  0  0  0  0  0  0  0  0
  -29.4248  -13.6998   18.2753 C   0  0  0  0  0  0  0  0  0  0  0  0
  -30.7033  -29.4125   23.8228 C   0  0  0  0  0  0  0  0  0  0  0  0
  -27.9591  -13.3753   18.5693 C   0  0  0  0  0  0  0  0  0  0  0  0
  -30.3703  -12.7361   18.9889 C   0  0  0  0  0  0  0  0  0  0  0  0
  -28.6901  -12.2969   20.7376 C   0  0  0  0  0  0  0  0  0  0  0  0
  -31.3136  -28.4790   24.8751 C   0  0  1  0  0  0  0  0  0  0  0  0
  -32.2505  -25.2089   23.1833 C   0  0  1  0  0  0  0  0  0  0  0  0
  -27.6997  -13.2763   20.0846 C   0  0  2  0  0  0  0  0  0  0  0  0
  -26.4129  -15.7293   24.2729 C   0  0  0  0  0  0  0  0  0  0  0  0
  -28.0371  -15.4674   27.8060 C   0  0  0  0  0  0  0  0  0  0  0  0
  -31.4197  -21.5416   16.4111 C   0  0  0  0  0  0  0  0  0  0  0  0
  -28.8085  -26.2430   20.2775 C   0  0  0  0  0  0  0  0  0  0  0  0
  -28.6055  -24.7562   18.2734 C   0  0  0  0  0  0  0  0  0  0  0  0
  -30.4506  -26.4302   18.4006 C   0  0  0  0  0  0  0  0  0  0  0  0
  -33.4625  -20.3633   19.3968 C   0  0  0  0  0  0  0  0  0  0  0  0
  -26.5434  -15.7523   25.7910 C   0  0  0  0  0  0  0  0  0  0  0  0
  -31.6306  -14.7065   24.1338 C   0  0  0  0  0  0  0  0  0  0  0  0
  -31.6453  -13.2341   23.7524 C   0  0  0  0  0  0  0  0  0  0  0  0
  -28.0124  -15.5977   26.2690 C   0  0  1  0  0  0  0  0  0  0  0  0
  -30.5405  -24.3727   19.8671 C   0  0  1  0  0  0  0  0  0  0  0  0
  -32.1600  -21.6926   17.7308 C   0  0  2  0  0  0  0  0  0  0  0  0
  -29.6054  -25.4395   19.2305 C   0  0  0  0  0  0  0  0  0  0  0  0
  -30.5953  -18.7563   24.9479 N   0  0  0  0  0  0  0  0  0  0  0  0
  -25.9309  -11.6170   20.5324 N   0  0  0  0  0  0  0  0  0  0  0  0
  -26.2571  -12.9121   20.3830 N   0  0  0  0  0  0  0  0  0  0  0  0
  -31.4617  -24.5213   22.1591 N   0  0  0  0  0  0  0  0  0  0  0  0
  -30.0726  -12.6898   20.4225 N   0  0  0  0  0  0  0  0  0  0  0  0
  -25.3549  -15.1021   20.4072 N   0  0  0  0  0  0  0  0  0  0  0  0
  -21.7718  -12.4896   21.2630 N   0  0  0  0  0  0  0  0  0  0  0  0
  -30.3299  -15.0979   24.5890 N   0  0  0  0  0  0  0  0  0  0  0  0
  -31.9942  -27.3732   24.2359 N   0  0  0  0  0  0  0  0  0  0  0  0
  -31.3277  -23.6150   18.9004 N   0  0  0  0  0  0  0  0  0  0  0  0
  -30.7165  -12.9371   22.6848 N   0  0  0  0  0  0  0  0  0  0  0  0
  -32.6916  -20.3578   18.1269 N   0  3  0  0  0  0  0  0  0  0  0  0
  -22.4701  -14.6538   20.9677 O   0  0  0  0  0  0  0  0  0  0  0  0
  -30.1506  -25.9826   23.9360 O   0  0  0  0  0  0  0  0  0  0  0  0
  -32.3347  -25.8187   20.4296 O   0  0  0  0  0  0  0  0  0  0  0  0
  -30.5385  -21.5227   19.5139 O   0  0  0  0  0  0  0  0  0  0  0  0
  -32.2295  -13.3126   21.0035 O   0  0  0  0  0  0  0  0  0  0  0  0
  -21.7638   -6.9316   21.6416 O   0  0  0  0  0  0  0  0  0  0  0  0
  -29.2735  -20.3019   26.0912 O   0  0  0  0  0  0  0  0  0  1  0  0
  -18.2019   -6.8276   25.8495 F   0  0  0  0  0  0  0  0  0  0  0  0
  -22.0548   -5.1110   23.7016 F   0  0  0  0  0  0  0  0  0  0  0  0
  1  2  1  0  0  0  0
  1  5  2  0  0  0  0
  2  6  2  0  0  0  0
  3  8  2  0  0  0  0
  3 17  1  0  0  0  0
  4  9  1  0  0  0  0
  4 17  2  0  0  0  0
  5 19  1  0  0  0  0
  6 21  1  0  0  0  0
  7 10  2  0  0  0  0
  7 20  1  0  0  0  0
  8 25  1  0  0  0  0
  9 25  2  0  0  0  0
 10 26  1  0  0  0  0
 11 12  2  0  0  0  0
 11 27  1  0  0  0  0
 12 28  1  0  0  0  0
 13 22  1  0  0  0  0
 13 26  2  0  0  0  0
 14 23  1  0  0  0  0
 14 31  2  0  0  0  0
 15 28  2  0  0  0  0
 15 29  1  0  0  0  0
 16 24  1  0  0  0  0
 16 64  2  0  0  0  0
 17 30  1  0  0  0  0
 18 30  1  0  0  0  0
 18 32  2  0  0  0  0
 18 33  1  0  0  0  0
 19 21  2  0  0  0  0
 19 38  1  0  0  0  0
 20 22  2  0  0  0  0
 20 39  1  0  0  0  0
 21 47  1  0  0  0  0
 22 40  1  0  0  0  0
 23 24  2  0  0  0  0
 23 60  1  0  0  0  0
 24 71  1  0  0  0  0
 25 81  1  0  0  0  0
 26 82  1  0  0  0  0
 27 29  2  0  0  0  0
 27 81  1  0  0  0  0
 28 83  1  0  0  0  0
 29 84  1  0  0  0  0
 30 65  2  0  0  0  0
 31 64  1  0  0  0  0
 31 82  1  0  0  0  0
 32 66  1  0  0  0  0
 32 69  1  0  0  0  0
 33 70  1  0  0  0  0
 33 76  2  0  0  0  0
 34 48  1  0  0  0  0
 34 72  1  0  0  0  0
 34 77  2  0  0  0  0
 35 61  1  0  0  0  0
 35 67  1  0  0  0  0
 35 78  2  0  0  0  0
 36 62  1  0  0  0  0
 36 73  1  0  0  0  0
 36 79  2  0  0  0  0
 37 68  1  0  0  0  0
 37 74  1  0  0  0  0
 37 80  2  0  0  0  0
 38 41  1  0  0  0  0
 39 48  1  0  0  0  0
 40 67  1  0  0  0  0
 41 43  1  0  0  0  0
 42 44  1  0  0  0  0
 42 45  1  0  0  0  0
 43 47  1  0  0  0  0
 44 49  1  0  0  0  0
 45 68  1  0  0  0  0
 46 49  1  0  0  0  0
 46 68  1  0  0  0  0
 47 72  1  0  0  0  0
 48 67  1  0  0  0  0
 49 66  1  0  0  0  0
 50 57  1  0  0  0  0
 51 60  1  0  0  0  0
 52 62  1  0  0  0  0
 53 63  1  0  0  0  0
 54 63  1  0  0  0  0
 55 63  1  0  0  0  0
 56 75  1  0  0  0  0
 57 60  1  0  0  0  0
 58 59  1  0  0  0  0
 58 71  1  0  0  0  0
 59 74  1  0  0  0  0
 61 63  1  0  0  0  0
 61 73  1  0  0  0  0
 62 75  1  0  0  0  0
 65 66  1  0  0  0  0
M  CHG  1  75   1
M  ISO  4  31 101  37 100  74 100  82 101
M  END
> <Batch ID>
0144

> <Smiles>
CCC(C)c1c[101c:1]([101O:1]c2ccc3c(c2)CN(C(=O)C(NC(=O)C(C)NC)C(C)(C)C)C(C(=O)NC2CCCc4ccccc42)C3)ncc1NCC[100NH:0][100C:0](=O)N1CCCC(n2nc(-c3ccc(Oc4ccc(F)cc4F)cc3)c(C(N)=O)c2N)C1

> <Shape>
0.180

> <Color>
0.169

> <Negative vol penalty>
0.000

$$$$

  -OEChem-04052321263D

 93103  0     1  0  0  0  0  0999 V2000
  -18.2141  -28.3233   22.4347 C   0  0  0  0  0  0  0  0  0  0  0  0
  -18.3620  -26.9952   22.0479 C   0  0  0  0  0  0  0  0  0  0  0  0
  -27.4900  -23.1315   20.8460 C   0  0  0  0  0  0  0  0  0  0  0  0
  -28.1106  -22.9129   18.5213 C   0  0  0  0  0  0  0  0  0  0  0  0
  -19.3052  -29.0251   22.9454 C   0  0  0  0  0  0  0  0  0  0  0  0
  -19.6015  -26.3683   22.1707 C   0  0  0  0  0  0  0  0  0  0  0  0
  -20.6346  -20.4936   23.5584 C   0  0  0  0  0  0  0  0  0  0  0  0
  -24.2180  -12.0538   19.9189 C   0  0  0  0  0  0  0  0  0  0  0  0
  -27.3796  -24.5128   20.6866 C   0  0  0  0  0  0  0  0  0  0  0  0
  -28.0001  -24.2942   18.3619 C   0  0  0  0  0  0  0  0  0  0  0  0
  -20.9224  -19.3802   22.7702 C   0  0  0  0  0  0  0  0  0  0  0  0
  -23.9183  -13.1623   20.7107 C   0  0  0  0  0  0  0  0  0  0  0  0
  -29.4559  -27.1751   20.5263 C   0  0  0  0  0  0  0  0  0  0  0  0
  -30.0226  -27.9874   21.5084 C   0  0  0  0  0  0  0  0  0  0  0  0
  -23.2769  -19.7032   23.1843 C   0  0  0  0  0  0  0  0  0  0  0  0
  -26.2703  -13.4706   21.1693 C   0  0  0  0  0  0  0  0  0  0  0  0
  -27.8537  -28.9488   21.9649 C   0  0  0  0  0  0  0  0  0  0  0  0
  -27.8556  -22.3315   19.7634 C   0  0  0  0  0  0  0  0  0  0  0  0
  -26.9573  -19.9440   19.7472 C   0  0  0  0  0  0  0  0  0  0  0  0
  -20.5564  -28.4036   23.0835 C   0  0  0  0  0  0  0  0  0  0  0  0
  -21.6681  -21.2279   24.1576 C   0  0  0  0  0  0  0  0  0  0  0  0
  -20.7107  -27.0629   22.6825 C   0  0  0  0  0  0  0  0  0  0  0  0
  -25.5438  -11.6536   19.7523 C   0  0  0  0  0  0  0  0  0  0  0  0
  -22.9993  -20.8240   23.9818 C   0  0  0  0  0  0  0  0  0  0  0  0
  -26.5700  -12.3620   20.3775 C   0  0  0  0  0  0  0  0  0  0  0  0
  -27.6346  -25.0942   19.4446 C   0  0  0  0  0  0  0  0  0  0  0  0
  -22.2439  -18.9866   22.5807 C   0  0  0  0  0  0  0  0  0  0  0  0
  -24.9444  -13.8707   21.3359 C   0  0  0  0  0  0  0  0  0  0  0  0
  -28.0880  -27.2497   20.2635 C   0  0  0  0  0  0  0  0  0  0  0  0
  -29.2215  -28.8742   22.2278 C   0  0  0  0  0  0  0  0  0  0  0  0
  -27.2869  -28.1365   20.9828 C   0  0  0  0  0  0  0  0  0  0  0  0
  -27.9704  -20.9047   19.9275 C   0  0  0  0  0  0  0  0  0  0  0  0
  -27.5682  -18.7450   20.0222 C   0  0  0  0  0  0  0  0  0  0  0  0
  -25.5865  -20.1197   19.3653 C   0  0  0  0  0  0  0  0  0  0  0  0
  -22.7130  -24.2217   23.9362 C   0  0  0  0  0  0  0  0  0  0  0  0
  -24.6563  -23.3112   26.3686 C   0  0  0  0  0  0  0  0  0  0  0  0
  -26.2299  -20.7769   28.0264 C   0  0  0  0  0  0  0  0  0  0  0  0
  -31.9021  -15.2642   19.5251 C   0  0  0  0  0  0  0  0  0  0  0  0
  -21.7182  -29.2170   23.5966 C   0  0  0  0  0  0  0  0  0  0  0  0
  -21.3394  -22.4106   25.0268 C   0  0  0  0  0  0  0  0  0  0  0  0
  -24.1441  -21.5663   24.6197 C   0  0  0  0  0  0  0  0  0  0  0  0
  -22.9054  -28.3682   24.0442 C   0  0  0  0  0  0  0  0  0  0  0  0
  -32.0822  -17.7441   22.0736 C   0  0  0  0  0  0  0  0  0  0  0  0
  -23.2182  -27.2971   23.0041 C   0  0  0  0  0  0  0  0  0  0  0  0
  -25.3559   -8.3176   15.0155 C   0  0  0  0  0  0  0  0  0  0  0  0
  -24.5534   -7.1023   15.3879 C   0  0  0  0  0  0  0  0  0  0  0  0
  -30.9495  -18.7108   21.7239 C   0  0  0  0  0  0  0  0  0  0  0  0
  -26.2123  -10.6772   17.4535 C   0  0  0  0  0  0  0  0  0  0  0  0
  -32.7605  -17.1929   20.8213 C   0  0  0  0  0  0  0  0  0  0  0  0
  -30.7135  -17.5408   19.4937 C   0  0  0  0  0  0  0  0  0  0  0  0
  -25.8407  -10.4646   18.9000 C   0  0  2  0  0  0  0  0  0  0  0  0
  -22.0332  -26.3408   22.8234 C   0  0  1  0  0  0  0  0  0  0  0  0
  -22.5013  -23.3890   25.1689 C   0  0  1  0  0  0  0  0  0  0  0  0
  -24.2520   -8.4278   16.0304 C   0  0  0  0  0  0  0  0  0  0  0  0
  -24.8740  -10.0962   17.8005 C   0  0  2  0  0  0  0  0  0  0  0  0
  -29.9626  -18.0799   20.7233 C   0  0  2  0  0  0  0  0  0  0  0  0
  -27.7801  -20.3465   29.9523 C   0  0  0  0  0  0  0  0  0  0  0  0
  -23.4284   -8.1278   18.3830 C   0  0  0  0  0  0  0  0  0  0  0  0
  -30.3500  -13.3586   16.7695 C   0  0  0  0  0  0  0  0  0  0  0  0
  -27.0076  -24.2986   24.6935 C   0  0  0  0  0  0  0  0  0  0  0  0
  -28.5336  -23.0066   26.2002 C   0  0  0  0  0  0  0  0  0  0  0  0
  -27.1492  -24.8639   27.1255 C   0  0  0  0  0  0  0  0  0  0  0  0
  -24.2158  -19.1226   29.4286 C   0  0  0  0  0  0  0  0  0  0  0  0
  -27.9977  -11.9547   20.2136 C   0  0  0  0  0  0  0  0  0  0  0  0
  -30.2005  -12.4922   19.1659 C   0  0  0  0  0  0  0  0  0  0  0  0
  -23.6997  -17.1575   22.1436 C   0  0  0  0  0  0  0  0  0  1  0  0
  -23.4918  -15.7059   21.7576 C   0  0  0  0  0  0  0  0  0  0  0  0
  -26.0309  -22.6947   26.4653 C   0  0  1  0  0  0  0  0  0  0  0  0
  -26.3301  -20.4503   29.5055 C   0  0  2  0  0  0  0  0  0  0  0  0
  -24.5840   -8.6626   17.5162 C   0  0  1  0  0  0  0  0  0  0  0  0
  -30.9130  -13.4237   18.1860 C   0  0  2  0  0  0  0  0  0  0  0  0
  -27.1591  -23.7029   26.1074 C   0  0  0  0  0  0  0  0  0  0  0  0
  -29.1364  -20.3627   20.2892 N   0  0  0  0  0  0  0  0  0  0  0  0
  -28.8597  -19.0486   20.3385 N   0  0  0  0  0  0  0  0  0  0  0  0
  -23.7719  -22.7198   25.4555 N   0  0  0  0  0  0  0  0  0  0  0  0
  -31.7699  -16.6073   19.9148 N   0  0  0  0  0  0  0  0  0  0  0  0
  -27.1212  -17.4711   20.0220 N   0  0  0  0  0  0  0  0  0  0  0  0
  -25.1226  -21.4193   19.1200 N   0  0  0  0  0  0  0  0  0  0  0  0
  -21.9785  -25.3920   23.9149 N   0  0  0  0  0  0  0  0  0  0  0  0
  -26.1337  -22.1351   27.8087 N   0  0  0  0  0  0  0  0  0  0  0  0
  -30.9171  -14.7864   18.6695 N   0  0  0  0  0  0  0  0  0  0  0  0
  -25.6548  -19.1541   29.7967 N   0  3  0  0  0  0  0  0  0  0  0  0
  -28.7627  -12.8454   19.2993 N   0  3  0  0  0  0  0  0  0  0  0  0
  -24.7922  -19.1544   19.2610 O   0  0  0  0  0  0  0  0  0  0  0  0
  -23.4866  -23.8321   23.0694 O   0  0  0  0  0  0  0  0  0  0  0  0
  -24.3752  -24.2772   27.0824 O   0  0  0  0  0  0  0  0  0  0  0  0
  -26.2399  -19.9138   27.1515 O   0  0  0  0  0  0  0  0  0  0  0  0
  -32.8263  -14.5428   19.9154 O   0  0  0  0  0  0  0  0  0  0  0  0
  -27.5267  -26.4420   19.2886 O   0  0  0  0  0  0  0  0  0  0  0  0
  -22.5277  -17.9006   21.8113 O   0  0  0  0  0  0  0  0  0  1  0  0
  -24.6499  -14.9602   22.1126 O   0  0  0  0  0  0  0  0  0  0  0  0
  -29.7657  -29.6531   23.1719 F   0  0  0  0  0  0  0  0  0  0  0  0
  -25.9720  -28.2117   20.7355 F   0  0  0  0  0  0  0  0  0  0  0  0
  1  2  1  0  0  0  0
  1  5  2  0  0  0  0
  2  6  2  0  0  0  0
  3  9  2  0  0  0  0
  3 18  1  0  0  0  0
  4 10  1  0  0  0  0
  4 18  2  0  0  0  0
  5 20  1  0  0  0  0
  6 22  1  0  0  0  0
  7 11  2  0  0  0  0
  7 21  1  0  0  0  0
  8 12  2  0  0  0  0
  8 23  1  0  0  0  0
  9 26  1  0  0  0  0
 10 26  2  0  0  0  0
 11 27  1  0  0  0  0
 12 28  1  0  0  0  0
 13 14  2  0  0  0  0
 13 29  1  0  0  0  0
 14 30  1  0  0  0  0
 15 24  1  0  0  0  0
 15 27  2  0  0  0  0
 16 25  1  0  0  0  0
 16 28  2  0  0  0  0
 17 30  2  0  0  0  0
 17 31  1  0  0  0  0
 18 32  1  0  0  0  0
 19 32  1  0  0  0  0
 19 33  2  0  0  0  0
 19 34  1  0  0  0  0
 20 22  2  0  0  0  0
 20 39  1  0  0  0  0
 21 24  2  0  0  0  0
 21 40  1  0  0  0  0
 22 52  1  0  0  0  0
 23 25  2  0  0  0  0
 23 51  1  0  0  0  0
 24 41  1  0  0  0  0
 25 64  1  0  0  0  0
 26 89  1  0  0  0  0
 27 90  1  0  0  0  0
 28 91  1  0  0  0  0
 29 31  2  0  0  0  0
 29 89  1  0  0  0  0
 30 92  1  0  0  0  0
 31 93  1  0  0  0  0
 32 73  2  0  0  0  0
 33 74  1  0  0  0  0
 33 77  1  0  0  0  0
 34 78  1  0  0  0  0
 34 84  2  0  0  0  0
 35 53  1  0  0  0  0
 35 79  1  0  0  0  0
 35 85  2  0  0  0  0
 36 68  1  0  0  0  0
 36 75  1  0  0  0  0
 36 86  2  0  0  0  0
 37 69  1  0  0  0  0
 37 80  1  0  0  0  0
 37 87  2  0  0  0  0
 38 76  1  0  0  0  0
 38 81  1  0  0  0  0
 38 88  2  0  0  0  0
 39 42  1  0  0  0  0
 40 53  1  0  0  0  0
 41 75  1  0  0  0  0
 42 44  1  0  0  0  0
 43 47  1  0  0  0  0
 43 49  1  0  0  0  0
 44 52  1  0  0  0  0
 45 46  1  0  0  0  0
 45 54  1  0  0  0  0
 46 54  1  0  0  0  0
 47 56  1  0  0  0  0
 48 51  1  0  0  0  0
 48 55  1  0  0  0  0
 49 76  1  0  0  0  0
 50 56  1  0  0  0  0
 50 76  1  0  0  0  0
 51 55  1  0  0  0  0
 52 79  1  0  0  0  0
 53 75  1  0  0  0  0
 54 70  1  0  0  0  0
 55 70  1  0  0  0  0
 56 74  1  0  0  0  0
 57 69  1  0  0  0  0
 58 70  1  0  0  0  0
 59 71  1  0  0  0  0
 60 72  1  0  0  0  0
 61 72  1  0  0  0  0
 62 72  1  0  0  0  0
 63 82  1  0  0  0  0
 64 83  1  0  0  0  0
 65 71  1  0  0  0  0
 65 83  1  0  0  0  0
 66 67  1  0  0  0  0
 66 90  1  0  0  0  0
 67 91  1  0  0  0  0
 68 72  1  0  0  0  0
 68 80  1  0  0  0  0
 69 82  1  0  0  0  0
 71 81  1  0  0  0  0
 73 74  1  0  0  0  0
M  CHG  2  82   1  83   1
M  ISO  4  38 100  66 101  81 100  90 101
M  END
> <Batch ID>
0144

> <Smiles>
CNC(C)C(=O)NC(C(=O)N1Cc2cc([101O:1][101CH2:1]COc3ccc(C4CC4C(C)C4CC4)c(CNCC(C)[100NH:0][100C:0](=O)N4CCCC(n5nc(-c6ccc(Oc7ccc(F)cc7F)cc6)c(C(N)=O)c5N)C4)c3)ccc2CC1C(=O)NC1CCCc2ccccc21)C(C)(C)C

> <Shape>
0.209

> <Color>
0.063

> <Negative vol penalty>
0.000

$$$$

  -OEChem-04052321263D

 92101  0     1  0  0  0  0  0999 V2000
  -31.5296  -27.0826   17.4918 C   0  0  0  0  0  0  0  0  0  0  0  0
  -30.7072  -26.0184   17.8474 C   0  0  0  0  0  0  0  0  0  0  0  0
  -23.1925   -9.8621   19.9440 C   0  0  0  0  0  0  0  0  0  0  0  0
  -23.9148   -9.9200   22.2488 C   0  0  0  0  0  0  0  0  0  0  0  0
  -31.1922  -28.3806   17.8732 C   0  0  0  0  0  0  0  0  0  0  0  0
  -29.5474  -26.2514   18.5857 C   0  0  0  0  0  0  0  0  0  0  0  0
  -24.2339  -23.2388   18.1429 C   0  0  0  0  0  0  0  0  0  0  0  0
  -22.4994   -8.6772   20.1910 C   0  0  0  0  0  0  0  0  0  0  0  0
  -23.2216   -8.7350   22.4958 C   0  0  0  0  0  0  0  0  0  0  0  0
  -23.6773  -22.2036   18.8928 C   0  0  0  0  0  0  0  0  0  0  0  0
  -21.3455   -5.9172   23.8218 C   0  0  0  0  0  0  0  0  0  0  0  0
  -20.5736   -5.8462   24.9814 C   0  0  0  0  0  0  0  0  0  0  0  0
  -27.7521  -18.3763   22.2226 C   0  0  0  0  0  0  0  0  0  0  0  0
  -22.4449  -23.8176   20.1949 C   0  0  0  0  0  0  0  0  0  0  0  0
  -29.2467  -17.1546   24.2365 C   0  0  0  0  0  0  0  0  0  0  0  0
  -19.2519   -7.7182   24.2162 C   0  0  0  0  0  0  0  0  0  0  0  0
  -23.9003  -10.4835   20.9729 C   0  0  0  0  0  0  0  0  0  0  0  0
  -24.1259  -13.0210   20.8394 C   0  0  0  0  0  0  0  0  0  0  0  0
  -30.0227  -28.6308   18.6082 C   0  0  0  0  0  0  0  0  0  0  0  0
  -23.9080  -24.5740   18.4210 C   0  0  0  0  0  0  0  0  0  0  0  0
  -29.1948  -27.5538   18.9784 C   0  0  0  0  0  0  0  0  0  0  0  0
  -27.2012  -18.2029   23.4922 C   0  0  0  0  0  0  0  0  0  0  0  0
  -22.9968  -24.8677   19.4454 C   0  0  0  0  0  0  0  0  0  0  0  0
  -29.0503  -17.9388   21.9598 C   0  0  0  0  0  0  0  0  0  0  0  0
  -29.7976  -17.3280   22.9668 C   0  0  0  0  0  0  0  0  0  0  0  0
  -22.5139   -8.1136   21.4669 C   0  0  0  0  0  0  0  0  0  0  0  0
  -22.7848  -22.4930   19.9208 C   0  0  0  0  0  0  0  0  0  0  0  0
  -21.0706   -6.8888   22.8594 C   0  0  0  0  0  0  0  0  0  0  0  0
  -27.9485  -17.5920   24.4992 C   0  0  0  0  0  0  0  0  0  0  0  0
  -19.5268   -6.7467   25.1786 C   0  0  0  0  0  0  0  0  0  0  0  0
  -20.0238   -7.7893   23.0566 C   0  0  0  0  0  0  0  0  0  0  0  0
  -24.6170  -11.7073   20.7183 C   0  0  0  0  0  0  0  0  0  0  0  0
  -25.1876  -13.8182   20.4876 C   0  0  0  0  0  0  0  0  0  0  0  0
  -22.8263  -13.4797   21.2348 C   0  0  0  0  0  0  0  0  0  0  0  0
  -25.5434  -27.1338   19.3573 C   0  0  0  0  0  0  0  0  0  0  0  0
  -22.7107  -28.6385   18.8729 C   0  0  0  0  0  0  0  0  0  0  0  0
  -19.3110  -28.4193   18.6708 C   0  0  0  0  0  0  0  0  0  0  0  0
  -30.9540  -14.0424   20.9480 C   0  0  0  0  0  0  0  0  0  0  0  0
  -29.7242  -30.0452   19.0383 C   0  0  0  0  0  0  0  0  0  0  0  0
  -24.4965  -25.6776   17.5854 C   0  0  0  0  0  0  0  0  0  0  0  0
  -22.5985  -26.2833   19.7707 C   0  0  0  0  0  0  0  0  0  0  0  0
  -28.2831  -30.2508   19.4979 C   0  0  0  0  0  0  0  0  0  0  0  0
  -29.3465  -13.1413   17.9016 C   0  0  0  0  0  0  0  0  0  0  0  0
  -27.8624  -29.1361   20.4504 C   0  0  0  0  0  0  0  0  0  0  0  0
  -27.9174  -12.8018   18.3287 C   0  0  0  0  0  0  0  0  0  0  0  0
  -25.7181  -20.1992   23.5439 C   0  0  0  0  0  0  0  0  0  0  0  0
  -24.8138  -17.9457   22.8433 C   0  0  0  0  0  0  0  0  0  0  0  0
  -30.3678  -12.7024   18.9487 C   0  0  0  0  0  0  0  0  0  0  0  0
  -28.6819  -12.8634   20.7392 C   0  0  0  0  0  0  0  0  0  0  0  0
  -24.2924  -20.7042   23.7248 C   0  0  0  0  0  0  0  0  0  0  0  0
  -23.3950  -18.4680   23.0299 C   0  0  0  0  0  0  0  0  0  0  0  0
  -25.8093  -18.6794   23.7563 C   0  0  0  0  0  0  0  0  0  0  0  0
  -27.9155  -27.7691   19.7576 C   0  0  1  0  0  0  0  0  0  0  0  0
  -24.4896  -27.0301   18.2913 C   0  0  1  0  0  0  0  0  0  0  0  0
  -27.6120  -13.3370   19.7406 C   0  0  2  0  0  0  0  0  0  0  0  0
  -31.2082  -19.4826   19.1553 C   0  0  0  0  0  0  0  0  0  0  0  0
  -17.2649  -29.8244   18.3014 C   0  0  0  0  0  0  0  0  0  0  0  0
  -22.9369  -29.7120   21.7201 C   0  0  0  0  0  0  0  0  0  0  0  0
  -20.5015  -30.2847   21.6232 C   0  0  0  0  0  0  0  0  0  0  0  0
  -22.0997  -31.3686   20.0440 C   0  0  0  0  0  0  0  0  0  0  0  0
  -18.5686  -26.9051   16.2388 C   0  0  0  0  0  0  0  0  0  0  0  0
  -28.2585  -16.7810   26.7132 C   0  0  0  0  0  0  0  0  0  0  0  0
  -29.6176  -18.1335   20.5920 C   0  0  0  0  0  0  0  0  0  0  0  0
  -31.1885  -16.8500   22.7078 C   0  0  0  0  0  0  0  0  0  0  0  0
  -30.6062  -19.3072   20.5405 C   0  0  0  0  0  0  0  0  0  0  0  0
  -31.3893  -15.3601   23.0055 C   0  0  0  0  0  0  0  0  0  0  0  0
  -21.9722  -20.5058   22.8348 C   0  0  0  0  0  0  0  0  0  0  0  0
  -21.9043  -21.7763   22.0105 C   0  0  0  0  0  0  0  0  0  1  0  0
  -21.4982  -28.9341   19.7223 C   0  0  1  0  0  0  0  0  0  0  0  0
  -18.3263  -28.9539   17.6467 C   0  0  2  0  0  0  0  0  0  0  0  0
  -21.7679  -30.0482   20.7728 C   0  0  0  0  0  0  0  0  0  0  0  0
  -25.8915  -11.6678   20.3204 N   0  0  0  0  0  0  0  0  0  0  0  0
  -26.2101  -12.9667   20.1884 N   0  0  0  0  0  0  0  0  0  0  0  0
  -23.2058  -27.3279   18.9295 N   0  0  0  0  0  0  0  0  0  0  0  0
  -30.0214  -13.2448   20.2647 N   0  0  0  0  0  0  0  0  0  0  0  0
  -25.3368  -15.1576   20.4079 N   0  0  0  0  0  0  0  0  0  0  0  0
  -21.8526  -12.5265   21.5630 N   0  0  0  0  0  0  0  0  0  0  0  0
  -26.7637  -27.5925   18.8993 N   0  0  0  0  0  0  0  0  0  0  0  0
  -20.4140  -29.2374   18.7945 N   0  0  0  0  0  0  0  0  0  0  0  0
  -30.5434  -14.5213   22.1861 N   0  0  0  0  0  0  0  0  0  0  0  0
  -23.3543  -19.9653   22.7891 N   0  3  0  0  0  0  0  0  0  0  0  0
  -17.6449  -27.8286   16.9466 N   0  3  0  0  0  0  0  0  0  0  0  0
  -22.5321  -14.6983   21.2793 O   0  0  0  0  0  0  0  0  0  0  0  0
  -25.2691  -26.8223   20.5103 O   0  0  0  0  0  0  0  0  0  0  0  0
  -23.1963  -29.5354   18.1791 O   0  0  0  0  0  0  0  0  0  0  0  0
  -19.1191  -27.3817   19.3010 O   0  0  0  0  0  0  0  0  0  0  0  0
  -32.0680  -14.3124   20.4865 O   0  0  0  0  0  0  0  0  0  0  0  0
  -21.8374   -6.9575   21.7083 O   0  0  0  0  0  0  0  0  0  0  0  0
  -27.4252  -17.4143   25.7445 O   0  0  0  0  0  0  0  0  0  0  0  0
  -22.2406  -21.4846   20.6547 O   0  0  0  0  0  0  0  0  0  1  0  0
  -18.7847   -6.6774   26.2916 F   0  0  0  0  0  0  0  0  0  0  0  0
  -19.7542   -8.7241   22.1351 F   0  0  0  0  0  0  0  0  0  0  0  0
  1  2  1  0  0  0  0
  1  5  2  0  0  0  0
  2  6  2  0  0  0  0
  3  8  2  0  0  0  0
  3 17  1  0  0  0  0
  4  9  1  0  0  0  0
  4 17  2  0  0  0  0
  5 19  1  0  0  0  0
  6 21  1  0  0  0  0
  7 10  2  0  0  0  0
  7 20  1  0  0  0  0
  8 26  1  0  0  0  0
  9 26  2  0  0  0  0
 10 27  1  0  0  0  0
 11 12  2  0  0  0  0
 11 28  1  0  0  0  0
 12 30  1  0  0  0  0
 13 22  2  0  0  0  0
 13 24  1  0  0  0  0
 14 23  1  0  0  0  0
 14 27  2  0  0  0  0
 15 25  1  0  0  0  0
 15 29  2  0  0  0  0
 16 30  2  0  0  0  0
 16 31  1  0  0  0  0
 17 32  1  0  0  0  0
 18 32  1  0  0  0  0
 18 33  2  0  0  0  0
 18 34  1  0  0  0  0
 19 21  2  0  0  0  0
 19 39  1  0  0  0  0
 20 23  2  0  0  0  0
 20 40  1  0  0  0  0
 21 53  1  0  0  0  0
 22 29  1  0  0  0  0
 22 52  1  0  0  0  0
 23 41  1  0  0  0  0
 24 25  2  0  0  0  0
 24 63  1  0  0  0  0
 25 64  1  0  0  0  0
 26 88  1  0  0  0  0
 27 90  1  0  0  0  0
 28 31  2  0  0  0  0
 28 88  1  0  0  0  0
 29 89  1  0  0  0  0
 30 91  1  0  0  0  0
 31 92  1  0  0  0  0
 32 72  2  0  0  0  0
 33 73  1  0  0  0  0
 33 76  1  0  0  0  0
 34 77  1  0  0  0  0
 34 83  2  0  0  0  0
 35 54  1  0  0  0  0
 35 78  1  0  0  0  0
 35 84  2  0  0  0  0
 36 69  1  0  0  0  0
 36 74  1  0  0  0  0
 36 85  2  0  0  0  0
 37 70  1  0  0  0  0
 37 79  1  0  0  0  0
 37 86  2  0  0  0  0
 38 75  1  0  0  0  0
 38 80  1  0  0  0  0
 38 87  2  0  0  0  0
 39 42  1  0  0  0  0
 40 54  1  0  0  0  0
 41 74  1  0  0  0  0
 42 44  1  0  0  0  0
 43 45  1  0  0  0  0
 43 48  1  0  0  0  0
 44 53  1  0  0  0  0
 45 55  1  0  0  0  0
 46 50  1  0  0  0  0
 46 52  1  0  0  0  0
 47 51  1  0  0  0  0
 47 52  1  0  0  0  0
 48 75  1  0  0  0  0
 49 55  1  0  0  0  0
 49 75  1  0  0  0  0
 50 81  1  0  0  0  0
 51 81  1  0  0  0  0
 53 78  1  0  0  0  0
 54 74  1  0  0  0  0
 55 73  1  0  0  0  0
 56 65  1  0  0  0  0
 57 70  1  0  0  0  0
 58 71  1  0  0  0  0
 59 71  1  0  0  0  0
 60 71  1  0  0  0  0
 61 82  1  0  0  0  0
 62 89  1  0  0  0  0
 63 65  1  0  0  0  0
 64 66  1  0  0  0  0
 66 80  1  0  0  0  0
 67 68  1  0  0  0  0
 67 81  1  0  0  0  0
 68 90  1  0  0  0  0
 69 71  1  0  0  0  0
 69 79  1  0  0  0  0
 70 82  1  0  0  0  0
 72 73  1  0  0  0  0
M  CHG  2  81   1  82   1
M  ISO  4  38 100  68 101  80 100  90 101
M  END
> <Batch ID>
0144

> <Smiles>
CCCc1cc(C2CCN(C[101CH2:1][101O:1]c3ccc4c(c3)CN(C(=O)C(NC(=O)C(C)NC)C(C)(C)C)C(C(=O)NC3CCCc5ccccc53)C4)CC2)c(OC)cc1CC[100NH:0][100C:0](=O)N1CCCC(n2nc(-c3ccc(Oc4ccc(F)cc4F)cc3)c(C(N)=O)c2N)C1

> <Shape>
0.255

> <Color>
0.174

> <Negative vol penalty>
0.000

$$$$

  -OEChem-04052321263D

 93102  0     1  0  0  0  0  0999 V2000
  -25.9936  -21.1327   29.5221 C   0  0  0  0  0  0  0  0  0  0  0  0
  -27.1412  -21.6562   28.9353 C   0  0  0  0  0  0  0  0  0  0  0  0
  -23.0092   -9.8779   19.9501 C   0  0  0  0  0  0  0  0  0  0  0  0
  -23.7598   -9.8707   22.2465 C   0  0  0  0  0  0  0  0  0  0  0  0
  -24.9332  -20.7103   28.7215 C   0  0  0  0  0  0  0  0  0  0  0  0
  -27.2295  -21.7566   27.5473 C   0  0  0  0  0  0  0  0  0  0  0  0
  -29.0884  -26.2183   26.0364 C   0  0  0  0  0  0  0  0  0  0  0  0
  -31.3803  -18.9661   20.6344 C   0  0  0  0  0  0  0  0  0  0  0  0
  -31.1729  -17.5868   20.6475 C   0  0  0  0  0  0  0  0  0  0  0  0
  -22.2519   -8.7322   20.1940 C   0  0  0  0  0  0  0  0  0  0  0  0
  -23.0025   -8.7250   22.4904 C   0  0  0  0  0  0  0  0  0  0  0  0
  -30.4678  -26.3979   26.1299 C   0  0  0  0  0  0  0  0  0  0  0  0
  -23.2598   -5.4015   21.9254 C   0  0  0  0  0  0  0  0  0  0  0  0
  -23.8613   -4.3677   22.6431 C   0  0  0  0  0  0  0  0  0  0  0  0
  -30.6825  -25.9287   23.7735 C   0  0  0  0  0  0  0  0  0  0  0  0
  -34.5115  -25.9188   23.6980 C   0  0  0  0  0  0  0  0  0  0  0  0
  -33.1552  -24.1314   24.5939 C   0  0  0  0  0  0  0  0  0  0  0  0
  -29.7536  -19.2276   22.4015 C   0  0  0  0  0  0  0  0  0  0  0  0
  -22.1549   -4.5552   24.3432 C   0  0  0  0  0  0  0  0  0  0  0  0
  -23.7632  -10.4471   20.9764 C   0  0  0  0  0  0  0  0  0  0  0  0
  -24.1327  -12.9688   20.8645 C   0  0  0  0  0  0  0  0  0  0  0  0
  -25.0047  -20.8145   27.3234 C   0  0  0  0  0  0  0  0  0  0  0  0
  -28.4959  -25.8812   24.8109 C   0  0  0  0  0  0  0  0  0  0  0  0
  -26.1696  -21.3339   26.7271 C   0  0  0  0  0  0  0  0  0  0  0  0
  -29.2951  -25.7478   23.6665 C   0  0  0  0  0  0  0  0  0  0  0  0
  -30.6708  -19.7865   21.5114 C   0  0  0  0  0  0  0  0  0  0  0  0
  -35.3293  -24.9817   23.0666 C   0  0  0  0  0  0  0  0  0  0  0  0
  -33.9730  -23.1943   23.9626 C   0  0  0  0  0  0  0  0  0  0  0  0
  -30.2557  -17.0279   21.5375 C   0  0  0  0  0  0  0  0  0  0  0  0
  -22.2485   -8.1557   21.4641 C   0  0  0  0  0  0  0  0  0  0  0  0
  -31.2654  -26.2503   24.9990 C   0  0  0  0  0  0  0  0  0  0  0  0
  -22.1059   -6.0122   22.4166 C   0  0  0  0  0  0  0  0  0  0  0  0
  -33.4244  -25.4937   24.4616 C   0  0  0  0  0  0  0  0  0  1  0  0
  -35.0601  -23.6194   23.1989 C   0  0  0  0  0  0  0  0  0  0  0  0
  -23.3088   -3.9445   23.8519 C   0  0  0  0  0  0  0  0  0  0  0  0
  -21.5535   -5.5890   23.6255 C   0  0  0  0  0  0  0  0  0  0  0  0
  -29.5461  -17.8483   22.4145 C   0  0  0  0  0  0  0  0  0  0  0  0
  -24.5461  -11.6303   20.7249 C   0  0  0  0  0  0  0  0  0  0  0  0
  -25.2343  -13.7074   20.5076 C   0  0  0  0  0  0  0  0  0  0  0  0
  -22.8661  -13.4971   21.2796 C   0  0  0  0  0  0  0  0  0  0  0  0
  -26.8195  -23.4037   23.7361 C   0  0  0  0  0  0  0  0  0  0  0  0
  -26.5075  -25.2593   21.0938 C   0  0  0  0  0  0  0  0  0  0  0  0
  -27.7319  -27.8073   19.1818 C   0  0  0  0  0  0  0  0  0  0  0  0
  -30.7107  -14.6934   20.7072 C   0  0  0  0  0  0  0  0  0  0  0  0
  -23.8520  -20.3009   26.4973 C   0  0  0  0  0  0  0  0  0  0  0  0
  -27.0035  -25.7171   24.7211 C   0  0  0  0  0  0  0  0  0  0  0  0
  -28.7058  -25.4067   22.3231 C   0  0  0  0  0  0  0  0  0  0  0  0
  -23.8745  -20.7883   25.0509 C   0  0  0  0  0  0  0  0  0  0  0  0
  -29.5800  -12.2980   18.3280 C   0  0  0  0  0  0  0  0  0  0  0  0
  -25.2714  -20.6351   24.4576 C   0  0  0  0  0  0  0  0  0  0  0  0
  -28.1355  -12.0209   18.7510 C   0  0  0  0  0  0  0  0  0  0  0  0
  -30.4926  -12.5138   19.5339 C   0  0  0  0  0  0  0  0  0  0  0  0
  -28.5880  -13.2551   20.9094 C   0  0  0  0  0  0  0  0  0  0  0  0
  -26.2931  -21.4819   25.2261 C   0  0  1  0  0  0  0  0  0  0  0  0
  -26.5661  -24.8703   23.5299 C   0  0  1  0  0  0  0  0  0  0  0  0
  -27.6181  -13.0955   19.7272 C   0  0  2  0  0  0  0  0  0  0  0  0
  -36.4882  -25.4566   22.2534 C   0  0  0  0  0  0  0  0  0  0  0  0
  -37.7275  -21.2121   22.4691 C   0  0  0  0  0  0  0  0  0  0  0  0
  -33.7948  -21.2765   25.5824 C   0  0  0  0  0  0  0  0  0  0  0  0
  -27.2815  -29.0706   17.0608 C   0  0  0  0  0  0  0  0  0  0  0  0
  -27.5748  -22.9074   19.4691 C   0  0  0  0  0  0  0  0  0  0  0  0
  -27.9965  -24.4944   17.5792 C   0  0  0  0  0  0  0  0  0  0  0  0
  -25.6710  -24.1316   18.4055 C   0  0  0  0  0  0  0  0  0  0  0  0
  -27.4140  -30.3652   20.6361 C   0  0  0  0  0  0  0  0  0  0  0  0
  -30.8943  -21.2700   21.4966 C   0  0  0  0  0  0  0  0  0  0  0  0
  -32.2774  -21.3325   23.5755 C   0  0  0  0  0  0  0  0  0  0  0  0
  -36.9811  -22.2222   23.3142 C   0  0  0  0  0  0  0  0  0  0  0  0
  -33.6682  -21.7405   24.1148 C   0  0  1  0  0  0  0  0  0  0  0  0
  -27.2981  -25.4500   19.8219 C   0  0  1  0  0  0  0  0  0  0  0  0
  -27.0555  -29.0177   18.5638 C   0  0  2  0  0  0  0  0  0  0  0  0
  -27.1467  -24.2504   18.8445 C   0  0  0  0  0  0  0  0  0  0  0  0
  -25.8115  -11.5219   20.3115 N   0  0  0  0  0  0  0  0  0  0  0  0
  -26.2028  -12.8017   20.1881 N   0  0  0  0  0  0  0  0  0  0  0  0
  -27.2423  -25.2500   22.2878 N   0  0  0  0  0  0  0  0  0  0  0  0
  -29.9412  -13.5483   20.4118 N   0  0  0  0  0  0  0  0  0  0  0  0
  -25.4594  -15.0367   20.4390 N   0  0  0  0  0  0  0  0  0  0  0  0
  -21.8431  -12.5981   21.6104 N   0  0  0  0  0  0  0  0  0  0  0  0
  -30.0700  -15.6233   21.5254 N   0  0  0  0  0  0  0  0  0  0  0  0
  -26.1860  -22.8735   24.8438 N   0  0  0  0  0  0  0  0  0  0  0  0
  -26.8745  -26.7307   19.2661 N   0  0  0  0  0  0  0  0  0  0  0  0
  -27.5904  -30.2726   19.1639 N   0  3  0  0  0  0  0  0  0  0  0  0
  -32.1772  -21.6726   22.1328 N   0  3  0  0  0  0  0  0  0  0  0  0
  -22.6429  -14.7301   21.3393 O   0  0  0  0  0  0  0  0  0  0  0  0
  -27.5356  -22.7976   22.9476 O   0  0  0  0  0  0  0  0  0  0  0  0
  -25.2823  -25.1307   21.0307 O   0  0  0  0  0  0  0  0  0  0  0  0
  -28.9047  -27.8148   19.5493 O   0  0  0  0  0  0  0  0  0  0  0  0
  -31.8435  -14.8512   20.2446 O   0  0  0  0  0  0  0  0  0  0  0  0
  -21.5095   -7.0379   21.7025 O   0  0  0  0  0  0  0  0  0  0  0  0
  -32.6122  -26.4244   25.0876 O   0  0  0  0  0  0  0  0  0  1  0  0
  -35.8585  -22.7035   22.5793 O   0  0  0  0  0  0  0  0  0  0  0  0
  -23.8857   -2.9507   24.5403 F   0  0  0  0  0  0  0  0  0  0  0  0
  -20.4444   -6.1711   24.1018 F   0  0  0  0  0  0  0  0  0  0  0  0
  -28.4007  -17.1978   23.5326 Cl  0  0  0  0  0  0  0  0  0  0  0  0
  1  2  1  0  0  0  0
  1  5  2  0  0  0  0
  2  6  2  0  0  0  0
  3 10  2  0  0  0  0
  3 20  1  0  0  0  0
  4 11  1  0  0  0  0
  4 20  2  0  0  0  0
  5 22  1  0  0  0  0
  6 24  1  0  0  0  0
  7 12  2  0  0  0  0
  7 23  1  0  0  0  0
  8  9  2  0  0  0  0
  8 26  1  0  0  0  0
  9 29  1  0  0  0  0
 10 30  1  0  0  0  0
 11 30  2  0  0  0  0
 12 31  1  0  0  0  0
 13 14  2  0  0  0  0
 13 32  1  0  0  0  0
 14 35  1  0  0  0  0
 15 25  1  0  0  0  0
 15 31  2  0  0  0  0
 16 27  2  0  0  0  0
 16 33  1  0  0  0  0
 17 28  1  0  0  0  0
 17 33  2  0  0  0  0
 18 26  2  0  0  0  0
 18 37  1  0  0  0  0
 19 35  2  0  0  0  0
 19 36  1  0  0  0  0
 20 38  1  0  0  0  0
 21 38  1  0  0  0  0
 21 39  2  0  0  0  0
 21 40  1  0  0  0  0
 22 24  2  0  0  0  0
 22 45  1  0  0  0  0
 23 25  2  0  0  0  0
 23 46  1  0  0  0  0
 24 54  1  0  0  0  0
 25 47  1  0  0  0  0
 26 65  1  0  0  0  0
 27 34  1  0  0  0  0
 27 57  1  0  0  0  0
 28 34  2  0  0  0  0
 28 68  1  0  0  0  0
 29 37  2  0  0  0  0
 29 78  1  0  0  0  0
 30 88  1  0  0  0  0
 31 89  1  0  0  0  0
 32 36  2  0  0  0  0
 32 88  1  0  0  0  0
 33 89  1  0  0  0  0
 34 90  1  0  0  0  0
 35 91  1  0  0  0  0
 36 92  1  0  0  0  0
 37 93  1  0  0  0  0
 38 72  2  0  0  0  0
 39 73  1  0  0  0  0
 39 76  1  0  0  0  0
 40 77  1  0  0  0  0
 40 83  2  0  0  0  0
 41 55  1  0  0  0  0
 41 79  1  0  0  0  0
 41 84  2  0  0  0  0
 42 69  1  0  0  0  0
 42 74  1  0  0  0  0
 42 85  2  0  0  0  0
 43 70  1  0  0  0  0
 43 80  1  0  0  0  0
 43 86  2  0  0  0  0
 44 75  1  0  0  0  0
 44 78  1  0  0  0  0
 44 87  2  0  0  0  0
 45 48  1  0  0  0  0
 46 55  1  0  0  0  0
 47 74  1  0  0  0  0
 48 50  1  0  0  0  0
 49 51  1  0  0  0  0
 49 52  1  0  0  0  0
 50 54  1  0  0  0  0
 51 56  1  0  0  0  0
 52 75  1  0  0  0  0
 53 56  1  0  0  0  0
 53 75  1  0  0  0  0
 54 79  1  0  0  0  0
 55 74  1  0  0  0  0
 56 73  1  0  0  0  0
 58 67  1  0  0  0  0
 59 68  1  0  0  0  0
 60 70  1  0  0  0  0
 61 71  1  0  0  0  0
 62 71  1  0  0  0  0
 63 71  1  0  0  0  0
 64 81  1  0  0  0  0
 65 82  1  0  0  0  0
 66 68  1  0  0  0  0
 66 82  1  0  0  0  0
 67 90  1  0  0  0  0
 69 71  1  0  0  0  0
 69 80  1  0  0  0  0
 70 81  1  0  0  0  0
 72 73  1  0  0  0  0
M  CHG  2  81   1  82   1
M  ISO  4  33 101  44 100  78 100  89 101
M  END
> <Batch ID>
0144

> <Smiles>
CCOc1c(C)c[101c:1]([101O:1]c2ccc3c(c2)CN(C(=O)C(NC(=O)C(C)NC)C(C)(C)C)C(C(=O)NC2CCCc4ccccc42)C3)cc1C(C)CNCc1ccc([100NH:0][100C:0](=O)N2CCCC(n3nc(-c4ccc(Oc5ccc(F)cc5F)cc4)c(C(N)=O)c3N)C2)c(Cl)c1

> <Shape>
0.210

> <Color>
0.189

> <Negative vol penalty>
0.000

$$$$

  -OEChem-04052321263D

 83 91  0     1  0  0  0  0  0999 V2000
  -29.7628  -32.2694   25.7465 C   0  0  0  0  0  0  0  0  0  0  0  0
  -29.5853  -30.9332   25.4022 C   0  0  0  0  0  0  0  0  0  0  0  0
  -24.1155   -9.6013   21.8718 C   0  0  0  0  0  0  0  0  0  0  0  0
  -24.5269  -10.9830   23.8105 C   0  0  0  0  0  0  0  0  0  0  0  0
  -28.7252  -33.1810   25.5559 C   0  0  0  0  0  0  0  0  0  0  0  0
  -28.3696  -30.5076   24.8680 C   0  0  0  0  0  0  0  0  0  0  0  0
  -28.9662  -27.4488   20.8764 C   0  0  0  0  0  0  0  0  0  0  0  0
  -23.7032   -8.5591   22.7021 C   0  0  0  0  0  0  0  0  0  0  0  0
  -24.1145   -9.9408   24.6408 C   0  0  0  0  0  0  0  0  0  0  0  0
  -29.3082  -26.1224   21.1361 C   0  0  0  0  0  0  0  0  0  0  0  0
  -20.9354   -7.7132   24.4505 C   0  0  0  0  0  0  0  0  0  0  0  0
  -19.7730   -7.0265   24.1002 C   0  0  0  0  0  0  0  0  0  0  0  0
  -27.0061  -25.4736   20.8218 C   0  0  0  0  0  0  0  0  0  0  0  0
  -28.7764  -21.3091   22.8887 C   0  0  0  0  0  0  0  0  0  0  0  0
  -28.0611  -20.4856   20.7330 C   0  0  0  0  0  0  0  0  0  0  0  0
  -21.0338   -4.9713   23.9457 C   0  0  0  0  0  0  0  0  0  0  0  0
  -24.5274  -10.8133   22.4261 C   0  0  0  0  0  0  0  0  0  0  0  0
  -24.1511  -12.9055   21.0159 C   0  0  0  0  0  0  0  0  0  0  0  0
  -27.4994  -32.7682   25.0101 C   0  0  0  0  0  0  0  0  0  0  0  0
  -27.6374  -27.7998   20.5977 C   0  0  0  0  0  0  0  0  0  0  0  0
  -27.3142  -31.4142   24.6711 C   0  0  0  0  0  0  0  0  0  0  0  0
  -26.6503  -26.8048   20.5564 C   0  0  0  0  0  0  0  0  0  0  0  0
  -28.1600  -21.5264   21.6565 C   0  0  0  0  0  0  0  0  0  0  0  0
  -29.2939  -20.0512   23.1975 C   0  0  0  0  0  0  0  0  0  0  0  0
  -28.5786  -19.2276   21.0418 C   0  0  0  0  0  0  0  0  0  0  0  0
  -23.7026   -8.7288   24.0866 C   0  0  0  0  0  0  0  0  0  0  0  0
  -28.3276  -25.1350   21.1117 C   0  0  0  0  0  0  0  0  0  0  0  0
  -22.1471   -7.0291   24.5484 C   0  0  0  0  0  0  0  0  0  0  0  0
  -29.1950  -19.0104   22.2741 C   0  0  0  0  0  0  0  0  0  0  0  0
  -19.8222   -5.6555   23.8478 C   0  0  0  0  0  0  0  0  0  0  0  0
  -22.1962   -5.6581   24.2960 C   0  0  0  0  0  0  0  0  0  0  0  0
  -24.9541  -11.8900   21.5689 C   0  0  0  0  0  0  0  0  0  0  0  0
  -25.0239  -13.6733   20.2844 C   0  0  0  0  0  0  0  0  0  0  0  0
  -22.7421  -13.1342   21.1512 C   0  0  0  0  0  0  0  0  0  0  0  0
  -25.4725  -29.6681   21.9856 C   0  0  0  0  0  0  0  0  0  0  0  0
  -23.7357  -28.9613   19.3386 C   0  0  0  0  0  0  0  0  0  0  0  0
  -23.1413  -26.8177   16.7505 C   0  0  0  0  0  0  0  0  0  0  0  0
  -30.9239  -14.6206   20.6631 C   0  0  0  0  0  0  0  0  0  0  0  0
  -26.3909  -33.7807   24.8666 C   0  0  0  0  0  0  0  0  0  0  0  0
  -27.2895  -29.2311   20.2933 C   0  0  0  0  0  0  0  0  0  0  0  0
  -25.2128  -27.1264   20.2423 C   0  0  0  0  0  0  0  0  0  0  0  0
  -25.2624  -33.3221   23.9466 C   0  0  0  0  0  0  0  0  0  0  0  0
  -29.1310  -13.3814   17.8477 C   0  0  0  0  0  0  0  0  0  0  0  0
  -24.8517  -31.8910   24.2780 C   0  0  0  0  0  0  0  0  0  0  0  0
  -27.7847  -12.9503   18.4323 C   0  0  0  0  0  0  0  0  0  0  0  0
  -30.2807  -13.1033   18.8136 C   0  0  0  0  0  0  0  0  0  0  0  0
  -28.7600  -13.2398   20.7482 C   0  0  0  0  0  0  0  0  0  0  0  0
  -26.0186  -30.9189   24.0660 C   0  0  1  0  0  0  0  0  0  0  0  0
  -25.8162  -29.5507   20.5276 C   0  0  1  0  0  0  0  0  0  0  0  0
  -27.5634  -13.5515   19.8333 C   0  0  2  0  0  0  0  0  0  0  0  0
  -29.9501  -19.8381   24.5220 C   0  0  0  0  0  0  0  0  0  0  0  0
  -28.4628  -18.1259   20.0404 C   0  0  0  0  0  0  0  0  0  0  0  0
  -21.6327  -26.4881   14.7724 C   0  0  0  0  0  0  0  0  0  0  0  0
  -21.4903  -28.0705   21.2026 C   0  0  0  0  0  0  0  0  0  0  0  0
  -20.4359  -26.8976   19.2581 C   0  0  0  0  0  0  0  0  0  0  0  0
  -20.7339  -29.3737   19.2066 C   0  0  0  0  0  0  0  0  0  0  0  0
  -25.4126  -26.9139   14.8556 C   0  0  0  0  0  0  0  0  0  0  0  0
  -27.6037  -22.8796   21.3239 C   0  0  0  0  0  0  0  0  0  1  0  0
  -31.4250  -16.1067   22.5865 C   0  0  0  0  0  0  0  0  0  0  0  0
  -31.0585  -17.5339   22.2204 C   0  0  0  0  0  0  0  0  0  0  0  0
  -22.7563  -27.8765   18.9608 C   0  0  1  0  0  0  0  0  0  0  0  0
  -22.9529  -27.0610   15.2640 C   0  0  2  0  0  0  0  0  0  0  0  0
  -21.3808  -28.0484   19.6649 C   0  0  0  0  0  0  0  0  0  0  0  0
  -26.2383  -12.0000   21.2187 N   0  0  0  0  0  0  0  0  0  0  0  0
  -26.2489  -13.0936   20.4376 N   0  0  0  0  0  0  0  0  0  0  0  0
  -24.9214  -28.5412   19.9579 N   0  0  0  0  0  0  0  0  0  0  0  0
  -30.0092  -13.7017   20.1229 N   0  0  0  0  0  0  0  0  0  0  0  0
  -24.8554  -14.7811   19.5315 N   0  0  0  0  0  0  0  0  0  0  0  0
  -21.9943  -12.2491   21.9397 N   0  0  0  0  0  0  0  0  0  0  0  0
  -26.1925  -30.6378   22.6570 N   0  0  0  0  0  0  0  0  0  0  0  0
  -22.6862  -27.8793   17.5036 N   0  0  0  0  0  0  0  0  0  0  0  0
  -30.5874  -15.1451   21.9050 N   0  0  0  0  0  0  0  0  0  0  0  0
  -24.0576  -26.4260   14.4911 N   0  3  0  0  0  0  0  0  0  0  0  0
  -22.1607  -14.0854   20.5763 O   0  0  0  0  0  0  0  0  0  0  0  0
  -24.6164  -28.9343   22.4655 O   0  0  0  0  0  0  0  0  0  0  0  0
  -23.4621  -30.1375   19.0869 O   0  0  0  0  0  0  0  0  0  0  0  0
  -23.6388  -25.7872   17.1991 O   0  0  0  0  0  0  0  0  0  0  0  0
  -31.9610  -14.9534   20.0793 O   0  0  0  0  0  0  0  0  0  0  0  0
  -23.3001   -7.7121   24.8971 O   0  0  0  0  0  0  0  0  0  0  0  0
  -28.6586  -23.8397   21.3656 O   0  0  0  0  0  0  0  0  0  1  0  0
  -29.7004  -17.7802   22.5765 O   0  0  0  0  0  0  0  0  0  0  0  0
  -18.7055   -4.9959   23.5129 F   0  0  0  0  0  0  0  0  0  0  0  0
  -23.3571   -4.9952   24.3896 F   0  0  0  0  0  0  0  0  0  0  0  0
  1  2  1  0  0  0  0
  1  5  2  0  0  0  0
  2  6  2  0  0  0  0
  3  8  2  0  0  0  0
  3 17  1  0  0  0  0
  4  9  1  0  0  0  0
  4 17  2  0  0  0  0
  5 19  1  0  0  0  0
  6 21  1  0  0  0  0
  7 10  2  0  0  0  0
  7 20  1  0  0  0  0
  8 26  1  0  0  0  0
  9 26  2  0  0  0  0
 10 27  1  0  0  0  0
 11 12  2  0  0  0  0
 11 28  1  0  0  0  0
 12 30  1  0  0  0  0
 13 22  1  0  0  0  0
 13 27  2  0  0  0  0
 14 23  1  0  0  0  0
 14 24  2  0  0  0  0
 15 23  2  0  0  0  0
 15 25  1  0  0  0  0
 16 30  2  0  0  0  0
 16 31  1  0  0  0  0
 17 32  1  0  0  0  0
 18 32  1  0  0  0  0
 18 33  2  0  0  0  0
 18 34  1  0  0  0  0
 19 21  2  0  0  0  0
 19 39  1  0  0  0  0
 20 22  2  0  0  0  0
 20 40  1  0  0  0  0
 21 48  1  0  0  0  0
 22 41  1  0  0  0  0
 23 58  1  0  0  0  0
 24 29  1  0  0  0  0
 24 51  1  0  0  0  0
 25 29  2  0  0  0  0
 25 52  1  0  0  0  0
 26 79  1  0  0  0  0
 27 80  1  0  0  0  0
 28 31  2  0  0  0  0
 28 79  1  0  0  0  0
 29 81  1  0  0  0  0
 30 82  1  0  0  0  0
 31 83  1  0  0  0  0
 32 64  2  0  0  0  0
 33 65  1  0  0  0  0
 33 68  1  0  0  0  0
 34 69  1  0  0  0  0
 34 74  2  0  0  0  0
 35 49  1  0  0  0  0
 35 70  1  0  0  0  0
 35 75  2  0  0  0  0
 36 61  1  0  0  0  0
 36 66  1  0  0  0  0
 36 76  2  0  0  0  0
 37 62  1  0  0  0  0
 37 71  1  0  0  0  0
 37 77  2  0  0  0  0
 38 67  1  0  0  0  0
 38 72  1  0  0  0  0
 38 78  2  0  0  0  0
 39 42  1  0  0  0  0
 40 49  1  0  0  0  0
 41 66  1  0  0  0  0
 42 44  1  0  0  0  0
 43 45  1  0  0  0  0
 43 46  1  0  0  0  0
 44 48  1  0  0  0  0
 45 50  1  0  0  0  0
 46 67  1  0  0  0  0
 47 50  1  0  0  0  0
 47 67  1  0  0  0  0
 48 70  1  0  0  0  0
 49 66  1  0  0  0  0
 50 65  1  0  0  0  0
 53 62  1  0  0  0  0
 54 63  1  0  0  0  0
 55 63  1  0  0  0  0
 56 63  1  0  0  0  0
 57 73  1  0  0  0  0
 58 80  1  0  0  0  0
 59 60  1  0  0  0  0
 59 72  1  0  0  0  0
 60 81  1  0  0  0  0
 61 63  1  0  0  0  0
 61 71  1  0  0  0  0
 62 73  1  0  0  0  0
 64 65  1  0  0  0  0
M  CHG  1  73   1
M  ISO  4  38 100  58 101  72 100  80 101
M  END
> <Batch ID>
0144

> <Smiles>
CNC(C)C(=O)NC(C(=O)N1Cc2cc([101O:1][101CH2:1]c3cc(C)c(OCC[100NH:0][100C:0](=O)N4CCCC(n5nc(-c6ccc(Oc7ccc(F)cc7F)cc6)c(C(N)=O)c5N)C4)c(C)c3)ccc2CC1C(=O)NC1CCCc2ccccc21)C(C)(C)C

> <Shape>
0.332

> <Color>
0.128

> <Negative vol penalty>
0.000

$$$$

  -OEChem-04052321263D

 88 97  0     1  0  0  0  0  0999 V2000
  -29.4055  -33.8337   27.7666 C   0  0  0  0  0  0  0  0  0  0  0  0
  -29.9221  -33.1447   26.6740 C   0  0  0  0  0  0  0  0  0  0  0  0
  -24.4954   -8.7878   21.4688 C   0  0  0  0  0  0  0  0  0  0  0  0
  -23.8491  -10.7230   22.7627 C   0  0  0  0  0  0  0  0  0  0  0  0
  -28.2487  -33.3749   28.3952 C   0  0  0  0  0  0  0  0  0  0  0  0
  -29.2826  -31.9957   26.2099 C   0  0  0  0  0  0  0  0  0  0  0  0
  -27.9707  -28.3947   20.1578 C   0  0  0  0  0  0  0  0  0  0  0  0
  -23.9770   -7.9528   22.4585 C   0  0  0  0  0  0  0  0  0  0  0  0
  -23.3306   -9.8880   23.7525 C   0  0  0  0  0  0  0  0  0  0  0  0
  -28.0910  -27.1146   19.6185 C   0  0  0  0  0  0  0  0  0  0  0  0
  -20.9380   -6.8413   23.4394 C   0  0  0  0  0  0  0  0  0  0  0  0
  -20.1526   -5.7630   23.0319 C   0  0  0  0  0  0  0  0  0  0  0  0
  -26.0547  -26.4600   20.7338 C   0  0  0  0  0  0  0  0  0  0  0  0
  -27.7395  -20.2665   19.5118 C   0  0  0  0  0  0  0  0  0  0  0  0
  -25.8258  -20.8557   18.1599 C   0  0  0  0  0  0  0  0  0  0  0  0
  -21.7111   -4.2358   24.0691 C   0  0  0  0  0  0  0  0  0  0  0  0
  -24.4315  -10.1729   21.6209 C   0  0  0  0  0  0  0  0  0  0  0  0
  -24.2863  -11.5556   19.4820 C   0  0  0  0  0  0  0  0  0  0  0  0
  -27.5893  -32.2251   27.9327 C   0  0  0  0  0  0  0  0  0  0  0  0
  -26.8956  -28.7143   20.9994 C   0  0  0  0  0  0  0  0  0  0  0  0
  -28.1166  -31.5203   26.8338 C   0  0  0  0  0  0  0  0  0  0  0  0
  -25.9217  -27.7455   21.2805 C   0  0  0  0  0  0  0  0  0  0  0  0
  -25.8582  -18.7585   19.3589 C   0  0  0  0  0  0  0  0  0  0  0  0
  -27.1232  -19.0648   19.8605 C   0  0  0  0  0  0  0  0  0  0  0  0
  -23.3945   -8.5029   23.6003 C   0  0  0  0  0  0  0  0  0  0  0  0
  -27.1345  -26.1462   19.9088 C   0  0  0  0  0  0  0  0  0  0  0  0
  -22.1100   -6.6168   24.1617 C   0  0  0  0  0  0  0  0  0  0  0  0
  -27.0908  -21.1620   18.6615 C   0  0  0  0  0  0  0  0  0  0  0  0
  -25.2095  -19.6540   18.5086 C   0  0  0  0  0  0  0  0  0  0  0  0
  -20.5391   -4.4603   23.3467 C   0  0  0  0  0  0  0  0  0  0  0  0
  -22.4965   -5.3141   24.4766 C   0  0  0  0  0  0  0  0  0  0  0  0
  -24.9674  -11.0360   20.5991 C   0  0  0  0  0  0  0  0  0  0  0  0
  -25.2281  -12.3099   18.8260 C   0  0  0  0  0  0  0  0  0  0  0  0
  -22.9240  -11.3729   19.0740 C   0  0  0  0  0  0  0  0  0  0  0  0
  -26.6156  -29.6458   24.0256 C   0  0  0  0  0  0  0  0  0  0  0  0
  -23.4852  -29.9544   23.2331 C   0  0  0  0  0  0  0  0  0  0  0  0
  -20.9089  -29.0347   21.1927 C   0  0  0  0  0  0  0  0  0  0  0  0
  -30.2201  -15.0763   20.6367 C   0  0  0  0  0  0  0  0  0  0  0  0
  -26.3685  -31.7408   28.6740 C   0  0  0  0  0  0  0  0  0  0  0  0
  -26.7658  -30.1074   21.5516 C   0  0  0  0  0  0  0  0  0  0  0  0
  -24.7374  -28.0439   22.1620 C   0  0  0  0  0  0  0  0  0  0  0  0
  -25.5408  -30.7273   27.8878 C   0  0  0  0  0  0  0  0  0  0  0  0
  -29.9474  -12.5989   18.0941 C   0  0  0  0  0  0  0  0  0  0  0  0
  -25.9134  -16.1780   19.4685 C   0  0  0  0  0  0  0  0  0  0  0  0
  -24.7307  -16.5504   18.6300 C   0  0  0  0  0  0  0  0  0  0  0  0
  -26.4437  -29.6620   27.2740 C   0  0  0  0  0  0  0  0  0  0  0  0
  -28.5787  -11.9643   18.3470 C   0  0  0  0  0  0  0  0  0  0  0  0
  -30.6460  -12.9729   19.3995 C   0  0  0  0  0  0  0  0  0  0  0  0
  -28.4820  -13.1870   20.5593 C   0  0  0  0  0  0  0  0  0  0  0  0
  -25.1904  -17.4712   19.7266 C   0  0  0  0  0  0  0  0  0  0  0  0
  -27.4376  -30.2839   26.2856 C   0  0  1  0  0  0  0  0  0  0  0  0
  -25.9065  -30.1735   22.8104 C   0  0  1  0  0  0  0  0  0  0  0  0
  -27.7149  -12.8439   19.2709 C   0  0  2  0  0  0  0  0  0  0  0  0
  -18.4594  -29.4271   20.8138 C   0  0  0  0  0  0  0  0  0  0  0  0
  -22.8330  -28.1820   25.6296 C   0  0  0  0  0  0  0  0  0  0  0  0
  -20.5494  -27.8354   24.6634 C   0  0  0  0  0  0  0  0  0  0  0  0
  -21.2900  -30.1255   25.3188 C   0  0  0  0  0  0  0  0  0  0  0  0
  -21.3821  -30.1022   18.4732 C   0  0  0  0  0  0  0  0  0  0  0  0
  -22.8508  -19.8045   18.7730 C   0  0  0  0  0  0  0  0  0  0  0  0
  -29.2094  -18.2185   20.9362 C   0  0  0  0  0  0  0  0  0  0  0  0
  -29.6421  -17.1293   21.9058 C   0  0  0  0  0  0  0  0  0  0  0  0
  -28.5700  -24.4173   19.1302 C   0  0  0  0  0  0  0  0  0  1  0  0
  -28.5856  -22.9077   19.2729 C   0  0  0  0  0  0  0  0  0  0  0  0
  -22.2810  -29.0443   23.2594 C   0  0  1  0  0  0  0  0  0  0  0  0
  -19.8719  -29.8554   20.4473 C   0  0  2  0  0  0  0  0  0  0  0  0
  -21.7616  -28.7903   24.7027 C   0  0  0  0  0  0  0  0  0  0  0  0
  -26.2435  -11.4269   20.6527 N   0  0  0  0  0  0  0  0  0  0  0  0
  -26.3717  -12.2002   19.5611 N   0  0  0  0  0  0  0  0  0  0  0  0
  -24.6583  -29.4186   22.6830 N   0  0  0  0  0  0  0  0  0  0  0  0
  -29.7742  -13.8083   20.2290 N   0  0  0  0  0  0  0  0  0  0  0  0
  -25.1814  -13.0497   17.6977 N   0  0  0  0  0  0  0  0  0  0  0  0
  -22.0926  -10.5666   19.8632 N   0  0  0  0  0  0  0  0  0  0  0  0
  -27.7968  -18.1736   20.7251 N   0  0  0  0  0  0  0  0  0  0  0  0
  -26.7827  -30.5804   25.0296 N   0  0  0  0  0  0  0  0  0  0  0  0
  -21.2957  -29.6452   22.3669 N   0  0  0  0  0  0  0  0  0  0  0  0
  -29.3295  -15.8055   21.4151 N   0  0  0  0  0  0  0  0  0  0  0  0
  -20.0446  -29.6953   18.9757 N   0  3  0  0  0  0  0  0  0  0  0  0
  -22.4623  -11.8955   18.0313 O   0  0  0  0  0  0  0  0  0  0  0  0
  -26.9824  -28.4769   24.0510 O   0  0  0  0  0  0  0  0  0  0  0  0
  -23.3866  -31.1009   23.6775 O   0  0  0  0  0  0  0  0  0  0  0  0
  -21.3306  -27.9578   20.7768 O   0  0  0  0  0  0  0  0  0  0  0  0
  -31.3275  -15.5275   20.3253 O   0  0  0  0  0  0  0  0  0  0  0  0
  -22.8883   -7.6884   24.5662 O   0  0  0  0  0  0  0  0  0  0  0  0
  -23.9737  -19.3729   18.0073 O   0  0  0  0  0  0  0  0  0  0  0  0
  -27.2498  -24.8959   19.3843 O   0  0  0  0  0  0  0  0  0  1  0  0
  -27.6970  -22.3415   18.3173 O   0  0  0  0  0  0  0  0  0  0  0  0
  -19.7840   -3.4250   22.9567 F   0  0  0  0  0  0  0  0  0  0  0  0
  -23.6208   -5.0923   25.1713 F   0  0  0  0  0  0  0  0  0  0  0  0
  1  2  1  0  0  0  0
  1  5  2  0  0  0  0
  2  6  2  0  0  0  0
  3  8  2  0  0  0  0
  3 17  1  0  0  0  0
  4  9  1  0  0  0  0
  4 17  2  0  0  0  0
  5 19  1  0  0  0  0
  6 21  1  0  0  0  0
  7 10  2  0  0  0  0
  7 20  1  0  0  0  0
  8 25  1  0  0  0  0
  9 25  2  0  0  0  0
 10 26  1  0  0  0  0
 11 12  2  0  0  0  0
 11 27  1  0  0  0  0
 12 30  1  0  0  0  0
 13 22  1  0  0  0  0
 13 26  2  0  0  0  0
 14 24  2  0  0  0  0
 14 28  1  0  0  0  0
 15 28  2  0  0  0  0
 15 29  1  0  0  0  0
 16 30  2  0  0  0  0
 16 31  1  0  0  0  0
 17 32  1  0  0  0  0
 18 32  1  0  0  0  0
 18 33  2  0  0  0  0
 18 34  1  0  0  0  0
 19 21  2  0  0  0  0
 19 39  1  0  0  0  0
 20 22  2  0  0  0  0
 20 40  1  0  0  0  0
 21 51  1  0  0  0  0
 22 41  1  0  0  0  0
 23 24  1  0  0  0  0
 23 29  2  0  0  0  0
 23 50  1  0  0  0  0
 24 73  1  0  0  0  0
 25 83  1  0  0  0  0
 26 85  1  0  0  0  0
 27 31  2  0  0  0  0
 27 83  1  0  0  0  0
 28 86  1  0  0  0  0
 29 84  1  0  0  0  0
 30 87  1  0  0  0  0
 31 88  1  0  0  0  0
 32 67  2  0  0  0  0
 33 68  1  0  0  0  0
 33 71  1  0  0  0  0
 34 72  1  0  0  0  0
 34 78  2  0  0  0  0
 35 52  1  0  0  0  0
 35 74  1  0  0  0  0
 35 79  2  0  0  0  0
 36 64  1  0  0  0  0
 36 69  1  0  0  0  0
 36 80  2  0  0  0  0
 37 65  1  0  0  0  0
 37 75  1  0  0  0  0
 37 81  2  0  0  0  0
 38 70  1  0  0  0  0
 38 76  1  0  0  0  0
 38 82  2  0  0  0  0
 39 42  1  0  0  0  0
 40 52  1  0  0  0  0
 41 69  1  0  0  0  0
 42 46  1  0  0  0  0
 43 47  1  0  0  0  0
 43 48  1  0  0  0  0
 44 45  1  0  0  0  0
 44 50  1  0  0  0  0
 45 50  1  0  0  0  0
 46 51  1  0  0  0  0
 47 53  1  0  0  0  0
 48 70  1  0  0  0  0
 49 53  1  0  0  0  0
 49 70  1  0  0  0  0
 51 74  1  0  0  0  0
 52 69  1  0  0  0  0
 53 68  1  0  0  0  0
 54 65  1  0  0  0  0
 55 66  1  0  0  0  0
 56 66  1  0  0  0  0
 57 66  1  0  0  0  0
 58 77  1  0  0  0  0
 59 84  1  0  0  0  0
 60 61  1  0  0  0  0
 60 73  1  0  0  0  0
 61 76  1  0  0  0  0
 62 63  1  0  0  0  0
 62 85  1  0  0  0  0
 63 86  1  0  0  0  0
 64 66  1  0  0  0  0
 64 75  1  0  0  0  0
 65 77  1  0  0  0  0
 67 68  1  0  0  0  0
M  CHG  1  77   1
M  ISO  4  38 100  62 101  76 100  85 101
M  END
> <Batch ID>
0144

> <Smiles>
CNC(C)C(=O)NC(C(=O)N1Cc2cc([101O:1][101CH2:1]COc3cc(NCC[100NH:0][100C:0](=O)N4CCCC(n5nc(-c6ccc(Oc7ccc(F)cc7F)cc6)c(C(N)=O)c5N)C4)c(C4CC4)c(OC)c3)ccc2CC1C(=O)NC1CCCc2ccccc21)C(C)(C)C

> <Shape>
0.291

> <Color>
0.091

> <Negative vol penalty>
0.000

$$$$

  -OEChem-04052321263D

 88 97  0     1  0  0  0  0  0999 V2000
  -17.5708  -25.4463   21.4970 C   0  0  0  0  0  0  0  0  0  0  0  0
  -18.8776  -25.3147   21.0382 C   0  0  0  0  0  0  0  0  0  0  0  0
  -26.8191  -13.3856   19.8200 C   0  0  0  0  0  0  0  0  0  0  0  0
  -25.2969  -13.6919   21.6710 C   0  0  0  0  0  0  0  0  0  0  0  0
  -17.2355  -26.4961   22.3510 C   0  0  0  0  0  0  0  0  0  0  0  0
  -19.8496  -26.2336   21.4324 C   0  0  0  0  0  0  0  0  0  0  0  0
  -31.7284  -27.2548   21.3613 C   0  0  0  0  0  0  0  0  0  0  0  0
  -24.1955  -24.0081   22.7759 C   0  0  0  0  0  0  0  0  0  0  0  0
  -26.6057  -12.0082   19.8723 C   0  0  0  0  0  0  0  0  0  0  0  0
  -25.0834  -12.3144   21.7233 C   0  0  0  0  0  0  0  0  0  0  0  0
  -31.2128  -26.4489   22.3763 C   0  0  0  0  0  0  0  0  0  0  0  0
  -25.0326  -23.5741   21.7490 C   0  0  0  0  0  0  0  0  0  0  0  0
  -23.2765  -10.0098   20.0369 C   0  0  0  0  0  0  0  0  0  0  0  0
  -21.9615   -9.5639   20.1691 C   0  0  0  0  0  0  0  0  0  0  0  0
  -32.3554  -25.2829   20.1140 C   0  0  0  0  0  0  0  0  0  0  0  0
  -26.3880  -25.5502   22.0267 C   0  0  0  0  0  0  0  0  0  0  0  0
  -22.5417   -8.4675   22.2424 C   0  0  0  0  0  0  0  0  0  0  0  0
  -26.1648  -14.2275   20.7194 C   0  0  0  0  0  0  0  0  0  0  0  0
  -25.6613  -16.5953   19.9147 C   0  0  0  0  0  0  0  0  0  0  0  0
  -32.2996  -26.6718   20.2301 C   0  0  0  0  0  0  0  0  0  0  0  0
  -18.2060  -27.4227   22.7636 C   0  0  0  0  0  0  0  0  0  0  0  0
  -24.4425  -25.2239   23.4297 C   0  0  0  0  0  0  0  0  0  0  0  0
  -19.5266  -27.2975   22.2917 C   0  0  0  0  0  0  0  0  0  0  0  0
  -25.5540  -25.9962   23.0633 C   0  0  0  0  0  0  0  0  0  0  0  0
  -31.8398  -24.4769   21.1291 C   0  0  0  0  0  0  0  0  0  0  0  0
  -25.7378  -11.4726   20.8240 C   0  0  0  0  0  0  0  0  0  0  0  0
  -26.1274  -24.3465   21.3723 C   0  0  0  0  0  0  0  0  0  0  0  0
  -31.2685  -25.0600   22.2602 C   0  0  0  0  0  0  0  0  0  0  0  0
  -24.2242   -9.6845   21.0074 C   0  0  0  0  0  0  0  0  0  0  0  0
  -21.5941   -8.7928   21.2719 C   0  0  0  0  0  0  0  0  0  0  0  0
  -23.8567   -8.9134   22.1102 C   0  0  0  0  0  0  0  0  0  0  0  0
  -26.3853  -15.6504   20.6662 C   0  0  0  0  0  0  0  0  0  0  0  0
  -26.2581  -17.7972   20.2077 C   0  0  0  0  0  0  0  0  0  0  0  0
  -24.5487  -16.4038   19.0309 C   0  0  0  0  0  0  0  0  0  0  0  0
  -22.8521  -27.9559   23.7615 C   0  0  0  0  0  0  0  0  0  0  0  0
  -25.2886  -28.6777   25.7776 C   0  0  0  0  0  0  0  0  0  0  0  0
  -28.5216  -28.1349   26.7262 C   0  0  0  0  0  0  0  0  0  0  0  0
  -28.2694  -21.3446   23.8570 C   0  0  0  0  0  0  0  0  0  0  0  0
  -17.7855  -28.5682   23.6500 C   0  0  0  0  0  0  0  0  0  0  0  0
  -23.5454  -25.6651   24.5535 C   0  0  0  0  0  0  0  0  0  0  0  0
  -25.8745  -27.2992   23.7474 C   0  0  0  0  0  0  0  0  0  0  0  0
  -18.9570  -29.2822   24.3194 C   0  0  0  0  0  0  0  0  0  0  0  0
  -30.5696  -18.8269   22.6454 C   0  0  0  0  0  0  0  0  0  0  0  0
  -31.9597  -28.5689   18.5098 C   0  0  0  0  0  0  0  0  0  0  0  0
  -32.3492  -27.3481   17.7364 C   0  0  0  0  0  0  0  0  0  0  0  0
  -20.0610  -29.5632   23.3049 C   0  0  0  0  0  0  0  0  0  0  0  0
  -29.6155  -17.8497   21.9564 C   0  0  0  0  0  0  0  0  0  0  0  0
  -29.9489  -19.4033   23.9146 C   0  0  0  0  0  0  0  0  0  0  0  0
  -27.6737  -19.0887   23.0213 C   0  0  0  0  0  0  0  0  0  0  0  0
  -32.8500  -27.5328   19.1455 C   0  0  0  0  0  0  0  0  0  0  0  0
  -20.6145  -28.2598   22.7166 C   0  0  1  0  0  0  0  0  0  0  0  0
  -23.5962  -27.1692   24.8032 C   0  0  1  0  0  0  0  0  0  0  0  0
  -28.2341  -18.4883   21.7192 C   0  0  2  0  0  0  0  0  0  0  0  0
  -30.2435  -28.9013   28.3831 C   0  0  0  0  0  0  0  0  0  0  0  0
  -25.7032  -31.2323   24.1614 C   0  0  0  0  0  0  0  0  0  0  0  0
  -27.9560  -31.4597   25.2298 C   0  0  0  0  0  0  0  0  0  0  0  0
  -25.8979  -31.5215   26.6379 C   0  0  0  0  0  0  0  0  0  0  0  0
  -28.7565  -25.4316   27.9076 C   0  0  0  0  0  0  0  0  0  0  0  0
  -31.9086  -22.9839   20.9875 C   0  0  0  0  0  0  0  0  0  0  0  0
  -29.0087  -23.5465   24.7300 C   0  0  0  0  0  0  0  0  0  0  0  0
  -30.8849  -22.4090   20.0137 C   0  0  0  0  0  0  0  0  0  0  0  0
  -28.4335  -22.2099   19.5784 C   0  0  0  0  0  0  0  0  0  0  0  0
  -29.3763  -24.4456   23.5632 C   0  0  0  0  0  0  0  0  0  0  0  0
  -27.0806  -22.5162   20.1901 C   0  0  0  0  0  0  0  0  0  1  0  0
  -26.6433  -29.3268   25.6281 C   0  0  1  0  0  0  0  0  0  0  0  0
  -29.1442  -27.8923   28.0893 C   0  0  2  0  0  0  0  0  0  0  0  0
  -26.5432  -30.8615   25.3999 C   0  0  0  0  0  0  0  0  0  0  0  0
  -27.3671  -16.2042   21.3826 N   0  0  0  0  0  0  0  0  0  0  0  0
  -27.2643  -17.5102   21.0826 N   0  0  0  0  0  0  0  0  0  0  0  0
  -24.9640  -27.6909   24.8360 N   0  0  0  0  0  0  0  0  0  0  0  0
  -28.6450  -20.0125   23.6167 N   0  0  0  0  0  0  0  0  0  0  0  0
  -26.0152  -19.0609   19.7998 N   0  0  0  0  0  0  0  0  0  0  0  0
  -24.0604  -15.1036   18.8434 N   0  0  0  0  0  0  0  0  0  0  0  0
  -21.5149  -27.6242   23.6546 N   0  0  0  0  0  0  0  0  0  0  0  0
  -27.4105  -28.9472   26.8095 N   0  0  0  0  0  0  0  0  0  0  0  0
  -29.2448  -22.1520   24.4292 N   0  0  0  0  0  0  0  0  0  0  0  0
  -29.7321  -26.5244   28.1542 N   0  3  0  0  0  0  0  0  0  0  0  0
  -29.5032  -22.6812   20.4938 N   0  3  0  0  0  0  0  0  0  0  0  0
  -24.0142  -17.3554   18.4126 O   0  0  0  0  0  0  0  0  0  0  0  0
  -23.4468  -28.8023   23.1045 O   0  0  0  0  0  0  0  0  0  0  0  0
  -24.5486  -29.0282   26.7003 O   0  0  0  0  0  0  0  0  0  0  0  0
  -28.9777  -27.6551   25.6907 O   0  0  0  0  0  0  0  0  0  0  0  0
  -27.1488  -21.7839   23.5772 O   0  0  0  0  0  0  0  0  0  0  0  0
  -25.5291  -10.1286   20.8752 O   0  0  0  0  0  0  0  0  0  0  0  0
  -26.9457  -23.9255   20.3698 O   0  0  0  0  0  0  0  0  0  1  0  0
  -30.7611  -24.2876   23.2613 O   0  0  0  0  0  0  0  0  0  0  0  0
  -20.3308   -8.3659   21.3995 F   0  0  0  0  0  0  0  0  0  0  0  0
  -24.7624   -8.5987   23.0464 F   0  0  0  0  0  0  0  0  0  0  0  0
  1  2  1  0  0  0  0
  1  5  2  0  0  0  0
  2  6  2  0  0  0  0
  3  9  2  0  0  0  0
  3 18  1  0  0  0  0
  4 10  1  0  0  0  0
  4 18  2  0  0  0  0
  5 21  1  0  0  0  0
  6 23  1  0  0  0  0
  7 11  2  0  0  0  0
  7 20  1  0  0  0  0
  8 12  2  0  0  0  0
  8 22  1  0  0  0  0
  9 26  1  0  0  0  0
 10 26  2  0  0  0  0
 11 28  1  0  0  0  0
 12 27  1  0  0  0  0
 13 14  2  0  0  0  0
 13 29  1  0  0  0  0
 14 30  1  0  0  0  0
 15 20  2  0  0  0  0
 15 25  1  0  0  0  0
 16 24  1  0  0  0  0
 16 27  2  0  0  0  0
 17 30  2  0  0  0  0
 17 31  1  0  0  0  0
 18 32  1  0  0  0  0
 19 32  1  0  0  0  0
 19 33  2  0  0  0  0
 19 34  1  0  0  0  0
 20 50  1  0  0  0  0
 21 23  2  0  0  0  0
 21 39  1  0  0  0  0
 22 24  2  0  0  0  0
 22 40  1  0  0  0  0
 23 51  1  0  0  0  0
 24 41  1  0  0  0  0
 25 28  2  0  0  0  0
 25 59  1  0  0  0  0
 26 84  1  0  0  0  0
 27 85  1  0  0  0  0
 28 86  1  0  0  0  0
 29 31  2  0  0  0  0
 29 84  1  0  0  0  0
 30 87  1  0  0  0  0
 31 88  1  0  0  0  0
 32 68  2  0  0  0  0
 33 69  1  0  0  0  0
 33 72  1  0  0  0  0
 34 73  1  0  0  0  0
 34 79  2  0  0  0  0
 35 52  1  0  0  0  0
 35 74  1  0  0  0  0
 35 80  2  0  0  0  0
 36 65  1  0  0  0  0
 36 70  1  0  0  0  0
 36 81  2  0  0  0  0
 37 66  1  0  0  0  0
 37 75  1  0  0  0  0
 37 82  2  0  0  0  0
 38 71  1  0  0  0  0
 38 76  1  0  0  0  0
 38 83  2  0  0  0  0
 39 42  1  0  0  0  0
 40 52  1  0  0  0  0
 41 70  1  0  0  0  0
 42 46  1  0  0  0  0
 43 47  1  0  0  0  0
 43 48  1  0  0  0  0
 44 45  1  0  0  0  0
 44 50  1  0  0  0  0
 45 50  1  0  0  0  0
 46 51  1  0  0  0  0
 47 53  1  0  0  0  0
 48 71  1  0  0  0  0
 49 53  1  0  0  0  0
 49 71  1  0  0  0  0
 51 74  1  0  0  0  0
 52 70  1  0  0  0  0
 53 69  1  0  0  0  0
 54 66  1  0  0  0  0
 55 67  1  0  0  0  0
 56 67  1  0  0  0  0
 57 67  1  0  0  0  0
 58 77  1  0  0  0  0
 59 61  1  0  0  0  0
 60 63  1  0  0  0  0
 60 76  1  0  0  0  0
 61 78  1  0  0  0  0
 62 64  1  0  0  0  0
 62 78  1  0  0  0  0
 63 86  1  0  0  0  0
 64 85  1  0  0  0  0
 65 67  1  0  0  0  0
 65 75  1  0  0  0  0
 66 77  1  0  0  0  0
 68 69  1  0  0  0  0
M  CHG  2  77   1  78   1
M  ISO  4  38 100  64 101  76 100  85 101
M  END
> <Batch ID>
0144

> <Smiles>
CNC(C)C(=O)NC(C(=O)N1Cc2cc([101O:1][101CH2:1]CNCCc3cc(C4CC4)ccc3OCC[100NH:0][100C:0](=O)N3CCCC(n4nc(-c5ccc(Oc6ccc(F)cc6F)cc5)c(C(N)=O)c4N)C3)ccc2CC1C(=O)NC1CCCc2ccccc21)C(C)(C)C

> <Shape>
0.225

> <Color>
0.076

> <Negative vol penalty>
0.000

$$$$

  -OEChem-04052321263D

 85 94  0     1  0  0  0  0  0999 V2000
  -31.1107  -31.7373   24.4784 C   0  0  0  0  0  0  0  0  0  0  0  0
  -30.6314  -30.4502   24.7002 C   0  0  0  0  0  0  0  0  0  0  0  0
  -23.4277   -9.6834   20.0023 C   0  0  0  0  0  0  0  0  0  0  0  0
  -23.8796   -9.9608   22.3594 C   0  0  0  0  0  0  0  0  0  0  0  0
  -31.0387  -32.2965   23.2032 C   0  0  0  0  0  0  0  0  0  0  0  0
  -30.0789  -29.7221   23.6472 C   0  0  0  0  0  0  0  0  0  0  0  0
  -31.7154  -24.9312   23.5288 C   0  0  0  0  0  0  0  0  0  0  0  0
  -22.7901   -8.4714   20.2671 C   0  0  0  0  0  0  0  0  0  0  0  0
  -23.2419   -8.7488   22.6243 C   0  0  0  0  0  0  0  0  0  0  0  0
  -31.1430  -24.0402   24.4357 C   0  0  0  0  0  0  0  0  0  0  0  0
  -20.0713   -7.6145   22.9088 C   0  0  0  0  0  0  0  0  0  0  0  0
  -19.1786   -7.5742   23.9798 C   0  0  0  0  0  0  0  0  0  0  0  0
  -29.7016  -23.2015   22.6927 C   0  0  0  0  0  0  0  0  0  0  0  0
  -20.5212   -5.8649   25.0345 C   0  0  0  0  0  0  0  0  0  0  0  0
  -32.5486  -16.0727   23.4516 C   0  0  0  0  0  0  0  0  0  0  0  0
  -23.9726  -10.4280   21.0484 C   0  0  0  0  0  0  0  0  0  0  0  0
  -24.0455  -12.9590   20.7374 C   0  0  0  0  0  0  0  0  0  0  0  0
  -30.4938  -31.5712   22.1319 C   0  0  0  0  0  0  0  0  0  0  0  0
  -31.2768  -24.9715   22.1975 C   0  0  0  0  0  0  0  0  0  0  0  0
  -29.9983  -30.2726   22.3568 C   0  0  0  0  0  0  0  0  0  0  0  0
  -30.2718  -24.0920   21.7703 C   0  0  0  0  0  0  0  0  0  0  0  0
  -30.5033  -17.1966   24.8321 C   0  0  0  0  0  0  0  0  0  0  0  0
  -31.5178  -15.2528   23.9099 C   0  0  0  0  0  0  0  0  0  0  0  0
  -30.4702  -15.8321   24.6223 C   0  0  0  0  0  0  0  0  0  0  0  0
  -22.6971   -8.0042   21.5781 C   0  0  0  0  0  0  0  0  0  0  0  0
  -30.1340  -23.1772   24.0184 C   0  0  0  0  0  0  0  0  0  0  0  0
  -21.1889   -6.7800   22.9006 C   0  0  0  0  0  0  0  0  0  0  0  0
  -19.4035   -6.6994   25.0427 C   0  0  0  0  0  0  0  0  0  0  0  0
  -21.4139   -5.9052   23.9635 C   0  0  0  0  0  0  0  0  0  0  0  0
  -24.6320  -11.6797   20.7754 C   0  0  0  0  0  0  0  0  0  0  0  0
  -31.5783  -17.9259   24.3368 C   0  0  0  0  0  0  0  0  0  0  0  0
  -25.0857  -13.8049   20.4393 C   0  0  0  0  0  0  0  0  0  0  0  0
  -22.6823  -13.3478   20.9526 C   0  0  0  0  0  0  0  0  0  0  0  0
  -29.9174  -27.1716   20.3494 C   0  0  0  0  0  0  0  0  0  0  0  0
  -30.3431  -24.9337   18.0400 C   0  0  0  0  0  0  0  0  0  0  0  0
  -30.7527  -21.6426   17.2352 C   0  0  0  0  0  0  0  0  0  0  0  0
  -31.0068  -13.4280   21.2449 C   0  0  0  0  0  0  0  0  0  0  0  0
  -30.3942  -32.2355   20.7816 C   0  0  0  0  0  0  0  0  0  0  0  0
  -31.9230  -25.9199   21.2251 C   0  0  0  0  0  0  0  0  0  0  0  0
  -29.7794  -24.0817   20.3469 C   0  0  0  0  0  0  0  0  0  0  0  0
  -31.4443  -19.3736   24.6926 C   0  0  0  0  0  0  0  0  0  0  0  0
  -30.1362  -31.2568   19.6389 C   0  0  0  0  0  0  0  0  0  0  0  0
  -29.2921  -13.9095   18.1620 C   0  0  0  0  0  0  0  0  0  0  0  0
  -29.0244  -30.2814   20.0122 C   0  0  0  0  0  0  0  0  0  0  0  0
  -27.8504  -13.5081   18.4787 C   0  0  0  0  0  0  0  0  0  0  0  0
  -30.2981  -13.0328   18.9044 C   0  0  0  0  0  0  0  0  0  0  0  0
  -28.6567  -12.5593   20.6807 C   0  0  0  0  0  0  0  0  0  0  0  0
  -29.4146  -29.4419   21.2347 C   0  0  1  0  0  0  0  0  0  0  0  0
  -29.5481  -18.0816   25.5676 C   0  0  2  0  0  0  0  0  0  0  0  0
  -31.0420  -26.2314   20.0192 C   0  0  1  0  0  0  0  0  0  0  0  0
  -27.6052  -13.4512   19.9986 C   0  0  2  0  0  0  0  0  0  0  0  0
  -29.3699  -14.9856   25.1644 C   0  0  0  0  0  0  0  0  0  0  0  0
  -28.0915  -17.9771   25.1320 C   0  0  0  0  0  0  0  0  0  0  0  0
  -31.0364  -20.1176   15.2626 C   0  0  0  0  0  0  0  0  0  0  0  0
  -27.3689  -25.1971   17.4117 C   0  0  0  0  0  0  0  0  0  0  0  0
  -27.5162  -23.0411   16.1475 C   0  0  0  0  0  0  0  0  0  0  0  0
  -28.8473  -25.0150   15.4029 C   0  0  0  0  0  0  0  0  0  0  0  0
  -33.4032  -20.7245   18.1792 C   0  0  0  0  0  0  0  0  0  0  0  0
  -31.5644  -13.7880   23.6363 C   0  0  0  0  0  0  0  0  0  0  0  0
  -29.9281  -20.4665   26.4081 C   0  0  0  0  0  0  0  0  0  0  0  0
  -30.4009  -21.8370   25.9648 C   0  0  0  0  0  0  0  0  0  1  0  0
  -29.5269  -23.7827   17.5033 C   0  0  1  0  0  0  0  0  0  0  0  0
  -31.7458  -20.9446   16.3236 C   0  0  2  0  0  0  0  0  0  0  0  0
  -28.3225  -24.2602   16.6437 C   0  0  0  0  0  0  0  0  0  0  0  0
  -32.6115  -17.4110   23.6501 N   0  0  0  0  0  0  0  0  0  0  0  0
  -25.9430  -11.7058   20.5215 N   0  0  0  0  0  0  0  0  0  0  0  0
  -26.1889  -13.0118   20.3211 N   0  0  0  0  0  0  0  0  0  0  0  0
  -30.4382  -25.0318   19.4354 N   0  0  0  0  0  0  0  0  0  0  0  0
  -30.0110  -13.0230   20.3408 N   0  0  0  0  0  0  0  0  0  0  0  0
  -25.1551  -15.1423   20.2694 N   0  0  0  0  0  0  0  0  0  0  0  0
  -21.7422  -12.3516   21.2493 N   0  0  0  0  0  0  0  0  0  0  0  0
  -30.3320  -28.3896   20.8532 N   0  0  0  0  0  0  0  0  0  0  0  0
  -30.4612  -22.9158   16.7934 N   0  0  0  0  0  0  0  0  0  0  0  0
  -30.6500  -13.3948   22.5874 N   0  0  0  0  0  0  0  0  0  0  0  0
  -30.0288  -19.5209   25.2679 N   0  3  1  0  0  0  0  0  0  0  0  0
  -32.6268  -20.0392   17.1140 N   0  3  0  0  0  0  0  0  0  0  0  0
  -22.3059  -14.5414   20.8675 O   0  0  0  0  0  0  0  0  0  0  0  0
  -28.7594  -26.8187   20.1596 O   0  0  0  0  0  0  0  0  0  0  0  0
  -30.8824  -25.7127   17.2502 O   0  0  0  0  0  0  0  0  0  0  0  0
  -30.2798  -21.1101   18.2369 O   0  0  0  0  0  0  0  0  0  0  0  0
  -32.1289  -13.7973   20.8821 O   0  0  0  0  0  0  0  0  0  0  0  0
  -22.0747   -6.8217   21.8370 O   0  0  0  0  0  0  0  0  0  0  0  0
  -29.5732  -22.3070   24.9017 O   0  0  0  0  0  0  0  0  0  1  0  0
  -18.5470   -6.6619   26.0718 F   0  0  0  0  0  0  0  0  0  0  0  0
  -22.4865   -5.1018   23.9618 F   0  0  0  0  0  0  0  0  0  0  0  0
  1  2  1  0  0  0  0
  1  5  2  0  0  0  0
  2  6  2  0  0  0  0
  3  8  2  0  0  0  0
  3 16  1  0  0  0  0
  4  9  1  0  0  0  0
  4 16  2  0  0  0  0
  5 18  1  0  0  0  0
  6 20  1  0  0  0  0
  7 10  2  0  0  0  0
  7 19  1  0  0  0  0
  8 25  1  0  0  0  0
  9 25  2  0  0  0  0
 10 26  1  0  0  0  0
 11 12  2  0  0  0  0
 11 27  1  0  0  0  0
 12 28  1  0  0  0  0
 13 21  1  0  0  0  0
 13 26  2  0  0  0  0
 14 28  2  0  0  0  0
 14 29  1  0  0  0  0
 15 23  1  0  0  0  0
 15 65  2  0  0  0  0
 16 30  1  0  0  0  0
 17 30  1  0  0  0  0
 17 32  2  0  0  0  0
 17 33  1  0  0  0  0
 18 20  2  0  0  0  0
 18 38  1  0  0  0  0
 19 21  2  0  0  0  0
 19 39  1  0  0  0  0
 20 48  1  0  0  0  0
 21 40  1  0  0  0  0
 22 24  1  0  0  0  0
 22 31  2  0  0  0  0
 22 49  1  0  0  0  0
 23 24  2  0  0  0  0
 23 59  1  0  0  0  0
 24 52  1  0  0  0  0
 25 82  1  0  0  0  0
 26 83  1  0  0  0  0
 27 29  2  0  0  0  0
 27 82  1  0  0  0  0
 28 84  1  0  0  0  0
 29 85  1  0  0  0  0
 30 66  2  0  0  0  0
 31 41  1  0  0  0  0
 31 65  1  0  0  0  0
 32 67  1  0  0  0  0
 32 70  1  0  0  0  0
 33 71  1  0  0  0  0
 33 77  2  0  0  0  0
 34 50  1  0  0  0  0
 34 72  1  0  0  0  0
 34 78  2  0  0  0  0
 35 62  1  0  0  0  0
 35 68  1  0  0  0  0
 35 79  2  0  0  0  0
 36 63  1  0  0  0  0
 36 73  1  0  0  0  0
 36 80  2  0  0  0  0
 37 69  1  0  0  0  0
 37 74  1  0  0  0  0
 37 81  2  0  0  0  0
 38 42  1  0  0  0  0
 39 50  1  0  0  0  0
 40 68  1  0  0  0  0
 41 75  1  0  0  0  0
 42 44  1  0  0  0  0
 43 45  1  0  0  0  0
 43 46  1  0  0  0  0
 44 48  1  0  0  0  0
 45 51  1  0  0  0  0
 46 69  1  0  0  0  0
 47 51  1  0  0  0  0
 47 69  1  0  0  0  0
 48 72  1  0  0  0  0
 49 53  1  0  0  0  0
 49 75  1  0  0  0  0
 50 68  1  0  0  0  0
 51 67  1  0  0  0  0
 54 63  1  0  0  0  0
 55 64  1  0  0  0  0
 56 64  1  0  0  0  0
 57 64  1  0  0  0  0
 58 76  1  0  0  0  0
 59 74  1  0  0  0  0
 60 61  1  0  0  0  0
 60 75  1  0  0  0  0
 61 83  1  0  0  0  0
 62 64  1  0  0  0  0
 62 73  1  0  0  0  0
 63 76  1  0  0  0  0
 66 67  1  0  0  0  0
M  CHG  2  75   1  76   1
M  ISO  4  37 100  61 101  74 100  83 101
M  END
> <Batch ID>
0144

> <Smiles>
CNC(C)C(=O)NC(C(=O)N1Cc2cc([101O:1][101CH2:1]CN3Cc4ncc(C[100NH:0][100C:0](=O)N5CCCC(n6nc(-c7ccc(Oc8ccc(F)cc8F)cc7)c(C(N)=O)c6N)C5)c(C)c4C3C)ccc2CC1C(=O)NC1CCCc2ccccc21)C(C)(C)C

> <Shape>
0.219

> <Color>
0.177

> <Negative vol penalty>
0.000

$$$$

  -OEChem-04052321263D

 83 91  0     1  0  0  0  0  0999 V2000
  -27.8023  -23.5246   18.0330 C   0  0  0  0  0  0  0  0  0  0  0  0
  -26.6488  -23.8552   18.7370 C   0  0  0  0  0  0  0  0  0  0  0  0
  -26.3543  -13.5282   19.9341 C   0  0  0  0  0  0  0  0  0  0  0  0
  -24.2300  -13.7406   21.0652 C   0  0  0  0  0  0  0  0  0  0  0  0
  -29.0223  -24.0995   18.3867 C   0  0  0  0  0  0  0  0  0  0  0  0
  -26.7150  -24.7601   19.7959 C   0  0  0  0  0  0  0  0  0  0  0  0
  -22.9743  -28.1714   19.6727 C   0  0  0  0  0  0  0  0  0  0  0  0
  -20.2834  -23.1540   22.8279 C   0  0  0  0  0  0  0  0  0  0  0  0
  -21.2986  -22.2206   22.6186 C   0  0  0  0  0  0  0  0  0  0  0  0
  -26.3960  -12.1742   20.2667 C   0  0  0  0  0  0  0  0  0  0  0  0
  -24.2717  -12.3866   21.3978 C   0  0  0  0  0  0  0  0  0  0  0  0
  -21.7191  -27.7563   20.1153 C   0  0  0  0  0  0  0  0  0  0  0  0
  -23.6722   -9.4298   19.8752 C   0  0  0  0  0  0  0  0  0  0  0  0
  -22.5079   -8.6833   19.6941 C   0  0  0  0  0  0  0  0  0  0  0  0
  -22.1227  -28.8226   22.2411 C   0  0  0  0  0  0  0  0  0  0  0  0
  -22.9097  -23.7659   23.5426 C   0  0  0  0  0  0  0  0  0  0  0  0
  -22.4781   -8.1577   22.0520 C   0  0  0  0  0  0  0  0  0  0  0  0
  -25.2713  -14.3114   20.3334 C   0  0  0  0  0  0  0  0  0  0  0  0
  -24.6689  -16.2849   18.8334 C   0  0  0  0  0  0  0  0  0  0  0  0
  -29.1017  -25.0192   19.4442 C   0  0  0  0  0  0  0  0  0  0  0  0
  -23.8190  -28.9072   20.5162 C   0  0  0  0  0  0  0  0  0  0  0  0
  -27.9374  -25.3467   20.1649 C   0  0  0  0  0  0  0  0  0  0  0  0
  -23.3871  -29.2481   21.8059 C   0  0  0  0  0  0  0  0  0  0  0  0
  -20.5814  -24.3934   23.3945 C   0  0  0  0  0  0  0  0  0  0  0  0
  -22.6118  -22.5265   22.9760 C   0  0  0  0  0  0  0  0  0  0  0  0
  -25.3547  -11.6034   20.9985 C   0  0  0  0  0  0  0  0  0  0  0  0
  -21.2943  -28.0794   21.4007 C   0  0  0  0  0  0  0  0  0  0  0  0
  -24.2395   -9.5401   21.1447 C   0  0  0  0  0  0  0  0  0  0  0  0
  -21.8945  -24.6993   23.7519 C   0  0  0  0  0  0  0  0  0  0  0  0
  -21.9109   -8.0473   20.7824 C   0  0  0  0  0  0  0  0  0  0  0  0
  -23.6425   -8.9041   22.2331 C   0  0  0  0  0  0  0  0  0  0  0  0
  -25.2278  -15.7102   19.9906 C   0  0  0  0  0  0  0  0  0  0  0  0
  -24.8822  -17.6336   18.9824 C   0  0  0  0  0  0  0  0  0  0  0  0
  -24.0153  -15.6560   17.7230 C   0  0  0  0  0  0  0  0  0  0  0  0
  -26.6979  -28.4317   21.7771 C   0  0  0  0  0  0  0  0  0  0  0  0
  -26.3239  -31.4859   22.8039 C   0  0  0  0  0  0  0  0  0  0  0  0
  -24.1988  -34.0314   23.6112 C   0  0  0  0  0  0  0  0  0  0  0  0
  -24.9978  -21.7226   23.0600 C   0  0  0  0  0  0  0  0  0  0  0  0
  -30.4510  -25.5784   19.8201 C   0  0  0  0  0  0  0  0  0  0  0  0
  -25.1592  -29.3705   20.0144 C   0  0  0  0  0  0  0  0  0  0  0  0
  -24.2479  -30.0535   22.7435 C   0  0  0  0  0  0  0  0  0  0  0  0
  -30.3710  -26.8133   20.7139 C   0  0  0  0  0  0  0  0  0  0  0  0
  -27.9918  -20.3946   21.6639 C   0  0  0  0  0  0  0  0  0  0  0  0
  -29.3767  -26.5876   21.8485 C   0  0  0  0  0  0  0  0  0  0  0  0
  -27.5313  -19.1072   20.9764 C   0  0  0  0  0  0  0  0  0  0  0  0
  -27.2344  -20.6438   22.9670 C   0  0  0  0  0  0  0  0  0  0  0  0
  -25.3104  -19.3331   22.1610 C   0  0  0  0  0  0  0  0  0  0  0  0
  -27.9643  -26.3430   21.3037 C   0  0  1  0  0  0  0  0  0  0  0  0
  -26.1455  -29.6743   21.1379 C   0  0  1  0  0  0  0  0  0  0  0  0
  -25.9993  -19.0734   20.8114 C   0  0  2  0  0  0  0  0  0  0  0  0
  -24.1867  -36.3948   24.4547 C   0  0  0  0  0  0  0  0  0  0  0  0
  -26.9337  -30.4815   25.6198 C   0  0  0  0  0  0  0  0  0  0  0  0
  -25.9907  -32.6221   26.5124 C   0  0  0  0  0  0  0  0  0  0  0  0
  -28.0019  -32.6665   25.0375 C   0  0  0  0  0  0  0  0  0  0  0  0
  -22.8794  -35.0240   21.1550 C   0  0  0  0  0  0  0  0  0  0  0  0
  -23.5696  -26.1343   24.6410 C   0  0  0  0  0  0  0  0  0  0  0  0
  -18.7003  -25.7516   22.3357 C   0  0  0  0  0  0  0  0  0  0  0  0
  -19.5568  -26.4591   21.2921 C   0  0  0  0  0  0  0  0  0  1  0  0
  -19.4689  -25.3920   23.6135 C   0  0  1  0  0  0  0  0  0  0  0  0
  -25.7420  -32.1359   24.0360 C   0  0  1  0  0  0  0  0  0  0  0  0
  -24.1932  -35.4996   23.2253 C   0  0  2  0  0  0  0  0  0  0  0  0
  -26.6514  -31.9597   25.2847 C   0  0  0  0  0  0  0  0  0  0  0  0
  -25.7566  -16.6193   20.8139 N   0  0  0  0  0  0  0  0  0  0  0  0
  -25.5309  -17.7790   20.1733 N   0  0  0  0  0  0  0  0  0  0  0  0
  -25.5523  -30.4778   22.2088 N   0  0  0  0  0  0  0  0  0  0  0  0
  -25.7894  -20.6014   22.7327 N   0  0  0  0  0  0  0  0  0  0  0  0
  -24.5763  -18.6974   18.2097 N   0  0  0  0  0  0  0  0  0  0  0  0
  -23.8803  -14.2610   17.7299 N   0  0  0  0  0  0  0  0  0  0  0  0
  -23.6430  -21.5785   22.7626 N   0  0  0  0  0  0  0  0  0  0  0  0
  -27.3555  -27.5919   20.8987 N   0  0  0  0  0  0  0  0  0  0  0  0
  -25.4799  -33.5260   23.6790 N   0  0  0  0  0  0  0  0  0  0  0  0
  -22.9882  -35.8156   22.4074 N   0  3  0  0  0  0  0  0  0  0  0  0
  -23.5789  -16.3102   16.7457 O   0  0  0  0  0  0  0  0  0  0  0  0
  -26.5405  -28.2492   22.9786 O   0  0  0  0  0  0  0  0  0  0  0  0
  -27.4193  -31.8638   22.3809 O   0  0  0  0  0  0  0  0  0  0  0  0
  -23.1699  -33.3973   23.8341 O   0  0  0  0  0  0  0  0  0  0  0  0
  -25.4900  -22.7461   23.5417 O   0  0  0  0  0  0  0  0  0  0  0  0
  -18.5588  -24.8375   24.5650 O   0  0  0  0  0  0  0  0  0  0  0  0
  -25.3950  -10.2822   21.3230 O   0  0  0  0  0  0  0  0  0  0  0  0
  -22.2024  -25.9053   24.3060 O   0  0  0  0  0  0  0  0  0  0  0  0
  -20.0699  -27.6748   21.8354 O   0  0  0  0  0  0  0  0  0  1  0  0
  -20.7919   -7.3318   20.6086 F   0  0  0  0  0  0  0  0  0  0  0  0
  -24.1822   -9.0075   23.4553 F   0  0  0  0  0  0  0  0  0  0  0  0
  1  2  1  0  0  0  0
  1  5  2  0  0  0  0
  2  6  2  0  0  0  0
  3 10  2  0  0  0  0
  3 18  1  0  0  0  0
  4 11  1  0  0  0  0
  4 18  2  0  0  0  0
  5 20  1  0  0  0  0
  6 22  1  0  0  0  0
  7 12  2  0  0  0  0
  7 21  1  0  0  0  0
  8  9  2  0  0  0  0
  8 24  1  0  0  0  0
  9 25  1  0  0  0  0
 10 26  1  0  0  0  0
 11 26  2  0  0  0  0
 12 27  1  0  0  0  0
 13 14  2  0  0  0  0
 13 28  1  0  0  0  0
 14 30  1  0  0  0  0
 15 23  1  0  0  0  0
 15 27  2  0  0  0  0
 16 25  2  0  0  0  0
 16 29  1  0  0  0  0
 17 30  2  0  0  0  0
 17 31  1  0  0  0  0
 18 32  1  0  0  0  0
 19 32  1  0  0  0  0
 19 33  2  0  0  0  0
 19 34  1  0  0  0  0
 20 22  2  0  0  0  0
 20 39  1  0  0  0  0
 21 23  2  0  0  0  0
 21 40  1  0  0  0  0
 22 48  1  0  0  0  0
 23 41  1  0  0  0  0
 24 29  2  0  0  0  0
 24 59  1  0  0  0  0
 25 69  1  0  0  0  0
 26 79  1  0  0  0  0
 27 81  1  0  0  0  0
 28 31  2  0  0  0  0
 28 79  1  0  0  0  0
 29 80  1  0  0  0  0
 30 82  1  0  0  0  0
 31 83  1  0  0  0  0
 32 63  2  0  0  0  0
 33 64  1  0  0  0  0
 33 67  1  0  0  0  0
 34 68  1  0  0  0  0
 34 73  2  0  0  0  0
 35 49  1  0  0  0  0
 35 70  1  0  0  0  0
 35 74  2  0  0  0  0
 36 60  1  0  0  0  0
 36 65  1  0  0  0  0
 36 75  2  0  0  0  0
 37 61  1  0  0  0  0
 37 71  1  0  0  0  0
 37 76  2  0  0  0  0
 38 66  1  0  0  0  0
 38 69  1  0  0  0  0
 38 77  2  0  0  0  0
 39 42  1  0  0  0  0
 40 49  1  0  0  0  0
 41 65  1  0  0  0  0
 42 44  1  0  0  0  0
 43 45  1  0  0  0  0
 43 46  1  0  0  0  0
 44 48  1  0  0  0  0
 45 50  1  0  0  0  0
 46 66  1  0  0  0  0
 47 50  1  0  0  0  0
 47 66  1  0  0  0  0
 48 70  1  0  0  0  0
 49 65  1  0  0  0  0
 50 64  1  0  0  0  0
 51 61  1  0  0  0  0
 52 62  1  0  0  0  0
 53 62  1  0  0  0  0
 54 62  1  0  0  0  0
 55 72  1  0  0  0  0
 56 80  1  0  0  0  0
 57 58  1  0  0  0  0
 57 59  1  0  0  0  0
 58 81  1  0  0  0  0
 59 78  1  0  0  0  0
 60 62  1  0  0  0  0
 60 71  1  0  0  0  0
 61 72  1  0  0  0  0
 63 64  1  0  0  0  0
M  CHG  1  72   1
M  ISO  4  38 100  58 101  69 100  81 101
M  END
> <Batch ID>
0144

> <Smiles>
CNC(C)C(=O)NC(C(=O)N1Cc2cc([101O:1][101CH2:1]CC(O)c3ccc([100NH:0][100C:0](=O)N4CCCC(n5nc(-c6ccc(Oc7ccc(F)cc7F)cc6)c(C(N)=O)c5N)C4)cc3OC)ccc2CC1C(=O)NC1CCCc2ccccc21)C(C)(C)C

> <Shape>
0.282

> <Color>
0.076

> <Negative vol penalty>
0.000

$$$$

  -OEChem-04052321263D

 85 93  0     1  0  0  0  0  0999 V2000
  -25.5521  -19.3236   18.0491 C   0  0  0  0  0  0  0  0  0  0  0  0
  -25.0897  -20.5741   18.4464 C   0  0  0  0  0  0  0  0  0  0  0  0
  -26.4680  -17.0382   21.4194 C   0  0  0  0  0  0  0  0  0  0  0  0
  -24.8521  -15.8466   22.7633 C   0  0  0  0  0  0  0  0  0  0  0  0
  -26.8581  -18.9374   18.3476 C   0  0  0  0  0  0  0  0  0  0  0  0
  -25.9329  -21.4389   19.1434 C   0  0  0  0  0  0  0  0  0  0  0  0
  -25.7087  -26.1904   17.4063 C   0  0  0  0  0  0  0  0  0  0  0  0
  -27.2913  -15.9123   21.4111 C   0  0  0  0  0  0  0  0  0  0  0  0
  -25.6754  -14.7207   22.7550 C   0  0  0  0  0  0  0  0  0  0  0  0
  -24.6120  -26.9590   17.7939 C   0  0  0  0  0  0  0  0  0  0  0  0
  -29.6538  -13.2339   20.7331 C   0  0  0  0  0  0  0  0  0  0  0  0
  -30.2272  -12.8588   19.5182 C   0  0  0  0  0  0  0  0  0  0  0  0
  -25.9662  -28.0312   19.4779 C   0  0  0  0  0  0  0  0  0  0  0  0
  -18.3516  -27.1069   23.4324 C   0  0  0  0  0  0  0  0  0  0  0  0
  -19.3644  -28.4529   21.7005 C   0  0  0  0  0  0  0  0  0  0  0  0
  -28.0248  -12.5787   18.5652 C   0  0  0  0  0  0  0  0  0  0  0  0
  -25.2483  -17.0054   22.0956 C   0  0  0  0  0  0  0  0  0  0  0  0
  -23.3885  -18.4909   21.1780 C   0  0  0  0  0  0  0  0  0  0  0  0
  -27.7208  -19.8016   19.0401 C   0  0  0  0  0  0  0  0  0  0  0  0
  -26.9416  -26.3289   18.0599 C   0  0  0  0  0  0  0  0  0  0  0  0
  -27.2513  -21.0633   19.4526 C   0  0  0  0  0  0  0  0  0  0  0  0
  -27.0777  -27.2650   19.0949 C   0  0  0  0  0  0  0  0  0  0  0  0
  -18.2983  -28.1959   22.5625 C   0  0  0  0  0  0  0  0  0  0  0  0
  -20.5373  -26.5318   22.5785 C   0  0  0  0  0  0  0  0  0  0  0  0
  -26.8951  -14.7536   22.0788 C   0  0  0  0  0  0  0  0  0  0  0  0
  -24.7398  -27.8774   18.8318 C   0  0  0  0  0  0  0  0  0  0  0  0
  -28.2659  -13.2813   20.8641 C   0  0  0  0  0  0  0  0  0  0  0  0
  -19.4711  -26.2748   23.4404 C   0  0  0  0  0  0  0  0  0  0  0  0
  -20.4840  -27.6208   21.7085 C   0  0  0  0  0  0  0  0  0  0  0  0
  -29.4128  -12.5312   18.4342 C   0  0  0  0  0  0  0  0  0  0  0  0
  -27.4514  -12.9537   19.7801 C   0  0  0  0  0  0  0  0  0  0  0  0
  -24.3977  -18.1683   22.1050 C   0  0  0  0  0  0  0  0  0  0  0  0
  -22.8794  -19.6852   21.6264 C   0  0  0  0  0  0  0  0  0  0  0  0
  -22.9504  -17.7749   20.0156 C   0  0  0  0  0  0  0  0  0  0  0  0
  -28.8021  -24.4019   19.7713 C   0  0  0  0  0  0  0  0  0  0  0  0
  -30.8437  -26.9205   19.6665 C   0  0  0  0  0  0  0  0  0  0  0  0
  -31.2770  -30.2854   19.2972 C   0  0  0  0  0  0  0  0  0  0  0  0
  -21.0658  -22.9532   25.7707 C   0  0  0  0  0  0  0  0  0  0  0  0
  -29.1092  -19.3215   19.3814 C   0  0  0  0  0  0  0  0  0  0  0  0
  -28.1221  -25.5115   17.6120 C   0  0  0  0  0  0  0  0  0  0  0  0
  -28.3850  -27.4663   19.8153 C   0  0  0  0  0  0  0  0  0  0  0  0
  -30.0573  -20.4440   19.7954 C   0  0  0  0  0  0  0  0  0  0  0  0
  -24.5756  -22.8604   25.1799 C   0  0  0  0  0  0  0  0  0  0  0  0
  -29.3807  -21.3707   20.8005 C   0  0  0  0  0  0  0  0  0  0  0  0
  -24.7593  -21.6548   24.2564 C   0  0  0  0  0  0  0  0  0  0  0  0
  -23.4795  -22.6166   26.2148 C   0  0  0  0  0  0  0  0  0  0  0  0
  -22.3636  -20.9960   24.7309 C   0  0  0  0  0  0  0  0  0  0  0  0
  -28.1436  -22.0391   20.1886 C   0  0  1  0  0  0  0  0  0  0  0  0
  -29.1929  -25.3683   18.6892 C   0  0  1  0  0  0  0  0  0  0  0  0
  -23.4200  -21.2157   23.6345 C   0  0  2  0  0  0  0  0  0  0  0  0
  -17.1014  -29.0856   22.5539 C   0  0  0  0  0  0  0  0  0  0  0  0
  -21.7370  -25.6398   22.5861 C   0  0  0  0  0  0  0  0  0  0  0  0
  -33.0571  -32.0542   19.2980 C   0  0  0  0  0  0  0  0  0  0  0  0
  -30.9925  -26.7660   22.7102 C   0  0  0  0  0  0  0  0  0  0  0  0
  -31.9764  -29.0682   22.7094 C   0  0  0  0  0  0  0  0  0  0  0  0
  -33.1808  -27.1987   21.5794 C   0  0  0  0  0  0  0  0  0  0  0  0
  -30.6813  -31.0501   16.5009 C   0  0  0  0  0  0  0  0  0  0  0  0
  -18.6552  -23.1660   25.2202 C   0  0  0  0  0  0  0  0  0  0  0  0
  -18.4812  -24.2341   24.1552 C   0  0  0  0  0  0  0  0  0  0  0  0
  -23.6108  -29.0257   20.5818 C   0  0  0  0  0  0  0  0  0  1  0  0
  -22.1579  -29.1531   20.9973 C   0  0  0  0  0  0  0  0  0  0  0  0
  -31.0837  -28.1386   20.5254 C   0  0  1  0  0  0  0  0  0  0  0  0
  -32.2452  -31.0892   18.4481 C   0  0  2  0  0  0  0  0  0  0  0  0
  -31.7831  -27.7879   21.8690 C   0  0  0  0  0  0  0  0  0  0  0  0
  -24.5238  -19.0838   23.0693 N   0  0  0  0  0  0  0  0  0  0  0  0
  -23.5873  -19.9935   22.7507 N   0  0  0  0  0  0  0  0  0  0  0  0
  -29.5083  -26.6390   19.3450 N   0  0  0  0  0  0  0  0  0  0  0  0
  -22.2356  -22.2047   25.5599 N   0  0  0  0  0  0  0  0  0  0  0  0
  -21.8999  -20.4912   21.1646 N   0  0  0  0  0  0  0  0  0  0  0  0
  -23.5814  -16.5641   19.6994 N   0  0  0  0  0  0  0  0  0  0  0  0
  -28.5354  -23.1249   19.3158 N   0  0  0  0  0  0  0  0  0  0  0  0
  -31.8232  -29.0837   19.6957 N   0  0  0  0  0  0  0  0  0  0  0  0
  -19.9327  -22.4980   25.1077 N   0  0  0  0  0  0  0  0  0  0  0  0
  -31.5043  -31.8758   17.4218 N   0  3  0  0  0  0  0  0  0  0  0  0
  -22.0377  -18.2047   19.2700 O   0  0  0  0  0  0  0  0  0  0  0  0
  -28.7480  -24.7861   20.9338 O   0  0  0  0  0  0  0  0  0  0  0  0
  -31.8062  -26.2478   19.2887 O   0  0  0  0  0  0  0  0  0  0  0  0
  -30.1502  -30.6854   19.5819 O   0  0  0  0  0  0  0  0  0  0  0  0
  -21.0348  -23.9562   26.4919 O   0  0  0  0  0  0  0  0  0  0  0  0
  -27.6981  -13.6547   22.0707 O   0  0  0  0  0  0  0  0  0  0  0  0
  -23.6707  -28.6284   19.2125 O   0  0  0  0  0  0  0  0  0  1  0  0
  -19.5063  -25.2154   24.2965 O   0  0  0  0  0  0  0  0  0  0  0  0
  -21.5214  -27.8891   20.8547 O   0  0  0  0  0  0  0  0  0  0  0  0
  -29.9636  -12.1725   17.2671 F   0  0  0  0  0  0  0  0  0  0  0  0
  -26.1174  -12.9986   19.8996 F   0  0  0  0  0  0  0  0  0  0  0  0
  1  2  1  0  0  0  0
  1  5  2  0  0  0  0
  2  6  2  0  0  0  0
  3  8  2  0  0  0  0
  3 17  1  0  0  0  0
  4  9  1  0  0  0  0
  4 17  2  0  0  0  0
  5 19  1  0  0  0  0
  6 21  1  0  0  0  0
  7 10  2  0  0  0  0
  7 20  1  0  0  0  0
  8 25  1  0  0  0  0
  9 25  2  0  0  0  0
 10 26  1  0  0  0  0
 11 12  2  0  0  0  0
 11 27  1  0  0  0  0
 12 30  1  0  0  0  0
 13 22  1  0  0  0  0
 13 26  2  0  0  0  0
 14 23  1  0  0  0  0
 14 28  2  0  0  0  0
 15 23  2  0  0  0  0
 15 29  1  0  0  0  0
 16 30  2  0  0  0  0
 16 31  1  0  0  0  0
 17 32  1  0  0  0  0
 18 32  1  0  0  0  0
 18 33  2  0  0  0  0
 18 34  1  0  0  0  0
 19 21  2  0  0  0  0
 19 39  1  0  0  0  0
 20 22  2  0  0  0  0
 20 40  1  0  0  0  0
 21 48  1  0  0  0  0
 22 41  1  0  0  0  0
 23 51  1  0  0  0  0
 24 28  1  0  0  0  0
 24 29  2  0  0  0  0
 24 52  1  0  0  0  0
 25 80  1  0  0  0  0
 26 81  1  0  0  0  0
 27 31  2  0  0  0  0
 27 80  1  0  0  0  0
 28 82  1  0  0  0  0
 29 83  1  0  0  0  0
 30 84  1  0  0  0  0
 31 85  1  0  0  0  0
 32 65  2  0  0  0  0
 33 66  1  0  0  0  0
 33 69  1  0  0  0  0
 34 70  1  0  0  0  0
 34 75  2  0  0  0  0
 35 49  1  0  0  0  0
 35 71  1  0  0  0  0
 35 76  2  0  0  0  0
 36 62  1  0  0  0  0
 36 67  1  0  0  0  0
 36 77  2  0  0  0  0
 37 63  1  0  0  0  0
 37 72  1  0  0  0  0
 37 78  2  0  0  0  0
 38 68  1  0  0  0  0
 38 73  1  0  0  0  0
 38 79  2  0  0  0  0
 39 42  1  0  0  0  0
 40 49  1  0  0  0  0
 41 67  1  0  0  0  0
 42 44  1  0  0  0  0
 43 45  1  0  0  0  0
 43 46  1  0  0  0  0
 44 48  1  0  0  0  0
 45 50  1  0  0  0  0
 46 68  1  0  0  0  0
 47 50  1  0  0  0  0
 47 68  1  0  0  0  0
 48 71  1  0  0  0  0
 49 67  1  0  0  0  0
 50 66  1  0  0  0  0
 53 63  1  0  0  0  0
 54 64  1  0  0  0  0
 55 64  1  0  0  0  0
 56 64  1  0  0  0  0
 57 74  1  0  0  0  0
 58 59  1  0  0  0  0
 58 73  1  0  0  0  0
 59 82  1  0  0  0  0
 60 61  1  0  0  0  0
 60 81  1  0  0  0  0
 61 83  1  0  0  0  0
 62 64  1  0  0  0  0
 62 72  1  0  0  0  0
 63 74  1  0  0  0  0
 65 66  1  0  0  0  0
M  CHG  1  74   1
M  ISO  4  38 100  60 101  73 100  81 101
M  END
> <Batch ID>
0144

> <Smiles>
CNC(C)C(=O)NC(C(=O)N1Cc2cc([101O:1][101CH2:1]COc3cc(C)cc(OCC[100NH:0][100C:0](=O)N4CCCC(n5nc(-c6ccc(Oc7ccc(F)cc7F)cc6)c(C(N)=O)c5N)C4)c3C)ccc2CC1C(=O)NC1CCCc2ccccc21)C(C)(C)C

> <Shape>
0.218

> <Color>
0.038

> <Negative vol penalty>
0.000

$$$$

  -OEChem-04052321263D

 85 93  0     1  0  0  0  0  0999 V2000
  -29.0101  -35.9657   18.1455 C   0  0  0  0  0  0  0  0  0  0  0  0
  -29.3306  -34.7354   17.5806 C   0  0  0  0  0  0  0  0  0  0  0  0
  -22.9245   -9.9337   20.2509 C   0  0  0  0  0  0  0  0  0  0  0  0
  -24.3470   -9.1609   22.0442 C   0  0  0  0  0  0  0  0  0  0  0  0
  -28.5617  -36.0304   19.4641 C   0  0  0  0  0  0  0  0  0  0  0  0
  -29.2039  -33.5692   18.3344 C   0  0  0  0  0  0  0  0  0  0  0  0
  -27.5894  -26.6241   17.6450 C   0  0  0  0  0  0  0  0  0  0  0  0
  -22.2403   -8.7184   20.2697 C   0  0  0  0  0  0  0  0  0  0  0  0
  -23.6628   -7.9454   22.0631 C   0  0  0  0  0  0  0  0  0  0  0  0
  -28.0953  -25.3641   17.9617 C   0  0  0  0  0  0  0  0  0  0  0  0
  -20.7392   -6.7531   23.2678 C   0  0  0  0  0  0  0  0  0  0  0  0
  -20.3744   -6.2358   24.5107 C   0  0  0  0  0  0  0  0  0  0  0  0
  -27.2355  -25.5892   20.2043 C   0  0  0  0  0  0  0  0  0  0  0  0
  -28.8455  -20.4330   18.6561 C   0  0  0  0  0  0  0  0  0  0  0  0
  -31.0135  -20.2221   20.3990 C   0  0  0  0  0  0  0  0  0  0  0  0
  -21.6913   -4.2578   24.0740 C   0  0  0  0  0  0  0  0  0  0  0  0
  -23.9778  -10.1550   21.1381 C   0  0  0  0  0  0  0  0  0  0  0  0
  -24.3819  -12.5685   21.8589 C   0  0  0  0  0  0  0  0  0  0  0  0
  -28.4202  -34.8634   20.2313 C   0  0  0  0  0  0  0  0  0  0  0  0
  -26.9111  -27.3819   18.6104 C   0  0  0  0  0  0  0  0  0  0  0  0
  -28.7544  -33.6185   19.6649 C   0  0  0  0  0  0  0  0  0  0  0  0
  -26.7197  -26.8574   19.8966 C   0  0  0  0  0  0  0  0  0  0  0  0
  -29.5390  -21.5779   19.0482 C   0  0  0  0  0  0  0  0  0  0  0  0
  -29.2359  -19.1826   19.1356 C   0  0  0  0  0  0  0  0  0  0  0  0
  -30.6231  -21.4725   19.9196 C   0  0  0  0  0  0  0  0  0  0  0  0
  -22.6095   -7.7242   21.1758 C   0  0  0  0  0  0  0  0  0  0  0  0
  -27.9209  -24.8477   19.2424 C   0  0  0  0  0  0  0  0  0  0  0  0
  -21.5801   -6.0228   22.4279 C   0  0  0  0  0  0  0  0  0  0  0  0
  -30.3199  -19.0772   20.0070 C   0  0  0  0  0  0  0  0  0  0  0  0
  -20.8505   -4.9881   24.9138 C   0  0  0  0  0  0  0  0  0  0  0  0
  -22.0561   -4.7752   22.8310 C   0  0  0  0  0  0  0  0  0  0  0  0
  -24.6853  -11.4101   21.1187 C   0  0  0  0  0  0  0  0  0  0  0  0
  -25.3443  -13.4752   21.4874 C   0  0  0  0  0  0  0  0  0  0  0  0
  -23.3246  -12.8038   22.7984 C   0  0  0  0  0  0  0  0  0  0  0  0
  -27.4009  -30.1970   20.0030 C   0  0  0  0  0  0  0  0  0  0  0  0
  -24.4833  -29.6246   21.3000 C   0  0  0  0  0  0  0  0  0  0  0  0
  -22.1165  -27.3424   22.2147 C   0  0  0  0  0  0  0  0  0  0  0  0
  -30.6648  -14.7477   20.3839 C   0  0  0  0  0  0  0  0  0  0  0  0
  -27.9769  -34.9881   21.6675 C   0  0  0  0  0  0  0  0  0  0  0  0
  -26.3481  -28.7281   18.2452 C   0  0  0  0  0  0  0  0  0  0  0  0
  -25.9811  -27.6224   20.9632 C   0  0  0  0  0  0  0  0  0  0  0  0
  -27.5131  -33.6684   22.2786 C   0  0  0  0  0  0  0  0  0  0  0  0
  -28.7458  -13.3192   17.7469 C   0  0  0  0  0  0  0  0  0  0  0  0
  -28.5030  -32.5536   21.9559 C   0  0  0  0  0  0  0  0  0  0  0  0
  -27.4970  -12.7856   18.4509 C   0  0  0  0  0  0  0  0  0  0  0  0
  -29.9946  -13.1536   18.6102 C   0  0  0  0  0  0  0  0  0  0  0  0
  -28.6417  -13.1915   20.6698 C   0  0  0  0  0  0  0  0  0  0  0  0
  -28.6065  -32.3287   20.4425 C   0  0  1  0  0  0  0  0  0  0  0  0
  -26.1221  -29.6294   19.4551 C   0  0  1  0  0  0  0  0  0  0  0  0
  -27.3480  -13.3875   19.8611 C   0  0  2  0  0  0  0  0  0  0  0  0
  -31.3812  -22.6839   20.3535 C   0  0  0  0  0  0  0  0  0  0  0  0
  -28.5650  -17.7339   17.1850 C   0  0  0  0  0  0  0  0  0  0  0  0
  -27.0091  -18.0013   19.1504 C   0  0  0  0  0  0  0  0  0  0  0  0
  -19.8531  -27.1730   23.2850 C   0  0  0  0  0  0  0  0  0  0  0  0
  -25.7440  -30.1061   24.0366 C   0  0  0  0  0  0  0  0  0  0  0  0
  -23.7429  -29.0154   25.0730 C   0  0  0  0  0  0  0  0  0  0  0  0
  -23.4717  -31.1088   23.7438 C   0  0  0  0  0  0  0  0  0  0  0  0
  -20.9314  -26.1320   19.7879 C   0  0  0  0  0  0  0  0  0  0  0  0
  -29.1002  -22.9124   18.5211 C   0  0  0  0  0  0  0  0  0  1  0  0
  -31.2030  -16.2999   22.2440 C   0  0  0  0  0  0  0  0  0  0  0  0
  -30.6862  -17.6855   21.9003 C   0  0  0  0  0  0  0  0  0  0  0  0
  -28.4826  -17.9675   18.7047 C   0  0  0  0  0  0  0  0  0  0  0  0
  -23.9845  -28.9402   22.5497 C   0  0  1  0  0  0  0  0  0  0  0  0
  -20.6181  -27.2946   21.9763 C   0  0  2  0  0  0  0  0  0  0  0  0
  -24.2514  -29.7788   23.8314 C   0  0  0  0  0  0  0  0  0  0  0  0
  -25.7566  -11.5642   20.3361 N   0  0  0  0  0  0  0  0  0  0  0  0
  -26.1347  -12.8301   20.5823 N   0  0  0  0  0  0  0  0  0  0  0  0
  -25.4548  -28.9367   20.5592 N   0  0  0  0  0  0  0  0  0  0  0  0
  -29.7880  -13.7470   19.9335 N   0  0  0  0  0  0  0  0  0  0  0  0
  -25.5830  -14.7535   21.8499 N   0  0  0  0  0  0  0  0  0  0  0  0
  -22.4233  -11.7639   23.0642 N   0  0  0  0  0  0  0  0  0  0  0  0
  -27.4662  -31.5767   19.9642 N   0  0  0  0  0  0  0  0  0  0  0  0
  -22.5765  -28.6384   22.3155 N   0  0  0  0  0  0  0  0  0  0  0  0
  -30.3941  -15.2610   21.6464 N   0  0  0  0  0  0  0  0  0  0  0  0
  -20.2673  -26.1287   21.1168 N   0  3  0  0  0  0  0  0  0  0  0  0
  -23.1736  -13.9088   23.3724 O   0  0  0  0  0  0  0  0  0  0  0  0
  -28.2638  -29.4393   20.4307 O   0  0  0  0  0  0  0  0  0  0  0  0
  -24.0226  -30.7257   20.9887 O   0  0  0  0  0  0  0  0  0  0  0  0
  -22.8091  -26.3312   22.3063 O   0  0  0  0  0  0  0  0  0  0  0  0
  -31.6151  -15.1573   19.7086 O   0  0  0  0  0  0  0  0  0  0  0  0
  -21.9420   -6.5382   21.1946 O   0  0  0  0  0  0  0  0  0  0  0  0
  -28.4143  -23.6184   19.5543 O   0  0  0  0  0  0  0  0  0  1  0  0
  -30.7135  -17.8637   20.4856 O   0  0  0  0  0  0  0  0  0  0  0  0
  -20.5013   -4.4921   26.1081 F   0  0  0  0  0  0  0  0  0  0  0  0
  -22.8651   -4.0695   22.0290 F   0  0  0  0  0  0  0  0  0  0  0  0
  1  2  1  0  0  0  0
  1  5  2  0  0  0  0
  2  6  2  0  0  0  0
  3  8  2  0  0  0  0
  3 17  1  0  0  0  0
  4  9  1  0  0  0  0
  4 17  2  0  0  0  0
  5 19  1  0  0  0  0
  6 21  1  0  0  0  0
  7 10  2  0  0  0  0
  7 20  1  0  0  0  0
  8 26  1  0  0  0  0
  9 26  2  0  0  0  0
 10 27  1  0  0  0  0
 11 12  2  0  0  0  0
 11 28  1  0  0  0  0
 12 30  1  0  0  0  0
 13 22  1  0  0  0  0
 13 27  2  0  0  0  0
 14 23  1  0  0  0  0
 14 24  2  0  0  0  0
 15 25  1  0  0  0  0
 15 29  2  0  0  0  0
 16 30  2  0  0  0  0
 16 31  1  0  0  0  0
 17 32  1  0  0  0  0
 18 32  1  0  0  0  0
 18 33  2  0  0  0  0
 18 34  1  0  0  0  0
 19 21  2  0  0  0  0
 19 39  1  0  0  0  0
 20 22  2  0  0  0  0
 20 40  1  0  0  0  0
 21 48  1  0  0  0  0
 22 41  1  0  0  0  0
 23 25  2  0  0  0  0
 23 59  1  0  0  0  0
 24 29  1  0  0  0  0
 24 62  1  0  0  0  0
 25 51  1  0  0  0  0
 26 81  1  0  0  0  0
 27 82  1  0  0  0  0
 28 31  2  0  0  0  0
 28 81  1  0  0  0  0
 29 83  1  0  0  0  0
 30 84  1  0  0  0  0
 31 85  1  0  0  0  0
 32 66  2  0  0  0  0
 33 67  1  0  0  0  0
 33 70  1  0  0  0  0
 34 71  1  0  0  0  0
 34 76  2  0  0  0  0
 35 49  1  0  0  0  0
 35 72  1  0  0  0  0
 35 77  2  0  0  0  0
 36 63  1  0  0  0  0
 36 68  1  0  0  0  0
 36 78  2  0  0  0  0
 37 64  1  0  0  0  0
 37 73  1  0  0  0  0
 37 79  2  0  0  0  0
 38 69  1  0  0  0  0
 38 74  1  0  0  0  0
 38 80  2  0  0  0  0
 39 42  1  0  0  0  0
 40 49  1  0  0  0  0
 41 68  1  0  0  0  0
 42 44  1  0  0  0  0
 43 45  1  0  0  0  0
 43 46  1  0  0  0  0
 44 48  1  0  0  0  0
 45 50  1  0  0  0  0
 46 69  1  0  0  0  0
 47 50  1  0  0  0  0
 47 69  1  0  0  0  0
 48 72  1  0  0  0  0
 49 68  1  0  0  0  0
 50 67  1  0  0  0  0
 52 62  1  0  0  0  0
 53 62  1  0  0  0  0
 54 64  1  0  0  0  0
 55 65  1  0  0  0  0
 56 65  1  0  0  0  0
 57 65  1  0  0  0  0
 58 75  1  0  0  0  0
 59 82  1  0  0  0  0
 60 61  1  0  0  0  0
 60 74  1  0  0  0  0
 61 83  1  0  0  0  0
 63 65  1  0  0  0  0
 63 73  1  0  0  0  0
 64 75  1  0  0  0  0
 66 67  1  0  0  0  0
M  CHG  1  75   1
M  ISO  4  38 100  59 101  74 100  82 101
M  END
> <Batch ID>
0144

> <Smiles>
CNC(C)C(=O)NC(C(=O)N1Cc2cc([101O:1][101CH2:1]c3cc(C(C)C)c(OCC[100NH:0][100C:0](=O)N4CCCC(n5nc(-c6ccc(Oc7ccc(F)cc7F)cc6)c(C(N)=O)c5N)C4)cc3C)ccc2CC1C(=O)NC1CCCc2ccccc21)C(C)(C)C

> <Shape>
0.348

> <Color>
0.155

> <Negative vol penalty>
0.000

$$$$

  -OEChem-04052321263D

 90 99  0     1  0  0  0  0  0999 V2000
  -33.9188  -28.7340   21.0082 C   0  0  0  0  0  0  0  0  0  0  0  0
  -32.9662  -27.7345   21.1781 C   0  0  0  0  0  0  0  0  0  0  0  0
  -23.6767   -9.6597   20.3967 C   0  0  0  0  0  0  0  0  0  0  0  0
  -24.2525  -10.1742   22.6860 C   0  0  0  0  0  0  0  0  0  0  0  0
  -33.6087  -30.0536   21.3345 C   0  0  0  0  0  0  0  0  0  0  0  0
  -31.7033  -28.0538   21.6756 C   0  0  0  0  0  0  0  0  0  0  0  0
  -27.9720  -25.8118   19.0881 C   0  0  0  0  0  0  0  0  0  0  0  0
  -23.1529   -8.4329   20.8042 C   0  0  0  0  0  0  0  0  0  0  0  0
  -23.7287   -8.9474   23.0935 C   0  0  0  0  0  0  0  0  0  0  0  0
  -27.7298  -24.4655   19.3576 C   0  0  0  0  0  0  0  0  0  0  0  0
  -20.6799   -7.6169   23.6890 C   0  0  0  0  0  0  0  0  0  0  0  0
  -19.8619   -7.6063   24.8188 C   0  0  0  0  0  0  0  0  0  0  0  0
  -25.8761  -25.0880   20.7702 C   0  0  0  0  0  0  0  0  0  0  0  0
  -30.3510  -18.6585   23.1771 C   0  0  0  0  0  0  0  0  0  0  0  0
  -27.5794  -18.8169   22.9019 C   0  0  0  0  0  0  0  0  0  0  0  0
  -21.3967   -6.0970   25.9159 C   0  0  0  0  0  0  0  0  0  0  0  0
  -24.2266  -10.5304   21.3376 C   0  0  0  0  0  0  0  0  0  0  0  0
  -24.0830  -13.0231   20.8144 C   0  0  0  0  0  0  0  0  0  0  0  0
  -32.3382  -30.3908   21.8272 C   0  0  0  0  0  0  0  0  0  0  0  0
  -27.1735  -26.8085   19.6672 C   0  0  0  0  0  0  0  0  0  0  0  0
  -31.3764  -29.3789   22.0102 C   0  0  0  0  0  0  0  0  0  0  0  0
  -26.1086  -26.4461   20.5044 C   0  0  0  0  0  0  0  0  0  0  0  0
  -29.7558  -19.8605   22.7944 C   0  0  0  0  0  0  0  0  0  0  0  0
  -28.1747  -17.6149   23.2845 C   0  0  0  0  0  0  0  0  0  0  0  0
  -23.1789   -8.0767   22.1525 C   0  0  0  0  0  0  0  0  0  0  0  0
  -26.6836  -24.1036   20.2011 C   0  0  0  0  0  0  0  0  0  0  0  0
  -21.8563   -6.8675   23.6726 C   0  0  0  0  0  0  0  0  0  0  0  0
  -29.5605  -17.5357   23.4221 C   0  0  0  0  0  0  0  0  0  0  0  0
  -28.3700  -19.9397   22.6568 C   0  0  0  0  0  0  0  0  0  0  0  0
  -20.2203   -6.8464   25.9322 C   0  0  0  0  0  0  0  0  0  0  0  0
  -22.2147   -6.1076   24.7861 C   0  0  0  0  0  0  0  0  0  0  0  0
  -24.7683  -11.7977   20.9172 C   0  0  0  0  0  0  0  0  0  0  0  0
  -25.0336  -13.9124   20.3763 C   0  0  0  0  0  0  0  0  0  0  0  0
  -22.7099  -13.3300   21.0903 C   0  0  0  0  0  0  0  0  0  0  0  0
  -27.7016  -29.2339   21.6526 C   0  0  0  0  0  0  0  0  0  0  0  0
  -24.5956  -29.9211   21.0178 C   0  0  0  0  0  0  0  0  0  0  0  0
  -21.5294  -28.8097   20.0130 C   0  0  0  0  0  0  0  0  0  0  0  0
  -31.0050  -14.0351   20.7992 C   0  0  0  0  0  0  0  0  0  0  0  0
  -32.0651  -31.8236   22.2107 C   0  0  0  0  0  0  0  0  0  0  0  0
  -27.4310  -28.2550   19.3451 C   0  0  0  0  0  0  0  0  0  0  0  0
  -25.2095  -27.4767   21.1351 C   0  0  0  0  0  0  0  0  0  0  0  0
  -30.5805  -32.1367   22.3790 C   0  0  0  0  0  0  0  0  0  0  0  0
  -31.8175  -22.3144   21.1576 C   0  0  0  0  0  0  0  0  0  0  0  0
  -29.0681  -14.1200   17.8129 C   0  0  0  0  0  0  0  0  0  0  0  0
  -32.0341  -20.9295   21.7964 C   0  0  0  0  0  0  0  0  0  0  0  0
  -30.3061  -22.0742   21.3370 C   0  0  0  0  0  0  0  0  0  0  0  0
  -29.8983  -31.0567   23.2127 C   0  0  0  0  0  0  0  0  0  0  0  0
  -27.6847  -13.6450   18.2606 C   0  0  0  0  0  0  0  0  0  0  0  0
  -30.1838  -13.3864   18.5540 C   0  0  0  0  0  0  0  0  0  0  0  0
  -28.6986  -12.9532   20.4724 C   0  0  0  0  0  0  0  0  0  0  0  0
  -30.6677  -21.1261   22.5201 C   0  0  0  0  0  0  0  0  0  0  0  0
  -29.9873  -29.6896   22.5239 C   0  0  1  0  0  0  0  0  0  0  0  0
  -26.8757  -29.2095   20.3977 C   0  0  1  0  0  0  0  0  0  0  0  0
  -27.5404  -13.7039   19.7933 C   0  0  2  0  0  0  0  0  0  0  0  0
  -19.1774  -29.5962   19.6299 C   0  0  0  0  0  0  0  0  0  0  0  0
  -24.1151  -29.9439   24.0309 C   0  0  0  0  0  0  0  0  0  0  0  0
  -21.6596  -29.7808   23.5702 C   0  0  0  0  0  0  0  0  0  0  0  0
  -22.9470  -31.7636   22.7744 C   0  0  0  0  0  0  0  0  0  0  0  0
  -21.6360  -28.0990   17.1420 C   0  0  0  0  0  0  0  0  0  0  0  0
  -27.3132  -16.4229   23.5424 C   0  0  0  0  0  0  0  0  0  0  0  0
  -31.6817  -14.6423   23.1085 C   0  0  0  0  0  0  0  0  0  0  0  0
  -26.5645  -16.4694   24.8744 C   0  0  0  0  0  0  0  0  0  0  0  0
  -31.4779  -16.1332   23.3102 C   0  0  0  0  0  0  0  0  0  0  0  0
  -25.8796  -22.4768   21.7384 C   0  0  0  0  0  0  0  0  0  1  0  0
  -26.3537  -21.1013   22.1659 C   0  0  0  0  0  0  0  0  0  0  0  0
  -23.2692  -29.5343   21.6261 C   0  0  1  0  0  0  0  0  0  0  0  0
  -20.5411  -29.3590   19.0001 C   0  0  2  0  0  0  0  0  0  0  0  0
  -23.0157  -30.2361   22.9902 C   0  0  0  0  0  0  0  0  0  0  0  0
  -26.0549  -11.8958   20.5721 N   0  0  0  0  0  0  0  0  0  0  0  0
  -26.1856  -13.1935   20.2480 N   0  0  0  0  0  0  0  0  0  0  0  0
  -25.5057  -28.8781   20.7946 N   0  0  0  0  0  0  0  0  0  0  0  0
  -29.9889  -13.4818   20.0027 N   0  0  0  0  0  0  0  0  0  0  0  0
  -24.9881  -15.2313   20.0920 N   0  0  0  0  0  0  0  0  0  0  0  0
  -21.8705  -12.2985   21.5325 N   0  0  0  0  0  0  0  0  0  0  0  0
  -29.0190  -29.5998   21.4520 N   0  0  0  0  0  0  0  0  0  0  0  0
  -22.2580  -29.8150   20.6127 N   0  0  0  0  0  0  0  0  0  0  0  0
  -30.7367  -14.0939   22.1613 N   0  0  0  0  0  0  0  0  0  0  0  0
  -25.6936  -15.2766   25.0169 N   0  3  0  0  0  0  0  0  0  0  0  0
  -20.3761  -28.4048   17.8673 N   0  3  0  0  0  0  0  0  0  0  0  0
  -22.2374  -14.4813   20.9332 O   0  0  0  0  0  0  0  0  0  0  0  0
  -27.1818  -28.9439   22.7238 O   0  0  0  0  0  0  0  0  0  0  0  0
  -24.8134  -31.1040   20.7440 O   0  0  0  0  0  0  0  0  0  0  0  0
  -21.6410  -27.6092   20.2513 O   0  0  0  0  0  0  0  0  0  0  0  0
  -32.0700  -14.4510   20.3306 O   0  0  0  0  0  0  0  0  0  0  0  0
  -22.6677   -6.8797   22.5505 O   0  0  0  0  0  0  0  0  0  0  0  0
  -26.4455  -22.7903   20.4664 O   0  0  0  0  0  0  0  0  0  1  0  0
  -30.1578  -16.3695   23.7954 O   0  0  0  0  0  0  0  0  0  0  0  0
  -27.7713  -21.1135   22.2812 O   0  0  0  0  0  0  0  0  0  0  0  0
  -19.4355   -6.8375   27.0176 F   0  0  0  0  0  0  0  0  0  0  0  0
  -23.3442   -5.3866   24.7767 F   0  0  0  0  0  0  0  0  0  0  0  0
  1  2  1  0  0  0  0
  1  5  2  0  0  0  0
  2  6  2  0  0  0  0
  3  8  2  0  0  0  0
  3 17  1  0  0  0  0
  4  9  1  0  0  0  0
  4 17  2  0  0  0  0
  5 19  1  0  0  0  0
  6 21  1  0  0  0  0
  7 10  2  0  0  0  0
  7 20  1  0  0  0  0
  8 25  1  0  0  0  0
  9 25  2  0  0  0  0
 10 26  1  0  0  0  0
 11 12  2  0  0  0  0
 11 27  1  0  0  0  0
 12 30  1  0  0  0  0
 13 22  1  0  0  0  0
 13 26  2  0  0  0  0
 14 23  1  0  0  0  0
 14 28  2  0  0  0  0
 15 24  2  0  0  0  0
 15 29  1  0  0  0  0
 16 30  2  0  0  0  0
 16 31  1  0  0  0  0
 17 32  1  0  0  0  0
 18 32  1  0  0  0  0
 18 33  2  0  0  0  0
 18 34  1  0  0  0  0
 19 21  2  0  0  0  0
 19 39  1  0  0  0  0
 20 22  2  0  0  0  0
 20 40  1  0  0  0  0
 21 52  1  0  0  0  0
 22 41  1  0  0  0  0
 23 29  2  0  0  0  0
 23 51  1  0  0  0  0
 24 28  1  0  0  0  0
 24 60  1  0  0  0  0
 25 85  1  0  0  0  0
 26 86  1  0  0  0  0
 27 31  2  0  0  0  0
 27 85  1  0  0  0  0
 28 87  1  0  0  0  0
 29 88  1  0  0  0  0
 30 89  1  0  0  0  0
 31 90  1  0  0  0  0
 32 69  2  0  0  0  0
 33 70  1  0  0  0  0
 33 73  1  0  0  0  0
 34 74  1  0  0  0  0
 34 80  2  0  0  0  0
 35 53  1  0  0  0  0
 35 75  1  0  0  0  0
 35 81  2  0  0  0  0
 36 66  1  0  0  0  0
 36 71  1  0  0  0  0
 36 82  2  0  0  0  0
 37 67  1  0  0  0  0
 37 76  1  0  0  0  0
 37 83  2  0  0  0  0
 38 72  1  0  0  0  0
 38 77  1  0  0  0  0
 38 84  2  0  0  0  0
 39 42  1  0  0  0  0
 40 53  1  0  0  0  0
 41 71  1  0  0  0  0
 42 47  1  0  0  0  0
 43 45  1  0  0  0  0
 43 46  1  0  0  0  0
 44 48  1  0  0  0  0
 44 49  1  0  0  0  0
 45 51  1  0  0  0  0
 46 51  1  0  0  0  0
 47 52  1  0  0  0  0
 48 54  1  0  0  0  0
 49 72  1  0  0  0  0
 50 54  1  0  0  0  0
 50 72  1  0  0  0  0
 52 75  1  0  0  0  0
 53 71  1  0  0  0  0
 54 70  1  0  0  0  0
 55 67  1  0  0  0  0
 56 68  1  0  0  0  0
 57 68  1  0  0  0  0
 58 68  1  0  0  0  0
 59 79  1  0  0  0  0
 60 62  1  0  0  0  0
 61 63  1  0  0  0  0
 61 77  1  0  0  0  0
 62 78  1  0  0  0  0
 63 87  1  0  0  0  0
 64 65  1  0  0  0  0
 64 86  1  0  0  0  0
 65 88  1  0  0  0  0
 66 68  1  0  0  0  0
 66 76  1  0  0  0  0
 67 79  1  0  0  0  0
 69 70  1  0  0  0  0
M  CHG  2  78   1  79   1
M  ISO  4  38 100  64 101  77 100  86 101
M  END
> <Batch ID>
0144

> <Smiles>
CNC(C)C(=O)NC(C(=O)N1Cc2cc([101O:1][101CH2:1]COc3cc(CCN)c(OCC[100NH:0][100C:0](=O)N4CCCC(n5nc(-c6ccc(Oc7ccc(F)cc7F)cc6)c(C(N)=O)c5N)C4)cc3C3CCC3)ccc2CC1C(=O)NC1CCCc2ccccc21)C(C)(C)C

> <Shape>
0.260

> <Color>
0.148

> <Negative vol penalty>
0.000

$$$$

  -OEChem-04052321263D

 90 99  0     1  0  0  0  0  0999 V2000
  -22.5195  -14.8591   18.5100 C   0  0  0  0  0  0  0  0  0  0  0  0
  -23.1666  -16.0157   18.9332 C   0  0  0  0  0  0  0  0  0  0  0  0
  -18.7062  -21.3501   19.7427 C   0  0  0  0  0  0  0  0  0  0  0  0
  -18.6482  -22.9411   17.9254 C   0  0  0  0  0  0  0  0  0  0  0  0
  -23.0461  -13.6092   18.8330 C   0  0  0  0  0  0  0  0  0  0  0  0
  -24.3401  -15.9230   19.6805 C   0  0  0  0  0  0  0  0  0  0  0  0
  -27.9164  -19.1353   18.0880 C   0  0  0  0  0  0  0  0  0  0  0  0
  -17.9292  -20.4664   18.9938 C   0  0  0  0  0  0  0  0  0  0  0  0
  -17.8713  -22.0573   17.1765 C   0  0  0  0  0  0  0  0  0  0  0  0
  -27.7881  -20.4705   18.4685 C   0  0  0  0  0  0  0  0  0  0  0  0
  -18.3923  -18.2725   16.4629 C   0  0  0  0  0  0  0  0  0  0  0  0
  -18.7784  -16.9325   16.4364 C   0  0  0  0  0  0  0  0  0  0  0  0
  -29.4062  -20.1197   20.2229 C   0  0  0  0  0  0  0  0  0  0  0  0
  -24.7273  -28.1386   19.2888 C   0  0  0  0  0  0  0  0  0  0  0  0
  -26.1687  -28.9742   21.0383 C   0  0  0  0  0  0  0  0  0  0  0  0
  -16.6518  -16.3009   17.3934 C   0  0  0  0  0  0  0  0  0  0  0  0
  -19.0656  -22.5875   19.2085 C   0  0  0  0  0  0  0  0  0  0  0  0
  -21.2727  -23.5846   20.0099 C   0  0  0  0  0  0  0  0  0  0  0  0
  -24.2319  -13.5012   19.5764 C   0  0  0  0  0  0  0  0  0  0  0  0
  -28.7839  -18.2781   18.7802 C   0  0  0  0  0  0  0  0  0  0  0  0
  -24.8824  -14.6704   20.0149 C   0  0  0  0  0  0  0  0  0  0  0  0
  -29.5456  -18.7747   19.8476 C   0  0  0  0  0  0  0  0  0  0  0  0
  -25.6528  -27.1341   19.0060 C   0  0  0  0  0  0  0  0  0  0  0  0
  -26.8363  -27.0496   19.7394 C   0  0  0  0  0  0  0  0  0  0  0  0
  -17.5118  -20.8199   17.7107 C   0  0  0  0  0  0  0  0  0  0  0  0
  -28.5309  -20.9621   19.5379 C   0  0  0  0  0  0  0  0  0  0  0  0
  -17.1360  -18.6268   16.9547 C   0  0  0  0  0  0  0  0  0  0  0  0
  -24.9853  -29.0587   20.3049 C   0  0  0  0  0  0  0  0  0  0  0  0
  -17.9081  -15.9466   16.9016 C   0  0  0  0  0  0  0  0  0  0  0  0
  -16.2657  -17.6410   17.4199 C   0  0  0  0  0  0  0  0  0  0  0  0
  -27.0943  -27.9697   20.7556 C   0  0  0  0  0  0  0  0  0  0  0  0
  -19.8677  -23.5012   19.9819 C   0  0  0  0  0  0  0  0  0  0  0  0
  -21.5387  -24.6033   20.8920 C   0  0  0  0  0  0  0  0  0  0  0  0
  -22.2501  -22.8107   19.3017 C   0  0  0  0  0  0  0  0  0  0  0  0
  -28.4231  -15.6179   20.4821 C   0  0  0  0  0  0  0  0  0  0  0  0
  -31.6665  -15.6625   20.5143 C   0  0  0  0  0  0  0  0  0  0  0  0
  -34.5415  -17.4841   20.2633 C   0  0  0  0  0  0  0  0  0  0  0  0
  -20.5139  -29.7202   22.8698 C   0  0  0  0  0  0  0  0  0  0  0  0
  -24.7373  -12.1279   19.9415 C   0  0  0  0  0  0  0  0  0  0  0  0
  -28.9308  -16.8473   18.3404 C   0  0  0  0  0  0  0  0  0  0  0  0
  -30.5060  -17.9007   20.6106 C   0  0  0  0  0  0  0  0  0  0  0  0
  -26.1878  -12.1192   20.4172 C   0  0  0  0  0  0  0  0  0  0  0  0
  -18.4950  -27.0583   24.1007 C   0  0  0  0  0  0  0  0  0  0  0  0
  -25.8885  -26.4266   16.5326 C   0  0  0  0  0  0  0  0  0  0  0  0
  -24.4238  -26.5759   16.8023 C   0  0  0  0  0  0  0  0  0  0  0  0
  -26.4237  -13.2339   21.4314 C   0  0  0  0  0  0  0  0  0  0  0  0
  -18.7833  -25.9052   23.1378 C   0  0  0  0  0  0  0  0  0  0  0  0
  -18.4779  -28.4045   23.3799 C   0  0  0  0  0  0  0  0  0  0  0  0
  -19.9727  -27.5426   21.6202 C   0  0  0  0  0  0  0  0  0  0  0  0
  -25.3511  -26.1619   17.9135 C   0  0  0  0  0  0  0  0  0  0  0  0
  -26.1710  -14.6111   20.8062 C   0  0  1  0  0  0  0  0  0  0  0  0
  -29.4605  -15.9349   19.4424 C   0  0  1  0  0  0  0  0  0  0  0  0
  -20.0555  -26.1703   22.3104 C   0  0  2  0  0  0  0  0  0  0  0  0
  -29.2000  -26.4990   19.0306 C   0  0  0  0  0  0  0  0  0  0  0  0
  -37.0377  -17.2496   20.3700 C   0  0  0  0  0  0  0  0  0  0  0  0
  -26.9187  -23.5021   22.1275 C   0  0  0  0  0  0  0  0  0  0  0  0
  -31.5146  -15.4541   23.5546 C   0  0  0  0  0  0  0  0  0  0  0  0
  -33.9108  -16.1728   23.6539 C   0  0  0  0  0  0  0  0  0  0  0  0
  -33.2944  -14.0487   22.5002 C   0  0  0  0  0  0  0  0  0  0  0  0
  -34.8654  -18.4269   17.4767 C   0  0  0  0  0  0  0  0  0  0  0  0
  -22.5984  -30.9192   22.2562 C   0  0  0  0  0  0  0  0  0  0  0  0
  -24.0216  -30.5039   21.9293 C   0  0  0  0  0  0  0  0  0  0  0  0
  -27.1432  -22.8877   19.6867 C   0  0  0  0  0  0  0  0  0  1  0  0
  -27.8288  -25.9547   19.4230 C   0  0  1  0  0  0  0  0  0  0  0  0
  -32.7186  -16.2596   21.4174 C   0  0  1  0  0  0  0  0  0  0  0  0
  -35.8136  -17.2539   19.4676 C   0  0  2  0  0  0  0  0  0  0  0  0
  -26.9146  -24.0087   20.6943 C   0  0  2  0  0  0  0  0  0  0  0  0
  -32.8401  -15.5000   22.7686 C   0  0  0  0  0  0  0  0  0  0  0  0
  -19.2820  -24.3954   20.7827 N   0  0  0  0  0  0  0  0  0  0  0  0
  -20.3241  -25.0503   21.3223 N   0  0  0  0  0  0  0  0  0  0  0  0
  -30.6097  -16.5074   20.1465 N   0  0  0  0  0  0  0  0  0  0  0  0
  -19.7129  -28.5948   22.6153 N   0  0  0  0  0  0  0  0  0  0  0  0
  -22.6906  -25.1511   21.3339 N   0  0  0  0  0  0  0  0  0  0  0  0
  -21.8046  -21.8033   18.4351 N   0  0  0  0  0  0  0  0  0  0  0  0
  -27.2918  -15.0042   19.9793 N   0  0  0  0  0  0  0  0  0  0  0  0
  -33.9520  -16.2956   20.6391 N   0  0  0  0  0  0  0  0  0  0  0  0
  -21.6699  -29.8210   22.1055 N   0  0  0  0  0  0  0  0  0  0  0  0
  -35.9866  -18.3250   18.4460 N   0  3  0  0  0  0  0  0  0  0  0  0
  -28.0144  -25.0061   20.5504 N   0  3  0  0  0  0  0  0  0  0  0  0
  -23.4823  -22.9957   19.4461 O   0  0  0  0  0  0  0  0  0  0  0  0
  -28.6342  -15.9072   21.6541 O   0  0  0  0  0  0  0  0  0  0  0  0
  -31.7819  -14.4919   20.1429 O   0  0  0  0  0  0  0  0  0  0  0  0
  -34.1156  -18.6061   20.5285 O   0  0  0  0  0  0  0  0  0  0  0  0
  -20.2232  -30.5694   23.7192 O   0  0  0  0  0  0  0  0  0  0  0  0
  -16.7538  -19.9576   16.9796 O   0  0  0  0  0  0  0  0  0  0  0  0
  -28.4072  -22.2647   19.9117 O   0  0  0  0  0  0  0  0  0  1  0  0
  -24.0818  -30.0382   20.5820 O   0  0  0  0  0  0  0  0  0  0  0  0
  -18.2784  -14.6597   16.8747 F   0  0  0  0  0  0  0  0  0  0  0  0
  -15.0570  -17.9751   17.8924 F   0  0  0  0  0  0  0  0  0  0  0  0
  -28.5472  -27.8990   21.6861 Cl  0  0  0  0  0  0  0  0  0  0  0  0
  1  2  1  0  0  0  0
  1  5  2  0  0  0  0
  2  6  2  0  0  0  0
  3  8  2  0  0  0  0
  3 17  1  0  0  0  0
  4  9  1  0  0  0  0
  4 17  2  0  0  0  0
  5 19  1  0  0  0  0
  6 21  1  0  0  0  0
  7 10  2  0  0  0  0
  7 20  1  0  0  0  0
  8 25  1  0  0  0  0
  9 25  2  0  0  0  0
 10 26  1  0  0  0  0
 11 12  2  0  0  0  0
 11 27  1  0  0  0  0
 12 29  1  0  0  0  0
 13 22  1  0  0  0  0
 13 26  2  0  0  0  0
 14 23  1  0  0  0  0
 14 28  2  0  0  0  0
 15 28  1  0  0  0  0
 15 31  2  0  0  0  0
 16 29  2  0  0  0  0
 16 30  1  0  0  0  0
 17 32  1  0  0  0  0
 18 32  1  0  0  0  0
 18 33  2  0  0  0  0
 18 34  1  0  0  0  0
 19 21  2  0  0  0  0
 19 39  1  0  0  0  0
 20 22  2  0  0  0  0
 20 40  1  0  0  0  0
 21 51  1  0  0  0  0
 22 41  1  0  0  0  0
 23 24  2  0  0  0  0
 23 50  1  0  0  0  0
 24 31  1  0  0  0  0
 24 64  1  0  0  0  0
 25 85  1  0  0  0  0
 26 86  1  0  0  0  0
 27 30  2  0  0  0  0
 27 85  1  0  0  0  0
 28 87  1  0  0  0  0
 29 88  1  0  0  0  0
 30 89  1  0  0  0  0
 31 90  1  0  0  0  0
 32 69  2  0  0  0  0
 33 70  1  0  0  0  0
 33 73  1  0  0  0  0
 34 74  1  0  0  0  0
 34 80  2  0  0  0  0
 35 52  1  0  0  0  0
 35 75  1  0  0  0  0
 35 81  2  0  0  0  0
 36 65  1  0  0  0  0
 36 71  1  0  0  0  0
 36 82  2  0  0  0  0
 37 66  1  0  0  0  0
 37 76  1  0  0  0  0
 37 83  2  0  0  0  0
 38 72  1  0  0  0  0
 38 77  1  0  0  0  0
 38 84  2  0  0  0  0
 39 42  1  0  0  0  0
 40 52  1  0  0  0  0
 41 71  1  0  0  0  0
 42 46  1  0  0  0  0
 43 47  1  0  0  0  0
 43 48  1  0  0  0  0
 44 45  1  0  0  0  0
 44 50  1  0  0  0  0
 45 50  1  0  0  0  0
 46 51  1  0  0  0  0
 47 53  1  0  0  0  0
 48 72  1  0  0  0  0
 49 53  1  0  0  0  0
 49 72  1  0  0  0  0
 51 75  1  0  0  0  0
 52 71  1  0  0  0  0
 53 70  1  0  0  0  0
 54 64  1  0  0  0  0
 55 66  1  0  0  0  0
 56 67  1  0  0  0  0
 57 68  1  0  0  0  0
 58 68  1  0  0  0  0
 59 68  1  0  0  0  0
 60 78  1  0  0  0  0
 61 62  1  0  0  0  0
 61 77  1  0  0  0  0
 62 87  1  0  0  0  0
 63 67  1  0  0  0  0
 63 86  1  0  0  0  0
 64 79  1  0  0  0  0
 65 68  1  0  0  0  0
 65 76  1  0  0  0  0
 66 78  1  0  0  0  0
 67 79  1  0  0  0  0
 69 70  1  0  0  0  0
M  CHG  2  78   1  79   1
M  ISO  4  38 100  63 101  77 100  86 101
M  END
> <Batch ID>
0144

> <Smiles>
CNC(C)C(=O)NC(C(=O)N1Cc2cc([101O:1][101CH2:1]C(C)NC(C)c3c(Cl)cc(OCC[100NH:0][100C:0](=O)N4CCCC(n5nc(-c6ccc(Oc7ccc(F)cc7F)cc6)c(C(N)=O)c5N)C4)cc3C3CC3)ccc2CC1C(=O)NC1CCCc2ccccc21)C(C)(C)C

> <Shape>
0.222

> <Color>
0.077

> <Negative vol penalty>
0.000

$$$$

  -OEChem-04052321263D

 86 95  0     1  0  0  0  0  0999 V2000
  -29.7523  -24.6471   17.6215 C   0  0  0  0  0  0  0  0  0  0  0  0
  -28.5050  -24.4562   18.2072 C   0  0  0  0  0  0  0  0  0  0  0  0
  -23.0971  -10.0523   22.2422 C   0  0  0  0  0  0  0  0  0  0  0  0
  -23.9441   -9.4710   20.0555 C   0  0  0  0  0  0  0  0  0  0  0  0
  -30.6675  -25.5236   18.2031 C   0  0  0  0  0  0  0  0  0  0  0  0
  -28.1724  -25.1409   19.3755 C   0  0  0  0  0  0  0  0  0  0  0  0
  -22.6458  -27.2511   20.9597 C   0  0  0  0  0  0  0  0  0  0  0  0
  -22.3483   -8.8757   22.2649 C   0  0  0  0  0  0  0  0  0  0  0  0
  -23.1953   -8.2944   20.0782 C   0  0  0  0  0  0  0  0  0  0  0  0
  -21.6516  -26.7428   21.7945 C   0  0  0  0  0  0  0  0  0  0  0  0
  -22.8887   -5.5901   22.8527 C   0  0  0  0  0  0  0  0  0  0  0  0
  -22.9064   -4.8330   24.0241 C   0  0  0  0  0  0  0  0  0  0  0  0
  -21.6432  -22.0723   23.8106 C   0  0  0  0  0  0  0  0  0  0  0  0
  -22.4879  -28.0987   23.6060 C   0  0  0  0  0  0  0  0  0  0  0  0
  -23.7534  -23.1944   24.1493 C   0  0  0  0  0  0  0  0  0  0  0  0
  -20.5128   -5.0907   24.2268 C   0  0  0  0  0  0  0  0  0  0  0  0
  -23.8950  -10.3500   21.1374 C   0  0  0  0  0  0  0  0  0  0  0  0
  -25.9858  -11.7443   21.5756 C   0  0  0  0  0  0  0  0  0  0  0  0
  -30.3423  -26.2267   19.3738 C   0  0  0  0  0  0  0  0  0  0  0  0
  -23.5768  -28.1804   21.4456 C   0  0  0  0  0  0  0  0  0  0  0  0
  -29.0846  -26.0265   19.9741 C   0  0  0  0  0  0  0  0  0  0  0  0
  -22.2156  -21.2687   22.8145 C   0  0  0  0  0  0  0  0  0  0  0  0
  -23.4914  -28.6192   22.7746 C   0  0  0  0  0  0  0  0  0  0  0  0
  -23.5798  -21.4189   22.5030 C   0  0  0  0  0  0  0  0  0  0  0  0
  -24.3365  -22.3943   23.1673 C   0  0  0  0  0  0  0  0  0  0  0  0
  -22.3974   -7.9967   21.1830 C   0  0  0  0  0  0  0  0  0  0  0  0
  -21.5743  -27.1644   23.1186 C   0  0  0  0  0  0  0  0  0  0  0  0
  -21.6831   -6.0976   22.3684 C   0  0  0  0  0  0  0  0  0  0  0  0
  -22.4086  -23.0320   24.4723 C   0  0  0  0  0  0  0  0  0  0  0  0
  -21.7185   -4.5833   24.7111 C   0  0  0  0  0  0  0  0  0  0  0  0
  -20.4951   -5.8479   23.0555 C   0  0  0  0  0  0  0  0  0  0  0  0
  -24.6683  -11.5655   21.1130 C   0  0  0  0  0  0  0  0  0  0  0  0
  -26.2597  -13.0674   21.3291 C   0  0  0  0  0  0  0  0  0  0  0  0
  -26.8820  -10.7988   22.1746 C   0  0  0  0  0  0  0  0  0  0  0  0
  -26.7350  -28.2140   21.8037 C   0  0  0  0  0  0  0  0  0  0  0  0
  -26.2152  -31.3014   22.6523 C   0  0  0  0  0  0  0  0  0  0  0  0
  -24.0547  -33.6482   23.8654 C   0  0  0  0  0  0  0  0  0  0  0  0
  -23.9313  -18.1337   21.4193 C   0  0  0  0  0  0  0  0  0  0  0  0
  -31.3821  -27.1275   19.9920 C   0  0  0  0  0  0  0  0  0  0  0  0
  -24.6268  -28.7393   20.5249 C   0  0  0  0  0  0  0  0  0  0  0  0
  -21.3726  -20.2136   22.1375 C   0  0  0  0  0  0  0  0  0  0  0  0
  -24.4542  -29.6304   23.3393 C   0  0  0  0  0  0  0  0  0  0  0  0
  -24.2246  -20.5904   21.4207 C   0  0  0  0  0  0  0  0  0  0  0  0
  -30.8116  -28.0985   21.0226 C   0  0  0  0  0  0  0  0  0  0  0  0
  -24.4010  -16.5225   18.3313 C   0  0  0  0  0  0  0  0  0  0  0  0
  -29.8720  -27.3707   21.9788 C   0  0  0  0  0  0  0  0  0  0  0  0
  -24.6494  -15.0812   18.7746 C   0  0  0  0  0  0  0  0  0  0  0  0
  -23.2993  -17.1931   19.1536 C   0  0  0  0  0  0  0  0  0  0  0  0
  -23.7675  -15.6885   21.0594 C   0  0  0  0  0  0  0  0  0  0  0  0
  -28.6776  -26.7698   21.2279 C   0  0  1  0  0  0  0  0  0  0  0  0
  -25.8386  -29.2940   21.2674 C   0  0  1  0  0  0  0  0  0  0  0  0
  -24.9093  -15.0069   20.2897 C   0  0  1  0  0  0  0  0  0  0  0  0
  -21.9934  -19.6598   20.8394 C   0  0  1  0  0  0  0  0  0  0  0  0
  -25.7797  -22.6184   22.8467 C   0  0  0  0  0  0  0  0  0  0  0  0
  -21.7443  -20.5953   19.6513 C   0  0  0  0  0  0  0  0  0  0  0  0
  -23.9285  -36.0769   24.4841 C   0  0  0  0  0  0  0  0  0  0  0  0
  -27.7616  -30.7254   25.2188 C   0  0  0  0  0  0  0  0  0  0  0  0
  -26.8041  -32.8273   26.1850 C   0  0  0  0  0  0  0  0  0  0  0  0
  -28.2694  -32.9378   24.1691 C   0  0  0  0  0  0  0  0  0  0  0  0
  -21.9440  -34.1696   21.8573 C   0  0  0  0  0  0  0  0  0  0  0  0
  -20.1333  -25.4319   25.9568 C   0  0  0  0  0  0  0  0  0  0  0  0
  -20.9105  -26.5762   25.3253 C   0  0  0  0  0  0  0  0  0  1  0  0
  -20.4499  -24.0979   25.2993 C   0  0  0  0  0  0  0  0  0  0  0  0
  -25.9242  -32.0196   23.9479 C   0  0  1  0  0  0  0  0  0  0  0  0
  -23.7140  -35.0475   23.3855 C   0  0  2  0  0  0  0  0  0  0  0  0
  -27.1727  -32.1070   24.8704 C   0  0  0  0  0  0  0  0  0  0  0  0
  -24.1417  -12.6855   20.6108 N   0  0  0  0  0  0  0  0  0  0  0  0
  -25.1334  -13.5808   20.7564 N   0  0  0  0  0  0  0  0  0  0  0  0
  -25.4668  -30.1426   22.4014 N   0  0  0  0  0  0  0  0  0  0  0  0
  -23.4329  -19.4055   21.0723 N   0  0  0  0  0  0  0  0  0  0  0  0
  -23.5678  -17.0615   20.5909 N   0  0  0  0  0  0  0  0  0  0  0  0
  -27.3518  -13.8301   21.5485 N   0  0  0  0  0  0  0  0  0  0  0  0
  -26.4402   -9.4810   22.3547 N   0  0  0  0  0  0  0  0  0  0  0  0
  -27.7081  -27.7978   20.9152 N   0  0  0  0  0  0  0  0  0  0  0  0
  -25.3616  -33.3142   23.5796 N   0  0  0  0  0  0  0  0  0  0  0  0
  -22.2900  -35.1137   22.9509 N   0  3  0  0  0  0  0  0  0  0  0  0
  -28.0343  -11.1173   22.5543 O   0  0  0  0  0  0  0  0  0  0  0  0
  -26.5580  -27.7908   22.9400 O   0  0  0  0  0  0  0  0  0  0  0  0
  -27.0698  -31.7560   21.8877 O   0  0  0  0  0  0  0  0  0  0  0  0
  -23.2437  -32.9252   24.4400 O   0  0  0  0  0  0  0  0  0  0  0  0
  -24.6504  -17.9653   22.4121 O   0  0  0  0  0  0  0  0  0  0  0  0
  -21.6670   -6.8484   21.2049 O   0  0  0  0  0  0  0  0  0  0  0  0
  -20.5982  -26.6658   23.9417 O   0  0  0  0  0  0  0  0  0  1  0  0
  -21.8406  -23.8092   25.4347 O   0  0  0  0  0  0  0  0  0  0  0  0
  -21.7354   -3.8549   25.8351 F   0  0  0  0  0  0  0  0  0  0  0  0
  -19.3336   -6.3318   22.5944 F   0  0  0  0  0  0  0  0  0  0  0  0
  1  2  1  0  0  0  0
  1  5  2  0  0  0  0
  2  6  2  0  0  0  0
  3  8  2  0  0  0  0
  3 17  1  0  0  0  0
  4  9  1  0  0  0  0
  4 17  2  0  0  0  0
  5 19  1  0  0  0  0
  6 21  1  0  0  0  0
  7 10  2  0  0  0  0
  7 20  1  0  0  0  0
  8 26  1  0  0  0  0
  9 26  2  0  0  0  0
 10 27  1  0  0  0  0
 11 12  2  0  0  0  0
 11 28  1  0  0  0  0
 12 30  1  0  0  0  0
 13 22  1  0  0  0  0
 13 29  2  0  0  0  0
 14 23  1  0  0  0  0
 14 27  2  0  0  0  0
 15 25  2  0  0  0  0
 15 29  1  0  0  0  0
 16 30  2  0  0  0  0
 16 31  1  0  0  0  0
 17 32  1  0  0  0  0
 18 32  1  0  0  0  0
 18 33  2  0  0  0  0
 18 34  1  0  0  0  0
 19 21  2  0  0  0  0
 19 39  1  0  0  0  0
 20 23  2  0  0  0  0
 20 40  1  0  0  0  0
 21 50  1  0  0  0  0
 22 24  2  0  0  0  0
 22 41  1  0  0  0  0
 23 42  1  0  0  0  0
 24 25  1  0  0  0  0
 24 43  1  0  0  0  0
 25 54  1  0  0  0  0
 26 82  1  0  0  0  0
 27 83  1  0  0  0  0
 28 31  2  0  0  0  0
 28 82  1  0  0  0  0
 29 84  1  0  0  0  0
 30 85  1  0  0  0  0
 31 86  1  0  0  0  0
 32 67  2  0  0  0  0
 33 68  1  0  0  0  0
 33 72  1  0  0  0  0
 34 73  1  0  0  0  0
 34 77  2  0  0  0  0
 35 51  1  0  0  0  0
 35 74  1  0  0  0  0
 35 78  2  0  0  0  0
 36 64  1  0  0  0  0
 36 69  1  0  0  0  0
 36 79  2  0  0  0  0
 37 65  1  0  0  0  0
 37 75  1  0  0  0  0
 37 80  2  0  0  0  0
 38 70  1  0  0  0  0
 38 71  1  0  0  0  0
 38 81  2  0  0  0  0
 39 44  1  0  0  0  0
 40 51  1  0  0  0  0
 41 53  1  0  0  0  0
 42 69  1  0  0  0  0
 43 70  1  0  0  0  0
 44 46  1  0  0  0  0
 45 47  1  0  0  0  0
 45 48  1  0  0  0  0
 46 50  1  0  0  0  0
 47 52  1  0  0  0  0
 48 71  1  0  0  0  0
 49 52  1  0  0  0  0
 49 71  1  0  0  0  0
 50 74  1  0  0  0  0
 51 69  1  0  0  0  0
 52 68  1  0  0  0  0
 53 55  1  0  0  0  0
 53 70  1  0  0  0  0
 56 65  1  0  0  0  0
 57 66  1  0  0  0  0
 58 66  1  0  0  0  0
 59 66  1  0  0  0  0
 60 76  1  0  0  0  0
 61 62  1  0  0  0  0
 61 63  1  0  0  0  0
 62 83  1  0  0  0  0
 63 84  1  0  0  0  0
 64 66  1  0  0  0  0
 64 75  1  0  0  0  0
 65 76  1  0  0  0  0
 67 68  1  0  0  0  0
M  CHG  1  76   1
M  ISO  4  38 100  62 101  70 100  83 101
M  END
> <Batch ID>
0144

> <Smiles>
CNC(C)C(=O)NC(C(=O)N1Cc2cc([101O:1][101CH2:1]CCOc3cc(C)c4c(c3)CC(C)[100N:0]([100C:0](=O)N3CCCC(n5nc(-c6ccc(Oc7ccc(F)cc7F)cc6)c(C(N)=O)c5N)C3)C4)ccc2CC1C(=O)NC1CCCc2ccccc21)C(C)(C)C

> <Shape>
0.273

> <Color>
0.098

> <Negative vol penalty>
0.000

$$$$

  -OEChem-04052321263D

 87 95  0     1  0  0  0  0  0999 V2000
  -18.0402  -27.7462   22.6938 C   0  0  0  0  0  0  0  0  0  0  0  0
  -18.1661  -26.4471   22.2122 C   0  0  0  0  0  0  0  0  0  0  0  0
  -28.5333  -23.4429   18.9946 C   0  0  0  0  0  0  0  0  0  0  0  0
  -30.8334  -23.3094   19.7218 C   0  0  0  0  0  0  0  0  0  0  0  0
  -19.1799  -28.4858   23.0069 C   0  0  0  0  0  0  0  0  0  0  0  0
  -19.4318  -25.8872   22.0424 C   0  0  0  0  0  0  0  0  0  0  0  0
  -21.0048  -20.0254   22.8615 C   0  0  0  0  0  0  0  0  0  0  0  0
  -28.5176  -24.8051   19.2942 C   0  0  0  0  0  0  0  0  0  0  0  0
  -30.8177  -24.6717   20.0214 C   0  0  0  0  0  0  0  0  0  0  0  0
  -21.1736  -18.9663   21.9707 C   0  0  0  0  0  0  0  0  0  0  0  0
  -31.4951  -28.1898   20.6394 C   0  0  0  0  0  0  0  0  0  0  0  0
  -32.5863  -28.9569   20.2316 C   0  0  0  0  0  0  0  0  0  0  0  0
  -23.5449  -19.4046   21.9084 C   0  0  0  0  0  0  0  0  0  0  0  0
  -25.1518  -11.7696   21.6012 C   0  0  0  0  0  0  0  0  0  0  0  0
  -24.8881  -13.7724   19.6771 C   0  0  0  0  0  0  0  0  0  0  0  0
  -32.1443  -28.3631   17.9318 C   0  0  0  0  0  0  0  0  0  0  0  0
  -29.6912  -22.6950   19.2084 C   0  0  0  0  0  0  0  0  0  0  0  0
  -30.0607  -20.6903   17.6748 C   0  0  0  0  0  0  0  0  0  0  0  0
  -20.4599  -27.9313   22.8499 C   0  0  0  0  0  0  0  0  0  0  0  0
  -22.1051  -20.7903   23.2746 C   0  0  0  0  0  0  0  0  0  0  0  0
  -20.5897  -26.6206   22.3524 C   0  0  0  0  0  0  0  0  0  0  0  0
  -23.3878  -20.4713   22.8065 C   0  0  0  0  0  0  0  0  0  0  0  0
  -25.7878  -11.6388   20.3667 C   0  0  0  0  0  0  0  0  0  0  0  0
  -24.3840  -12.9018   21.8737 C   0  0  0  0  0  0  0  0  0  0  0  0
  -25.6559  -12.6401   19.4046 C   0  0  0  0  0  0  0  0  0  0  0  0
  -29.6598  -25.4195   19.8076 C   0  0  0  0  0  0  0  0  0  0  0  0
  -22.4434  -18.6576   21.4918 C   0  0  0  0  0  0  0  0  0  0  0  0
  -30.7284  -27.5093   19.6934 C   0  0  0  0  0  0  0  0  0  0  0  0
  -24.2521  -13.9032   20.9116 C   0  0  0  0  0  0  0  0  0  0  0  0
  -32.9109  -29.0436   18.8778 C   0  0  0  0  0  0  0  0  0  0  0  0
  -31.0530  -27.5959   18.3396 C   0  0  0  0  0  0  0  0  0  0  0  0
  -29.7079  -21.2877   18.8997 C   0  0  0  0  0  0  0  0  0  0  0  0
  -29.9137  -19.3426   17.8951 C   0  0  0  0  0  0  0  0  0  0  0  0
  -30.4836  -21.2991   16.4475 C   0  0  0  0  0  0  0  0  0  0  0  0
  -22.9398  -23.8458   23.0083 C   0  0  0  0  0  0  0  0  0  0  0  0
  -25.3880  -22.9409   24.9345 C   0  0  0  0  0  0  0  0  0  0  0  0
  -27.3892  -20.4298   26.0904 C   0  0  0  0  0  0  0  0  0  0  0  0
  -30.7558  -14.9093   20.9909 C   0  0  0  0  0  0  0  0  0  0  0  0
  -21.6640  -28.7862   23.1569 C   0  0  0  0  0  0  0  0  0  0  0  0
  -21.9100  -21.9127   24.2567 C   0  0  0  0  0  0  0  0  0  0  0  0
  -24.6044  -21.2488   23.2350 C   0  0  0  0  0  0  0  0  0  0  0  0
  -22.9567  -27.9876   23.3029 C   0  0  0  0  0  0  0  0  0  0  0  0
  -27.7952  -16.8467   21.7518 C   0  0  0  0  0  0  0  0  0  0  0  0
  -23.0954  -26.9833   22.1633 C   0  0  0  0  0  0  0  0  0  0  0  0
  -28.0641  -18.1332   20.9690 C   0  0  0  0  0  0  0  0  0  0  0  0
  -29.0795  -16.2909   22.3599 C   0  0  0  0  0  0  0  0  0  0  0  0
  -30.4437  -17.3356   20.5931 C   0  0  0  0  0  0  0  0  0  0  0  0
  -21.9448  -25.9697   22.1780 C   0  0  1  0  0  0  0  0  0  0  0  0
  -23.0290  -22.9486   24.2103 C   0  0  1  0  0  0  0  0  0  0  0  0
  -29.1879  -17.9352   19.9346 C   0  0  2  0  0  0  0  0  0  0  0  0
  -23.7110  -13.0259   23.2008 C   0  0  0  0  0  0  0  0  0  0  0  0
  -26.3273  -12.5225   18.0758 C   0  0  0  0  0  0  0  0  0  0  0  0
  -29.3253  -20.0039   27.6291 C   0  0  0  0  0  0  0  0  0  0  0  0
  -27.2896  -24.1343   22.8682 C   0  0  0  0  0  0  0  0  0  0  0  0
  -29.1549  -22.8661   23.9549 C   0  0  0  0  0  0  0  0  0  0  0  0
  -27.9085  -24.5986   25.2464 C   0  0  0  0  0  0  0  0  0  0  0  0
  -25.7913  -18.6027   27.7837 C   0  0  0  0  0  0  0  0  0  0  0  0
  -26.6034  -10.4172   20.0965 C   0  0  0  0  0  0  0  0  0  0  0  0
  -30.1831  -11.6813   20.4702 C   0  0  0  0  0  0  0  0  0  0  0  0
  -30.9598  -12.4901   21.5036 C   0  0  0  0  0  0  0  0  0  0  0  0
  -28.7311  -11.4664   20.8779 C   0  0  0  0  0  0  0  0  0  0  0  0
  -21.6971  -16.5336   20.7252 C   0  0  0  0  0  0  0  0  0  1  0  0
  -22.3974  -15.2587   20.2965 C   0  0  0  0  0  0  0  0  0  0  0  0
  -26.7798  -22.4003   24.7120 C   0  0  1  0  0  0  0  0  0  0  0  0
  -27.8108  -20.0443   27.4969 C   0  0  2  0  0  0  0  0  0  0  0  0
  -27.7602  -23.4862   24.1856 C   0  0  0  0  0  0  0  0  0  0  0  0
  -29.3626  -20.3930   19.8293 N   0  0  0  0  0  0  0  0  0  0  0  0
  -29.4977  -19.2195   19.1882 N   0  0  0  0  0  0  0  0  0  0  0  0
  -24.3612  -22.3411   24.1918 N   0  0  0  0  0  0  0  0  0  0  0  0
  -30.1020  -16.1083   21.3200 N   0  0  0  0  0  0  0  0  0  0  0  0
  -30.1010  -18.2627   17.1071 N   0  0  0  0  0  0  0  0  0  0  0  0
  -30.5809  -22.6963   16.3936 N   0  0  0  0  0  0  0  0  0  0  0  0
  -22.1632  -24.9720   23.2033 N   0  0  0  0  0  0  0  0  0  0  0  0
  -27.1865  -21.7886   25.9724 N   0  0  0  0  0  0  0  0  0  0  0  0
  -30.3796  -13.7950   21.7309 N   0  0  0  0  0  0  0  0  0  0  0  0
  -27.2723  -18.7000   27.8489 N   0  3  0  0  0  0  0  0  0  0  0  0
  -28.0314  -10.7157   19.8025 N   0  3  0  0  0  0  0  0  0  0  0  0
  -30.7509  -20.6251   15.4239 O   0  0  0  0  0  0  0  0  0  0  0  0
  -23.5330  -23.5398   21.9806 O   0  0  0  0  0  0  0  0  0  0  0  0
  -25.2171  -23.8568   25.7430 O   0  0  0  0  0  0  0  0  0  0  0  0
  -27.2568  -19.6083   25.1859 O   0  0  0  0  0  0  0  0  0  0  0  0
  -31.6083  -14.8359   20.0994 O   0  0  0  0  0  0  0  0  0  0  0  0
  -29.6449  -26.7487   20.0998 O   0  0  0  0  0  0  0  0  0  0  0  0
  -22.6109  -17.6247   20.6217 O   0  0  0  0  0  0  0  0  0  1  0  0
  -23.5006  -15.0210   21.1624 O   0  0  0  0  0  0  0  0  0  0  0  0
  -33.9579  -29.7815   18.4862 F   0  0  0  0  0  0  0  0  0  0  0  0
  -30.3195  -26.9454   17.4261 F   0  0  0  0  0  0  0  0  0  0  0  0
  1  2  1  0  0  0  0
  1  5  2  0  0  0  0
  2  6  2  0  0  0  0
  3  8  2  0  0  0  0
  3 17  1  0  0  0  0
  4  9  1  0  0  0  0
  4 17  2  0  0  0  0
  5 19  1  0  0  0  0
  6 21  1  0  0  0  0
  7 10  2  0  0  0  0
  7 20  1  0  0  0  0
  8 26  1  0  0  0  0
  9 26  2  0  0  0  0
 10 27  1  0  0  0  0
 11 12  2  0  0  0  0
 11 28  1  0  0  0  0
 12 30  1  0  0  0  0
 13 22  1  0  0  0  0
 13 27  2  0  0  0  0
 14 23  2  0  0  0  0
 14 24  1  0  0  0  0
 15 25  2  0  0  0  0
 15 29  1  0  0  0  0
 16 30  2  0  0  0  0
 16 31  1  0  0  0  0
 17 32  1  0  0  0  0
 18 32  1  0  0  0  0
 18 33  2  0  0  0  0
 18 34  1  0  0  0  0
 19 21  2  0  0  0  0
 19 39  1  0  0  0  0
 20 22  2  0  0  0  0
 20 40  1  0  0  0  0
 21 48  1  0  0  0  0
 22 41  1  0  0  0  0
 23 25  1  0  0  0  0
 23 58  1  0  0  0  0
 24 29  2  0  0  0  0
 24 51  1  0  0  0  0
 25 52  1  0  0  0  0
 26 83  1  0  0  0  0
 27 84  1  0  0  0  0
 28 31  2  0  0  0  0
 28 83  1  0  0  0  0
 29 85  1  0  0  0  0
 30 86  1  0  0  0  0
 31 87  1  0  0  0  0
 32 67  2  0  0  0  0
 33 68  1  0  0  0  0
 33 71  1  0  0  0  0
 34 72  1  0  0  0  0
 34 78  2  0  0  0  0
 35 49  1  0  0  0  0
 35 73  1  0  0  0  0
 35 79  2  0  0  0  0
 36 64  1  0  0  0  0
 36 69  1  0  0  0  0
 36 80  2  0  0  0  0
 37 65  1  0  0  0  0
 37 74  1  0  0  0  0
 37 81  2  0  0  0  0
 38 70  1  0  0  0  0
 38 75  1  0  0  0  0
 38 82  2  0  0  0  0
 39 42  1  0  0  0  0
 40 49  1  0  0  0  0
 41 69  1  0  0  0  0
 42 44  1  0  0  0  0
 43 45  1  0  0  0  0
 43 46  1  0  0  0  0
 44 48  1  0  0  0  0
 45 50  1  0  0  0  0
 46 70  1  0  0  0  0
 47 50  1  0  0  0  0
 47 70  1  0  0  0  0
 48 73  1  0  0  0  0
 49 69  1  0  0  0  0
 50 68  1  0  0  0  0
 53 65  1  0  0  0  0
 54 66  1  0  0  0  0
 55 66  1  0  0  0  0
 56 66  1  0  0  0  0
 57 76  1  0  0  0  0
 58 77  1  0  0  0  0
 59 60  1  0  0  0  0
 59 61  1  0  0  0  0
 60 75  1  0  0  0  0
 61 77  1  0  0  0  0
 62 63  1  0  0  0  0
 62 84  1  0  0  0  0
 63 85  1  0  0  0  0
 64 66  1  0  0  0  0
 64 74  1  0  0  0  0
 65 76  1  0  0  0  0
 67 68  1  0  0  0  0
M  CHG  2  76   1  77   1
M  ISO  4  38 100  62 101  75 100  84 101
M  END
> <Batch ID>
0144

> <Smiles>
CNC(C)C(=O)NC(C(=O)N1Cc2cc([101O:1][101CH2:1]COc3cc(C)c(CNCCC[100NH:0][100C:0](=O)N4CCCC(n5nc(-c6ccc(Oc7ccc(F)cc7F)cc6)c(C(N)=O)c5N)C4)cc3C)ccc2CC1C(=O)NC1CCCc2ccccc21)C(C)(C)C

> <Shape>
0.213

> <Color>
0.078

> <Negative vol penalty>
0.000

$$$$

  -OEChem-04052321263D

 87 96  0     1  0  0  0  0  0999 V2000
  -27.7630  -22.3927   32.9247 C   0  0  0  0  0  0  0  0  0  0  0  0
  -28.1865  -22.3709   31.5998 C   0  0  0  0  0  0  0  0  0  0  0  0
  -23.2791   -9.8150   20.0756 C   0  0  0  0  0  0  0  0  0  0  0  0
  -23.9855   -9.9631   22.3812 C   0  0  0  0  0  0  0  0  0  0  0  0
  -27.0252  -21.3264   33.4372 C   0  0  0  0  0  0  0  0  0  0  0  0
  -27.8734  -21.2821   30.7867 C   0  0  0  0  0  0  0  0  0  0  0  0
  -26.6357  -21.4011   24.7901 C   0  0  0  0  0  0  0  0  0  0  0  0
  -29.9610  -16.0740   22.7695 C   0  0  0  0  0  0  0  0  0  0  0  0
  -29.6859  -17.2623   22.0929 C   0  0  0  0  0  0  0  0  0  0  0  0
  -22.6119   -8.6228   20.3565 C   0  0  0  0  0  0  0  0  0  0  0  0
  -23.3182   -8.7708   22.6622 C   0  0  0  0  0  0  0  0  0  0  0  0
  -27.4165  -21.1363   23.6657 C   0  0  0  0  0  0  0  0  0  0  0  0
  -19.6946   -7.6767   21.7805 C   0  0  0  0  0  0  0  0  0  0  0  0
  -18.4052   -7.5201   21.2721 C   0  0  0  0  0  0  0  0  0  0  0  0
  -26.5635  -18.8805   23.6121 C   0  0  0  0  0  0  0  0  0  0  0  0
  -32.2838  -16.7139   22.9491 C   0  0  0  0  0  0  0  0  0  0  0  0
  -19.1280   -5.5721   20.0391 C   0  0  0  0  0  0  0  0  0  0  0  0
  -23.9659  -10.4851   21.0879 C   0  0  0  0  0  0  0  0  0  0  0  0
  -24.1339  -13.0217   20.8745 C   0  0  0  0  0  0  0  0  0  0  0  0
  -26.6947  -20.2284   32.6273 C   0  0  0  0  0  0  0  0  0  0  0  0
  -25.8199  -20.4026   25.3413 C   0  0  0  0  0  0  0  0  0  0  0  0
  -27.1317  -20.1995   31.2892 C   0  0  0  0  0  0  0  0  0  0  0  0
  -25.7714  -19.1359   24.7419 C   0  0  0  0  0  0  0  0  0  0  0  0
  -31.2600  -15.7998   23.1976 C   0  0  0  0  0  0  0  0  0  0  0  0
  -30.7098  -18.1764   21.8444 C   0  0  0  0  0  0  0  0  0  0  0  0
  -22.6314   -8.1007   21.6498 C   0  0  0  0  0  0  0  0  0  0  0  0
  -27.3826  -19.8750   23.0783 C   0  0  0  0  0  0  0  0  0  0  0  0
  -20.7008   -6.7811   21.4182 C   0  0  0  0  0  0  0  0  0  0  0  0
  -32.0088  -17.9022   22.2725 C   0  0  0  0  0  0  0  0  0  0  0  0
  -18.1219   -6.4678   20.4014 C   0  0  0  0  0  0  0  0  0  0  0  0
  -20.4174   -5.7288   20.5475 C   0  0  0  0  0  0  0  0  0  0  0  0
  -24.6559  -11.7165   20.7982 C   0  0  0  0  0  0  0  0  0  0  0  0
  -25.1791  -13.8317   20.5031 C   0  0  0  0  0  0  0  0  0  0  0  0
  -22.8216  -13.4624   21.2478 C   0  0  0  0  0  0  0  0  0  0  0  0
  -25.6872  -18.9075   28.1432 C   0  0  0  0  0  0  0  0  0  0  0  0
  -22.9934  -17.6116   26.8838 C   0  0  0  0  0  0  0  0  0  0  0  0
  -21.2140  -16.7670   24.0968 C   0  0  0  0  0  0  0  0  0  0  0  0
  -31.1252  -13.1469   20.6641 C   0  0  0  0  0  0  0  0  0  0  0  0
  -25.9358  -19.0775   33.2390 C   0  0  0  0  0  0  0  0  0  0  0  0
  -24.9634  -20.7121   26.5384 C   0  0  0  0  0  0  0  0  0  0  0  0
  -24.8968  -18.0355   25.2829 C   0  0  0  0  0  0  0  0  0  0  0  0
  -25.3251  -18.1333   32.2066 C   0  0  0  0  0  0  0  0  0  0  0  0
  -29.1275  -13.8474   17.8013 C   0  0  0  0  0  0  0  0  0  0  0  0
  -26.3463  -17.7907   31.1266 C   0  0  0  0  0  0  0  0  0  0  0  0
  -30.4478  -19.9369   18.5340 C   0  0  0  0  0  0  0  0  0  0  0  0
  -30.8586  -18.5028   18.7194 C   0  0  0  0  0  0  0  0  0  0  0  0
  -27.7079  -13.4985   18.2516 C   0  0  0  0  0  0  0  0  0  0  0  0
  -30.1594  -12.8923   18.3971 C   0  0  0  0  0  0  0  0  0  0  0  0
  -28.6885  -12.4138   20.3157 C   0  0  0  0  0  0  0  0  0  0  0  0
  -26.7907  -19.0476   30.3689 C   0  0  1  0  0  0  0  0  0  0  0  0
  -24.5600  -19.4671   27.3224 C   0  0  1  0  0  0  0  0  0  0  0  0
  -29.9231  -19.1498   19.7027 C   0  0  0  0  0  0  0  0  0  0  0  0
  -27.6185  -13.3833   19.7852 C   0  0  2  0  0  0  0  0  0  0  0  0
  -34.7084  -19.4806   20.4905 C   0  0  0  0  0  0  0  0  0  0  0  0
  -19.0635  -15.6872   23.3849 C   0  0  0  0  0  0  0  0  0  0  0  0
  -24.1568  -14.8681   27.5392 C   0  0  0  0  0  0  0  0  0  0  0  0
  -22.4681  -13.8592   25.9904 C   0  0  0  0  0  0  0  0  0  0  0  0
  -21.7131  -15.1057   28.0150 C   0  0  0  0  0  0  0  0  0  0  0  0
  -20.2927  -19.2293   22.7376 C   0  0  0  0  0  0  0  0  0  0  0  0
  -31.5534  -14.5293   23.9217 C   0  0  0  0  0  0  0  0  0  0  0  0
  -31.9442  -13.3710   22.9960 C   0  0  0  0  0  0  0  0  0  0  0  0
  -34.1209  -18.3178   21.2615 C   0  0  0  0  0  0  0  0  0  0  0  0
  -29.3715  -20.3311   21.8566 C   0  0  0  0  0  0  0  0  0  1  0  0
  -30.3918  -19.4644   21.1049 C   0  0  1  0  0  0  0  0  0  0  0  0
  -22.6807  -16.3853   26.0608 C   0  0  1  0  0  0  0  0  0  0  0  0
  -19.7609  -16.9960   23.7217 C   0  0  2  0  0  0  0  0  0  0  0  0
  -22.7727  -15.0745   26.8921 C   0  0  0  0  0  0  0  0  0  0  0  0
  -25.9333  -11.6940   20.4088 N   0  0  0  0  0  0  0  0  0  0  0  0
  -26.2228  -12.9950   20.2370 N   0  0  0  0  0  0  0  0  0  0  0  0
  -24.0827  -18.3853   26.4587 N   0  0  0  0  0  0  0  0  0  0  0  0
  -30.0221  -12.8299   19.8543 N   0  0  0  0  0  0  0  0  0  0  0  0
  -25.2979  -15.1709   20.3815 N   0  0  0  0  0  0  0  0  0  0  0  0
  -21.8681  -12.4978   21.6010 N   0  0  0  0  0  0  0  0  0  0  0  0
  -25.7797  -19.4453   29.4128 N   0  0  0  0  0  0  0  0  0  0  0  0
  -21.3728  -16.6203   25.4586 N   0  0  0  0  0  0  0  0  0  0  0  0
  -30.9077  -13.0687   22.0342 N   0  0  0  0  0  0  0  0  0  0  0  0
  -19.6673  -17.8966   22.5380 N   0  3  0  0  0  0  0  0  0  0  0  0
  -22.4991  -14.6746   21.2516 O   0  0  0  0  0  0  0  0  0  0  0  0
  -26.4180  -18.0501   27.6610 O   0  0  0  0  0  0  0  0  0  0  0  0
  -22.2924  -17.8774   27.8634 O   0  0  0  0  0  0  0  0  0  0  0  0
  -22.1171  -16.7191   23.2647 O   0  0  0  0  0  0  0  0  0  0  0  0
  -32.2209  -13.4805   20.2004 O   0  0  0  0  0  0  0  0  0  0  0  0
  -21.9802   -6.9374   21.9244 O   0  0  0  0  0  0  0  0  0  0  0  0
  -28.1442  -19.6137   21.9812 O   0  0  0  0  0  0  0  0  0  1  0  0
  -33.0202  -18.7847   22.0389 O   0  0  0  0  0  0  0  0  0  0  0  0
  -16.8833   -6.3166   19.9144 F   0  0  0  0  0  0  0  0  0  0  0  0
  -21.3796   -4.8645   20.1967 F   0  0  0  0  0  0  0  0  0  0  0  0
  1  2  1  0  0  0  0
  1  5  2  0  0  0  0
  2  6  2  0  0  0  0
  3 10  2  0  0  0  0
  3 18  1  0  0  0  0
  4 11  1  0  0  0  0
  4 18  2  0  0  0  0
  5 20  1  0  0  0  0
  6 22  1  0  0  0  0
  7 12  2  0  0  0  0
  7 21  1  0  0  0  0
  8  9  2  0  0  0  0
  8 24  1  0  0  0  0
  9 25  1  0  0  0  0
 10 26  1  0  0  0  0
 11 26  2  0  0  0  0
 12 27  1  0  0  0  0
 13 14  2  0  0  0  0
 13 28  1  0  0  0  0
 14 30  1  0  0  0  0
 15 23  1  0  0  0  0
 15 27  2  0  0  0  0
 16 24  2  0  0  0  0
 16 29  1  0  0  0  0
 17 30  2  0  0  0  0
 17 31  1  0  0  0  0
 18 32  1  0  0  0  0
 19 32  1  0  0  0  0
 19 33  2  0  0  0  0
 19 34  1  0  0  0  0
 20 22  2  0  0  0  0
 20 39  1  0  0  0  0
 21 23  2  0  0  0  0
 21 40  1  0  0  0  0
 22 50  1  0  0  0  0
 23 41  1  0  0  0  0
 24 60  1  0  0  0  0
 25 29  2  0  0  0  0
 25 64  1  0  0  0  0
 26 83  1  0  0  0  0
 27 84  1  0  0  0  0
 28 31  2  0  0  0  0
 28 83  1  0  0  0  0
 29 85  1  0  0  0  0
 30 86  1  0  0  0  0
 31 87  1  0  0  0  0
 32 68  2  0  0  0  0
 33 69  1  0  0  0  0
 33 72  1  0  0  0  0
 34 73  1  0  0  0  0
 34 78  2  0  0  0  0
 35 51  1  0  0  0  0
 35 74  1  0  0  0  0
 35 79  2  0  0  0  0
 36 65  1  0  0  0  0
 36 70  1  0  0  0  0
 36 80  2  0  0  0  0
 37 66  1  0  0  0  0
 37 75  1  0  0  0  0
 37 81  2  0  0  0  0
 38 71  1  0  0  0  0
 38 76  1  0  0  0  0
 38 82  2  0  0  0  0
 39 42  1  0  0  0  0
 40 51  1  0  0  0  0
 41 70  1  0  0  0  0
 42 44  1  0  0  0  0
 43 47  1  0  0  0  0
 43 48  1  0  0  0  0
 44 50  1  0  0  0  0
 45 46  1  0  0  0  0
 45 52  1  0  0  0  0
 46 52  1  0  0  0  0
 47 53  1  0  0  0  0
 48 71  1  0  0  0  0
 49 53  1  0  0  0  0
 49 71  1  0  0  0  0
 50 74  1  0  0  0  0
 51 70  1  0  0  0  0
 52 64  1  0  0  0  0
 53 69  1  0  0  0  0
 54 62  1  0  0  0  0
 55 66  1  0  0  0  0
 56 67  1  0  0  0  0
 57 67  1  0  0  0  0
 58 67  1  0  0  0  0
 59 77  1  0  0  0  0
 60 61  1  0  0  0  0
 61 76  1  0  0  0  0
 62 85  1  0  0  0  0
 63 64  1  0  0  0  0
 63 84  1  0  0  0  0
 65 67  1  0  0  0  0
 65 75  1  0  0  0  0
 66 77  1  0  0  0  0
 68 69  1  0  0  0  0
M  CHG  1  77   1
M  ISO  4  38 100  63 101  76 100  84 101
M  END
> <Batch ID>
0144

> <Smiles>
CCOc1cc(CC[100NH:0][100C:0](=O)N2CCCC(n3nc(-c4ccc(Oc5ccc(F)cc5F)cc4)c(C(N)=O)c3N)C2)ccc1C(C1CC1)[101CH2:1][101O:1]c1ccc2c(c1)CN(C(=O)C(NC(=O)C(C)NC)C(C)(C)C)C(C(=O)NC1CCCc3ccccc31)C2

> <Shape>
0.167

> <Color>
0.167

> <Negative vol penalty>
0.000

$$$$

  -OEChem-04052321263D

 91100  0     1  0  0  0  0  0999 V2000
  -28.7837  -24.4733   17.2435 C   0  0  0  0  0  0  0  0  0  0  0  0
  -27.6030  -25.1596   17.5039 C   0  0  0  0  0  0  0  0  0  0  0  0
  -28.6638  -19.9220   21.9478 C   0  0  0  0  0  0  0  0  0  0  0  0
  -27.0133  -18.7260   20.6507 C   0  0  0  0  0  0  0  0  0  0  0  0
  -29.8569  -24.5809   18.1253 C   0  0  0  0  0  0  0  0  0  0  0  0
  -27.4992  -25.9631   18.6399 C   0  0  0  0  0  0  0  0  0  0  0  0
  -23.4336  -28.6984   19.0790 C   0  0  0  0  0  0  0  0  0  0  0  0
  -29.6776  -19.1793   21.3427 C   0  0  0  0  0  0  0  0  0  0  0  0
  -28.0271  -17.9833   20.0456 C   0  0  0  0  0  0  0  0  0  0  0  0
  -22.1860  -28.1519   19.3765 C   0  0  0  0  0  0  0  0  0  0  0  0
  -18.7511  -22.1750   20.5461 C   0  0  0  0  0  0  0  0  0  0  0  0
  -18.4907  -21.0267   21.2938 C   0  0  0  0  0  0  0  0  0  0  0  0
  -29.9838  -15.3390   20.8268 C   0  0  0  0  0  0  0  0  0  0  0  0
  -29.7968  -13.9617   20.7102 C   0  0  0  0  0  0  0  0  0  0  0  0
  -22.3929  -28.9325   21.6497 C   0  0  0  0  0  0  0  0  0  0  0  0
  -18.0102  -23.5455   22.3926 C   0  0  0  0  0  0  0  0  0  0  0  0
  -29.9662  -14.1421   18.3069 C   0  0  0  0  0  0  0  0  0  0  0  0
  -27.3316  -19.6954   21.6018 C   0  0  0  0  0  0  0  0  0  0  0  0
  -25.7454  -21.6849   21.7841 C   0  0  0  0  0  0  0  0  0  0  0  0
  -29.7611  -25.3764   19.2790 C   0  0  0  0  0  0  0  0  0  0  0  0
  -24.1764  -29.3577   20.0690 C   0  0  0  0  0  0  0  0  0  0  0  0
  -28.5796  -26.1035   19.5296 C   0  0  0  0  0  0  0  0  0  0  0  0
  -23.6486  -29.4887   21.3614 C   0  0  0  0  0  0  0  0  0  0  0  0
  -17.7497  -22.3972   23.1404 C   0  0  0  0  0  0  0  0  0  0  0  0
  -29.3592  -18.2099   20.3916 C   0  0  0  0  0  0  0  0  0  0  0  0
  -21.6668  -28.2664   20.6628 C   0  0  0  0  0  0  0  0  0  0  0  0
  -18.5109  -23.4345   21.0955 C   0  0  0  0  0  0  0  0  0  0  0  0
  -17.9899  -21.1378   22.5909 C   0  0  0  0  0  0  0  0  0  0  0  0
  -30.1619  -16.1179   19.6834 C   0  0  0  0  0  0  0  0  0  0  0  0
  -29.7880  -13.3632   19.4503 C   0  0  0  0  0  0  0  0  0  0  0  0
  -30.1532  -15.5194   18.4235 C   0  0  0  0  0  0  0  0  0  0  0  0
  -26.2839  -20.4619   22.2270 C   0  0  0  0  0  0  0  0  0  0  0  0
  -24.7862  -21.9955   22.7168 C   0  0  0  0  0  0  0  0  0  0  0  0
  -26.0821  -22.4700   20.6326 C   0  0  0  0  0  0  0  0  0  0  0  0
  -27.0032  -28.8818   21.4424 C   0  0  0  0  0  0  0  0  0  0  0  0
  -26.3643  -31.7349   22.8474 C   0  0  0  0  0  0  0  0  0  0  0  0
  -24.0285  -34.0122   23.8497 C   0  0  0  0  0  0  0  0  0  0  0  0
  -21.5310  -18.6669   26.4819 C   0  0  0  0  0  0  0  0  0  0  0  0
  -30.9561  -25.4633   20.1954 C   0  0  0  0  0  0  0  0  0  0  0  0
  -25.5087  -29.9650   19.7251 C   0  0  0  0  0  0  0  0  0  0  0  0
  -24.3971  -30.2047   22.4549 C   0  0  0  0  0  0  0  0  0  0  0  0
  -30.6017  -25.9762   21.5874 C   0  0  0  0  0  0  0  0  0  0  0  0
  -23.7058  -21.3543   27.3334 C   0  0  0  0  0  0  0  0  0  0  0  0
  -29.7668  -27.2432   21.4775 C   0  0  0  0  0  0  0  0  0  0  0  0
  -14.6600  -22.4504   23.8435 C   0  0  0  0  0  0  0  0  0  0  0  0
  -14.6978  -22.6071   25.3381 C   0  0  0  0  0  0  0  0  0  0  0  0
  -24.5646  -21.5407   26.0813 C   0  0  0  0  0  0  0  0  0  0  0  0
  -23.3866  -19.8823   27.5848 C   0  0  0  0  0  0  0  0  0  0  0  0
  -23.6384  -19.3625   25.1889 C   0  0  0  0  0  0  0  0  0  0  0  0
  -28.4331  -26.9592   20.7749 C   0  0  1  0  0  0  0  0  0  0  0  0
  -26.4056  -30.1666   20.9426 C   0  0  1  0  0  0  0  0  0  0  0  0
  -15.8059  -23.1740   24.4947 C   0  0  0  0  0  0  0  0  0  0  0  0
  -23.9396  -20.8353   24.8626 C   0  0  2  0  0  0  0  0  0  0  0  0
  -23.8074  -36.2296   25.0037 C   0  0  0  0  0  0  0  0  0  0  0  0
  -19.5415  -22.6015   25.5889 C   0  0  0  0  0  0  0  0  0  0  0  0
  -17.6132  -23.4550   26.9174 C   0  0  0  0  0  0  0  0  0  0  0  0
  -26.8772  -30.3845   25.5350 C   0  0  0  0  0  0  0  0  0  0  0  0
  -25.7412  -32.3197   26.6454 C   0  0  0  0  0  0  0  0  0  0  0  0
  -27.8266  -32.6888   25.3273 C   0  0  0  0  0  0  0  0  0  0  0  0
  -22.7888  -35.2586   21.4688 C   0  0  0  0  0  0  0  0  0  0  0  0
  -18.6298  -18.4365   24.8881 C   0  0  0  0  0  0  0  0  0  0  0  0
  -19.7517  -17.4672   25.2353 C   0  0  0  0  0  0  0  0  0  0  0  0
  -18.8439  -19.1370   23.5518 C   0  0  0  0  0  0  0  0  0  0  0  0
  -20.0522  -26.5773   20.2197 C   0  0  0  0  0  0  0  0  0  1  0  0
  -19.1424  -25.7273   21.0853 C   0  0  0  0  0  0  0  0  0  0  0  0
  -17.2138  -22.5348   24.5271 C   0  0  2  0  0  0  0  0  0  0  0  0
  -25.6695  -32.1707   24.1148 C   0  0  1  0  0  0  0  0  0  0  0  0
  -23.9457  -35.5170   23.6674 C   0  0  2  0  0  0  0  0  0  0  0  0
  -18.1781  -23.3033   25.4995 C   0  0  0  0  0  0  0  0  0  0  0  0
  -26.5151  -31.8757   25.3857 C   0  0  0  0  0  0  0  0  0  0  0  0
  -25.7142  -20.0254   23.3534 N   0  0  0  0  0  0  0  0  0  0  0  0
  -24.8078  -20.9794   23.6264 N   0  0  0  0  0  0  0  0  0  0  0  0
  -25.6985  -30.7760   22.0708 N   0  0  0  0  0  0  0  0  0  0  0  0
  -22.7951  -19.2726   26.3913 N   0  0  0  0  0  0  0  0  0  0  0  0
  -23.9348  -23.0360   22.8395 N   0  0  0  0  0  0  0  0  0  0  0  0
  -27.0914  -22.0048   19.7787 N   0  0  0  0  0  0  0  0  0  0  0  0
  -27.7659  -28.2134   20.5038 N   0  0  0  0  0  0  0  0  0  0  0  0
  -25.3349  -33.5790   23.9333 N   0  0  0  0  0  0  0  0  0  0  0  0
  -21.0407  -18.1189   25.3029 N   0  0  0  0  0  0  0  0  0  0  0  0
  -22.7713  -35.8724   22.8215 N   0  3  0  0  0  0  0  0  0  0  0  0
  -25.5164  -23.5602   20.3777 O   0  0  0  0  0  0  0  0  0  0  0  0
  -26.7894  -28.5241   22.5948 O   0  0  0  0  0  0  0  0  0  0  0  0
  -27.4541  -32.2324   22.5535 O   0  0  0  0  0  0  0  0  0  0  0  0
  -23.0337  -33.2935   23.9154 O   0  0  0  0  0  0  0  0  0  0  0  0
  -20.8848  -18.6228   27.5342 O   0  0  0  0  0  0  0  0  0  0  0  0
  -30.3483  -17.4851   19.8008 O   0  0  0  0  0  0  0  0  0  0  0  0
  -20.4495  -27.7333   20.9561 O   0  0  0  0  0  0  0  0  0  1  0  0
  -18.7673  -24.5621   20.3608 O   0  0  0  0  0  0  0  0  0  0  0  0
  -17.7399  -20.0059   23.3070 O   0  0  0  0  0  0  0  0  0  0  0  0
  -29.6099  -12.0403   19.3387 F   0  0  0  0  0  0  0  0  0  0  0  0
  -30.3250  -16.2623   17.3215 F   0  0  0  0  0  0  0  0  0  0  0  0
  1  2  1  0  0  0  0
  1  5  2  0  0  0  0
  2  6  2  0  0  0  0
  3  8  2  0  0  0  0
  3 18  1  0  0  0  0
  4  9  1  0  0  0  0
  4 18  2  0  0  0  0
  5 20  1  0  0  0  0
  6 22  1  0  0  0  0
  7 10  2  0  0  0  0
  7 21  1  0  0  0  0
  8 25  1  0  0  0  0
  9 25  2  0  0  0  0
 10 26  1  0  0  0  0
 11 12  2  0  0  0  0
 11 27  1  0  0  0  0
 12 28  1  0  0  0  0
 13 14  2  0  0  0  0
 13 29  1  0  0  0  0
 14 30  1  0  0  0  0
 15 23  1  0  0  0  0
 15 26  2  0  0  0  0
 16 24  1  0  0  0  0
 16 27  2  0  0  0  0
 17 30  2  0  0  0  0
 17 31  1  0  0  0  0
 18 32  1  0  0  0  0
 19 32  1  0  0  0  0
 19 33  2  0  0  0  0
 19 34  1  0  0  0  0
 20 22  2  0  0  0  0
 20 39  1  0  0  0  0
 21 23  2  0  0  0  0
 21 40  1  0  0  0  0
 22 50  1  0  0  0  0
 23 41  1  0  0  0  0
 24 28  2  0  0  0  0
 24 66  1  0  0  0  0
 25 86  1  0  0  0  0
 26 87  1  0  0  0  0
 27 88  1  0  0  0  0
 28 89  1  0  0  0  0
 29 31  2  0  0  0  0
 29 86  1  0  0  0  0
 30 90  1  0  0  0  0
 31 91  1  0  0  0  0
 32 71  2  0  0  0  0
 33 72  1  0  0  0  0
 33 75  1  0  0  0  0
 34 76  1  0  0  0  0
 34 81  2  0  0  0  0
 35 51  1  0  0  0  0
 35 77  1  0  0  0  0
 35 82  2  0  0  0  0
 36 67  1  0  0  0  0
 36 73  1  0  0  0  0
 36 83  2  0  0  0  0
 37 68  1  0  0  0  0
 37 78  1  0  0  0  0
 37 84  2  0  0  0  0
 38 74  1  0  0  0  0
 38 79  1  0  0  0  0
 38 85  2  0  0  0  0
 39 42  1  0  0  0  0
 40 51  1  0  0  0  0
 41 73  1  0  0  0  0
 42 44  1  0  0  0  0
 43 47  1  0  0  0  0
 43 48  1  0  0  0  0
 44 50  1  0  0  0  0
 45 46  1  0  0  0  0
 45 52  1  0  0  0  0
 46 52  1  0  0  0  0
 47 53  1  0  0  0  0
 48 74  1  0  0  0  0
 49 53  1  0  0  0  0
 49 74  1  0  0  0  0
 50 77  1  0  0  0  0
 51 73  1  0  0  0  0
 52 66  1  0  0  0  0
 53 72  1  0  0  0  0
 54 68  1  0  0  0  0
 55 69  1  0  0  0  0
 56 69  1  0  0  0  0
 57 70  1  0  0  0  0
 58 70  1  0  0  0  0
 59 70  1  0  0  0  0
 60 80  1  0  0  0  0
 61 62  1  0  0  0  0
 61 63  1  0  0  0  0
 62 79  1  0  0  0  0
 63 89  1  0  0  0  0
 64 65  1  0  0  0  0
 64 87  1  0  0  0  0
 65 88  1  0  0  0  0
 66 69  1  0  0  0  0
 67 70  1  0  0  0  0
 67 78  1  0  0  0  0
 68 80  1  0  0  0  0
 71 72  1  0  0  0  0
M  CHG  1  80   1
M  ISO  4  38 100  64 101  79 100  87 101
M  END
> <Batch ID>
0144

> <Smiles>
CNC(C)C(=O)NC(C(=O)N1Cc2cc([101O:1][101CH2:1]COc3ccc(OCCC[100NH:0][100C:0](=O)N4CCCC(n5nc(-c6ccc(Oc7ccc(F)cc7F)cc6)c(C(N)=O)c5N)C4)c(C(C(C)C)C4CC4)c3)ccc2CC1C(=O)NC1CCCc2ccccc21)C(C)(C)C

> <Shape>
0.242

> <Color>
0.068

> <Negative vol penalty>
0.000

$$$$

  -OEChem-04052321262D

  0  0  0     0  0  0  0  0  0999 V2000
M  END
$$$$

  -OEChem-04052321263D

 87 96  0     1  0  0  0  0  0999 V2000
  -30.6738  -15.1731   21.4754 C   0  0  0  0  0  0  0  0  0  0  0  0
  -29.7091  -16.0680   21.9242 C   0  0  0  0  0  0  0  0  0  0  0  0
  -27.6576  -24.1651   19.8557 C   0  0  0  0  0  0  0  0  0  0  0  0
  -26.1633  -23.4269   21.6049 C   0  0  0  0  0  0  0  0  0  0  0  0
  -30.4208  -14.3858   20.3541 C   0  0  0  0  0  0  0  0  0  0  0  0
  -28.4865  -16.1672   21.2591 C   0  0  0  0  0  0  0  0  0  0  0  0
  -23.7778  -19.9266   22.1657 C   0  0  0  0  0  0  0  0  0  0  0  0
  -18.3138  -29.6687   22.6406 C   0  0  0  0  0  0  0  0  0  0  0  0
  -28.5652  -23.1669   20.2097 C   0  0  0  0  0  0  0  0  0  0  0  0
  -27.0710  -22.4286   21.9588 C   0  0  0  0  0  0  0  0  0  0  0  0
  -23.3466  -21.1673   21.6981 C   0  0  0  0  0  0  0  0  0  0  0  0
  -18.5471  -28.5688   21.8153 C   0  0  0  0  0  0  0  0  0  0  0  0
  -31.1149  -20.5842   20.4190 C   0  0  0  0  0  0  0  0  0  0  0  0
  -31.6933  -19.8395   19.3912 C   0  0  0  0  0  0  0  0  0  0  0  0
  -21.9225  -20.0616   20.0954 C   0  0  0  0  0  0  0  0  0  0  0  0
  -20.3041  -27.8281   23.2991 C   0  0  0  0  0  0  0  0  0  0  0  0
  -29.5022  -19.0941   18.6980 C   0  0  0  0  0  0  0  0  0  0  0  0
  -26.4567  -24.2952   20.5533 C   0  0  0  0  0  0  0  0  0  0  0  0
  -24.4712  -25.2307   19.2532 C   0  0  0  0  0  0  0  0  0  0  0  0
  -29.1991  -14.4850   19.6681 C   0  0  0  0  0  0  0  0  0  0  0  0
  -23.2919  -18.7422   21.5933 C   0  0  0  0  0  0  0  0  0  0  0  0
  -28.2029  -15.3639   20.1398 C   0  0  0  0  0  0  0  0  0  0  0  0
  -19.0757  -29.8484   23.7952 C   0  0  0  0  0  0  0  0  0  0  0  0
  -22.3471  -18.8072   20.5592 C   0  0  0  0  0  0  0  0  0  0  0  0
  -20.0708  -28.9281   24.1244 C   0  0  0  0  0  0  0  0  0  0  0  0
  -28.2719  -22.2986   21.2613 C   0  0  0  0  0  0  0  0  0  0  0  0
  -22.4211  -21.2350   20.6608 C   0  0  0  0  0  0  0  0  0  0  0  0
  -19.5422  -27.6484   22.1445 C   0  0  0  0  0  0  0  0  0  0  0  0
  -29.7300  -20.5838   20.5864 C   0  0  0  0  0  0  0  0  0  0  0  0
  -30.8870  -19.0945   18.5307 C   0  0  0  0  0  0  0  0  0  0  0  0
  -28.9237  -19.8388   19.7259 C   0  0  0  0  0  0  0  0  0  0  0  0
  -25.5189  -25.3266   20.1885 C   0  0  0  0  0  0  0  0  0  0  0  0
  -23.8796  -26.4701   19.2721 C   0  0  0  0  0  0  0  0  0  0  0  0
  -24.0686  -24.1205   18.4401 C   0  0  0  0  0  0  0  0  0  0  0  0
  -24.6021  -16.3046   20.0297 C   0  0  0  0  0  0  0  0  0  0  0  0
  -21.6109  -15.0675   20.2411 C   0  0  0  0  0  0  0  0  0  0  0  0
  -18.2635  -15.6260   20.6010 C   0  0  0  0  0  0  0  0  0  0  0  0
  -23.5957  -30.7900   23.4084 C   0  0  0  0  0  0  0  0  0  0  0  0
  -28.9749  -13.6034   18.4649 C   0  0  0  0  0  0  0  0  0  0  0  0
  -23.7468  -17.4116   22.1270 C   0  0  0  0  0  0  0  0  0  0  0  0
  -21.7795  -17.5649   19.9245 C   0  0  0  0  0  0  0  0  0  0  0  0
  -27.8400  -14.0939   17.5717 C   0  0  0  0  0  0  0  0  0  0  0  0
  -24.8674  -31.0785   20.0954 C   0  0  0  0  0  0  0  0  0  0  0  0
  -26.6049  -14.3823   18.4119 C   0  0  0  0  0  0  0  0  0  0  0  0
  -25.0840  -29.6284   19.6592 C   0  0  0  0  0  0  0  0  0  0  0  0
  -18.1259  -30.8417   26.0501 C   0  0  0  0  0  0  0  0  0  0  0  0
  -25.1888  -31.2768   21.5750 C   0  0  0  0  0  0  0  0  0  0  0  0
  -24.7016  -28.9089   22.0539 C   0  0  0  0  0  0  0  0  0  0  0  0
  -17.1615  -31.9321   25.5977 C   0  0  0  0  0  0  0  0  0  0  0  0
  -26.8777  -15.5111   19.4142 C   0  0  1  0  0  0  0  0  0  0  0  0
  -18.7993  -31.0811   24.7003 C   0  0  2  0  0  0  0  0  0  0  0  0
  -23.5734  -16.2748   21.1245 C   0  0  1  0  0  0  0  0  0  0  0  0
  -24.3367  -28.6475   20.5825 C   0  0  2  0  0  0  0  0  0  0  0  0
  -16.0645  -14.4208   20.6982 C   0  0  0  0  0  0  0  0  0  0  0  0
  -21.6927  -14.6794   17.2158 C   0  0  0  0  0  0  0  0  0  0  0  0
  -19.2066  -14.3869   17.2561 C   0  0  0  0  0  0  0  0  0  0  0  0
  -20.6695  -12.7820   18.4837 C   0  0  0  0  0  0  0  0  0  0  0  0
  -17.7203  -16.5974   23.3434 C   0  0  0  0  0  0  0  0  0  0  0  0
  -20.8969  -29.1015   25.3560 C   0  0  0  0  0  0  0  0  0  0  0  0
  -20.8852  -24.5128   20.7534 C   0  0  0  0  0  0  0  0  0  0  0  0
  -22.0101  -30.1443   25.2051 C   0  0  0  0  0  0  0  0  0  0  0  0
  -21.9715  -23.5209   21.1388 C   0  0  0  0  0  0  0  0  0  1  0  0
  -20.8001  -25.6724   21.7334 C   0  0  0  0  0  0  0  0  0  0  0  0
  -20.3677  -15.1242   19.3866 C   0  0  1  0  0  0  0  0  0  0  0  0
  -17.2261  -14.9823   21.5032 C   0  0  2  0  0  0  0  0  0  0  0  0
  -20.4961  -14.2667   18.0960 C   0  0  0  0  0  0  0  0  0  0  0  0
  -25.5915  -26.5317   20.7598 N   0  0  0  0  0  0  0  0  0  0  0  0
  -24.5819  -27.2045   20.1819 N   0  0  0  0  0  0  0  0  0  0  0  0
  -22.2602  -16.2876   20.4769 N   0  0  0  0  0  0  0  0  0  0  0  0
  -24.4469  -30.3170   22.3961 N   0  0  0  0  0  0  0  0  0  0  0  0
  -22.8325  -26.9925   18.5990 N   0  0  0  0  0  0  0  0  0  0  0  0
  -24.7854  -22.9208   18.5451 N   0  0  0  0  0  0  0  0  0  0  0  0
  -25.7603  -15.6121   20.3270 N   0  0  0  0  0  0  0  0  0  0  0  0
  -19.2591  -14.7379   20.2528 N   0  0  0  0  0  0  0  0  0  0  0  0
  -22.9253  -29.8140   24.1355 N   0  0  0  0  0  0  0  0  0  0  0  0
  -16.6887  -15.9813   22.4697 N   0  3  0  0  0  0  0  0  0  0  0  0
  -23.1120  -24.1955   17.6320 O   0  0  0  0  0  0  0  0  0  0  0  0
  -24.3621  -16.9098   18.9915 O   0  0  0  0  0  0  0  0  0  0  0  0
  -21.9879  -13.9817   20.6890 O   0  0  0  0  0  0  0  0  0  0  0  0
  -18.1953  -16.7983   20.2383 O   0  0  0  0  0  0  0  0  0  0  0  0
  -23.4402  -31.9932   23.6431 O   0  0  0  0  0  0  0  0  0  0  0  0
  -17.6831  -31.8891   24.2486 O   0  0  0  0  0  0  0  0  0  0  0  0
  -29.1572  -21.3242   21.6068 O   0  0  0  0  0  0  0  0  0  0  0  0
  -21.9991  -22.4447   20.2021 O   0  0  0  0  0  0  0  0  0  1  0  0
  -19.7705  -26.5669   21.3340 O   0  0  0  0  0  0  0  0  0  0  0  0
  -31.4426  -18.3807   17.5428 F   0  0  0  0  0  0  0  0  0  0  0  0
  -27.5927  -19.8355   19.8810 F   0  0  0  0  0  0  0  0  0  0  0  0
  1  2  1  0  0  0  0
  1  5  2  0  0  0  0
  2  6  2  0  0  0  0
  3  9  2  0  0  0  0
  3 18  1  0  0  0  0
  4 10  1  0  0  0  0
  4 18  2  0  0  0  0
  5 20  1  0  0  0  0
  6 22  1  0  0  0  0
  7 11  2  0  0  0  0
  7 21  1  0  0  0  0
  8 12  2  0  0  0  0
  8 23  1  0  0  0  0
  9 26  1  0  0  0  0
 10 26  2  0  0  0  0
 11 27  1  0  0  0  0
 12 28  1  0  0  0  0
 13 14  2  0  0  0  0
 13 29  1  0  0  0  0
 14 30  1  0  0  0  0
 15 24  1  0  0  0  0
 15 27  2  0  0  0  0
 16 25  1  0  0  0  0
 16 28  2  0  0  0  0
 17 30  2  0  0  0  0
 17 31  1  0  0  0  0
 18 32  1  0  0  0  0
 19 32  1  0  0  0  0
 19 33  2  0  0  0  0
 19 34  1  0  0  0  0
 20 22  2  0  0  0  0
 20 39  1  0  0  0  0
 21 24  2  0  0  0  0
 21 40  1  0  0  0  0
 22 50  1  0  0  0  0
 23 25  2  0  0  0  0
 23 51  1  0  0  0  0
 24 41  1  0  0  0  0
 25 59  1  0  0  0  0
 26 83  1  0  0  0  0
 27 84  1  0  0  0  0
 28 85  1  0  0  0  0
 29 31  2  0  0  0  0
 29 83  1  0  0  0  0
 30 86  1  0  0  0  0
 31 87  1  0  0  0  0
 32 67  2  0  0  0  0
 33 68  1  0  0  0  0
 33 71  1  0  0  0  0
 34 72  1  0  0  0  0
 34 77  2  0  0  0  0
 35 52  1  0  0  0  0
 35 73  1  0  0  0  0
 35 78  2  0  0  0  0
 36 64  1  0  0  0  0
 36 69  1  0  0  0  0
 36 79  2  0  0  0  0
 37 65  1  0  0  0  0
 37 74  1  0  0  0  0
 37 80  2  0  0  0  0
 38 70  1  0  0  0  0
 38 75  1  0  0  0  0
 38 81  2  0  0  0  0
 39 42  1  0  0  0  0
 40 52  1  0  0  0  0
 41 69  1  0  0  0  0
 42 44  1  0  0  0  0
 43 45  1  0  0  0  0
 43 47  1  0  0  0  0
 44 50  1  0  0  0  0
 45 53  1  0  0  0  0
 46 49  1  0  0  0  0
 46 51  1  0  0  0  0
 47 70  1  0  0  0  0
 48 53  1  0  0  0  0
 48 70  1  0  0  0  0
 49 82  1  0  0  0  0
 50 73  1  0  0  0  0
 51 82  1  0  0  0  0
 52 69  1  0  0  0  0
 53 68  1  0  0  0  0
 54 65  1  0  0  0  0
 55 66  1  0  0  0  0
 56 66  1  0  0  0  0
 57 66  1  0  0  0  0
 58 76  1  0  0  0  0
 59 61  1  0  0  0  0
 60 62  1  0  0  0  0
 60 63  1  0  0  0  0
 61 75  1  0  0  0  0
 62 84  1  0  0  0  0
 63 85  1  0  0  0  0
 64 66  1  0  0  0  0
 64 74  1  0  0  0  0
 65 76  1  0  0  0  0
 67 68  1  0  0  0  0
M  CHG  1  76   1
M  ISO  4  38 100  62 101  75 100  84 101
M  END
> <Batch ID>
0144

> <Smiles>
CNC(C)C(=O)NC(C(=O)N1Cc2cc([101O:1][101CH2:1]CCOc3ccc(C4CCO4)c(CC[100NH:0][100C:0](=O)N4CCCC(n5nc(-c6ccc(Oc7ccc(F)cc7F)cc6)c(C(N)=O)c5N)C4)c3)ccc2CC1C(=O)NC1CCCc2ccccc21)C(C)(C)C

> <Shape>
0.204

> <Color>
0.068

> <Negative vol penalty>
0.000

$$$$

  -OEChem-04052321263D

 88 98  0     1  0  0  0  0  0999 V2000
  -22.6309  -31.6398   14.0547 C   0  0  0  0  0  0  0  0  0  0  0  0
  -23.5787  -30.8188   14.6573 C   0  0  0  0  0  0  0  0  0  0  0  0
  -23.3188  -10.0739   19.7925 C   0  0  0  0  0  0  0  0  0  0  0  0
  -24.1637   -9.7171   22.0276 C   0  0  0  0  0  0  0  0  0  0  0  0
  -22.3280  -32.8803   14.6145 C   0  0  0  0  0  0  0  0  0  0  0  0
  -24.2251  -31.2384   15.8194 C   0  0  0  0  0  0  0  0  0  0  0  0
  -24.4891  -27.5897   19.3211 C   0  0  0  0  0  0  0  0  0  0  0  0
  -22.7106   -8.8191   19.8220 C   0  0  0  0  0  0  0  0  0  0  0  0
  -23.5554   -8.4622   22.0572 C   0  0  0  0  0  0  0  0  0  0  0  0
  -25.4614  -26.6064   19.1440 C   0  0  0  0  0  0  0  0  0  0  0  0
  -20.4551   -7.2098   22.5474 C   0  0  0  0  0  0  0  0  0  0  0  0
  -19.7533   -6.8586   23.7005 C   0  0  0  0  0  0  0  0  0  0  0  0
  -26.8794  -27.7294   20.7401 C   0  0  0  0  0  0  0  0  0  0  0  0
  -27.9702  -18.1901   15.6054 C   0  0  0  0  0  0  0  0  0  0  0  0
  -21.2193   -4.9642   24.0156 C   0  0  0  0  0  0  0  0  0  0  0  0
  -24.0455  -10.5230   20.8953 C   0  0  0  0  0  0  0  0  0  0  0  0
  -24.1154  -13.0450   21.2724 C   0  0  0  0  0  0  0  0  0  0  0  0
  -22.9640  -33.3112   15.7894 C   0  0  0  0  0  0  0  0  0  0  0  0
  -24.7095  -28.6580   20.2024 C   0  0  0  0  0  0  0  0  0  0  0  0
  -23.9315  -32.4865   16.3946 C   0  0  0  0  0  0  0  0  0  0  0  0
  -25.9072  -28.7236   20.9285 C   0  0  0  0  0  0  0  0  0  0  0  0
  -28.4159  -20.5279   15.8020 C   0  0  0  0  0  0  0  0  0  0  0  0
  -28.5256  -20.3917   17.1900 C   0  0  0  0  0  0  0  0  0  0  0  0
  -28.1446  -19.4347   14.9964 C   0  0  0  0  0  0  0  0  0  0  0  0
  -28.3658  -19.1594   17.8016 C   0  0  0  0  0  0  0  0  0  0  0  0
  -22.8288   -8.0132   20.9544 C   0  0  0  0  0  0  0  0  0  0  0  0
  -26.6580  -26.6777   19.8513 C   0  0  0  0  0  0  0  0  0  0  0  0
  -21.5390   -6.4382   22.1283 C   0  0  0  0  0  0  0  0  0  0  0  0
  -28.0798  -18.0535   16.9982 C   0  0  0  0  0  0  0  0  0  0  0  0
  -20.1354   -5.7357   24.4346 C   0  0  0  0  0  0  0  0  0  0  0  0
  -21.9211   -5.3154   22.8624 C   0  0  0  0  0  0  0  0  0  0  0  0
  -24.6745  -11.8189   20.8651 C   0  0  0  0  0  0  0  0  0  0  0  0
  -25.1076  -13.9671   21.0454 C   0  0  0  0  0  0  0  0  0  0  0  0
  -22.8153  -13.3252   21.8080 C   0  0  0  0  0  0  0  0  0  0  0  0
  -24.9073  -31.8155   19.8947 C   0  0  0  0  0  0  0  0  0  0  0  0
  -25.0580  -31.7309   23.1339 C   0  0  0  0  0  0  0  0  0  0  0  0
  -25.8052  -29.9605   25.9542 C   0  0  0  0  0  0  0  0  0  0  0  0
  -29.0600  -16.0334   17.6820 C   0  0  0  0  0  0  0  0  0  0  0  0
  -22.6380  -34.6805   16.3310 C   0  0  0  0  0  0  0  0  0  0  0  0
  -23.6396  -29.6962   20.4023 C   0  0  0  0  0  0  0  0  0  0  0  0
  -28.6750  -21.9396   15.3793 C   0  0  0  0  0  0  0  0  0  0  0  0
  -28.8697  -21.6987   17.8319 C   0  0  0  0  0  0  0  0  0  0  0  0
  -26.1843  -29.8390   21.9020 C   0  0  0  0  0  0  0  0  0  0  0  0
  -23.0956  -34.8903   17.7722 C   0  0  0  0  0  0  0  0  0  0  0  0
  -29.9887  -13.3557   19.9013 C   0  0  0  0  0  0  0  0  0  0  0  0
  -24.5281  -34.3988   17.9544 C   0  0  0  0  0  0  0  0  0  0  0  0
  -29.6383  -26.1955   15.4359 C   0  0  0  0  0  0  0  0  0  0  0  0
  -29.8667  -25.0676   14.4686 C   0  0  0  0  0  0  0  0  0  0  0  0
  -28.6405  -12.7948   20.3527 C   0  0  0  0  0  0  0  0  0  0  0  0
  -29.9359  -13.8445   18.4573 C   0  0  0  0  0  0  0  0  0  0  0  0
  -27.5032  -14.2888   18.6505 C   0  0  0  0  0  0  0  0  0  0  0  0
  -24.6361  -32.8959   17.6698 C   0  0  1  0  0  0  0  0  0  0  0  0
  -24.1817  -31.0169   20.9403 C   0  0  1  0  0  0  0  0  0  0  0  0
  -28.4952  -22.6951   16.7137 C   0  0  1  0  0  0  0  0  0  0  0  0
  -28.9305  -24.8833   15.6305 C   0  0  0  0  0  0  0  0  0  0  0  0
  -27.5106  -13.8122   20.1131 C   0  0  1  0  0  0  0  0  0  0  0  0
  -28.0339  -19.5661   13.5173 C   0  0  0  0  0  0  0  0  0  0  0  0
  -28.4921  -19.0186   19.2803 C   0  0  0  0  0  0  0  0  0  0  0  0
  -25.8634  -30.1704   28.4542 C   0  0  0  0  0  0  0  0  0  0  0  0
  -27.6155  -33.3828   22.9333 C   0  0  0  0  0  0  0  0  0  0  0  0
  -28.1233  -32.7563   25.3034 C   0  0  0  0  0  0  0  0  0  0  0  0
  -26.0706  -34.0715   24.7754 C   0  0  0  0  0  0  0  0  0  0  0  0
  -23.8289  -27.7846   26.2989 C   0  0  0  0  0  0  0  0  0  0  0  0
  -29.1114  -24.6550   18.1413 C   0  0  0  0  0  0  0  0  0  0  0  0
  -27.6727  -25.0892   18.4012 C   0  0  0  0  0  0  0  0  0  1  0  0
  -26.1693  -31.6238   24.1500 C   0  0  1  0  0  0  0  0  0  0  0  0
  -25.0370  -29.7544   27.2472 C   0  0  2  0  0  0  0  0  0  0  0  0
  -29.3103  -23.9773   16.7750 C   0  0  1  0  0  0  0  0  0  0  0  0
  -26.9906  -32.9385   24.2708 C   0  0  0  0  0  0  0  0  0  0  0  0
  -25.9250  -11.9472   20.4135 N   0  0  0  0  0  0  0  0  0  0  0  0
  -26.1597  -13.2648   20.5355 N   0  0  0  0  0  0  0  0  0  0  0  0
  -25.1099  -30.8335   22.0579 N   0  0  0  0  0  0  0  0  0  0  0  0
  -28.8296  -14.7797   18.2576 N   0  0  0  0  0  0  0  0  0  0  0  0
  -25.1741  -15.3022   21.2342 N   0  0  0  0  0  0  0  0  0  0  0  0
  -21.9185  -12.2614   21.9764 N   0  0  0  0  0  0  0  0  0  0  0  0
  -24.1361  -32.1317   18.7925 N   0  0  0  0  0  0  0  0  0  0  0  0
  -25.5434  -31.1937   25.3957 N   0  0  0  0  0  0  0  0  0  0  0  0
  -24.6636  -28.3203   27.4049 N   0  3  0  0  0  0  0  0  0  0  0  0
  -22.4536  -14.4871   22.1126 O   0  0  0  0  0  0  0  0  0  0  0  0
  -26.0796  -32.1234   20.0752 O   0  0  0  0  0  0  0  0  0  0  0  0
  -24.1724  -32.5748   23.2929 O   0  0  0  0  0  0  0  0  0  0  0  0
  -26.5645  -29.1138   25.4884 O   0  0  0  0  0  0  0  0  0  0  0  0
  -30.1636  -16.4334   17.3133 O   0  0  0  0  0  0  0  0  0  0  0  0
  -22.2352   -6.7888   20.9837 O   0  0  0  0  0  0  0  0  0  0  0  0
  -27.8909  -16.7912   17.5700 O   0  0  0  0  0  0  0  0  0  0  0  0
  -27.6090  -25.7195   19.6798 O   0  0  0  0  0  0  0  0  0  1  0  0
  -19.4624   -5.3994   25.5428 F   0  0  0  0  0  0  0  0  0  0  0  0
  -22.9622   -4.5710   22.4655 F   0  0  0  0  0  0  0  0  0  0  0  0
  1  2  1  0  0  0  0
  1  5  2  0  0  0  0
  2  6  2  0  0  0  0
  3  8  2  0  0  0  0
  3 16  1  0  0  0  0
  4  9  1  0  0  0  0
  4 16  2  0  0  0  0
  5 18  1  0  0  0  0
  6 20  1  0  0  0  0
  7 10  2  0  0  0  0
  7 19  1  0  0  0  0
  8 26  1  0  0  0  0
  9 26  2  0  0  0  0
 10 27  1  0  0  0  0
 11 12  2  0  0  0  0
 11 28  1  0  0  0  0
 12 30  1  0  0  0  0
 13 21  1  0  0  0  0
 13 27  2  0  0  0  0
 14 24  2  0  0  0  0
 14 29  1  0  0  0  0
 15 30  2  0  0  0  0
 15 31  1  0  0  0  0
 16 32  1  0  0  0  0
 17 32  1  0  0  0  0
 17 33  2  0  0  0  0
 17 34  1  0  0  0  0
 18 20  2  0  0  0  0
 18 39  1  0  0  0  0
 19 21  2  0  0  0  0
 19 40  1  0  0  0  0
 20 52  1  0  0  0  0
 21 43  1  0  0  0  0
 22 23  2  0  0  0  0
 22 24  1  0  0  0  0
 22 41  1  0  0  0  0
 23 25  1  0  0  0  0
 23 42  1  0  0  0  0
 24 57  1  0  0  0  0
 25 29  2  0  0  0  0
 25 58  1  0  0  0  0
 26 84  1  0  0  0  0
 27 86  1  0  0  0  0
 28 31  2  0  0  0  0
 28 84  1  0  0  0  0
 29 85  1  0  0  0  0
 30 87  1  0  0  0  0
 31 88  1  0  0  0  0
 32 70  2  0  0  0  0
 33 71  1  0  0  0  0
 33 74  1  0  0  0  0
 34 75  1  0  0  0  0
 34 79  2  0  0  0  0
 35 53  1  0  0  0  0
 35 76  1  0  0  0  0
 35 80  2  0  0  0  0
 36 66  1  0  0  0  0
 36 72  1  0  0  0  0
 36 81  2  0  0  0  0
 37 67  1  0  0  0  0
 37 77  1  0  0  0  0
 37 82  2  0  0  0  0
 38 73  1  0  0  0  0
 38 83  2  0  0  0  0
 38 85  1  0  0  0  0
 39 44  1  0  0  0  0
 40 53  1  0  0  0  0
 41 54  1  0  0  0  0
 42 54  1  0  0  0  0
 43 72  1  0  0  0  0
 44 46  1  0  0  0  0
 45 49  1  0  0  0  0
 45 50  1  0  0  0  0
 46 52  1  0  0  0  0
 47 48  1  0  0  0  0
 47 55  1  0  0  0  0
 48 55  1  0  0  0  0
 49 56  1  0  0  0  0
 50 73  1  0  0  0  0
 51 56  1  0  0  0  0
 51 73  1  0  0  0  0
 52 76  1  0  0  0  0
 53 72  1  0  0  0  0
 54 68  1  0  0  0  0
 55 68  1  0  0  0  0
 56 71  1  0  0  0  0
 59 67  1  0  0  0  0
 60 69  1  0  0  0  0
 61 69  1  0  0  0  0
 62 69  1  0  0  0  0
 63 78  1  0  0  0  0
 64 65  1  0  0  0  0
 64 68  1  0  0  0  0
 65 86  1  0  0  0  0
 66 69  1  0  0  0  0
 66 77  1  0  0  0  0
 67 78  1  0  0  0  0
 70 71  1  0  0  0  0
M  CHG  1  78   1
M  ISO  4  38 100  65 101  85 100  86 101
M  END
> <Batch ID>
0144

> <Smiles>
CNC(C)C(=O)NC(C(=O)N1Cc2cc([101O:1][101CH2:1]CC(C3CC3)C3Cc4c(C)cc([100O:0][100C:0](=O)N5CCCC(n6nc(-c7ccc(Oc8ccc(F)cc8F)cc7)c(C(N)=O)c6N)C5)c(C)c4C3)ccc2CC1C(=O)NC1CCCc2ccccc21)C(C)(C)C

> <Shape>
0.300

> <Color>
0.165

> <Negative vol penalty>
0.000

$$$$

  -OEChem-04052321263D

 86 94  0     1  0  0  0  0  0999 V2000
  -16.4156  -28.0770   23.6558 C   0  0  0  0  0  0  0  0  0  0  0  0
  -17.2954  -27.6257   22.6771 C   0  0  0  0  0  0  0  0  0  0  0  0
  -26.1878   -9.6734   19.7960 C   0  0  0  0  0  0  0  0  0  0  0  0
  -27.9255  -10.2406   21.3759 C   0  0  0  0  0  0  0  0  0  0  0  0
  -16.5513  -29.3644   24.1735 C   0  0  0  0  0  0  0  0  0  0  0  0
  -18.3107  -28.4622   22.2147 C   0  0  0  0  0  0  0  0  0  0  0  0
  -25.2311  -26.5310   22.7347 C   0  0  0  0  0  0  0  0  0  0  0  0
  -26.3966   -8.3184   20.0529 C   0  0  0  0  0  0  0  0  0  0  0  0
  -28.1342   -8.8856   21.6328 C   0  0  0  0  0  0  0  0  0  0  0  0
  -26.5646  -26.1419   22.6066 C   0  0  0  0  0  0  0  0  0  0  0  0
  -26.2246   -4.7228   20.5600 C   0  0  0  0  0  0  0  0  0  0  0  0
  -25.1012   -3.9177   20.7476 C   0  0  0  0  0  0  0  0  0  0  0  0
  -27.1174  -28.3048   21.6768 C   0  0  0  0  0  0  0  0  0  0  0  0
  -24.4446   -5.2741   22.6360 C   0  0  0  0  0  0  0  0  0  0  0  0
  -26.9523  -10.6345   20.4575 C   0  0  0  0  0  0  0  0  0  0  0  0
  -25.8493  -12.8994   20.8589 C   0  0  0  0  0  0  0  0  0  0  0  0
  -17.5748  -30.2137   23.7241 C   0  0  0  0  0  0  0  0  0  0  0  0
  -24.8381  -27.8153   22.3482 C   0  0  0  0  0  0  0  0  0  0  0  0
  -18.4594  -29.7627   22.7259 C   0  0  0  0  0  0  0  0  0  0  0  0
  -25.7855  -28.7044   21.8144 C   0  0  0  0  0  0  0  0  0  0  0  0
  -27.3698   -7.9244   20.9713 C   0  0  0  0  0  0  0  0  0  0  0  0
  -27.5054  -27.0266   22.0787 C   0  0  0  0  0  0  0  0  0  0  0  0
  -26.4581   -5.8035   21.4104 C   0  0  0  0  0  0  0  0  0  0  0  0
  -24.2111   -4.1933   21.7856 C   0  0  0  0  0  0  0  0  0  0  0  0
  -25.5681   -6.0792   22.4484 C   0  0  0  0  0  0  0  0  0  0  0  0
  -26.7376  -12.0343   20.1922 C   0  0  0  0  0  0  0  0  0  0  0  0
  -26.0198  -14.1123   20.2372 C   0  0  0  0  0  0  0  0  0  0  0  0
  -24.9505  -12.6307   21.9432 C   0  0  0  0  0  0  0  0  0  0  0  0
  -22.0493  -30.3059   22.0396 C   0  0  0  0  0  0  0  0  0  0  0  0
  -24.5182  -31.8481   23.0073 C   0  0  0  0  0  0  0  0  0  0  0  0
  -27.3394  -33.0946   24.4648 C   0  0  0  0  0  0  0  0  0  0  0  0
  -29.3319  -18.0590   18.0929 C   0  0  0  0  0  0  0  0  0  0  0  0
  -17.6526  -31.6137   24.2795 C   0  0  0  0  0  0  0  0  0  0  0  0
  -23.4009  -28.2560   22.4110 C   0  0  0  0  0  0  0  0  0  0  0  0
  -25.3106  -30.0640   21.3797 C   0  0  0  0  0  0  0  0  0  0  0  0
  -18.9859  -32.3046   24.0050 C   0  0  0  0  0  0  0  0  0  0  0  0
  -28.4846  -15.3159   15.9872 C   0  0  0  0  0  0  0  0  0  0  0  0
  -19.3947  -32.1162   22.5475 C   0  0  0  0  0  0  0  0  0  0  0  0
  -27.8874  -14.2872   16.9491 C   0  0  0  0  0  0  0  0  0  0  0  0
  -26.4321  -22.9016   19.2942 C   0  0  0  0  0  0  0  0  0  0  0  0
  -29.6378  -16.0849   16.6281 C   0  0  0  0  0  0  0  0  0  0  0  0
  -28.7189  -15.6927   18.8810 C   0  0  0  0  0  0  0  0  0  0  0  0
  -19.5889  -30.6316   22.2165 C   0  0  1  0  0  0  0  0  0  0  0  0
  -23.2415  -29.7469   22.7590 C   0  0  1  0  0  0  0  0  0  0  0  0
  -26.9467  -24.3119   19.0877 C   0  0  1  0  0  0  0  0  0  0  0  0
  -27.5160  -14.9309   18.2986 C   0  0  2  0  0  0  0  0  0  0  0  0
  -27.7142  -22.1626   19.6436 C   0  0  1  0  0  0  0  0  0  0  0  0
  -28.2622  -24.0389   18.3633 C   0  0  1  0  0  0  0  0  0  0  0  0
  -25.9891  -25.2041   18.3179 C   0  0  0  0  0  0  0  0  0  0  0  0
  -28.3132  -35.2229   25.3700 C   0  0  0  0  0  0  0  0  0  0  0  0
  -30.4237  -25.0376   17.5238 C   0  0  0  0  0  0  0  0  0  0  0  0
  -31.5851  -25.8170   21.4555 C   0  0  0  0  0  0  0  0  0  0  0  0
  -24.9880  -32.8393   20.1611 C   0  0  0  0  0  0  0  0  0  0  0  0
  -26.7297  -34.3938   21.0658 C   0  0  0  0  0  0  0  0  0  0  0  0
  -24.3555  -34.6228   21.7962 C   0  0  0  0  0  0  0  0  0  0  0  0
  -27.6354  -31.9428   27.1749 C   0  0  0  0  0  0  0  0  0  0  0  0
  -28.9548  -19.9380   19.6697 C   0  0  0  0  0  0  0  0  0  0  0  0
  -29.5596  -27.2201   20.8954 C   0  0  0  0  0  0  0  0  0  1  0  0
  -25.7257  -32.6682   22.6295 C   0  0  1  0  0  0  0  0  0  0  0  0
  -27.5397  -33.9555   25.6990 C   0  0  2  0  0  0  0  0  0  0  0  0
  -29.3011  -25.1339   18.5444 C   0  0  2  0  0  0  0  0  0  0  0  0
  -27.6735  -20.6865   19.2986 C   0  0  1  0  0  0  0  0  0  0  0  0
  -30.5966  -26.2301   20.3771 C   0  0  2  0  0  0  0  0  0  0  0  0
  -25.4516  -33.6030   21.4177 C   0  0  0  0  0  0  0  0  0  0  0  0
  -27.4214  -12.6457   19.2213 N   0  0  0  0  0  0  0  0  0  0  0  0
  -26.9628  -13.9078   19.2733 N   0  0  0  0  0  0  0  0  0  0  0  0
  -24.3711  -30.6090   22.3721 N   0  0  0  0  0  0  0  0  0  0  0  0
  -29.2194  -16.6718   17.9034 N   0  0  0  0  0  0  0  0  0  0  0  0
  -25.4534  -15.3230   20.4265 N   0  0  0  0  0  0  0  0  0  0  0  0
  -24.9011  -11.3302   22.4634 N   0  0  0  0  0  0  0  0  0  0  0  0
  -20.8591  -30.1619   22.7268 N   0  0  0  0  0  0  0  0  0  0  0  0
  -26.1401  -33.3669   23.8413 N   0  0  0  0  0  0  0  0  0  0  0  0
  -28.9072  -18.5339   19.3278 N   0  0  0  0  0  0  0  0  0  0  0  0
  -28.2939  -33.2014   26.7398 N   0  3  0  0  0  0  0  0  0  0  0  0
  -29.8875  -25.0065   19.9028 N   0  3  0  0  0  0  0  0  0  0  0  0
  -24.2013  -13.5137   22.4253 O   0  0  0  0  0  0  0  0  0  0  0  0
  -22.1971  -30.8309   20.9423 O   0  0  0  0  0  0  0  0  0  0  0  0
  -23.7223  -32.2940   23.8386 O   0  0  0  0  0  0  0  0  0  0  0  0
  -28.1659  -32.2662   24.0892 O   0  0  0  0  0  0  0  0  0  0  0  0
  -29.7728  -18.8189   17.2239 O   0  0  0  0  0  0  0  0  0  0  0  0
  -28.7693  -22.8057   18.9072 O   0  0  0  0  0  0  0  0  0  0  0  0
  -26.5725  -20.0640   19.9599 O   0  0  0  0  0  0  0  0  0  0  0  0
  -27.5736   -6.6023   21.2223 O   0  0  0  0  0  0  0  0  0  0  0  0
  -28.8065  -26.6419   21.9606 O   0  0  0  0  0  0  0  0  0  1  0  0
  -23.1315   -3.4211   21.9647 F   0  0  0  0  0  0  0  0  0  0  0  0
  -25.7865   -7.1168   23.2679 F   0  0  0  0  0  0  0  0  0  0  0  0
  1  2  1  0  0  0  0
  1  5  2  0  0  0  0
  2  6  2  0  0  0  0
  3  8  2  0  0  0  0
  3 15  1  0  0  0  0
  4  9  1  0  0  0  0
  4 15  2  0  0  0  0
  5 17  1  0  0  0  0
  6 19  1  0  0  0  0
  7 10  2  0  0  0  0
  7 18  1  0  0  0  0
  8 21  1  0  0  0  0
  9 21  2  0  0  0  0
 10 22  1  0  0  0  0
 11 12  2  0  0  0  0
 11 23  1  0  0  0  0
 12 24  1  0  0  0  0
 13 20  1  0  0  0  0
 13 22  2  0  0  0  0
 14 24  2  0  0  0  0
 14 25  1  0  0  0  0
 15 26  1  0  0  0  0
 16 26  1  0  0  0  0
 16 27  2  0  0  0  0
 16 28  1  0  0  0  0
 17 19  2  0  0  0  0
 17 33  1  0  0  0  0
 18 20  2  0  0  0  0
 18 34  1  0  0  0  0
 19 43  1  0  0  0  0
 20 35  1  0  0  0  0
 21 83  1  0  0  0  0
 22 84  1  0  0  0  0
 23 25  2  0  0  0  0
 23 83  1  0  0  0  0
 24 85  1  0  0  0  0
 25 86  1  0  0  0  0
 26 65  2  0  0  0  0
 27 66  1  0  0  0  0
 27 69  1  0  0  0  0
 28 70  1  0  0  0  0
 28 76  2  0  0  0  0
 29 44  1  0  0  0  0
 29 71  1  0  0  0  0
 29 77  2  0  0  0  0
 30 59  1  0  0  0  0
 30 67  1  0  0  0  0
 30 78  2  0  0  0  0
 31 60  1  0  0  0  0
 31 72  1  0  0  0  0
 31 79  2  0  0  0  0
 32 68  1  0  0  0  0
 32 73  1  0  0  0  0
 32 80  2  0  0  0  0
 33 36  1  0  0  0  0
 34 44  1  0  0  0  0
 35 67  1  0  0  0  0
 36 38  1  0  0  0  0
 37 39  1  0  0  0  0
 37 41  1  0  0  0  0
 38 43  1  0  0  0  0
 39 46  1  0  0  0  0
 40 45  1  0  0  0  0
 40 47  1  0  0  0  0
 41 68  1  0  0  0  0
 42 46  1  0  0  0  0
 42 68  1  0  0  0  0
 43 71  1  0  0  0  0
 44 67  1  0  0  0  0
 45 48  1  0  0  0  0
 45 49  1  0  0  0  0
 46 66  1  0  0  0  0
 47 62  1  0  0  0  0
 47 81  1  0  0  0  0
 48 61  1  0  0  0  0
 48 81  1  0  0  0  0
 50 60  1  0  0  0  0
 51 61  1  0  0  0  0
 52 63  1  0  0  0  0
 53 64  1  0  0  0  0
 54 64  1  0  0  0  0
 55 64  1  0  0  0  0
 56 74  1  0  0  0  0
 57 62  1  0  0  0  0
 57 73  1  0  0  0  0
 58 63  1  0  0  0  0
 58 84  1  0  0  0  0
 59 64  1  0  0  0  0
 59 72  1  0  0  0  0
 60 74  1  0  0  0  0
 61 75  1  0  0  0  0
 62 82  1  0  0  0  0
 63 75  1  0  0  0  0
 65 66  1  0  0  0  0
M  CHG  2  74   1  75   1
M  ISO  4  32 100  58 101  73 100  84 101
M  END
> <Batch ID>
0144

> <Smiles>
CNC(C)C(=O)NC(C(=O)N1Cc2cc([101O:1][101CH2:1]C(C)NC(C)C3OC(C(O)C[100NH:0][100C:0](=O)N4CCCC(n5nc(-c6ccc(Oc7ccc(F)cc7F)cc6)c(C(N)=O)c5N)C4)CC3C)ccc2CC1C(=O)NC1CCCc2ccccc21)C(C)(C)C

> <Shape>
0.273

> <Color>
0.103

> <Negative vol penalty>
0.000

$$$$

  -OEChem-04052321263D

 90100  0     1  0  0  0  0  0999 V2000
  -26.7075  -38.0169   19.7639 C   0  0  0  0  0  0  0  0  0  0  0  0
  -26.8975  -36.8580   19.0181 C   0  0  0  0  0  0  0  0  0  0  0  0
  -23.0984  -10.6205   21.3002 C   0  0  0  0  0  0  0  0  0  0  0  0
  -24.7162   -8.8272   21.3621 C   0  0  0  0  0  0  0  0  0  0  0  0
  -26.7082  -37.9561   21.1568 C   0  0  0  0  0  0  0  0  0  0  0  0
  -27.0895  -35.6376   19.6649 C   0  0  0  0  0  0  0  0  0  0  0  0
  -25.7408  -28.6434   18.9048 C   0  0  0  0  0  0  0  0  0  0  0  0
  -27.6178  -22.6777   19.7883 C   0  0  0  0  0  0  0  0  0  0  0  0
  -28.2241  -21.4384   19.9930 C   0  0  0  0  0  0  0  0  0  0  0  0
  -22.0649   -9.6927   21.4292 C   0  0  0  0  0  0  0  0  0  0  0  0
  -23.6827   -7.8994   21.4912 C   0  0  0  0  0  0  0  0  0  0  0  0
  -26.3936  -27.4117   18.9291 C   0  0  0  0  0  0  0  0  0  0  0  0
  -21.6557   -6.7559   23.9416 C   0  0  0  0  0  0  0  0  0  0  0  0
  -21.8066   -5.7484   24.8944 C   0  0  0  0  0  0  0  0  0  0  0  0
  -26.2964  -27.4146   21.3395 C   0  0  0  0  0  0  0  0  0  0  0  0
  -29.6160  -23.4737   18.6880 C   0  0  0  0  0  0  0  0  0  0  0  0
  -21.6417   -4.0792   23.1555 C   0  0  0  0  0  0  0  0  0  0  0  0
  -24.4240  -10.1878   21.2666 C   0  0  0  0  0  0  0  0  0  0  0  0
  -26.1802  -11.8022   22.1706 C   0  0  0  0  0  0  0  0  0  0  0  0
  -26.8906  -36.7329   21.8209 C   0  0  0  0  0  0  0  0  0  0  0  0
  -25.3699  -29.2761   20.1001 C   0  0  0  0  0  0  0  0  0  0  0  0
  -27.0939  -35.5606   21.0681 C   0  0  0  0  0  0  0  0  0  0  0  0
  -25.6367  -28.6530   21.3275 C   0  0  0  0  0  0  0  0  0  0  0  0
  -28.3137  -23.6954   19.1357 C   0  0  0  0  0  0  0  0  0  0  0  0
  -30.2224  -22.2343   18.8928 C   0  0  0  0  0  0  0  0  0  0  0  0
  -29.5264  -21.2167   19.5453 C   0  0  0  0  0  0  0  0  0  0  0  0
  -22.3570   -8.3321   21.5248 C   0  0  0  0  0  0  0  0  0  0  0  0
  -26.6741  -26.7985   20.1467 C   0  0  0  0  0  0  0  0  0  0  0  0
  -21.4977   -6.4251   22.5957 C   0  0  0  0  0  0  0  0  0  0  0  0
  -21.7996   -4.4101   24.5014 C   0  0  0  0  0  0  0  0  0  0  0  0
  -21.4908   -5.0867   22.2027 C   0  0  0  0  0  0  0  0  0  0  0  0
  -25.4920  -11.1457   21.1327 C   0  0  0  0  0  0  0  0  0  0  0  0
  -27.0923  -12.6015   21.5260 C   0  0  0  0  0  0  0  0  0  0  0  0
  -26.0103  -11.6985   23.5905 C   0  0  0  0  0  0  0  0  0  0  0  0
  -26.1224  -32.0233   21.5109 C   0  0  0  0  0  0  0  0  0  0  0  0
  -23.8214  -31.1245   23.6133 C   0  0  0  0  0  0  0  0  0  0  0  0
  -22.0148  -28.5971   25.0257 C   0  0  0  0  0  0  0  0  0  0  0  0
  -28.0282  -16.3201   17.3819 C   0  0  0  0  0  0  0  0  0  0  0  0
  -26.9308  -36.7244   23.3286 C   0  0  0  0  0  0  0  0  0  0  0  0
  -24.6425  -30.5919   20.0559 C   0  0  0  0  0  0  0  0  0  0  0  0
  -25.2413  -29.2811   22.6381 C   0  0  0  0  0  0  0  0  0  0  0  0
  -26.7670  -35.3328   23.9344 C   0  0  0  0  0  0  0  0  0  0  0  0
  -28.5131  -12.7510   16.6757 C   0  0  0  0  0  0  0  0  0  0  0  0
  -27.6610  -34.3284   23.2142 C   0  0  0  0  0  0  0  0  0  0  0  0
  -32.8086  -22.7765   20.6415 C   0  0  0  0  0  0  0  0  0  0  0  0
  -33.9025  -22.4134   19.6764 C   0  0  0  0  0  0  0  0  0  0  0  0
  -27.7828  -12.0738   17.8362 C   0  0  0  0  0  0  0  0  0  0  0  0
  -30.2991  -17.5389   20.0038 C   0  0  0  0  0  0  0  0  0  0  0  0
  -27.8905  -14.0982   16.3167 C   0  0  0  0  0  0  0  0  0  0  0  0
  -29.4173  -16.3861   19.5352 C   0  0  0  0  0  0  0  0  0  0  0  0
  -27.0165  -14.3492   18.6072 C   0  0  0  0  0  0  0  0  0  0  0  0
  -28.6719  -18.4279   18.5152 C   0  0  0  0  0  0  0  0  0  0  0  0
  -27.2807  -34.2141   21.7330 C   0  0  1  0  0  0  0  0  0  0  0  0
  -24.7699  -31.3888   21.3506 C   0  0  1  0  0  0  0  0  0  0  0  0
  -32.5951  -22.9504   19.1633 C   0  0  0  0  0  0  0  0  0  0  0  0
  -27.6558  -13.0233   19.0422 C   0  0  1  0  0  0  0  0  0  0  0  0
  -29.3791  -18.7417   19.8250 C   0  0  2  0  0  0  0  0  0  0  0  0
  -20.2347  -28.1686   26.7419 C   0  0  0  0  0  0  0  0  0  0  0  0
  -30.8537  -21.1829   16.1100 C   0  0  0  0  0  0  0  0  0  0  0  0
  -33.2043  -21.9744   16.3543 C   0  0  0  0  0  0  0  0  0  0  0  0
  -25.8719  -31.5263   25.8369 C   0  0  0  0  0  0  0  0  0  0  0  0
  -24.3815  -30.2060   27.3546 C   0  0  0  0  0  0  0  0  0  0  0  0
  -23.5739  -32.3533   26.3751 C   0  0  0  0  0  0  0  0  0  0  0  0
  -20.1781  -27.4562   23.0049 C   0  0  0  0  0  0  0  0  0  0  0  0
  -27.6649  -25.0203   18.9170 C   0  0  0  0  0  0  0  0  0  1  0  0
  -31.6182  -22.0241   18.4029 C   0  0  2  0  0  0  0  0  0  0  0  0
  -23.7953  -30.3192   24.8900 C   0  0  1  0  0  0  0  0  0  0  0  0
  -20.5254  -28.4404   25.2741 C   0  0  2  0  0  0  0  0  0  0  0  0
  -31.7658  -22.1749   16.8471 C   0  0  0  0  0  0  0  0  0  0  0  0
  -24.4149  -31.0900   26.0897 C   0  0  0  0  0  0  0  0  0  0  0  0
  -25.9293  -11.4977   19.9207 N   0  0  0  0  0  0  0  0  0  0  0  0
  -26.9021  -12.3841   20.1930 N   0  0  0  0  0  0  0  0  0  0  0  0
  -24.5378  -30.5709   22.5428 N   0  0  0  0  0  0  0  0  0  0  0  0
  -27.7666  -14.9507   17.4993 N   0  0  0  0  0  0  0  0  0  0  0  0
  -28.5775  -16.9702   18.4863 N   0  0  0  0  0  0  0  0  0  0  0  0
  -28.0303  -13.4623   21.9749 N   0  0  0  0  0  0  0  0  0  0  0  0
  -25.0274  -10.8299   24.0842 N   0  0  0  0  0  0  0  0  0  0  0  0
  -30.1143  -19.9770   19.7577 N   0  0  0  0  0  0  0  0  0  0  0  0
  -26.0922  -33.4032   21.5775 N   0  0  0  0  0  0  0  0  0  0  0  0
  -22.4073  -29.9173   25.0907 N   0  0  0  0  0  0  0  0  0  0  0  0
  -19.9824  -27.3091   24.4701 N   0  3  0  0  0  0  0  0  0  0  0  0
  -26.6982  -12.3690   24.3971 O   0  0  0  0  0  0  0  0  0  0  0  0
  -27.1194  -31.3134   21.5713 O   0  0  0  0  0  0  0  0  0  0  0  0
  -23.2221  -32.2016   23.5654 O   0  0  0  0  0  0  0  0  0  0  0  0
  -22.7565  -27.6433   24.8005 O   0  0  0  0  0  0  0  0  0  0  0  0
  -27.8245  -16.9262   16.3216 O   0  0  0  0  0  0  0  0  0  0  0  0
  -21.3489   -7.4265   21.6509 O   0  0  0  0  0  0  0  0  0  0  0  0
  -27.3162  -25.5884   20.1734 O   0  0  0  0  0  0  0  0  0  1  0  0
  -21.9460   -3.4428   25.4162 F   0  0  0  0  0  0  0  0  0  0  0  0
  -21.3406   -4.7628   20.9111 F   0  0  0  0  0  0  0  0  0  0  0  0
  1  2  1  0  0  0  0
  1  5  2  0  0  0  0
  2  6  2  0  0  0  0
  3 10  2  0  0  0  0
  3 18  1  0  0  0  0
  4 11  1  0  0  0  0
  4 18  2  0  0  0  0
  5 20  1  0  0  0  0
  6 22  1  0  0  0  0
  7 12  2  0  0  0  0
  7 21  1  0  0  0  0
  8  9  2  0  0  0  0
  8 24  1  0  0  0  0
  9 26  1  0  0  0  0
 10 27  1  0  0  0  0
 11 27  2  0  0  0  0
 12 28  1  0  0  0  0
 13 14  2  0  0  0  0
 13 29  1  0  0  0  0
 14 30  1  0  0  0  0
 15 23  1  0  0  0  0
 15 28  2  0  0  0  0
 16 24  2  0  0  0  0
 16 25  1  0  0  0  0
 17 30  2  0  0  0  0
 17 31  1  0  0  0  0
 18 32  1  0  0  0  0
 19 32  1  0  0  0  0
 19 33  2  0  0  0  0
 19 34  1  0  0  0  0
 20 22  2  0  0  0  0
 20 39  1  0  0  0  0
 21 23  2  0  0  0  0
 21 40  1  0  0  0  0
 22 53  1  0  0  0  0
 23 41  1  0  0  0  0
 24 65  1  0  0  0  0
 25 26  2  0  0  0  0
 25 66  1  0  0  0  0
 26 78  1  0  0  0  0
 27 87  1  0  0  0  0
 28 88  1  0  0  0  0
 29 31  2  0  0  0  0
 29 87  1  0  0  0  0
 30 89  1  0  0  0  0
 31 90  1  0  0  0  0
 32 71  2  0  0  0  0
 33 72  1  0  0  0  0
 33 76  1  0  0  0  0
 34 77  1  0  0  0  0
 34 82  2  0  0  0  0
 35 54  1  0  0  0  0
 35 79  1  0  0  0  0
 35 83  2  0  0  0  0
 36 67  1  0  0  0  0
 36 73  1  0  0  0  0
 36 84  2  0  0  0  0
 37 68  1  0  0  0  0
 37 80  1  0  0  0  0
 37 85  2  0  0  0  0
 38 74  1  0  0  0  0
 38 75  1  0  0  0  0
 38 86  2  0  0  0  0
 39 42  1  0  0  0  0
 40 54  1  0  0  0  0
 41 73  1  0  0  0  0
 42 44  1  0  0  0  0
 43 47  1  0  0  0  0
 43 49  1  0  0  0  0
 44 53  1  0  0  0  0
 45 46  1  0  0  0  0
 45 55  1  0  0  0  0
 46 55  1  0  0  0  0
 47 56  1  0  0  0  0
 48 50  1  0  0  0  0
 48 57  1  0  0  0  0
 49 74  1  0  0  0  0
 50 75  1  0  0  0  0
 51 56  1  0  0  0  0
 51 74  1  0  0  0  0
 52 57  1  0  0  0  0
 52 75  1  0  0  0  0
 53 79  1  0  0  0  0
 54 73  1  0  0  0  0
 55 66  1  0  0  0  0
 56 72  1  0  0  0  0
 57 78  1  0  0  0  0
 58 68  1  0  0  0  0
 59 69  1  0  0  0  0
 60 69  1  0  0  0  0
 61 70  1  0  0  0  0
 62 70  1  0  0  0  0
 63 70  1  0  0  0  0
 64 81  1  0  0  0  0
 65 88  1  0  0  0  0
 66 69  1  0  0  0  0
 67 70  1  0  0  0  0
 67 80  1  0  0  0  0
 68 81  1  0  0  0  0
 71 72  1  0  0  0  0
M  CHG  1  81   1
M  ISO  4  38 100  65 101  75 100  88 101
M  END
> <Batch ID>
0144

> <Smiles>
CNC(C)C(=O)NC(C(=O)N1Cc2cc([101O:1][101CH2:1]c3ccc(NC4CC[100N:0]([100C:0](=O)N5CCCC(n6nc(-c7ccc(Oc8ccc(F)cc8F)cc7)c(C(N)=O)c6N)C5)C4)c(C(C(C)C)C4CC4)c3)ccc2CC1C(=O)NC1CCCc2ccccc21)C(C)(C)C

> <Shape>
0.313

> <Color>
0.121

> <Negative vol penalty>
0.000

$$$$

  -OEChem-04052321263D

 87 95  0     1  0  0  0  0  0999 V2000
  -31.9917  -29.5536   27.1318 C   0  0  0  0  0  0  0  0  0  0  0  0
  -30.9273  -28.8076   26.6357 C   0  0  0  0  0  0  0  0  0  0  0  0
  -23.1840   -9.7729   19.9733 C   0  0  0  0  0  0  0  0  0  0  0  0
  -23.9389   -9.8438   22.2672 C   0  0  0  0  0  0  0  0  0  0  0  0
  -32.9380  -30.0837   26.2558 C   0  0  0  0  0  0  0  0  0  0  0  0
  -30.8081  -28.5922   25.2632 C   0  0  0  0  0  0  0  0  0  0  0  0
  -29.6662  -23.7874   24.1428 C   0  0  0  0  0  0  0  0  0  0  0  0
  -22.4896   -8.5926   20.2382 C   0  0  0  0  0  0  0  0  0  0  0  0
  -23.2444   -8.6634   22.5322 C   0  0  0  0  0  0  0  0  0  0  0  0
  -28.3402  -23.3919   24.3127 C   0  0  0  0  0  0  0  0  0  0  0  0
  -26.0845  -19.1192   20.6161 C   0  0  0  0  0  0  0  0  0  0  0  0
  -26.7923  -18.7831   19.4622 C   0  0  0  0  0  0  0  0  0  0  0  0
  -20.0522   -7.7369   23.1419 C   0  0  0  0  0  0  0  0  0  0  0  0
  -19.2956   -7.6807   24.3124 C   0  0  0  0  0  0  0  0  0  0  0  0
  -27.9673  -23.6448   21.9429 C   0  0  0  0  0  0  0  0  0  0  0  0
  -28.1070  -18.9027   21.9198 C   0  0  0  0  0  0  0  0  0  0  0  0
  -20.6173   -5.8083   25.0769 C   0  0  0  0  0  0  0  0  0  0  0  0
  -23.9087  -10.3985   20.9878 C   0  0  0  0  0  0  0  0  0  0  0  0
  -24.1427  -12.9341   20.8334 C   0  0  0  0  0  0  0  0  0  0  0  0
  -32.8357  -29.8666   24.8727 C   0  0  0  0  0  0  0  0  0  0  0  0
  -30.1507  -24.1257   22.8710 C   0  0  0  0  0  0  0  0  0  0  0  0
  -31.7533  -29.1210   24.3678 C   0  0  0  0  0  0  0  0  0  0  0  0
  -29.3006  -24.0419   21.7591 C   0  0  0  0  0  0  0  0  0  0  0  0
  -28.8149  -18.5665   20.7659 C   0  0  0  0  0  0  0  0  0  0  0  0
  -22.5198   -8.0379   21.5177 C   0  0  0  0  0  0  0  0  0  0  0  0
  -27.4897  -23.3233   23.2131 C   0  0  0  0  0  0  0  0  0  0  0  0
  -26.7419  -19.1791   21.8450 C   0  0  0  0  0  0  0  0  0  0  0  0
  -28.1575  -18.5067   19.5371 C   0  0  0  0  0  0  0  0  0  0  0  0
  -21.0913   -6.8287   22.9389 C   0  0  0  0  0  0  0  0  0  0  0  0
  -19.5782   -6.7165   25.2799 C   0  0  0  0  0  0  0  0  0  0  0  0
  -21.3739   -5.8645   23.9063 C   0  0  0  0  0  0  0  0  0  0  0  0
  -24.6267  -11.6175   20.7145 C   0  0  0  0  0  0  0  0  0  0  0  0
  -25.2025  -13.7244   20.4611 C   0  0  0  0  0  0  0  0  0  0  0  0
  -22.8507  -13.4009   21.2437 C   0  0  0  0  0  0  0  0  0  0  0  0
  -31.3521  -26.7581   21.5555 C   0  0  0  0  0  0  0  0  0  0  0  0
  -31.8755  -24.7891   19.0314 C   0  0  0  0  0  0  0  0  0  0  0  0
  -31.0260  -21.9413   17.3536 C   0  0  0  0  0  0  0  0  0  0  0  0
  -30.6375  -14.9791   20.6417 C   0  0  0  0  0  0  0  0  0  0  0  0
  -33.8569  -30.4995   23.9609 C   0  0  0  0  0  0  0  0  0  0  0  0
  -31.5909  -24.5248   22.7005 C   0  0  0  0  0  0  0  0  0  0  0  0
  -29.7772  -24.3749   20.3697 C   0  0  0  0  0  0  0  0  0  0  0  0
  -33.8649  -29.9098   22.5530 C   0  0  0  0  0  0  0  0  0  0  0  0
  -29.6068  -12.5157   18.2867 C   0  0  0  0  0  0  0  0  0  0  0  0
  -32.4420  -29.7882   22.0170 C   0  0  0  0  0  0  0  0  0  0  0  0
  -28.1824  -12.1669   18.7220 C   0  0  0  0  0  0  0  0  0  0  0  0
  -30.5116  -12.7919   19.4855 C   0  0  0  0  0  0  0  0  0  0  0  0
  -28.5780  -13.4601   20.8597 C   0  0  0  0  0  0  0  0  0  0  0  0
  -31.6033  -28.8447   22.8875 C   0  0  1  0  0  0  0  0  0  0  0  0
  -31.8389  -25.3416   21.4362 C   0  0  1  0  0  0  0  0  0  0  0  0
  -27.6142  -13.2279   19.6834 C   0  0  2  0  0  0  0  0  0  0  0  0
  -28.3225  -15.8530   15.4975 C   0  0  0  0  0  0  0  0  0  0  0  0
  -31.1697  -20.1243   15.6287 C   0  0  0  0  0  0  0  0  0  0  0  0
  -30.3748  -26.8084   17.3051 C   0  0  0  0  0  0  0  0  0  0  0  0
  -30.1570  -25.0390   15.5473 C   0  0  0  0  0  0  0  0  0  0  0  0
  -32.4173  -25.8373   16.2375 C   0  0  0  0  0  0  0  0  0  0  0  0
  -32.8646  -20.3371   19.0284 C   0  0  0  0  0  0  0  0  0  0  0  0
  -30.2756  -18.2736   20.8645 C   0  0  0  0  0  0  0  0  0  0  0  0
  -29.0371  -16.5899   16.6160 C   0  0  0  0  0  0  0  0  0  0  0  0
  -24.7092  -21.1760   24.0904 C   0  0  0  0  0  0  0  0  0  0  0  0
  -30.6094  -17.1472   21.8490 C   0  0  0  0  0  0  0  0  0  0  0  0
  -28.0965  -17.5105   17.3784 C   0  0  0  0  0  0  0  0  0  0  0  0
  -25.9163  -22.0313   24.4423 C   0  0  0  0  0  0  0  0  0  1  0  0
  -24.9309  -20.3759   22.8164 C   0  0  0  0  0  0  0  0  0  0  0  0
  -31.0834  -24.3784   17.8137 C   0  0  1  0  0  0  0  0  0  0  0  0
  -31.8723  -20.8156   16.7868 C   0  0  2  0  0  0  0  0  0  0  0  0
  -30.9983  -25.5113   16.7522 C   0  0  0  0  0  0  0  0  0  0  0  0
  -25.8953  -11.5700   20.2991 N   0  0  0  0  0  0  0  0  0  0  0  0
  -26.2173  -12.8666   20.1535 N   0  0  0  0  0  0  0  0  0  0  0  0
  -31.1920  -24.7659   20.2554 N   0  0  0  0  0  0  0  0  0  0  0  0
  -29.9161  -13.8080   20.3566 N   0  0  0  0  0  0  0  0  0  0  0  0
  -25.3561  -15.0625   20.3700 N   0  0  0  0  0  0  0  0  0  0  0  0
  -21.8779  -12.4540   21.5923 N   0  0  0  0  0  0  0  0  0  0  0  0
  -31.9272  -27.4650   22.5944 N   0  0  0  0  0  0  0  0  0  0  0  0
  -31.6946  -23.1469   17.3255 N   0  0  0  0  0  0  0  0  0  0  0  0
  -29.9978  -15.8929   21.4702 N   0  0  0  0  0  0  0  0  0  0  0  0
  -32.1546  -19.7992   17.8395 N   0  3  0  0  0  0  0  0  0  0  0  0
  -22.5620  -14.6209   21.2838 O   0  0  0  0  0  0  0  0  0  0  0  0
  -30.5178  -27.1791   20.7628 O   0  0  0  0  0  0  0  0  0  0  0  0
  -33.0592  -25.1115   18.9025 O   0  0  0  0  0  0  0  0  0  0  0  0
  -29.8845  -21.7690   17.7754 O   0  0  0  0  0  0  0  0  0  0  0  0
  -31.7657  -15.1966   20.1870 O   0  0  0  0  0  0  0  0  0  0  0  0
  -21.8420   -6.8863   21.7766 O   0  0  0  0  0  0  0  0  0  0  0  0
  -26.1948  -22.9381   23.3763 O   0  0  0  0  0  0  0  0  0  1  0  0
  -26.0460  -19.5099   22.9785 O   0  0  0  0  0  0  0  0  0  0  0  0
  -28.8334  -18.1787   18.4004 O   0  0  0  0  0  0  0  0  0  0  0  0
  -18.8525   -6.6637   26.4045 F   0  0  0  0  0  0  0  0  0  0  0  0
  -22.3716   -4.9901   23.7174 F   0  0  0  0  0  0  0  0  0  0  0  0
  1  2  1  0  0  0  0
  1  5  2  0  0  0  0
  2  6  2  0  0  0  0
  3  8  2  0  0  0  0
  3 18  1  0  0  0  0
  4  9  1  0  0  0  0
  4 18  2  0  0  0  0
  5 20  1  0  0  0  0
  6 22  1  0  0  0  0
  7 10  2  0  0  0  0
  7 21  1  0  0  0  0
  8 25  1  0  0  0  0
  9 25  2  0  0  0  0
 10 26  1  0  0  0  0
 11 12  2  0  0  0  0
 11 27  1  0  0  0  0
 12 28  1  0  0  0  0
 13 14  2  0  0  0  0
 13 29  1  0  0  0  0
 14 30  1  0  0  0  0
 15 23  1  0  0  0  0
 15 26  2  0  0  0  0
 16 24  1  0  0  0  0
 16 27  2  0  0  0  0
 17 30  2  0  0  0  0
 17 31  1  0  0  0  0
 18 32  1  0  0  0  0
 19 32  1  0  0  0  0
 19 33  2  0  0  0  0
 19 34  1  0  0  0  0
 20 22  2  0  0  0  0
 20 39  1  0  0  0  0
 21 23  2  0  0  0  0
 21 40  1  0  0  0  0
 22 48  1  0  0  0  0
 23 41  1  0  0  0  0
 24 28  2  0  0  0  0
 24 57  1  0  0  0  0
 25 82  1  0  0  0  0
 26 83  1  0  0  0  0
 27 84  1  0  0  0  0
 28 85  1  0  0  0  0
 29 31  2  0  0  0  0
 29 82  1  0  0  0  0
 30 86  1  0  0  0  0
 31 87  1  0  0  0  0
 32 67  2  0  0  0  0
 33 68  1  0  0  0  0
 33 71  1  0  0  0  0
 34 72  1  0  0  0  0
 34 77  2  0  0  0  0
 35 49  1  0  0  0  0
 35 73  1  0  0  0  0
 35 78  2  0  0  0  0
 36 64  1  0  0  0  0
 36 69  1  0  0  0  0
 36 79  2  0  0  0  0
 37 65  1  0  0  0  0
 37 74  1  0  0  0  0
 37 80  2  0  0  0  0
 38 70  1  0  0  0  0
 38 75  1  0  0  0  0
 38 81  2  0  0  0  0
 39 42  1  0  0  0  0
 40 49  1  0  0  0  0
 41 69  1  0  0  0  0
 42 44  1  0  0  0  0
 43 45  1  0  0  0  0
 43 46  1  0  0  0  0
 44 48  1  0  0  0  0
 45 50  1  0  0  0  0
 46 70  1  0  0  0  0
 47 50  1  0  0  0  0
 47 70  1  0  0  0  0
 48 73  1  0  0  0  0
 49 69  1  0  0  0  0
 50 68  1  0  0  0  0
 51 58  1  0  0  0  0
 52 65  1  0  0  0  0
 53 66  1  0  0  0  0
 54 66  1  0  0  0  0
 55 66  1  0  0  0  0
 56 76  1  0  0  0  0
 57 60  1  0  0  0  0
 58 61  1  0  0  0  0
 59 62  1  0  0  0  0
 59 63  1  0  0  0  0
 60 75  1  0  0  0  0
 61 85  1  0  0  0  0
 62 83  1  0  0  0  0
 63 84  1  0  0  0  0
 64 66  1  0  0  0  0
 64 74  1  0  0  0  0
 65 76  1  0  0  0  0
 67 68  1  0  0  0  0
M  CHG  1  76   1
M  ISO  4  38 100  62 101  75 100  83 101
M  END
> <Batch ID>
0144

> <Smiles>
CCCOc1ccc(OCC[101CH2:1][101O:1]c2ccc3c(c2)CN(C(=O)C(NC(=O)C(C)NC)C(C)(C)C)C(C(=O)NC2CCCc4ccccc42)C3)cc1CC[100NH:0][100C:0](=O)N1CCCC(n2nc(-c3ccc(Oc4ccc(F)cc4F)cc3)c(C(N)=O)c2N)C1

> <Shape>
0.246

> <Color>
0.183

> <Negative vol penalty>
0.000

$$$$

  -OEChem-04052321263D

 88 97  0     1  0  0  0  0  0999 V2000
  -24.4851  -20.2923   27.4000 C   0  0  0  0  0  0  0  0  0  0  0  0
  -25.3299  -21.3956   27.3585 C   0  0  0  0  0  0  0  0  0  0  0  0
  -24.2782  -13.1915   19.9770 C   0  0  0  0  0  0  0  0  0  0  0  0
  -26.0071  -13.4333   21.6472 C   0  0  0  0  0  0  0  0  0  0  0  0
  -23.4934  -20.1418   26.4329 C   0  0  0  0  0  0  0  0  0  0  0  0
  -25.1758  -22.3549   26.3570 C   0  0  0  0  0  0  0  0  0  0  0  0
  -27.9227  -26.4206   26.7149 C   0  0  0  0  0  0  0  0  0  0  0  0
  -24.4210  -11.8050   20.0299 C   0  0  0  0  0  0  0  0  0  0  0  0
  -26.1498  -12.0468   21.7001 C   0  0  0  0  0  0  0  0  0  0  0  0
  -29.2969  -26.4250   26.4792 C   0  0  0  0  0  0  0  0  0  0  0  0
  -24.0784   -8.1862   19.9881 C   0  0  0  0  0  0  0  0  0  0  0  0
  -22.9165   -7.4160   20.0375 C   0  0  0  0  0  0  0  0  0  0  0  0
  -28.9176  -27.4349   24.3216 C   0  0  0  0  0  0  0  0  0  0  0  0
  -32.3482  -24.0423   20.9046 C   0  0  0  0  0  0  0  0  0  0  0  0
  -22.2830   -8.5041   22.0996 C   0  0  0  0  0  0  0  0  0  0  0  0
  -34.6996  -23.9056   20.5751 C   0  0  0  0  0  0  0  0  0  0  0  0
  -25.0713  -14.0057   20.7856 C   0  0  0  0  0  0  0  0  0  0  0  0
  -24.0626  -16.2346   21.5083 C   0  0  0  0  0  0  0  0  0  0  0  0
  -23.3358  -21.0937   25.4122 C   0  0  0  0  0  0  0  0  0  0  0  0
  -27.0335  -26.9142   25.7494 C   0  0  0  0  0  0  0  0  0  0  0  0
  -24.1655  -22.2332   25.3859 C   0  0  0  0  0  0  0  0  0  0  0  0
  -27.5328  -27.4380   24.5484 C   0  0  0  0  0  0  0  0  0  0  0  0
  -32.1696  -23.5261   19.6259 C   0  0  0  0  0  0  0  0  0  0  0  0
  -25.3568  -11.2326   20.8914 C   0  0  0  0  0  0  0  0  0  0  0  0
  -29.7943  -26.9295   25.2813 C   0  0  0  0  0  0  0  0  0  0  0  0
  -24.3427   -9.1153   20.9944 C   0  0  0  0  0  0  0  0  0  0  0  0
  -33.6341  -24.2387   21.3957 C   0  0  0  0  0  0  0  0  0  0  0  0
  -22.0188   -7.5749   21.0932 C   0  0  0  0  0  0  0  0  0  0  0  0
  -23.4450   -9.2742   22.0501 C   0  0  0  0  0  0  0  0  0  0  0  0
  -24.9246  -15.4380   20.7310 C   0  0  0  0  0  0  0  0  0  0  0  0
  -33.3007  -23.2251   18.8844 C   0  0  0  0  0  0  0  0  0  0  0  0
  -24.2996  -17.5173   21.0785 C   0  0  0  0  0  0  0  0  0  0  0  0
  -23.1309  -15.8493   22.5278 C   0  0  0  0  0  0  0  0  0  0  0  0
  -24.6638  -25.6674   24.0366 C   0  0  0  0  0  0  0  0  0  0  0  0
  -24.2430  -28.7443   23.0996 C   0  0  0  0  0  0  0  0  0  0  0  0
  -25.5899  -31.8491   22.6602 C   0  0  0  0  0  0  0  0  0  0  0  0
  -27.8763  -21.4863   19.8229 C   0  0  0  0  0  0  0  0  0  0  0  0
  -22.2411  -20.8853   24.3956 C   0  0  0  0  0  0  0  0  0  0  0  0
  -25.5558  -26.9270   26.0300 C   0  0  0  0  0  0  0  0  0  0  0  0
  -26.6216  -27.9982   23.4881 C   0  0  0  0  0  0  0  0  0  0  0  0
  -22.4405  -21.7118   23.1293 C   0  0  0  0  0  0  0  0  0  0  0  0
  -26.8543  -19.2583   17.1034 C   0  0  0  0  0  0  0  0  0  0  0  0
  -22.7288  -23.1603   23.4941 C   0  0  0  0  0  0  0  0  0  0  0  0
  -26.2475  -18.0978   17.8851 C   0  0  0  0  0  0  0  0  0  0  0  0
  -28.0284  -19.9052   17.8388 C   0  0  0  0  0  0  0  0  0  0  0  0
  -30.2229  -21.8521   18.8030 C   0  0  0  0  0  0  0  0  0  0  0  0
  -27.0910  -19.1489   20.0125 C   0  0  0  0  0  0  0  0  0  0  0  0
  -30.7046  -23.2989   19.0555 C   0  0  1  0  0  0  0  0  0  0  0  0
  -24.0363  -23.2737   24.2882 C   0  0  1  0  0  0  0  0  0  0  0  0
  -24.7076  -26.9818   24.7632 C   0  0  1  0  0  0  0  0  0  0  0  0
  -25.8699  -18.5453   19.3050 C   0  0  2  0  0  0  0  0  0  0  0  0
  -29.4920  -23.4511   20.0107 C   0  0  1  0  0  0  0  0  0  0  0  0
  -33.1663  -22.6693   17.5049 C   0  0  0  0  0  0  0  0  0  0  0  0
  -25.0110  -34.1497   21.8420 C   0  0  0  0  0  0  0  0  0  0  0  0
  -24.4052  -27.7573   20.2170 C   0  0  0  0  0  0  0  0  0  0  0  0
  -24.7770  -30.1270   19.4999 C   0  0  0  0  0  0  0  0  0  0  0  0
  -22.6471  -29.4872   20.6299 C   0  0  0  0  0  0  0  0  0  0  0  0
  -26.1534  -33.0568   25.3027 C   0  0  0  0  0  0  0  0  0  0  0  0
  -28.6149  -24.6678   19.7943 C   0  0  0  0  0  0  0  0  0  0  0  0
  -33.1028  -25.5564   24.7886 C   0  0  0  0  0  0  0  0  0  0  0  0
  -29.2403  -25.9296   20.3717 C   0  0  0  0  0  0  0  0  0  0  0  0
  -31.9056  -25.9023   25.6600 C   0  0  0  0  0  0  0  0  0  1  0  0
  -32.6817  -25.0552   23.4161 C   0  0  0  0  0  0  0  0  0  0  0  0
  -24.7805  -29.6044   21.9814 C   0  0  1  0  0  0  0  0  0  0  0  0
  -25.0895  -33.2284   23.0494 C   0  0  2  0  0  0  0  0  0  0  0  0
  -24.1697  -29.2317   20.6010 C   0  0  0  0  0  0  0  0  0  0  0  0
  -34.5656  -23.4021   19.3277 N   0  0  0  0  0  0  0  0  0  0  0  0
  -25.6546  -16.1548   19.8723 N   0  0  0  0  0  0  0  0  0  0  0  0
  -25.2518  -17.4151   20.1074 N   0  0  0  0  0  0  0  0  0  0  0  0
  -25.1843  -27.9828   23.8066 N   0  0  0  0  0  0  0  0  0  0  0  0
  -27.6934  -20.2321   19.2290 N   0  0  0  0  0  0  0  0  0  0  0  0
  -28.9386  -22.2510   19.3734 N   0  0  0  0  0  0  0  0  0  0  0  0
  -23.7842  -18.7115   21.4401 N   0  0  0  0  0  0  0  0  0  0  0  0
  -23.0129  -14.4895   22.8458 N   0  0  0  0  0  0  0  0  0  0  0  0
  -24.1669  -24.6229   24.7926 N   0  0  0  0  0  0  0  0  0  0  0  0
  -24.5494  -30.9877   22.3833 N   0  0  0  0  0  0  0  0  0  0  0  0
  -26.0014  -33.8460   24.0533 N   0  3  0  0  0  0  0  0  0  0  0  0
  -22.4122  -16.6846   23.1272 O   0  0  0  0  0  0  0  0  0  0  0  0
  -25.0508  -25.6057   22.8755 O   0  0  0  0  0  0  0  0  0  0  0  0
  -23.0335  -28.7533   23.3415 O   0  0  0  0  0  0  0  0  0  0  0  0
  -26.7844  -31.5653   22.6036 O   0  0  0  0  0  0  0  0  0  0  0  0
  -27.1454  -21.8968   20.7326 O   0  0  0  0  0  0  0  0  0  0  0  0
  -28.3629  -27.0243   20.1466 O   0  0  0  0  0  0  0  0  0  0  0  0
  -25.4962   -9.8797   20.9435 O   0  0  0  0  0  0  0  0  0  0  0  0
  -31.1448  -26.9343   25.0468 O   0  0  0  0  0  0  0  0  0  1  0  0
  -33.8388  -24.7400   22.6387 O   0  0  0  0  0  0  0  0  0  0  0  0
  -20.9024   -6.8364   21.1398 F   0  0  0  0  0  0  0  0  0  0  0  0
  -23.6928  -10.1660   23.0192 F   0  0  0  0  0  0  0  0  0  0  0  0
  1  2  1  0  0  0  0
  1  5  2  0  0  0  0
  2  6  2  0  0  0  0
  3  8  2  0  0  0  0
  3 17  1  0  0  0  0
  4  9  1  0  0  0  0
  4 17  2  0  0  0  0
  5 19  1  0  0  0  0
  6 21  1  0  0  0  0
  7 10  2  0  0  0  0
  7 20  1  0  0  0  0
  8 24  1  0  0  0  0
  9 24  2  0  0  0  0
 10 25  1  0  0  0  0
 11 12  2  0  0  0  0
 11 26  1  0  0  0  0
 12 28  1  0  0  0  0
 13 22  1  0  0  0  0
 13 25  2  0  0  0  0
 14 23  1  0  0  0  0
 14 27  2  0  0  0  0
 15 28  2  0  0  0  0
 15 29  1  0  0  0  0
 16 27  1  0  0  0  0
 16 67  2  0  0  0  0
 17 30  1  0  0  0  0
 18 30  1  0  0  0  0
 18 32  2  0  0  0  0
 18 33  1  0  0  0  0
 19 21  2  0  0  0  0
 19 38  1  0  0  0  0
 20 22  2  0  0  0  0
 20 39  1  0  0  0  0
 21 49  1  0  0  0  0
 22 40  1  0  0  0  0
 23 31  2  0  0  0  0
 23 48  1  0  0  0  0
 24 84  1  0  0  0  0
 25 85  1  0  0  0  0
 26 29  2  0  0  0  0
 26 84  1  0  0  0  0
 27 86  1  0  0  0  0
 28 87  1  0  0  0  0
 29 88  1  0  0  0  0
 30 68  2  0  0  0  0
 31 53  1  0  0  0  0
 31 67  1  0  0  0  0
 32 69  1  0  0  0  0
 32 73  1  0  0  0  0
 33 74  1  0  0  0  0
 33 78  2  0  0  0  0
 34 50  1  0  0  0  0
 34 75  1  0  0  0  0
 34 79  2  0  0  0  0
 35 64  1  0  0  0  0
 35 70  1  0  0  0  0
 35 80  2  0  0  0  0
 36 65  1  0  0  0  0
 36 76  1  0  0  0  0
 36 81  2  0  0  0  0
 37 71  1  0  0  0  0
 37 72  1  0  0  0  0
 37 82  2  0  0  0  0
 38 41  1  0  0  0  0
 39 50  1  0  0  0  0
 40 70  1  0  0  0  0
 41 43  1  0  0  0  0
 42 44  1  0  0  0  0
 42 45  1  0  0  0  0
 43 49  1  0  0  0  0
 44 51  1  0  0  0  0
 45 71  1  0  0  0  0
 46 48  1  0  0  0  0
 46 72  1  0  0  0  0
 47 51  1  0  0  0  0
 47 71  1  0  0  0  0
 48 52  1  0  0  0  0
 49 75  1  0  0  0  0
 50 70  1  0  0  0  0
 51 69  1  0  0  0  0
 52 59  1  0  0  0  0
 52 72  1  0  0  0  0
 54 65  1  0  0  0  0
 55 66  1  0  0  0  0
 56 66  1  0  0  0  0
 57 66  1  0  0  0  0
 58 77  1  0  0  0  0
 59 61  1  0  0  0  0
 60 62  1  0  0  0  0
 60 63  1  0  0  0  0
 61 83  1  0  0  0  0
 62 85  1  0  0  0  0
 63 86  1  0  0  0  0
 64 66  1  0  0  0  0
 64 76  1  0  0  0  0
 65 77  1  0  0  0  0
 68 69  1  0  0  0  0
M  CHG  1  77   1
M  ISO  4  37 100  62 101  72 100  85 101
M  END
> <Batch ID>
0144

> <Smiles>
CNC(C)C(=O)NC(C(=O)N1Cc2cc([101O:1][101CH2:1]CCOc3cnc(C)c(C4C[100N:0]([100C:0](=O)N5CCCC(n6nc(-c7ccc(Oc8ccc(F)cc8F)cc7)c(C(N)=O)c6N)C5)C4CCO)c3)ccc2CC1C(=O)NC1CCCc2ccccc21)C(C)(C)C

> <Shape>
0.190

> <Color>
0.080

> <Negative vol penalty>
0.000

$$$$

  -OEChem-04052321263D

 86 95  0     1  0  0  0  0  0999 V2000
  -27.9508  -10.3625   19.5414 C   0  0  0  0  0  0  0  0  0  0  0  0
  -28.3147  -11.5772   18.9691 C   0  0  0  0  0  0  0  0  0  0  0  0
  -19.2057  -27.4433   19.8923 C   0  0  0  0  0  0  0  0  0  0  0  0
  -19.8756  -25.3715   20.9391 C   0  0  0  0  0  0  0  0  0  0  0  0
  -26.7383  -10.2484   20.2201 C   0  0  0  0  0  0  0  0  0  0  0  0
  -27.4656  -12.6783   19.0744 C   0  0  0  0  0  0  0  0  0  0  0  0
  -29.9354  -16.9256   20.3016 C   0  0  0  0  0  0  0  0  0  0  0  0
  -33.0601  -22.3666   18.6820 C   0  0  0  0  0  0  0  0  0  0  0  0
  -18.0862  -26.8092   19.3537 C   0  0  0  0  0  0  0  0  0  0  0  0
  -18.7560  -24.7373   20.4006 C   0  0  0  0  0  0  0  0  0  0  0  0
  -30.6354  -17.5718   19.2838 C   0  0  0  0  0  0  0  0  0  0  0  0
  -32.6453  -23.5615   19.2698 C   0  0  0  0  0  0  0  0  0  0  0  0
  -17.8161  -23.4486   17.4196 C   0  0  0  0  0  0  0  0  0  0  0  0
  -17.9996  -22.1955   16.8350 C   0  0  0  0  0  0  0  0  0  0  0  0
  -31.1410  -22.4219   17.2153 C   0  0  0  0  0  0  0  0  0  0  0  0
  -28.8183  -19.1390   19.0372 C   0  0  0  0  0  0  0  0  0  0  0  0
  -16.4519  -21.2299   18.4191 C   0  0  0  0  0  0  0  0  0  0  0  0
  -20.1005  -26.7244   20.6850 C   0  0  0  0  0  0  0  0  0  0  0  0
  -21.3479  -28.0353   22.4831 C   0  0  0  0  0  0  0  0  0  0  0  0
  -25.8784  -11.3512   20.3421 C   0  0  0  0  0  0  0  0  0  0  0  0
  -28.6647  -17.3754   20.6882 C   0  0  0  0  0  0  0  0  0  0  0  0
  -26.2398  -12.5785   19.7542 C   0  0  0  0  0  0  0  0  0  0  0  0
  -30.7262  -23.6169   17.8031 C   0  0  0  0  0  0  0  0  0  0  0  0
  -28.1052  -18.4983   20.0620 C   0  0  0  0  0  0  0  0  0  0  0  0
  -32.3080  -21.7967   17.6547 C   0  0  0  0  0  0  0  0  0  0  0  0
  -17.8613  -25.4562   19.6079 C   0  0  0  0  0  0  0  0  0  0  0  0
  -30.0757  -18.6769   18.6494 C   0  0  0  0  0  0  0  0  0  0  0  0
  -31.4783  -24.1867   18.8304 C   0  0  0  0  0  0  0  0  0  0  0  0
  -16.9505  -23.5923   18.5040 C   0  0  0  0  0  0  0  0  0  0  0  0
  -17.3175  -21.0861   17.3348 C   0  0  0  0  0  0  0  0  0  0  0  0
  -16.2684  -22.4830   19.0037 C   0  0  0  0  0  0  0  0  0  0  0  0
  -21.2575  -27.3788   21.2411 C   0  0  0  0  0  0  0  0  0  0  0  0
  -22.6450  -28.4831   22.5412 C   0  0  0  0  0  0  0  0  0  0  0  0
  -20.3486  -28.2235   23.4939 C   0  0  0  0  0  0  0  0  0  0  0  0
  -25.7450  -16.1186   20.6901 C   0  0  0  0  0  0  0  0  0  0  0  0
  -24.9883  -18.8610   22.2487 C   0  0  0  0  0  0  0  0  0  0  0  0
  -25.7460  -22.1227   22.9073 C   0  0  0  0  0  0  0  0  0  0  0  0
  -27.8878  -26.8063   21.0876 C   0  0  0  0  0  0  0  0  0  0  0  0
  -24.5565  -11.1669   21.0444 C   0  0  0  0  0  0  0  0  0  0  0  0
  -27.9339  -16.6836   21.8061 C   0  0  0  0  0  0  0  0  0  0  0  0
  -26.7528  -19.0332   20.4537 C   0  0  0  0  0  0  0  0  0  0  0  0
  -23.8849  -12.4814   21.4334 C   0  0  0  0  0  0  0  0  0  0  0  0
  -26.1774  -29.3752   19.1976 C   0  0  0  0  0  0  0  0  0  0  0  0
  -23.9155  -13.4625   20.2658 C   0  0  0  0  0  0  0  0  0  0  0  0
  -24.7321  -29.1815   19.6598 C   0  0  0  0  0  0  0  0  0  0  0  0
  -29.4098  -24.6890   15.8640 C   0  0  0  0  0  0  0  0  0  0  0  0
  -29.5499  -25.7351   16.9251 C   0  0  0  0  0  0  0  0  0  0  0  0
  -26.8988  -28.0374   19.0631 C   0  0  0  0  0  0  0  0  0  0  0  0
  -25.4393  -27.0072   20.7608 C   0  0  0  0  0  0  0  0  0  0  0  0
  -25.3570  -13.8024   19.8684 C   0  0  1  0  0  0  0  0  0  0  0  0
  -26.4264  -16.9142   21.7674 C   0  0  1  0  0  0  0  0  0  0  0  0
  -24.6626  -28.3246   20.9377 C   0  0  2  0  0  0  0  0  0  0  0  0
  -29.4753  -24.2726   17.3213 C   0  0  0  0  0  0  0  0  0  0  0  0
  -28.2120  -23.7825   17.9708 C   0  0  0  0  0  0  0  0  0  0  0  0
  -24.9211  -24.1168   24.1882 C   0  0  0  0  0  0  0  0  0  0  0  0
  -22.8150  -19.3046   20.1536 C   0  0  0  0  0  0  0  0  0  0  0  0
  -22.6812  -21.6911   20.8987 C   0  0  0  0  0  0  0  0  0  0  0  0
  -22.1337  -19.8550   22.4961 C   0  0  0  0  0  0  0  0  0  0  0  0
  -28.2170  -22.2471   24.5315 C   0  0  0  0  0  0  0  0  0  0  0  0
  -32.7564  -20.5037   17.0181 C   0  0  0  0  0  0  0  0  0  0  0  0
  -30.3587  -26.6854   21.2802 C   0  0  0  0  0  0  0  0  0  0  0  0
  -32.1816  -19.2802   17.7237 C   0  0  0  0  0  0  0  0  0  1  0  0
  -30.8266  -25.3167   20.8189 C   0  0  0  0  0  0  0  0  0  0  0  0
  -24.5417  -20.2407   21.8293 C   0  0  1  0  0  0  0  0  0  0  0  0
  -25.8259  -22.8946   24.2120 C   0  0  2  0  0  0  0  0  0  0  0  0
  -23.0676  -20.2618   21.3355 C   0  0  0  0  0  0  0  0  0  0  0  0
  -22.4057  -27.4050   20.5593 N   0  0  0  0  0  0  0  0  0  0  0  0
  -23.2299  -28.0835   21.3757 N   0  0  0  0  0  0  0  0  0  0  0  0
  -26.0749  -18.3187   21.5479 N   0  0  0  0  0  0  0  0  0  0  0  0
  -26.8112  -27.2792   20.3191 N   0  0  0  0  0  0  0  0  0  0  0  0
  -23.3309  -29.1759   23.4750 N   0  0  0  0  0  0  0  0  0  0  0  0
  -19.0679  -27.6987   23.2733 N   0  0  0  0  0  0  0  0  0  0  0  0
  -25.9270  -14.7531   20.7988 N   0  0  0  0  0  0  0  0  0  0  0  0
  -24.8039  -21.1175   22.9654 N   0  0  0  0  0  0  0  0  0  0  0  0
  -29.1540  -27.1002   20.5965 N   0  0  0  0  0  0  0  0  0  0  0  0
  -27.2233  -23.3492   24.4603 N   0  3  0  0  0  0  0  0  0  0  0  0
  -20.5799  -28.8530   24.5540 O   0  0  0  0  0  0  0  0  0  0  0  0
  -25.1006  -16.7004   19.8253 O   0  0  0  0  0  0  0  0  0  0  0  0
  -24.3995  -18.2885   23.1691 O   0  0  0  0  0  0  0  0  0  0  0  0
  -26.4465  -22.3875   21.9328 O   0  0  0  0  0  0  0  0  0  0  0  0
  -27.7323  -26.1731   22.1374 O   0  0  0  0  0  0  0  0  0  0  0  0
  -16.7688  -24.8372   19.0827 O   0  0  0  0  0  0  0  0  0  0  0  0
  -30.7566  -19.3091   17.6551 O   0  0  0  0  0  0  0  0  0  1  0  0
  -31.0880  -25.3530   19.4176 O   0  0  0  0  0  0  0  0  0  0  0  0
  -17.4926  -19.8832   16.7723 F   0  0  0  0  0  0  0  0  0  0  0  0
  -15.4346  -22.6151   20.0445 F   0  0  0  0  0  0  0  0  0  0  0  0
  1  2  1  0  0  0  0
  1  5  2  0  0  0  0
  2  6  2  0  0  0  0
  3  9  2  0  0  0  0
  3 18  1  0  0  0  0
  4 10  1  0  0  0  0
  4 18  2  0  0  0  0
  5 20  1  0  0  0  0
  6 22  1  0  0  0  0
  7 11  2  0  0  0  0
  7 21  1  0  0  0  0
  8 12  2  0  0  0  0
  8 25  1  0  0  0  0
  9 26  1  0  0  0  0
 10 26  2  0  0  0  0
 11 27  1  0  0  0  0
 12 28  1  0  0  0  0
 13 14  2  0  0  0  0
 13 29  1  0  0  0  0
 14 30  1  0  0  0  0
 15 23  1  0  0  0  0
 15 25  2  0  0  0  0
 16 24  1  0  0  0  0
 16 27  2  0  0  0  0
 17 30  2  0  0  0  0
 17 31  1  0  0  0  0
 18 32  1  0  0  0  0
 19 32  1  0  0  0  0
 19 33  2  0  0  0  0
 19 34  1  0  0  0  0
 20 22  2  0  0  0  0
 20 39  1  0  0  0  0
 21 24  2  0  0  0  0
 21 40  1  0  0  0  0
 22 50  1  0  0  0  0
 23 28  2  0  0  0  0
 23 53  1  0  0  0  0
 24 41  1  0  0  0  0
 25 60  1  0  0  0  0
 26 82  1  0  0  0  0
 27 83  1  0  0  0  0
 28 84  1  0  0  0  0
 29 31  2  0  0  0  0
 29 82  1  0  0  0  0
 30 85  1  0  0  0  0
 31 86  1  0  0  0  0
 32 67  2  0  0  0  0
 33 68  1  0  0  0  0
 33 71  1  0  0  0  0
 34 72  1  0  0  0  0
 34 77  2  0  0  0  0
 35 51  1  0  0  0  0
 35 73  1  0  0  0  0
 35 78  2  0  0  0  0
 36 64  1  0  0  0  0
 36 69  1  0  0  0  0
 36 79  2  0  0  0  0
 37 65  1  0  0  0  0
 37 74  1  0  0  0  0
 37 80  2  0  0  0  0
 38 70  1  0  0  0  0
 38 75  1  0  0  0  0
 38 81  2  0  0  0  0
 39 42  1  0  0  0  0
 40 51  1  0  0  0  0
 41 69  1  0  0  0  0
 42 44  1  0  0  0  0
 43 45  1  0  0  0  0
 43 48  1  0  0  0  0
 44 50  1  0  0  0  0
 45 52  1  0  0  0  0
 46 47  1  0  0  0  0
 46 53  1  0  0  0  0
 47 53  1  0  0  0  0
 48 70  1  0  0  0  0
 49 52  1  0  0  0  0
 49 70  1  0  0  0  0
 50 73  1  0  0  0  0
 51 69  1  0  0  0  0
 52 68  1  0  0  0  0
 53 54  1  0  0  0  0
 55 65  1  0  0  0  0
 56 66  1  0  0  0  0
 57 66  1  0  0  0  0
 58 66  1  0  0  0  0
 59 76  1  0  0  0  0
 60 62  1  0  0  0  0
 61 63  1  0  0  0  0
 61 75  1  0  0  0  0
 62 83  1  0  0  0  0
 63 84  1  0  0  0  0
 64 66  1  0  0  0  0
 64 74  1  0  0  0  0
 65 76  1  0  0  0  0
 67 68  1  0  0  0  0
M  CHG  1  76   1
M  ISO  4  38 100  62 101  75 100  83 101
M  END
> <Batch ID>
0144

> <Smiles>
CNC(C)C(=O)NC(C(=O)N1Cc2cc([101O:1][101CH2:1]Cc3ccc(OCC[100NH:0][100C:0](=O)N4CCCC(n5nc(-c6ccc(Oc7ccc(F)cc7F)cc6)c(C(N)=O)c5N)C4)c(C4(C)CC4)c3)ccc2CC1C(=O)NC1CCCc2ccccc21)C(C)(C)C

> <Shape>
0.223

> <Color>
0.082

> <Negative vol penalty>
0.000

$$$$

  -OEChem-04052321263D

 89 98  0     1  0  0  0  0  0999 V2000
  -26.7329  -28.9082   25.5628 C   0  0  0  0  0  0  0  0  0  0  0  0
  -27.3218  -27.7735   25.0165 C   0  0  0  0  0  0  0  0  0  0  0  0
  -26.2449  -28.3633   19.1538 C   0  0  0  0  0  0  0  0  0  0  0  0
  -25.8400  -26.9871   21.0978 C   0  0  0  0  0  0  0  0  0  0  0  0
  -25.4082  -28.8634   25.9921 C   0  0  0  0  0  0  0  0  0  0  0  0
  -26.5826  -26.5970   24.8883 C   0  0  0  0  0  0  0  0  0  0  0  0
  -28.2530  -21.0578   22.9766 C   0  0  0  0  0  0  0  0  0  0  0  0
  -25.1071  -29.1144   19.4485 C   0  0  0  0  0  0  0  0  0  0  0  0
  -24.7022  -27.7383   21.3925 C   0  0  0  0  0  0  0  0  0  0  0  0
  -28.7346  -19.8768   23.5396 C   0  0  0  0  0  0  0  0  0  0  0  0
  -21.4905  -29.0663   22.4562 C   0  0  0  0  0  0  0  0  0  0  0  0
  -20.3323  -28.3759   22.8132 C   0  0  0  0  0  0  0  0  0  0  0  0
  -26.4921  -18.9887   23.5801 C   0  0  0  0  0  0  0  0  0  0  0  0
  -27.0312  -12.9307   18.9188 C   0  0  0  0  0  0  0  0  0  0  0  0
  -20.3439  -27.2510   20.6750 C   0  0  0  0  0  0  0  0  0  0  0  0
  -26.6113  -27.2996   19.9784 C   0  0  0  0  0  0  0  0  0  0  0  0
  -29.1010  -26.7613   20.1170 C   0  0  0  0  0  0  0  0  0  0  0  0
  -24.6569  -27.6819   25.8802 C   0  0  0  0  0  0  0  0  0  0  0  0
  -26.8835  -21.2176   22.7208 C   0  0  0  0  0  0  0  0  0  0  0  0
  -25.2369  -26.5386   25.2937 C   0  0  0  0  0  0  0  0  0  0  0  0
  -25.9960  -20.1717   23.0115 C   0  0  0  0  0  0  0  0  0  0  0  0
  -28.5200  -14.4041   20.7786 C   0  0  0  0  0  0  0  0  0  0  0  0
  -27.5703  -13.4684   21.2245 C   0  0  0  0  0  0  0  0  0  0  0  0
  -27.9867  -13.8429   18.4784 C   0  0  0  0  0  0  0  0  0  0  0  0
  -28.7299  -14.5753   19.4035 C   0  0  0  0  0  0  0  0  0  0  0  0
  -24.3358  -28.8020   20.5679 C   0  0  0  0  0  0  0  0  0  0  0  0
  -27.8538  -18.8431   23.8441 C   0  0  0  0  0  0  0  0  0  0  0  0
  -22.0754  -28.8492   21.2085 C   0  0  0  0  0  0  0  0  0  0  0  0
  -26.8208  -12.7462   20.2852 C   0  0  0  0  0  0  0  0  0  0  0  0
  -19.7590  -27.4682   21.9226 C   0  0  0  0  0  0  0  0  0  0  0  0
  -21.5020  -27.9415   20.3180 C   0  0  0  0  0  0  0  0  0  0  0  0
  -27.7862  -26.5229   19.6742 C   0  0  0  0  0  0  0  0  0  0  0  0
  -29.8411  -25.7495   19.5559 C   0  0  0  0  0  0  0  0  0  0  0  0
  -29.6080  -27.8042   20.9603 C   0  0  0  0  0  0  0  0  0  0  0  0
  -24.6269  -23.2068   23.7478 C   0  0  0  0  0  0  0  0  0  0  0  0
  -22.8258  -21.6976   21.5116 C   0  0  0  0  0  0  0  0  0  0  0  0
  -22.3016  -18.9118   19.6113 C   0  0  0  0  0  0  0  0  0  0  0  0
  -29.4031  -20.2029   18.3493 C   0  0  0  0  0  0  0  0  0  0  0  0
  -23.2248  -27.6913   26.3535 C   0  0  0  0  0  0  0  0  0  0  0  0
  -26.3834  -22.4874   22.0885 C   0  0  0  0  0  0  0  0  0  0  0  0
  -27.3010  -13.2800   22.6957 C   0  0  0  0  0  0  0  0  0  0  0  0
  -24.5193  -20.2854   22.7376 C   0  0  0  0  0  0  0  0  0  0  0  0
  -29.3534  -15.1848   21.7578 C   0  0  0  0  0  0  0  0  0  0  0  0
  -22.6662  -26.2912   26.5860 C   0  0  0  0  0  0  0  0  0  0  0  0
  -29.2170  -22.6869   15.7239 C   0  0  0  0  0  0  0  0  0  0  0  0
  -22.9514  -25.4107   25.3785 C   0  0  0  0  0  0  0  0  0  0  0  0
  -28.9554  -23.9612   16.5288 C   0  0  0  0  0  0  0  0  0  0  0  0
  -28.4849  -21.4918   16.3273 C   0  0  0  0  0  0  0  0  0  0  0  0
  -28.5333  -22.5132   18.5697 C   0  0  0  0  0  0  0  0  0  0  0  0
  -28.4467  -13.7531   23.5837 C   0  0  0  0  0  0  0  0  0  0  0  0
  -24.4618  -25.2391   25.1724 C   0  0  1  0  0  0  0  0  0  0  0  0
  -24.9011  -22.7397   22.3463 C   0  0  1  0  0  0  0  0  0  0  0  0
  -29.2641  -23.7532   18.0233 C   0  0  2  0  0  0  0  0  0  0  0  0
  -28.1946  -14.0163   17.0092 C   0  0  0  0  0  0  0  0  0  0  0  0
  -20.7271  -17.9584   17.9056 C   0  0  0  0  0  0  0  0  0  0  0  0
  -20.7806  -21.1507   23.7088 C   0  0  0  0  0  0  0  0  0  0  0  0
  -19.7405  -19.4307   22.2161 C   0  0  0  0  0  0  0  0  0  0  0  0
  -19.7955  -21.8227   21.5105 C   0  0  0  0  0  0  0  0  0  0  0  0
  -24.4474  -18.6883   17.5853 C   0  0  0  0  0  0  0  0  0  0  0  0
  -24.5452  -12.3566   20.8561 C   0  0  0  0  0  0  0  0  0  0  0  0
  -29.7606  -15.5421   18.9068 C   0  0  0  0  0  0  0  0  0  0  0  0
  -29.1865  -16.8882   18.4309 C   0  0  0  0  0  0  0  0  0  0  0  0
  -30.2387  -17.8967   17.9748 C   0  0  0  0  0  0  0  0  0  0  0  0
  -29.7785  -15.7928   24.1468 C   0  0  0  0  0  0  0  0  0  0  0  0
  -29.6517  -17.3006   24.0551 C   0  0  0  0  0  0  0  0  0  1  0  0
  -21.9364  -20.4779   21.5003 C   0  0  1  0  0  0  0  0  0  0  0  0
  -22.0106  -18.7423   18.1310 C   0  0  2  0  0  0  0  0  0  0  0  0
  -20.5907  -20.7188   22.2410 C   0  0  0  0  0  0  0  0  0  0  0  0
  -27.6932  -25.4443   18.8919 N   0  0  0  0  0  0  0  0  0  0  0  0
  -28.9590  -24.9960   18.8387 N   0  0  0  0  0  0  0  0  0  0  0  0
  -24.0781  -21.5491   22.1243 N   0  0  0  0  0  0  0  0  0  0  0  0
  -28.8367  -21.3381   17.7460 N   0  0  0  0  0  0  0  0  0  0  0  0
  -31.1539  -25.4396   19.6109 N   0  0  0  0  0  0  0  0  0  0  0  0
  -28.7106  -28.7624   21.4509 N   0  0  0  0  0  0  0  0  0  0  0  0
  -24.6934  -24.5778   23.9071 N   0  0  0  0  0  0  0  0  0  0  0  0
  -21.7877  -20.0940   20.1007 N   0  0  0  0  0  0  0  0  0  0  0  0
  -29.6530  -19.1310   17.5011 N   0  0  0  0  0  0  0  0  0  0  0  0
  -28.8246  -15.1550   23.1774 N   0  3  1  0  0  0  0  0  0  0  0  0
  -23.1279  -18.0166   17.4633 N   0  3  0  0  0  0  0  0  0  0  0  0
  -30.8237  -27.8933   21.2564 O   0  0  0  0  0  0  0  0  0  0  0  0
  -24.3724  -22.3843   24.6198 O   0  0  0  0  0  0  0  0  0  0  0  0
  -22.4270  -22.7417   20.9895 O   0  0  0  0  0  0  0  0  0  0  0  0
  -22.9194  -18.0771   20.2685 O   0  0  0  0  0  0  0  0  0  0  0  0
  -29.6715  -20.1502   19.5544 O   0  0  0  0  0  0  0  0  0  0  0  0
  -23.2256  -29.5349   20.8559 O   0  0  0  0  0  0  0  0  0  0  0  0
  -25.8681  -11.8546   20.6830 O   0  0  0  0  0  0  0  0  0  0  0  0
  -28.3212  -17.6895   24.3943 O   0  0  0  0  0  0  0  0  0  1  0  0
  -18.6477  -26.8041   22.2662 F   0  0  0  0  0  0  0  0  0  0  0  0
  -22.0600  -27.7278   19.1185 F   0  0  0  0  0  0  0  0  0  0  0  0
  1  2  1  0  0  0  0
  1  5  2  0  0  0  0
  2  6  2  0  0  0  0
  3  8  2  0  0  0  0
  3 16  1  0  0  0  0
  4  9  1  0  0  0  0
  4 16  2  0  0  0  0
  5 18  1  0  0  0  0
  6 20  1  0  0  0  0
  7 10  2  0  0  0  0
  7 19  1  0  0  0  0
  8 26  1  0  0  0  0
  9 26  2  0  0  0  0
 10 27  1  0  0  0  0
 11 12  2  0  0  0  0
 11 28  1  0  0  0  0
 12 30  1  0  0  0  0
 13 21  1  0  0  0  0
 13 27  2  0  0  0  0
 14 24  1  0  0  0  0
 14 29  2  0  0  0  0
 15 30  2  0  0  0  0
 15 31  1  0  0  0  0
 16 32  1  0  0  0  0
 17 32  1  0  0  0  0
 17 33  2  0  0  0  0
 17 34  1  0  0  0  0
 18 20  2  0  0  0  0
 18 39  1  0  0  0  0
 19 21  2  0  0  0  0
 19 40  1  0  0  0  0
 20 51  1  0  0  0  0
 21 42  1  0  0  0  0
 22 23  2  0  0  0  0
 22 25  1  0  0  0  0
 22 43  1  0  0  0  0
 23 29  1  0  0  0  0
 23 41  1  0  0  0  0
 24 25  2  0  0  0  0
 24 54  1  0  0  0  0
 25 61  1  0  0  0  0
 26 85  1  0  0  0  0
 27 87  1  0  0  0  0
 28 31  2  0  0  0  0
 28 85  1  0  0  0  0
 29 86  1  0  0  0  0
 30 88  1  0  0  0  0
 31 89  1  0  0  0  0
 32 69  2  0  0  0  0
 33 70  1  0  0  0  0
 33 73  1  0  0  0  0
 34 74  1  0  0  0  0
 34 80  2  0  0  0  0
 35 52  1  0  0  0  0
 35 75  1  0  0  0  0
 35 81  2  0  0  0  0
 36 66  1  0  0  0  0
 36 71  1  0  0  0  0
 36 82  2  0  0  0  0
 37 67  1  0  0  0  0
 37 76  1  0  0  0  0
 37 83  2  0  0  0  0
 38 72  1  0  0  0  0
 38 77  1  0  0  0  0
 38 84  2  0  0  0  0
 39 44  1  0  0  0  0
 40 52  1  0  0  0  0
 41 50  1  0  0  0  0
 42 71  1  0  0  0  0
 43 78  1  0  0  0  0
 44 46  1  0  0  0  0
 45 47  1  0  0  0  0
 45 48  1  0  0  0  0
 46 51  1  0  0  0  0
 47 53  1  0  0  0  0
 48 72  1  0  0  0  0
 49 53  1  0  0  0  0
 49 72  1  0  0  0  0
 50 78  1  0  0  0  0
 51 75  1  0  0  0  0
 52 71  1  0  0  0  0
 53 70  1  0  0  0  0
 55 67  1  0  0  0  0
 56 68  1  0  0  0  0
 57 68  1  0  0  0  0
 58 68  1  0  0  0  0
 59 79  1  0  0  0  0
 60 86  1  0  0  0  0
 61 62  1  0  0  0  0
 62 63  1  0  0  0  0
 63 77  1  0  0  0  0
 64 65  1  0  0  0  0
 64 78  1  0  0  0  0
 65 87  1  0  0  0  0
 66 68  1  0  0  0  0
 66 76  1  0  0  0  0
 67 79  1  0  0  0  0
 69 70  1  0  0  0  0
M  CHG  2  78   1  79   1
M  ISO  4  38 100  65 101  77 100  87 101
M  END
> <Batch ID>
0144

> <Smiles>
CNC(C)C(=O)NC(C(=O)N1Cc2cc([101O:1][101CH2:1]CN3CCc4c(OC)cc(C)c(CCC[100NH:0][100C:0](=O)N5CCCC(n6nc(-c7ccc(Oc8ccc(F)cc8F)cc7)c(C(N)=O)c6N)C5)c4C3)ccc2CC1C(=O)NC1CCCc2ccccc21)C(C)(C)C

> <Shape>
0.197

> <Color>
0.061

> <Negative vol penalty>
0.000

$$$$

  -OEChem-04052321263D

 89 98  0     1  0  0  0  0  0999 V2000
  -31.6576  -36.6013   27.9731 C   0  0  0  0  0  0  0  0  0  0  0  0
  -32.1995  -35.5144   27.2945 C   0  0  0  0  0  0  0  0  0  0  0  0
  -23.1743   -9.7565   20.1195 C   0  0  0  0  0  0  0  0  0  0  0  0
  -23.8481  -10.0298   22.4235 C   0  0  0  0  0  0  0  0  0  0  0  0
  -30.2816  -36.6730   28.1862 C   0  0  0  0  0  0  0  0  0  0  0  0
  -31.3658  -34.4980   26.8296 C   0  0  0  0  0  0  0  0  0  0  0  0
  -30.7498  -29.8031   21.4541 C   0  0  0  0  0  0  0  0  0  0  0  0
  -29.8596  -19.3995   22.6022 C   0  0  0  0  0  0  0  0  0  0  0  0
  -22.4651   -8.6057   20.4634 C   0  0  0  0  0  0  0  0  0  0  0  0
  -23.1389   -8.8790   22.7674 C   0  0  0  0  0  0  0  0  0  0  0  0
  -30.5649  -28.4394   21.2311 C   0  0  0  0  0  0  0  0  0  0  0  0
  -19.9225   -8.0162   23.3430 C   0  0  0  0  0  0  0  0  0  0  0  0
  -19.1248   -8.0658   24.4861 C   0  0  0  0  0  0  0  0  0  0  0  0
  -29.4476  -18.1093   22.2875 C   0  0  0  0  0  0  0  0  0  0  0  0
  -28.1943  -28.7087   21.5876 C   0  0  0  0  0  0  0  0  0  0  0  0
  -20.4093   -6.2665   25.4605 C   0  0  0  0  0  0  0  0  0  0  0  0
  -23.8659  -10.4686   21.0995 C   0  0  0  0  0  0  0  0  0  0  0  0
  -24.1178  -12.9799   20.7288 C   0  0  0  0  0  0  0  0  0  0  0  0
  -29.4295  -35.6617   27.7152 C   0  0  0  0  0  0  0  0  0  0  0  0
  -29.6580  -30.6293   21.7569 C   0  0  0  0  0  0  0  0  0  0  0  0
  -29.9772  -34.5555   27.0378 C   0  0  0  0  0  0  0  0  0  0  0  0
  -31.1193  -19.8366   22.2080 C   0  0  0  0  0  0  0  0  0  0  0  0
  -28.3677  -30.0831   21.8116 C   0  0  0  0  0  0  0  0  0  0  0  0
  -22.4474   -8.1670   21.7873 C   0  0  0  0  0  0  0  0  0  0  0  0
  -29.2874  -27.8914   21.3007 C   0  0  0  0  0  0  0  0  0  0  0  0
  -20.9636   -7.0917   23.2585 C   0  0  0  0  0  0  0  0  0  0  0  0
  -19.3682   -7.1910   25.5449 C   0  0  0  0  0  0  0  0  0  0  0  0
  -21.2070   -6.2169   24.3173 C   0  0  0  0  0  0  0  0  0  0  0  0
  -24.5992  -11.6571   20.7448 C   0  0  0  0  0  0  0  0  0  0  0  0
  -31.9226  -18.9520   21.5067 C   0  0  0  0  0  0  0  0  0  0  0  0
  -30.3257  -17.3021   21.5825 C   0  0  0  0  0  0  0  0  0  0  0  0
  -25.1940  -13.7321   20.3258 C   0  0  0  0  0  0  0  0  0  0  0  0
  -22.8144  -13.4837   21.0498 C   0  0  0  0  0  0  0  0  0  0  0  0
  -28.8293  -32.4312   24.2409 C   0  0  0  0  0  0  0  0  0  0  0  0
  -26.4061  -33.3326   22.2819 C   0  0  0  0  0  0  0  0  0  0  0  0
  -24.4136  -32.5968   19.6107 C   0  0  0  0  0  0  0  0  0  0  0  0
  -30.6074  -15.0122   20.5707 C   0  0  0  0  0  0  0  0  0  0  0  0
  -27.9538  -35.7596   28.0109 C   0  0  0  0  0  0  0  0  0  0  0  0
  -29.8708  -32.1032   21.9685 C   0  0  0  0  0  0  0  0  0  0  0  0
  -27.1598  -30.9307   22.1130 C   0  0  0  0  0  0  0  0  0  0  0  0
  -27.0985  -34.8259   27.1583 C   0  0  0  0  0  0  0  0  0  0  0  0
  -29.6718  -12.3247   18.4309 C   0  0  0  0  0  0  0  0  0  0  0  0
  -27.7049  -33.4266   27.1266 C   0  0  0  0  0  0  0  0  0  0  0  0
  -28.2291  -12.0202   18.8408 C   0  0  0  0  0  0  0  0  0  0  0  0
  -30.6306  -22.2860   21.9275 C   0  0  0  0  0  0  0  0  0  0  0  0
  -30.9951  -22.8927   24.2174 C   0  0  0  0  0  0  0  0  0  0  0  0
  -30.5327  -12.7127   19.6317 C   0  0  0  0  0  0  0  0  0  0  0  0
  -28.5504  -13.4967   20.8666 C   0  0  0  0  0  0  0  0  0  0  0  0
  -31.5687  -21.2206   22.5440 C   0  0  1  0  0  0  0  0  0  0  0  0
  -29.1028  -33.4453   26.4965 C   0  0  1  0  0  0  0  0  0  0  0  0
  -28.7545  -32.7582   22.7763 C   0  0  1  0  0  0  0  0  0  0  0  0
  -31.5280  -21.4646   24.0758 C   0  0  1  0  0  0  0  0  0  0  0  0
  -27.6289  -13.1639   19.6818 C   0  0  2  0  0  0  0  0  0  0  0  0
  -29.9482  -22.9430   23.1198 C   0  0  1  0  0  0  0  0  0  0  0  0
  -33.8836  -18.3956   20.0467 C   0  0  0  0  0  0  0  0  0  0  0  0
  -32.8262  -21.5724   26.2092 C   0  0  0  0  0  0  0  0  0  0  0  0
  -22.4984  -33.5102   18.2709 C   0  0  0  0  0  0  0  0  0  0  0  0
  -24.4789  -32.5694   24.5209 C   0  0  0  0  0  0  0  0  0  0  0  0
  -22.6254  -32.5900   22.8380 C   0  0  0  0  0  0  0  0  0  0  0  0
  -23.8956  -34.6827   23.3176 C   0  0  0  0  0  0  0  0  0  0  0  0
  -26.0298  -32.6678   17.1324 C   0  0  0  0  0  0  0  0  0  0  0  0
  -33.2859  -19.3676   21.0594 C   0  0  0  0  0  0  0  0  0  0  0  0
  -32.8825  -21.2764   24.7446 C   0  0  0  0  0  0  0  0  0  0  0  0
  -28.3306  -24.4676   21.9806 C   0  0  0  0  0  0  0  0  0  0  0  0
  -28.0174  -25.9351   21.7654 C   0  0  0  0  0  0  0  0  0  1  0  0
  -25.0095  -32.8293   22.0076 C   0  0  1  0  0  0  0  0  0  0  0  0
  -24.0110  -33.4167   18.3982 C   0  0  2  0  0  0  0  0  0  0  0  0
  -24.0251  -33.1513   23.1672 C   0  0  0  0  0  0  0  0  0  0  0  0
  -25.8813  -11.5705   20.3806 N   0  0  0  0  0  0  0  0  0  0  0  0
  -31.5570  -17.6915   21.1826 N   0  0  0  0  0  0  0  0  0  0  0  0
  -26.2147  -12.8484   20.1320 N   0  0  0  0  0  0  0  0  0  0  0  0
  -27.4203  -32.3651   22.3186 N   0  0  0  0  0  0  0  0  0  0  0  0
  -29.9038  -13.8045   20.3783 N   0  0  0  0  0  0  0  0  0  0  0  0
  -25.3574  -15.0565   20.1217 N   0  0  0  0  0  0  0  0  0  0  0  0
  -21.8252  -12.5734   21.4463 N   0  0  0  0  0  0  0  0  0  0  0  0
  -29.8962  -15.9892   21.2667 N   0  0  0  0  0  0  0  0  0  0  0  0
  -29.0064  -33.5335   25.0552 N   0  0  0  0  0  0  0  0  0  0  0  0
  -24.6190  -33.3909   20.7190 N   0  0  0  0  0  0  0  0  0  0  0  0
  -29.5534  -24.3445   22.8136 N   0  3  0  0  0  0  0  0  0  0  0  0
  -24.5502  -32.7998   17.1534 N   0  3  0  0  0  0  0  0  0  0  0  0
  -22.5306  -14.7030   20.9710 O   0  0  0  0  0  0  0  0  0  0  0  0
  -28.7320  -31.2652   24.6054 O   0  0  0  0  0  0  0  0  0  0  0  0
  -26.5915  -34.5405   22.4500 O   0  0  0  0  0  0  0  0  0  0  0  0
  -24.5304  -31.3737   19.5787 O   0  0  0  0  0  0  0  0  0  0  0  0
  -31.7459  -15.1780   20.1255 O   0  0  0  0  0  0  0  0  0  0  0  0
  -21.7552   -7.0442   22.1233 O   0  0  0  0  0  0  0  0  0  0  0  0
  -29.1041  -26.5605   21.0840 O   0  0  0  0  0  0  0  0  0  1  0  0
  -18.6031   -7.2398   26.6432 F   0  0  0  0  0  0  0  0  0  0  0  0
  -22.2065   -5.3273   24.2425 F   0  0  0  0  0  0  0  0  0  0  0  0
  1  2  1  0  0  0  0
  1  5  2  0  0  0  0
  2  6  2  0  0  0  0
  3  9  2  0  0  0  0
  3 17  1  0  0  0  0
  4 10  1  0  0  0  0
  4 17  2  0  0  0  0
  5 19  1  0  0  0  0
  6 21  1  0  0  0  0
  7 11  2  0  0  0  0
  7 20  1  0  0  0  0
  8 14  2  0  0  0  0
  8 22  1  0  0  0  0
  9 24  1  0  0  0  0
 10 24  2  0  0  0  0
 11 25  1  0  0  0  0
 12 13  2  0  0  0  0
 12 26  1  0  0  0  0
 13 27  1  0  0  0  0
 14 31  1  0  0  0  0
 15 23  1  0  0  0  0
 15 25  2  0  0  0  0
 16 27  2  0  0  0  0
 16 28  1  0  0  0  0
 17 29  1  0  0  0  0
 18 29  1  0  0  0  0
 18 32  2  0  0  0  0
 18 33  1  0  0  0  0
 19 21  2  0  0  0  0
 19 38  1  0  0  0  0
 20 23  2  0  0  0  0
 20 39  1  0  0  0  0
 21 50  1  0  0  0  0
 22 30  2  0  0  0  0
 22 49  1  0  0  0  0
 23 40  1  0  0  0  0
 24 86  1  0  0  0  0
 25 87  1  0  0  0  0
 26 28  2  0  0  0  0
 26 86  1  0  0  0  0
 27 88  1  0  0  0  0
 28 89  1  0  0  0  0
 29 69  2  0  0  0  0
 30 62  1  0  0  0  0
 30 70  1  0  0  0  0
 31 70  2  0  0  0  0
 31 76  1  0  0  0  0
 32 71  1  0  0  0  0
 32 74  1  0  0  0  0
 33 75  1  0  0  0  0
 33 81  2  0  0  0  0
 34 51  1  0  0  0  0
 34 77  1  0  0  0  0
 34 82  2  0  0  0  0
 35 66  1  0  0  0  0
 35 72  1  0  0  0  0
 35 83  2  0  0  0  0
 36 67  1  0  0  0  0
 36 78  1  0  0  0  0
 36 84  2  0  0  0  0
 37 73  1  0  0  0  0
 37 76  1  0  0  0  0
 37 85  2  0  0  0  0
 38 41  1  0  0  0  0
 39 51  1  0  0  0  0
 40 72  1  0  0  0  0
 41 43  1  0  0  0  0
 42 44  1  0  0  0  0
 42 47  1  0  0  0  0
 43 50  1  0  0  0  0
 44 53  1  0  0  0  0
 45 49  1  0  0  0  0
 45 54  1  0  0  0  0
 46 52  1  0  0  0  0
 46 54  1  0  0  0  0
 47 73  1  0  0  0  0
 48 53  1  0  0  0  0
 48 73  1  0  0  0  0
 49 52  1  0  0  0  0
 50 77  1  0  0  0  0
 51 72  1  0  0  0  0
 52 63  1  0  0  0  0
 53 71  1  0  0  0  0
 54 79  1  0  0  0  0
 55 62  1  0  0  0  0
 56 63  1  0  0  0  0
 57 67  1  0  0  0  0
 58 68  1  0  0  0  0
 59 68  1  0  0  0  0
 60 68  1  0  0  0  0
 61 80  1  0  0  0  0
 64 65  1  0  0  0  0
 64 79  1  0  0  0  0
 65 87  1  0  0  0  0
 66 68  1  0  0  0  0
 66 78  1  0  0  0  0
 67 80  1  0  0  0  0
 69 71  1  0  0  0  0
M  CHG  2  79   1  80   1
M  ISO  4  37 100  65 101  76 100  87 101
M  END
> <Batch ID>
0144

> <Smiles>
CCc1nc([100NH:0][100C:0](=O)N2CCCC(n3nc(-c4ccc(Oc5ccc(F)cc5F)cc4)c(C(N)=O)c3N)C2)ccc1C1CC(NC[101CH2:1][101O:1]c2ccc3c(c2)CN(C(=O)C(NC(=O)C(C)NC)C(C)(C)C)C(C(=O)NC2CCCc4ccccc42)C3)CC1CC

> <Shape>
0.255

> <Color>
0.191

> <Negative vol penalty>
0.000

$$$$

  -OEChem-04052321263D

 93102  0     1  0  0  0  0  0999 V2000
  -22.8059  -34.6301   14.6811 C   0  0  0  0  0  0  0  0  0  0  0  0
  -23.4670  -33.4271   14.9074 C   0  0  0  0  0  0  0  0  0  0  0  0
  -24.0226  -10.1653   22.6849 C   0  0  0  0  0  0  0  0  0  0  0  0
  -25.2015  -11.9586   23.7946 C   0  0  0  0  0  0  0  0  0  0  0  0
  -22.9043  -35.6640   15.6114 C   0  0  0  0  0  0  0  0  0  0  0  0
  -24.2279  -33.2577   16.0636 C   0  0  0  0  0  0  0  0  0  0  0  0
  -24.9500  -28.0910   19.2714 C   0  0  0  0  0  0  0  0  0  0  0  0
  -29.6968  -20.6815   20.1557 C   0  0  0  0  0  0  0  0  0  0  0  0
  -23.7953   -9.5523   23.9171 C   0  0  0  0  0  0  0  0  0  0  0  0
  -24.9742  -11.3456   25.0267 C   0  0  0  0  0  0  0  0  0  0  0  0
  -25.9637  -27.1341   19.2927 C   0  0  0  0  0  0  0  0  0  0  0  0
  -29.4202  -21.8817   20.8105 C   0  0  0  0  0  0  0  0  0  0  0  0
  -21.6853   -9.9244   26.5329 C   0  0  0  0  0  0  0  0  0  0  0  0
  -20.4041   -9.4350   26.7869 C   0  0  0  0  0  0  0  0  0  0  0  0
  -26.9579  -28.2383   21.1931 C   0  0  0  0  0  0  0  0  0  0  0  0
  -27.2242  -21.9247   19.8042 C   0  0  0  0  0  0  0  0  0  0  0  0
  -21.3077   -7.2110   27.0594 C   0  0  0  0  0  0  0  0  0  0  0  0
  -24.7258  -11.3684   22.6237 C   0  0  0  0  0  0  0  0  0  0  0  0
  -24.1381  -12.9433   20.7048 C   0  0  0  0  0  0  0  0  0  0  0  0
  -23.6589  -35.5037   16.7842 C   0  0  0  0  0  0  0  0  0  0  0  0
  -24.9387  -29.1368   20.2056 C   0  0  0  0  0  0  0  0  0  0  0  0
  -24.3376  -34.2909   17.0098 C   0  0  0  0  0  0  0  0  0  0  0  0
  -28.7370  -20.1030   19.3251 C   0  0  0  0  0  0  0  0  0  0  0  0
  -25.9415  -29.2057   21.1831 C   0  0  0  0  0  0  0  0  0  0  0  0
  -27.5007  -20.7245   19.1494 C   0  0  0  0  0  0  0  0  0  0  0  0
  -24.2711  -10.1424   25.0880 C   0  0  0  0  0  0  0  0  0  0  0  0
  -26.9695  -27.2093   20.2518 C   0  0  0  0  0  0  0  0  0  0  0  0
  -28.1839  -22.5033   20.6348 C   0  0  0  0  0  0  0  0  0  0  0  0
  -22.7778   -9.0571   26.5421 C   0  0  0  0  0  0  0  0  0  0  0  0
  -20.2153   -8.0783   27.0502 C   0  0  0  0  0  0  0  0  0  0  0  0
  -22.5890   -7.7004   26.8054 C   0  0  0  0  0  0  0  0  0  0  0  0
  -24.9614  -12.0019   21.3511 C   0  0  0  0  0  0  0  0  0  0  0  0
  -24.7994  -13.2327   19.5363 C   0  0  0  0  0  0  0  0  0  0  0  0
  -22.8875  -13.5059   21.1233 C   0  0  0  0  0  0  0  0  0  0  0  0
  -25.1143  -32.3056   20.0277 C   0  0  0  0  0  0  0  0  0  0  0  0
  -24.5393  -32.1269   23.2152 C   0  0  0  0  0  0  0  0  0  0  0  0
  -24.6851  -30.2887   26.0869 C   0  0  0  0  0  0  0  0  0  0  0  0
  -30.5594  -12.9331   17.9291 C   0  0  0  0  0  0  0  0  0  0  0  0
  -23.7742  -36.6665   17.7378 C   0  0  0  0  0  0  0  0  0  0  0  0
  -23.8234  -30.1458   20.1860 C   0  0  0  0  0  0  0  0  0  0  0  0
  -25.9636  -30.2970   22.2210 C   0  0  0  0  0  0  0  0  0  0  0  0
  -24.2954  -36.2733   19.1176 C   0  0  0  0  0  0  0  0  0  0  0  0
  -27.8116  -11.3001   16.3609 C   0  0  0  0  0  0  0  0  0  0  0  0
  -25.5122  -35.3625   18.9890 C   0  0  0  0  0  0  0  0  0  0  0  0
  -26.6952  -11.3798   17.4037 C   0  0  0  0  0  0  0  0  0  0  0  0
  -29.1777  -11.0933   17.0113 C   0  0  0  0  0  0  0  0  0  0  0  0
  -28.4067  -12.1581   19.0959 C   0  0  0  0  0  0  0  0  0  0  0  0
  -30.6742  -17.4568   17.5271 C   0  0  0  0  0  0  0  0  0  0  0  0
  -29.0561  -18.8177   18.6348 C   0  0  1  0  0  0  0  0  0  0  0  0
  -25.1524  -34.0601   18.2639 C   0  0  1  0  0  0  0  0  0  0  0  0
  -24.1953  -31.4608   20.8641 C   0  0  1  0  0  0  0  0  0  0  0  0
  -30.3189  -18.9188   17.7687 C   0  0  2  0  0  0  0  0  0  0  0  0
  -27.0171  -12.4222   18.4913 C   0  0  2  0  0  0  0  0  0  0  0  0
  -29.4367  -17.7182   19.6379 C   0  0  1  0  0  0  0  0  0  0  0  0
  -26.4583  -20.1244   18.2642 C   0  0  0  0  0  0  0  0  0  0  0  0
  -30.1147  -19.6805   16.4667 C   0  0  0  0  0  0  0  0  0  0  0  0
  -24.1772  -30.4246   28.5406 C   0  0  0  0  0  0  0  0  0  0  0  0
  -27.5764  -17.8055   21.3359 C   0  0  0  0  0  0  0  0  0  0  0  0
  -33.0253  -14.1668   19.6679 C   0  0  0  0  0  0  0  0  0  0  0  0
  -27.0311  -33.8375   23.6337 C   0  0  0  0  0  0  0  0  0  0  0  0
  -27.0131  -33.1509   26.0412 C   0  0  0  0  0  0  0  0  0  0  0  0
  -25.0953  -34.4380   25.0988 C   0  0  0  0  0  0  0  0  0  0  0  0
  -22.7417  -28.0624   25.9261 C   0  0  0  0  0  0  0  0  0  0  0  0
  -31.4194  -16.1476   19.5523 C   0  0  0  0  0  0  0  0  0  0  0  0
  -28.5414  -25.9771   21.5428 C   0  0  0  0  0  0  0  0  0  1  0  0
  -29.0179  -24.5375   21.5414 C   0  0  0  0  0  0  0  0  0  0  0  0
  -25.3979  -32.0128   24.4516 C   0  0  1  0  0  0  0  0  0  0  0  0
  -23.6532  -30.0278   27.1693 C   0  0  2  0  0  0  0  0  0  0  0  0
  -28.2422  -16.9915   20.2368 C   0  0  1  0  0  0  0  0  0  0  0  0
  -31.8289  -14.7984   18.9627 C   0  0  2  0  0  0  0  0  0  0  0  0
  -26.1353  -33.3402   24.7857 C   0  0  0  0  0  0  0  0  0  0  0  0
  -26.0615  -11.7124   20.6513 N   0  0  0  0  0  0  0  0  0  0  0  0
  -25.9342  -12.4763   19.5529 N   0  0  0  0  0  0  0  0  0  0  0  0
  -24.8549  -31.2635   22.1565 N   0  0  0  0  0  0  0  0  0  0  0  0
  -29.4220  -12.1154   18.0319 N   0  0  0  0  0  0  0  0  0  0  0  0
  -24.5150  -14.0579   18.5064 N   0  0  0  0  0  0  0  0  0  0  0  0
  -22.3493  -13.0986   22.3516 N   0  0  0  0  0  0  0  0  0  0  0  0
  -24.4599  -33.1580   19.1590 N   0  0  0  0  0  0  0  0  0  0  0  0
  -24.5213  -31.5323   25.5143 N   0  0  0  0  0  0  0  0  0  0  0  0
  -30.7123  -13.8801   18.9343 N   0  0  0  0  0  0  0  0  0  0  0  0
  -30.2652  -16.7421   18.8034 N   0  3  2  0  0  0  0  0  0  0  0  0
  -23.2932  -28.5820   27.2040 N   0  3  0  0  0  0  0  0  0  0  0  0
  -22.2576  -14.3326   20.4209 O   0  0  0  0  0  0  0  0  0  0  0  0
  -26.3272  -32.1934   20.1617 O   0  0  0  0  0  0  0  0  0  0  0  0
  -23.6180  -32.9468   23.1922 O   0  0  0  0  0  0  0  0  0  0  0  0
  -25.5521  -29.4726   25.7825 O   0  0  0  0  0  0  0  0  0  0  0  0
  -31.3753  -12.8306   17.0067 O   0  0  0  0  0  0  0  0  0  0  0  0
  -27.2922  -16.7251   19.2095 O   0  0  0  0  0  0  0  0  0  0  0  0
  -24.0493   -9.5447   26.2905 O   0  0  0  0  0  0  0  0  0  0  0  0
  -27.9604  -26.2769   20.2744 O   0  0  0  0  0  0  0  0  0  1  0  0
  -27.9124  -23.6823   21.2775 O   0  0  0  0  0  0  0  0  0  0  0  0
  -18.9851   -7.6087   27.2956 F   0  0  0  0  0  0  0  0  0  0  0  0
  -23.6348   -6.8625   26.8167 F   0  0  0  0  0  0  0  0  0  0  0  0
  1  2  1  0  0  0  0
  1  5  2  0  0  0  0
  2  6  2  0  0  0  0
  3  9  2  0  0  0  0
  3 18  1  0  0  0  0
  4 10  1  0  0  0  0
  4 18  2  0  0  0  0
  5 20  1  0  0  0  0
  6 22  1  0  0  0  0
  7 11  2  0  0  0  0
  7 21  1  0  0  0  0
  8 12  2  0  0  0  0
  8 23  1  0  0  0  0
  9 26  1  0  0  0  0
 10 26  2  0  0  0  0
 11 27  1  0  0  0  0
 12 28  1  0  0  0  0
 13 14  2  0  0  0  0
 13 29  1  0  0  0  0
 14 30  1  0  0  0  0
 15 24  1  0  0  0  0
 15 27  2  0  0  0  0
 16 25  1  0  0  0  0
 16 28  2  0  0  0  0
 17 30  2  0  0  0  0
 17 31  1  0  0  0  0
 18 32  1  0  0  0  0
 19 32  1  0  0  0  0
 19 33  2  0  0  0  0
 19 34  1  0  0  0  0
 20 22  2  0  0  0  0
 20 39  1  0  0  0  0
 21 24  2  0  0  0  0
 21 40  1  0  0  0  0
 22 50  1  0  0  0  0
 23 25  2  0  0  0  0
 23 49  1  0  0  0  0
 24 41  1  0  0  0  0
 25 55  1  0  0  0  0
 26 89  1  0  0  0  0
 27 90  1  0  0  0  0
 28 91  1  0  0  0  0
 29 31  2  0  0  0  0
 29 89  1  0  0  0  0
 30 92  1  0  0  0  0
 31 93  1  0  0  0  0
 32 72  2  0  0  0  0
 33 73  1  0  0  0  0
 33 76  1  0  0  0  0
 34 77  1  0  0  0  0
 34 83  2  0  0  0  0
 35 51  1  0  0  0  0
 35 78  1  0  0  0  0
 35 84  2  0  0  0  0
 36 67  1  0  0  0  0
 36 74  1  0  0  0  0
 36 85  2  0  0  0  0
 37 68  1  0  0  0  0
 37 79  1  0  0  0  0
 37 86  2  0  0  0  0
 38 75  1  0  0  0  0
 38 80  1  0  0  0  0
 38 87  2  0  0  0  0
 39 42  1  0  0  0  0
 40 51  1  0  0  0  0
 41 74  1  0  0  0  0
 42 44  1  0  0  0  0
 43 45  1  0  0  0  0
 43 46  1  0  0  0  0
 44 50  1  0  0  0  0
 45 53  1  0  0  0  0
 46 75  1  0  0  0  0
 47 53  1  0  0  0  0
 47 75  1  0  0  0  0
 48 52  1  0  0  0  0
 48 81  1  0  0  0  0
 49 52  1  0  0  0  0
 49 54  1  0  0  0  0
 50 78  1  0  0  0  0
 51 74  1  0  0  0  0
 52 56  1  0  0  0  0
 53 73  1  0  0  0  0
 54 69  1  0  0  0  0
 54 81  1  0  0  0  0
 57 68  1  0  0  0  0
 58 69  1  0  0  0  0
 59 70  1  0  0  0  0
 60 71  1  0  0  0  0
 61 71  1  0  0  0  0
 62 71  1  0  0  0  0
 63 82  1  0  0  0  0
 64 70  1  0  0  0  0
 64 81  1  0  0  0  0
 65 66  1  0  0  0  0
 65 90  1  0  0  0  0
 66 91  1  0  0  0  0
 67 71  1  0  0  0  0
 67 79  1  0  0  0  0
 68 82  1  0  0  0  0
 69 88  1  0  0  0  0
 70 80  1  0  0  0  0
 72 73  1  0  0  0  0
M  CHG  2  81   1  82   1
M  ISO  4  38 100  65 101  80 100  90 101
M  END
> <Batch ID>
0144

> <Smiles>
CNC(C)C(=O)NC(C(=O)N1Cc2cc([101O:1][101CH2:1]COc3ccc(C4C(C)CN(CC(C)[100NH:0][100C:0](=O)N5CCCC(n6nc(-c7ccc(Oc8ccc(F)cc8F)cc7)c(C(N)=O)c6N)C5)C4C(C)O)c(C)c3)ccc2CC1C(=O)NC1CCCc2ccccc21)C(C)(C)C

> <Shape>
0.267

> <Color>
0.119

> <Negative vol penalty>
0.000

$$$$

  -OEChem-04052321263D

 92101  0     1  0  0  0  0  0999 V2000
  -30.9755  -33.7660   22.6125 C   0  0  0  0  0  0  0  0  0  0  0  0
  -30.5564  -32.4436   22.5077 C   0  0  0  0  0  0  0  0  0  0  0  0
  -24.5527   -9.3451   21.9811 C   0  0  0  0  0  0  0  0  0  0  0  0
  -24.3628   -8.6889   19.6637 C   0  0  0  0  0  0  0  0  0  0  0  0
  -30.1138  -34.7299   23.1345 C   0  0  0  0  0  0  0  0  0  0  0  0
  -29.2757  -32.0841   22.9259 C   0  0  0  0  0  0  0  0  0  0  0  0
  -26.9382  -29.0365   19.6254 C   0  0  0  0  0  0  0  0  0  0  0  0
  -23.3822   -8.6459   22.2750 C   0  0  0  0  0  0  0  0  0  0  0  0
  -23.1922   -7.9897   19.9576 C   0  0  0  0  0  0  0  0  0  0  0  0
  -27.3084  -27.6924   19.6274 C   0  0  0  0  0  0  0  0  0  0  0  0
  -20.6402   -6.7344   23.7043 C   0  0  0  0  0  0  0  0  0  0  0  0
  -20.6340   -5.9303   24.8440 C   0  0  0  0  0  0  0  0  0  0  0  0
  -30.9795  -23.3042   24.7148 C   0  0  0  0  0  0  0  0  0  0  0  0
  -25.3529  -27.1620   20.9366 C   0  0  0  0  0  0  0  0  0  0  0  0
  -30.0513  -22.1951   22.3293 C   0  0  0  0  0  0  0  0  0  0  0  0
  -22.4560   -4.6292   23.9361 C   0  0  0  0  0  0  0  0  0  0  0  0
  -25.0431   -9.3667   20.6754 C   0  0  0  0  0  0  0  0  0  0  0  0
  -31.3911  -22.0275   24.3328 C   0  0  0  0  0  0  0  0  0  0  0  0
  -27.5693   -9.5940   20.4030 C   0  0  0  0  0  0  0  0  0  0  0  0
  -28.8185  -34.3838   23.5504 C   0  0  0  0  0  0  0  0  0  0  0  0
  -25.7764  -29.4558   20.2893 C   0  0  0  0  0  0  0  0  0  0  0  0
  -28.3964  -33.0439   23.4552 C   0  0  0  0  0  0  0  0  0  0  0  0
  -24.9689  -28.5117   20.9394 C   0  0  0  0  0  0  0  0  0  0  0  0
  -30.1037  -24.0264   23.9042 C   0  0  0  0  0  0  0  0  0  0  0  0
  -30.9271  -21.4729   23.1400 C   0  0  0  0  0  0  0  0  0  0  0  0
  -22.7019   -7.9682   21.2633 C   0  0  0  0  0  0  0  0  0  0  0  0
  -26.5173  -26.7553   20.2855 C   0  0  0  0  0  0  0  0  0  0  0  0
  -21.5543   -6.4859   22.6804 C   0  0  0  0  0  0  0  0  0  0  0  0
  -29.6397  -23.4719   22.7114 C   0  0  0  0  0  0  0  0  0  0  0  0
  -21.5419   -4.8777   24.9599 C   0  0  0  0  0  0  0  0  0  0  0  0
  -22.4622   -5.4333   22.7963 C   0  0  0  0  0  0  0  0  0  0  0  0
  -26.2519  -10.0893   20.3710 C   0  0  0  0  0  0  0  0  0  0  0  0
  -28.3475  -10.6644   20.0353 C   0  0  0  0  0  0  0  0  0  0  0  0
  -32.3078  -21.2988   25.2007 C   0  0  0  0  0  0  0  0  0  0  0  0
  -28.0468   -8.2836   20.7354 C   0  0  0  0  0  0  0  0  0  0  0  0
  -25.1627  -31.4167   22.7146 C   0  0  0  0  0  0  0  0  0  0  0  0
  -22.0781  -30.8220   21.9060 C   0  0  0  0  0  0  0  0  0  0  0  0
  -19.8230  -28.7347   20.4212 C   0  0  0  0  0  0  0  0  0  0  0  0
  -29.7793  -15.8322   20.2569 C   0  0  0  0  0  0  0  0  0  0  0  0
  -27.9396  -35.4516   24.1520 C   0  0  0  0  0  0  0  0  0  0  0  0
  -25.3767  -30.9054   20.2552 C   0  0  0  0  0  0  0  0  0  0  0  0
  -23.7011  -28.9074   21.6498 C   0  0  0  0  0  0  0  0  0  0  0  0
  -26.4664  -35.0583   24.2248 C   0  0  0  0  0  0  0  0  0  0  0  0
  -27.0854  -15.1599   18.1074 C   0  0  0  0  0  0  0  0  0  0  0  0
  -26.3177  -33.6464   24.7826 C   0  0  0  0  0  0  0  0  0  0  0  0
  -26.7277  -13.7289   18.5078 C   0  0  0  0  0  0  0  0  0  0  0  0
  -29.4655  -19.0207   21.7140 C   0  0  0  0  0  0  0  0  0  0  0  0
  -31.8556  -18.4670   21.1239 C   0  0  0  0  0  0  0  0  0  0  0  0
  -27.4321  -16.0249   19.3206 C   0  0  0  0  0  0  0  0  0  0  0  0
  -28.9981  -18.2330   20.4866 C   0  0  0  0  0  0  0  0  0  0  0  0
  -31.3444  -17.7169   19.8970 C   0  0  0  0  0  0  0  0  0  0  0  0
  -28.1264  -14.0173   20.5880 C   0  0  0  0  0  0  0  0  0  0  0  0
  -27.0058  -32.6195   23.8752 C   0  0  1  0  0  0  0  0  0  0  0  0
  -24.4463  -31.2958   21.3994 C   0  0  1  0  0  0  0  0  0  0  0  0
  -27.8299  -13.1087   19.3849 C   0  0  1  0  0  0  0  0  0  0  0  0
  -30.8784  -19.5765   21.5209 C   0  0  0  0  0  0  0  0  0  0  0  0
  -29.9414  -27.8833   23.9617 C   0  0  0  0  0  0  0  0  0  0  0  0
  -17.3692  -28.4991   19.9515 C   0  0  0  0  0  0  0  0  0  0  0  0
  -21.6005  -30.0268   24.8129 C   0  0  0  0  0  0  0  0  0  0  0  0
  -19.4715  -28.9260   24.0891 C   0  0  0  0  0  0  0  0  0  0  0  0
  -19.7673  -31.3846   23.7880 C   0  0  0  0  0  0  0  0  0  0  0  0
  -20.2649  -28.7351   17.4948 C   0  0  0  0  0  0  0  0  0  0  0  0
  -29.6731  -25.3916   24.3291 C   0  0  0  0  0  0  0  0  0  0  0  0
  -30.4055  -26.4947   23.5515 C   0  0  0  0  0  0  0  0  0  0  0  0
  -26.4910  -24.6670   21.4232 C   0  0  0  0  0  0  0  0  0  1  0  0
  -27.5126  -23.5700   21.6523 C   0  0  0  0  0  0  0  0  0  0  0  0
  -21.0489  -29.7908   22.3017 C   0  0  1  0  0  0  0  0  0  0  0  0
  -18.7060  -29.0008   19.4283 C   0  0  2  0  0  0  0  0  0  0  0  0
  -20.4969  -30.0246   23.7363 C   0  0  0  0  0  0  0  0  0  0  0  0
  -26.1927  -11.3743   20.0114 N   0  0  0  0  0  0  0  0  0  0  0  0
  -27.4827  -11.6956   19.8143 N   0  0  0  0  0  0  0  0  0  0  0  0
  -23.3562  -30.3376   21.5935 N   0  0  0  0  0  0  0  0  0  0  0  0
  -28.4578  -15.3741   20.1476 N   0  0  0  0  0  0  0  0  0  0  0  0
  -29.9884  -17.2121   20.1151 N   0  0  0  0  0  0  0  0  0  0  0  0
  -29.6804  -10.8146   19.8828 N   0  0  0  0  0  0  0  0  0  0  0  0
  -31.7551  -20.4880   26.1857 N   0  0  0  0  0  0  0  0  0  0  0  0
  -27.1117   -7.3020   21.0908 N   0  0  0  0  0  0  0  0  0  0  0  0
  -31.3226  -20.2075   22.7442 N   0  0  0  0  0  0  0  0  0  0  0  0
  -26.1881  -32.3431   22.7136 N   0  0  0  0  0  0  0  0  0  0  0  0
  -20.0293  -29.8106   21.2585 N   0  0  0  0  0  0  0  0  0  0  0  0
  -18.9901  -28.3188   18.1340 N   0  3  0  0  0  0  0  0  0  0  0  0
  -33.5385  -21.4100   25.0775 O   0  0  0  0  0  0  0  0  0  0  0  0
  -29.2679   -7.9964   20.7337 O   0  0  0  0  0  0  0  0  0  0  0  0
  -24.8103  -30.7221   23.6606 O   0  0  0  0  0  0  0  0  0  0  0  0
  -21.7578  -32.0126   21.8686 O   0  0  0  0  0  0  0  0  0  0  0  0
  -20.4474  -27.6766   20.4535 O   0  0  0  0  0  0  0  0  0  0  0  0
  -30.7177  -15.0540   20.4689 O   0  0  0  0  0  0  0  0  0  0  0  0
  -21.5598   -7.2856   21.5498 O   0  0  0  0  0  0  0  0  0  0  0  0
  -26.8791  -25.4338   20.2896 O   0  0  0  0  0  0  0  0  0  1  0  0
  -28.7841  -24.1634   21.9077 O   0  0  0  0  0  0  0  0  0  0  0  0
  -21.5368   -4.1066   26.0552 F   0  0  0  0  0  0  0  0  0  0  0  0
  -23.3436   -5.1904   21.8165 F   0  0  0  0  0  0  0  0  0  0  0  0
  1  2  1  0  0  0  0
  1  5  2  0  0  0  0
  2  6  2  0  0  0  0
  3  8  2  0  0  0  0
  3 17  1  0  0  0  0
  4  9  1  0  0  0  0
  4 17  2  0  0  0  0
  5 20  1  0  0  0  0
  6 22  1  0  0  0  0
  7 10  2  0  0  0  0
  7 21  1  0  0  0  0
  8 26  1  0  0  0  0
  9 26  2  0  0  0  0
 10 27  1  0  0  0  0
 11 12  2  0  0  0  0
 11 28  1  0  0  0  0
 12 30  1  0  0  0  0
 13 18  2  0  0  0  0
 13 24  1  0  0  0  0
 14 23  1  0  0  0  0
 14 27  2  0  0  0  0
 15 25  2  0  0  0  0
 15 29  1  0  0  0  0
 16 30  2  0  0  0  0
 16 31  1  0  0  0  0
 17 32  1  0  0  0  0
 18 25  1  0  0  0  0
 18 34  1  0  0  0  0
 19 32  1  0  0  0  0
 19 33  2  0  0  0  0
 19 35  1  0  0  0  0
 20 22  2  0  0  0  0
 20 40  1  0  0  0  0
 21 23  2  0  0  0  0
 21 41  1  0  0  0  0
 22 53  1  0  0  0  0
 23 42  1  0  0  0  0
 24 29  2  0  0  0  0
 24 63  1  0  0  0  0
 25 78  1  0  0  0  0
 26 88  1  0  0  0  0
 27 89  1  0  0  0  0
 28 31  2  0  0  0  0
 28 88  1  0  0  0  0
 29 90  1  0  0  0  0
 30 91  1  0  0  0  0
 31 92  1  0  0  0  0
 32 70  2  0  0  0  0
 33 71  1  0  0  0  0
 33 75  1  0  0  0  0
 34 76  1  0  0  0  0
 34 82  2  0  0  0  0
 35 77  1  0  0  0  0
 35 83  2  0  0  0  0
 36 54  1  0  0  0  0
 36 79  1  0  0  0  0
 36 84  2  0  0  0  0
 37 67  1  0  0  0  0
 37 72  1  0  0  0  0
 37 85  2  0  0  0  0
 38 68  1  0  0  0  0
 38 80  1  0  0  0  0
 38 86  2  0  0  0  0
 39 73  1  0  0  0  0
 39 74  1  0  0  0  0
 39 87  2  0  0  0  0
 40 43  1  0  0  0  0
 41 54  1  0  0  0  0
 42 72  1  0  0  0  0
 43 45  1  0  0  0  0
 44 46  1  0  0  0  0
 44 49  1  0  0  0  0
 45 53  1  0  0  0  0
 46 55  1  0  0  0  0
 47 50  1  0  0  0  0
 47 56  1  0  0  0  0
 48 51  1  0  0  0  0
 48 56  1  0  0  0  0
 49 73  1  0  0  0  0
 50 74  1  0  0  0  0
 51 74  1  0  0  0  0
 52 55  1  0  0  0  0
 52 73  1  0  0  0  0
 53 79  1  0  0  0  0
 54 72  1  0  0  0  0
 55 71  1  0  0  0  0
 56 78  1  0  0  0  0
 57 64  1  0  0  0  0
 58 68  1  0  0  0  0
 59 69  1  0  0  0  0
 60 69  1  0  0  0  0
 61 69  1  0  0  0  0
 62 81  1  0  0  0  0
 63 64  1  0  0  0  0
 65 66  1  0  0  0  0
 65 89  1  0  0  0  0
 66 90  1  0  0  0  0
 67 69  1  0  0  0  0
 67 80  1  0  0  0  0
 68 81  1  0  0  0  0
 70 71  1  0  0  0  0
M  CHG  1  81   1
M  ISO  4  39 100  65 101  74 100  89 101
M  END
> <Batch ID>
0144

> <Smiles>
CCCc1cc(C(N)=O)c(NC2CC[100N:0]([100C:0](=O)N3CCCC(n4nc(-c5ccc(Oc6ccc(F)cc6F)cc5)c(C(N)=O)c4N)C3)CC2)cc1OC[101CH2:1][101O:1]c1ccc2c(c1)CN(C(=O)C(NC(=O)C(C)NC)C(C)(C)C)C(C(=O)NC1CCCc3ccccc31)C2

> <Shape>
0.263

> <Color>
0.090

> <Negative vol penalty>
0.000

$$$$

  -OEChem-04052321263D

 88 97  0     1  0  0  0  0  0999 V2000
  -21.8105  -34.6477   21.9200 C   0  0  0  0  0  0  0  0  0  0  0  0
  -22.8776  -33.8094   21.6134 C   0  0  0  0  0  0  0  0  0  0  0  0
  -23.9043  -10.2625   22.6861 C   0  0  0  0  0  0  0  0  0  0  0  0
  -24.4251  -11.9977   24.2845 C   0  0  0  0  0  0  0  0  0  0  0  0
  -20.7788  -34.1899   22.7385 C   0  0  0  0  0  0  0  0  0  0  0  0
  -22.9141  -32.5132   22.1261 C   0  0  0  0  0  0  0  0  0  0  0  0
  -25.1559  -27.5255   19.3685 C   0  0  0  0  0  0  0  0  0  0  0  0
  -30.7252  -20.1147   20.4713 C   0  0  0  0  0  0  0  0  0  0  0  0
  -23.3952   -9.4687   23.7137 C   0  0  0  0  0  0  0  0  0  0  0  0
  -23.9159  -11.2039   25.3122 C   0  0  0  0  0  0  0  0  0  0  0  0
  -26.3782  -26.8636   19.4763 C   0  0  0  0  0  0  0  0  0  0  0  0
  -30.2877  -21.2929   19.8664 C   0  0  0  0  0  0  0  0  0  0  0  0
  -20.5517   -9.2703   25.5326 C   0  0  0  0  0  0  0  0  0  0  0  0
  -19.3348   -8.6255   25.3114 C   0  0  0  0  0  0  0  0  0  0  0  0
  -25.3997  -25.3271   21.0577 C   0  0  0  0  0  0  0  0  0  0  0  0
  -27.9966  -20.6756   20.3215 C   0  0  0  0  0  0  0  0  0  0  0  0
  -20.4078   -6.4865   25.6443 C   0  0  0  0  0  0  0  0  0  0  0  0
  -24.4194  -11.5271   22.9715 C   0  0  0  0  0  0  0  0  0  0  0  0
  -24.2405  -13.2806   21.1274 C   0  0  0  0  0  0  0  0  0  0  0  0
  -20.7979  -32.8841   23.2535 C   0  0  0  0  0  0  0  0  0  0  0  0
  -24.0474  -27.0992   20.1140 C   0  0  0  0  0  0  0  0  0  0  0  0
  -21.8824  -32.0379   22.9533 C   0  0  0  0  0  0  0  0  0  0  0  0
  -24.1638  -25.9837   20.9557 C   0  0  0  0  0  0  0  0  0  0  0  0
  -28.4342  -19.4974   20.9263 C   0  0  0  0  0  0  0  0  0  0  0  0
  -29.7985  -19.2169   21.0012 C   0  0  0  0  0  0  0  0  0  0  0  0
  -23.4009   -9.9393   25.0268 C   0  0  0  0  0  0  0  0  0  0  0  0
  -26.5010  -25.7660   20.3232 C   0  0  0  0  0  0  0  0  0  0  0  0
  -28.9233  -21.5734   19.7915 C   0  0  0  0  0  0  0  0  0  0  0  0
  -21.6967   -8.5233   25.8096 C   0  0  0  0  0  0  0  0  0  0  0  0
  -19.2629   -7.2336   25.3672 C   0  0  0  0  0  0  0  0  0  0  0  0
  -21.6247   -7.1314   25.8655 C   0  0  0  0  0  0  0  0  0  0  0  0
  -24.9460  -12.3474   21.9104 C   0  0  0  0  0  0  0  0  0  0  0  0
  -25.1832  -13.7903   20.2682 C   0  0  0  0  0  0  0  0  0  0  0  0
  -22.8569  -13.6536   21.1726 C   0  0  0  0  0  0  0  0  0  0  0  0
  -22.2187  -28.4062   22.3616 C   0  0  0  0  0  0  0  0  0  0  0  0
  -20.4949  -25.6831   21.9935 C   0  0  0  0  0  0  0  0  0  0  0  0
  -20.4182  -22.4112   21.0262 C   0  0  0  0  0  0  0  0  0  0  0  0
  -31.1338  -14.3027   20.5692 C   0  0  0  0  0  0  0  0  0  0  0  0
  -19.6835  -32.4498   24.1724 C   0  0  0  0  0  0  0  0  0  0  0  0
  -22.7288  -27.8076   19.9663 C   0  0  0  0  0  0  0  0  0  0  0  0
  -22.9985  -25.4738   21.7622 C   0  0  0  0  0  0  0  0  0  0  0  0
  -19.6113  -30.9379   24.3700 C   0  0  0  0  0  0  0  0  0  0  0  0
  -29.2658  -12.6150   18.0644 C   0  0  0  0  0  0  0  0  0  0  0  0
  -20.9987  -30.3694   24.6506 C   0  0  0  0  0  0  0  0  0  0  0  0
  -27.8814  -12.4425   18.6918 C   0  0  0  0  0  0  0  0  0  0  0  0
  -26.3187  -18.0520   20.5919 C   0  0  0  0  0  0  0  0  0  0  0  0
  -30.3776  -12.4601   19.0997 C   0  0  0  0  0  0  0  0  0  0  0  0
  -28.8617  -13.1509   20.9138 C   0  0  0  0  0  0  0  0  0  0  0  0
  -27.4213  -18.5530   21.4860 C   0  0  1  0  0  0  0  0  0  0  0  0
  -21.9455  -30.6170   23.4700 C   0  0  1  0  0  0  0  0  0  0  0  0
  -21.8033  -27.6029   21.1617 C   0  0  1  0  0  0  0  0  0  0  0  0
  -27.7044  -13.3545   19.9209 C   0  0  2  0  0  0  0  0  0  0  0  0
  -27.4172  -17.1228   21.0093 C   0  0  1  0  0  0  0  0  0  0  0  0
  -18.8769  -20.4364   20.8782 C   0  0  0  0  0  0  0  0  0  0  0  0
  -31.6819  -16.3383   23.6311 C   0  0  0  0  0  0  0  0  0  0  0  0
  -20.7397  -25.2693   25.0066 C   0  0  0  0  0  0  0  0  0  0  0  0
  -20.0448  -22.8883   24.6658 C   0  0  0  0  0  0  0  0  0  0  0  0
  -18.4861  -24.7394   24.0605 C   0  0  0  0  0  0  0  0  0  0  0  0
  -20.7187  -22.2501   18.0863 C   0  0  0  0  0  0  0  0  0  0  0  0
  -31.5603  -17.4872   21.3616 C   0  0  0  0  0  0  0  0  0  0  0  0
  -28.5406  -25.1230   19.2827 C   0  0  0  0  0  0  0  0  0  1  0  0
  -29.3668  -23.8514   19.2720 C   0  0  0  0  0  0  0  0  0  0  0  0
  -20.5188  -24.3097   22.6198 C   0  0  1  0  0  0  0  0  0  0  0  0
  -19.4468  -21.6428   20.1484 C   0  0  2  0  0  0  0  0  0  0  0  0
  -31.7765  -16.1731   22.1174 C   0  0  2  0  0  0  0  0  0  0  0  0
  -19.9700  -24.3122   24.0746 C   0  0  0  0  0  0  0  0  0  0  0  0
  -26.2372  -12.2667   21.5781 N   0  0  0  0  0  0  0  0  0  0  0  0
  -26.3505  -13.1558   20.5767 N   0  0  0  0  0  0  0  0  0  0  0  0
  -21.7320  -26.2039   21.5882 N   0  0  0  0  0  0  0  0  0  0  0  0
  -30.1510  -13.3575   20.2355 N   0  0  0  0  0  0  0  0  0  0  0  0
  -25.1192  -14.7148   19.2866 N   0  0  0  0  0  0  0  0  0  0  0  0
  -22.0279  -13.0320   22.1164 N   0  0  0  0  0  0  0  0  0  0  0  0
  -30.2615  -18.0293   21.6096 N   0  0  0  0  0  0  0  0  0  0  0  0
  -21.6783  -29.6773   22.4022 N   0  0  0  0  0  0  0  0  0  0  0  0
  -19.7919  -23.4326   21.7084 N   0  0  0  0  0  0  0  0  0  0  0  0
  -30.8443  -15.1253   21.6529 N   0  0  0  0  0  0  0  0  0  0  0  0
  -20.1309  -21.1651   18.9136 N   0  3  0  0  0  0  0  0  0  0  0  0
  -22.3665  -14.5007   20.3881 O   0  0  0  0  0  0  0  0  0  0  0  0
  -22.9725  -27.9089   23.1900 O   0  0  0  0  0  0  0  0  0  0  0  0
  -19.4174  -26.2690   21.8619 O   0  0  0  0  0  0  0  0  0  0  0  0
  -21.6124  -22.1307   21.1020 O   0  0  0  0  0  0  0  0  0  0  0  0
  -32.1941  -14.4169   19.9447 O   0  0  0  0  0  0  0  0  0  0  0  0
  -27.0691  -16.1392   21.9973 O   0  0  0  0  0  0  0  0  0  0  0  0
  -22.9039   -9.1650   26.0298 O   0  0  0  0  0  0  0  0  0  0  0  0
  -27.6931  -25.1184   20.4307 O   0  0  0  0  0  0  0  0  0  1  0  0
  -28.4938  -22.7308   19.1973 O   0  0  0  0  0  0  0  0  0  0  0  0
  -18.0939   -6.6145   25.1563 F   0  0  0  0  0  0  0  0  0  0  0  0
  -22.7211   -6.4085   26.1323 F   0  0  0  0  0  0  0  0  0  0  0  0
  1  2  1  0  0  0  0
  1  5  2  0  0  0  0
  2  6  2  0  0  0  0
  3  9  2  0  0  0  0
  3 18  1  0  0  0  0
  4 10  1  0  0  0  0
  4 18  2  0  0  0  0
  5 20  1  0  0  0  0
  6 22  1  0  0  0  0
  7 11  2  0  0  0  0
  7 21  1  0  0  0  0
  8 12  2  0  0  0  0
  8 25  1  0  0  0  0
  9 26  1  0  0  0  0
 10 26  2  0  0  0  0
 11 27  1  0  0  0  0
 12 28  1  0  0  0  0
 13 14  2  0  0  0  0
 13 29  1  0  0  0  0
 14 30  1  0  0  0  0
 15 23  1  0  0  0  0
 15 27  2  0  0  0  0
 16 24  1  0  0  0  0
 16 28  2  0  0  0  0
 17 30  2  0  0  0  0
 17 31  1  0  0  0  0
 18 32  1  0  0  0  0
 19 32  1  0  0  0  0
 19 33  2  0  0  0  0
 19 34  1  0  0  0  0
 20 22  2  0  0  0  0
 20 39  1  0  0  0  0
 21 23  2  0  0  0  0
 21 40  1  0  0  0  0
 22 50  1  0  0  0  0
 23 41  1  0  0  0  0
 24 25  2  0  0  0  0
 24 49  1  0  0  0  0
 25 73  1  0  0  0  0
 26 84  1  0  0  0  0
 27 85  1  0  0  0  0
 28 86  1  0  0  0  0
 29 31  2  0  0  0  0
 29 84  1  0  0  0  0
 30 87  1  0  0  0  0
 31 88  1  0  0  0  0
 32 67  2  0  0  0  0
 33 68  1  0  0  0  0
 33 71  1  0  0  0  0
 34 72  1  0  0  0  0
 34 78  2  0  0  0  0
 35 51  1  0  0  0  0
 35 74  1  0  0  0  0
 35 79  2  0  0  0  0
 36 63  1  0  0  0  0
 36 69  1  0  0  0  0
 36 80  2  0  0  0  0
 37 64  1  0  0  0  0
 37 75  1  0  0  0  0
 37 81  2  0  0  0  0
 38 70  1  0  0  0  0
 38 76  1  0  0  0  0
 38 82  2  0  0  0  0
 39 42  1  0  0  0  0
 40 51  1  0  0  0  0
 41 69  1  0  0  0  0
 42 44  1  0  0  0  0
 43 45  1  0  0  0  0
 43 47  1  0  0  0  0
 44 50  1  0  0  0  0
 45 52  1  0  0  0  0
 46 49  1  0  0  0  0
 46 53  1  0  0  0  0
 47 70  1  0  0  0  0
 48 52  1  0  0  0  0
 48 70  1  0  0  0  0
 49 53  1  0  0  0  0
 50 74  1  0  0  0  0
 51 69  1  0  0  0  0
 52 68  1  0  0  0  0
 53 83  1  0  0  0  0
 54 64  1  0  0  0  0
 55 65  1  0  0  0  0
 56 66  1  0  0  0  0
 57 66  1  0  0  0  0
 58 66  1  0  0  0  0
 59 77  1  0  0  0  0
 60 65  1  0  0  0  0
 60 73  1  0  0  0  0
 61 62  1  0  0  0  0
 61 85  1  0  0  0  0
 62 86  1  0  0  0  0
 63 66  1  0  0  0  0
 63 75  1  0  0  0  0
 64 77  1  0  0  0  0
 65 76  1  0  0  0  0
 67 68  1  0  0  0  0
M  CHG  1  77   1
M  ISO  4  38 100  61 101  76 100  85 101
M  END
> <Batch ID>
0144

> <Smiles>
CNC(C)C(=O)NC(C(=O)N1Cc2cc([101O:1][101CH2:1]COc3ccc(NCC(C)[100NH:0][100C:0](=O)N4CCCC(n5nc(-c6ccc(Oc7ccc(F)cc7F)cc6)c(C(N)=O)c5N)C4)c(C4CC4O)c3)ccc2CC1C(=O)NC1CCCc2ccccc21)C(C)(C)C

> <Shape>
0.249

> <Color>
0.135

> <Negative vol penalty>
0.000

$$$$

  -OEChem-04052321263D

 90 99  0     1  0  0  0  0  0999 V2000
  -33.9656  -26.5988   17.9424 C   0  0  0  0  0  0  0  0  0  0  0  0
  -33.0903  -25.9204   18.7843 C   0  0  0  0  0  0  0  0  0  0  0  0
  -23.2807  -12.1662   22.3041 C   0  0  0  0  0  0  0  0  0  0  0  0
  -22.9255  -10.8577   20.3044 C   0  0  0  0  0  0  0  0  0  0  0  0
  -34.1445  -27.9740   18.0865 C   0  0  0  0  0  0  0  0  0  0  0  0
  -32.3940  -26.6166   19.7717 C   0  0  0  0  0  0  0  0  0  0  0  0
  -27.5081  -25.3042   19.9953 C   0  0  0  0  0  0  0  0  0  0  0  0
  -21.9263  -12.4986   22.3272 C   0  0  0  0  0  0  0  0  0  0  0  0
  -21.5710  -11.1901   20.3276 C   0  0  0  0  0  0  0  0  0  0  0  0
  -27.1998  -24.1041   20.6343 C   0  0  0  0  0  0  0  0  0  0  0  0
  -19.8644  -14.6571   20.7417 C   0  0  0  0  0  0  0  0  0  0  0  0
  -19.5288  -15.9890   20.9844 C   0  0  0  0  0  0  0  0  0  0  0  0
  -26.5802  -25.3270   22.6192 C   0  0  0  0  0  0  0  0  0  0  0  0
  -24.8932  -20.4803   23.1237 C   0  0  0  0  0  0  0  0  0  0  0  0
  -27.1234  -19.5676   22.9503 C   0  0  0  0  0  0  0  0  0  0  0  0
  -18.2945  -15.3197   22.9506 C   0  0  0  0  0  0  0  0  0  0  0  0
  -23.7803  -11.3457   21.2927 C   0  0  0  0  0  0  0  0  0  0  0  0
  -25.7941   -9.8953   21.8829 C   0  0  0  0  0  0  0  0  0  0  0  0
  -33.4428  -28.6891   19.0699 C   0  0  0  0  0  0  0  0  0  0  0  0
  -27.3649  -26.5261   20.6682 C   0  0  0  0  0  0  0  0  0  0  0  0
  -32.5646  -28.0024   19.9300 C   0  0  0  0  0  0  0  0  0  0  0  0
  -26.8850  -26.5414   21.9856 C   0  0  0  0  0  0  0  0  0  0  0  0
  -26.2024  -20.5715   22.6510 C   0  0  0  0  0  0  0  0  0  0  0  0
  -24.5051  -19.3853   23.8958 C   0  0  0  0  0  0  0  0  0  0  0  0
  -25.4262  -18.3814   24.1950 C   0  0  0  0  0  0  0  0  0  0  0  0
  -21.0714  -12.0106   21.3390 C   0  0  0  0  0  0  0  0  0  0  0  0
  -26.7385  -24.1151   21.9474 C   0  0  0  0  0  0  0  0  0  0  0  0
  -19.4150  -13.6564   21.6033 C   0  0  0  0  0  0  0  0  0  0  0  0
  -26.7354  -18.4726   23.7223 C   0  0  0  0  0  0  0  0  0  0  0  0
  -18.7439  -16.3203   22.0889 C   0  0  0  0  0  0  0  0  0  0  0  0
  -18.6301  -13.9877   22.7078 C   0  0  0  0  0  0  0  0  0  0  0  0
  -25.1795  -11.0024   21.2679 C   0  0  0  0  0  0  0  0  0  0  0  0
  -27.1243  -10.0200   21.5640 C   0  0  0  0  0  0  0  0  0  0  0  0
  -25.2146   -8.8477   22.6719 C   0  0  0  0  0  0  0  0  0  0  0  0
  -29.3459  -28.8576   21.5304 C   0  0  0  0  0  0  0  0  0  0  0  0
  -26.5990  -30.3294   22.4307 C   0  0  0  0  0  0  0  0  0  0  0  0
  -23.3371  -30.0392   23.3914 C   0  0  0  0  0  0  0  0  0  0  0  0
  -30.5495  -14.5144   20.3333 C   0  0  0  0  0  0  0  0  0  0  0  0
  -33.7046  -30.1669   19.2184 C   0  0  0  0  0  0  0  0  0  0  0  0
  -27.6763  -27.8138   19.9560 C   0  0  0  0  0  0  0  0  0  0  0  0
  -26.6945  -27.8279   22.7453 C   0  0  0  0  0  0  0  0  0  0  0  0
  -32.6466  -30.8929   20.0453 C   0  0  0  0  0  0  0  0  0  0  0  0
  -30.0267  -11.7752   18.1975 C   0  0  0  0  0  0  0  0  0  0  0  0
  -32.3390  -30.1145   21.3206 C   0  0  0  0  0  0  0  0  0  0  0  0
  -28.7720  -11.1499   18.8060 C   0  0  0  0  0  0  0  0  0  0  0  0
  -29.6098  -16.1831   23.5501 C   0  0  0  0  0  0  0  0  0  0  0  0
  -28.0510  -16.8830   21.7034 C   0  0  0  0  0  0  0  0  0  0  0  0
  -29.9579  -13.3032   18.1879 C   0  0  0  0  0  0  0  0  0  0  0  0
  -30.6461  -15.8076   22.4988 C   0  0  0  0  0  0  0  0  0  0  0  0
  -29.1102  -16.4887   20.6807 C   0  0  0  0  0  0  0  0  0  0  0  0
  -28.4155  -13.2742   20.1211 C   0  0  0  0  0  0  0  0  0  0  0  0
  -31.7727  -28.7267   20.9969 C   0  0  1  0  0  0  0  0  0  0  0  0
  -27.9820  -28.9651   20.9091 C   0  0  1  0  0  0  0  0  0  0  0  0
  -28.4790  -11.7407   20.1966 C   0  0  1  0  0  0  0  0  0  0  0  0
  -28.6758  -17.2786   23.0401 C   0  0  0  0  0  0  0  0  0  0  0  0
  -22.0749  -19.2402   23.2426 C   0  0  0  0  0  0  0  0  0  0  0  0
  -22.7463  -20.4766   25.3344 C   0  0  0  0  0  0  0  0  0  0  0  0
  -25.7999  -17.1153   26.3423 C   0  0  0  0  0  0  0  0  0  0  0  0
  -25.1316  -15.8786   24.2497 C   0  0  0  0  0  0  0  0  0  0  0  0
  -21.3614  -31.4162   24.0969 C   0  0  0  0  0  0  0  0  0  0  0  0
  -27.8585  -30.7225   25.1819 C   0  0  0  0  0  0  0  0  0  0  0  0
  -25.5738  -31.2130   26.0808 C   0  0  0  0  0  0  0  0  0  0  0  0
  -26.5687  -32.6903   24.3342 C   0  0  0  0  0  0  0  0  0  0  0  0
  -21.7185  -29.1028   21.0974 C   0  0  0  0  0  0  0  0  0  0  0  0
  -26.6174  -21.7430   21.8267 C   0  0  0  0  0  0  0  0  0  1  0  0
  -23.0979  -19.3118   24.3910 C   0  0  0  0  0  0  0  0  0  0  0  0
  -25.0152  -17.2049   25.0215 C   0  0  0  0  0  0  0  0  0  0  0  0
  -25.7761  -30.3761   23.6955 C   0  0  1  0  0  0  0  0  0  0  0  0
  -22.0833  -30.7601   22.9302 C   0  0  2  0  0  0  0  0  0  0  0  0
  -26.4496  -31.2260   24.8097 C   0  0  0  0  0  0  0  0  0  0  0  0
  -26.0478  -11.7738   20.6084 N   0  0  0  0  0  0  0  0  0  0  0  0
  -27.2217  -11.1504   20.8071 N   0  0  0  0  0  0  0  0  0  0  0  0
  -27.0187  -29.0602   22.0078 N   0  0  0  0  0  0  0  0  0  0  0  0
  -29.6375  -13.8184   19.5258 N   0  0  0  0  0  0  0  0  0  0  0  0
  -30.0164  -15.4706   21.2137 N   0  0  0  0  0  0  0  0  0  0  0  0
  -28.2083   -9.2719   21.8600 N   0  0  0  0  0  0  0  0  0  0  0  0
  -23.8323   -8.8718   22.9026 N   0  0  0  0  0  0  0  0  0  0  0  0
  -30.3803  -28.8256   20.6147 N   0  0  0  0  0  0  0  0  0  0  0  0
  -24.4517  -30.8462   23.3036 N   0  0  0  0  0  0  0  0  0  0  0  0
  -21.1465  -29.8032   22.2761 N   0  3  0  0  0  0  0  0  0  0  0  0
  -25.9045   -7.9269   23.1715 O   0  0  0  0  0  0  0  0  0  0  0  0
  -29.4520  -28.8090   22.7503 O   0  0  0  0  0  0  0  0  0  0  0  0
  -26.8538  -31.3796   21.8359 O   0  0  0  0  0  0  0  0  0  0  0  0
  -23.3280  -28.8777   23.7930 O   0  0  0  0  0  0  0  0  0  0  0  0
  -31.7663  -14.2992   20.2715 O   0  0  0  0  0  0  0  0  0  0  0  0
  -19.7496  -12.3346   21.3614 O   0  0  0  0  0  0  0  0  0  0  0  0
  -27.6535  -17.4958   24.0052 O   0  0  0  0  0  0  0  0  0  0  0  0
  -26.4354  -22.9370   22.5779 O   0  0  0  0  0  0  0  0  0  1  0  0
  -18.4231  -17.5996   22.3228 F   0  0  0  0  0  0  0  0  0  0  0  0
  -18.1964  -13.0309   23.5398 F   0  0  0  0  0  0  0  0  0  0  0  0
  1  2  1  0  0  0  0
  1  5  2  0  0  0  0
  2  6  2  0  0  0  0
  3  8  2  0  0  0  0
  3 17  1  0  0  0  0
  4  9  1  0  0  0  0
  4 17  2  0  0  0  0
  5 19  1  0  0  0  0
  6 21  1  0  0  0  0
  7 10  2  0  0  0  0
  7 20  1  0  0  0  0
  8 26  1  0  0  0  0
  9 26  2  0  0  0  0
 10 27  1  0  0  0  0
 11 12  2  0  0  0  0
 11 28  1  0  0  0  0
 12 30  1  0  0  0  0
 13 22  1  0  0  0  0
 13 27  2  0  0  0  0
 14 23  2  0  0  0  0
 14 24  1  0  0  0  0
 15 23  1  0  0  0  0
 15 29  2  0  0  0  0
 16 30  2  0  0  0  0
 16 31  1  0  0  0  0
 17 32  1  0  0  0  0
 18 32  1  0  0  0  0
 18 33  2  0  0  0  0
 18 34  1  0  0  0  0
 19 21  2  0  0  0  0
 19 39  1  0  0  0  0
 20 22  2  0  0  0  0
 20 40  1  0  0  0  0
 21 52  1  0  0  0  0
 22 41  1  0  0  0  0
 23 65  1  0  0  0  0
 24 25  2  0  0  0  0
 24 66  1  0  0  0  0
 25 29  1  0  0  0  0
 25 67  1  0  0  0  0
 26 86  1  0  0  0  0
 27 88  1  0  0  0  0
 28 31  2  0  0  0  0
 28 86  1  0  0  0  0
 29 87  1  0  0  0  0
 30 89  1  0  0  0  0
 31 90  1  0  0  0  0
 32 71  2  0  0  0  0
 33 72  1  0  0  0  0
 33 76  1  0  0  0  0
 34 77  1  0  0  0  0
 34 81  2  0  0  0  0
 35 53  1  0  0  0  0
 35 78  1  0  0  0  0
 35 82  2  0  0  0  0
 36 68  1  0  0  0  0
 36 73  1  0  0  0  0
 36 83  2  0  0  0  0
 37 69  1  0  0  0  0
 37 79  1  0  0  0  0
 37 84  2  0  0  0  0
 38 74  1  0  0  0  0
 38 75  1  0  0  0  0
 38 85  2  0  0  0  0
 39 42  1  0  0  0  0
 40 53  1  0  0  0  0
 41 73  1  0  0  0  0
 42 44  1  0  0  0  0
 43 45  1  0  0  0  0
 43 48  1  0  0  0  0
 44 52  1  0  0  0  0
 45 54  1  0  0  0  0
 46 49  1  0  0  0  0
 46 55  1  0  0  0  0
 47 50  1  0  0  0  0
 47 55  1  0  0  0  0
 48 74  1  0  0  0  0
 49 75  1  0  0  0  0
 50 75  1  0  0  0  0
 51 54  1  0  0  0  0
 51 74  1  0  0  0  0
 52 78  1  0  0  0  0
 53 73  1  0  0  0  0
 54 72  1  0  0  0  0
 55 87  1  0  0  0  0
 56 66  1  0  0  0  0
 57 66  1  0  0  0  0
 58 67  1  0  0  0  0
 59 67  1  0  0  0  0
 60 69  1  0  0  0  0
 61 70  1  0  0  0  0
 62 70  1  0  0  0  0
 63 70  1  0  0  0  0
 64 80  1  0  0  0  0
 65 88  1  0  0  0  0
 68 70  1  0  0  0  0
 68 79  1  0  0  0  0
 69 80  1  0  0  0  0
 71 72  1  0  0  0  0
M  CHG  1  80   1
M  ISO  4  38 100  65 101  75 100  88 101
M  END
> <Batch ID>
0144

> <Smiles>
CNC(C)C(=O)NC(C(=O)N1Cc2cc([101O:1][101CH2:1]c3cc(OC4CC[100N:0]([100C:0](=O)N5CCCC(n6nc(-c7ccc(Oc8ccc(F)cc8F)cc7)c(C(N)=O)c6N)C5)CC4)c(C(C)C)c(C(C)C)c3)ccc2CC1C(=O)NC1CCCc2ccccc21)C(C)(C)C

> <Shape>
0.219

> <Color>
0.097

> <Negative vol penalty>
0.000

$$$$

  -OEChem-04052321263D

 90 99  0     1  0  0  0  0  0999 V2000
  -19.0856  -31.7613   26.0486 C   0  0  0  0  0  0  0  0  0  0  0  0
  -20.2628  -31.0204   26.0712 C   0  0  0  0  0  0  0  0  0  0  0  0
  -22.6676  -10.2369   20.1924 C   0  0  0  0  0  0  0  0  0  0  0  0
  -24.2065   -9.6270   21.9522 C   0  0  0  0  0  0  0  0  0  0  0  0
  -18.0386  -31.3791   25.2110 C   0  0  0  0  0  0  0  0  0  0  0  0
  -20.3933  -29.8960   25.2569 C   0  0  0  0  0  0  0  0  0  0  0  0
  -25.4962  -27.9078   22.5158 C   0  0  0  0  0  0  0  0  0  0  0  0
  -21.9161   -9.0909   20.4524 C   0  0  0  0  0  0  0  0  0  0  0  0
  -23.4550   -8.4810   22.2123 C   0  0  0  0  0  0  0  0  0  0  0  0
  -26.4179  -26.9179   22.8540 C   0  0  0  0  0  0  0  0  0  0  0  0
  -20.5939   -7.6947   23.8298 C   0  0  0  0  0  0  0  0  0  0  0  0
  -20.3195   -7.3902   25.1630 C   0  0  0  0  0  0  0  0  0  0  0  0
  -25.2594  -25.3590   21.4233 C   0  0  0  0  0  0  0  0  0  0  0  0
  -30.3884  -23.8090   23.1552 C   0  0  0  0  0  0  0  0  0  0  0  0
  -28.7085  -22.7893   24.5605 C   0  0  0  0  0  0  0  0  0  0  0  0
  -21.4660   -5.2779   24.9165 C   0  0  0  0  0  0  0  0  0  0  0  0
  -23.8129  -10.5049   20.9422 C   0  0  0  0  0  0  0  0  0  0  0  0
  -24.1556  -13.0252   20.7470 C   0  0  0  0  0  0  0  0  0  0  0  0
  -18.1600  -30.2550   24.3789 C   0  0  0  0  0  0  0  0  0  0  0  0
  -24.4410  -27.6272   21.6358 C   0  0  0  0  0  0  0  0  0  0  0  0
  -19.3465  -29.4975   24.4084 C   0  0  0  0  0  0  0  0  0  0  0  0
  -24.3271  -26.3477   21.0736 C   0  0  0  0  0  0  0  0  0  0  0  0
  -29.1320  -23.8499   23.7597 C   0  0  0  0  0  0  0  0  0  0  0  0
  -31.2213  -22.7075   23.3515 C   0  0  0  0  0  0  0  0  0  0  0  0
  -30.7979  -21.6468   24.1523 C   0  0  0  0  0  0  0  0  0  0  0  0
  -22.3097   -8.2130   21.4623 C   0  0  0  0  0  0  0  0  0  0  0  0
  -26.2979  -25.6425   22.3100 C   0  0  0  0  0  0  0  0  0  0  0  0
  -21.3042   -6.7908   23.0398 C   0  0  0  0  0  0  0  0  0  0  0  0
  -29.5415  -21.6877   24.7569 C   0  0  0  0  0  0  0  0  0  0  0  0
  -20.7556   -6.1818   25.7064 C   0  0  0  0  0  0  0  0  0  0  0  0
  -21.7403   -5.5824   23.5832 C   0  0  0  0  0  0  0  0  0  0  0  0
  -24.5900  -11.6881   20.6737 C   0  0  0  0  0  0  0  0  0  0  0  0
  -25.2604  -13.7646   20.4017 C   0  0  0  0  0  0  0  0  0  0  0  0
  -22.8686  -13.5518   21.0962 C   0  0  0  0  0  0  0  0  0  0  0  0
  -21.2703  -27.6386   21.8596 C   0  0  0  0  0  0  0  0  0  0  0  0
  -21.4326  -27.0490   18.6740 C   0  0  0  0  0  0  0  0  0  0  0  0
  -23.2325  -25.8370   16.0398 C   0  0  0  0  0  0  0  0  0  0  0  0
  -30.7306  -14.8054   20.7739 C   0  0  0  0  0  0  0  0  0  0  0  0
  -16.9833  -29.8533   23.5253 C   0  0  0  0  0  0  0  0  0  0  0  0
  -23.4707  -28.7134   21.2603 C   0  0  0  0  0  0  0  0  0  0  0  0
  -23.2242  -26.0010   20.1083 C   0  0  0  0  0  0  0  0  0  0  0  0
  -17.3431  -28.8664   22.4176 C   0  0  0  0  0  0  0  0  0  0  0  0
  -29.6934  -12.3351   18.4290 C   0  0  0  0  0  0  0  0  0  0  0  0
  -18.2135  -27.7408   22.9675 C   0  0  0  0  0  0  0  0  0  0  0  0
  -28.2402  -12.0526   18.8140 C   0  0  0  0  0  0  0  0  0  0  0  0
  -29.7198  -18.1248   22.0670 C   0  0  0  0  0  0  0  0  0  0  0  0
  -31.5335  -16.8145   23.2302 C   0  0  0  0  0  0  0  0  0  0  0  0
  -30.5612  -12.6007   19.6572 C   0  0  0  0  0  0  0  0  0  0  0  0
  -28.6042  -13.3746   20.9397 C   0  0  0  0  0  0  0  0  0  0  0  0
  -30.3756  -19.4226   22.5202 C   0  0  0  0  0  0  0  0  0  0  0  0
  -32.1794  -18.1189   23.6786 C   0  0  0  0  0  0  0  0  0  0  0  0
  -19.5354  -28.2860   23.5215 C   0  0  1  0  0  0  0  0  0  0  0  0
  -22.1363  -28.1739   20.7545 C   0  0  1  0  0  0  0  0  0  0  0  0
  -27.6784  -13.1559   19.7308 C   0  0  2  0  0  0  0  0  0  0  0  0
  -30.7420  -16.9953   21.9349 C   0  0  0  0  0  0  0  0  0  0  0  0
  -32.5614  -22.6873   22.6920 C   0  0  0  0  0  0  0  0  0  0  0  0
  -27.9929  -18.5450   25.5817 C   0  0  0  0  0  0  0  0  0  0  0  0
  -32.0190  -20.2172   25.8429 C   0  0  0  0  0  0  0  0  0  0  0  0
  -23.0864  -25.4539   13.5641 C   0  0  0  0  0  0  0  0  0  0  0  0
  -19.6339  -24.6321   19.1566 C   0  0  0  0  0  0  0  0  0  0  0  0
  -20.2937  -23.7776   16.8976 C   0  0  0  0  0  0  0  0  0  0  0  0
  -19.0830  -25.9489   17.1031 C   0  0  0  0  0  0  0  0  0  0  0  0
  -25.5251  -27.6320   15.5096 C   0  0  0  0  0  0  0  0  0  0  0  0
  -28.2358  -25.0344   23.5472 C   0  0  0  0  0  0  0  0  0  1  0  0
  -27.9197  -19.9907   25.1386 C   0  0  0  0  0  0  0  0  0  0  0  0
  -31.6872  -20.4639   24.3669 C   0  0  1  0  0  0  0  0  0  0  0  0
  -21.5037  -25.8069   17.8188 C   0  0  1  0  0  0  0  0  0  0  0  0
  -23.5161  -26.4123   14.6639 C   0  0  2  0  0  0  0  0  0  0  0  0
  -20.1483  -25.0471   17.7637 C   0  0  0  0  0  0  0  0  0  0  0  0
  -25.8708  -11.5813   20.3102 N   0  0  0  0  0  0  0  0  0  0  0  0
  -26.2507  -12.8606   20.1519 N   0  0  0  0  0  0  0  0  0  0  0  0
  -22.2967  -27.0954   19.7772 N   0  0  0  0  0  0  0  0  0  0  0  0
  -29.9739  -13.6581   20.4836 N   0  0  0  0  0  0  0  0  0  0  0  0
  -25.4716  -15.0932   20.2902 N   0  0  0  0  0  0  0  0  0  0  0  0
  -22.6084  -13.8426   22.4423 N   0  0  0  0  0  0  0  0  0  0  0  0
  -20.4504  -28.5867   22.4412 N   0  0  0  0  0  0  0  0  0  0  0  0
  -22.0016  -26.2360   16.5164 N   0  0  0  0  0  0  0  0  0  0  0  0
  -30.0968  -15.7615   21.5580 N   0  0  0  0  0  0  0  0  0  0  0  0
  -31.1199  -19.1860   23.8123 N   0  3  0  0  0  0  0  0  0  0  0  0
  -24.9727  -26.6852   14.5068 N   0  3  0  0  0  0  0  0  0  0  0  0
  -21.9700  -13.7429   20.2420 O   0  0  0  0  0  0  0  0  0  0  0  0
  -21.3398  -26.4529   22.1612 O   0  0  0  0  0  0  0  0  0  0  0  0
  -20.6447  -27.9482   18.3700 O   0  0  0  0  0  0  0  0  0  0  0  0
  -24.0221  -25.1039   16.6310 O   0  0  0  0  0  0  0  0  0  0  0  0
  -31.8837  -14.9680   20.3604 O   0  0  0  0  0  0  0  0  0  0  0  0
  -21.5765   -7.0949   21.7165 O   0  0  0  0  0  0  0  0  0  0  0  0
  -27.1958  -24.6742   22.6389 O   0  0  0  0  0  0  0  0  0  1  0  0
  -29.1114  -20.6615   25.5432 O   0  0  0  0  0  0  0  0  0  0  0  0
  -20.4935   -5.8902   26.9872 F   0  0  0  0  0  0  0  0  0  0  0  0
  -22.4242   -4.7105   22.8295 F   0  0  0  0  0  0  0  0  0  0  0  0
  1  2  1  0  0  0  0
  1  5  2  0  0  0  0
  2  6  2  0  0  0  0
  3  8  2  0  0  0  0
  3 17  1  0  0  0  0
  4  9  1  0  0  0  0
  4 17  2  0  0  0  0
  5 19  1  0  0  0  0
  6 21  1  0  0  0  0
  7 10  2  0  0  0  0
  7 20  1  0  0  0  0
  8 26  1  0  0  0  0
  9 26  2  0  0  0  0
 10 27  1  0  0  0  0
 11 12  2  0  0  0  0
 11 28  1  0  0  0  0
 12 30  1  0  0  0  0
 13 22  1  0  0  0  0
 13 27  2  0  0  0  0
 14 23  1  0  0  0  0
 14 24  2  0  0  0  0
 15 23  2  0  0  0  0
 15 29  1  0  0  0  0
 16 30  2  0  0  0  0
 16 31  1  0  0  0  0
 17 32  1  0  0  0  0
 18 32  1  0  0  0  0
 18 33  2  0  0  0  0
 18 34  1  0  0  0  0
 19 21  2  0  0  0  0
 19 39  1  0  0  0  0
 20 22  2  0  0  0  0
 20 40  1  0  0  0  0
 21 52  1  0  0  0  0
 22 41  1  0  0  0  0
 23 64  1  0  0  0  0
 24 25  1  0  0  0  0
 24 56  1  0  0  0  0
 25 29  2  0  0  0  0
 25 66  1  0  0  0  0
 26 86  1  0  0  0  0
 27 87  1  0  0  0  0
 28 31  2  0  0  0  0
 28 86  1  0  0  0  0
 29 88  1  0  0  0  0
 30 89  1  0  0  0  0
 31 90  1  0  0  0  0
 32 70  2  0  0  0  0
 33 71  1  0  0  0  0
 33 74  1  0  0  0  0
 34 75  1  0  0  0  0
 34 81  2  0  0  0  0
 35 53  1  0  0  0  0
 35 76  1  0  0  0  0
 35 82  2  0  0  0  0
 36 67  1  0  0  0  0
 36 72  1  0  0  0  0
 36 83  2  0  0  0  0
 37 68  1  0  0  0  0
 37 77  1  0  0  0  0
 37 84  2  0  0  0  0
 38 73  1  0  0  0  0
 38 78  1  0  0  0  0
 38 85  2  0  0  0  0
 39 42  1  0  0  0  0
 40 53  1  0  0  0  0
 41 72  1  0  0  0  0
 42 44  1  0  0  0  0
 43 45  1  0  0  0  0
 43 48  1  0  0  0  0
 44 52  1  0  0  0  0
 45 54  1  0  0  0  0
 46 50  1  0  0  0  0
 46 55  1  0  0  0  0
 47 51  1  0  0  0  0
 47 55  1  0  0  0  0
 48 73  1  0  0  0  0
 49 54  1  0  0  0  0
 49 73  1  0  0  0  0
 50 79  1  0  0  0  0
 51 79  1  0  0  0  0
 52 76  1  0  0  0  0
 53 72  1  0  0  0  0
 54 71  1  0  0  0  0
 55 78  1  0  0  0  0
 57 65  1  0  0  0  0
 58 66  1  0  0  0  0
 59 68  1  0  0  0  0
 60 69  1  0  0  0  0
 61 69  1  0  0  0  0
 62 69  1  0  0  0  0
 63 80  1  0  0  0  0
 64 87  1  0  0  0  0
 65 88  1  0  0  0  0
 66 79  1  0  0  0  0
 67 69  1  0  0  0  0
 67 77  1  0  0  0  0
 68 80  1  0  0  0  0
 70 71  1  0  0  0  0
M  CHG  2  79   1  80   1
M  ISO  4  38 100  64 101  78 100  87 101
M  END
> <Batch ID>
0144

> <Smiles>
CCOc1cc([101CH2:1][101O:1]c2ccc3c(c2)CN(C(=O)C(NC(=O)C(C)NC)C(C)(C)C)C(C(=O)NC2CCCc4ccccc42)C3)cc(C)c1C(C)N1CCC([100NH:0][100C:0](=O)N2CCCC(n3nc(-c4ccc(Oc5ccc(F)cc5F)cc4)c(C(N)=O)c3N)C2)CC1

> <Shape>
0.260

> <Color>
0.186

> <Negative vol penalty>
0.000

$$$$

  -OEChem-04052321263D

 90 99  0     1  0  0  0  0  0999 V2000
  -24.0595  -36.8200   25.7219 C   0  0  0  0  0  0  0  0  0  0  0  0
  -25.0886  -35.9241   25.4506 C   0  0  0  0  0  0  0  0  0  0  0  0
  -23.7586  -10.4419   22.6925 C   0  0  0  0  0  0  0  0  0  0  0  0
  -24.3632   -8.6905   21.1420 C   0  0  0  0  0  0  0  0  0  0  0  0
  -22.7319  -36.4207   25.5736 C   0  0  0  0  0  0  0  0  0  0  0  0
  -24.7907  -34.6278   25.0320 C   0  0  0  0  0  0  0  0  0  0  0  0
  -27.3104  -29.3993   20.8331 C   0  0  0  0  0  0  0  0  0  0  0  0
  -22.6477   -9.7012   23.0960 C   0  0  0  0  0  0  0  0  0  0  0  0
  -23.2522   -7.9497   21.5455 C   0  0  0  0  0  0  0  0  0  0  0  0
  -27.6312  -28.0433   20.8766 C   0  0  0  0  0  0  0  0  0  0  0  0
  -22.3924   -5.9674   24.1438 C   0  0  0  0  0  0  0  0  0  0  0  0
  -22.5774   -4.6073   24.3916 C   0  0  0  0  0  0  0  0  0  0  0  0
  -28.2403  -21.8023   19.8460 C   0  0  0  0  0  0  0  0  0  0  0  0
  -25.3024  -27.4889   20.5793 C   0  0  0  0  0  0  0  0  0  0  0  0
  -29.0004  -23.2998   22.0737 C   0  0  0  0  0  0  0  0  0  0  0  0
  -20.9632   -4.0749   22.6745 C   0  0  0  0  0  0  0  0  0  0  0  0
  -24.6164   -9.9365   21.7154 C   0  0  0  0  0  0  0  0  0  0  0  0
  -27.0588  -10.6607   21.8484 C   0  0  0  0  0  0  0  0  0  0  0  0
  -22.4177  -35.1218   25.1437 C   0  0  0  0  0  0  0  0  0  0  0  0
  -25.9795  -29.8111   20.6729 C   0  0  0  0  0  0  0  0  0  0  0  0
  -23.4576  -34.2102   24.8792 C   0  0  0  0  0  0  0  0  0  0  0  0
  -28.7752  -21.1648   20.9654 C   0  0  0  0  0  0  0  0  0  0  0  0
  -24.9676  -28.8508   20.5315 C   0  0  0  0  0  0  0  0  0  0  0  0
  -28.0855  -23.1885   19.8404 C   0  0  0  0  0  0  0  0  0  0  0  0
  -28.4655  -23.9373   20.9542 C   0  0  0  0  0  0  0  0  0  0  0  0
  -22.3945   -8.4551   22.5225 C   0  0  0  0  0  0  0  0  0  0  0  0
  -26.6268  -27.0878   20.7527 C   0  0  0  0  0  0  0  0  0  0  0  0
  -21.4927   -6.3813   23.1615 C   0  0  0  0  0  0  0  0  0  0  0  0
  -29.1552  -21.9135   22.0793 C   0  0  0  0  0  0  0  0  0  0  0  0
  -21.8629   -3.6610   23.6569 C   0  0  0  0  0  0  0  0  0  0  0  0
  -20.7781   -5.4351   22.4268 C   0  0  0  0  0  0  0  0  0  0  0  0
  -25.7638  -10.7014   21.2978 C   0  0  0  0  0  0  0  0  0  0  0  0
  -27.7766  -11.5655   21.1049 C   0  0  0  0  0  0  0  0  0  0  0  0
  -27.5674   -9.8752   22.9347 C   0  0  0  0  0  0  0  0  0  0  0  0
  -23.9244  -31.4887   22.4239 C   0  0  0  0  0  0  0  0  0  0  0  0
  -22.0551  -31.2155   19.7869 C   0  0  0  0  0  0  0  0  0  0  0  0
  -21.2944  -29.4929   16.9407 C   0  0  0  0  0  0  0  0  0  0  0  0
  -28.3711  -16.3780   18.5539 C   0  0  0  0  0  0  0  0  0  0  0  0
  -20.9671  -34.7212   25.0436 C   0  0  0  0  0  0  0  0  0  0  0  0
  -25.6532  -31.2777   20.6011 C   0  0  0  0  0  0  0  0  0  0  0  0
  -23.5258  -29.2407   20.3372 C   0  0  0  0  0  0  0  0  0  0  0  0
  -20.7417  -33.4460   24.2353 C   0  0  0  0  0  0  0  0  0  0  0  0
  -26.6287  -13.9572   16.8069 C   0  0  0  0  0  0  0  0  0  0  0  0
  -21.7292  -32.3636   24.6595 C   0  0  0  0  0  0  0  0  0  0  0  0
  -26.3494  -12.8819   17.8566 C   0  0  0  0  0  0  0  0  0  0  0  0
  -27.5814  -18.9339   20.8258 C   0  0  0  0  0  0  0  0  0  0  0  0
  -29.9068  -19.1864   19.8571 C   0  0  0  0  0  0  0  0  0  0  0  0
  -26.4405  -15.3523   17.3915 C   0  0  0  0  0  0  0  0  0  0  0  0
  -27.7524  -17.4127   20.7827 C   0  0  0  0  0  0  0  0  0  0  0  0
  -30.0328  -17.6656   19.8614 C   0  0  0  0  0  0  0  0  0  0  0  0
  -27.0070  -14.5495   19.6614 C   0  0  0  0  0  0  0  0  0  0  0  0
  -28.9346  -19.6561   20.9545 C   0  0  0  0  0  0  0  0  0  0  0  0
  -23.1751  -32.8031   24.3991 C   0  0  1  0  0  0  0  0  0  0  0  0
  -24.2001  -31.5843   20.9499 C   0  0  1  0  0  0  0  0  0  0  0  0
  -27.1897  -13.1153   19.1246 C   0  0  1  0  0  0  0  0  0  0  0  0
  -27.5127  -23.8487   18.6293 C   0  0  0  0  0  0  0  0  0  0  0  0
  -32.5176  -19.0066   23.6121 C   0  0  0  0  0  0  0  0  0  0  0  0
  -19.6920  -29.4887   15.0095 C   0  0  0  0  0  0  0  0  0  0  0  0
  -30.4556  -21.2863   25.9932 C   0  0  0  0  0  0  0  0  0  0  0  0
  -19.8736  -30.0956   21.6026 C   0  0  0  0  0  0  0  0  0  0  0  0
  -18.7057  -29.2447   19.5581 C   0  0  0  0  0  0  0  0  0  0  0  0
  -19.0613  -31.6952   19.8603 C   0  0  0  0  0  0  0  0  0  0  0  0
  -23.4811  -29.8313   14.9753 C   0  0  0  0  0  0  0  0  0  0  0  0
  -28.3108  -25.4226   20.9697 C   0  0  0  0  0  0  0  0  0  1  0  0
  -31.5213  -19.4373   24.6788 C   0  0  0  0  0  0  0  0  0  0  0  0
  -30.9963  -21.6943   23.5686 C   0  0  0  0  0  0  0  0  0  0  0  0
  -21.0338  -30.2164   19.2993 C   0  0  1  0  0  0  0  0  0  0  0  0
  -21.0462  -29.9587   15.5173 C   0  0  2  0  0  0  0  0  0  0  0  0
  -31.4246  -20.9657   24.8494 C   0  0  1  0  0  0  0  0  0  0  0  0
  -19.6954  -30.3053   20.0857 C   0  0  0  0  0  0  0  0  0  0  0  0
  -25.6618  -11.5639   20.2830 N   0  0  0  0  0  0  0  0  0  0  0  0
  -26.9018  -12.0736   20.1901 N   0  0  0  0  0  0  0  0  0  0  0  0
  -23.2566  -30.6870   20.2800 N   0  0  0  0  0  0  0  0  0  0  0  0
  -27.2516  -15.5333   18.5952 N   0  0  0  0  0  0  0  0  0  0  0  0
  -28.7212  -17.0284   19.7467 N   0  0  0  0  0  0  0  0  0  0  0  0
  -29.0643  -11.9681   21.1511 N   0  0  0  0  0  0  0  0  0  0  0  0
  -26.6945   -8.9955   23.5891 N   0  0  0  0  0  0  0  0  0  0  0  0
  -23.4978  -32.6728   22.9944 N   0  0  0  0  0  0  0  0  0  0  0  0
  -20.8991  -30.4380   17.8636 N   0  0  0  0  0  0  0  0  0  0  0  0
  -22.0998  -29.4270   14.6072 N   0  3  0  0  0  0  0  0  0  0  0  0
  -28.7565   -9.9633   23.3243 O   0  0  0  0  0  0  0  0  0  0  0  0
  -24.0852  -30.4195   23.0005 O   0  0  0  0  0  0  0  0  0  0  0  0
  -21.7993  -32.4206   19.7257 O   0  0  0  0  0  0  0  0  0  0  0  0
  -21.7861  -28.3985   17.2072 O   0  0  0  0  0  0  0  0  0  0  0  0
  -29.0205  -16.5413   17.5134 O   0  0  0  0  0  0  0  0  0  0  0  0
  -21.3107   -7.7320   22.9161 O   0  0  0  0  0  0  0  0  0  0  0  0
  -26.9393  -25.7541   20.7958 O   0  0  0  0  0  0  0  0  0  1  0  0
  -29.6799  -21.3066   23.1805 O   0  0  0  0  0  0  0  0  0  0  0  0
  -22.0418   -2.3549   23.8939 F   0  0  0  0  0  0  0  0  0  0  0  0
  -19.9133   -5.8266   21.4810 F   0  0  0  0  0  0  0  0  0  0  0  0
  1  2  1  0  0  0  0
  1  5  2  0  0  0  0
  2  6  2  0  0  0  0
  3  8  2  0  0  0  0
  3 17  1  0  0  0  0
  4  9  1  0  0  0  0
  4 17  2  0  0  0  0
  5 19  1  0  0  0  0
  6 21  1  0  0  0  0
  7 10  2  0  0  0  0
  7 20  1  0  0  0  0
  8 26  1  0  0  0  0
  9 26  2  0  0  0  0
 10 27  1  0  0  0  0
 11 12  2  0  0  0  0
 11 28  1  0  0  0  0
 12 30  1  0  0  0  0
 13 22  1  0  0  0  0
 13 24  2  0  0  0  0
 14 23  1  0  0  0  0
 14 27  2  0  0  0  0
 15 25  2  0  0  0  0
 15 29  1  0  0  0  0
 16 30  2  0  0  0  0
 16 31  1  0  0  0  0
 17 32  1  0  0  0  0
 18 32  1  0  0  0  0
 18 33  2  0  0  0  0
 18 34  1  0  0  0  0
 19 21  2  0  0  0  0
 19 39  1  0  0  0  0
 20 23  2  0  0  0  0
 20 40  1  0  0  0  0
 21 53  1  0  0  0  0
 22 29  2  0  0  0  0
 22 52  1  0  0  0  0
 23 41  1  0  0  0  0
 24 25  1  0  0  0  0
 24 56  1  0  0  0  0
 25 64  1  0  0  0  0
 26 86  1  0  0  0  0
 27 87  1  0  0  0  0
 28 31  2  0  0  0  0
 28 86  1  0  0  0  0
 29 88  1  0  0  0  0
 30 89  1  0  0  0  0
 31 90  1  0  0  0  0
 32 71  2  0  0  0  0
 33 72  1  0  0  0  0
 33 76  1  0  0  0  0
 34 77  1  0  0  0  0
 34 81  2  0  0  0  0
 35 54  1  0  0  0  0
 35 78  1  0  0  0  0
 35 82  2  0  0  0  0
 36 67  1  0  0  0  0
 36 73  1  0  0  0  0
 36 83  2  0  0  0  0
 37 68  1  0  0  0  0
 37 79  1  0  0  0  0
 37 84  2  0  0  0  0
 38 74  1  0  0  0  0
 38 75  1  0  0  0  0
 38 85  2  0  0  0  0
 39 42  1  0  0  0  0
 40 54  1  0  0  0  0
 41 73  1  0  0  0  0
 42 44  1  0  0  0  0
 43 45  1  0  0  0  0
 43 48  1  0  0  0  0
 44 53  1  0  0  0  0
 45 55  1  0  0  0  0
 46 49  1  0  0  0  0
 46 52  1  0  0  0  0
 47 50  1  0  0  0  0
 47 52  1  0  0  0  0
 48 74  1  0  0  0  0
 49 75  1  0  0  0  0
 50 75  1  0  0  0  0
 51 55  1  0  0  0  0
 51 74  1  0  0  0  0
 53 78  1  0  0  0  0
 54 73  1  0  0  0  0
 55 72  1  0  0  0  0
 57 65  1  0  0  0  0
 58 68  1  0  0  0  0
 59 69  1  0  0  0  0
 60 70  1  0  0  0  0
 61 70  1  0  0  0  0
 62 70  1  0  0  0  0
 63 80  1  0  0  0  0
 64 87  1  0  0  0  0
 65 69  1  0  0  0  0
 66 69  1  0  0  0  0
 66 88  1  0  0  0  0
 67 70  1  0  0  0  0
 67 79  1  0  0  0  0
 68 80  1  0  0  0  0
 71 72  1  0  0  0  0
M  CHG  1  80   1
M  ISO  4  38 100  64 101  75 100  87 101
M  END
> <Batch ID>
0144

> <Smiles>
CCC(C)COc1cc([101CH2:1][101O:1]c2ccc3c(c2)CN(C(=O)C(NC(=O)C(C)NC)C(C)(C)C)C(C(=O)NC2CCCc4ccccc42)C3)c(C)cc1C1CC[100N:0]([100C:0](=O)N2CCCC(n3nc(-c4ccc(Oc5ccc(F)cc5F)cc4)c(C(N)=O)c3N)C2)CC1

> <Shape>
0.248

> <Color>
0.071

> <Negative vol penalty>
0.000

$$$$

  -OEChem-04052321263D

 85 94  0     1  0  0  0  0  0999 V2000
  -27.2767  -27.8701   11.1099 C   0  0  0  0  0  0  0  0  0  0  0  0
  -28.1345  -26.9481   11.7012 C   0  0  0  0  0  0  0  0  0  0  0  0
  -23.2538   -9.8014   19.9372 C   0  0  0  0  0  0  0  0  0  0  0  0
  -23.6238  -10.0223   22.3145 C   0  0  0  0  0  0  0  0  0  0  0  0
  -27.1691  -29.1571   11.6353 C   0  0  0  0  0  0  0  0  0  0  0  0
  -28.8860  -27.3130   12.8177 C   0  0  0  0  0  0  0  0  0  0  0  0
  -28.8290  -23.7736   16.4390 C   0  0  0  0  0  0  0  0  0  0  0  0
  -22.5194   -8.6366   20.1597 C   0  0  0  0  0  0  0  0  0  0  0  0
  -22.8892   -8.8576   22.5370 C   0  0  0  0  0  0  0  0  0  0  0  0
  -29.6520  -22.6631   16.2570 C   0  0  0  0  0  0  0  0  0  0  0  0
  -23.3834   -5.5202   22.3159 C   0  0  0  0  0  0  0  0  0  0  0  0
  -23.9070   -4.5843   23.2077 C   0  0  0  0  0  0  0  0  0  0  0  0
  -31.2818  -23.6341   17.7469 C   0  0  0  0  0  0  0  0  0  0  0  0
  -32.3364  -19.3290   17.4461 C   0  0  0  0  0  0  0  0  0  0  0  0
  -21.9421   -4.8076   24.5957 C   0  0  0  0  0  0  0  0  0  0  0  0
  -23.8061  -10.4942   21.0146 C   0  0  0  0  0  0  0  0  0  0  0  0
  -24.0752  -13.0160   20.7392 C   0  0  0  0  0  0  0  0  0  0  0  0
  -27.9124  -29.5349   12.7646 C   0  0  0  0  0  0  0  0  0  0  0  0
  -29.2318  -24.8295   17.2693 C   0  0  0  0  0  0  0  0  0  0  0  0
  -28.7892  -28.6066   13.3579 C   0  0  0  0  0  0  0  0  0  0  0  0
  -30.4610  -24.7558   17.9399 C   0  0  0  0  0  0  0  0  0  0  0  0
  -31.1985  -18.3607   19.3308 C   0  0  0  0  0  0  0  0  0  0  0  0
  -32.1612  -18.2713   18.3314 C   0  0  0  0  0  0  0  0  0  0  0  0
  -22.3370   -8.1647   21.4596 C   0  0  0  0  0  0  0  0  0  0  0  0
  -30.8799  -22.5945   16.9087 C   0  0  0  0  0  0  0  0  0  0  0  0
  -22.1391   -6.0999   22.5639 C   0  0  0  0  0  0  0  0  0  0  0  0
  -23.1864   -4.2280   24.3476 C   0  0  0  0  0  0  0  0  0  0  0  0
  -21.4185   -5.7436   23.7038 C   0  0  0  0  0  0  0  0  0  0  0  0
  -24.5654  -11.6971   20.7853 C   0  0  0  0  0  0  0  0  0  0  0  0
  -31.5300  -20.4451   17.6014 C   0  0  0  0  0  0  0  0  0  1  0  0
  -30.4430  -19.5201   19.4017 C   0  0  0  0  0  0  0  0  0  0  0  0
  -25.1857  -13.7867   20.4956 C   0  0  0  0  0  0  0  0  0  0  0  0
  -22.7358  -13.5010   20.9021 C   0  0  0  0  0  0  0  0  0  0  0  0
  -29.8336  -27.9203   16.8351 C   0  0  0  0  0  0  0  0  0  0  0  0
  -30.1268  -27.9177   20.0656 C   0  0  0  0  0  0  0  0  0  0  0  0
  -30.7657  -26.1520   22.9154 C   0  0  0  0  0  0  0  0  0  0  0  0
  -29.7442  -14.6692   17.5305 C   0  0  0  0  0  0  0  0  0  0  0  0
  -27.7981  -30.9520   13.2681 C   0  0  0  0  0  0  0  0  0  0  0  0
  -28.3206  -26.0083   17.4762 C   0  0  0  0  0  0  0  0  0  0  0  0
  -30.9306  -25.8536   18.8579 C   0  0  0  0  0  0  0  0  0  0  0  0
  -28.3481  -31.1432   14.6792 C   0  0  0  0  0  0  0  0  0  0  0  0
  -30.0926  -12.6373   20.5903 C   0  0  0  0  0  0  0  0  0  0  0  0
  -31.0721  -17.5288   21.7733 C   0  0  0  0  0  0  0  0  0  0  0  0
  -32.1524  -16.7392   21.1026 C   0  0  0  0  0  0  0  0  0  0  0  0
  -29.7094  -30.4690   14.8175 C   0  0  0  0  0  0  0  0  0  0  0  0
  -28.6364  -12.2793   20.8722 C   0  0  0  0  0  0  0  0  0  0  0  0
  -30.3796  -12.7350   19.0926 C   0  0  0  0  0  0  0  0  0  0  0  0
  -28.0086  -13.3096   18.6542 C   0  0  0  0  0  0  0  0  0  0  0  0
  -30.9845  -17.2442   20.2972 C   0  0  0  0  0  0  0  0  0  0  0  0
  -29.6024  -28.9571   14.5851 C   0  0  1  0  0  0  0  0  0  0  0  0
  -29.0590  -27.2599   17.9404 C   0  0  1  0  0  0  0  0  0  0  0  0
  -27.6897  -13.2547   20.1561 C   0  0  1  0  0  0  0  0  0  0  0  0
  -30.9711  -26.4304   25.4009 C   0  0  0  0  0  0  0  0  0  0  0  0
  -32.8690  -29.2026   19.6927 C   0  0  0  0  0  0  0  0  0  0  0  0
  -33.4018  -28.5879   22.0605 C   0  0  0  0  0  0  0  0  0  0  0  0
  -31.5197  -30.1507   21.5728 C   0  0  0  0  0  0  0  0  0  0  0  0
  -28.5359  -24.2744   23.4266 C   0  0  0  0  0  0  0  0  0  0  0  0
  -28.7464  -20.8657   20.3849 C   0  0  0  0  0  0  0  0  0  0  0  0
  -33.0161  -17.0555   18.1879 C   0  0  0  0  0  0  0  0  0  0  0  0
  -32.9612  -16.3999   16.7947 C   0  0  0  0  0  0  0  0  0  0  0  0
  -31.5802  -15.8837   16.3964 C   0  0  0  0  0  0  0  0  0  0  0  0
  -31.2613  -27.6937   21.0360 C   0  0  1  0  0  0  0  0  0  0  0  0
  -30.0398  -26.0920   24.2472 C   0  0  2  0  0  0  0  0  0  0  0  0
  -32.2553  -28.8888   21.0717 C   0  0  0  0  0  0  0  0  0  0  0  0
  -25.8845  -11.6301   20.5868 N   0  0  0  0  0  0  0  0  0  0  0  0
  -30.5844  -20.5682   18.5597 N   0  0  0  0  0  0  0  0  0  0  0  0
  -26.2326  -12.9165   20.4135 N   0  0  0  0  0  0  0  0  0  0  0  0
  -30.0070  -26.9882   19.0228 N   0  0  0  0  0  0  0  0  0  0  0  0
  -29.4226  -13.6238   18.4150 N   0  0  0  0  0  0  0  0  0  0  0  0
  -25.3589  -15.1171   20.3457 N   0  0  0  0  0  0  0  0  0  0  0  0
  -21.7143  -12.5732   21.1465 N   0  0  0  0  0  0  0  0  0  0  0  0
  -29.0595  -28.3029   15.7563 N   0  0  0  0  0  0  0  0  0  0  0  0
  -30.6441  -27.3911   22.3228 N   0  0  0  0  0  0  0  0  0  0  0  0
  -31.0993  -14.8583   17.2833 N   0  0  0  0  0  0  0  0  0  0  0  0
  -29.4866  -24.7270   24.4746 N   0  3  0  0  0  0  0  0  0  0  0  0
  -22.4508  -14.7196   20.8166 O   0  0  0  0  0  0  0  0  0  0  0  0
  -31.0438  -28.0728   16.9530 O   0  0  0  0  0  0  0  0  0  0  0  0
  -29.3702  -28.8779   20.2311 O   0  0  0  0  0  0  0  0  0  0  0  0
  -31.3823  -25.1965   22.4492 O   0  0  0  0  0  0  0  0  0  0  0  0
  -28.8873  -15.3802   16.9940 O   0  0  0  0  0  0  0  0  0  0  0  0
  -21.6202   -7.0283   21.6771 O   0  0  0  0  0  0  0  0  0  0  0  0
  -31.6854  -21.5120   16.7322 O   0  0  0  0  0  0  0  0  0  1  0  0
  -29.4832  -19.6491   20.3720 O   0  0  0  0  0  0  0  0  0  0  0  0
  -23.6887   -3.3281   25.2032 F   0  0  0  0  0  0  0  0  0  0  0  0
  -20.2220   -6.2961   23.9469 F   0  0  0  0  0  0  0  0  0  0  0  0
  1  2  1  0  0  0  0
  1  5  2  0  0  0  0
  2  6  2  0  0  0  0
  3  8  2  0  0  0  0
  3 16  1  0  0  0  0
  4  9  1  0  0  0  0
  4 16  2  0  0  0  0
  5 18  1  0  0  0  0
  6 20  1  0  0  0  0
  7 10  2  0  0  0  0
  7 19  1  0  0  0  0
  8 24  1  0  0  0  0
  9 24  2  0  0  0  0
 10 25  1  0  0  0  0
 11 12  2  0  0  0  0
 11 26  1  0  0  0  0
 12 27  1  0  0  0  0
 13 21  1  0  0  0  0
 13 25  2  0  0  0  0
 14 23  2  0  0  0  0
 14 30  1  0  0  0  0
 15 27  2  0  0  0  0
 15 28  1  0  0  0  0
 16 29  1  0  0  0  0
 17 29  1  0  0  0  0
 17 32  2  0  0  0  0
 17 33  1  0  0  0  0
 18 20  2  0  0  0  0
 18 38  1  0  0  0  0
 19 21  2  0  0  0  0
 19 39  1  0  0  0  0
 20 50  1  0  0  0  0
 21 40  1  0  0  0  0
 22 23  1  0  0  0  0
 22 31  2  0  0  0  0
 22 49  1  0  0  0  0
 23 59  1  0  0  0  0
 24 81  1  0  0  0  0
 25 82  1  0  0  0  0
 26 28  2  0  0  0  0
 26 81  1  0  0  0  0
 27 84  1  0  0  0  0
 28 85  1  0  0  0  0
 29 65  2  0  0  0  0
 30 66  2  0  0  0  0
 30 82  1  0  0  0  0
 31 66  1  0  0  0  0
 31 83  1  0  0  0  0
 32 67  1  0  0  0  0
 32 70  1  0  0  0  0
 33 71  1  0  0  0  0
 33 76  2  0  0  0  0
 34 51  1  0  0  0  0
 34 72  1  0  0  0  0
 34 77  2  0  0  0  0
 35 62  1  0  0  0  0
 35 68  1  0  0  0  0
 35 78  2  0  0  0  0
 36 63  1  0  0  0  0
 36 73  1  0  0  0  0
 36 79  2  0  0  0  0
 37 69  1  0  0  0  0
 37 74  1  0  0  0  0
 37 80  2  0  0  0  0
 38 41  1  0  0  0  0
 39 51  1  0  0  0  0
 40 68  1  0  0  0  0
 41 45  1  0  0  0  0
 42 46  1  0  0  0  0
 42 47  1  0  0  0  0
 43 44  1  0  0  0  0
 43 49  1  0  0  0  0
 44 49  1  0  0  0  0
 45 50  1  0  0  0  0
 46 52  1  0  0  0  0
 47 69  1  0  0  0  0
 48 52  1  0  0  0  0
 48 69  1  0  0  0  0
 50 72  1  0  0  0  0
 51 68  1  0  0  0  0
 52 67  1  0  0  0  0
 53 63  1  0  0  0  0
 54 64  1  0  0  0  0
 55 64  1  0  0  0  0
 56 64  1  0  0  0  0
 57 75  1  0  0  0  0
 58 83  1  0  0  0  0
 59 60  1  0  0  0  0
 60 61  1  0  0  0  0
 61 74  1  0  0  0  0
 62 64  1  0  0  0  0
 62 73  1  0  0  0  0
 63 75  1  0  0  0  0
 65 67  1  0  0  0  0
M  CHG  1  75   1
M  ISO  4  30 101  37 100  74 100  82 101
M  END
> <Batch ID>
0144

> <Smiles>
CNC(C)C(=O)NC(C(=O)N1Cc2cc([101O:1][101c:1]3cc(CCC[100NH:0][100C:0](=O)N4CCCC(n5nc(-c6ccc(Oc7ccc(F)cc7F)cc6)c(C(N)=O)c5N)C4)c(C4CC4)c(OC)n3)ccc2CC1C(=O)NC1CCCc2ccccc21)C(C)(C)C

> <Shape>
0.234

> <Color>
0.192

> <Negative vol penalty>
0.000

$$$$

  -OEChem-04052321263D

 89 98  0     1  0  0  0  0  0999 V2000
  -27.3891  -12.6236   17.1771 C   0  0  0  0  0  0  0  0  0  0  0  0
  -26.6605  -13.7878   16.9553 C   0  0  0  0  0  0  0  0  0  0  0  0
  -30.2991  -24.4965   19.1509 C   0  0  0  0  0  0  0  0  0  0  0  0
  -28.2991  -23.4304   19.9878 C   0  0  0  0  0  0  0  0  0  0  0  0
  -27.2169  -11.9101   18.3625 C   0  0  0  0  0  0  0  0  0  0  0  0
  -25.7583  -14.2385   17.9183 C   0  0  0  0  0  0  0  0  0  0  0  0
  -23.0488  -20.2894   20.6316 C   0  0  0  0  0  0  0  0  0  0  0  0
  -31.0265  -23.3347   19.4093 C   0  0  0  0  0  0  0  0  0  0  0  0
  -29.0265  -22.2686   20.2462 C   0  0  0  0  0  0  0  0  0  0  0  0
  -21.8219  -20.8912   20.9078 C   0  0  0  0  0  0  0  0  0  0  0  0
  -30.2298  -19.6432   18.4914 C   0  0  0  0  0  0  0  0  0  0  0  0
  -29.6632  -18.4272   18.1094 C   0  0  0  0  0  0  0  0  0  0  0  0
  -21.6652  -19.6200   22.9520 C   0  0  0  0  0  0  0  0  0  0  0  0
  -18.9104  -28.4273   21.9207 C   0  0  0  0  0  0  0  0  0  0  0  0
  -29.7124  -17.6825   20.4073 C   0  0  0  0  0  0  0  0  0  0  0  0
  -28.9354  -24.5444   19.4402 C   0  0  0  0  0  0  0  0  0  0  0  0
  -27.5079  -26.0780   17.9849 C   0  0  0  0  0  0  0  0  0  0  0  0
  -26.3193  -12.3575   19.3447 C   0  0  0  0  0  0  0  0  0  0  0  0
  -23.5888  -19.3386   21.5096 C   0  0  0  0  0  0  0  0  0  0  0  0
  -25.5730  -13.5296   19.1173 C   0  0  0  0  0  0  0  0  0  0  0  0
  -22.9003  -19.0094   22.6859 C   0  0  0  0  0  0  0  0  0  0  0  0
  -20.4034  -26.3896   23.1346 C   0  0  0  0  0  0  0  0  0  0  0  0
  -19.0617  -26.1630   22.7814 C   0  0  0  0  0  0  0  0  0  0  0  0
  -18.3197  -27.1923   22.1860 C   0  0  0  0  0  0  0  0  0  0  0  0
  -20.9901  -27.6314   22.8525 C   0  0  0  0  0  0  0  0  0  0  0  0
  -30.3902  -22.2208   19.9569 C   0  0  0  0  0  0  0  0  0  0  0  0
  -21.1285  -20.5545   22.0666 C   0  0  0  0  0  0  0  0  0  0  0  0
  -30.5378  -19.8788   19.8313 C   0  0  0  0  0  0  0  0  0  0  0  0
  -20.2453  -28.6459   22.2515 C   0  0  0  0  0  0  0  0  0  0  0  0
  -29.4045  -17.4469   19.0673 C   0  0  0  0  0  0  0  0  0  0  0  0
  -30.2791  -18.8985   20.7892 C   0  0  0  0  0  0  0  0  0  0  0  0
  -28.1836  -25.7444   19.1740 C   0  0  0  0  0  0  0  0  0  0  0  0
  -26.9560  -27.3100   18.2377 C   0  0  0  0  0  0  0  0  0  0  0  0
  -27.3896  -25.3401   16.7612 C   0  0  0  0  0  0  0  0  0  0  0  0
  -24.3594  -16.2628   21.2875 C   0  0  0  0  0  0  0  0  0  0  0  0
  -25.5479  -16.7467   24.2667 C   0  0  0  0  0  0  0  0  0  0  0  0
  -25.4896  -18.5756   27.1474 C   0  0  0  0  0  0  0  0  0  0  0  0
  -24.1928  -30.8089   21.5945 C   0  0  0  0  0  0  0  0  0  0  0  0
  -26.1322  -11.5270   20.5897 C   0  0  0  0  0  0  0  0  0  0  0  0
  -24.9260  -18.7182   21.2106 C   0  0  0  0  0  0  0  0  0  0  0  0
  -21.2369  -25.2952   23.7512 C   0  0  0  0  0  0  0  0  0  0  0  0
  -23.4466  -18.0097   23.6711 C   0  0  0  0  0  0  0  0  0  0  0  0
  -18.3951  -24.8488   23.0837 C   0  0  0  0  0  0  0  0  0  0  0  0
  -25.4321  -12.2749   21.7213 C   0  0  0  0  0  0  0  0  0  0  0  0
  -27.7118  -30.5343   22.0612 C   0  0  0  0  0  0  0  0  0  0  0  0
  -24.2066  -13.0147   21.1943 C   0  0  0  0  0  0  0  0  0  0  0  0
  -28.0910  -29.2882   21.2590 C   0  0  0  0  0  0  0  0  0  0  0  0
  -26.3498  -30.3793   22.7343 C   0  0  0  0  0  0  0  0  0  0  0  0
  -25.6290  -28.7573   21.0246 C   0  0  0  0  0  0  0  0  0  0  0  0
  -20.4034  -24.1995   24.4068 C   0  0  0  0  0  0  0  0  0  0  0  0
  -24.6030  -14.0640   20.1487 C   0  0  1  0  0  0  0  0  0  0  0  0
  -25.1369  -17.3832   21.9182 C   0  0  1  0  0  0  0  0  0  0  0  0
  -26.9696  -28.8878   20.2816 C   0  0  2  0  0  0  0  0  0  0  0  0
  -16.8810  -27.0065   21.8230 C   0  0  0  0  0  0  0  0  0  0  0  0
  -22.4285  -27.8930   23.1771 C   0  0  0  0  0  0  0  0  0  0  0  0
  -26.5488  -18.7079   29.4186 C   0  0  0  0  0  0  0  0  0  0  0  0
  -18.2474  -22.6983   25.3413 C   0  0  0  0  0  0  0  0  0  0  0  0
  -23.8612  -14.3771   25.1888 C   0  0  0  0  0  0  0  0  0  0  0  0
  -24.2043  -15.1404   27.5484 C   0  0  0  0  0  0  0  0  0  0  0  0
  -26.1634  -14.4603   26.1620 C   0  0  0  0  0  0  0  0  0  0  0  0
  -26.5683  -21.2796   26.6146 C   0  0  0  0  0  0  0  0  0  0  0  0
  -22.0631  -31.1107   20.3566 C   0  0  0  0  0  0  0  0  0  0  0  0
  -20.8271  -30.2666   20.6112 C   0  0  0  0  0  0  0  0  0  0  0  0
  -19.5841  -21.3030   23.7130 C   0  0  0  0  0  0  0  0  0  1  0  0
  -24.9945  -16.6470   25.6677 C   0  0  1  0  0  0  0  0  0  0  0  0
  -26.6058  -19.1858   27.9759 C   0  0  2  0  0  0  0  0  0  0  0  0
  -18.6495  -22.4944   23.8896 C   0  0  2  0  0  0  0  0  0  0  0  0
  -24.7943  -15.1736   26.1224 C   0  0  0  0  0  0  0  0  0  0  0  0
  -28.0725  -26.6883   20.1124 N   0  0  0  0  0  0  0  0  0  0  0  0
  -27.3207  -27.6273   19.5130 N   0  0  0  0  0  0  0  0  0  0  0  0
  -24.7546  -17.4258   23.3311 N   0  0  0  0  0  0  0  0  0  0  0  0
  -25.3306  -30.0006   21.7526 N   0  0  0  0  0  0  0  0  0  0  0  0
  -26.1992  -28.1422   17.4912 N   0  0  0  0  0  0  0  0  0  0  0  0
  -28.0186  -24.0909   16.6709 N   0  0  0  0  0  0  0  0  0  0  0  0
  -25.1465  -15.2400   20.7937 N   0  0  0  0  0  0  0  0  0  0  0  0
  -25.8951  -17.4177   26.5182 N   0  0  0  0  0  0  0  0  0  0  0  0
  -23.2794  -30.3815   20.6386 N   0  0  0  0  0  0  0  0  0  0  0  0
  -19.3613  -23.7320   23.4225 N   0  3  1  0  0  0  0  0  0  0  0  0
  -26.5027  -20.6725   27.9689 N   0  3  0  0  0  0  0  0  0  0  0  0
  -26.7591  -25.7830   15.7714 O   0  0  0  0  0  0  0  0  0  0  0  0
  -23.1359  -16.3212   21.2529 O   0  0  0  0  0  0  0  0  0  0  0  0
  -26.6468  -16.2469   24.0136 O   0  0  0  0  0  0  0  0  0  0  0  0
  -24.3690  -19.0742   27.0695 O   0  0  0  0  0  0  0  0  0  0  0  0
  -24.0074  -31.8383   22.2524 O   0  0  0  0  0  0  0  0  0  0  0  0
  -31.0996  -21.0869   20.2090 O   0  0  0  0  0  0  0  0  0  0  0  0
  -19.9305  -21.1400   22.3383 O   0  0  0  0  0  0  0  0  0  1  0  0
  -20.8062  -29.8572   21.9770 O   0  0  0  0  0  0  0  0  0  0  0  0
  -28.8589  -16.2798   18.7006 F   0  0  0  0  0  0  0  0  0  0  0  0
  -30.5717  -19.1196   22.0781 F   0  0  0  0  0  0  0  0  0  0  0  0
  1  2  1  0  0  0  0
  1  5  2  0  0  0  0
  2  6  2  0  0  0  0
  3  8  2  0  0  0  0
  3 16  1  0  0  0  0
  4  9  1  0  0  0  0
  4 16  2  0  0  0  0
  5 18  1  0  0  0  0
  6 20  1  0  0  0  0
  7 10  2  0  0  0  0
  7 19  1  0  0  0  0
  8 26  1  0  0  0  0
  9 26  2  0  0  0  0
 10 27  1  0  0  0  0
 11 12  2  0  0  0  0
 11 28  1  0  0  0  0
 12 30  1  0  0  0  0
 13 21  1  0  0  0  0
 13 27  2  0  0  0  0
 14 24  2  0  0  0  0
 14 29  1  0  0  0  0
 15 30  2  0  0  0  0
 15 31  1  0  0  0  0
 16 32  1  0  0  0  0
 17 32  1  0  0  0  0
 17 33  2  0  0  0  0
 17 34  1  0  0  0  0
 18 20  2  0  0  0  0
 18 39  1  0  0  0  0
 19 21  2  0  0  0  0
 19 40  1  0  0  0  0
 20 51  1  0  0  0  0
 21 42  1  0  0  0  0
 22 23  2  0  0  0  0
 22 25  1  0  0  0  0
 22 41  1  0  0  0  0
 23 24  1  0  0  0  0
 23 43  1  0  0  0  0
 24 54  1  0  0  0  0
 25 29  2  0  0  0  0
 25 55  1  0  0  0  0
 26 85  1  0  0  0  0
 27 86  1  0  0  0  0
 28 31  2  0  0  0  0
 28 85  1  0  0  0  0
 29 87  1  0  0  0  0
 30 88  1  0  0  0  0
 31 89  1  0  0  0  0
 32 69  2  0  0  0  0
 33 70  1  0  0  0  0
 33 73  1  0  0  0  0
 34 74  1  0  0  0  0
 34 80  2  0  0  0  0
 35 52  1  0  0  0  0
 35 75  1  0  0  0  0
 35 81  2  0  0  0  0
 36 65  1  0  0  0  0
 36 71  1  0  0  0  0
 36 82  2  0  0  0  0
 37 66  1  0  0  0  0
 37 76  1  0  0  0  0
 37 83  2  0  0  0  0
 38 72  1  0  0  0  0
 38 77  1  0  0  0  0
 38 84  2  0  0  0  0
 39 44  1  0  0  0  0
 40 52  1  0  0  0  0
 41 50  1  0  0  0  0
 42 71  1  0  0  0  0
 43 78  1  0  0  0  0
 44 46  1  0  0  0  0
 45 47  1  0  0  0  0
 45 48  1  0  0  0  0
 46 51  1  0  0  0  0
 47 53  1  0  0  0  0
 48 72  1  0  0  0  0
 49 53  1  0  0  0  0
 49 72  1  0  0  0  0
 50 78  1  0  0  0  0
 51 75  1  0  0  0  0
 52 71  1  0  0  0  0
 53 70  1  0  0  0  0
 56 66  1  0  0  0  0
 57 67  1  0  0  0  0
 58 68  1  0  0  0  0
 59 68  1  0  0  0  0
 60 68  1  0  0  0  0
 61 79  1  0  0  0  0
 62 63  1  0  0  0  0
 62 77  1  0  0  0  0
 63 87  1  0  0  0  0
 64 67  1  0  0  0  0
 64 86  1  0  0  0  0
 65 68  1  0  0  0  0
 65 76  1  0  0  0  0
 66 79  1  0  0  0  0
 67 78  1  0  0  0  0
 69 70  1  0  0  0  0
M  CHG  2  78   1  79   1
M  ISO  4  38 100  64 101  77 100  86 101
M  END
> <Batch ID>
0144

> <Smiles>
CNC(C)C(=O)NC(C(=O)N1Cc2cc([101O:1][101CH2:1]C(C)N3CCc4c(C)c(OCC[100NH:0][100C:0](=O)N5CCCC(n6nc(-c7ccc(Oc8ccc(F)cc8F)cc7)c(C(N)=O)c6N)C5)cc(C)c4C3)ccc2CC1C(=O)NC1CCCc2ccccc21)C(C)(C)C

> <Shape>
0.230

> <Color>
0.066

> <Negative vol penalty>
0.000

$$$$

  -OEChem-04052321263D

 83 92  0     1  0  0  0  0  0999 V2000
  -28.9589  -32.7159   25.5326 C   0  0  0  0  0  0  0  0  0  0  0  0
  -28.8495  -31.4596   24.9451 C   0  0  0  0  0  0  0  0  0  0  0  0
  -24.5789  -12.5927   24.1607 C   0  0  0  0  0  0  0  0  0  0  0  0
  -24.2714  -14.9145   23.5676 C   0  0  0  0  0  0  0  0  0  0  0  0
  -27.8097  -33.4155   25.8985 C   0  0  0  0  0  0  0  0  0  0  0  0
  -27.5908  -30.9017   24.7241 C   0  0  0  0  0  0  0  0  0  0  0  0
  -27.1659  -28.8270   20.1241 C   0  0  0  0  0  0  0  0  0  0  0  0
  -29.7035  -19.1688   19.7263 C   0  0  0  0  0  0  0  0  0  0  0  0
  -24.1751  -12.8727   25.4661 C   0  0  0  0  0  0  0  0  0  0  0  0
  -23.8675  -15.1945   24.8730 C   0  0  0  0  0  0  0  0  0  0  0  0
  -27.7467  -27.5737   19.9348 C   0  0  0  0  0  0  0  0  0  0  0  0
  -29.2684  -20.4621   20.0250 C   0  0  0  0  0  0  0  0  0  0  0  0
  -21.0768  -14.8393   26.7455 C   0  0  0  0  0  0  0  0  0  0  0  0
  -19.9487  -15.6419   26.9152 C   0  0  0  0  0  0  0  0  0  0  0  0
  -29.0050  -20.9692   17.6608 C   0  0  0  0  0  0  0  0  0  0  0  0
  -25.5835  -26.5385   20.1959 C   0  0  0  0  0  0  0  0  0  0  0  0
  -21.2787  -17.2553   28.1257 C   0  0  0  0  0  0  0  0  0  0  0  0
  -24.6271  -13.6137   23.2114 C   0  0  0  0  0  0  0  0  0  0  0  0
  -24.2268  -12.9413   20.7834 C   0  0  0  0  0  0  0  0  0  0  0  0
  -26.5360  -32.8701   25.6731 C   0  0  0  0  0  0  0  0  0  0  0  0
  -25.7889  -28.9447   20.3621 C   0  0  0  0  0  0  0  0  0  0  0  0
  -26.4235  -31.5941   25.0886 C   0  0  0  0  0  0  0  0  0  0  0  0
  -29.7689  -18.7854   18.3958 C   0  0  0  0  0  0  0  0  0  0  0  0
  -29.4250  -19.6810   17.3740 C   0  0  0  0  0  0  0  0  0  0  0  0
  -24.9873  -27.7946   20.3854 C   0  0  0  0  0  0  0  0  0  0  0  0
  -23.8194  -14.1735   25.8223 C   0  0  0  0  0  0  0  0  0  0  0  0
  -26.9559  -26.4290   19.9736 C   0  0  0  0  0  0  0  0  0  0  0  0
  -28.9212  -21.3555   18.9998 C   0  0  0  0  0  0  0  0  0  0  0  0
  -22.3058  -15.2446   27.2660 C   0  0  0  0  0  0  0  0  0  0  0  0
  -20.0497  -16.8499   27.6053 C   0  0  0  0  0  0  0  0  0  0  0  0
  -22.4068  -16.4526   27.9560 C   0  0  0  0  0  0  0  0  0  0  0  0
  -25.0447  -13.3252   21.8629 C   0  0  0  0  0  0  0  0  0  0  0  0
  -25.0962  -12.7886   19.7311 C   0  0  0  0  0  0  0  0  0  0  0  0
  -22.8079  -12.7408   20.7360 C   0  0  0  0  0  0  0  0  0  0  0  0
  -24.0124  -30.0397   22.7597 C   0  0  0  0  0  0  0  0  0  0  0  0
  -21.5764  -29.4985   20.6873 C   0  0  0  0  0  0  0  0  0  0  0  0
  -20.4100  -27.7986   17.9676 C   0  0  0  0  0  0  0  0  0  0  0  0
  -30.4775  -15.1166   18.5174 C   0  0  0  0  0  0  0  0  0  0  0  0
  -25.3240  -33.6435   26.1287 C   0  0  0  0  0  0  0  0  0  0  0  0
  -25.1735  -30.3059   20.5378 C   0  0  0  0  0  0  0  0  0  0  0  0
  -29.6304  -19.0619   16.0267 C   0  0  0  0  0  0  0  0  0  0  0  0
  -23.5009  -27.8685   20.6172 C   0  0  0  0  0  0  0  0  0  0  0  0
  -24.0174  -33.1435   25.5180 C   0  0  0  0  0  0  0  0  0  0  0  0
  -29.6668  -17.5690   16.3888 C   0  0  0  0  0  0  0  0  0  0  0  0
  -29.6452  -11.6637   18.7655 C   0  0  0  0  0  0  0  0  0  0  0  0
  -23.9371  -31.6225   25.6007 C   0  0  0  0  0  0  0  0  0  0  0  0
  -28.2980  -11.6634   19.4901 C   0  0  0  0  0  0  0  0  0  0  0  0
  -30.5665  -12.7639   19.2877 C   0  0  0  0  0  0  0  0  0  0  0  0
  -28.6348  -14.1177   20.0017 C   0  0  0  0  0  0  0  0  0  0  0  0
  -30.2406  -17.4851   17.8148 C   0  0  2  0  0  0  0  0  0  0  0  0
  -25.0752  -30.9661   24.8099 C   0  0  1  0  0  0  0  0  0  0  0  0
  -23.8436  -30.2685   21.2843 C   0  0  1  0  0  0  0  0  0  0  0  0
  -27.6507  -13.0612   19.4710 C   0  0  2  0  0  0  0  0  0  0  0  0
  -18.3678  -27.5420   16.5320 C   0  0  0  0  0  0  0  0  0  0  0  0
  -20.2499  -27.8367   22.8756 C   0  0  0  0  0  0  0  0  0  0  0  0
  -18.7515  -26.8561   21.1259 C   0  0  0  0  0  0  0  0  0  0  0  0
  -18.6873  -29.3062   21.5898 C   0  0  0  0  0  0  0  0  0  0  0  0
  -21.8537  -28.7078   15.5493 C   0  0  0  0  0  0  0  0  0  0  0  0
  -26.7036  -24.1951   19.1978 C   0  0  0  0  0  0  0  0  0  1  0  0
  -27.5857  -23.2364   18.4215 C   0  0  0  0  0  0  0  0  0  0  0  0
  -20.6774  -28.3262   20.3768 C   0  0  1  0  0  0  0  0  0  0  0  0
  -19.6896  -28.2707   16.7175 C   0  0  2  0  0  0  0  0  0  0  0  0
  -19.6198  -28.0794   21.4895 C   0  0  0  0  0  0  0  0  0  0  0  0
  -26.3347  -13.4109   21.5273 N   0  0  0  0  0  0  0  0  0  0  0  0
  -26.3339  -13.0786   20.2252 N   0  0  0  0  0  0  0  0  0  0  0  0
  -22.9471  -29.2216   20.7898 N   0  0  0  0  0  0  0  0  0  0  0  0
  -29.8934  -14.0642   19.2414 N   0  0  0  0  0  0  0  0  0  0  0  0
  -24.9151  -12.4357   18.4407 N   0  0  0  0  0  0  0  0  0  0  0  0
  -22.0653  -12.9409   21.9077 N   0  0  0  0  0  0  0  0  0  0  0  0
  -24.7868  -30.9937   23.3920 N   0  0  0  0  0  0  0  0  0  0  0  0
  -20.1085  -28.5858   19.0588 N   0  0  0  0  0  0  0  0  0  0  0  0
  -29.7710  -16.3132   18.5197 N   0  0  0  0  0  0  0  0  0  0  0  0
  -20.5322  -28.0300   15.5120 N   0  3  0  0  0  0  0  0  0  0  0  0
  -22.2182  -12.3784   19.6898 O   0  0  0  0  0  0  0  0  0  0  0  0
  -23.4784  -29.0703   23.2858 O   0  0  0  0  0  0  0  0  0  0  0  0
  -21.0816  -30.6198   20.8264 O   0  0  0  0  0  0  0  0  0  0  0  0
  -21.1618  -26.8264   17.9761 O   0  0  0  0  0  0  0  0  0  0  0  0
  -31.5465  -14.9971   17.9092 O   0  0  0  0  0  0  0  0  0  0  0  0
  -23.4250  -14.4470   27.0959 O   0  0  0  0  0  0  0  0  0  0  0  0
  -27.5204  -25.2045   19.7897 O   0  0  0  0  0  0  0  0  0  1  0  0
  -28.5040  -22.6214   19.3170 O   0  0  0  0  0  0  0  0  0  0  0  0
  -18.9666  -17.6213   27.7669 F   0  0  0  0  0  0  0  0  0  0  0  0
  -23.5851  -16.8478   28.4573 F   0  0  0  0  0  0  0  0  0  0  0  0
  1  2  1  0  0  0  0
  1  5  2  0  0  0  0
  2  6  2  0  0  0  0
  3  9  2  0  0  0  0
  3 18  1  0  0  0  0
  4 10  1  0  0  0  0
  4 18  2  0  0  0  0
  5 20  1  0  0  0  0
  6 22  1  0  0  0  0
  7 11  2  0  0  0  0
  7 21  1  0  0  0  0
  8 12  2  0  0  0  0
  8 23  1  0  0  0  0
  9 26  1  0  0  0  0
 10 26  2  0  0  0  0
 11 27  1  0  0  0  0
 12 28  1  0  0  0  0
 13 14  2  0  0  0  0
 13 29  1  0  0  0  0
 14 30  1  0  0  0  0
 15 24  1  0  0  0  0
 15 28  2  0  0  0  0
 16 25  1  0  0  0  0
 16 27  2  0  0  0  0
 17 30  2  0  0  0  0
 17 31  1  0  0  0  0
 18 32  1  0  0  0  0
 19 32  1  0  0  0  0
 19 33  2  0  0  0  0
 19 34  1  0  0  0  0
 20 22  2  0  0  0  0
 20 39  1  0  0  0  0
 21 25  2  0  0  0  0
 21 40  1  0  0  0  0
 22 51  1  0  0  0  0
 23 24  2  0  0  0  0
 23 50  1  0  0  0  0
 24 41  1  0  0  0  0
 25 42  1  0  0  0  0
 26 79  1  0  0  0  0
 27 80  1  0  0  0  0
 28 81  1  0  0  0  0
 29 31  2  0  0  0  0
 29 79  1  0  0  0  0
 30 82  1  0  0  0  0
 31 83  1  0  0  0  0
 32 64  2  0  0  0  0
 33 65  1  0  0  0  0
 33 68  1  0  0  0  0
 34 69  1  0  0  0  0
 34 74  2  0  0  0  0
 35 52  1  0  0  0  0
 35 70  1  0  0  0  0
 35 75  2  0  0  0  0
 36 61  1  0  0  0  0
 36 66  1  0  0  0  0
 36 76  2  0  0  0  0
 37 62  1  0  0  0  0
 37 71  1  0  0  0  0
 37 77  2  0  0  0  0
 38 67  1  0  0  0  0
 38 72  1  0  0  0  0
 38 78  2  0  0  0  0
 39 43  1  0  0  0  0
 40 52  1  0  0  0  0
 41 44  1  0  0  0  0
 42 66  1  0  0  0  0
 43 46  1  0  0  0  0
 44 50  1  0  0  0  0
 45 47  1  0  0  0  0
 45 48  1  0  0  0  0
 46 51  1  0  0  0  0
 47 53  1  0  0  0  0
 48 67  1  0  0  0  0
 49 53  1  0  0  0  0
 49 67  1  0  0  0  0
 50 72  1  0  0  0  0
 51 70  1  0  0  0  0
 52 66  1  0  0  0  0
 53 65  1  0  0  0  0
 54 62  1  0  0  0  0
 55 63  1  0  0  0  0
 56 63  1  0  0  0  0
 57 63  1  0  0  0  0
 58 73  1  0  0  0  0
 59 60  1  0  0  0  0
 59 80  1  0  0  0  0
 60 81  1  0  0  0  0
 61 63  1  0  0  0  0
 61 71  1  0  0  0  0
 62 73  1  0  0  0  0
 64 65  1  0  0  0  0
M  CHG  1  73   1
M  ISO  4  38 100  59 101  72 100  80 101
M  END
> <Batch ID>
0144

> <Smiles>
CNC(C)C(=O)NC(C(=O)N1Cc2cc([101O:1][101CH2:1]COc3ccc4c(c3)CCC4[100NH:0][100C:0](=O)N3CCCC(n4nc(-c5ccc(Oc6ccc(F)cc6F)cc5)c(C(N)=O)c4N)C3)ccc2CC1C(=O)NC1CCCc2ccccc21)C(C)(C)C

> <Shape>
0.264

> <Color>
0.102

> <Negative vol penalty>
0.000

$$$$

  -OEChem-04052321263D

 89 98  0     1  0  0  0  0  0999 V2000
  -29.0773  -36.2864   23.6790 C   0  0  0  0  0  0  0  0  0  0  0  0
  -29.3277  -34.9965   23.2220 C   0  0  0  0  0  0  0  0  0  0  0  0
  -24.8467  -10.3132   21.7051 C   0  0  0  0  0  0  0  0  0  0  0  0
  -25.0287  -11.6575   23.7043 C   0  0  0  0  0  0  0  0  0  0  0  0
  -27.8907  -36.5671   24.3552 C   0  0  0  0  0  0  0  0  0  0  0  0
  -28.3921  -33.9862   23.4419 C   0  0  0  0  0  0  0  0  0  0  0  0
  -27.0897  -29.3009   19.7193 C   0  0  0  0  0  0  0  0  0  0  0  0
  -24.6947   -9.1690   22.4883 C   0  0  0  0  0  0  0  0  0  0  0  0
  -24.8767  -10.5133   24.4875 C   0  0  0  0  0  0  0  0  0  0  0  0
  -27.5016  -27.9690   19.7085 C   0  0  0  0  0  0  0  0  0  0  0  0
  -23.8975   -5.9427   23.9614 C   0  0  0  0  0  0  0  0  0  0  0  0
  -22.8965   -5.0398   23.6031 C   0  0  0  0  0  0  0  0  0  0  0  0
  -25.4967  -27.3457   20.8964 C   0  0  0  0  0  0  0  0  0  0  0  0
  -26.8277  -23.0308   23.8343 C   0  0  0  0  0  0  0  0  0  0  0  0
  -28.4431  -21.8151   22.5117 C   0  0  0  0  0  0  0  0  0  0  0  0
  -21.2328   -6.7663   23.9000 C   0  0  0  0  0  0  0  0  0  0  0  0
  -25.0138  -11.5574   22.3131 C   0  0  0  0  0  0  0  0  0  0  0  0
  -24.1522  -13.5860   21.0285 C   0  0  0  0  0  0  0  0  0  0  0  0
  -26.9358  -35.5619   24.5750 C   0  0  0  0  0  0  0  0  0  0  0  0
  -25.8815  -29.6674   20.3294 C   0  0  0  0  0  0  0  0  0  0  0  0
  -27.1923  -34.2534   24.1229 C   0  0  0  0  0  0  0  0  0  0  0  0
  -25.0706  -28.6826   20.9114 C   0  0  0  0  0  0  0  0  0  0  0  0
  -26.3957  -21.8344   24.4065 C   0  0  0  0  0  0  0  0  0  0  0  0
  -26.9874  -20.6282   24.0313 C   0  0  0  0  0  0  0  0  0  0  0  0
  -24.7097   -9.2690   23.8795 C   0  0  0  0  0  0  0  0  0  0  0  0
  -26.7065  -26.9916   20.2996 C   0  0  0  0  0  0  0  0  0  0  0  0
  -23.5661   -7.2574   24.2892 C   0  0  0  0  0  0  0  0  0  0  0  0
  -27.8514  -23.0212   22.8869 C   0  0  0  0  0  0  0  0  0  0  0  0
  -28.0111  -20.6186   23.0839 C   0  0  0  0  0  0  0  0  0  0  0  0
  -21.5642   -5.4516   23.5723 C   0  0  0  0  0  0  0  0  0  0  0  0
  -22.2338   -7.6692   24.2584 C   0  0  0  0  0  0  0  0  0  0  0  0
  -25.1714  -12.7396   21.5046 C   0  0  0  0  0  0  0  0  0  0  0  0
  -24.8156  -14.5557   20.3171 C   0  0  0  0  0  0  0  0  0  0  0  0
  -22.7328  -13.5032   21.2129 C   0  0  0  0  0  0  0  0  0  0  0  0
  -25.0774  -31.5447   22.7651 C   0  0  0  0  0  0  0  0  0  0  0  0
  -22.0607  -30.8783   21.7762 C   0  0  0  0  0  0  0  0  0  0  0  0
  -19.9553  -28.7633   20.1207 C   0  0  0  0  0  0  0  0  0  0  0  0
  -30.3926  -16.7173   20.5918 C   0  0  0  0  0  0  0  0  0  0  0  0
  -25.6890  -35.9025   25.3524 C   0  0  0  0  0  0  0  0  0  0  0  0
  -25.4385  -31.1047   20.3092 C   0  0  0  0  0  0  0  0  0  0  0  0
  -23.7548  -29.0211   21.5616 C   0  0  0  0  0  0  0  0  0  0  0  0
  -24.5822  -34.8601   25.2156 C   0  0  0  0  0  0  0  0  0  0  0  0
  -28.7985  -15.2597   17.7614 C   0  0  0  0  0  0  0  0  0  0  0  0
  -25.1469  -33.4548   25.3974 C   0  0  0  0  0  0  0  0  0  0  0  0
  -28.2677  -19.1513   26.6094 C   0  0  0  0  0  0  0  0  0  0  0  0
  -27.3502  -17.9667   26.7301 C   0  0  0  0  0  0  0  0  0  0  0  0
  -27.5962  -14.5249   18.3568 C   0  0  0  0  0  0  0  0  0  0  0  0
  -30.0160  -15.1871   18.6804 C   0  0  0  0  0  0  0  0  0  0  0  0
  -28.5736  -14.9053   20.6587 C   0  0  0  0  0  0  0  0  0  0  0  0
  -26.1908  -33.1361   24.3203 C   0  0  1  0  0  0  0  0  0  0  0  0
  -24.4364  -31.4367   21.4105 C   0  0  1  0  0  0  0  0  0  0  0  0
  -27.6263  -18.5690   25.3804 C   0  0  0  0  0  0  0  0  0  0  0  0
  -27.3050  -14.9983   19.7936 C   0  0  2  0  0  0  0  0  0  0  0  0
  -25.2976  -21.8713   25.4183 C   0  0  0  0  0  0  0  0  0  0  0  0
  -17.5387  -28.4660   19.5131 C   0  0  0  0  0  0  0  0  0  0  0  0
  -21.4539  -29.9933   24.6326 C   0  0  0  0  0  0  0  0  0  0  0  0
  -19.4025  -28.8479   23.7677 C   0  0  0  0  0  0  0  0  0  0  0  0
  -19.6360  -31.3214   23.5434 C   0  0  0  0  0  0  0  0  0  0  0  0
  -20.5526  -28.8537   17.2235 C   0  0  0  0  0  0  0  0  0  0  0  0
  -30.6396  -18.1832   22.5790 C   0  0  0  0  0  0  0  0  0  0  0  0
  -29.9669  -19.5155   22.3004 C   0  0  0  0  0  0  0  0  0  0  0  0
  -28.5118  -25.4434   20.2952 C   0  0  0  0  0  0  0  0  0  1  0  0
  -28.7807  -24.1265   20.9973 C   0  0  0  0  0  0  0  0  0  0  0  0
  -26.5289  -19.3426   24.6421 C   0  0  2  0  0  0  0  0  0  0  0  0
  -21.0450  -29.8065   22.0901 C   0  0  1  0  0  0  0  0  0  0  0  0
  -18.8851  -29.0215   19.0755 C   0  0  2  0  0  0  0  0  0  0  0  0
  -20.4100  -29.9858   23.4980 C   0  0  0  0  0  0  0  0  0  0  0  0
  -26.3896  -13.1367   21.1273 N   0  0  0  0  0  0  0  0  0  0  0  0
  -26.1402  -14.2432   20.4066 N   0  0  0  0  0  0  0  0  0  0  0  0
  -23.3683  -30.4411   21.5216 N   0  0  0  0  0  0  0  0  0  0  0  0
  -29.6730  -15.6514   20.0268 N   0  0  0  0  0  0  0  0  0  0  0  0
  -24.3892  -15.6367   19.6299 N   0  0  0  0  0  0  0  0  0  0  0  0
  -22.2184  -12.4430   21.9717 N   0  0  0  0  0  0  0  0  0  0  0  0
  -25.5420  -32.8103   23.0684 N   0  0  0  0  0  0  0  0  0  0  0  0
  -20.0824  -29.8228   20.9940 N   0  0  0  0  0  0  0  0  0  0  0  0
  -29.9992  -17.0988   21.8686 N   0  0  0  0  0  0  0  0  0  0  0  0
  -19.2593  -28.3824   17.7822 N   0  3  0  0  0  0  0  0  0  0  0  0
  -21.9427  -14.3351   20.7057 O   0  0  0  0  0  0  0  0  0  0  0  0
  -25.1441  -30.5536   23.4828 O   0  0  0  0  0  0  0  0  0  0  0  0
  -21.7054  -32.0593   21.7506 O   0  0  0  0  0  0  0  0  0  0  0  0
  -20.6102  -27.7241   20.1609 O   0  0  0  0  0  0  0  0  0  0  0  0
  -31.3137  -17.2902   19.9998 O   0  0  0  0  0  0  0  0  0  0  0  0
  -24.5611   -8.1528   24.6440 O   0  0  0  0  0  0  0  0  0  0  0  0
  -27.1064  -25.6909   20.2910 O   0  0  0  0  0  0  0  0  0  1  0  0
  -28.2763  -24.1965   22.3254 O   0  0  0  0  0  0  0  0  0  0  0  0
  -28.6010  -19.4501   22.7049 O   0  0  0  0  0  0  0  0  0  0  0  0
  -20.6033   -4.5848   23.2267 F   0  0  0  0  0  0  0  0  0  0  0  0
  -21.9095   -8.9313   24.5711 F   0  0  0  0  0  0  0  0  0  0  0  0
  -25.8027  -18.2878   23.3850 Cl  0  0  0  0  0  0  0  0  0  0  0  0
  1  2  1  0  0  0  0
  1  5  2  0  0  0  0
  2  6  2  0  0  0  0
  3  8  2  0  0  0  0
  3 17  1  0  0  0  0
  4  9  1  0  0  0  0
  4 17  2  0  0  0  0
  5 19  1  0  0  0  0
  6 21  1  0  0  0  0
  7 10  2  0  0  0  0
  7 20  1  0  0  0  0
  8 25  1  0  0  0  0
  9 25  2  0  0  0  0
 10 26  1  0  0  0  0
 11 12  2  0  0  0  0
 11 27  1  0  0  0  0
 12 30  1  0  0  0  0
 13 22  1  0  0  0  0
 13 26  2  0  0  0  0
 14 23  2  0  0  0  0
 14 28  1  0  0  0  0
 15 28  2  0  0  0  0
 15 29  1  0  0  0  0
 16 30  2  0  0  0  0
 16 31  1  0  0  0  0
 17 32  1  0  0  0  0
 18 32  1  0  0  0  0
 18 33  2  0  0  0  0
 18 34  1  0  0  0  0
 19 21  2  0  0  0  0
 19 39  1  0  0  0  0
 20 22  2  0  0  0  0
 20 40  1  0  0  0  0
 21 50  1  0  0  0  0
 22 41  1  0  0  0  0
 23 24  1  0  0  0  0
 23 54  1  0  0  0  0
 24 29  2  0  0  0  0
 24 64  1  0  0  0  0
 25 83  1  0  0  0  0
 26 84  1  0  0  0  0
 27 31  2  0  0  0  0
 27 83  1  0  0  0  0
 28 85  1  0  0  0  0
 29 86  1  0  0  0  0
 30 87  1  0  0  0  0
 31 88  1  0  0  0  0
 32 68  2  0  0  0  0
 33 69  1  0  0  0  0
 33 72  1  0  0  0  0
 34 73  1  0  0  0  0
 34 78  2  0  0  0  0
 35 51  1  0  0  0  0
 35 74  1  0  0  0  0
 35 79  2  0  0  0  0
 36 65  1  0  0  0  0
 36 70  1  0  0  0  0
 36 80  2  0  0  0  0
 37 66  1  0  0  0  0
 37 75  1  0  0  0  0
 37 81  2  0  0  0  0
 38 71  1  0  0  0  0
 38 76  1  0  0  0  0
 38 82  2  0  0  0  0
 39 42  1  0  0  0  0
 40 51  1  0  0  0  0
 41 70  1  0  0  0  0
 42 44  1  0  0  0  0
 43 47  1  0  0  0  0
 43 48  1  0  0  0  0
 44 50  1  0  0  0  0
 45 46  1  0  0  0  0
 45 52  1  0  0  0  0
 46 52  1  0  0  0  0
 47 53  1  0  0  0  0
 48 71  1  0  0  0  0
 49 53  1  0  0  0  0
 49 71  1  0  0  0  0
 50 74  1  0  0  0  0
 51 70  1  0  0  0  0
 52 64  1  0  0  0  0
 53 69  1  0  0  0  0
 55 66  1  0  0  0  0
 56 67  1  0  0  0  0
 57 67  1  0  0  0  0
 58 67  1  0  0  0  0
 59 77  1  0  0  0  0
 60 61  1  0  0  0  0
 60 76  1  0  0  0  0
 61 86  1  0  0  0  0
 62 63  1  0  0  0  0
 62 84  1  0  0  0  0
 63 85  1  0  0  0  0
 64 89  1  0  0  0  0
 65 67  1  0  0  0  0
 65 75  1  0  0  0  0
 66 77  1  0  0  0  0
 68 69  1  0  0  0  0
M  CHG  1  77   1
M  ISO  4  38 100  62 101  76 100  84 101
M  END
> <Batch ID>
0144

> <Smiles>
CNC(C)C(=O)NC(C(=O)N1Cc2cc([101O:1][101CH2:1]COc3cc(C)c(C(Cl)C4CC4)c(OCC[100NH:0][100C:0](=O)N4CCCC(n5nc(-c6ccc(Oc7ccc(F)cc7F)cc6)c(C(N)=O)c5N)C4)c3)ccc2CC1C(=O)NC1CCCc2ccccc21)C(C)(C)C

> <Shape>
0.277

> <Color>
0.095

> <Negative vol penalty>
0.000

$$$$

  -OEChem-04052321263D

 88 97  0     1  0  0  0  0  0999 V2000
  -19.3875  -34.7959   18.0373 C   0  0  0  0  0  0  0  0  0  0  0  0
  -20.7562  -35.0062   17.9033 C   0  0  0  0  0  0  0  0  0  0  0  0
  -32.4470  -22.4355   19.7393 C   0  0  0  0  0  0  0  0  0  0  0  0
  -24.6261   -8.8930   21.8199 C   0  0  0  0  0  0  0  0  0  0  0  0
  -22.8299  -10.4276   21.3140 C   0  0  0  0  0  0  0  0  0  0  0  0
  -18.8795  -34.2484   19.2147 C   0  0  0  0  0  0  0  0  0  0  0  0
  -21.6176  -34.6701   18.9471 C   0  0  0  0  0  0  0  0  0  0  0  0
  -26.9617  -29.9401   17.9679 C   0  0  0  0  0  0  0  0  0  0  0  0
  -31.4166  -21.5103   19.9063 C   0  0  0  0  0  0  0  0  0  0  0  0
  -32.1486  -23.7840   19.5434 C   0  0  0  0  0  0  0  0  0  0  0  0
  -23.7338   -7.8236   21.7442 C   0  0  0  0  0  0  0  0  0  0  0  0
  -21.9376   -9.3582   21.2382 C   0  0  0  0  0  0  0  0  0  0  0  0
  -28.1358  -29.2046   17.8044 C   0  0  0  0  0  0  0  0  0  0  0  0
  -21.3715   -6.4076   23.7034 C   0  0  0  0  0  0  0  0  0  0  0  0
  -21.4358   -5.4387   24.7047 C   0  0  0  0  0  0  0  0  0  0  0  0
  -28.6344  -29.4573   20.1571 C   0  0  0  0  0  0  0  0  0  0  0  0
  -21.9214   -3.7536   23.0429 C   0  0  0  0  0  0  0  0  0  0  0  0
  -24.1741  -10.1951   21.6049 C   0  0  0  0  0  0  0  0  0  0  0  0
  -25.8580  -11.8475   20.6346 C   0  0  0  0  0  0  0  0  0  0  0  0
  -19.7361  -33.8965   20.2697 C   0  0  0  0  0  0  0  0  0  0  0  0
  -26.6113  -30.4245   19.2312 C   0  0  0  0  0  0  0  0  0  0  0  0
  -21.1204  -34.1186   20.1402 C   0  0  0  0  0  0  0  0  0  0  0  0
  -27.4533  -30.1841   20.3294 C   0  0  0  0  0  0  0  0  0  0  0  0
  -30.0878  -21.9335   19.8772 C   0  0  0  0  0  0  0  0  0  0  0  0
  -22.3896   -8.0562   21.4532 C   0  0  0  0  0  0  0  0  0  0  0  0
  -28.9701  -28.9640   18.8963 C   0  0  0  0  0  0  0  0  0  0  0  0
  -21.5821   -6.0496   22.3718 C   0  0  0  0  0  0  0  0  0  0  0  0
  -30.8198  -24.2072   19.5143 C   0  0  0  0  0  0  0  0  0  0  0  0
  -21.7108   -4.1117   24.3745 C   0  0  0  0  0  0  0  0  0  0  0  0
  -21.8571   -4.7226   22.0416 C   0  0  0  0  0  0  0  0  0  0  0  0
  -29.7894  -23.2820   19.6813 C   0  0  0  0  0  0  0  0  0  0  0  0
  -25.0953  -11.3002   21.6836 C   0  0  0  0  0  0  0  0  0  0  0  0
  -26.5647  -12.8691   21.2206 C   0  0  0  0  0  0  0  0  0  0  0  0
  -25.9220  -11.4665   19.2538 C   0  0  0  0  0  0  0  0  0  0  0  0
  -24.1301  -32.3220   21.3094 C   0  0  0  0  0  0  0  0  0  0  0  0
  -25.0494  -29.9243   22.9876 C   0  0  0  0  0  0  0  0  0  0  0  0
  -26.0005  -26.9401   24.3393 C   0  0  0  0  0  0  0  0  0  0  0  0
  -26.2592  -17.3807   24.6720 C   0  0  0  0  0  0  0  0  0  0  0  0
  -19.1357  -33.3515   21.5413 C   0  0  0  0  0  0  0  0  0  0  0  0
  -25.3874  -31.2739   19.4420 C   0  0  0  0  0  0  0  0  0  0  0  0
  -27.0537  -30.7541   21.6629 C   0  0  0  0  0  0  0  0  0  0  0  0
  -20.1546  -32.6751   22.4550 C   0  0  0  0  0  0  0  0  0  0  0  0
  -27.2152  -14.0859   26.0761 C   0  0  0  0  0  0  0  0  0  0  0  0
  -21.4024  -33.5410   22.5963 C   0  0  0  0  0  0  0  0  0  0  0  0
  -26.7371  -13.1161   24.9970 C   0  0  0  0  0  0  0  0  0  0  0  0
  -26.4902  -20.3146   22.8346 C   0  0  0  0  0  0  0  0  0  0  0  0
  -28.0466  -18.5695   21.8783 C   0  0  0  0  0  0  0  0  0  0  0  0
  -26.3874  -15.3671   26.0934 C   0  0  0  0  0  0  0  0  0  0  0  0
  -25.5024  -19.2011   23.1724 C   0  0  0  0  0  0  0  0  0  0  0  0
  -27.0360  -17.4840   22.2606 C   0  0  0  0  0  0  0  0  0  0  0  0
  -25.8453  -15.0889   23.6953 C   0  0  0  0  0  0  0  0  0  0  0  0
  -22.0895  -33.7440   21.2405 C   0  0  1  0  0  0  0  0  0  0  0  0
  -24.7148  -31.0352   20.8057 C   0  0  1  0  0  0  0  0  0  0  0  0
  -26.6880  -13.8066   23.6232 C   0  0  2  0  0  0  0  0  0  0  0  0
  -27.3525  -19.9089   21.6410 C   0  0  0  0  0  0  0  0  0  0  0  0
  -25.6963  -25.5177   26.3842 C   0  0  0  0  0  0  0  0  0  0  0  0
  -26.9299  -31.7581   24.5384 C   0  0  0  0  0  0  0  0  0  0  0  0
  -27.3360  -29.8733   26.1356 C   0  0  0  0  0  0  0  0  0  0  0  0
  -25.0419  -30.8203   25.8840 C   0  0  0  0  0  0  0  0  0  0  0  0
  -24.8185  -24.7288   22.7672 C   0  0  0  0  0  0  0  0  0  0  0  0
  -29.0120  -20.9042   20.0618 C   0  0  0  0  0  0  0  0  0  0  0  0
  -30.1087  -27.2463   17.7082 C   0  0  0  0  0  0  0  0  0  1  0  0
  -31.0333  -26.1125   18.1072 C   0  0  0  0  0  0  0  0  0  0  0  0
  -26.0075  -29.4013   24.0276 C   0  0  1  0  0  0  0  0  0  0  0  0
  -25.1974  -25.8228   24.9804 C   0  0  2  0  0  0  0  0  0  0  0  0
  -26.3338  -30.4600   25.1186 C   0  0  0  0  0  0  0  0  0  0  0  0
  -25.2983  -11.9226   22.8479 N   0  0  0  0  0  0  0  0  0  0  0  0
  -26.1968  -12.8714   22.5339 N   0  0  0  0  0  0  0  0  0  0  0  0
  -25.6102  -30.5669   21.8771 N   0  0  0  0  0  0  0  0  0  0  0  0
  -26.3155  -15.9801   24.7669 N   0  0  0  0  0  0  0  0  0  0  0  0
  -26.1937  -17.9274   23.3814 N   0  0  0  0  0  0  0  0  0  0  0  0
  -27.4587  -13.7567   20.7354 N   0  0  0  0  0  0  0  0  0  0  0  0
  -25.1301  -10.3950   18.8190 N   0  0  0  0  0  0  0  0  0  0  0  0
  -22.8413  -32.5633   20.8730 N   0  0  0  0  0  0  0  0  0  0  0  0
  -25.4166  -28.1721   24.5457 N   0  0  0  0  0  0  0  0  0  0  0  0
  -28.3817  -20.9548   21.4081 N   0  3  0  0  0  0  0  0  0  0  0  0
  -25.2978  -24.5792   24.1653 N   0  3  0  0  0  0  0  0  0  0  0  0
  -26.6720  -12.0481   18.4336 O   0  0  0  0  0  0  0  0  0  0  0  0
  -24.7976  -33.0432   22.0415 O   0  0  0  0  0  0  0  0  0  0  0  0
  -23.8359  -29.7737   23.1554 O   0  0  0  0  0  0  0  0  0  0  0  0
  -27.0436  -26.7405   23.7209 O   0  0  0  0  0  0  0  0  0  0  0  0
  -26.2692  -18.0980   25.6802 O   0  0  0  0  0  0  0  0  0  0  0  0
  -21.5186   -7.0128   21.3790 O   0  0  0  0  0  0  0  0  0  0  0  0
  -30.1203  -28.2365   18.7294 O   0  0  0  0  0  0  0  0  0  1  0  0
  -30.5612  -25.5317   19.3207 O   0  0  0  0  0  0  0  0  0  0  0  0
  -21.7741   -3.1816   25.3363 F   0  0  0  0  0  0  0  0  0  0  0  0
  -22.0615   -4.3727   20.7642 F   0  0  0  0  0  0  0  0  0  0  0  0
  -28.1437  -23.8158   19.6418 Cl  0  0  0  0  0  0  0  0  0  0  0  0
  1  2  1  0  0  0  0
  1  6  2  0  0  0  0
  2  7  2  0  0  0  0
  3  9  1  0  0  0  0
  3 10  2  0  0  0  0
  4 11  2  0  0  0  0
  4 18  1  0  0  0  0
  5 12  1  0  0  0  0
  5 18  2  0  0  0  0
  6 20  1  0  0  0  0
  7 22  1  0  0  0  0
  8 13  2  0  0  0  0
  8 21  1  0  0  0  0
  9 24  2  0  0  0  0
 10 28  1  0  0  0  0
 11 25  1  0  0  0  0
 12 25  2  0  0  0  0
 13 26  1  0  0  0  0
 14 15  2  0  0  0  0
 14 27  1  0  0  0  0
 15 29  1  0  0  0  0
 16 23  1  0  0  0  0
 16 26  2  0  0  0  0
 17 29  2  0  0  0  0
 17 30  1  0  0  0  0
 18 32  1  0  0  0  0
 19 32  1  0  0  0  0
 19 33  2  0  0  0  0
 19 34  1  0  0  0  0
 20 22  2  0  0  0  0
 20 39  1  0  0  0  0
 21 23  2  0  0  0  0
 21 40  1  0  0  0  0
 22 52  1  0  0  0  0
 23 41  1  0  0  0  0
 24 31  1  0  0  0  0
 24 61  1  0  0  0  0
 25 83  1  0  0  0  0
 26 84  1  0  0  0  0
 27 30  2  0  0  0  0
 27 83  1  0  0  0  0
 28 31  2  0  0  0  0
 28 85  1  0  0  0  0
 29 86  1  0  0  0  0
 30 87  1  0  0  0  0
 31 88  1  0  0  0  0
 32 67  2  0  0  0  0
 33 68  1  0  0  0  0
 33 72  1  0  0  0  0
 34 73  1  0  0  0  0
 34 78  2  0  0  0  0
 35 53  1  0  0  0  0
 35 74  1  0  0  0  0
 35 79  2  0  0  0  0
 36 64  1  0  0  0  0
 36 69  1  0  0  0  0
 36 80  2  0  0  0  0
 37 65  1  0  0  0  0
 37 75  1  0  0  0  0
 37 81  2  0  0  0  0
 38 70  1  0  0  0  0
 38 71  1  0  0  0  0
 38 82  2  0  0  0  0
 39 42  1  0  0  0  0
 40 53  1  0  0  0  0
 41 69  1  0  0  0  0
 42 44  1  0  0  0  0
 43 45  1  0  0  0  0
 43 48  1  0  0  0  0
 44 52  1  0  0  0  0
 45 54  1  0  0  0  0
 46 49  1  0  0  0  0
 46 55  1  0  0  0  0
 47 50  1  0  0  0  0
 47 55  1  0  0  0  0
 48 70  1  0  0  0  0
 49 71  1  0  0  0  0
 50 71  1  0  0  0  0
 51 54  1  0  0  0  0
 51 70  1  0  0  0  0
 52 74  1  0  0  0  0
 53 69  1  0  0  0  0
 54 68  1  0  0  0  0
 55 76  1  0  0  0  0
 56 65  1  0  0  0  0
 57 66  1  0  0  0  0
 58 66  1  0  0  0  0
 59 66  1  0  0  0  0
 60 77  1  0  0  0  0
 61 76  1  0  0  0  0
 62 63  1  0  0  0  0
 62 84  1  0  0  0  0
 63 85  1  0  0  0  0
 64 66  1  0  0  0  0
 64 75  1  0  0  0  0
 65 77  1  0  0  0  0
 67 68  1  0  0  0  0
M  CHG  2  76   1  77   1
M  ISO  4  38 100  62 101  71 100  84 101
M  END
> <Batch ID>
0144

> <Smiles>
CNC(C)C(=O)NC(C(=O)N1Cc2cc([101O:1][101CH2:1]COc3cccc(CNC4CC[100N:0]([100C:0](=O)N5CCCC(n6nc(-c7ccc(Oc8ccc(F)cc8F)cc7)c(C(N)=O)c6N)C5)CC4)c3Cl)ccc2CC1C(=O)NC1CCCc2ccccc21)C(C)(C)C

> <Shape>
0.231

> <Color>
0.093

> <Negative vol penalty>
0.000

$$$$

  -OEChem-04052321263D

 88 97  0     1  0  0  0  0  0999 V2000
  -32.3279  -14.4137   20.1268 C   0  0  0  0  0  0  0  0  0  0  0  0
  -31.5509  -15.3580   20.7881 C   0  0  0  0  0  0  0  0  0  0  0  0
  -29.1102  -25.9134   20.9194 C   0  0  0  0  0  0  0  0  0  0  0  0
  -27.1670  -24.5833   20.3791 C   0  0  0  0  0  0  0  0  0  0  0  0
  -31.7141  -13.3595   19.4536 C   0  0  0  0  0  0  0  0  0  0  0  0
  -30.1604  -15.2419   20.7866 C   0  0  0  0  0  0  0  0  0  0  0  0
  -25.8743  -18.9378   23.0443 C   0  0  0  0  0  0  0  0  0  0  0  0
  -29.7908  -24.7603   21.3105 C   0  0  0  0  0  0  0  0  0  0  0  0
  -27.8476  -23.4302   20.7702 C   0  0  0  0  0  0  0  0  0  0  0  0
  -25.0945  -20.0033   22.5969 C   0  0  0  0  0  0  0  0  0  0  0  0
  -29.1965  -20.0937   21.2862 C   0  0  0  0  0  0  0  0  0  0  0  0
  -29.1064  -18.9744   20.4587 C   0  0  0  0  0  0  0  0  0  0  0  0
  -23.2826  -18.4777   22.1401 C   0  0  0  0  0  0  0  0  0  0  0  0
  -30.0908  -20.2342   18.6474 C   0  0  0  0  0  0  0  0  0  0  0  0
  -19.7071  -25.8116   21.9698 C   0  0  0  0  0  0  0  0  0  0  0  0
  -27.7983  -25.8248   20.4537 C   0  0  0  0  0  0  0  0  0  0  0  0
  -27.0600  -27.5880   18.7645 C   0  0  0  0  0  0  0  0  0  0  0  0
  -30.3149  -13.2381   19.4339 C   0  0  0  0  0  0  0  0  0  0  0  0
  -25.3671  -17.6305   23.0328 C   0  0  0  0  0  0  0  0  0  0  0  0
  -29.5231  -14.1717   20.1331 C   0  0  0  0  0  0  0  0  0  0  0  0
  -24.0571  -17.3976   22.5903 C   0  0  0  0  0  0  0  0  0  0  0  0
  -21.0530  -24.9407   19.7616 C   0  0  0  0  0  0  0  0  0  0  0  0
  -19.8771  -26.6934   20.9147 C   0  0  0  0  0  0  0  0  0  0  0  0
  -20.5640  -26.2419   19.7933 C   0  0  0  0  0  0  0  0  0  0  0  0
  -29.1595  -23.5188   21.2359 C   0  0  0  0  0  0  0  0  0  0  0  0
  -23.7995  -19.7730   22.1420 C   0  0  0  0  0  0  0  0  0  0  0  0
  -29.7338  -21.2833   20.7942 C   0  0  0  0  0  0  0  0  0  0  0  0
  -29.5535  -19.0446   19.1394 C   0  0  0  0  0  0  0  0  0  0  0  0
  -30.1809  -21.3535   19.4749 C   0  0  0  0  0  0  0  0  0  0  0  0
  -27.0946  -27.0156   20.0501 C   0  0  0  0  0  0  0  0  0  0  0  0
  -20.8305  -24.1373   20.8684 C   0  0  0  0  0  0  0  0  0  0  0  0
  -26.2614  -28.6968   18.9036 C   0  0  0  0  0  0  0  0  0  0  0  0
  -27.6931  -27.1561   17.5527 C   0  0  0  0  0  0  0  0  0  0  0  0
  -26.1728  -14.9246   21.5723 C   0  0  0  0  0  0  0  0  0  0  0  0
  -23.8345  -13.6755   23.4416 C   0  0  0  0  0  0  0  0  0  0  0  0
  -20.9788  -14.1871   25.2388 C   0  0  0  0  0  0  0  0  0  0  0  0
  -21.9090  -30.1289   22.7581 C   0  0  0  0  0  0  0  0  0  0  0  0
  -29.7033  -12.0731   18.6964 C   0  0  0  0  0  0  0  0  0  0  0  0
  -26.2116  -16.4955   23.5438 C   0  0  0  0  0  0  0  0  0  0  0  0
  -23.4585  -16.0156   22.5767 C   0  0  0  0  0  0  0  0  0  0  0  0
  -28.2262  -12.2805   18.3777 C   0  0  0  0  0  0  0  0  0  0  0  0
  -24.9037  -31.9516   22.1368 C   0  0  0  0  0  0  0  0  0  0  0  0
  -23.1723  -23.8466   18.7690 C   0  0  0  0  0  0  0  0  0  0  0  0
  -23.0077  -25.1686   18.0867 C   0  0  0  0  0  0  0  0  0  0  0  0
  -27.4828  -12.7281   19.6274 C   0  0  0  0  0  0  0  0  0  0  0  0
  -25.8017  -30.9449   21.4156 C   0  0  0  0  0  0  0  0  0  0  0  0
  -24.0546  -31.2801   23.2138 C   0  0  0  0  0  0  0  0  0  0  0  0
  -24.1560  -29.1234   22.0256 C   0  0  0  0  0  0  0  0  0  0  0  0
  -21.7946  -24.4221   18.5749 C   0  0  0  0  0  0  0  0  0  0  0  0
  -28.0077  -14.0828   20.1193 C   0  0  1  0  0  0  0  0  0  0  0  0
  -25.7749  -15.1364   23.0056 C   0  0  1  0  0  0  0  0  0  0  0  0
  -24.9906  -29.7442   20.8924 C   0  0  2  0  0  0  0  0  0  0  0  0
  -21.6173  -28.3886   18.9959 C   0  0  0  0  0  0  0  0  0  0  0  0
  -19.4475  -27.5977   17.9851 C   0  0  0  0  0  0  0  0  0  0  0  0
  -19.2781  -12.9681   26.6242 C   0  0  0  0  0  0  0  0  0  0  0  0
  -22.5849  -12.5370   20.9014 C   0  0  0  0  0  0  0  0  0  0  0  0
  -20.4679  -12.1757   22.1882 C   0  0  0  0  0  0  0  0  0  0  0  0
  -22.5544  -10.9873   22.8641 C   0  0  0  0  0  0  0  0  0  0  0  0
  -21.6062  -15.8013   27.6388 C   0  0  0  0  0  0  0  0  0  0  0  0
  -19.3315  -28.0765   21.0040 C   0  0  0  0  0  0  0  0  0  0  0  0
  -19.8436  -28.8638   22.2170 C   0  0  0  0  0  0  0  0  0  0  0  0
  -21.6242  -20.6961   21.8735 C   0  0  0  0  0  0  0  0  0  1  0  0
  -21.0316  -22.0812   22.0464 C   0  0  0  0  0  0  0  0  0  0  0  0
  -20.7739  -27.1551   18.6279 C   0  0  0  0  0  0  0  0  0  0  0  0
  -22.3460  -13.4695   23.2971 C   0  0  1  0  0  0  0  0  0  0  0  0
  -20.5787  -13.7563   26.6384 C   0  0  2  0  0  0  0  0  0  0  0  0
  -22.0000  -12.3183   22.3110 C   0  0  0  0  0  0  0  0  0  0  0  0
  -20.1678  -24.5406   21.9756 N   0  0  0  0  0  0  0  0  0  0  0  0
  -26.3753  -27.7039   20.9405 N   0  0  0  0  0  0  0  0  0  0  0  0
  -25.8812  -28.7203   20.2132 N   0  0  0  0  0  0  0  0  0  0  0  0
  -24.3260  -14.9379   23.0803 N   0  0  0  0  0  0  0  0  0  0  0  0
  -23.3095  -30.1508   22.6522 N   0  0  0  0  0  0  0  0  0  0  0  0
  -25.8543  -29.6441   18.0323 N   0  0  0  0  0  0  0  0  0  0  0  0
  -28.4789  -25.9960   17.5862 N   0  0  0  0  0  0  0  0  0  0  0  0
  -27.4291  -14.3718   21.4130 N   0  0  0  0  0  0  0  0  0  0  0  0
  -21.8278  -13.2759   24.6471 N   0  0  0  0  0  0  0  0  0  0  0  0
  -21.2803  -29.0258   22.1937 N   0  0  0  0  0  0  0  0  0  0  0  0
  -20.3966  -14.9477   27.5150 N   0  3  0  0  0  0  0  0  0  0  0  0
  -27.5792  -27.7896   16.4760 O   0  0  0  0  0  0  0  0  0  0  0  0
  -25.3968  -15.2382   20.6772 O   0  0  0  0  0  0  0  0  0  0  0  0
  -24.5343  -12.7527   23.8663 O   0  0  0  0  0  0  0  0  0  0  0  0
  -20.5754  -15.2261   24.7209 O   0  0  0  0  0  0  0  0  0  0  0  0
  -21.2662  -31.0286   23.3097 O   0  0  0  0  0  0  0  0  0  0  0  0
  -29.8233  -22.3934   21.6172 O   0  0  0  0  0  0  0  0  0  0  0  0
  -23.0364  -20.8112   21.7041 O   0  0  0  0  0  0  0  0  0  1  0  0
  -21.2957  -22.8487   20.8783 O   0  0  0  0  0  0  0  0  0  0  0  0
  -29.4683  -17.9693   18.3453 F   0  0  0  0  0  0  0  0  0  0  0  0
  -30.6991  -22.4932   18.9969 F   0  0  0  0  0  0  0  0  0  0  0  0
  1  2  1  0  0  0  0
  1  5  2  0  0  0  0
  2  6  2  0  0  0  0
  3  8  2  0  0  0  0
  3 16  1  0  0  0  0
  4  9  1  0  0  0  0
  4 16  2  0  0  0  0
  5 18  1  0  0  0  0
  6 20  1  0  0  0  0
  7 10  2  0  0  0  0
  7 19  1  0  0  0  0
  8 25  1  0  0  0  0
  9 25  2  0  0  0  0
 10 26  1  0  0  0  0
 11 12  2  0  0  0  0
 11 27  1  0  0  0  0
 12 28  1  0  0  0  0
 13 21  1  0  0  0  0
 13 26  2  0  0  0  0
 14 28  2  0  0  0  0
 14 29  1  0  0  0  0
 15 23  1  0  0  0  0
 15 68  2  0  0  0  0
 16 30  1  0  0  0  0
 17 30  1  0  0  0  0
 17 32  2  0  0  0  0
 17 33  1  0  0  0  0
 18 20  2  0  0  0  0
 18 38  1  0  0  0  0
 19 21  2  0  0  0  0
 19 39  1  0  0  0  0
 20 50  1  0  0  0  0
 21 40  1  0  0  0  0
 22 24  1  0  0  0  0
 22 31  2  0  0  0  0
 22 49  1  0  0  0  0
 23 24  2  0  0  0  0
 23 60  1  0  0  0  0
 24 64  1  0  0  0  0
 25 84  1  0  0  0  0
 26 85  1  0  0  0  0
 27 29  2  0  0  0  0
 27 84  1  0  0  0  0
 28 87  1  0  0  0  0
 29 88  1  0  0  0  0
 30 69  2  0  0  0  0
 31 68  1  0  0  0  0
 31 86  1  0  0  0  0
 32 70  1  0  0  0  0
 32 73  1  0  0  0  0
 33 74  1  0  0  0  0
 33 79  2  0  0  0  0
 34 51  1  0  0  0  0
 34 75  1  0  0  0  0
 34 80  2  0  0  0  0
 35 65  1  0  0  0  0
 35 71  1  0  0  0  0
 35 81  2  0  0  0  0
 36 66  1  0  0  0  0
 36 76  1  0  0  0  0
 36 82  2  0  0  0  0
 37 72  1  0  0  0  0
 37 77  1  0  0  0  0
 37 83  2  0  0  0  0
 38 41  1  0  0  0  0
 39 51  1  0  0  0  0
 40 71  1  0  0  0  0
 41 45  1  0  0  0  0
 42 46  1  0  0  0  0
 42 47  1  0  0  0  0
 43 44  1  0  0  0  0
 43 49  1  0  0  0  0
 44 49  1  0  0  0  0
 45 50  1  0  0  0  0
 46 52  1  0  0  0  0
 47 72  1  0  0  0  0
 48 52  1  0  0  0  0
 48 72  1  0  0  0  0
 50 75  1  0  0  0  0
 51 71  1  0  0  0  0
 52 70  1  0  0  0  0
 53 64  1  0  0  0  0
 54 64  1  0  0  0  0
 55 66  1  0  0  0  0
 56 67  1  0  0  0  0
 57 67  1  0  0  0  0
 58 67  1  0  0  0  0
 59 78  1  0  0  0  0
 60 61  1  0  0  0  0
 61 77  1  0  0  0  0
 62 63  1  0  0  0  0
 62 85  1  0  0  0  0
 63 86  1  0  0  0  0
 65 67  1  0  0  0  0
 65 76  1  0  0  0  0
 66 78  1  0  0  0  0
 69 70  1  0  0  0  0
M  CHG  1  78   1
M  ISO  4  37 100  62 101  77 100  85 101
M  END
> <Batch ID>
0144

> <Smiles>
CNC(C)C(=O)NC(C(=O)N1Cc2cc([101O:1][101CH2:1]COc3ncc(CC[100NH:0][100C:0](=O)N4CCCC(n5nc(-c6ccc(Oc7ccc(F)cc7F)cc6)c(C(N)=O)c5N)C4)c(C(C)C)c3C3CC3)ccc2CC1C(=O)NC1CCCc2ccccc21)C(C)(C)C

> <Shape>
0.243

> <Color>
0.066

> <Negative vol penalty>
0.000

$$$$

  -OEChem-04052321263D

 90 99  0     1  0  0  0  0  0999 V2000
  -15.8216  -26.2773   15.4416 C   0  0  0  0  0  0  0  0  0  0  0  0
  -16.8231  -25.5111   16.0292 C   0  0  0  0  0  0  0  0  0  0  0  0
  -22.9891   -9.9198   19.9822 C   0  0  0  0  0  0  0  0  0  0  0  0
  -23.7406   -9.9405   22.2782 C   0  0  0  0  0  0  0  0  0  0  0  0
  -15.7994  -27.6583   15.6325 C   0  0  0  0  0  0  0  0  0  0  0  0
  -17.8037  -26.1255   16.8072 C   0  0  0  0  0  0  0  0  0  0  0  0
  -18.7111  -23.6280   21.1181 C   0  0  0  0  0  0  0  0  0  0  0  0
  -26.6261  -18.9137   18.9701 C   0  0  0  0  0  0  0  0  0  0  0  0
  -22.2239   -8.7831   20.2428 C   0  0  0  0  0  0  0  0  0  0  0  0
  -22.9754   -8.8037   22.5389 C   0  0  0  0  0  0  0  0  0  0  0  0
  -19.5033  -22.4837   21.0364 C   0  0  0  0  0  0  0  0  0  0  0  0
  -25.2724  -19.2303   18.8578 C   0  0  0  0  0  0  0  0  0  0  0  0
  -23.2093   -5.4707   22.0219 C   0  0  0  0  0  0  0  0  0  0  0  0
  -23.8039   -4.4433   22.7542 C   0  0  0  0  0  0  0  0  0  0  0  0
  -21.4056  -23.7530   21.8041 C   0  0  0  0  0  0  0  0  0  0  0  0
  -26.9889  -20.9228   20.2619 C   0  0  0  0  0  0  0  0  0  0  0  0
  -22.0996   -4.6672   24.4520 C   0  0  0  0  0  0  0  0  0  0  0  0
  -23.7475  -10.4985   20.9999 C   0  0  0  0  0  0  0  0  0  0  0  0
  -24.1345  -13.0156   20.8514 C   0  0  0  0  0  0  0  0  0  0  0  0
  -16.7747  -28.2888   16.4211 C   0  0  0  0  0  0  0  0  0  0  0  0
  -19.2637  -24.8480   21.5338 C   0  0  0  0  0  0  0  0  0  0  0  0
  -17.7953  -27.5164   17.0077 C   0  0  0  0  0  0  0  0  0  0  0  0
  -20.6177  -24.9108   21.8927 C   0  0  0  0  0  0  0  0  0  0  0  0
  -27.4844  -19.7599   19.6722 C   0  0  0  0  0  0  0  0  0  0  0  0
  -25.6351  -21.2395   20.1496 C   0  0  0  0  0  0  0  0  0  0  0  0
  -22.2171   -8.2250   21.5212 C   0  0  0  0  0  0  0  0  0  0  0  0
  -20.8514  -22.5467   21.3766 C   0  0  0  0  0  0  0  0  0  0  0  0
  -24.7768  -20.3932   19.4475 C   0  0  0  0  0  0  0  0  0  0  0  0
  -22.0599   -6.0965   22.5046 C   0  0  0  0  0  0  0  0  0  0  0  0
  -23.2490   -4.0415   23.9693 C   0  0  0  0  0  0  0  0  0  0  0  0
  -21.5050   -5.6947   23.7196 C   0  0  0  0  0  0  0  0  0  0  0  0
  -24.5385  -11.6724   20.7311 C   0  0  0  0  0  0  0  0  0  0  0  0
  -25.2412  -13.7412   20.4836 C   0  0  0  0  0  0  0  0  0  0  0  0
  -22.8719  -13.5588   21.2593 C   0  0  0  0  0  0  0  0  0  0  0  0
  -19.6482  -27.7070   20.1989 C   0  0  0  0  0  0  0  0  0  0  0  0
  -20.6915  -28.5182   23.1613 C   0  0  0  0  0  0  0  0  0  0  0  0
  -22.0374  -27.5180   26.1336 C   0  0  0  0  0  0  0  0  0  0  0  0
  -30.7414  -14.6651   20.6811 C   0  0  0  0  0  0  0  0  0  0  0  0
  -16.7368  -29.7901   16.5599 C   0  0  0  0  0  0  0  0  0  0  0  0
  -18.3896  -26.0673   21.6422 C   0  0  0  0  0  0  0  0  0  0  0  0
  -21.2545  -26.1916   22.3644 C   0  0  0  0  0  0  0  0  0  0  0  0
  -17.5963  -30.3178   17.7058 C   0  0  0  0  0  0  0  0  0  0  0  0
  -29.5704  -12.2730   18.3182 C   0  0  0  0  0  0  0  0  0  0  0  0
  -18.9728  -29.6606   17.6870 C   0  0  0  0  0  0  0  0  0  0  0  0
  -25.2084  -24.3783   18.9490 C   0  0  0  0  0  0  0  0  0  0  0  0
  -25.0448  -25.0740   20.2716 C   0  0  0  0  0  0  0  0  0  0  0  0
  -28.1264  -12.0100   18.7490 C   0  0  0  0  0  0  0  0  0  0  0  0
  -30.4869  -12.4918   19.5199 C   0  0  0  0  0  0  0  0  0  0  0  0
  -28.5934  -13.2728   20.8905 C   0  0  0  0  0  0  0  0  0  0  0  0
  -18.8623  -28.1432   17.8787 C   0  0  1  0  0  0  0  0  0  0  0  0
  -19.1761  -27.3733   21.5857 C   0  0  1  0  0  0  0  0  0  0  0  0
  -25.7654  -23.7562   20.1994 C   0  0  0  0  0  0  0  0  0  0  0  0
  -27.6206  -13.1016   19.7112 C   0  0  2  0  0  0  0  0  0  0  0  0
  -25.2898  -22.4764   22.3186 C   0  0  0  0  0  0  0  0  0  0  0  0
  -22.8116  -28.4137   28.3462 C   0  0  0  0  0  0  0  0  0  0  0  0
  -30.4459  -17.2445   23.3066 C   0  0  0  0  0  0  0  0  0  0  0  0
  -23.2272  -29.5834   21.8401 C   0  0  0  0  0  0  0  0  0  0  0  0
  -24.3203  -29.5761   24.0925 C   0  0  0  0  0  0  0  0  0  0  0  0
  -22.3275  -31.0188   23.6798 C   0  0  0  0  0  0  0  0  0  0  0  0
  -20.0509  -25.8998   27.6148 C   0  0  0  0  0  0  0  0  0  0  0  0
  -28.9314  -19.4201   19.7931 C   0  0  0  0  0  0  0  0  0  0  0  0
  -30.6325  -17.9311   20.8551 C   0  0  0  0  0  0  0  0  0  0  0  0
  -21.2737  -20.4636   20.3096 C   0  0  0  0  0  0  0  0  0  1  0  0
  -22.5265  -19.7404   19.8545 C   0  0  0  0  0  0  0  0  0  0  0  0
  -25.1213  -22.4876   20.7882 C   0  0  2  0  0  0  0  0  0  0  0  0
  -22.0286  -28.5149   23.8619 C   0  0  1  0  0  0  0  0  0  0  0  0
  -21.6467  -27.8207   27.5689 C   0  0  2  0  0  0  0  0  0  0  0  0
  -30.8409  -16.8287   21.8928 C   0  0  2  0  0  0  0  0  0  0  0  0
  -22.9647  -29.6494   23.3579 C   0  0  0  0  0  0  0  0  0  0  0  0
  -25.8030  -11.5492   20.3189 N   0  0  0  0  0  0  0  0  0  0  0  0
  -26.2031  -12.8243   20.1769 N   0  0  0  0  0  0  0  0  0  0  0  0
  -20.3599  -27.3579   22.4475 N   0  0  0  0  0  0  0  0  0  0  0  0
  -29.9514  -13.5403   20.3916 N   0  0  0  0  0  0  0  0  0  0  0  0
  -25.4754  -15.0678   20.3957 N   0  0  0  0  0  0  0  0  0  0  0  0
  -21.8428  -12.6717   21.6034 N   0  0  0  0  0  0  0  0  0  0  0  0
  -18.6306  -27.8253   19.2715 N   0  0  0  0  0  0  0  0  0  0  0  0
  -21.7408  -28.5684   25.2911 N   0  0  0  0  0  0  0  0  0  0  0  0
  -30.1558  -15.6143   21.5098 N   0  0  0  0  0  0  0  0  0  0  0  0
  -21.2061  -26.5757   28.2594 N   0  3  0  0  0  0  0  0  0  0  0  0
  -29.2019  -18.3228   20.7627 N   0  3  0  0  0  0  0  0  0  0  0  0
  -22.6573  -14.7940   21.3013 O   0  0  0  0  0  0  0  0  0  0  0  0
  -20.8467  -27.8483   19.9862 O   0  0  0  0  0  0  0  0  0  0  0  0
  -19.9647  -29.5110   23.2500 O   0  0  0  0  0  0  0  0  0  0  0  0
  -22.5574  -26.4573   25.7943 O   0  0  0  0  0  0  0  0  0  0  0  0
  -31.8820  -14.8150   20.2298 O   0  0  0  0  0  0  0  0  0  0  0  0
  -21.4704   -7.1159   21.7759 O   0  0  0  0  0  0  0  0  0  0  0  0
  -21.6270  -21.4313   21.2971 O   0  0  0  0  0  0  0  0  0  1  0  0
  -23.4447  -20.6894   19.3258 O   0  0  0  0  0  0  0  0  0  0  0  0
  -23.8192   -3.0537   24.6717 F   0  0  0  0  0  0  0  0  0  0  0  0
  -20.4002   -6.2914   24.1879 F   0  0  0  0  0  0  0  0  0  0  0  0
  1  2  1  0  0  0  0
  1  5  2  0  0  0  0
  2  6  2  0  0  0  0
  3  9  2  0  0  0  0
  3 18  1  0  0  0  0
  4 10  1  0  0  0  0
  4 18  2  0  0  0  0
  5 20  1  0  0  0  0
  6 22  1  0  0  0  0
  7 11  2  0  0  0  0
  7 21  1  0  0  0  0
  8 12  2  0  0  0  0
  8 24  1  0  0  0  0
  9 26  1  0  0  0  0
 10 26  2  0  0  0  0
 11 27  1  0  0  0  0
 12 28  1  0  0  0  0
 13 14  2  0  0  0  0
 13 29  1  0  0  0  0
 14 30  1  0  0  0  0
 15 23  1  0  0  0  0
 15 27  2  0  0  0  0
 16 24  2  0  0  0  0
 16 25  1  0  0  0  0
 17 30  2  0  0  0  0
 17 31  1  0  0  0  0
 18 32  1  0  0  0  0
 19 32  1  0  0  0  0
 19 33  2  0  0  0  0
 19 34  1  0  0  0  0
 20 22  2  0  0  0  0
 20 39  1  0  0  0  0
 21 23  2  0  0  0  0
 21 40  1  0  0  0  0
 22 50  1  0  0  0  0
 23 41  1  0  0  0  0
 24 61  1  0  0  0  0
 25 28  2  0  0  0  0
 25 65  1  0  0  0  0
 26 86  1  0  0  0  0
 27 87  1  0  0  0  0
 28 88  1  0  0  0  0
 29 31  2  0  0  0  0
 29 86  1  0  0  0  0
 30 89  1  0  0  0  0
 31 90  1  0  0  0  0
 32 70  2  0  0  0  0
 33 71  1  0  0  0  0
 33 74  1  0  0  0  0
 34 75  1  0  0  0  0
 34 81  2  0  0  0  0
 35 51  1  0  0  0  0
 35 76  1  0  0  0  0
 35 82  2  0  0  0  0
 36 66  1  0  0  0  0
 36 72  1  0  0  0  0
 36 83  2  0  0  0  0
 37 67  1  0  0  0  0
 37 77  1  0  0  0  0
 37 84  2  0  0  0  0
 38 73  1  0  0  0  0
 38 78  1  0  0  0  0
 38 85  2  0  0  0  0
 39 42  1  0  0  0  0
 40 51  1  0  0  0  0
 41 72  1  0  0  0  0
 42 44  1  0  0  0  0
 43 47  1  0  0  0  0
 43 48  1  0  0  0  0
 44 50  1  0  0  0  0
 45 46  1  0  0  0  0
 45 52  1  0  0  0  0
 46 52  1  0  0  0  0
 47 53  1  0  0  0  0
 48 73  1  0  0  0  0
 49 53  1  0  0  0  0
 49 73  1  0  0  0  0
 50 76  1  0  0  0  0
 51 72  1  0  0  0  0
 52 65  1  0  0  0  0
 53 71  1  0  0  0  0
 54 65  1  0  0  0  0
 55 67  1  0  0  0  0
 56 68  1  0  0  0  0
 57 69  1  0  0  0  0
 58 69  1  0  0  0  0
 59 69  1  0  0  0  0
 60 79  1  0  0  0  0
 61 80  1  0  0  0  0
 62 68  1  0  0  0  0
 62 80  1  0  0  0  0
 63 64  1  0  0  0  0
 63 87  1  0  0  0  0
 64 88  1  0  0  0  0
 66 69  1  0  0  0  0
 66 77  1  0  0  0  0
 67 79  1  0  0  0  0
 68 78  1  0  0  0  0
 70 71  1  0  0  0  0
M  CHG  2  79   1  80   1
M  ISO  4  38 100  63 101  78 100  87 101
M  END
> <Batch ID>
0144

> <Smiles>
CNC(C)C(=O)NC(C(=O)N1Cc2cc([101O:1][101CH2:1]COc3ccc(CNCC(C)[100NH:0][100C:0](=O)N4CCCC(n5nc(-c6ccc(Oc7ccc(F)cc7F)cc6)c(C(N)=O)c5N)C4)cc3C(C)C3CC3)ccc2CC1C(=O)NC1CCCc2ccccc21)C(C)(C)C

> <Shape>
0.281

> <Color>
0.190

> <Negative vol penalty>
0.000

$$$$

  -OEChem-04052321263D

 87 96  0     1  0  0  0  0  0999 V2000
  -27.0947  -31.3217   21.4985 C   0  0  0  0  0  0  0  0  0  0  0  0
  -27.4901  -30.5162   22.5617 C   0  0  0  0  0  0  0  0  0  0  0  0
  -24.3082   -9.1033   21.4815 C   0  0  0  0  0  0  0  0  0  0  0  0
  -24.7240  -10.2781   23.5514 C   0  0  0  0  0  0  0  0  0  0  0  0
  -26.5838  -30.7415   20.3382 C   0  0  0  0  0  0  0  0  0  0  0  0
  -27.3737  -29.1300   22.4656 C   0  0  0  0  0  0  0  0  0  0  0  0
  -31.1415  -24.9437   24.8707 C   0  0  0  0  0  0  0  0  0  0  0  0
  -24.0263   -7.9404   22.1982 C   0  0  0  0  0  0  0  0  0  0  0  0
  -24.4420   -9.1151   24.2681 C   0  0  0  0  0  0  0  0  0  0  0  0
  -31.0728  -24.1778   26.0336 C   0  0  0  0  0  0  0  0  0  0  0  0
  -21.4381   -6.6680   23.9632 C   0  0  0  0  0  0  0  0  0  0  0  0
  -20.3136   -5.9325   23.5889 C   0  0  0  0  0  0  0  0  0  0  0  0
  -30.1430  -22.3479   24.7663 C   0  0  0  0  0  0  0  0  0  0  0  0
  -26.5510  -20.0235   24.9382 C   0  0  0  0  0  0  0  0  0  0  0  0
  -28.4569  -18.5569   24.9673 C   0  0  0  0  0  0  0  0  0  0  0  0
  -21.7176   -4.0218   23.1251 C   0  0  0  0  0  0  0  0  0  0  0  0
  -24.6572  -10.2722   22.1581 C   0  0  0  0  0  0  0  0  0  0  0  0
  -24.0396  -12.4764   21.0322 C   0  0  0  0  0  0  0  0  0  0  0  0
  -26.4701  -29.3469   20.2242 C   0  0  0  0  0  0  0  0  0  0  0  0
  -30.7006  -24.4204   23.6467 C   0  0  0  0  0  0  0  0  0  0  0  0
  -26.8595  -28.5306   21.3032 C   0  0  0  0  0  0  0  0  0  0  0  0
  -30.2095  -23.1083   23.5888 C   0  0  0  0  0  0  0  0  0  0  0  0
  -27.5665  -19.3851   25.6414 C   0  0  0  0  0  0  0  0  0  0  0  0
  -24.0931   -7.9462   23.5914 C   0  0  0  0  0  0  0  0  0  0  0  0
  -30.5708  -22.8807   25.9821 C   0  0  0  0  0  0  0  0  0  0  0  0
  -22.7024   -6.0804   23.9184 C   0  0  0  0  0  0  0  0  0  0  0  0
  -20.4533   -4.6094   23.1698 C   0  0  0  0  0  0  0  0  0  0  0  0
  -22.8422   -4.7573   23.4994 C   0  0  0  0  0  0  0  0  0  0  0  0
  -24.9491  -11.4737   21.4184 C   0  0  0  0  0  0  0  0  0  0  0  0
  -26.4695  -19.8025   23.5728 C   0  0  0  0  0  0  0  0  0  0  0  0
  -28.2900  -18.4013   23.6006 C   0  0  0  0  0  0  0  0  0  0  0  0
  -24.8068  -13.3947   20.3580 C   0  0  0  0  0  0  0  0  0  0  0  0
  -22.6275  -12.5695   21.2626 C   0  0  0  0  0  0  0  0  0  0  0  0
  -28.4269  -25.1948   21.5648 C   0  0  0  0  0  0  0  0  0  0  0  0
  -29.7855  -22.8384   19.7973 C   0  0  0  0  0  0  0  0  0  0  0  0
  -31.3244  -19.5999   19.3959 C   0  0  0  0  0  0  0  0  0  0  0  0
  -30.6285  -14.7795   20.5622 C   0  0  0  0  0  0  0  0  0  0  0  0
  -25.8678  -28.7680   18.9684 C   0  0  0  0  0  0  0  0  0  0  0  0
  -30.8062  -25.2500   22.3965 C   0  0  0  0  0  0  0  0  0  0  0  0
  -29.7422  -22.4927   22.2961 C   0  0  0  0  0  0  0  0  0  0  0  0
  -26.1266  -27.2728   18.8021 C   0  0  0  0  0  0  0  0  0  0  0  0
  -28.7756  -13.7333   17.7075 C   0  0  0  0  0  0  0  0  0  0  0  0
  -25.8456  -26.5340   20.1068 C   0  0  0  0  0  0  0  0  0  0  0  0
  -27.5028  -13.1261   18.3000 C   0  0  0  0  0  0  0  0  0  0  0  0
  -29.1469  -20.9485   28.8317 C   0  0  0  0  0  0  0  0  0  0  0  0
  -29.9974  -13.4409   18.5756 C   0  0  0  0  0  0  0  0  0  0  0  0
  -28.5858  -13.2227   20.5840 C   0  0  0  0  0  0  0  0  0  0  0  0
  -26.7718  -27.0217   21.2274 C   0  0  1  0  0  0  0  0  0  0  0  0
  -29.8509  -24.7973   21.2965 C   0  0  1  0  0  0  0  0  0  0  0  0
  -29.0145  -20.1839   27.5437 C   0  0  2  0  0  0  0  0  0  0  0  0
  -27.3176  -13.5386   19.7727 C   0  0  2  0  0  0  0  0  0  0  0  0
  -29.2101  -21.6763   27.5163 C   0  0  2  0  0  0  0  0  0  1  0  0
  -25.3922  -20.4714   22.7862 C   0  0  0  0  0  0  0  0  0  0  0  0
  -27.4128  -18.2695   27.8966 C   0  0  0  0  0  0  0  0  0  0  0  0
  -32.2586  -18.4793   17.3541 C   0  0  0  0  0  0  0  0  0  0  0  0
  -32.2850  -15.3528   23.3116 C   0  0  0  0  0  0  0  0  0  0  0  0
  -27.0153  -21.5787   19.5761 C   0  0  0  0  0  0  0  0  0  0  0  0
  -28.1163  -19.4554   18.8361 C   0  0  0  0  0  0  0  0  0  0  0  0
  -28.3567  -21.5261   17.4660 C   0  0  0  0  0  0  0  0  0  0  0  0
  -33.9523  -19.1749   20.6893 C   0  0  0  0  0  0  0  0  0  0  0  0
  -30.2642  -16.8756   23.6001 C   0  0  0  0  0  0  0  0  0  0  0  0
  -27.7037  -19.5937   27.1539 C   0  0  2  0  0  0  0  0  0  0  0  0
  -29.5851  -21.3477   19.6686 C   0  0  1  0  0  0  0  0  0  0  0  0
  -32.5805  -19.2824   18.6047 C   0  0  2  0  0  0  0  0  0  0  0  0
  -31.1246  -16.0668   22.6252 C   0  0  2  0  0  0  0  0  0  0  0  0
  -28.2753  -20.9889   18.9116 C   0  0  0  0  0  0  0  0  0  0  0  0
  -26.1986  -11.7306   21.0222 N   0  0  0  0  0  0  0  0  0  0  0  0
  -27.3159  -19.0050   22.8834 N   0  0  0  0  0  0  0  0  0  0  0  0
  -26.0796  -12.9051   20.3801 N   0  0  0  0  0  0  0  0  0  0  0  0
  -29.8597  -23.3460   21.1022 N   0  0  0  0  0  0  0  0  0  0  0  0
  -29.7573  -13.8572   19.9594 N   0  0  0  0  0  0  0  0  0  0  0  0
  -24.5101  -14.5651   19.7542 N   0  0  0  0  0  0  0  0  0  0  0  0
  -21.9971  -11.5390   21.9732 N   0  0  0  0  0  0  0  0  0  0  0  0
  -29.2049  -17.5541   22.9274 N   0  0  0  0  0  0  0  0  0  0  0  0
  -28.0907  -26.4444   21.0802 N   0  0  0  0  0  0  0  0  0  0  0  0
  -30.7969  -20.8251   19.0467 N   0  0  0  0  0  0  0  0  0  0  0  0
  -30.3253  -15.1251   21.8734 N   0  0  0  0  0  0  0  0  0  0  0  0
  -33.5319  -18.4938   19.4377 N   0  3  0  0  0  0  0  0  0  0  0  0
  -21.9422  -13.5297   20.8362 O   0  0  0  0  0  0  0  0  0  0  0  0
  -27.6874  -24.4241   22.1655 O   0  0  0  0  0  0  0  0  0  0  0  0
  -29.8800  -23.5261   18.7776 O   0  0  0  0  0  0  0  0  0  0  0  0
  -30.8559  -18.8357   20.2367 O   0  0  0  0  0  0  0  0  0  0  0  0
  -31.6011  -15.2636   19.9734 O   0  0  0  0  0  0  0  0  0  0  0  0
  -23.8178   -6.8117   24.2911 O   0  0  0  0  0  0  0  0  0  0  0  0
  -30.5020  -22.1312   27.1159 O   0  0  0  0  0  0  0  0  0  1  0  0
  -19.3732   -3.9028   22.8119 F   0  0  0  0  0  0  0  0  0  0  0  0
  -24.0541   -4.1871   23.4554 F   0  0  0  0  0  0  0  0  0  0  0  0
  1  2  1  0  0  0  0
  1  5  2  0  0  0  0
  2  6  2  0  0  0  0
  3  8  2  0  0  0  0
  3 17  1  0  0  0  0
  4  9  1  0  0  0  0
  4 17  2  0  0  0  0
  5 19  1  0  0  0  0
  6 21  1  0  0  0  0
  7 10  2  0  0  0  0
  7 20  1  0  0  0  0
  8 24  1  0  0  0  0
  9 24  2  0  0  0  0
 10 25  1  0  0  0  0
 11 12  2  0  0  0  0
 11 26  1  0  0  0  0
 12 27  1  0  0  0  0
 13 22  1  0  0  0  0
 13 25  2  0  0  0  0
 14 23  1  0  0  0  0
 14 30  2  0  0  0  0
 15 23  2  0  0  0  0
 15 31  1  0  0  0  0
 16 27  2  0  0  0  0
 16 28  1  0  0  0  0
 17 29  1  0  0  0  0
 18 29  1  0  0  0  0
 18 32  2  0  0  0  0
 18 33  1  0  0  0  0
 19 21  2  0  0  0  0
 19 38  1  0  0  0  0
 20 22  2  0  0  0  0
 20 39  1  0  0  0  0
 21 48  1  0  0  0  0
 22 40  1  0  0  0  0
 23 62  1  0  0  0  0
 24 84  1  0  0  0  0
 25 85  1  0  0  0  0
 26 28  2  0  0  0  0
 26 84  1  0  0  0  0
 27 86  1  0  0  0  0
 28 87  1  0  0  0  0
 29 67  2  0  0  0  0
 30 53  1  0  0  0  0
 30 68  1  0  0  0  0
 31 68  2  0  0  0  0
 31 74  1  0  0  0  0
 32 69  1  0  0  0  0
 32 72  1  0  0  0  0
 33 73  1  0  0  0  0
 33 79  2  0  0  0  0
 34 49  1  0  0  0  0
 34 75  1  0  0  0  0
 34 80  2  0  0  0  0
 35 63  1  0  0  0  0
 35 70  1  0  0  0  0
 35 81  2  0  0  0  0
 36 64  1  0  0  0  0
 36 76  1  0  0  0  0
 36 82  2  0  0  0  0
 37 71  1  0  0  0  0
 37 77  1  0  0  0  0
 37 83  2  0  0  0  0
 38 41  1  0  0  0  0
 39 49  1  0  0  0  0
 40 70  1  0  0  0  0
 41 43  1  0  0  0  0
 42 44  1  0  0  0  0
 42 46  1  0  0  0  0
 43 48  1  0  0  0  0
 44 51  1  0  0  0  0
 45 50  1  0  0  0  0
 45 52  1  0  0  0  0
 46 71  1  0  0  0  0
 47 51  1  0  0  0  0
 47 71  1  0  0  0  0
 48 75  1  0  0  0  0
 49 70  1  0  0  0  0
 50 52  1  0  0  0  0
 50 62  1  0  0  0  0
 51 69  1  0  0  0  0
 52 85  1  0  0  0  0
 54 62  1  0  0  0  0
 55 64  1  0  0  0  0
 56 65  1  0  0  0  0
 57 66  1  0  0  0  0
 58 66  1  0  0  0  0
 59 66  1  0  0  0  0
 60 78  1  0  0  0  0
 61 65  1  0  0  0  0
 61 74  1  0  0  0  0
 63 66  1  0  0  0  0
 63 76  1  0  0  0  0
 64 78  1  0  0  0  0
 65 77  1  0  0  0  0
 67 69  1  0  0  0  0
M  CHG  1  78   1
M  ISO  4  37 100  52 101  77 100  85 101
M  END
> <Batch ID>
0144

> <Smiles>
CNC(C)C(=O)NC(C(=O)N1Cc2cc([101O:1][101CH:1]3CC3C(C)c3cc(C)nc(NCC(C)[100NH:0][100C:0](=O)N4CCCC(n5nc(-c6ccc(Oc7ccc(F)cc7F)cc6)c(C(N)=O)c5N)C4)c3)ccc2CC1C(=O)NC1CCCc2ccccc21)C(C)(C)C

> <Shape>
0.247

> <Color>
0.118

> <Negative vol penalty>
0.000

$$$$

  -OEChem-04052321263D

 85 94  0     1  0  0  0  0  0999 V2000
  -26.3084  -34.8170   22.4898 C   0  0  0  0  0  0  0  0  0  0  0  0
  -27.1865  -33.7453   22.3637 C   0  0  0  0  0  0  0  0  0  0  0  0
  -23.0298  -10.0283   19.8715 C   0  0  0  0  0  0  0  0  0  0  0  0
  -23.8707   -9.8290   22.1276 C   0  0  0  0  0  0  0  0  0  0  0  0
  -24.9472  -34.6334   22.2503 C   0  0  0  0  0  0  0  0  0  0  0  0
  -26.7036  -32.4890   21.9991 C   0  0  0  0  0  0  0  0  0  0  0  0
  -29.5544  -28.3083   18.5494 C   0  0  0  0  0  0  0  0  0  0  0  0
  -22.2677   -8.8744   20.0536 C   0  0  0  0  0  0  0  0  0  0  0  0
  -23.1085   -8.6751   22.3098 C   0  0  0  0  0  0  0  0  0  0  0  0
  -30.2902  -27.1691   18.8729 C   0  0  0  0  0  0  0  0  0  0  0  0
  -19.8855   -7.8986   22.9652 C   0  0  0  0  0  0  0  0  0  0  0  0
  -19.1699   -7.7777   24.1563 C   0  0  0  0  0  0  0  0  0  0  0  0
  -28.3182  -25.8147   18.5630 C   0  0  0  0  0  0  0  0  0  0  0  0
  -29.4981  -18.5723   21.4108 C   0  0  0  0  0  0  0  0  0  0  0  0
  -31.6696  -18.3635   20.3726 C   0  0  0  0  0  0  0  0  0  0  0  0
  -20.3895   -5.7600   24.6843 C   0  0  0  0  0  0  0  0  0  0  0  0
  -23.8314  -10.5056   20.9085 C   0  0  0  0  0  0  0  0  0  0  0  0
  -24.2297  -13.0242   20.9835 C   0  0  0  0  0  0  0  0  0  0  0  0
  -24.4488  -33.3764   21.8732 C   0  0  0  0  0  0  0  0  0  0  0  0
  -28.1901  -28.2104   18.2405 C   0  0  0  0  0  0  0  0  0  0  0  0
  -25.3343  -32.2881   21.7557 C   0  0  0  0  0  0  0  0  0  0  0  0
  -27.5679  -26.9539   18.2335 C   0  0  0  0  0  0  0  0  0  0  0  0
  -30.1874  -20.1573   19.7226 C   0  0  0  0  0  0  0  0  0  0  0  0
  -30.7160  -17.9048   21.2814 C   0  0  0  0  0  0  0  0  0  0  0  0
  -29.2338  -19.6986   20.6314 C   0  0  0  0  0  0  0  0  0  0  0  0
  -31.4053  -19.4898   19.5932 C   0  0  0  0  0  0  0  0  0  0  0  0
  -22.3070   -8.1978   21.2727 C   0  0  0  0  0  0  0  0  0  0  0  0
  -29.6715  -25.9225   18.8825 C   0  0  0  0  0  0  0  0  0  0  0  0
  -20.8530   -6.9501   22.6335 C   0  0  0  0  0  0  0  0  0  0  0  0
  -19.4219   -6.7085   25.0159 C   0  0  0  0  0  0  0  0  0  0  0  0
  -21.1050   -5.8809   23.4930 C   0  0  0  0  0  0  0  0  0  0  0  0
  -24.6194  -11.6972   20.7208 C   0  0  0  0  0  0  0  0  0  0  0  0
  -25.3261  -13.7780   20.6423 C   0  0  0  0  0  0  0  0  0  0  0  0
  -22.9878  -13.5303   21.4906 C   0  0  0  0  0  0  0  0  0  0  0  0
  -25.5132  -29.3530   19.5182 C   0  0  0  0  0  0  0  0  0  0  0  0
  -24.1536  -28.0298   16.8871 C   0  0  0  0  0  0  0  0  0  0  0  0
  -24.3288  -25.7073   14.3926 C   0  0  0  0  0  0  0  0  0  0  0  0
  -30.8361  -14.6616   20.7083 C   0  0  0  0  0  0  0  0  0  0  0  0
  -22.9629  -33.2155   21.6710 C   0  0  0  0  0  0  0  0  0  0  0  0
  -27.4167  -29.4454   17.8676 C   0  0  0  0  0  0  0  0  0  0  0  0
  -26.1105  -26.7924   17.8894 C   0  0  0  0  0  0  0  0  0  0  0  0
  -22.5845  -31.9392   20.9240 C   0  0  0  0  0  0  0  0  0  0  0  0
  -29.5570  -12.5078   18.1781 C   0  0  0  0  0  0  0  0  0  0  0  0
  -23.3369  -30.7423   21.4969 C   0  0  0  0  0  0  0  0  0  0  0  0
  -28.1292  -12.2097   18.6390 C   0  0  0  0  0  0  0  0  0  0  0  0
  -29.1241  -22.6325   19.4760 C   0  0  0  0  0  0  0  0  0  0  0  0
  -31.0344  -22.4500   18.5629 C   0  0  0  0  0  0  0  0  0  0  0  0
  -30.5213  -12.6088   19.3579 C   0  0  0  0  0  0  0  0  0  0  0  0
  -28.6883  -13.2625   20.8700 C   0  0  0  0  0  0  0  0  0  0  0  0
  -29.8867  -21.4363   18.8377 C   0  0  0  0  0  0  0  0  0  0  0  0
  -24.8522  -30.9157   21.3380 C   0  0  1  0  0  0  0  0  0  0  0  0
  -25.9124  -29.2925   18.0709 C   0  0  1  0  0  0  0  0  0  0  0  0
  -27.6690  -13.2068   19.7193 C   0  0  2  0  0  0  0  0  0  0  0  0
  -29.9745  -23.5727   18.5935 C   0  0  0  0  0  0  0  0  0  1  0  0
  -27.9235  -20.3976   20.7864 C   0  0  0  0  0  0  0  0  0  0  0  0
  -33.5443  -18.9312   18.4103 C   0  0  0  0  0  0  0  0  0  0  0  0
  -23.0503  -24.8402   12.4150 C   0  0  0  0  0  0  0  0  0  0  0  0
  -22.2575  -26.5501   18.7647 C   0  0  0  0  0  0  0  0  0  0  0  0
  -21.6747  -25.0282   16.8641 C   0  0  0  0  0  0  0  0  0  0  0  0
  -21.1789  -27.4677   16.7034 C   0  0  0  0  0  0  0  0  0  0  0  0
  -26.5005  -26.4406   12.5204 C   0  0  0  0  0  0  0  0  0  0  0  0
  -32.4405  -19.9623   18.6263 C   0  0  0  0  0  0  0  0  0  0  0  0
  -30.9979  -16.7003   22.1143 C   0  0  0  0  0  0  0  0  0  0  0  0
  -23.5753  -26.6771   16.5481 C   0  0  1  0  0  0  0  0  0  0  0  0
  -24.1103  -25.8196   12.8946 C   0  0  2  0  0  0  0  0  0  0  0  0
  -22.1986  -26.4337   17.2285 C   0  0  0  0  0  0  0  0  0  0  0  0
  -25.8659  -11.6096   20.2490 N   0  0  0  0  0  0  0  0  0  0  0  0
  -26.2690  -12.8912   20.2125 N   0  0  0  0  0  0  0  0  0  0  0  0
  -25.3955  -28.0304   17.5378 N   0  0  0  0  0  0  0  0  0  0  0  0
  -30.0277  -13.5718   20.3453 N   0  0  0  0  0  0  0  0  0  0  0  0
  -25.5659  -15.1061   20.6711 N   0  0  0  0  0  0  0  0  0  0  0  0
  -21.9668  -12.6179   21.7897 N   0  0  0  0  0  0  0  0  0  0  0  0
  -25.2536  -30.6303   19.9772 N   0  0  0  0  0  0  0  0  0  0  0  0
  -23.5440  -26.5999   15.0916 N   0  0  0  0  0  0  0  0  0  0  0  0
  -30.2899  -15.5298   21.6456 N   0  0  0  0  0  0  0  0  0  0  0  0
  -25.3776  -25.5358   12.1635 N   0  3  0  0  0  0  0  0  0  0  0  0
  -22.7836  -14.7566   21.6576 O   0  0  0  0  0  0  0  0  0  0  0  0
  -25.4443  -28.3175   20.1697 O   0  0  0  0  0  0  0  0  0  0  0  0
  -23.5298  -29.0485   16.5792 O   0  0  0  0  0  0  0  0  0  0  0  0
  -25.1143  -24.9053   14.8929 O   0  0  0  0  0  0  0  0  0  0  0  0
  -31.9591  -14.8500   20.2284 O   0  0  0  0  0  0  0  0  0  0  0  0
  -21.5632   -7.0720   21.4509 O   0  0  0  0  0  0  0  0  0  0  0  0
  -30.3872  -24.8090   19.1985 O   0  0  0  0  0  0  0  0  0  1  0  0
  -18.7357   -6.5934   26.1605 F   0  0  0  0  0  0  0  0  0  0  0  0
  -22.0342   -4.9672   23.1803 F   0  0  0  0  0  0  0  0  0  0  0  0
  1  2  1  0  0  0  0
  1  5  2  0  0  0  0
  2  6  2  0  0  0  0
  3  8  2  0  0  0  0
  3 17  1  0  0  0  0
  4  9  1  0  0  0  0
  4 17  2  0  0  0  0
  5 19  1  0  0  0  0
  6 21  1  0  0  0  0
  7 10  2  0  0  0  0
  7 20  1  0  0  0  0
  8 27  1  0  0  0  0
  9 27  2  0  0  0  0
 10 28  1  0  0  0  0
 11 12  2  0  0  0  0
 11 29  1  0  0  0  0
 12 30  1  0  0  0  0
 13 22  1  0  0  0  0
 13 28  2  0  0  0  0
 14 24  1  0  0  0  0
 14 25  2  0  0  0  0
 15 24  2  0  0  0  0
 15 26  1  0  0  0  0
 16 30  2  0  0  0  0
 16 31  1  0  0  0  0
 17 32  1  0  0  0  0
 18 32  1  0  0  0  0
 18 33  2  0  0  0  0
 18 34  1  0  0  0  0
 19 21  2  0  0  0  0
 19 39  1  0  0  0  0
 20 22  2  0  0  0  0
 20 40  1  0  0  0  0
 21 51  1  0  0  0  0
 22 41  1  0  0  0  0
 23 25  1  0  0  0  0
 23 26  2  0  0  0  0
 23 50  1  0  0  0  0
 24 63  1  0  0  0  0
 25 55  1  0  0  0  0
 26 62  1  0  0  0  0
 27 82  1  0  0  0  0
 28 83  1  0  0  0  0
 29 31  2  0  0  0  0
 29 82  1  0  0  0  0
 30 84  1  0  0  0  0
 31 85  1  0  0  0  0
 32 67  2  0  0  0  0
 33 68  1  0  0  0  0
 33 71  1  0  0  0  0
 34 72  1  0  0  0  0
 34 77  2  0  0  0  0
 35 52  1  0  0  0  0
 35 73  1  0  0  0  0
 35 78  2  0  0  0  0
 36 64  1  0  0  0  0
 36 69  1  0  0  0  0
 36 79  2  0  0  0  0
 37 65  1  0  0  0  0
 37 74  1  0  0  0  0
 37 80  2  0  0  0  0
 38 70  1  0  0  0  0
 38 75  1  0  0  0  0
 38 81  2  0  0  0  0
 39 42  1  0  0  0  0
 40 52  1  0  0  0  0
 41 69  1  0  0  0  0
 42 44  1  0  0  0  0
 43 45  1  0  0  0  0
 43 48  1  0  0  0  0
 44 51  1  0  0  0  0
 45 53  1  0  0  0  0
 46 50  1  0  0  0  0
 46 54  1  0  0  0  0
 47 50  1  0  0  0  0
 47 54  1  0  0  0  0
 48 70  1  0  0  0  0
 49 53  1  0  0  0  0
 49 70  1  0  0  0  0
 51 73  1  0  0  0  0
 52 69  1  0  0  0  0
 53 68  1  0  0  0  0
 54 83  1  0  0  0  0
 56 62  1  0  0  0  0
 57 65  1  0  0  0  0
 58 66  1  0  0  0  0
 59 66  1  0  0  0  0
 60 66  1  0  0  0  0
 61 76  1  0  0  0  0
 63 75  1  0  0  0  0
 64 66  1  0  0  0  0
 64 74  1  0  0  0  0
 65 76  1  0  0  0  0
 67 68  1  0  0  0  0
M  CHG  1  76   1
M  ISO  4  38 100  54 101  75 100  83 101
M  END
> <Batch ID>
0144

> <Smiles>
CCc1cc(C[100NH:0][100C:0](=O)N2CCCC(n3nc(-c4ccc(Oc5ccc(F)cc5F)cc4)c(C(N)=O)c3N)C2)cc(C)c1C1C[101CH:1]([101O:1]c2ccc3c(c2)CN(C(=O)C(NC(=O)C(C)NC)C(C)(C)C)C(C(=O)NC2CCCc4ccccc42)C3)C1

> <Shape>
0.315

> <Color>
0.201

> <Negative vol penalty>
0.000

$$$$

  -OEChem-04052321263D

 86 95  0     1  0  0  0  0  0999 V2000
  -20.2735   -7.1396   21.2833 C   0  0  0  0  0  0  0  0  0  0  0  0
  -21.0336   -7.8684   22.1925 C   0  0  0  0  0  0  0  0  0  0  0  0
  -25.3921  -29.6523   22.1536 C   0  0  0  0  0  0  0  0  0  0  0  0
  -25.3995  -30.1855   19.7972 C   0  0  0  0  0  0  0  0  0  0  0  0
  -20.7344   -6.9560   19.9803 C   0  0  0  0  0  0  0  0  0  0  0  0
  -22.2556   -8.4130   21.7995 C   0  0  0  0  0  0  0  0  0  0  0  0
  -23.4576  -15.5040   22.2059 C   0  0  0  0  0  0  0  0  0  0  0  0
  -24.1320  -30.2364   22.2819 C   0  0  0  0  0  0  0  0  0  0  0  0
  -24.1393  -30.7696   19.9255 C   0  0  0  0  0  0  0  0  0  0  0  0
  -23.8387  -16.8233   22.4511 C   0  0  0  0  0  0  0  0  0  0  0  0
  -20.7571  -31.2659   23.1567 C   0  0  0  0  0  0  0  0  0  0  0  0
  -19.7947  -30.5763   23.8941 C   0  0  0  0  0  0  0  0  0  0  0  0
  -25.9982  -16.3969   21.4499 C   0  0  0  0  0  0  0  0  0  0  0  0
  -28.7318  -19.1412   22.0386 C   0  0  0  0  0  0  0  0  0  0  0  0
  -28.1487  -21.4728   21.9494 C   0  0  0  0  0  0  0  0  0  0  0  0
  -19.9578  -28.7132   22.3646 C   0  0  0  0  0  0  0  0  0  0  0  0
  -26.0259  -29.6269   20.9113 C   0  0  0  0  0  0  0  0  0  0  0  0
  -28.5109  -29.4009   21.4419 C   0  0  0  0  0  0  0  0  0  0  0  0
  -21.9582   -7.5068   19.5684 C   0  0  0  0  0  0  0  0  0  0  0  0
  -24.3408  -14.6292   21.5671 C   0  0  0  0  0  0  0  0  0  0  0  0
  -22.7340   -8.2354   20.4901 C   0  0  0  0  0  0  0  0  0  0  0  0
  -25.6175  -15.0777   21.1904 C   0  0  0  0  0  0  0  0  0  0  0  0
  -28.1708  -20.2641   22.6365 C   0  0  0  0  0  0  0  0  0  0  0  0
  -23.5055  -30.7950   21.1678 C   0  0  0  0  0  0  0  0  0  0  0  0
  -25.1060  -17.2686   22.0743 C   0  0  0  0  0  0  0  0  0  0  0  0
  -21.3198  -30.6792   22.0232 C   0  0  0  0  0  0  0  0  0  0  0  0
  -19.3950  -29.3000   23.4981 C   0  0  0  0  0  0  0  0  0  0  0  0
  -20.9202  -29.4029   21.6272 C   0  0  0  0  0  0  0  0  0  0  0  0
  -27.3279  -29.0242   20.7783 C   0  0  0  0  0  0  0  0  0  0  0  0
  -29.2532  -19.2782   20.7622 C   0  0  0  0  0  0  0  0  0  0  0  0
  -28.6964  -21.5055   20.6771 C   0  0  0  0  0  0  0  0  0  0  0  0
  -29.4603  -28.5252   20.9749 C   0  0  0  0  0  0  0  0  0  0  0  0
  -28.7317  -30.4488   22.3952 C   0  0  0  0  0  0  0  0  0  0  0  0
  -24.9489  -11.1806   20.2205 C   0  0  0  0  0  0  0  0  0  0  0  0
  -26.1644  -13.1504   18.2073 C   0  0  0  0  0  0  0  0  0  0  0  0
  -27.3237  -14.7340   15.4171 C   0  0  0  0  0  0  0  0  0  0  0  0
  -29.1586  -23.0053   18.7065 C   0  0  0  0  0  0  0  0  0  0  0  0
  -22.4373   -7.2415   18.1631 C   0  0  0  0  0  0  0  0  0  0  0  0
  -23.9955  -13.1828   21.3381 C   0  0  0  0  0  0  0  0  0  0  0  0
  -26.5472  -14.0919   20.5370 C   0  0  0  0  0  0  0  0  0  0  0  0
  -23.5660   -8.1685   17.7192 C   0  0  0  0  0  0  0  0  0  0  0  0
  -30.5491  -25.8809   17.1334 C   0  0  0  0  0  0  0  0  0  0  0  0
  -24.6326   -8.2688   18.8050 C   0  0  0  0  0  0  0  0  0  0  0  0
  -29.9934  -27.0473   17.9537 C   0  0  0  0  0  0  0  0  0  0  0  0
  -25.1742  -20.4903   23.7176 C   0  0  0  0  0  0  0  0  0  0  0  0
  -26.4054  -21.1298   24.3612 C   0  0  0  0  0  0  0  0  0  0  0  0
  -26.8616  -18.8146   24.2855 C   0  0  0  0  0  0  0  0  0  0  0  0
  -29.5265  -24.7561   16.9819 C   0  0  0  0  0  0  0  0  0  0  0  0
  -28.3929  -25.4351   19.0611 C   0  0  0  0  0  0  0  0  0  0  0  0
  -24.0531   -8.8628   20.0945 C   0  0  1  0  0  0  0  0  0  0  0  0
  -24.5806  -12.6226   20.0293 C   0  0  1  0  0  0  0  0  0  0  0  0
  -29.4093  -26.5645   19.2959 C   0  0  2  0  0  0  0  0  0  0  0  0
  -25.4708  -18.9908   23.6682 C   0  0  2  0  0  0  0  0  0  1  0  0
  -27.5777  -20.1699   24.0510 C   0  0  1  0  0  0  0  0  0  0  0  0
  -29.8640  -18.0941   20.0898 C   0  0  0  0  0  0  0  0  0  0  0  0
  -28.8940  -14.4226   13.4845 C   0  0  0  0  0  0  0  0  0  0  0  0
  -29.7721  -19.3067   24.9328 C   0  0  0  0  0  0  0  0  0  0  0  0
  -29.3175  -21.7757   24.9065 C   0  0  0  0  0  0  0  0  0  0  0  0
  -28.5353  -13.6682   20.0552 C   0  0  0  0  0  0  0  0  0  0  0  0
  -29.8826  -14.2851   18.0371 C   0  0  0  0  0  0  0  0  0  0  0  0
  -28.9600  -11.9783   18.2613 C   0  0  0  0  0  0  0  0  0  0  0  0
  -25.1306  -14.9803   13.4452 C   0  0  0  0  0  0  0  0  0  0  0  0
  -27.3931  -13.8957   17.7509 C   0  0  1  0  0  0  0  0  0  0  0  0
  -27.4642  -14.2679   13.9792 C   0  0  2  0  0  0  0  0  0  0  0  0
  -28.7051  -20.3883   25.0749 C   0  0  0  0  0  0  0  0  0  0  0  0
  -28.6684  -13.4704   18.5320 C   0  0  0  0  0  0  0  0  0  0  0  0
  -27.5069  -27.9898   19.9525 N   0  0  0  0  0  0  0  0  0  0  0  0
  -29.2499  -20.4356   20.0636 N   0  0  0  0  0  0  0  0  0  0  0  0
  -28.8136  -27.7091   20.0940 N   0  0  0  0  0  0  0  0  0  0  0  0
  -25.8101  -13.2806   19.5557 N   0  0  0  0  0  0  0  0  0  0  0  0
  -29.0201  -24.3475   18.2939 N   0  0  0  0  0  0  0  0  0  0  0  0
  -30.7770  -28.3813   21.2359 N   0  0  0  0  0  0  0  0  0  0  0  0
  -29.1013  -31.7153   21.9224 N   0  0  0  0  0  0  0  0  0  0  0  0
  -28.6694  -22.7420   19.9856 N   0  0  0  0  0  0  0  0  0  0  0  0
  -23.9149  -10.2982   19.9723 N   0  0  0  0  0  0  0  0  0  0  0  0
  -27.4806  -13.6939   16.3087 N   0  0  0  0  0  0  0  0  0  0  0  0
  -26.5704  -15.0604   13.0881 N   0  3  0  0  0  0  0  0  0  0  0  0
  -28.6212  -30.2630   23.6309 O   0  0  0  0  0  0  0  0  0  0  0  0
  -26.0877  -10.8886   20.5663 O   0  0  0  0  0  0  0  0  0  0  0  0
  -25.5372  -12.4661   17.3939 O   0  0  0  0  0  0  0  0  0  0  0  0
  -27.1010  -15.9043   15.7192 O   0  0  0  0  0  0  0  0  0  0  0  0
  -29.6978  -22.1584   17.9897 O   0  0  0  0  0  0  0  0  0  0  0  0
  -22.2758  -31.3649   21.2926 O   0  0  0  0  0  0  0  0  0  0  0  0
  -25.4699  -18.5592   22.3126 O   0  0  0  0  0  0  0  0  0  1  0  0
  -18.4719  -28.6372   24.2072 F   0  0  0  0  0  0  0  0  0  0  0  0
  -21.4581  -28.8336   20.5398 F   0  0  0  0  0  0  0  0  0  0  0  0
  1  2  1  0  0  0  0
  1  5  2  0  0  0  0
  2  6  2  0  0  0  0
  3  8  2  0  0  0  0
  3 17  1  0  0  0  0
  4  9  1  0  0  0  0
  4 17  2  0  0  0  0
  5 19  1  0  0  0  0
  6 21  1  0  0  0  0
  7 10  2  0  0  0  0
  7 20  1  0  0  0  0
  8 24  1  0  0  0  0
  9 24  2  0  0  0  0
 10 25  1  0  0  0  0
 11 12  2  0  0  0  0
 11 26  1  0  0  0  0
 12 27  1  0  0  0  0
 13 22  1  0  0  0  0
 13 25  2  0  0  0  0
 14 23  1  0  0  0  0
 14 30  2  0  0  0  0
 15 23  2  0  0  0  0
 15 31  1  0  0  0  0
 16 27  2  0  0  0  0
 16 28  1  0  0  0  0
 17 29  1  0  0  0  0
 18 29  1  0  0  0  0
 18 32  2  0  0  0  0
 18 33  1  0  0  0  0
 19 21  2  0  0  0  0
 19 38  1  0  0  0  0
 20 22  2  0  0  0  0
 20 39  1  0  0  0  0
 21 50  1  0  0  0  0
 22 40  1  0  0  0  0
 23 54  1  0  0  0  0
 24 83  1  0  0  0  0
 25 84  1  0  0  0  0
 26 28  2  0  0  0  0
 26 83  1  0  0  0  0
 27 85  1  0  0  0  0
 28 86  1  0  0  0  0
 29 67  2  0  0  0  0
 30 55  1  0  0  0  0
 30 68  1  0  0  0  0
 31 68  2  0  0  0  0
 31 74  1  0  0  0  0
 32 69  1  0  0  0  0
 32 72  1  0  0  0  0
 33 73  1  0  0  0  0
 33 78  2  0  0  0  0
 34 51  1  0  0  0  0
 34 75  1  0  0  0  0
 34 79  2  0  0  0  0
 35 63  1  0  0  0  0
 35 70  1  0  0  0  0
 35 80  2  0  0  0  0
 36 64  1  0  0  0  0
 36 76  1  0  0  0  0
 36 81  2  0  0  0  0
 37 71  1  0  0  0  0
 37 74  1  0  0  0  0
 37 82  2  0  0  0  0
 38 41  1  0  0  0  0
 39 51  1  0  0  0  0
 40 70  1  0  0  0  0
 41 43  1  0  0  0  0
 42 44  1  0  0  0  0
 42 48  1  0  0  0  0
 43 50  1  0  0  0  0
 44 52  1  0  0  0  0
 45 46  1  0  0  0  0
 45 53  1  0  0  0  0
 46 54  1  0  0  0  0
 47 53  1  0  0  0  0
 47 54  1  0  0  0  0
 48 71  1  0  0  0  0
 49 52  1  0  0  0  0
 49 71  1  0  0  0  0
 50 75  1  0  0  0  0
 51 70  1  0  0  0  0
 52 69  1  0  0  0  0
 53 84  1  0  0  0  0
 54 65  1  0  0  0  0
 56 64  1  0  0  0  0
 57 65  1  0  0  0  0
 58 65  1  0  0  0  0
 59 66  1  0  0  0  0
 60 66  1  0  0  0  0
 61 66  1  0  0  0  0
 62 77  1  0  0  0  0
 63 66  1  0  0  0  0
 63 76  1  0  0  0  0
 64 77  1  0  0  0  0
 67 69  1  0  0  0  0
M  CHG  1  77   1
M  ISO  4  37 100  53 101  74 100  84 101
M  END
> <Batch ID>
0144

> <Smiles>
CNC(C)C(=O)NC(C(=O)N1Cc2cc([101O:1][101CH:1]3CCC(c4cc(C)nc([100NH:0][100C:0](=O)N5CCCC(n6nc(-c7ccc(Oc8ccc(F)cc8F)cc7)c(C(N)=O)c6N)C5)c4)(C(C)C)C3)ccc2CC1C(=O)NC1CCCc2ccccc21)C(C)(C)C

> <Shape>
0.277

> <Color>
0.055

> <Negative vol penalty>
0.000

$$$$

  -OEChem-04052321263D

 86 94  0     1  0  0  0  0  0999 V2000
  -25.5119  -36.9410   22.0658 C   0  0  0  0  0  0  0  0  0  0  0  0
  -26.2521  -35.8446   21.6354 C   0  0  0  0  0  0  0  0  0  0  0  0
  -24.4513   -9.3573   22.0848 C   0  0  0  0  0  0  0  0  0  0  0  0
  -23.3144  -10.5560   20.3219 C   0  0  0  0  0  0  0  0  0  0  0  0
  -24.5163  -36.7743   23.0276 C   0  0  0  0  0  0  0  0  0  0  0  0
  -25.9979  -34.5809   22.1673 C   0  0  0  0  0  0  0  0  0  0  0  0
  -26.3680  -29.2130   19.2425 C   0  0  0  0  0  0  0  0  0  0  0  0
  -29.7607  -20.5297   19.7405 C   0  0  0  0  0  0  0  0  0  0  0  0
  -23.4484   -8.3879   22.0724 C   0  0  0  0  0  0  0  0  0  0  0  0
  -22.3115   -9.5866   20.3095 C   0  0  0  0  0  0  0  0  0  0  0  0
  -27.3616  -28.2360   19.1973 C   0  0  0  0  0  0  0  0  0  0  0  0
  -29.5883  -21.7932   19.1753 C   0  0  0  0  0  0  0  0  0  0  0  0
  -22.5935   -5.7122   20.1903 C   0  0  0  0  0  0  0  0  0  0  0  0
  -22.9851   -4.3738   20.2225 C   0  0  0  0  0  0  0  0  0  0  0  0
  -26.2224  -27.0058   20.9317 C   0  0  0  0  0  0  0  0  0  0  0  0
  -27.3009  -21.8286   19.9521 C   0  0  0  0  0  0  0  0  0  0  0  0
  -21.7667   -4.0670   22.2861 C   0  0  0  0  0  0  0  0  0  0  0  0
  -24.3843  -10.4414   21.2095 C   0  0  0  0  0  0  0  0  0  0  0  0
  -26.6048  -11.4507   20.4626 C   0  0  0  0  0  0  0  0  0  0  0  0
  -24.2432  -35.5063   23.5645 C   0  0  0  0  0  0  0  0  0  0  0  0
  -25.2981  -29.0990   20.1418 C   0  0  0  0  0  0  0  0  0  0  0  0
  -24.9986  -34.3973   23.1381 C   0  0  0  0  0  0  0  0  0  0  0  0
  -25.2152  -27.9814   20.9845 C   0  0  0  0  0  0  0  0  0  0  0  0
  -28.7032  -19.9156   20.4114 C   0  0  0  0  0  0  0  0  0  0  0  0
  -22.3785   -8.5025   21.1848 C   0  0  0  0  0  0  0  0  0  0  0  0
  -27.2904  -27.1336   20.0439 C   0  0  0  0  0  0  0  0  0  0  0  0
  -28.3584  -22.4427   19.2811 C   0  0  0  0  0  0  0  0  0  0  0  0
  -21.7885   -6.2280   21.2060 C   0  0  0  0  0  0  0  0  0  0  0  0
  -27.4733  -20.5650   20.5172 C   0  0  0  0  0  0  0  0  0  0  0  0
  -22.5717   -3.5512   21.2704 C   0  0  0  0  0  0  0  0  0  0  0  0
  -21.3751   -5.4053   22.2539 C   0  0  0  0  0  0  0  0  0  0  0  0
  -25.4196  -11.4433   21.2222 C   0  0  0  0  0  0  0  0  0  0  0  0
  -27.2445  -12.6075   20.8356 C   0  0  0  0  0  0  0  0  0  0  0  0
  -27.0847  -10.4972   19.5054 C   0  0  0  0  0  0  0  0  0  0  0  0
  -24.2303  -30.8252   22.5879 C   0  0  0  0  0  0  0  0  0  0  0  0
  -21.7855  -28.6943   22.5200 C   0  0  0  0  0  0  0  0  0  0  0  0
  -20.6726  -25.5887   21.6461 C   0  0  0  0  0  0  0  0  0  0  0  0
  -25.2940  -17.8006   23.0891 C   0  0  0  0  0  0  0  0  0  0  0  0
  -23.1893  -35.3835   24.6364 C   0  0  0  0  0  0  0  0  0  0  0  0
  -24.2203  -30.1480   20.1595 C   0  0  0  0  0  0  0  0  0  0  0  0
  -24.0765  -27.8018   21.9538 C   0  0  0  0  0  0  0  0  0  0  0  0
  -22.7287  -33.9480   24.8760 C   0  0  0  0  0  0  0  0  0  0  0  0
  -27.7000  -15.6093   24.5333 C   0  0  0  0  0  0  0  0  0  0  0  0
  -23.9289  -33.0121   24.9773 C   0  0  0  0  0  0  0  0  0  0  0  0
  -27.4953  -14.2938   23.7799 C   0  0  0  0  0  0  0  0  0  0  0  0
  -26.3780  -16.3368   24.7679 C   0  0  0  0  0  0  0  0  0  0  0  0
  -25.3681  -15.2497   22.8002 C   0  0  0  0  0  0  0  0  0  0  0  0
  -24.7357  -33.0064   23.6732 C   0  0  1  0  0  0  0  0  0  0  0  0
  -23.4477  -30.1887   21.4743 C   0  0  1  0  0  0  0  0  0  0  0  0
  -26.6792  -14.5070   22.4908 C   0  0  2  0  0  0  0  0  0  0  0  0
  -29.9852  -18.5639   22.1093 C   0  0  0  0  0  0  0  0  0  0  0  0
  -29.2370  -17.4952   19.9522 C   0  0  0  0  0  0  0  0  0  0  0  0
  -18.6391  -24.1222   21.7544 C   0  0  0  0  0  0  0  0  0  0  0  0
  -22.3175  -28.1793   25.4800 C   0  0  0  0  0  0  0  0  0  0  0  0
  -20.9498  -26.0908   25.2910 C   0  0  0  0  0  0  0  0  0  0  0  0
  -19.8976  -28.3117   24.8626 C   0  0  0  0  0  0  0  0  0  0  0  0
  -20.5098  -25.3989   18.6972 C   0  0  0  0  0  0  0  0  0  0  0  0
  -24.1846  -19.1345   21.3145 C   0  0  0  0  0  0  0  0  0  0  0  0
  -25.2447  -19.7413   20.4129 C   0  0  0  0  0  0  0  0  0  0  0  0
  -28.9087  -25.9668   18.7495 C   0  0  0  0  0  0  0  0  0  1  0  0
  -29.3403  -24.5162   18.6548 C   0  0  0  0  0  0  0  0  0  0  0  0
  -28.9061  -18.5634   21.0108 C   0  0  0  0  0  0  0  0  0  0  0  0
  -21.5136  -27.3582   23.1680 C   0  0  1  0  0  0  0  0  0  0  0  0
  -19.4152  -25.1348   20.9267 C   0  0  2  0  0  0  0  0  0  0  0  0
  -21.1922  -27.4891   24.6836 C   0  0  0  0  0  0  0  0  0  0  0  0
  -25.3104  -12.5107   22.0178 N   0  0  0  0  0  0  0  0  0  0  0  0
  -26.4352  -13.1995   21.7602 N   0  0  0  0  0  0  0  0  0  0  0  0
  -23.0506  -28.8577   21.9380 N   0  0  0  0  0  0  0  0  0  0  0  0
  -25.6539  -16.5085   23.5061 N   0  0  0  0  0  0  0  0  0  0  0  0
  -28.4147  -13.1659   20.4597 N   0  0  0  0  0  0  0  0  0  0  0  0
  -26.3025   -9.3647   19.2408 N   0  0  0  0  0  0  0  0  0  0  0  0
  -24.0744  -32.1956   22.6733 N   0  0  0  0  0  0  0  0  0  0  0  0
  -20.4539  -26.7326   22.3844 N   0  0  0  0  0  0  0  0  0  0  0  0
  -24.6156  -17.8749   21.8787 N   0  0  0  0  0  0  0  0  0  0  0  0
  -19.7637  -24.5063   19.6212 N   0  3  0  0  0  0  0  0  0  0  0  0
  -28.1825  -10.6368   18.9148 O   0  0  0  0  0  0  0  0  0  0  0  0
  -24.9230  -30.1247   23.3167 O   0  0  0  0  0  0  0  0  0  0  0  0
  -20.9053  -29.5585   22.5236 O   0  0  0  0  0  0  0  0  0  0  0  0
  -21.7409  -24.9865   21.5646 O   0  0  0  0  0  0  0  0  0  0  0  0
  -25.5623  -18.8135   23.7440 O   0  0  0  0  0  0  0  0  0  0  0  0
  -21.3999   -7.5567   21.1722 O   0  0  0  0  0  0  0  0  0  0  0  0
  -28.2592  -26.1789   20.0023 O   0  0  0  0  0  0  0  0  0  1  0  0
  -28.1893  -23.6834   18.7252 O   0  0  0  0  0  0  0  0  0  0  0  0
  -26.4301  -19.9791   21.1692 O   0  0  0  0  0  0  0  0  0  0  0  0
  -22.9466   -2.2656   21.3004 F   0  0  0  0  0  0  0  0  0  0  0  0
  -20.6008   -5.8949   23.2320 F   0  0  0  0  0  0  0  0  0  0  0  0
  1  2  1  0  0  0  0
  1  5  2  0  0  0  0
  2  6  2  0  0  0  0
  3  9  2  0  0  0  0
  3 18  1  0  0  0  0
  4 10  1  0  0  0  0
  4 18  2  0  0  0  0
  5 20  1  0  0  0  0
  6 22  1  0  0  0  0
  7 11  2  0  0  0  0
  7 21  1  0  0  0  0
  8 12  2  0  0  0  0
  8 24  1  0  0  0  0
  9 25  1  0  0  0  0
 10 25  2  0  0  0  0
 11 26  1  0  0  0  0
 12 27  1  0  0  0  0
 13 14  2  0  0  0  0
 13 28  1  0  0  0  0
 14 30  1  0  0  0  0
 15 23  1  0  0  0  0
 15 26  2  0  0  0  0
 16 27  2  0  0  0  0
 16 29  1  0  0  0  0
 17 30  2  0  0  0  0
 17 31  1  0  0  0  0
 18 32  1  0  0  0  0
 19 32  1  0  0  0  0
 19 33  2  0  0  0  0
 19 34  1  0  0  0  0
 20 22  2  0  0  0  0
 20 39  1  0  0  0  0
 21 23  2  0  0  0  0
 21 40  1  0  0  0  0
 22 48  1  0  0  0  0
 23 41  1  0  0  0  0
 24 29  2  0  0  0  0
 24 62  1  0  0  0  0
 25 81  1  0  0  0  0
 26 82  1  0  0  0  0
 27 83  1  0  0  0  0
 28 31  2  0  0  0  0
 28 81  1  0  0  0  0
 29 84  1  0  0  0  0
 30 85  1  0  0  0  0
 31 86  1  0  0  0  0
 32 66  2  0  0  0  0
 33 67  1  0  0  0  0
 33 70  1  0  0  0  0
 34 71  1  0  0  0  0
 34 76  2  0  0  0  0
 35 49  1  0  0  0  0
 35 72  1  0  0  0  0
 35 77  2  0  0  0  0
 36 63  1  0  0  0  0
 36 68  1  0  0  0  0
 36 78  2  0  0  0  0
 37 64  1  0  0  0  0
 37 73  1  0  0  0  0
 37 79  2  0  0  0  0
 38 69  1  0  0  0  0
 38 74  1  0  0  0  0
 38 80  2  0  0  0  0
 39 42  1  0  0  0  0
 40 49  1  0  0  0  0
 41 68  1  0  0  0  0
 42 44  1  0  0  0  0
 43 45  1  0  0  0  0
 43 46  1  0  0  0  0
 44 48  1  0  0  0  0
 45 50  1  0  0  0  0
 46 69  1  0  0  0  0
 47 50  1  0  0  0  0
 47 69  1  0  0  0  0
 48 72  1  0  0  0  0
 49 68  1  0  0  0  0
 50 67  1  0  0  0  0
 51 62  1  0  0  0  0
 52 62  1  0  0  0  0
 53 64  1  0  0  0  0
 54 65  1  0  0  0  0
 55 65  1  0  0  0  0
 56 65  1  0  0  0  0
 57 75  1  0  0  0  0
 58 59  1  0  0  0  0
 58 74  1  0  0  0  0
 59 84  1  0  0  0  0
 60 61  1  0  0  0  0
 60 82  1  0  0  0  0
 61 83  1  0  0  0  0
 63 65  1  0  0  0  0
 63 73  1  0  0  0  0
 64 75  1  0  0  0  0
 66 67  1  0  0  0  0
M  CHG  1  75   1
M  ISO  4  38 100  60 101  74 100  82 101
M  END
> <Batch ID>
0144

> <Smiles>
CNC(C)C(=O)NC(C(=O)N1Cc2cc([101O:1][101CH2:1]COc3ccc(C(C)C)c(OCC[100NH:0][100C:0](=O)N4CCCC(n5nc(-c6ccc(Oc7ccc(F)cc7F)cc6)c(C(N)=O)c5N)C4)c3)ccc2CC1C(=O)NC1CCCc2ccccc21)C(C)(C)C

> <Shape>
0.313

> <Color>
0.075

> <Negative vol penalty>
0.000

$$$$

  -OEChem-04052321263D

 86 95  0     1  0  0  0  0  0999 V2000
  -21.9981  -34.5908   14.9136 C   0  0  0  0  0  0  0  0  0  0  0  0
  -22.6655  -33.3808   15.0747 C   0  0  0  0  0  0  0  0  0  0  0  0
  -28.0967  -15.6855   22.0121 C   0  0  0  0  0  0  0  0  0  0  0  0
  -27.7705  -16.1735   19.6685 C   0  0  0  0  0  0  0  0  0  0  0  0
  -22.2596  -35.6506   15.7809 C   0  0  0  0  0  0  0  0  0  0  0  0
  -23.5956  -33.2303   16.1026 C   0  0  0  0  0  0  0  0  0  0  0  0
  -24.7227  -28.1509   19.3330 C   0  0  0  0  0  0  0  0  0  0  0  0
  -27.6133  -16.9513   22.3431 C   0  0  0  0  0  0  0  0  0  0  0  0
  -27.2870  -17.4394   19.9995 C   0  0  0  0  0  0  0  0  0  0  0  0
  -25.7103  -27.1724   19.2281 C   0  0  0  0  0  0  0  0  0  0  0  0
  -28.7703  -20.1269   22.3829 C   0  0  0  0  0  0  0  0  0  0  0  0
  -29.4754  -20.8600   23.3373 C   0  0  0  0  0  0  0  0  0  0  0  0
  -27.0101  -28.3124   20.9104 C   0  0  0  0  0  0  0  0  0  0  0  0
  -27.5099  -20.9232   24.7409 C   0  0  0  0  0  0  0  0  0  0  0  0
  -28.1754  -15.2966   20.6749 C   0  0  0  0  0  0  0  0  0  0  0  0
  -27.9287  -12.8044   20.1893 C   0  0  0  0  0  0  0  0  0  0  0  0
  -23.1863  -35.5099   16.8260 C   0  0  0  0  0  0  0  0  0  0  0  0
  -24.8767  -29.2252   20.2211 C   0  0  0  0  0  0  0  0  0  0  0  0
  -23.8707  -34.2897   16.9839 C   0  0  0  0  0  0  0  0  0  0  0  0
  -26.0219  -29.3019   21.0266 C   0  0  0  0  0  0  0  0  0  0  0  0
  -27.2084  -17.8283   21.3367 C   0  0  0  0  0  0  0  0  0  0  0  0
  -26.8555  -27.2546   20.0148 C   0  0  0  0  0  0  0  0  0  0  0  0
  -27.4349  -19.7920   22.6075 C   0  0  0  0  0  0  0  0  0  0  0  0
  -28.8453  -21.2581   24.5164 C   0  0  0  0  0  0  0  0  0  0  0  0
  -26.8048  -20.1902   23.7865 C   0  0  0  0  0  0  0  0  0  0  0  0
  -28.6752  -13.9893   20.3323 C   0  0  0  0  0  0  0  0  0  0  0  0
  -28.8596  -11.8497   19.8601 C   0  0  0  0  0  0  0  0  0  0  0  0
  -26.5197  -12.5862   20.3405 C   0  0  0  0  0  0  0  0  0  0  0  0
  -25.0775  -32.3822   19.9093 C   0  0  0  0  0  0  0  0  0  0  0  0
  -25.0079  -32.3159   23.1517 C   0  0  0  0  0  0  0  0  0  0  0  0
  -25.5712  -30.5652   26.0265 C   0  0  0  0  0  0  0  0  0  0  0  0
  -33.3105  -15.0966   19.5325 C   0  0  0  0  0  0  0  0  0  0  0  0
  -23.4704  -36.6989   17.7092 C   0  0  0  0  0  0  0  0  0  0  0  0
  -23.7900  -30.2582   20.3417 C   0  0  0  0  0  0  0  0  0  0  0  0
  -26.2259  -30.4241   22.0102 C   0  0  0  0  0  0  0  0  0  0  0  0
  -24.1952  -36.3372   19.0031 C   0  0  0  0  0  0  0  0  0  0  0  0
  -32.7676  -12.2642   21.6420 C   0  0  0  0  0  0  0  0  0  0  0  0
  -34.5423  -16.0108   16.2467 C   0  0  0  0  0  0  0  0  0  0  0  0
  -25.3606  -35.3955   18.7169 C   0  0  0  0  0  0  0  0  0  0  0  0
  -32.0548  -11.2483   20.7564 C   0  0  0  0  0  0  0  0  0  0  0  0
  -33.6771  -17.2320   16.5248 C   0  0  0  0  0  0  0  0  0  0  0  0
  -29.0277  -21.7391   18.2698 C   0  0  0  0  0  0  0  0  0  0  0  0
  -33.7867  -13.0555   20.8368 C   0  0  0  0  0  0  0  0  0  0  0  0
  -33.8487  -14.9221   17.0508 C   0  0  0  0  0  0  0  0  0  0  0  0
  -32.4055  -12.8365   18.7799 C   0  0  0  0  0  0  0  0  0  0  0  0
  -24.8684  -34.0796   18.1022 C   0  0  1  0  0  0  0  0  0  0  0  0
  -24.2869  -31.5849   20.9078 C   0  0  1  0  0  0  0  0  0  0  0  0
  -30.2025  -22.0795   19.1476 C   0  0  1  0  0  0  0  0  0  0  0  0
  -31.4238  -11.8920   19.5113 C   0  0  2  0  0  0  0  0  0  0  0  0
  -30.3745  -21.1274   17.9942 C   0  0  1  0  0  0  0  0  0  0  0  0
  -33.2943  -17.0635   17.9977 C   0  0  1  0  0  0  0  0  0  0  0  0
  -25.4580  -30.7888   28.5234 C   0  0  0  0  0  0  0  0  0  0  0  0
  -32.2001  -23.5096   19.7293 C   0  0  0  0  0  0  0  0  0  0  0  0
  -27.5639  -33.9818   23.1159 C   0  0  0  0  0  0  0  0  0  0  0  0
  -27.9128  -33.3710   25.5187 C   0  0  0  0  0  0  0  0  0  0  0  0
  -25.8935  -34.6713   24.8447 C   0  0  0  0  0  0  0  0  0  0  0  0
  -23.5882  -28.3795   26.2485 C   0  0  0  0  0  0  0  0  0  0  0  0
  -31.9269  -17.6617   18.3024 C   0  0  0  0  0  0  0  0  0  0  0  0
  -31.8876  -19.1405   17.9565 C   0  0  0  0  0  0  0  0  0  0  0  0
  -30.1265  -25.8207   19.4089 C   0  0  0  0  0  0  0  0  0  0  0  0
  -29.1634  -26.7042   20.1770 C   0  0  0  0  0  0  0  0  0  1  0  0
  -26.0481  -32.2209   24.2416 C   0  0  1  0  0  0  0  0  0  0  0  0
  -24.7180  -30.3615   27.2654 C   0  0  2  0  0  0  0  0  0  0  0  0
  -30.8088  -23.4390   19.0916 C   0  0  2  0  0  0  0  0  0  0  0  0
  -26.8519  -33.5410   24.4104 C   0  0  0  0  0  0  0  0  0  0  0  0
  -29.9798  -13.8065   20.1122 N   0  0  0  0  0  0  0  0  0  0  0  0
  -30.0604  -12.4956   19.8275 N   0  0  0  0  0  0  0  0  0  0  0  0
  -25.1379  -31.4130   22.0869 N   0  0  0  0  0  0  0  0  0  0  0  0
  -33.1800  -13.7073   19.6759 N   0  0  0  0  0  0  0  0  0  0  0  0
  -33.3428  -15.6159   18.2363 N   0  0  0  0  0  0  0  0  0  0  0  0
  -28.7600  -10.5291   19.5982 N   0  0  0  0  0  0  0  0  0  0  0  0
  -25.7075  -13.6764   20.6813 N   0  0  0  0  0  0  0  0  0  0  0  0
  -24.3097  -33.2218   19.1251 N   0  0  0  0  0  0  0  0  0  0  0  0
  -25.3413  -31.7937   25.4443 N   0  0  0  0  0  0  0  0  0  0  0  0
  -30.5554  -19.6846   18.3133 N   0  3  0  0  0  0  0  0  0  0  0  0
  -24.3427  -28.9260   27.4057 N   0  3  0  0  0  0  0  0  0  0  0  0
  -29.9326  -24.4105   19.8222 N   0  3  0  0  0  0  0  0  0  0  0  0
  -25.9986  -11.4546   20.1941 O   0  0  0  0  0  0  0  0  0  0  0  0
  -26.2943  -32.2468   19.8555 O   0  0  0  0  0  0  0  0  0  0  0  0
  -24.1089  -33.1554   23.2452 O   0  0  0  0  0  0  0  0  0  0  0  0
  -26.3652  -29.7205   25.6183 O   0  0  0  0  0  0  0  0  0  0  0  0
  -33.4041  -15.8398   20.5184 O   0  0  0  0  0  0  0  0  0  0  0  0
  -26.7364  -19.0635   21.6593 O   0  0  0  0  0  0  0  0  0  0  0  0
  -27.8282  -26.2943   19.9132 O   0  0  0  0  0  0  0  0  0  1  0  0
  -29.5230  -21.9608   25.4335 F   0  0  0  0  0  0  0  0  0  0  0  0
  -25.5224  -19.8704   24.0083 F   0  0  0  0  0  0  0  0  0  0  0  0
  1  2  1  0  0  0  0
  1  5  2  0  0  0  0
  2  6  2  0  0  0  0
  3  8  2  0  0  0  0
  3 15  1  0  0  0  0
  4  9  1  0  0  0  0
  4 15  2  0  0  0  0
  5 17  1  0  0  0  0
  6 19  1  0  0  0  0
  7 10  2  0  0  0  0
  7 18  1  0  0  0  0
  8 21  1  0  0  0  0
  9 21  2  0  0  0  0
 10 22  1  0  0  0  0
 11 12  2  0  0  0  0
 11 23  1  0  0  0  0
 12 24  1  0  0  0  0
 13 20  1  0  0  0  0
 13 22  2  0  0  0  0
 14 24  2  0  0  0  0
 14 25  1  0  0  0  0
 15 26  1  0  0  0  0
 16 26  1  0  0  0  0
 16 27  2  0  0  0  0
 16 28  1  0  0  0  0
 17 19  2  0  0  0  0
 17 33  1  0  0  0  0
 18 20  2  0  0  0  0
 18 34  1  0  0  0  0
 19 46  1  0  0  0  0
 20 35  1  0  0  0  0
 21 83  1  0  0  0  0
 22 84  1  0  0  0  0
 23 25  2  0  0  0  0
 23 83  1  0  0  0  0
 24 85  1  0  0  0  0
 25 86  1  0  0  0  0
 26 66  2  0  0  0  0
 27 67  1  0  0  0  0
 27 71  1  0  0  0  0
 28 72  1  0  0  0  0
 28 78  2  0  0  0  0
 29 47  1  0  0  0  0
 29 73  1  0  0  0  0
 29 79  2  0  0  0  0
 30 62  1  0  0  0  0
 30 68  1  0  0  0  0
 30 80  2  0  0  0  0
 31 63  1  0  0  0  0
 31 74  1  0  0  0  0
 31 81  2  0  0  0  0
 32 69  1  0  0  0  0
 32 70  1  0  0  0  0
 32 82  2  0  0  0  0
 33 36  1  0  0  0  0
 34 47  1  0  0  0  0
 35 68  1  0  0  0  0
 36 39  1  0  0  0  0
 37 40  1  0  0  0  0
 37 43  1  0  0  0  0
 38 41  1  0  0  0  0
 38 44  1  0  0  0  0
 39 46  1  0  0  0  0
 40 49  1  0  0  0  0
 41 51  1  0  0  0  0
 42 48  1  0  0  0  0
 42 50  1  0  0  0  0
 43 69  1  0  0  0  0
 44 70  1  0  0  0  0
 45 49  1  0  0  0  0
 45 69  1  0  0  0  0
 46 73  1  0  0  0  0
 47 68  1  0  0  0  0
 48 50  1  0  0  0  0
 48 64  1  0  0  0  0
 49 67  1  0  0  0  0
 50 75  1  0  0  0  0
 51 58  1  0  0  0  0
 51 70  1  0  0  0  0
 52 63  1  0  0  0  0
 53 64  1  0  0  0  0
 54 65  1  0  0  0  0
 55 65  1  0  0  0  0
 56 65  1  0  0  0  0
 57 76  1  0  0  0  0
 58 59  1  0  0  0  0
 59 75  1  0  0  0  0
 60 61  1  0  0  0  0
 60 77  1  0  0  0  0
 61 84  1  0  0  0  0
 62 65  1  0  0  0  0
 62 74  1  0  0  0  0
 63 76  1  0  0  0  0
 64 77  1  0  0  0  0
 66 67  1  0  0  0  0
M  CHG  3  75   1  76   1  77   1
M  ISO  4  32 100  61 101  70 100  84 101
M  END
> <Batch ID>
0144

> <Smiles>
CNC(C)C(=O)NC(C(=O)N1Cc2cc([101O:1][101CH2:1]CNC(C)C3CC3NCCC3CCC[100N:0]3[100C:0](=O)N3CCCC(n4nc(-c5ccc(Oc6ccc(F)cc6F)cc5)c(C(N)=O)c4N)C3)ccc2CC1C(=O)NC1CCCc2ccccc21)C(C)(C)C

> <Shape>
0.233

> <Color>
0.081

> <Negative vol penalty>
0.000

$$$$

  -OEChem-04052321263D

 85 93  0     1  0  0  0  0  0999 V2000
  -29.3176  -35.7407   19.9855 C   0  0  0  0  0  0  0  0  0  0  0  0
  -29.3056  -34.6938   19.0694 C   0  0  0  0  0  0  0  0  0  0  0  0
  -22.9299  -10.1441   19.9097 C   0  0  0  0  0  0  0  0  0  0  0  0
  -23.8493   -9.8213   22.1205 C   0  0  0  0  0  0  0  0  0  0  0  0
  -28.8958  -35.5230   21.2965 C   0  0  0  0  0  0  0  0  0  0  0  0
  -28.8729  -33.4283   19.4640 C   0  0  0  0  0  0  0  0  0  0  0  0
  -25.4908  -27.6434   16.9317 C   0  0  0  0  0  0  0  0  0  0  0  0
  -22.1234   -9.0191   20.0808 C   0  0  0  0  0  0  0  0  0  0  0  0
  -23.0427   -8.6962   22.2916 C   0  0  0  0  0  0  0  0  0  0  0  0
  -25.6458  -26.2612   16.8353 C   0  0  0  0  0  0  0  0  0  0  0  0
  -19.8159   -8.0389   23.0505 C   0  0  0  0  0  0  0  0  0  0  0  0
  -19.1432   -7.9043   24.2650 C   0  0  0  0  0  0  0  0  0  0  0  0
  -24.8650  -26.0216   19.1052 C   0  0  0  0  0  0  0  0  0  0  0  0
  -27.7498  -19.4552   20.8553 C   0  0  0  0  0  0  0  0  0  0  0  0
  -29.9300  -19.9563   19.9426 C   0  0  0  0  0  0  0  0  0  0  0  0
  -20.2888   -5.8158   24.6681 C   0  0  0  0  0  0  0  0  0  0  0  0
  -23.7929  -10.5453   20.9295 C   0  0  0  0  0  0  0  0  0  0  0  0
  -24.3090  -13.0390   21.0800 C   0  0  0  0  0  0  0  0  0  0  0  0
  -28.4486  -34.2566   21.7049 C   0  0  0  0  0  0  0  0  0  0  0  0
  -25.0313  -28.2270   18.1211 C   0  0  0  0  0  0  0  0  0  0  0  0
  -28.4461  -33.1932   20.7820 C   0  0  0  0  0  0  0  0  0  0  0  0
  -24.7026  -27.4112   19.2132 C   0  0  0  0  0  0  0  0  0  0  0  0
  -27.2238  -20.5772   20.2150 C   0  0  0  0  0  0  0  0  0  0  0  0
  -29.4040  -21.0783   19.3022 C   0  0  0  0  0  0  0  0  0  0  0  0
  -29.1029  -19.1447   20.7191 C   0  0  0  0  0  0  0  0  0  0  0  0
  -22.1798   -8.2951   21.2718 C   0  0  0  0  0  0  0  0  0  0  0  0
  -25.3356  -25.4503   17.9231 C   0  0  0  0  0  0  0  0  0  0  0  0
  -20.7251   -7.0619   22.6448 C   0  0  0  0  0  0  0  0  0  0  0  0
  -28.0509  -21.3887   19.4384 C   0  0  0  0  0  0  0  0  0  0  0  0
  -19.3796   -6.7928   25.0738 C   0  0  0  0  0  0  0  0  0  0  0  0
  -20.9615   -5.9504   23.4536 C   0  0  0  0  0  0  0  0  0  0  0  0
  -24.6267  -11.7070   20.7531 C   0  0  0  0  0  0  0  0  0  0  0  0
  -25.4245  -13.7559   20.7217 C   0  0  0  0  0  0  0  0  0  0  0  0
  -23.1126  -13.5798   21.6560 C   0  0  0  0  0  0  0  0  0  0  0  0
  -26.2383  -30.2836   20.2229 C   0  0  0  0  0  0  0  0  0  0  0  0
  -23.2669  -30.1095   21.5124 C   0  0  0  0  0  0  0  0  0  0  0  0
  -20.3787  -28.3345   21.9056 C   0  0  0  0  0  0  0  0  0  0  0  0
  -30.9675  -14.3910   20.5927 C   0  0  0  0  0  0  0  0  0  0  0  0
  -28.0471  -34.0581   23.1450 C   0  0  0  0  0  0  0  0  0  0  0  0
  -24.8442  -29.7173   18.2001 C   0  0  0  0  0  0  0  0  0  0  0  0
  -24.1864  -27.9866   20.5058 C   0  0  0  0  0  0  0  0  0  0  0  0
  -27.2495  -32.7787   23.3842 C   0  0  0  0  0  0  0  0  0  0  0  0
  -29.4920  -12.3947   18.0404 C   0  0  0  0  0  0  0  0  0  0  0  0
  -27.9126  -31.5973   22.6831 C   0  0  0  0  0  0  0  0  0  0  0  0
  -28.0713  -12.1428   18.5485 C   0  0  0  0  0  0  0  0  0  0  0  0
  -30.5058  -12.4075   19.1823 C   0  0  0  0  0  0  0  0  0  0  0  0
  -28.7659  -13.0834   20.7916 C   0  0  0  0  0  0  0  0  0  0  0  0
  -27.9603  -31.8123   21.1656 C   0  0  1  0  0  0  0  0  0  0  0  0
  -24.8577  -30.2463   19.6309 C   0  0  1  0  0  0  0  0  0  0  0  0
  -27.7004  -13.1172   19.6826 C   0  0  2  0  0  0  0  0  0  0  0  0
  -25.7733  -20.8941   20.3738 C   0  0  0  0  0  0  0  0  0  0  0  0
  -30.3055  -21.9352   18.4758 C   0  0  0  0  0  0  0  0  0  0  0  0
  -18.1455  -28.4333   23.0460 C   0  0  0  0  0  0  0  0  0  0  0  0
  -24.5971  -29.4238   24.1714 C   0  0  0  0  0  0  0  0  0  0  0  0
  -22.3747  -28.6178   24.9958 C   0  0  0  0  0  0  0  0  0  0  0  0
  -22.6702  -31.0083   24.3469 C   0  0  0  0  0  0  0  0  0  0  0  0
  -18.9281  -28.2379   19.3277 C   0  0  0  0  0  0  0  0  0  0  0  0
  -31.0113  -17.6348   21.2705 C   0  0  0  0  0  0  0  0  0  0  0  0
  -31.2781  -16.3651   22.0643 C   0  0  0  0  0  0  0  0  0  0  0  0
  -26.5100  -23.6192   16.9620 C   0  0  0  0  0  0  0  0  0  1  0  0
  -27.0290  -22.2968   17.4924 C   0  0  0  0  0  0  0  0  0  0  0  0
  -22.5997  -29.2349   22.5463 C   0  0  1  0  0  0  0  0  0  0  0  0
  -18.9216  -28.7397   21.7745 C   0  0  2  0  0  0  0  0  0  0  0  0
  -23.0720  -29.5602   23.9915 C   0  0  0  0  0  0  0  0  0  0  0  0
  -25.8483  -11.5824   20.2275 N   0  0  0  0  0  0  0  0  0  0  0  0
  -26.3079  -12.8453   20.2212 N   0  0  0  0  0  0  0  0  0  0  0  0
  -24.0265  -29.4498   20.5359 N   0  0  0  0  0  0  0  0  0  0  0  0
  -30.0962  -13.3528   20.2238 N   0  0  0  0  0  0  0  0  0  0  0  0
  -25.7259  -15.0700   20.7890 N   0  0  0  0  0  0  0  0  0  0  0  0
  -22.0635  -12.7028   21.9634 N   0  0  0  0  0  0  0  0  0  0  0  0
  -29.6347  -18.0107   21.3673 N   0  0  0  0  0  0  0  0  0  0  0  0
  -26.6646  -31.5494   20.5769 N   0  0  0  0  0  0  0  0  0  0  0  0
  -21.1631  -29.3821   22.3398 N   0  0  0  0  0  0  0  0  0  0  0  0
  -30.4992  -15.2460   21.5828 N   0  0  0  0  0  0  0  0  0  0  0  0
  -18.2804  -28.0091   20.6450 N   0  3  0  0  0  0  0  0  0  0  0  0
  -22.9717  -14.8067   21.8759 O   0  0  0  0  0  0  0  0  0  0  0  0
  -26.8694  -29.2409   20.3504 O   0  0  0  0  0  0  0  0  0  0  0  0
  -23.1136  -31.3323   21.5650 O   0  0  0  0  0  0  0  0  0  0  0  0
  -20.7802  -27.2009   21.6519 O   0  0  0  0  0  0  0  0  0  0  0  0
  -32.0782  -14.5476   20.0741 O   0  0  0  0  0  0  0  0  0  0  0  0
  -21.3927   -7.1974   21.4392 O   0  0  0  0  0  0  0  0  0  0  0  0
  -25.4866  -24.1010   17.8320 O   0  0  0  0  0  0  0  0  0  1  0  0
  -27.5342  -22.4899   18.8080 O   0  0  0  0  0  0  0  0  0  0  0  0
  -18.7347   -6.6644   26.2407 F   0  0  0  0  0  0  0  0  0  0  0  0
  -21.8347   -5.0091   23.0697 F   0  0  0  0  0  0  0  0  0  0  0  0
  1  2  1  0  0  0  0
  1  5  2  0  0  0  0
  2  6  2  0  0  0  0
  3  8  2  0  0  0  0
  3 17  1  0  0  0  0
  4  9  1  0  0  0  0
  4 17  2  0  0  0  0
  5 19  1  0  0  0  0
  6 21  1  0  0  0  0
  7 10  2  0  0  0  0
  7 20  1  0  0  0  0
  8 26  1  0  0  0  0
  9 26  2  0  0  0  0
 10 27  1  0  0  0  0
 11 12  2  0  0  0  0
 11 28  1  0  0  0  0
 12 30  1  0  0  0  0
 13 22  1  0  0  0  0
 13 27  2  0  0  0  0
 14 23  2  0  0  0  0
 14 25  1  0  0  0  0
 15 24  1  0  0  0  0
 15 25  2  0  0  0  0
 16 30  2  0  0  0  0
 16 31  1  0  0  0  0
 17 32  1  0  0  0  0
 18 32  1  0  0  0  0
 18 33  2  0  0  0  0
 18 34  1  0  0  0  0
 19 21  2  0  0  0  0
 19 39  1  0  0  0  0
 20 22  2  0  0  0  0
 20 40  1  0  0  0  0
 21 48  1  0  0  0  0
 22 41  1  0  0  0  0
 23 29  1  0  0  0  0
 23 51  1  0  0  0  0
 24 29  2  0  0  0  0
 24 52  1  0  0  0  0
 25 71  1  0  0  0  0
 26 81  1  0  0  0  0
 27 82  1  0  0  0  0
 28 31  2  0  0  0  0
 28 81  1  0  0  0  0
 29 83  1  0  0  0  0
 30 84  1  0  0  0  0
 31 85  1  0  0  0  0
 32 65  2  0  0  0  0
 33 66  1  0  0  0  0
 33 69  1  0  0  0  0
 34 70  1  0  0  0  0
 34 76  2  0  0  0  0
 35 49  1  0  0  0  0
 35 72  1  0  0  0  0
 35 77  2  0  0  0  0
 36 62  1  0  0  0  0
 36 67  1  0  0  0  0
 36 78  2  0  0  0  0
 37 63  1  0  0  0  0
 37 73  1  0  0  0  0
 37 79  2  0  0  0  0
 38 68  1  0  0  0  0
 38 74  1  0  0  0  0
 38 80  2  0  0  0  0
 39 42  1  0  0  0  0
 40 49  1  0  0  0  0
 41 67  1  0  0  0  0
 42 44  1  0  0  0  0
 43 45  1  0  0  0  0
 43 46  1  0  0  0  0
 44 48  1  0  0  0  0
 45 50  1  0  0  0  0
 46 68  1  0  0  0  0
 47 50  1  0  0  0  0
 47 68  1  0  0  0  0
 48 72  1  0  0  0  0
 49 67  1  0  0  0  0
 50 66  1  0  0  0  0
 53 63  1  0  0  0  0
 54 64  1  0  0  0  0
 55 64  1  0  0  0  0
 56 64  1  0  0  0  0
 57 75  1  0  0  0  0
 58 59  1  0  0  0  0
 58 71  1  0  0  0  0
 59 74  1  0  0  0  0
 60 61  1  0  0  0  0
 60 82  1  0  0  0  0
 61 83  1  0  0  0  0
 62 64  1  0  0  0  0
 62 73  1  0  0  0  0
 63 75  1  0  0  0  0
 65 66  1  0  0  0  0
M  CHG  1  75   1
M  ISO  4  38 100  60 101  74 100  82 101
M  END
> <Batch ID>
0144

> <Smiles>
CNC(C)C(=O)NC(C(=O)N1Cc2cc([101O:1][101CH2:1]COc3c(C)cc(NCC[100NH:0][100C:0](=O)N4CCCC(n5nc(-c6ccc(Oc7ccc(F)cc7F)cc6)c(C(N)=O)c5N)C4)cc3C)ccc2CC1C(=O)NC1CCCc2ccccc21)C(C)(C)C

> <Shape>
0.352

> <Color>
0.199

> <Negative vol penalty>
0.000

$$$$

  -OEChem-04052321263D

 89 98  0     1  0  0  0  0  0999 V2000
  -29.2179  -10.5747   16.2058 C   0  0  0  0  0  0  0  0  0  0  0  0
  -28.4772  -11.6872   15.8197 C   0  0  0  0  0  0  0  0  0  0  0  0
  -23.3323  -30.9141   21.2808 C   0  0  0  0  0  0  0  0  0  0  0  0
  -23.0280  -28.7171   22.2388 C   0  0  0  0  0  0  0  0  0  0  0  0
  -29.6838  -10.4692   17.5157 C   0  0  0  0  0  0  0  0  0  0  0  0
  -28.2010  -12.6944   16.7436 C   0  0  0  0  0  0  0  0  0  0  0  0
  -28.9264  -17.3301   14.8385 C   0  0  0  0  0  0  0  0  0  0  0  0
  -22.1952  -31.3642   21.9517 C   0  0  0  0  0  0  0  0  0  0  0  0
  -21.8909  -29.1672   22.9097 C   0  0  0  0  0  0  0  0  0  0  0  0
  -27.9340  -17.8366   14.0005 C   0  0  0  0  0  0  0  0  0  0  0  0
  -18.7032  -29.6404   24.5904 C   0  0  0  0  0  0  0  0  0  0  0  0
  -17.5716  -28.8252   24.5673 C   0  0  0  0  0  0  0  0  0  0  0  0
  -27.0533  -19.1311   15.8358 C   0  0  0  0  0  0  0  0  0  0  0  0
  -17.5158  -28.9711   22.1563 C   0  0  0  0  0  0  0  0  0  0  0  0
  -23.7487  -29.5906   21.4243 C   0  0  0  0  0  0  0  0  0  0  0  0
  -26.2504  -29.1450   21.1993 C   0  0  0  0  0  0  0  0  0  0  0  0
  -29.4214  -11.4803   18.4536 C   0  0  0  0  0  0  0  0  0  0  0  0
  -28.9833  -17.7126   16.1865 C   0  0  0  0  0  0  0  0  0  0  0  0
  -28.6627  -12.6018   18.0676 C   0  0  0  0  0  0  0  0  0  0  0  0
  -28.0490  -18.6300   16.6882 C   0  0  0  0  0  0  0  0  0  0  0  0
  -21.4745  -30.4907   22.7661 C   0  0  0  0  0  0  0  0  0  0  0  0
  -26.9955  -18.7350   14.4998 C   0  0  0  0  0  0  0  0  0  0  0  0
  -19.2411  -30.1210   23.3965 C   0  0  0  0  0  0  0  0  0  0  0  0
  -16.9779  -28.4905   23.3502 C   0  0  0  0  0  0  0  0  0  0  0  0
  -18.6474  -29.7864   22.1795 C   0  0  0  0  0  0  0  0  0  0  0  0
  -24.9229  -29.1249   20.7311 C   0  0  0  0  0  0  0  0  0  0  0  0
  -26.9837  -28.5962   20.1758 C   0  0  0  0  0  0  0  0  0  0  0  0
  -26.7737  -29.6173   22.4478 C   0  0  0  0  0  0  0  0  0  0  0  0
  -28.7388  -16.1856   18.9636 C   0  0  0  0  0  0  0  0  0  0  0  0
  -29.5351  -19.0842   20.1830 C   0  0  0  0  0  0  0  0  0  0  0  0
  -29.6206  -22.4721   19.7811 C   0  0  0  0  0  0  0  0  0  0  0  0
  -26.2818  -28.3056   14.4454 C   0  0  0  0  0  0  0  0  0  0  0  0
  -29.9056  -11.2995   19.8704 C   0  0  0  0  0  0  0  0  0  0  0  0
  -30.0762  -17.1778   17.0707 C   0  0  0  0  0  0  0  0  0  0  0  0
  -28.0789  -19.0880   18.1227 C   0  0  0  0  0  0  0  0  0  0  0  0
  -29.8888  -12.5880   20.6888 C   0  0  0  0  0  0  0  0  0  0  0  0
  -27.6863  -26.9516   11.2958 C   0  0  0  0  0  0  0  0  0  0  0  0
  -26.6338  -25.5115   16.5431 C   0  0  0  0  0  0  0  0  0  0  0  0
  -28.5658  -13.3234   20.4998 C   0  0  0  0  0  0  0  0  0  0  0  0
  -26.4455  -26.4091   10.5911 C   0  0  0  0  0  0  0  0  0  0  0  0
  -26.3618  -26.1260   17.9158 C   0  0  0  0  0  0  0  0  0  0  0  0
  -25.9037  -19.2859   11.2748 C   0  0  0  0  0  0  0  0  0  0  0  0
  -25.8587  -21.3741   12.5636 C   0  0  0  0  0  0  0  0  0  0  0  0
  -27.3461  -28.1094   12.2280 C   0  0  0  0  0  0  0  0  0  0  0  0
  -25.6933  -26.0648   15.4712 C   0  0  0  0  0  0  0  0  0  0  0  0
  -25.0494  -27.2369   12.5178 C   0  0  0  0  0  0  0  0  0  0  0  0
  -25.4100  -28.1570   16.7595 C   0  0  0  0  0  0  0  0  0  0  0  0
  -28.3635  -13.7270   19.0343 C   0  0  1  0  0  0  0  0  0  0  0  0
  -29.7283  -17.2399   18.5548 C   0  0  1  0  0  0  0  0  0  0  0  0
  -25.3504  -26.0452   11.6025 C   0  0  1  0  0  0  0  0  0  0  0  0
  -25.0199  -20.3377   10.5873 C   0  0  2  0  0  0  0  0  0  0  0  0
  -26.3783  -27.6634   17.8458 C   0  0  1  0  0  0  0  0  0  0  0  0
  -24.5819  -21.2207   11.7507 C   0  0  2  0  0  0  0  0  0  0  0  0
  -26.4544  -19.9658   12.5381 C   0  0  1  0  0  0  0  0  0  1  0  0
  -24.3498  -18.8096    8.7260 C   0  0  0  0  0  0  0  0  0  0  0  0
  -30.2937  -24.5799   20.9650 C   0  0  0  0  0  0  0  0  0  0  0  0
  -23.3552  -26.8035   10.3007 C   0  0  0  0  0  0  0  0  0  0  0  0
  -27.0477  -18.8891   21.9394 C   0  0  0  0  0  0  0  0  0  0  0  0
  -27.2438  -21.3477   22.3696 C   0  0  0  0  0  0  0  0  0  0  0  0
  -29.0687  -19.8076   23.0912 C   0  0  0  0  0  0  0  0  0  0  0  0
  -31.5880  -23.1614   17.6804 C   0  0  0  0  0  0  0  0  0  0  0  0
  -23.8678  -19.7247    9.8069 C   0  0  0  0  0  0  0  0  0  0  0  0
  -23.7106  -23.4771   12.3742 C   0  0  0  0  0  0  0  0  0  0  0  0
  -28.7659  -20.3036   20.6306 C   0  0  1  0  0  0  0  0  0  0  0  0
  -30.7291  -23.4851   20.0033 C   0  0  2  0  0  0  0  0  0  0  0  0
  -24.0840  -25.5841   10.8843 C   0  0  2  0  0  0  0  0  0  0  0  0
  -23.1406  -24.7787   11.8076 C   0  0  1  0  0  0  0  0  0  0  0  0
  -28.0295  -20.0771   21.9811 C   0  0  0  0  0  0  0  0  0  0  0  0
  -24.8162  -28.6048   19.5055 N   0  0  0  0  0  0  0  0  0  0  0  0
  -26.0859  -28.2930   19.1949 N   0  0  0  0  0  0  0  0  0  0  0  0
  -29.1630  -18.5319   18.9491 N   0  0  0  0  0  0  0  0  0  0  0  0
  -26.2703  -27.7544   13.1531 N   0  0  0  0  0  0  0  0  0  0  0  0
  -25.7128  -27.5337   15.4694 N   0  0  0  0  0  0  0  0  0  0  0  0
  -28.3025  -28.3484   20.0282 N   0  0  0  0  0  0  0  0  0  0  0  0
  -25.8812  -30.1514   23.3872 N   0  0  0  0  0  0  0  0  0  0  0  0
  -29.1599  -14.8929   18.7166 N   0  0  0  0  0  0  0  0  0  0  0  0
  -29.7221  -21.4053   20.6488 N   0  0  0  0  0  0  0  0  0  0  0  0
  -24.0860  -22.5437   11.2832 N   0  3  0  0  0  0  0  0  0  0  0  0
  -31.1166  -24.1206   18.7122 N   0  3  0  0  0  0  0  0  0  0  0  0
  -27.9987  -29.5823   22.7156 O   0  0  0  0  0  0  0  0  0  0  0  0
  -27.6730  -16.5202   19.4673 O   0  0  0  0  0  0  0  0  0  0  0  0
  -30.4377  -18.6423   20.8983 O   0  0  0  0  0  0  0  0  0  0  0  0
  -28.7494  -22.6147   18.9259 O   0  0  0  0  0  0  0  0  0  0  0  0
  -26.7739  -29.4186   14.6697 O   0  0  0  0  0  0  0  0  0  0  0  0
  -21.9413  -24.4743   11.0895 O   0  0  0  0  0  0  0  0  0  0  0  0
  -20.3650  -30.9296   23.4211 O   0  0  0  0  0  0  0  0  0  0  0  0
  -26.0191  -19.2335   13.6789 O   0  0  0  0  0  0  0  0  0  1  0  0
  -15.8922  -27.7064   23.3281 F   0  0  0  0  0  0  0  0  0  0  0  0
  -19.1602  -30.2441   21.0291 F   0  0  0  0  0  0  0  0  0  0  0  0
  1  2  1  0  0  0  0
  1  5  2  0  0  0  0
  2  6  2  0  0  0  0
  3  8  2  0  0  0  0
  3 15  1  0  0  0  0
  4  9  1  0  0  0  0
  4 15  2  0  0  0  0
  5 17  1  0  0  0  0
  6 19  1  0  0  0  0
  7 10  2  0  0  0  0
  7 18  1  0  0  0  0
  8 21  1  0  0  0  0
  9 21  2  0  0  0  0
 10 22  1  0  0  0  0
 11 12  2  0  0  0  0
 11 23  1  0  0  0  0
 12 24  1  0  0  0  0
 13 20  1  0  0  0  0
 13 22  2  0  0  0  0
 14 24  2  0  0  0  0
 14 25  1  0  0  0  0
 15 26  1  0  0  0  0
 16 26  1  0  0  0  0
 16 27  2  0  0  0  0
 16 28  1  0  0  0  0
 17 19  2  0  0  0  0
 17 33  1  0  0  0  0
 18 20  2  0  0  0  0
 18 34  1  0  0  0  0
 19 48  1  0  0  0  0
 20 35  1  0  0  0  0
 21 86  1  0  0  0  0
 22 87  1  0  0  0  0
 23 25  2  0  0  0  0
 23 86  1  0  0  0  0
 24 88  1  0  0  0  0
 25 89  1  0  0  0  0
 26 69  2  0  0  0  0
 27 70  1  0  0  0  0
 27 74  1  0  0  0  0
 28 75  1  0  0  0  0
 28 80  2  0  0  0  0
 29 49  1  0  0  0  0
 29 76  1  0  0  0  0
 29 81  2  0  0  0  0
 30 64  1  0  0  0  0
 30 71  1  0  0  0  0
 30 82  2  0  0  0  0
 31 65  1  0  0  0  0
 31 77  1  0  0  0  0
 31 83  2  0  0  0  0
 32 72  1  0  0  0  0
 32 73  1  0  0  0  0
 32 84  2  0  0  0  0
 33 36  1  0  0  0  0
 34 49  1  0  0  0  0
 35 71  1  0  0  0  0
 36 39  1  0  0  0  0
 37 40  1  0  0  0  0
 37 44  1  0  0  0  0
 38 41  1  0  0  0  0
 38 45  1  0  0  0  0
 39 48  1  0  0  0  0
 40 50  1  0  0  0  0
 41 52  1  0  0  0  0
 42 51  1  0  0  0  0
 42 54  1  0  0  0  0
 43 53  1  0  0  0  0
 43 54  1  0  0  0  0
 44 72  1  0  0  0  0
 45 73  1  0  0  0  0
 46 50  1  0  0  0  0
 46 72  1  0  0  0  0
 47 52  1  0  0  0  0
 47 73  1  0  0  0  0
 48 76  1  0  0  0  0
 49 71  1  0  0  0  0
 50 66  1  0  0  0  0
 51 53  1  0  0  0  0
 51 62  1  0  0  0  0
 52 70  1  0  0  0  0
 53 78  1  0  0  0  0
 54 87  1  0  0  0  0
 55 62  1  0  0  0  0
 56 65  1  0  0  0  0
 57 66  1  0  0  0  0
 58 68  1  0  0  0  0
 59 68  1  0  0  0  0
 60 68  1  0  0  0  0
 61 79  1  0  0  0  0
 63 67  1  0  0  0  0
 63 78  1  0  0  0  0
 64 68  1  0  0  0  0
 64 77  1  0  0  0  0
 65 79  1  0  0  0  0
 66 67  1  0  0  0  0
 67 85  1  0  0  0  0
 69 70  1  0  0  0  0
M  CHG  2  78   1  79   1
M  ISO  4  32 100  54 101  72 100  87 101
M  END
> <Batch ID>
0144

> <Smiles>
CCC1C[101CH:1]([101O:1]c2ccc3c(c2)CN(C(=O)C(NC(=O)C(C)NC)C(C)(C)C)C(C(=O)NC2CCCc4ccccc42)C3)CC1NCC(O)C(C)C1CCC[100N:0]([100C:0](=O)N2CCCC(n3nc(-c4ccc(Oc5ccc(F)cc5F)cc4)c(C(N)=O)c3N)C2)C1

> <Shape>
0.224

> <Color>
0.065

> <Negative vol penalty>
0.000

$$$$

  -OEChem-04052321263D

 87 96  0     1  0  0  0  0  0999 V2000
  -17.3595  -26.7493   25.3076 C   0  0  0  0  0  0  0  0  0  0  0  0
  -18.2567  -25.7846   24.8605 C   0  0  0  0  0  0  0  0  0  0  0  0
  -27.5324  -11.4996   20.7558 C   0  0  0  0  0  0  0  0  0  0  0  0
  -27.5211  -12.5008   22.9546 C   0  0  0  0  0  0  0  0  0  0  0  0
  -17.2903  -27.9856   24.6668 C   0  0  0  0  0  0  0  0  0  0  0  0
  -19.0845  -26.0554   23.7716 C   0  0  0  0  0  0  0  0  0  0  0  0
  -23.8679  -24.5892   24.5555 C   0  0  0  0  0  0  0  0  0  0  0  0
  -26.6298  -10.5300   21.1926 C   0  0  0  0  0  0  0  0  0  0  0  0
  -26.6184  -11.5313   23.3914 C   0  0  0  0  0  0  0  0  0  0  0  0
  -24.1474  -23.2299   24.4208 C   0  0  0  0  0  0  0  0  0  0  0  0
  -23.3064  -10.3014   21.7718 C   0  0  0  0  0  0  0  0  0  0  0  0
  -22.2240  -10.0035   20.9440 C   0  0  0  0  0  0  0  0  0  0  0  0
  -24.8693  -16.9439   18.6935 C   0  0  0  0  0  0  0  0  0  0  0  0
  -24.3347  -17.3120   21.0206 C   0  0  0  0  0  0  0  0  0  0  0  0
  -25.0240  -23.6355   22.2103 C   0  0  0  0  0  0  0  0  0  0  0  0
  -24.1050  -19.1147   19.4286 C   0  0  0  0  0  0  0  0  0  0  0  0
  -22.9652   -7.7084   20.8010 C   0  0  0  0  0  0  0  0  0  0  0  0
  -27.9781  -12.4849   21.6368 C   0  0  0  0  0  0  0  0  0  0  0  0
  -30.2048  -13.2738   20.6740 C   0  0  0  0  0  0  0  0  0  0  0  0
  -18.1244  -28.2752   23.5755 C   0  0  0  0  0  0  0  0  0  0  0  0
  -24.1548  -25.4816   23.5126 C   0  0  0  0  0  0  0  0  0  0  0  0
  -19.0254  -27.2963   23.1147 C   0  0  0  0  0  0  0  0  0  0  0  0
  -24.7677  -16.4657   19.9998 C   0  0  0  0  0  0  0  0  0  0  0  0
  -24.7495  -25.0059   22.3352 C   0  0  0  0  0  0  0  0  0  0  0  0
  -24.5380  -18.2685   18.4078 C   0  0  0  0  0  0  0  0  0  0  0  0
  -26.1727  -10.5459   22.5104 C   0  0  0  0  0  0  0  0  0  0  0  0
  -24.7229  -22.7524   23.2469 C   0  0  0  0  0  0  0  0  0  0  0  0
  -24.2182   -9.3029   22.1143 C   0  0  0  0  0  0  0  0  0  0  0  0
  -24.0033  -18.6366   20.7350 C   0  0  0  0  0  0  0  0  0  0  0  0
  -22.0534   -8.7070   20.4586 C   0  0  0  0  0  0  0  0  0  0  0  0
  -24.0475   -8.0064   21.6289 C   0  0  0  0  0  0  0  0  0  0  0  0
  -28.9110  -13.4864   21.1864 C   0  0  0  0  0  0  0  0  0  0  0  0
  -30.6746  -14.5337   20.3940 C   0  0  0  0  0  0  0  0  0  0  0  0
  -30.9183  -12.0471   20.4694 C   0  0  0  0  0  0  0  0  0  0  0  0
  -22.4250  -27.4110   21.6716 C   0  0  0  0  0  0  0  0  0  0  0  0
  -25.3367  -28.3682   20.6094 C   0  0  0  0  0  0  0  0  0  0  0  0
  -28.6427  -27.6437   20.1713 C   0  0  0  0  0  0  0  0  0  0  0  0
  -27.9497  -19.7160   19.1407 C   0  0  0  0  0  0  0  0  0  0  0  0
  -17.9802  -29.6084   22.8853 C   0  0  0  0  0  0  0  0  0  0  0  0
  -23.8718  -26.9489   23.6839 C   0  0  0  0  0  0  0  0  0  0  0  0
  -25.0956  -25.9258   21.1939 C   0  0  0  0  0  0  0  0  0  0  0  0
  -19.1553  -29.9526   21.9738 C   0  0  0  0  0  0  0  0  0  0  0  0
  -30.2406  -19.0884   21.7931 C   0  0  0  0  0  0  0  0  0  0  0  0
  -24.4357  -13.9443   19.5460 C   0  0  0  0  0  0  0  0  0  0  0  0
  -24.1055  -14.1716   20.9881 C   0  0  0  0  0  0  0  0  0  0  0  0
  -19.5199  -28.7578   21.0984 C   0  0  0  0  0  0  0  0  0  0  0  0
  -30.2763  -17.5624   21.8921 C   0  0  0  0  0  0  0  0  0  0  0  0
  -28.8433  -19.5990   21.4482 C   0  0  0  0  0  0  0  0  0  0  0  0
  -28.2793  -17.4700   20.3422 C   0  0  0  0  0  0  0  0  0  0  0  0
  -25.1211  -15.0506   20.3052 C   0  0  0  0  0  0  0  0  0  0  0  0
  -19.9573  -27.5615   21.9522 C   0  0  1  0  0  0  0  0  0  0  0  0
  -23.7326  -27.6895   22.3575 C   0  0  1  0  0  0  0  0  0  0  0  0
  -29.6800  -16.9046   20.6331 C   0  0  2  0  0  0  0  0  0  0  0  0
  -30.7642  -28.6083   19.2405 C   0  0  0  0  0  0  0  0  0  0  0  0
  -24.3564  -27.7866   17.7791 C   0  0  0  0  0  0  0  0  0  0  0  0
  -26.7403  -27.8447   17.0163 C   0  0  0  0  0  0  0  0  0  0  0  0
  -25.6997  -29.8837   18.0075 C   0  0  0  0  0  0  0  0  0  0  0  0
  -29.9825  -27.5424   22.8083 C   0  0  0  0  0  0  0  0  0  0  0  0
  -25.5683  -20.0129   16.8371 C   0  0  0  0  0  0  0  0  0  0  0  0
  -27.0583  -19.6699   16.8251 C   0  0  0  0  0  0  0  0  0  0  0  0
  -24.1503  -20.5146   23.8125 C   0  0  0  0  0  0  0  0  0  1  0  0
  -24.0820  -19.2106   23.0415 C   0  0  0  0  0  0  0  0  0  0  0  0
  -24.6459  -18.7794   17.0107 C   0  0  2  0  0  0  0  0  0  0  0  0
  -26.2697  -27.9294   19.5068 C   0  0  1  0  0  0  0  0  0  0  0  0
  -29.8979  -28.4403   20.4790 C   0  0  2  0  0  0  0  0  0  0  0  0
  -25.7584  -28.3432   18.0980 C   0  0  0  0  0  0  0  0  0  0  0  0
  -28.5799  -14.7797   21.2305 N   0  0  0  0  0  0  0  0  0  0  0  0
  -29.6727  -15.3911   20.7424 N   0  0  0  0  0  0  0  0  0  0  0  0
  -24.7939  -27.3509   21.4070 N   0  0  0  0  0  0  0  0  0  0  0  0
  -28.3360  -18.9370   20.2439 N   0  0  0  0  0  0  0  0  0  0  0  0
  -31.8428  -14.9808   19.8863 N   0  0  0  0  0  0  0  0  0  0  0  0
  -31.7147  -11.5554   21.5126 N   0  0  0  0  0  0  0  0  0  0  0  0
  -21.3138  -27.7450   22.4221 N   0  0  0  0  0  0  0  0  0  0  0  0
  -27.5836  -28.4647   19.8466 N   0  0  0  0  0  0  0  0  0  0  0  0
  -27.4864  -19.0091   18.0378 N   0  0  0  0  0  0  0  0  0  0  0  0
  -23.3061  -19.1564   16.4294 N   0  3  0  0  0  0  0  0  0  0  0  0
  -30.7041  -27.7523   21.5268 N   0  3  0  0  0  0  0  0  0  0  0  0
  -30.8645  -11.4145   19.3875 O   0  0  0  0  0  0  0  0  0  0  0  0
  -22.4243  -26.9303   20.5445 O   0  0  0  0  0  0  0  0  0  0  0  0
  -25.1038  -29.5699   20.7620 O   0  0  0  0  0  0  0  0  0  0  0  0
  -28.6066  -26.4159   20.2111 O   0  0  0  0  0  0  0  0  0  0  0  0
  -28.0180  -20.9498   19.1369 O   0  0  0  0  0  0  0  0  0  0  0  0
  -25.2918   -9.6001   22.9369 O   0  0  0  0  0  0  0  0  0  0  0  0
  -24.9961  -21.4261   23.1126 O   0  0  0  0  0  0  0  0  0  1  0  0
  -23.5770  -19.4681   21.7369 O   0  0  0  0  0  0  0  0  0  0  0  0
  -21.0131   -8.4207   19.6648 F   0  0  0  0  0  0  0  0  0  0  0  0
  -24.9195   -7.0426   21.9553 F   0  0  0  0  0  0  0  0  0  0  0  0
  1  2  1  0  0  0  0
  1  5  2  0  0  0  0
  2  6  2  0  0  0  0
  3  8  2  0  0  0  0
  3 18  1  0  0  0  0
  4  9  1  0  0  0  0
  4 18  2  0  0  0  0
  5 20  1  0  0  0  0
  6 22  1  0  0  0  0
  7 10  2  0  0  0  0
  7 21  1  0  0  0  0
  8 26  1  0  0  0  0
  9 26  2  0  0  0  0
 10 27  1  0  0  0  0
 11 12  2  0  0  0  0
 11 28  1  0  0  0  0
 12 30  1  0  0  0  0
 13 23  2  0  0  0  0
 13 25  1  0  0  0  0
 14 23  1  0  0  0  0
 14 29  2  0  0  0  0
 15 24  1  0  0  0  0
 15 27  2  0  0  0  0
 16 25  2  0  0  0  0
 16 29  1  0  0  0  0
 17 30  2  0  0  0  0
 17 31  1  0  0  0  0
 18 32  1  0  0  0  0
 19 32  1  0  0  0  0
 19 33  2  0  0  0  0
 19 34  1  0  0  0  0
 20 22  2  0  0  0  0
 20 39  1  0  0  0  0
 21 24  2  0  0  0  0
 21 40  1  0  0  0  0
 22 51  1  0  0  0  0
 23 50  1  0  0  0  0
 24 41  1  0  0  0  0
 25 63  1  0  0  0  0
 26 83  1  0  0  0  0
 27 84  1  0  0  0  0
 28 31  2  0  0  0  0
 28 83  1  0  0  0  0
 29 85  1  0  0  0  0
 30 86  1  0  0  0  0
 31 87  1  0  0  0  0
 32 67  2  0  0  0  0
 33 68  1  0  0  0  0
 33 71  1  0  0  0  0
 34 72  1  0  0  0  0
 34 78  2  0  0  0  0
 35 52  1  0  0  0  0
 35 73  1  0  0  0  0
 35 79  2  0  0  0  0
 36 64  1  0  0  0  0
 36 69  1  0  0  0  0
 36 80  2  0  0  0  0
 37 65  1  0  0  0  0
 37 74  1  0  0  0  0
 37 81  2  0  0  0  0
 38 70  1  0  0  0  0
 38 75  1  0  0  0  0
 38 82  2  0  0  0  0
 39 42  1  0  0  0  0
 40 52  1  0  0  0  0
 41 69  1  0  0  0  0
 42 46  1  0  0  0  0
 43 47  1  0  0  0  0
 43 48  1  0  0  0  0
 44 45  1  0  0  0  0
 44 50  1  0  0  0  0
 45 50  1  0  0  0  0
 46 51  1  0  0  0  0
 47 53  1  0  0  0  0
 48 70  1  0  0  0  0
 49 53  1  0  0  0  0
 49 70  1  0  0  0  0
 51 73  1  0  0  0  0
 52 69  1  0  0  0  0
 53 68  1  0  0  0  0
 54 65  1  0  0  0  0
 55 66  1  0  0  0  0
 56 66  1  0  0  0  0
 57 66  1  0  0  0  0
 58 77  1  0  0  0  0
 59 60  1  0  0  0  0
 59 63  1  0  0  0  0
 60 75  1  0  0  0  0
 61 62  1  0  0  0  0
 61 84  1  0  0  0  0
 62 85  1  0  0  0  0
 63 76  1  0  0  0  0
 64 66  1  0  0  0  0
 64 74  1  0  0  0  0
 65 77  1  0  0  0  0
 67 68  1  0  0  0  0
M  CHG  2  76   1  77   1
M  ISO  4  38 100  61 101  75 100  84 101
M  END
> <Batch ID>
0144

> <Smiles>
CNC(C)C(=O)NC(C(=O)N1Cc2cc([101O:1][101CH2:1]COc3cc(C(N)CC[100NH:0][100C:0](=O)N4CCCC(n5nc(-c6ccc(Oc7ccc(F)cc7F)cc6)c(C(N)=O)c5N)C4)cc(C4CC4)c3)ccc2CC1C(=O)NC1CCCc2ccccc21)C(C)(C)C

> <Shape>
0.249

> <Color>
0.060

> <Negative vol penalty>
0.000

$$$$

  -OEChem-04052321263D

 90 99  0     1  0  0  0  0  0999 V2000
  -27.3599  -37.3982   25.3699 C   0  0  0  0  0  0  0  0  0  0  0  0
  -28.0192  -36.6246   24.4200 C   0  0  0  0  0  0  0  0  0  0  0  0
  -24.2355  -10.8263   18.6774 C   0  0  0  0  0  0  0  0  0  0  0  0
  -23.5751  -12.9307   17.6910 C   0  0  0  0  0  0  0  0  0  0  0  0
  -26.4524  -36.8022   26.2446 C   0  0  0  0  0  0  0  0  0  0  0  0
  -27.7721  -35.2543   24.3449 C   0  0  0  0  0  0  0  0  0  0  0  0
  -27.4194  -29.8966   19.6028 C   0  0  0  0  0  0  0  0  0  0  0  0
  -23.5455  -10.1411   17.6774 C   0  0  0  0  0  0  0  0  0  0  0  0
  -22.8852  -12.2454   16.6910 C   0  0  0  0  0  0  0  0  0  0  0  0
  -27.9280  -28.6172   19.3835 C   0  0  0  0  0  0  0  0  0  0  0  0
  -20.3426   -9.3201   16.9762 C   0  0  0  0  0  0  0  0  0  0  0  0
  -19.5396   -8.2470   17.3626 C   0  0  0  0  0  0  0  0  0  0  0  0
  -26.2804  -27.7099   20.8940 C   0  0  0  0  0  0  0  0  0  0  0  0
  -30.6183  -24.2911   19.1551 C   0  0  0  0  0  0  0  0  0  0  0  0
  -28.4060  -23.7818   18.3286 C   0  0  0  0  0  0  0  0  0  0  0  0
  -20.8525   -6.7657   15.9771 C   0  0  0  0  0  0  0  0  0  0  0  0
  -24.2502  -12.2211   18.6843 C   0  0  0  0  0  0  0  0  0  0  0  0
  -24.7338  -12.8648   21.1049 C   0  0  0  0  0  0  0  0  0  0  0  0
  -26.1868  -35.4255   26.1738 C   0  0  0  0  0  0  0  0  0  0  0  0
  -26.3427  -30.0940   20.4793 C   0  0  0  0  0  0  0  0  0  0  0  0
  -26.8612  -34.6391   25.2203 C   0  0  0  0  0  0  0  0  0  0  0  0
  -25.7584  -28.9926   21.1208 C   0  0  0  0  0  0  0  0  0  0  0  0
  -29.3360  -24.7088   18.7988 C   0  0  0  0  0  0  0  0  0  0  0  0
  -30.9705  -22.9462   19.0411 C   0  0  0  0  0  0  0  0  0  0  0  0
  -28.7582  -22.4369   18.2145 C   0  0  0  0  0  0  0  0  0  0  0  0
  -30.0404  -22.0191   18.5708 C   0  0  0  0  0  0  0  0  0  0  0  0
  -22.8704  -10.8506   16.6842 C   0  0  0  0  0  0  0  0  0  0  0  0
  -27.3604  -27.5239   20.0314 C   0  0  0  0  0  0  0  0  0  0  0  0
  -21.4005   -9.1160   16.0902 C   0  0  0  0  0  0  0  0  0  0  0  0
  -19.7946   -6.9698   16.8631 C   0  0  0  0  0  0  0  0  0  0  0  0
  -21.6554   -7.8389   15.5907 C   0  0  0  0  0  0  0  0  0  0  0  0
  -24.9623  -12.9296   19.7173 C   0  0  0  0  0  0  0  0  0  0  0  0
  -25.6662  -13.7156   21.6465 C   0  0  0  0  0  0  0  0  0  0  0  0
  -23.7654  -12.1036   21.8387 C   0  0  0  0  0  0  0  0  0  0  0  0
  -25.9235  -31.6961   23.1924 C   0  0  0  0  0  0  0  0  0  0  0  0
  -22.8310  -30.8055   22.7856 C   0  0  0  0  0  0  0  0  0  0  0  0
  -30.9470  -15.5117   19.6062 C   0  0  0  0  0  0  0  0  0  0  0  0
  -20.6032  -28.6183   21.4072 C   0  0  0  0  0  0  0  0  0  0  0  0
  -25.2330  -34.8180   27.1717 C   0  0  0  0  0  0  0  0  0  0  0  0
  -25.7886  -31.4772   20.6845 C   0  0  0  0  0  0  0  0  0  0  0  0
  -24.5879  -29.1485   22.0557 C   0  0  0  0  0  0  0  0  0  0  0  0
  -24.7476  -33.4247   26.7801 C   0  0  0  0  0  0  0  0  0  0  0  0
  -28.1905  -17.6456   20.6432 C   0  0  0  0  0  0  0  0  0  0  0  0
  -28.8309  -19.1245   20.9598 C   0  0  0  0  0  0  0  0  0  0  0  0
  -25.9194  -32.5584   26.3291 C   0  0  0  0  0  0  0  0  0  0  0  0
  -27.0191  -16.6646   20.6201 C   0  0  0  0  0  0  0  0  0  0  0  0
  -29.7795  -20.3070   20.9001 C   0  0  0  0  0  0  0  0  0  0  0  0
  -29.1926  -17.3496   19.5303 C   0  0  0  0  0  0  0  0  0  0  0  0
  -28.5360  -14.9636   19.5162 C   0  0  0  0  0  0  0  0  0  0  0  0
  -29.7551  -17.9461   20.7490 C   0  0  0  0  0  0  0  0  0  0  0  0
  -26.6014  -33.1538   25.0915 C   0  0  1  0  0  0  0  0  0  0  0  0
  -25.0200  -31.6248   21.9940 C   0  0  1  0  0  0  0  0  0  0  0  0
  -27.5177  -15.2091   20.6421 C   0  0  2  0  0  0  0  0  0  0  0  0
  -30.7734  -19.9570   19.7928 C   0  0  2  0  0  0  0  0  0  0  0  0
  -32.3498  -22.5245   19.4303 C   0  0  0  0  0  0  0  0  0  0  0  0
  -27.7438  -21.4640   17.7083 C   0  0  0  0  0  0  0  0  0  0  0  0
  -31.5657  -20.3558   17.4478 C   0  0  0  0  0  0  0  0  0  0  0  0
  -18.1457  -28.1259   21.2832 C   0  0  0  0  0  0  0  0  0  0  0  0
  -31.6147  -16.5390   17.4534 C   0  0  0  0  0  0  0  0  0  0  0  0
  -33.3350  -15.7088   19.0698 C   0  0  0  0  0  0  0  0  0  0  0  0
  -22.9213  -29.6555   25.6104 C   0  0  0  0  0  0  0  0  0  0  0  0
  -20.8345  -28.3773   25.0817 C   0  0  0  0  0  0  0  0  0  0  0  0
  -20.8100  -30.8714   25.0461 C   0  0  0  0  0  0  0  0  0  0  0  0
  -20.5605  -28.9820   18.4704 C   0  0  0  0  0  0  0  0  0  0  0  0
  -28.9574  -26.1556   18.9209 C   0  0  0  0  0  0  0  0  0  1  0  0
  -32.0211  -17.7488   19.6686 C   0  0  0  0  0  0  0  0  0  0  0  0
  -30.4182  -20.5772   18.4490 C   0  0  2  0  0  0  0  0  0  0  0  0
  -21.9974  -29.6170   23.1998 C   0  0  1  0  0  0  0  0  0  0  0  0
  -19.3175  -28.8444   20.6325 C   0  0  2  0  0  0  0  0  0  0  0  0
  -31.9685  -16.3974   18.9384 C   0  0  0  0  0  0  0  0  0  0  0  0
  -21.6641  -29.6273   24.7184 C   0  0  0  0  0  0  0  0  0  0  0  0
  -25.9613  -13.7563   19.3973 N   0  0  0  0  0  0  0  0  0  0  0  0
  -26.3689  -14.2189   20.5914 N   0  0  0  0  0  0  0  0  0  0  0  0
  -24.0859  -30.5217   22.2285 N   0  0  0  0  0  0  0  0  0  0  0  0
  -29.6220  -15.9466   19.5689 N   0  0  0  0  0  0  0  0  0  0  0  0
  -25.9453  -14.0748   22.9175 N   0  0  0  0  0  0  0  0  0  0  0  0
  -22.5141  -12.6816   22.0924 N   0  0  0  0  0  0  0  0  0  0  0  0
  -25.8232  -32.8769   23.9031 N   0  0  0  0  0  0  0  0  0  0  0  0
  -20.8255  -29.6177   22.3308 N   0  0  0  0  0  0  0  0  0  0  0  0
  -30.6928  -18.4367   19.6699 N   0  3  1  0  0  0  0  0  0  0  0  0
  -19.4592  -28.3434   19.2361 N   0  3  0  0  0  0  0  0  0  0  0  0
  -24.0085  -10.9514   22.2711 O   0  0  0  0  0  0  0  0  0  0  0  0
  -26.6562  -30.7493   23.4539 O   0  0  0  0  0  0  0  0  0  0  0  0
  -22.3821  -31.9436   22.9437 O   0  0  0  0  0  0  0  0  0  0  0  0
  -31.3180  -14.4665   20.1467 O   0  0  0  0  0  0  0  0  0  0  0  0
  -21.3352  -27.6498   21.2150 O   0  0  0  0  0  0  0  0  0  0  0  0
  -22.1972  -10.1823   15.7081 O   0  0  0  0  0  0  0  0  0  0  0  0
  -27.8553  -26.2741   19.8196 O   0  0  0  0  0  0  0  0  0  1  0  0
  -19.0243   -5.9392   17.2355 F   0  0  0  0  0  0  0  0  0  0  0  0
  -22.6710   -7.6364   14.7402 F   0  0  0  0  0  0  0  0  0  0  0  0
  1  2  1  0  0  0  0
  1  5  2  0  0  0  0
  2  6  2  0  0  0  0
  3  8  2  0  0  0  0
  3 17  1  0  0  0  0
  4  9  1  0  0  0  0
  4 17  2  0  0  0  0
  5 19  1  0  0  0  0
  6 21  1  0  0  0  0
  7 10  2  0  0  0  0
  7 20  1  0  0  0  0
  8 27  1  0  0  0  0
  9 27  2  0  0  0  0
 10 28  1  0  0  0  0
 11 12  2  0  0  0  0
 11 29  1  0  0  0  0
 12 30  1  0  0  0  0
 13 22  1  0  0  0  0
 13 28  2  0  0  0  0
 14 23  1  0  0  0  0
 14 24  2  0  0  0  0
 15 23  2  0  0  0  0
 15 25  1  0  0  0  0
 16 30  2  0  0  0  0
 16 31  1  0  0  0  0
 17 32  1  0  0  0  0
 18 32  1  0  0  0  0
 18 33  2  0  0  0  0
 18 34  1  0  0  0  0
 19 21  2  0  0  0  0
 19 39  1  0  0  0  0
 20 22  2  0  0  0  0
 20 40  1  0  0  0  0
 21 51  1  0  0  0  0
 22 41  1  0  0  0  0
 23 65  1  0  0  0  0
 24 26  1  0  0  0  0
 24 55  1  0  0  0  0
 25 26  2  0  0  0  0
 25 56  1  0  0  0  0
 26 67  1  0  0  0  0
 27 87  1  0  0  0  0
 28 88  1  0  0  0  0
 29 31  2  0  0  0  0
 29 87  1  0  0  0  0
 30 89  1  0  0  0  0
 31 90  1  0  0  0  0
 32 72  2  0  0  0  0
 33 73  1  0  0  0  0
 33 76  1  0  0  0  0
 34 77  1  0  0  0  0
 34 82  2  0  0  0  0
 35 52  1  0  0  0  0
 35 78  1  0  0  0  0
 35 83  2  0  0  0  0
 36 68  1  0  0  0  0
 36 74  1  0  0  0  0
 36 84  2  0  0  0  0
 37 70  1  0  0  0  0
 37 75  1  0  0  0  0
 37 85  2  0  0  0  0
 38 69  1  0  0  0  0
 38 79  1  0  0  0  0
 38 86  2  0  0  0  0
 39 42  1  0  0  0  0
 40 52  1  0  0  0  0
 41 74  1  0  0  0  0
 42 45  1  0  0  0  0
 43 46  1  0  0  0  0
 43 48  1  0  0  0  0
 44 47  1  0  0  0  0
 44 50  1  0  0  0  0
 45 51  1  0  0  0  0
 46 53  1  0  0  0  0
 47 54  1  0  0  0  0
 48 75  1  0  0  0  0
 49 53  1  0  0  0  0
 49 75  1  0  0  0  0
 50 80  1  0  0  0  0
 51 78  1  0  0  0  0
 52 74  1  0  0  0  0
 53 73  1  0  0  0  0
 54 67  1  0  0  0  0
 54 80  1  0  0  0  0
 57 67  1  0  0  0  0
 58 69  1  0  0  0  0
 59 70  1  0  0  0  0
 60 70  1  0  0  0  0
 61 71  1  0  0  0  0
 62 71  1  0  0  0  0
 63 71  1  0  0  0  0
 64 81  1  0  0  0  0
 65 88  1  0  0  0  0
 66 70  1  0  0  0  0
 66 80  1  0  0  0  0
 68 71  1  0  0  0  0
 68 79  1  0  0  0  0
 69 81  1  0  0  0  0
 72 73  1  0  0  0  0
M  CHG  2  80   1  81   1
M  ISO  4  37 100  65 101  70 100  88 101
M  END
> <Batch ID>
0144

> <Smiles>
CNC(C)C(=O)NC(C(=O)N1Cc2cc([101O:1][101CH2:1]c3cc(C)c(C(C)C4CCCN4C[100C:0](C)(C)[100C:0](=O)N4CCCC(n5nc(-c6ccc(Oc7ccc(F)cc7F)cc6)c(C(N)=O)c5N)C4)c(C)c3)ccc2CC1C(=O)NC1CCCc2ccccc21)C(C)(C)C

> <Shape>
0.276

> <Color>
0.088

> <Negative vol penalty>
0.000

$$$$

  -OEChem-04052321263D

 92101  0     1  0  0  0  0  0999 V2000
  -18.0268  -31.2674   20.2477 C   0  0  0  0  0  0  0  0  0  0  0  0
  -19.3320  -30.7869   20.2189 C   0  0  0  0  0  0  0  0  0  0  0  0
  -26.4221  -12.6309   21.7162 C   0  0  0  0  0  0  0  0  0  0  0  0
  -25.8018  -13.8229   19.7083 C   0  0  0  0  0  0  0  0  0  0  0  0
  -17.1772  -30.9117   21.2944 C   0  0  0  0  0  0  0  0  0  0  0  0
  -19.7888  -29.9512   21.2375 C   0  0  0  0  0  0  0  0  0  0  0  0
  -22.3915  -25.9816   19.4730 C   0  0  0  0  0  0  0  0  0  0  0  0
  -29.0740  -28.0532   16.5926 C   0  0  0  0  0  0  0  0  0  0  0  0
  -25.1900  -11.9772   21.7089 C   0  0  0  0  0  0  0  0  0  0  0  0
  -24.5696  -13.1691   19.7009 C   0  0  0  0  0  0  0  0  0  0  0  0
  -23.7092  -26.2087   19.0783 C   0  0  0  0  0  0  0  0  0  0  0  0
  -29.0624  -29.3060   15.9795 C   0  0  0  0  0  0  0  0  0  0  0  0
  -23.7536   -9.3879   20.0764 C   0  0  0  0  0  0  0  0  0  0  0  0
  -23.7478   -8.0129   20.3110 C   0  0  0  0  0  0  0  0  0  0  0  0
  -24.4864  -25.3143   21.1795 C   0  0  0  0  0  0  0  0  0  0  0  0
  -28.4509  -30.3288   18.0812 C   0  0  0  0  0  0  0  0  0  0  0  0
  -22.3454   -8.3495   22.2493 C   0  0  0  0  0  0  0  0  0  0  0  0
  -26.7280  -13.5538   20.7160 C   0  0  0  0  0  0  0  0  0  0  0  0
  -29.1916  -13.8065   20.1038 C   0  0  0  0  0  0  0  0  0  0  0  0
  -17.6207  -30.0635   22.3212 C   0  0  0  0  0  0  0  0  0  0  0  0
  -22.1104  -25.4282   20.7305 C   0  0  0  0  0  0  0  0  0  0  0  0
  -18.9447  -29.5849   22.2996 C   0  0  0  0  0  0  0  0  0  0  0  0
  -23.1643  -25.0787   21.5868 C   0  0  0  0  0  0  0  0  0  0  0  0
  -28.7740  -27.9381   17.9500 C   0  0  0  0  0  0  0  0  0  0  0  0
  -28.4624  -29.0759   18.6943 C   0  0  0  0  0  0  0  0  0  0  0  0
  -24.2637  -12.2463   20.7012 C   0  0  0  0  0  0  0  0  0  0  0  0
  -24.7568  -25.8777   19.9328 C   0  0  0  0  0  0  0  0  0  0  0  0
  -28.7508  -30.4438   16.7238 C   0  0  0  0  0  0  0  0  0  0  0  0
  -23.0553  -10.2437   20.9283 C   0  0  0  0  0  0  0  0  0  0  0  0
  -23.0437   -7.4937   21.3974 C   0  0  0  0  0  0  0  0  0  0  0  0
  -22.3512   -9.7245   22.0147 C   0  0  0  0  0  0  0  0  0  0  0  0
  -28.0004  -14.2298   20.7233 C   0  0  0  0  0  0  0  0  0  0  0  0
  -30.1030  -14.7890   20.4045 C   0  0  0  0  0  0  0  0  0  0  0  0
  -29.4509  -12.6303   19.3260 C   0  0  0  0  0  0  0  0  0  0  0  0
  -20.5460  -26.4138   23.3160 C   0  0  0  0  0  0  0  0  0  0  0  0
  -21.1119  -23.3866   24.3350 C   0  0  0  0  0  0  0  0  0  0  0  0
  -23.0285  -20.5706   24.1276 C   0  0  0  0  0  0  0  0  0  0  0  0
  -29.5398  -20.5860   21.7935 C   0  0  0  0  0  0  0  0  0  0  0  0
  -16.6805  -29.7448   23.4566 C   0  0  0  0  0  0  0  0  0  0  0  0
  -20.6846  -25.1647   21.1304 C   0  0  0  0  0  0  0  0  0  0  0  0
  -22.9166  -24.4634   22.9390 C   0  0  0  0  0  0  0  0  0  0  0  0
  -17.1259  -28.5531   24.3001 C   0  0  0  0  0  0  0  0  0  0  0  0
  -31.1170  -18.0603   23.7454 C   0  0  0  0  0  0  0  0  0  0  0  0
  -31.2761  -25.9924   20.7028 C   0  0  0  0  0  0  0  0  0  0  0  0
  -18.6083  -28.6653   24.6420 C   0  0  0  0  0  0  0  0  0  0  0  0
  -30.6046  -16.7540   23.1363 C   0  0  0  0  0  0  0  0  0  0  0  0
  -31.2072  -26.7450   19.3874 C   0  0  0  0  0  0  0  0  0  0  0  0
  -30.0409  -19.1438   23.7442 C   0  0  0  0  0  0  0  0  0  0  0  0
  -28.9112  -18.0959   21.8208 C   0  0  0  0  0  0  0  0  0  0  0  0
  -31.2027  -24.5472   20.2631 C   0  0  0  0  0  0  0  0  0  0  0  0
  -19.4693  -28.6562   23.3731 C   0  0  1  0  0  0  0  0  0  0  0  0
  -20.4952  -25.0722   22.6414 C   0  0  1  0  0  0  0  0  0  0  0  0
  -29.9781  -16.9900   21.7489 C   0  0  2  0  0  0  0  0  0  0  0  0
  -30.1941  -25.9703   18.5449 C   0  0  2  0  0  0  0  0  0  0  0  0
  -28.1369  -28.9770   20.1484 C   0  0  0  0  0  0  0  0  0  0  0  0
  -23.2693  -18.2747   25.1117 C   0  0  0  0  0  0  0  0  0  0  0  0
  -30.3666  -20.9783   17.8540 C   0  0  0  0  0  0  0  0  0  0  0  0
  -22.3387  -24.5971   26.8529 C   0  0  0  0  0  0  0  0  0  0  0  0
  -23.3875  -22.3737   27.3266 C   0  0  0  0  0  0  0  0  0  0  0  0
  -20.9034  -22.5887   27.2536 C   0  0  0  0  0  0  0  0  0  0  0  0
  -22.5856  -19.2735   21.5046 C   0  0  0  0  0  0  0  0  0  0  0  0
  -29.0547  -31.7118   14.7350 C   0  0  0  0  0  0  0  0  0  0  0  0
  -27.7767  -25.5880   17.9699 C   0  0  0  0  0  0  0  0  0  0  0  0
  -28.9848  -21.8975   19.7610 C   0  0  0  0  0  0  0  0  0  0  0  0
  -30.2933  -23.4590   18.1825 C   0  0  0  0  0  0  0  0  0  0  0  0
  -26.3275  -26.0289   18.1535 C   0  0  0  0  0  0  0  0  0  1  0  0
  -28.7931  -26.5630   18.5950 C   0  0  2  0  0  0  0  0  0  0  0  0
  -22.2215  -22.7058   25.0993 C   0  0  1  0  0  0  0  0  0  0  0  0
  -22.6548  -19.1052   23.9957 C   0  0  2  0  0  0  0  0  0  0  0  0
  -30.2356  -22.0997   18.8904 C   0  0  2  0  0  0  0  0  0  0  0  0
  -22.2177  -23.0797   26.6085 C   0  0  0  0  0  0  0  0  0  0  0  0
  -28.1394  -15.3908   21.3690 N   0  0  0  0  0  0  0  0  0  0  0  0
  -29.4287  -15.7053   21.1568 N   0  0  0  0  0  0  0  0  0  0  0  0
  -21.5051  -24.2311   23.2871 N   0  0  0  0  0  0  0  0  0  0  0  0
  -29.4887  -19.3195   22.3988 N   0  0  0  0  0  0  0  0  0  0  0  0
  -31.4073  -14.9500   20.0962 N   0  0  0  0  0  0  0  0  0  0  0  0
  -28.4022  -11.7251   19.1135 N   0  0  0  0  0  0  0  0  0  0  0  0
  -19.5980  -27.3094   22.8592 N   0  0  0  0  0  0  0  0  0  0  0  0
  -22.0809  -21.2775   24.8372 N   0  0  0  0  0  0  0  0  0  0  0  0
  -29.0002  -20.6641   20.5154 N   0  0  0  0  0  0  0  0  0  0  0  0
  -30.1613  -24.5763   19.1682 N   0  3  1  0  0  0  0  0  0  0  0  0
  -23.1307  -18.5647   22.6910 N   0  3  0  0  0  0  0  0  0  0  0  0
  -30.5835  -12.3810   18.8478 O   0  0  0  0  0  0  0  0  0  0  0  0
  -21.3823  -26.6206   24.1874 O   0  0  0  0  0  0  0  0  0  0  0  0
  -19.9392  -23.1715   24.6513 O   0  0  0  0  0  0  0  0  0  0  0  0
  -24.0599  -21.0404   23.6522 O   0  0  0  0  0  0  0  0  0  0  0  0
  -30.0349  -21.5728   22.3486 O   0  0  0  0  0  0  0  0  0  0  0  0
  -23.0614  -11.6084   20.6936 O   0  0  0  0  0  0  0  0  0  0  0  0
  -28.7390  -31.6663   16.1257 O   0  0  0  0  0  0  0  0  0  0  0  0
  -26.0439  -26.0990   19.5503 O   0  0  0  0  0  0  0  0  0  1  0  0
  -23.0370   -6.1732   21.6216 F   0  0  0  0  0  0  0  0  0  0  0  0
  -21.6775  -10.5416   22.8359 F   0  0  0  0  0  0  0  0  0  0  0  0
  1  2  1  0  0  0  0
  1  5  2  0  0  0  0
  2  6  2  0  0  0  0
  3  9  2  0  0  0  0
  3 18  1  0  0  0  0
  4 10  1  0  0  0  0
  4 18  2  0  0  0  0
  5 20  1  0  0  0  0
  6 22  1  0  0  0  0
  7 11  2  0  0  0  0
  7 21  1  0  0  0  0
  8 12  2  0  0  0  0
  8 24  1  0  0  0  0
  9 26  1  0  0  0  0
 10 26  2  0  0  0  0
 11 27  1  0  0  0  0
 12 28  1  0  0  0  0
 13 14  2  0  0  0  0
 13 29  1  0  0  0  0
 14 30  1  0  0  0  0
 15 23  1  0  0  0  0
 15 27  2  0  0  0  0
 16 25  1  0  0  0  0
 16 28  2  0  0  0  0
 17 30  2  0  0  0  0
 17 31  1  0  0  0  0
 18 32  1  0  0  0  0
 19 32  1  0  0  0  0
 19 33  2  0  0  0  0
 19 34  1  0  0  0  0
 20 22  2  0  0  0  0
 20 39  1  0  0  0  0
 21 23  2  0  0  0  0
 21 40  1  0  0  0  0
 22 51  1  0  0  0  0
 23 41  1  0  0  0  0
 24 25  2  0  0  0  0
 24 67  1  0  0  0  0
 25 55  1  0  0  0  0
 26 88  1  0  0  0  0
 27 90  1  0  0  0  0
 28 89  1  0  0  0  0
 29 31  2  0  0  0  0
 29 88  1  0  0  0  0
 30 91  1  0  0  0  0
 31 92  1  0  0  0  0
 32 72  2  0  0  0  0
 33 73  1  0  0  0  0
 33 76  1  0  0  0  0
 34 77  1  0  0  0  0
 34 83  2  0  0  0  0
 35 52  1  0  0  0  0
 35 78  1  0  0  0  0
 35 84  2  0  0  0  0
 36 68  1  0  0  0  0
 36 74  1  0  0  0  0
 36 85  2  0  0  0  0
 37 69  1  0  0  0  0
 37 79  1  0  0  0  0
 37 86  2  0  0  0  0
 38 75  1  0  0  0  0
 38 80  1  0  0  0  0
 38 87  2  0  0  0  0
 39 42  1  0  0  0  0
 40 52  1  0  0  0  0
 41 74  1  0  0  0  0
 42 45  1  0  0  0  0
 43 46  1  0  0  0  0
 43 48  1  0  0  0  0
 44 47  1  0  0  0  0
 44 50  1  0  0  0  0
 45 51  1  0  0  0  0
 46 53  1  0  0  0  0
 47 54  1  0  0  0  0
 48 75  1  0  0  0  0
 49 53  1  0  0  0  0
 49 75  1  0  0  0  0
 50 81  1  0  0  0  0
 51 78  1  0  0  0  0
 52 74  1  0  0  0  0
 53 73  1  0  0  0  0
 54 67  1  0  0  0  0
 54 81  1  0  0  0  0
 56 69  1  0  0  0  0
 57 70  1  0  0  0  0
 58 71  1  0  0  0  0
 59 71  1  0  0  0  0
 60 71  1  0  0  0  0
 61 82  1  0  0  0  0
 62 89  1  0  0  0  0
 63 66  1  0  0  0  0
 63 67  1  0  0  0  0
 64 70  1  0  0  0  0
 64 80  1  0  0  0  0
 65 70  1  0  0  0  0
 65 81  1  0  0  0  0
 66 90  1  0  0  0  0
 68 71  1  0  0  0  0
 68 79  1  0  0  0  0
 69 82  1  0  0  0  0
 72 73  1  0  0  0  0
M  CHG  2  81   1  82   1
M  ISO  4  38 100  66 101  80 100  90 101
M  END
> <Batch ID>
0144

> <Smiles>
CNC(C)C(=O)NC(C(=O)N1Cc2cc([101O:1][101CH2:1]CC(c3ccc(OC)cc3C)C3CCCN3CC(C)C[100NH:0][100C:0](=O)N3CCCC(n4nc(-c5ccc(Oc6ccc(F)cc6F)cc5)c(C(N)=O)c4N)C3)ccc2CC1C(=O)NC1CCCc2ccccc21)C(C)(C)C

> <Shape>
0.251

> <Color>
0.063

> <Negative vol penalty>
0.000

$$$$

  -OEChem-04052321263D

 87 97  0     1  0  0  0  0  0999 V2000
  -27.0909  -37.7051   24.0723 C   0  0  0  0  0  0  0  0  0  0  0  0
  -27.7838  -36.7019   23.4023 C   0  0  0  0  0  0  0  0  0  0  0  0
  -23.6569  -10.4767   22.4448 C   0  0  0  0  0  0  0  0  0  0  0  0
  -24.4684   -8.6181   21.1317 C   0  0  0  0  0  0  0  0  0  0  0  0
  -25.9717  -37.3848   24.8395 C   0  0  0  0  0  0  0  0  0  0  0  0
  -27.3585  -35.3775   23.5001 C   0  0  0  0  0  0  0  0  0  0  0  0
  -28.2584  -21.6632   19.1656 C   0  0  0  0  0  0  0  0  0  0  0  0
  -27.0498  -29.3175   19.6926 C   0  0  0  0  0  0  0  0  0  0  0  0
  -28.0818  -23.0383   19.0125 C   0  0  0  0  0  0  0  0  0  0  0  0
  -22.5183   -9.7436   22.7788 C   0  0  0  0  0  0  0  0  0  0  0  0
  -23.3298   -7.8849   21.4658 C   0  0  0  0  0  0  0  0  0  0  0  0
  -27.3988  -27.9706   19.7816 C   0  0  0  0  0  0  0  0  0  0  0  0
  -22.2016   -6.1052   24.1078 C   0  0  0  0  0  0  0  0  0  0  0  0
  -22.3781   -4.7759   24.4917 C   0  0  0  0  0  0  0  0  0  0  0  0
  -25.4052  -27.5456   21.0717 C   0  0  0  0  0  0  0  0  0  0  0  0
  -28.7247  -23.3773   21.3166 C   0  0  0  0  0  0  0  0  0  0  0  0
  -20.9865   -4.0596   22.6512 C   0  0  0  0  0  0  0  0  0  0  0  0
  -24.6320   -9.9140   21.6211 C   0  0  0  0  0  0  0  0  0  0  0  0
  -27.0297  -10.7104   21.9739 C   0  0  0  0  0  0  0  0  0  0  0  0
  -25.5267  -36.0571   24.9389 C   0  0  0  0  0  0  0  0  0  0  0  0
  -25.8796  -29.7914   20.3028 C   0  0  0  0  0  0  0  0  0  0  0  0
  -26.2331  -35.0390   24.2704 C   0  0  0  0  0  0  0  0  0  0  0  0
  -28.6680  -21.1451   20.3942 C   0  0  0  0  0  0  0  0  0  0  0  0
  -25.0423  -28.8985   20.9867 C   0  0  0  0  0  0  0  0  0  0  0  0
  -28.3150  -23.8954   20.0880 C   0  0  0  0  0  0  0  0  0  0  0  0
  -28.9012  -22.0021   21.4697 C   0  0  0  0  0  0  0  0  0  0  0  0
  -22.3547   -8.4477   22.2894 C   0  0  0  0  0  0  0  0  0  0  0  0
  -26.5779  -27.0850   20.4736 C   0  0  0  0  0  0  0  0  0  0  0  0
  -21.4175   -6.4117   22.9957 C   0  0  0  0  0  0  0  0  0  0  0  0
  -21.7706   -3.7531   23.7634 C   0  0  0  0  0  0  0  0  0  0  0  0
  -20.8100   -5.3890   22.2673 C   0  0  0  0  0  0  0  0  0  0  0  0
  -25.8082  -10.6710   21.2752 C   0  0  0  0  0  0  0  0  0  0  0  0
  -27.8154  -11.5683   21.2436 C   0  0  0  0  0  0  0  0  0  0  0  0
  -27.4193  -10.0322   23.1755 C   0  0  0  0  0  0  0  0  0  0  0  0
  -25.2402  -31.8992   22.5945 C   0  0  0  0  0  0  0  0  0  0  0  0
  -22.1663  -31.3023   21.7474 C   0  0  0  0  0  0  0  0  0  0  0  0
  -19.9141  -29.1643   20.3320 C   0  0  0  0  0  0  0  0  0  0  0  0
  -28.6287  -16.1643   18.3737 C   0  0  0  0  0  0  0  0  0  0  0  0
  -24.3397  -35.7532   25.8184 C   0  0  0  0  0  0  0  0  0  0  0  0
  -25.5035  -31.2421   20.1748 C   0  0  0  0  0  0  0  0  0  0  0  0
  -23.7647  -29.3531   21.6421 C   0  0  0  0  0  0  0  0  0  0  0  0
  -23.7326  -34.3753   25.5674 C   0  0  0  0  0  0  0  0  0  0  0  0
  -27.1438  -13.5610   16.6513 C   0  0  0  0  0  0  0  0  0  0  0  0
  -24.8269  -33.3151   25.4939 C   0  0  0  0  0  0  0  0  0  0  0  0
  -26.7601  -12.5703   17.7502 C   0  0  0  0  0  0  0  0  0  0  0  0
  -27.5694  -22.4443   24.3355 C   0  0  0  0  0  0  0  0  0  0  0  0
  -28.3175  -21.3726   25.0719 C   0  0  0  0  0  0  0  0  0  0  0  0
  -27.5352  -18.8798   20.3096 C   0  0  0  0  0  0  0  0  0  0  0  0
  -29.9543  -19.1111   19.5994 C   0  0  0  0  0  0  0  0  0  0  0  0
  -26.8654  -14.9947   17.0876 C   0  0  0  0  0  0  0  0  0  0  0  0
  -27.7348  -17.3654   20.4180 C   0  0  0  0  0  0  0  0  0  0  0  0
  -30.1035  -17.5999   19.7494 C   0  0  0  0  0  0  0  0  0  0  0  0
  -27.1732  -14.3998   19.4687 C   0  0  0  0  0  0  0  0  0  0  0  0
  -28.8520  -19.6455   20.5319 C   0  0  0  0  0  0  0  0  0  0  0  0
  -25.7880  -33.5939   24.3319 C   0  0  1  0  0  0  0  0  0  0  0  0
  -24.5528  -31.7119   21.2716 C   0  0  1  0  0  0  0  0  0  0  0  0
  -27.4412  -12.9310   19.0823 C   0  0  1  0  0  0  0  0  0  0  0  0
  -28.9902  -22.1280   23.9600 C   0  0  0  0  0  0  0  0  0  0  0  0
  -17.4686  -28.9367   19.8175 C   0  0  0  0  0  0  0  0  0  0  0  0
  -21.6086  -30.6852   24.6830 C   0  0  0  0  0  0  0  0  0  0  0  0
  -19.4801  -29.5745   23.9730 C   0  0  0  0  0  0  0  0  0  0  0  0
  -19.8213  -32.0068   23.5370 C   0  0  0  0  0  0  0  0  0  0  0  0
  -20.4242  -28.9875   17.4221 C   0  0  0  0  0  0  0  0  0  0  0  0
  -28.1262  -25.3656   19.9236 C   0  0  0  0  0  0  0  0  0  1  0  0
  -21.1122  -30.3108   22.1771 C   0  0  1  0  0  0  0  0  0  0  0  0
  -18.8250  -29.3879   19.2985 C   0  0  2  0  0  0  0  0  0  0  0  0
  -20.5306  -30.6358   23.5820 C   0  0  0  0  0  0  0  0  0  0  0  0
  -25.8126  -11.4425   20.1849 N   0  0  0  0  0  0  0  0  0  0  0  0
  -27.0465  -11.9749   20.1931 N   0  0  0  0  0  0  0  0  0  0  0  0
  -23.4436  -30.7823   21.4945 N   0  0  0  0  0  0  0  0  0  0  0  0
  -27.5259  -15.2970   18.3573 N   0  0  0  0  0  0  0  0  0  0  0  0
  -28.8251  -16.9212   19.5386 N   0  0  0  0  0  0  0  0  0  0  0  0
  -29.0819  -12.0069   21.4042 N   0  0  0  0  0  0  0  0  0  0  0  0
  -26.4896   -9.1878   23.7976 N   0  0  0  0  0  0  0  0  0  0  0  0
  -29.3160  -21.4950   22.7208 N   0  0  0  0  0  0  0  0  0  0  0  0
  -25.1915  -33.1936   23.0756 N   0  0  0  0  0  0  0  0  0  0  0  0
  -20.1176  -30.2842   21.1102 N   0  0  0  0  0  0  0  0  0  0  0  0
  -19.1284  -28.6275   18.0533 N   0  3  0  0  0  0  0  0  0  0  0  0
  -28.5526  -10.1836   23.6915 O   0  0  0  0  0  0  0  0  0  0  0  0
  -25.7738  -30.9399   23.1393 O   0  0  0  0  0  0  0  0  0  0  0  0
  -21.8657  -32.4932   21.6331 O   0  0  0  0  0  0  0  0  0  0  0  0
  -20.5210  -28.1010   20.4408 O   0  0  0  0  0  0  0  0  0  0  0  0
  -29.3935  -16.2568   17.4054 O   0  0  0  0  0  0  0  0  0  0  0  0
  -21.2439   -7.7319   22.6154 O   0  0  0  0  0  0  0  0  0  0  0  0
  -26.9188  -25.7609   20.5632 O   0  0  0  0  0  0  0  0  0  1  0  0
  -21.9415   -2.4765   24.1312 F   0  0  0  0  0  0  0  0  0  0  0  0
  -20.0565   -5.6772   21.1973 F   0  0  0  0  0  0  0  0  0  0  0  0
  1  2  1  0  0  0  0
  1  5  2  0  0  0  0
  2  6  2  0  0  0  0
  3 10  2  0  0  0  0
  3 18  1  0  0  0  0
  4 11  1  0  0  0  0
  4 18  2  0  0  0  0
  5 20  1  0  0  0  0
  6 22  1  0  0  0  0
  7  9  2  0  0  0  0
  7 23  1  0  0  0  0
  8 12  2  0  0  0  0
  8 21  1  0  0  0  0
  9 25  1  0  0  0  0
 10 27  1  0  0  0  0
 11 27  2  0  0  0  0
 12 28  1  0  0  0  0
 13 14  2  0  0  0  0
 13 29  1  0  0  0  0
 14 30  1  0  0  0  0
 15 24  1  0  0  0  0
 15 28  2  0  0  0  0
 16 25  2  0  0  0  0
 16 26  1  0  0  0  0
 17 30  2  0  0  0  0
 17 31  1  0  0  0  0
 18 32  1  0  0  0  0
 19 32  1  0  0  0  0
 19 33  2  0  0  0  0
 19 34  1  0  0  0  0
 20 22  2  0  0  0  0
 20 39  1  0  0  0  0
 21 24  2  0  0  0  0
 21 40  1  0  0  0  0
 22 55  1  0  0  0  0
 23 26  2  0  0  0  0
 23 54  1  0  0  0  0
 24 41  1  0  0  0  0
 25 64  1  0  0  0  0
 26 75  1  0  0  0  0
 27 84  1  0  0  0  0
 28 85  1  0  0  0  0
 29 31  2  0  0  0  0
 29 84  1  0  0  0  0
 30 86  1  0  0  0  0
 31 87  1  0  0  0  0
 32 68  2  0  0  0  0
 33 69  1  0  0  0  0
 33 73  1  0  0  0  0
 34 74  1  0  0  0  0
 34 79  2  0  0  0  0
 35 56  1  0  0  0  0
 35 76  1  0  0  0  0
 35 80  2  0  0  0  0
 36 65  1  0  0  0  0
 36 70  1  0  0  0  0
 36 81  2  0  0  0  0
 37 66  1  0  0  0  0
 37 77  1  0  0  0  0
 37 82  2  0  0  0  0
 38 71  1  0  0  0  0
 38 72  1  0  0  0  0
 38 83  2  0  0  0  0
 39 42  1  0  0  0  0
 40 56  1  0  0  0  0
 41 70  1  0  0  0  0
 42 44  1  0  0  0  0
 43 45  1  0  0  0  0
 43 50  1  0  0  0  0
 44 55  1  0  0  0  0
 45 57  1  0  0  0  0
 46 47  1  0  0  0  0
 46 58  1  0  0  0  0
 47 58  1  0  0  0  0
 48 51  1  0  0  0  0
 48 54  1  0  0  0  0
 49 52  1  0  0  0  0
 49 54  1  0  0  0  0
 50 71  1  0  0  0  0
 51 72  1  0  0  0  0
 52 72  1  0  0  0  0
 53 57  1  0  0  0  0
 53 71  1  0  0  0  0
 55 76  1  0  0  0  0
 56 70  1  0  0  0  0
 57 69  1  0  0  0  0
 58 75  1  0  0  0  0
 59 66  1  0  0  0  0
 60 67  1  0  0  0  0
 61 67  1  0  0  0  0
 62 67  1  0  0  0  0
 63 78  1  0  0  0  0
 64 85  1  0  0  0  0
 65 67  1  0  0  0  0
 65 77  1  0  0  0  0
 66 78  1  0  0  0  0
 68 69  1  0  0  0  0
M  CHG  1  78   1
M  ISO  4  38 100  64 101  72 100  85 101
M  END
> <Batch ID>
0144

> <Smiles>
CNC(C)C(=O)NC(C(=O)N1Cc2cc([101O:1][101CH2:1]c3ccc(C4CC[100N:0]([100C:0](=O)N5CCCC(n6nc(-c7ccc(Oc8ccc(F)cc8F)cc7)c(C(N)=O)c6N)C5)CC4)c(NC4CC4)c3)ccc2CC1C(=O)NC1CCCc2ccccc21)C(C)(C)C

> <Shape>
0.322

> <Color>
0.087

> <Negative vol penalty>
0.000

$$$$

  -OEChem-04052321263D

 87 96  0     1  0  0  0  0  0999 V2000
  -30.4270  -12.1271   18.7598 C   0  0  0  0  0  0  0  0  0  0  0  0
  -29.7903  -13.2472   18.2348 C   0  0  0  0  0  0  0  0  0  0  0  0
  -29.6022  -28.7741   20.1322 C   0  0  0  0  0  0  0  0  0  0  0  0
  -27.5907  -27.4417   20.2582 C   0  0  0  0  0  0  0  0  0  0  0  0
  -29.8805  -11.4679   19.8601 C   0  0  0  0  0  0  0  0  0  0  0  0
  -28.6062  -13.7079   18.8092 C   0  0  0  0  0  0  0  0  0  0  0  0
  -25.0054  -19.7697   20.0764 C   0  0  0  0  0  0  0  0  0  0  0  0
  -30.3466  -27.6250   19.8657 C   0  0  0  0  0  0  0  0  0  0  0  0
  -28.3351  -26.2927   19.9916 C   0  0  0  0  0  0  0  0  0  0  0  0
  -23.7442  -20.3330   19.8868 C   0  0  0  0  0  0  0  0  0  0  0  0
  -30.3695  -24.1926   21.6893 C   0  0  0  0  0  0  0  0  0  0  0  0
  -30.1190  -23.0630   22.4682 C   0  0  0  0  0  0  0  0  0  0  0  0
  -22.9349  -19.1613   21.8340 C   0  0  0  0  0  0  0  0  0  0  0  0
  -20.1398  -27.4334   23.5921 C   0  0  0  0  0  0  0  0  0  0  0  0
  -19.3848  -28.6836   21.6676 C   0  0  0  0  0  0  0  0  0  0  0  0
  -29.5082  -21.8294   20.4826 C   0  0  0  0  0  0  0  0  0  0  0  0
  -28.2242  -28.6824   20.3286 C   0  0  0  0  0  0  0  0  0  0  0  0
  -27.3235  -31.0066   19.7858 C   0  0  0  0  0  0  0  0  0  0  0  0
  -28.6943  -11.9265   20.4543 C   0  0  0  0  0  0  0  0  0  0  0  0
  -25.2383  -18.8879   21.1416 C   0  0  0  0  0  0  0  0  0  0  0  0
  -28.0426  -13.0534   19.9177 C   0  0  0  0  0  0  0  0  0  0  0  0
  -24.2006  -18.5902   22.0363 C   0  0  0  0  0  0  0  0  0  0  0  0
  -19.2671  -26.2705   21.6625 C   0  0  0  0  0  0  0  0  0  0  0  0
  -19.9274  -28.6545   22.9522 C   0  0  0  0  0  0  0  0  0  0  0  0
  -19.8097  -26.2414   22.9472 C   0  0  0  0  0  0  0  0  0  0  0  0
  -19.0547  -27.4917   21.0227 C   0  0  0  0  0  0  0  0  0  0  0  0
  -29.7131  -26.3843   19.7954 C   0  0  0  0  0  0  0  0  0  0  0  0
  -22.7080  -20.0266   20.7640 C   0  0  0  0  0  0  0  0  0  0  0  0
  -30.1893  -24.1407   20.3070 C   0  0  0  0  0  0  0  0  0  0  0  0
  -29.6883  -21.8813   21.8649 C   0  0  0  0  0  0  0  0  0  0  0  0
  -29.7586  -22.9591   19.7037 C   0  0  0  0  0  0  0  0  0  0  0  0
  -27.4547  -29.8690   20.6045 C   0  0  0  0  0  0  0  0  0  0  0  0
  -26.4944  -31.8438   20.4915 C   0  0  0  0  0  0  0  0  0  0  0  0
  -27.8996  -31.2820   18.5020 C   0  0  0  0  0  0  0  0  0  0  0  0
  -26.1070  -15.8397   21.3814 C   0  0  0  0  0  0  0  0  0  0  0  0
  -26.2086  -16.5229   24.5508 C   0  0  0  0  0  0  0  0  0  0  0  0
  -25.1403  -18.4911   27.1260 C   0  0  0  0  0  0  0  0  0  0  0  0
  -22.3269  -30.8746   24.6801 C   0  0  0  0  0  0  0  0  0  0  0  0
  -28.1164  -11.1529   21.6129 C   0  0  0  0  0  0  0  0  0  0  0  0
  -26.6114  -18.3096   21.3479 C   0  0  0  0  0  0  0  0  0  0  0  0
  -24.4042  -17.6652   23.2074 C   0  0  0  0  0  0  0  0  0  0  0  0
  -27.0588  -11.9272   22.3953 C   0  0  0  0  0  0  0  0  0  0  0  0
  -25.2110  -32.9424   24.9678 C   0  0  0  0  0  0  0  0  0  0  0  0
  -26.0671  -12.5875   21.4427 C   0  0  0  0  0  0  0  0  0  0  0  0
  -26.1013  -32.4919   23.8083 C   0  0  0  0  0  0  0  0  0  0  0  0
  -17.9090  -24.0570   21.6659 C   0  0  0  0  0  0  0  0  0  0  0  0
  -24.4520  -31.7700   25.5851 C   0  0  0  0  0  0  0  0  0  0  0  0
  -24.5622  -30.5135   23.4679 C   0  0  0  0  0  0  0  0  0  0  0  0
  -18.0353  -22.7653   20.8865 C   0  0  0  0  0  0  0  0  0  0  0  0
  -20.1081  -24.0484   20.7372 C   0  0  0  0  0  0  0  0  0  0  0  0
  -18.9085  -24.9770   20.9632 C   0  0  2  0  0  0  0  0  0  0  0  0
  -26.7698  -13.5983   20.5284 C   0  0  1  0  0  0  0  0  0  0  0  0
  -26.6007  -17.0221   22.1662 C   0  0  1  0  0  0  0  0  0  0  0  0
  -25.3053  -31.6696   22.7770 C   0  0  2  0  0  0  0  0  0  0  0  0
  -20.0460  -24.9471   23.6547 C   0  0  0  0  0  0  0  0  0  0  0  0
  -18.4749  -27.5500   19.6471 C   0  0  0  0  0  0  0  0  0  0  0  0
  -25.3672  -18.7822   29.6082 C   0  0  0  0  0  0  0  0  0  0  0  0
  -24.3629  -14.1345   24.9972 C   0  0  0  0  0  0  0  0  0  0  0  0
  -23.8720  -15.0298   27.2832 C   0  0  0  0  0  0  0  0  0  0  0  0
  -26.1988  -14.3630   26.6799 C   0  0  0  0  0  0  0  0  0  0  0  0
  -26.2750  -21.2074   26.8206 C   0  0  0  0  0  0  0  0  0  0  0  0
  -20.2810  -29.9289   23.6414 C   0  0  0  0  0  0  0  0  0  0  0  0
  -19.8731  -21.9157   19.3914 C   0  0  0  0  0  0  0  0  0  0  0  0
  -21.3153  -21.4551   19.4695 C   0  0  0  0  0  0  0  0  0  1  0  0
  -25.2170  -16.4711   25.6879 C   0  0  1  0  0  0  0  0  0  0  0  0
  -25.8972  -19.1884   28.2419 C   0  0  2  0  0  0  0  0  0  0  0  0
  -24.9080  -15.0155   26.1389 C   0  0  0  0  0  0  0  0  0  0  0  0
  -26.7643  -29.9709   21.7434 N   0  0  0  0  0  0  0  0  0  0  0  0
  -26.1914  -31.1826   21.6453 N   0  0  0  0  0  0  0  0  0  0  0  0
  -25.7629  -17.1200   23.3631 N   0  0  0  0  0  0  0  0  0  0  0  0
  -23.7170  -31.0327   24.5545 N   0  0  0  0  0  0  0  0  0  0  0  0
  -26.0022  -33.0737   20.2315 N   0  0  0  0  0  0  0  0  0  0  0  0
  -27.1886  -30.9026   17.3554 N   0  0  0  0  0  0  0  0  0  0  0  0
  -27.0372  -14.8271   21.2446 N   0  0  0  0  0  0  0  0  0  0  0  0
  -25.7602  -17.3207   26.7422 N   0  0  0  0  0  0  0  0  0  0  0  0
  -21.7069  -30.1684   23.6566 N   0  0  0  0  0  0  0  0  0  0  0  0
  -19.5213  -22.6510   20.6450 N   0  3  2  0  0  0  0  0  0  0  0  0
  -25.7695  -20.6673   28.1090 N   0  3  0  0  0  0  0  0  0  0  0  0
  -29.0195  -31.8329   18.3758 O   0  0  0  0  0  0  0  0  0  0  0  0
  -24.9660  -15.8451   20.9343 O   0  0  0  0  0  0  0  0  0  0  0  0
  -27.3393  -16.0572   24.7128 O   0  0  0  0  0  0  0  0  0  0  0  0
  -24.1010  -18.9378   26.6457 O   0  0  0  0  0  0  0  0  0  0  0  0
  -21.6851  -31.3338   25.6310 O   0  0  0  0  0  0  0  0  0  0  0  0
  -30.4391  -25.2629   19.5350 O   0  0  0  0  0  0  0  0  0  0  0  0
  -21.4758  -20.5745   20.5809 O   0  0  0  0  0  0  0  0  0  1  0  0
  -29.4493  -20.7962   22.6128 F   0  0  0  0  0  0  0  0  0  0  0  0
  -29.5848  -22.9028   18.3762 F   0  0  0  0  0  0  0  0  0  0  0  0
  1  2  1  0  0  0  0
  1  5  2  0  0  0  0
  2  6  2  0  0  0  0
  3  8  2  0  0  0  0
  3 17  1  0  0  0  0
  4  9  1  0  0  0  0
  4 17  2  0  0  0  0
  5 19  1  0  0  0  0
  6 21  1  0  0  0  0
  7 10  2  0  0  0  0
  7 20  1  0  0  0  0
  8 27  1  0  0  0  0
  9 27  2  0  0  0  0
 10 28  1  0  0  0  0
 11 12  2  0  0  0  0
 11 29  1  0  0  0  0
 12 30  1  0  0  0  0
 13 22  1  0  0  0  0
 13 28  2  0  0  0  0
 14 24  1  0  0  0  0
 14 25  2  0  0  0  0
 15 24  2  0  0  0  0
 15 26  1  0  0  0  0
 16 30  2  0  0  0  0
 16 31  1  0  0  0  0
 17 32  1  0  0  0  0
 18 32  1  0  0  0  0
 18 33  2  0  0  0  0
 18 34  1  0  0  0  0
 19 21  2  0  0  0  0
 19 39  1  0  0  0  0
 20 22  2  0  0  0  0
 20 40  1  0  0  0  0
 21 52  1  0  0  0  0
 22 41  1  0  0  0  0
 23 25  1  0  0  0  0
 23 26  2  0  0  0  0
 23 51  1  0  0  0  0
 24 62  1  0  0  0  0
 25 55  1  0  0  0  0
 26 56  1  0  0  0  0
 27 84  1  0  0  0  0
 28 85  1  0  0  0  0
 29 31  2  0  0  0  0
 29 84  1  0  0  0  0
 30 86  1  0  0  0  0
 31 87  1  0  0  0  0
 32 68  2  0  0  0  0
 33 69  1  0  0  0  0
 33 72  1  0  0  0  0
 34 73  1  0  0  0  0
 34 79  2  0  0  0  0
 35 53  1  0  0  0  0
 35 74  1  0  0  0  0
 35 80  2  0  0  0  0
 36 65  1  0  0  0  0
 36 70  1  0  0  0  0
 36 81  2  0  0  0  0
 37 66  1  0  0  0  0
 37 75  1  0  0  0  0
 37 82  2  0  0  0  0
 38 71  1  0  0  0  0
 38 76  1  0  0  0  0
 38 83  2  0  0  0  0
 39 42  1  0  0  0  0
 40 53  1  0  0  0  0
 41 70  1  0  0  0  0
 42 44  1  0  0  0  0
 43 45  1  0  0  0  0
 43 47  1  0  0  0  0
 44 52  1  0  0  0  0
 45 54  1  0  0  0  0
 46 49  1  0  0  0  0
 46 51  1  0  0  0  0
 47 71  1  0  0  0  0
 48 54  1  0  0  0  0
 48 71  1  0  0  0  0
 49 77  1  0  0  0  0
 50 51  1  0  0  0  0
 50 77  1  0  0  0  0
 52 74  1  0  0  0  0
 53 70  1  0  0  0  0
 54 69  1  0  0  0  0
 57 66  1  0  0  0  0
 58 67  1  0  0  0  0
 59 67  1  0  0  0  0
 60 67  1  0  0  0  0
 61 78  1  0  0  0  0
 62 76  1  0  0  0  0
 63 64  1  0  0  0  0
 63 77  1  0  0  0  0
 64 85  1  0  0  0  0
 65 67  1  0  0  0  0
 65 75  1  0  0  0  0
 66 78  1  0  0  0  0
 68 69  1  0  0  0  0
M  CHG  2  77   1  78   1
M  ISO  4  38 100  64 101  76 100  85 101
M  END
> <Batch ID>
0144

> <Smiles>
CNC(C)C(=O)NC(C(=O)N1Cc2cc([101O:1][101CH2:1]CN3CCC(c4c(C)cc(C[100NH:0][100C:0](=O)N5CCCC(n6nc(-c7ccc(Oc8ccc(F)cc8F)cc7)c(C(N)=O)c6N)C5)cc4C)C3)ccc2CC1C(=O)NC1CCCc2ccccc21)C(C)(C)C

> <Shape>
0.232

> <Color>
0.059

> <Negative vol penalty>
0.000

$$$$

  -OEChem-04052321263D

 83 92  0     1  0  0  0  0  0999 V2000
  -16.7478  -16.0017   29.9607 C   0  0  0  0  0  0  0  0  0  0  0  0
  -17.8086  -15.8161   29.0800 C   0  0  0  0  0  0  0  0  0  0  0  0
  -23.0747   -9.8699   19.9412 C   0  0  0  0  0  0  0  0  0  0  0  0
  -23.8389   -9.8747   22.2331 C   0  0  0  0  0  0  0  0  0  0  0  0
  -16.3119  -17.2910   30.2634 C   0  0  0  0  0  0  0  0  0  0  0  0
  -18.4335  -16.9198   28.5005 C   0  0  0  0  0  0  0  0  0  0  0  0
  -27.0516  -18.7328   19.5620 C   0  0  0  0  0  0  0  0  0  0  0  0
  -24.3718  -17.4799   27.1117 C   0  0  0  0  0  0  0  0  0  0  0  0
  -26.3689  -19.0801   20.7278 C   0  0  0  0  0  0  0  0  0  0  0  0
  -22.3319   -8.7161   20.1913 C   0  0  0  0  0  0  0  0  0  0  0  0
  -23.0961   -8.7209   22.4832 C   0  0  0  0  0  0  0  0  0  0  0  0
  -25.0747  -17.3231   25.9180 C   0  0  0  0  0  0  0  0  0  0  0  0
  -21.1151   -5.9813   23.8206 C   0  0  0  0  0  0  0  0  0  0  0  0
  -20.3611   -5.9360   24.9932 C   0  0  0  0  0  0  0  0  0  0  0  0
  -24.9483  -19.7020   25.5382 C   0  0  0  0  0  0  0  0  0  0  0  0
  -28.3908  -18.7528   22.0092 C   0  0  0  0  0  0  0  0  0  0  0  0
  -19.1142   -7.8734   24.2662 C   0  0  0  0  0  0  0  0  0  0  0  0
  -23.8283  -10.4492   20.9621 C   0  0  0  0  0  0  0  0  0  0  0  0
  -24.1686  -12.9746   20.8443 C   0  0  0  0  0  0  0  0  0  0  0  0
  -16.9380  -18.4114   29.6949 C   0  0  0  0  0  0  0  0  0  0  0  0
  -23.9416  -18.7496   27.5230 C   0  0  0  0  0  0  0  0  0  0  0  0
  -18.0047  -18.2253   28.7949 C   0  0  0  0  0  0  0  0  0  0  0  0
  -28.4038  -18.3955   19.6198 C   0  0  0  0  0  0  0  0  0  0  0  0
  -24.2423  -19.8725   26.7389 C   0  0  0  0  0  0  0  0  0  0  0  0
  -27.0386  -19.0901   21.9514 C   0  0  0  0  0  0  0  0  0  0  0  0
  -29.0734  -18.4055   20.8434 C   0  0  0  0  0  0  0  0  0  0  0  0
  -22.3425   -8.1416   21.4623 C   0  0  0  0  0  0  0  0  0  0  0  0
  -25.3606  -18.4339   25.1296 C   0  0  0  0  0  0  0  0  0  0  0  0
  -20.8687   -6.9727   22.8708 C   0  0  0  0  0  0  0  0  0  0  0  0
  -19.3606   -6.8820   25.2160 C   0  0  0  0  0  0  0  0  0  0  0  0
  -19.8682   -7.9187   23.0936 C   0  0  0  0  0  0  0  0  0  0  0  0
  -24.5963  -11.6407   20.7042 C   0  0  0  0  0  0  0  0  0  0  0  0
  -25.2597  -13.7251   20.4797 C   0  0  0  0  0  0  0  0  0  0  0  0
  -22.8986  -13.4893   21.2662 C   0  0  0  0  0  0  0  0  0  0  0  0
  -21.1127  -20.0896   28.0753 C   0  0  0  0  0  0  0  0  0  0  0  0
  -22.9267  -22.5736   29.1055 C   0  0  0  0  0  0  0  0  0  0  0  0
  -25.9156  -24.2176   29.0012 C   0  0  0  0  0  0  0  0  0  0  0  0
  -30.7432  -14.7467   20.6587 C   0  0  0  0  0  0  0  0  0  0  0  0
  -16.4010  -19.7838   30.0156 C   0  0  0  0  0  0  0  0  0  0  0  0
  -23.2076  -18.9053   28.8266 C   0  0  0  0  0  0  0  0  0  0  0  0
  -23.8206  -21.2599   27.1458 C   0  0  0  0  0  0  0  0  0  0  0  0
  -17.3597  -20.9139   29.6494 C   0  0  0  0  0  0  0  0  0  0  0  0
  -29.6023  -12.3643   18.2715 C   0  0  0  0  0  0  0  0  0  0  0  0
  -28.3186  -17.4730   17.2083 C   0  0  0  0  0  0  0  0  0  0  0  0
  -29.2307  -16.5743   17.9834 C   0  0  0  0  0  0  0  0  0  0  0  0
  -17.9226  -20.7031   28.2474 C   0  0  0  0  0  0  0  0  0  0  0  0
  -28.1658  -12.0694   18.7068 C   0  0  0  0  0  0  0  0  0  0  0  0
  -30.5216  -12.5842   19.4709 C   0  0  0  0  0  0  0  0  0  0  0  0
  -28.6221  -13.3128   20.8619 C   0  0  0  0  0  0  0  0  0  0  0  0
  -29.1145  -18.0274   18.3595 C   0  0  0  0  0  0  0  0  0  0  0  0
  -18.7242  -19.3984   28.1652 C   0  0  1  0  0  0  0  0  0  0  0  0
  -22.3704  -20.1789   28.8925 C   0  0  1  0  0  0  0  0  0  0  0  0
  -27.6458  -13.1390   19.6859 C   0  0  2  0  0  0  0  0  0  0  0  0
  -27.0858  -26.2378   29.9215 C   0  0  0  0  0  0  0  0  0  0  0  0
  -21.3521  -24.3542   27.1924 C   0  0  0  0  0  0  0  0  0  0  0  0
  -23.1427  -26.0862   27.4413 C   0  0  0  0  0  0  0  0  0  0  0  0
  -21.8123  -25.3758   29.4283 C   0  0  0  0  0  0  0  0  0  0  0  0
  -27.9914  -22.5628   30.3094 C   0  0  0  0  0  0  0  0  0  0  0  0
  -30.5216  -18.0498   20.9318 C   0  0  0  0  0  0  0  0  0  0  0  0
  -26.3045  -19.4645   23.2053 C   0  0  0  0  0  0  0  0  0  1  0  0
  -30.8104  -16.8959   21.8979 C   0  0  0  0  0  0  0  0  0  0  0  0
  -23.5318  -23.7961   28.4587 C   0  0  1  0  0  0  0  0  0  0  0  0
  -26.8094  -24.7536   30.1049 C   0  0  2  0  0  0  0  0  0  0  0  0
  -22.4661  -24.8769   28.1213 C   0  0  0  0  0  0  0  0  0  0  0  0
  -25.8604  -11.5460   20.2834 N   0  0  0  0  0  0  0  0  0  0  0  0
  -26.2364  -12.8299   20.1558 N   0  0  0  0  0  0  0  0  0  0  0  0
  -23.0999  -21.3597   28.4258 N   0  0  0  0  0  0  0  0  0  0  0  0
  -29.9722  -13.6115   20.3590 N   0  0  0  0  0  0  0  0  0  0  0  0
  -25.4692  -15.0567   20.4078 N   0  0  0  0  0  0  0  0  0  0  0  0
  -21.8878  -12.5793   21.6044 N   0  0  0  0  0  0  0  0  0  0  0  0
  -20.0316  -19.5700   28.7615 N   0  0  0  0  0  0  0  0  0  0  0  0
  -24.5843  -24.2553   29.3585 N   0  0  0  0  0  0  0  0  0  0  0  0
  -30.1452  -15.6743   21.5030 N   0  0  0  0  0  0  0  0  0  0  0  0
  -28.1124  -24.0304   30.1133 N   0  3  0  0  0  0  0  0  0  0  0  0
  -22.6619  -14.7198   21.3253 O   0  0  0  0  0  0  0  0  0  0  0  0
  -21.1219  -20.4658   26.9091 O   0  0  0  0  0  0  0  0  0  0  0  0
  -22.3287  -22.6903   30.1781 O   0  0  0  0  0  0  0  0  0  0  0  0
  -26.3541  -23.8099   27.9279 O   0  0  0  0  0  0  0  0  0  0  0  0
  -31.8782  -14.9233   20.2032 O   0  0  0  0  0  0  0  0  0  0  0  0
  -21.6176   -7.0158   21.7068 O   0  0  0  0  0  0  0  0  0  0  0  0
  -26.0460  -18.2836   23.9636 O   0  0  0  0  0  0  0  0  0  1  0  0
  -18.6356   -6.8375   26.3414 F   0  0  0  0  0  0  0  0  0  0  0  0
  -19.6261   -8.8728   22.1842 F   0  0  0  0  0  0  0  0  0  0  0  0
  1  2  1  0  0  0  0
  1  5  2  0  0  0  0
  2  6  2  0  0  0  0
  3 10  2  0  0  0  0
  3 18  1  0  0  0  0
  4 11  1  0  0  0  0
  4 18  2  0  0  0  0
  5 20  1  0  0  0  0
  6 22  1  0  0  0  0
  7  9  2  0  0  0  0
  7 23  1  0  0  0  0
  8 12  2  0  0  0  0
  8 21  1  0  0  0  0
  9 25  1  0  0  0  0
 10 27  1  0  0  0  0
 11 27  2  0  0  0  0
 12 28  1  0  0  0  0
 13 14  2  0  0  0  0
 13 29  1  0  0  0  0
 14 30  1  0  0  0  0
 15 24  1  0  0  0  0
 15 28  2  0  0  0  0
 16 25  2  0  0  0  0
 16 26  1  0  0  0  0
 17 30  2  0  0  0  0
 17 31  1  0  0  0  0
 18 32  1  0  0  0  0
 19 32  1  0  0  0  0
 19 33  2  0  0  0  0
 19 34  1  0  0  0  0
 20 22  2  0  0  0  0
 20 39  1  0  0  0  0
 21 24  2  0  0  0  0
 21 40  1  0  0  0  0
 22 51  1  0  0  0  0
 23 26  2  0  0  0  0
 23 50  1  0  0  0  0
 24 41  1  0  0  0  0
 25 60  1  0  0  0  0
 26 59  1  0  0  0  0
 27 80  1  0  0  0  0
 28 81  1  0  0  0  0
 29 31  2  0  0  0  0
 29 80  1  0  0  0  0
 30 82  1  0  0  0  0
 31 83  1  0  0  0  0
 32 65  2  0  0  0  0
 33 66  1  0  0  0  0
 33 69  1  0  0  0  0
 34 70  1  0  0  0  0
 34 75  2  0  0  0  0
 35 52  1  0  0  0  0
 35 71  1  0  0  0  0
 35 76  2  0  0  0  0
 36 62  1  0  0  0  0
 36 67  1  0  0  0  0
 36 77  2  0  0  0  0
 37 63  1  0  0  0  0
 37 72  1  0  0  0  0
 37 78  2  0  0  0  0
 38 68  1  0  0  0  0
 38 73  1  0  0  0  0
 38 79  2  0  0  0  0
 39 42  1  0  0  0  0
 40 52  1  0  0  0  0
 41 67  1  0  0  0  0
 42 46  1  0  0  0  0
 43 47  1  0  0  0  0
 43 48  1  0  0  0  0
 44 45  1  0  0  0  0
 44 50  1  0  0  0  0
 45 50  1  0  0  0  0
 46 51  1  0  0  0  0
 47 53  1  0  0  0  0
 48 68  1  0  0  0  0
 49 53  1  0  0  0  0
 49 68  1  0  0  0  0
 51 71  1  0  0  0  0
 52 67  1  0  0  0  0
 53 66  1  0  0  0  0
 54 63  1  0  0  0  0
 55 64  1  0  0  0  0
 56 64  1  0  0  0  0
 57 64  1  0  0  0  0
 58 74  1  0  0  0  0
 59 61  1  0  0  0  0
 60 81  1  0  0  0  0
 61 73  1  0  0  0  0
 62 64  1  0  0  0  0
 62 72  1  0  0  0  0
 63 74  1  0  0  0  0
 65 66  1  0  0  0  0
M  CHG  1  74   1
M  ISO  4  38 100  60 101  73 100  81 101
M  END
> <Batch ID>
0144

> <Smiles>
CNC(C)C(=O)NC(C(=O)N1Cc2cc([101O:1][101CH2:1]c3ccc(C4CC4)c(CC[100NH:0][100C:0](=O)N4CCCC(n5nc(-c6ccc(Oc7ccc(F)cc7F)cc6)c(C(N)=O)c5N)C4)c3)ccc2CC1C(=O)NC1CCCc2ccccc21)C(C)(C)C

> <Shape>
0.191

> <Color>
0.200

> <Negative vol penalty>
0.000

$$$$

  -OEChem-04052321263D

 94104  0     1  0  0  0  0  0999 V2000
  -31.9871  -25.6019   17.2992 C   0  0  0  0  0  0  0  0  0  0  0  0
  -30.9231  -25.1652   18.0820 C   0  0  0  0  0  0  0  0  0  0  0  0
  -22.7102  -12.6825   21.4238 C   0  0  0  0  0  0  0  0  0  0  0  0
  -23.3910  -14.7266   22.5170 C   0  0  0  0  0  0  0  0  0  0  0  0
  -32.6106  -26.8153   17.5870 C   0  0  0  0  0  0  0  0  0  0  0  0
  -30.4828  -25.9411   19.1536 C   0  0  0  0  0  0  0  0  0  0  0  0
  -25.4356  -26.3096   19.3410 C   0  0  0  0  0  0  0  0  0  0  0  0
  -21.7504  -12.4726   22.4139 C   0  0  0  0  0  0  0  0  0  0  0  0
  -22.4312  -14.5168   23.5072 C   0  0  0  0  0  0  0  0  0  0  0  0
  -24.7361  -25.2179   19.8534 C   0  0  0  0  0  0  0  0  0  0  0  0
  -19.0938  -14.9118   23.8623 C   0  0  0  0  0  0  0  0  0  0  0  0
  -18.3102  -16.0006   24.2442 C   0  0  0  0  0  0  0  0  0  0  0  0
  -24.5279  -26.3532   21.9716 C   0  0  0  0  0  0  0  0  0  0  0  0
  -27.1191  -20.6529   22.6670 C   0  0  0  0  0  0  0  0  0  0  0  0
  -25.9434  -19.0227   21.3262 C   0  0  0  0  0  0  0  0  0  0  0  0
  -19.1317  -15.7979   26.5073 C   0  0  0  0  0  0  0  0  0  0  0  0
  -23.5305  -13.8095   21.4754 C   0  0  0  0  0  0  0  0  0  0  0  0
  -24.3578  -14.7283   19.2440 C   0  0  0  0  0  0  0  0  0  0  0  0
  -32.1715  -27.6111   18.6568 C   0  0  0  0  0  0  0  0  0  0  0  0
  -25.6965  -27.4287   20.1447 C   0  0  0  0  0  0  0  0  0  0  0  0
  -31.1020  -27.1656   19.4568 C   0  0  0  0  0  0  0  0  0  0  0  0
  -25.2288  -27.4589   21.4663 C   0  0  0  0  0  0  0  0  0  0  0  0
  -25.9089  -21.2769   22.9694 C   0  0  0  0  0  0  0  0  0  0  0  0
  -24.7159  -20.7739   22.4504 C   0  0  0  0  0  0  0  0  0  0  0  0
  -24.7332  -19.6468   21.6287 C   0  0  0  0  0  0  0  0  0  0  0  0
  -21.6109  -13.3898   23.4556 C   0  0  0  0  0  0  0  0  0  0  0  0
  -24.2846  -25.2384   21.1697 C   0  0  0  0  0  0  0  0  0  0  0  0
  -19.8963  -14.2659   24.8028 C   0  0  0  0  0  0  0  0  0  0  0  0
  -27.1364  -19.5258   21.8453 C   0  0  0  0  0  0  0  0  0  0  0  0
  -18.3291  -16.4437   25.5667 C   0  0  0  0  0  0  0  0  0  0  0  0
  -19.9152  -14.7089   26.1253 C   0  0  0  0  0  0  0  0  0  0  0  0
  -24.5226  -14.0265   20.4532 C   0  0  0  0  0  0  0  0  0  0  0  0
  -25.5843  -14.6486   18.6309 C   0  0  0  0  0  0  0  0  0  0  0  0
  -23.1997  -15.3928   18.7217 C   0  0  0  0  0  0  0  0  0  0  0  0
  -28.3264  -28.8614   21.2099 C   0  0  0  0  0  0  0  0  0  0  0  0
  -26.2115  -31.0544   22.3234 C   0  0  0  0  0  0  0  0  0  0  0  0
  -23.0243  -31.7611   23.3182 C   0  0  0  0  0  0  0  0  0  0  0  0
  -31.0936  -13.9660   20.5267 C   0  0  0  0  0  0  0  0  0  0  0  0
  -32.9075  -28.8926   18.9581 C   0  0  0  0  0  0  0  0  0  0  0  0
  -26.4292  -28.6094   19.5689 C   0  0  0  0  0  0  0  0  0  0  0  0
  -25.4651  -28.6447   22.3643 C   0  0  0  0  0  0  0  0  0  0  0  0
  -32.1383  -29.8341   19.8814 C   0  0  0  0  0  0  0  0  0  0  0  0
  -29.4552  -11.8626   18.3253 C   0  0  0  0  0  0  0  0  0  0  0  0
  -31.5699  -29.0680   21.0717 C   0  0  0  0  0  0  0  0  0  0  0  0
  -27.9831  -12.2389   18.4917 C   0  0  0  0  0  0  0  0  0  0  0  0
  -30.8467  -17.6304   21.0138 C   0  0  0  0  0  0  0  0  0  0  0  0
  -29.4112  -16.4784   22.7346 C   0  0  0  0  0  0  0  0  0  0  0  0
  -30.1670  -11.8338   19.6731 C   0  0  0  0  0  0  0  0  0  0  0  0
  -31.6556  -16.3460   20.8558 C   0  0  0  0  0  0  0  0  0  0  0  0
  -30.2501  -15.2183   22.5484 C   0  0  0  0  0  0  0  0  0  0  0  0
  -28.6023  -13.5047   20.6089 C   0  0  0  0  0  0  0  0  0  0  0  0
  -23.1432  -19.7770   24.7877 C   0  0  0  0  0  0  0  0  0  0  0  0
  -21.5395  -21.0995   24.5800 C   0  0  0  0  0  0  0  0  0  0  0  0
  -30.5795  -27.9910   20.6126 C   0  0  1  0  0  0  0  0  0  0  0  0
  -27.0855  -29.4826   20.6338 C   0  0  1  0  0  0  0  0  0  0  0  0
  -30.2229  -17.7400   22.4112 C   0  0  0  0  0  0  0  0  0  0  0  0
  -22.5168  -20.4748   23.5617 C   0  0  0  0  0  0  0  0  0  0  0  0
  -27.8344  -13.5566   19.2728 C   0  0  2  0  0  0  0  0  0  0  0  0
  -25.9184  -22.4827   23.8511 C   0  0  0  0  0  0  0  0  0  0  0  0
  -21.6081  -33.6304   24.2110 C   0  0  0  0  0  0  0  0  0  0  0  0
  -27.4876  -30.7047   25.0728 C   0  0  0  0  0  0  0  0  0  0  0  0
  -25.4824  -31.8251   26.0690 C   0  0  0  0  0  0  0  0  0  0  0  0
  -26.9385  -33.0691   24.4707 C   0  0  0  0  0  0  0  0  0  0  0  0
  -22.0450  -20.4238   26.8793 C   0  0  0  0  0  0  0  0  0  0  0  0
  -21.2219  -31.6712   20.9725 C   0  0  0  0  0  0  0  0  0  0  0  0
  -29.3523  -18.9894   22.5219 C   0  0  0  0  0  0  0  0  0  0  0  0
  -22.6346  -21.9763   21.5528 C   0  0  0  0  0  0  0  0  0  0  0  0
  -23.3833  -23.0692   20.7976 C   0  0  0  0  0  0  0  0  0  1  0  0
  -23.4196  -21.4465   22.7771 C   0  0  2  0  0  0  0  0  0  0  0  0
  -25.4315  -31.2336   23.6035 C   0  0  1  0  0  0  0  0  0  0  0  0
  -22.0887  -32.9031   22.9649 C   0  0  2  0  0  0  0  0  0  0  0  0
  -26.3321  -31.6848   24.7879 C   0  0  0  0  0  0  0  0  0  0  0  0
  -25.7564  -13.5369   20.6012 N   0  0  0  0  0  0  0  0  0  0  0  0
  -26.3781  -13.9316   19.4770 N   0  0  0  0  0  0  0  0  0  0  0  0
  -26.1918  -29.7720   21.7571 N   0  0  0  0  0  0  0  0  0  0  0  0
  -29.9984  -13.1004   20.3852 N   0  0  0  0  0  0  0  0  0  0  0  0
  -30.8665  -15.1688   21.2159 N   0  0  0  0  0  0  0  0  0  0  0  0
  -23.5360  -19.1220   21.0937 N   0  0  0  0  0  0  0  0  0  0  0  0
  -26.0503  -15.1226   17.4559 N   0  0  0  0  0  0  0  0  0  0  0  0
  -22.0217  -15.3782   19.4810 N   0  0  0  0  0  0  0  0  0  0  0  0
  -29.3053  -28.5876   20.2738 N   0  0  0  0  0  0  0  0  0  0  0  0
  -24.3450  -32.1566   23.2937 N   0  0  0  0  0  0  0  0  0  0  0  0
  -21.8551  -19.9740   25.4831 N   0  3  0  0  0  0  0  0  0  0  0  0
  -20.8973  -32.3889   22.2320 N   0  3  0  0  0  0  0  0  0  0  0  0
  -23.2044  -15.9681   17.6070 O   0  0  0  0  0  0  0  0  0  0  0  0
  -28.3916  -28.6477   22.4148 O   0  0  0  0  0  0  0  0  0  0  0  0
  -26.8100  -32.0186   21.8399 O   0  0  0  0  0  0  0  0  0  0  0  0
  -22.6234  -30.6320   23.5923 O   0  0  0  0  0  0  0  0  0  0  0  0
  -32.2060  -13.6861   20.0627 O   0  0  0  0  0  0  0  0  0  0  0  0
  -20.6742  -13.1855   24.4218 O   0  0  0  0  0  0  0  0  0  0  0  0
  -28.3278  -18.9109   21.5483 O   0  0  0  0  0  0  0  0  0  0  0  0
  -23.5973  -24.1663   21.6761 O   0  0  0  0  0  0  0  0  0  1  0  0
  -17.5778  -17.4903   25.9331 F   0  0  0  0  0  0  0  0  0  0  0  0
  -20.6851  -14.0932   27.0330 F   0  0  0  0  0  0  0  0  0  0  0  0
  1  2  1  0  0  0  0
  1  5  2  0  0  0  0
  2  6  2  0  0  0  0
  3  8  2  0  0  0  0
  3 17  1  0  0  0  0
  4  9  1  0  0  0  0
  4 17  2  0  0  0  0
  5 19  1  0  0  0  0
  6 21  1  0  0  0  0
  7 10  2  0  0  0  0
  7 20  1  0  0  0  0
  8 26  1  0  0  0  0
  9 26  2  0  0  0  0
 10 27  1  0  0  0  0
 11 12  2  0  0  0  0
 11 28  1  0  0  0  0
 12 30  1  0  0  0  0
 13 22  1  0  0  0  0
 13 27  2  0  0  0  0
 14 23  2  0  0  0  0
 14 29  1  0  0  0  0
 15 25  1  0  0  0  0
 15 29  2  0  0  0  0
 16 30  2  0  0  0  0
 16 31  1  0  0  0  0
 17 32  1  0  0  0  0
 18 32  1  0  0  0  0
 18 33  2  0  0  0  0
 18 34  1  0  0  0  0
 19 21  2  0  0  0  0
 19 39  1  0  0  0  0
 20 22  2  0  0  0  0
 20 40  1  0  0  0  0
 21 54  1  0  0  0  0
 22 41  1  0  0  0  0
 23 24  1  0  0  0  0
 23 59  1  0  0  0  0
 24 25  2  0  0  0  0
 24 69  1  0  0  0  0
 25 78  1  0  0  0  0
 26 90  1  0  0  0  0
 27 92  1  0  0  0  0
 28 31  2  0  0  0  0
 28 90  1  0  0  0  0
 29 91  1  0  0  0  0
 30 93  1  0  0  0  0
 31 94  1  0  0  0  0
 32 73  2  0  0  0  0
 33 74  1  0  0  0  0
 33 79  1  0  0  0  0
 34 80  1  0  0  0  0
 34 85  2  0  0  0  0
 35 55  1  0  0  0  0
 35 81  1  0  0  0  0
 35 86  2  0  0  0  0
 36 70  1  0  0  0  0
 36 75  1  0  0  0  0
 36 87  2  0  0  0  0
 37 71  1  0  0  0  0
 37 82  1  0  0  0  0
 37 88  2  0  0  0  0
 38 76  1  0  0  0  0
 38 77  1  0  0  0  0
 38 89  2  0  0  0  0
 39 42  1  0  0  0  0
 40 55  1  0  0  0  0
 41 75  1  0  0  0  0
 42 44  1  0  0  0  0
 43 45  1  0  0  0  0
 43 48  1  0  0  0  0
 44 54  1  0  0  0  0
 45 58  1  0  0  0  0
 46 49  1  0  0  0  0
 46 56  1  0  0  0  0
 47 50  1  0  0  0  0
 47 56  1  0  0  0  0
 48 76  1  0  0  0  0
 49 77  1  0  0  0  0
 50 77  1  0  0  0  0
 51 58  1  0  0  0  0
 51 76  1  0  0  0  0
 52 57  1  0  0  0  0
 52 83  1  0  0  0  0
 53 57  1  0  0  0  0
 53 83  1  0  0  0  0
 54 81  1  0  0  0  0
 55 75  1  0  0  0  0
 56 66  1  0  0  0  0
 57 69  1  0  0  0  0
 58 74  1  0  0  0  0
 60 71  1  0  0  0  0
 61 72  1  0  0  0  0
 62 72  1  0  0  0  0
 63 72  1  0  0  0  0
 64 83  1  0  0  0  0
 65 84  1  0  0  0  0
 66 91  1  0  0  0  0
 67 68  1  0  0  0  0
 67 69  1  0  0  0  0
 68 92  1  0  0  0  0
 70 72  1  0  0  0  0
 70 82  1  0  0  0  0
 71 84  1  0  0  0  0
 73 74  1  0  0  0  0
M  CHG  2  83   1  84   1
M  ISO  4  38 100  68 101  77 100  92 101
M  END
> <Batch ID>
0144

> <Smiles>
CNC(C)C(=O)NC(C(=O)N1Cc2cc([101O:1][101CH2:1]CC(c3c(C)cc(OCC4CC[100N:0]([100C:0](=O)N5CCCC(n6nc(-c7ccc(Oc8ccc(F)cc8F)cc7)c(C(N)=O)c6N)C5)CC4)cc3N)C3CN(C)C3)ccc2CC1C(=O)NC1CCCc2ccccc21)C(C)(C)C

> <Shape>
0.249

> <Color>
0.047

> <Negative vol penalty>
0.000

$$$$

  -OEChem-04052321263D

 87 97  0     1  0  0  0  0  0999 V2000
  -25.4457  -29.2241   20.2562 C   0  0  0  0  0  0  0  0  0  0  0  0
  -25.0294  -27.9723   19.8144 C   0  0  0  0  0  0  0  0  0  0  0  0
  -20.0830  -21.6391   21.3842 C   0  0  0  0  0  0  0  0  0  0  0  0
  -22.4312  -22.0740   21.0184 C   0  0  0  0  0  0  0  0  0  0  0  0
  -26.8067  -29.5055   20.3678 C   0  0  0  0  0  0  0  0  0  0  0  0
  -25.9740  -27.0015   19.4830 C   0  0  0  0  0  0  0  0  0  0  0  0
  -26.9653  -19.9078   19.5978 C   0  0  0  0  0  0  0  0  0  0  0  0
  -19.9892  -22.7958   22.1580 C   0  0  0  0  0  0  0  0  0  0  0  0
  -22.3375  -23.2308   21.7922 C   0  0  0  0  0  0  0  0  0  0  0  0
  -27.3316  -18.8577   18.7570 C   0  0  0  0  0  0  0  0  0  0  0  0
  -19.0495  -25.8269   23.9313 C   0  0  0  0  0  0  0  0  0  0  0  0
  -17.9596  -26.6686   23.7099 C   0  0  0  0  0  0  0  0  0  0  0  0
  -29.5238  -14.1543   19.5348 C   0  0  0  0  0  0  0  0  0  0  0  0
  -29.6548  -19.4300   19.0645 C   0  0  0  0  0  0  0  0  0  0  0  0
  -27.8937  -14.6511   17.8222 C   0  0  0  0  0  0  0  0  0  0  0  0
  -18.6587  -26.9709   21.4171 C   0  0  0  0  0  0  0  0  0  0  0  0
  -21.3040  -21.2781   20.8144 C   0  0  0  0  0  0  0  0  0  0  0  0
  -21.2060  -19.9711   18.6259 C   0  0  0  0  0  0  0  0  0  0  0  0
  -27.7683  -28.5345   20.0468 C   0  0  0  0  0  0  0  0  0  0  0  0
  -27.9421  -20.7350   20.1705 C   0  0  0  0  0  0  0  0  0  0  0  0
  -27.3491  -27.2707   19.5892 C   0  0  0  0  0  0  0  0  0  0  0  0
  -28.5536  -13.4593   20.2567 C   0  0  0  0  0  0  0  0  0  0  0  0
  -29.2984  -20.4883   19.9143 C   0  0  0  0  0  0  0  0  0  0  0  0
  -27.2534  -13.3602   19.7614 C   0  0  0  0  0  0  0  0  0  0  0  0
  -29.1939  -14.7503   18.3175 C   0  0  0  0  0  0  0  0  0  0  0  0
  -26.9234  -13.9560   18.5441 C   0  0  0  0  0  0  0  0  0  0  0  0
  -21.1165  -23.5917   22.3619 C   0  0  0  0  0  0  0  0  0  0  0  0
  -28.6764  -18.6205   18.4879 C   0  0  0  0  0  0  0  0  0  0  0  0
  -19.9441  -25.5572   22.8956 C   0  0  0  0  0  0  0  0  0  0  0  0
  -17.7642  -27.2407   22.4528 C   0  0  0  0  0  0  0  0  0  0  0  0
  -19.7487  -26.1292   21.6385 C   0  0  0  0  0  0  0  0  0  0  0  0
  -21.4015  -20.0830   20.0155 C   0  0  0  0  0  0  0  0  0  0  0  0
  -21.4114  -18.6401   18.3563 C   0  0  0  0  0  0  0  0  0  0  0  0
  -20.8690  -20.9801   17.6646 C   0  0  0  0  0  0  0  0  0  0  0  0
  -28.6369  -23.8323   20.0042 C   0  0  0  0  0  0  0  0  0  0  0  0
  -30.7961  -23.0729   22.3027 C   0  0  0  0  0  0  0  0  0  0  0  0
  -32.7261  -20.6825   23.7886 C   0  0  0  0  0  0  0  0  0  0  0  0
  -24.6009  -14.5336   21.1904 C   0  0  0  0  0  0  0  0  0  0  0  0
  -29.2285  -28.9008   20.1382 C   0  0  0  0  0  0  0  0  0  0  0  0
  -27.5318  -21.8470   21.0966 C   0  0  0  0  0  0  0  0  0  0  0  0
  -30.3867  -21.3347   20.5204 C   0  0  0  0  0  0  0  0  0  0  0  0
  -30.1615  -27.6927   20.1247 C   0  0  0  0  0  0  0  0  0  0  0  0
  -21.0652  -14.3140   20.3770 C   0  0  0  0  0  0  0  0  0  0  0  0
  -28.6872  -13.5902   22.8333 C   0  0  0  0  0  0  0  0  0  0  0  0
  -30.0854  -13.3931   22.3370 C   0  0  0  0  0  0  0  0  0  0  0  0
  -29.7613  -26.7214   19.0188 C   0  0  0  0  0  0  0  0  0  0  0  0
  -20.7375  -15.7737   20.0557 C   0  0  0  0  0  0  0  0  0  0  0  0
  -25.3349  -11.4938   19.8359 C   0  0  0  0  0  0  0  0  0  0  0  0
  -22.0745  -14.2219   21.5155 C   0  0  0  0  0  0  0  0  0  0  0  0
  -24.0707  -12.0575   20.4821 C   0  0  0  0  0  0  0  0  0  0  0  0
  -23.0222  -16.4174   20.9668 C   0  0  0  0  0  0  0  0  0  0  0  0
  -28.9278  -12.8290   21.5567 C   0  0  0  0  0  0  0  0  0  0  0  0
  -26.1487  -12.5702   20.5809 C   0  0  2  0  0  0  0  0  0  0  0  0
  -28.3432  -26.1831   19.2438 C   0  0  1  0  0  0  0  0  0  0  0  0
  -28.5846  -22.9446   21.2154 C   0  0  1  0  0  0  0  0  0  0  0  0
  -22.0175  -16.5959   19.8125 C   0  0  2  0  0  0  0  0  0  0  0  0
  -25.1516  -15.0975   17.1861 C   0  0  0  0  0  0  0  0  0  0  0  0
  -34.4151  -20.3711   25.6183 C   0  0  0  0  0  0  0  0  0  0  0  0
  -32.9312  -24.3671   20.5487 C   0  0  0  0  0  0  0  0  0  0  0  0
  -34.6688  -23.2098   21.9306 C   0  0  0  0  0  0  0  0  0  0  0  0
  -33.1394  -24.8718   22.9893 C   0  0  0  0  0  0  0  0  0  0  0  0
  -30.9848  -18.7718   25.2295 C   0  0  0  0  0  0  0  0  0  0  0  0
  -30.2312  -15.4938   17.5459 C   0  0  0  0  0  0  0  0  0  0  0  0
  -25.5382  -13.8627   17.9949 C   0  0  0  0  0  0  0  0  0  0  0  0
  -30.2988  -16.9794   17.9128 C   0  0  0  0  0  0  0  0  0  1  0  0
  -32.2336  -22.6117   22.3088 C   0  0  1  0  0  0  0  0  0  0  0  0
  -32.9408  -20.3250   25.2483 C   0  0  2  0  0  0  0  0  0  0  0  0
  -33.2229  -23.7502   21.9312 C   0  0  0  0  0  0  0  0  0  0  0  0
  -21.7075  -18.9161   20.5888 N   0  0  0  0  0  0  0  0  0  0  0  0
  -21.7056  -18.0582   19.5542 N   0  0  0  0  0  0  0  0  0  0  0  0
  -29.9348  -22.4138   21.4143 N   0  0  0  0  0  0  0  0  0  0  0  0
  -23.2810  -14.9909   21.1982 N   0  0  0  0  0  0  0  0  0  0  0  0
  -24.8524  -13.2252   20.8457 N   0  0  0  0  0  0  0  0  0  0  0  0
  -21.3671  -17.9223   17.2138 N   0  0  0  0  0  0  0  0  0  0  0  0
  -20.6939  -22.2969   18.1116 N   0  0  0  0  0  0  0  0  0  0  0  0
  -28.3478  -25.1581   20.2654 N   0  0  0  0  0  0  0  0  0  0  0  0
  -32.4692  -22.0272   23.6246 N   0  0  0  0  0  0  0  0  0  0  0  0
  -32.4291  -18.9532   25.5263 N   0  3  0  0  0  0  0  0  0  0  0  0
  -20.7111  -20.7187   16.4480 O   0  0  0  0  0  0  0  0  0  0  0  0
  -28.9200  -23.3503   18.9137 O   0  0  0  0  0  0  0  0  0  0  0  0
  -30.4488  -23.9796   23.0636 O   0  0  0  0  0  0  0  0  0  0  0  0
  -32.7844  -19.8525   22.8841 O   0  0  0  0  0  0  0  0  0  0  0  0
  -25.5428  -15.2953   21.4516 O   0  0  0  0  0  0  0  0  0  0  0  0
  -21.0253  -24.7206   23.1167 O   0  0  0  0  0  0  0  0  0  0  0  0
  -29.0392  -17.5894   17.6613 O   0  0  0  0  0  0  0  0  0  1  0  0
  -16.7166  -28.0478   22.2399 F   0  0  0  0  0  0  0  0  0  0  0  0
  -20.6041  -25.8728   20.6393 F   0  0  0  0  0  0  0  0  0  0  0  0
  1  2  1  0  0  0  0
  1  5  2  0  0  0  0
  2  6  2  0  0  0  0
  3  8  2  0  0  0  0
  3 17  1  0  0  0  0
  4  9  1  0  0  0  0
  4 17  2  0  0  0  0
  5 19  1  0  0  0  0
  6 21  1  0  0  0  0
  7 10  2  0  0  0  0
  7 20  1  0  0  0  0
  8 27  1  0  0  0  0
  9 27  2  0  0  0  0
 10 28  1  0  0  0  0
 11 12  2  0  0  0  0
 11 29  1  0  0  0  0
 12 30  1  0  0  0  0
 13 22  2  0  0  0  0
 13 25  1  0  0  0  0
 14 23  1  0  0  0  0
 14 28  2  0  0  0  0
 15 25  2  0  0  0  0
 15 26  1  0  0  0  0
 16 30  2  0  0  0  0
 16 31  1  0  0  0  0
 17 32  1  0  0  0  0
 18 32  1  0  0  0  0
 18 33  2  0  0  0  0
 18 34  1  0  0  0  0
 19 21  2  0  0  0  0
 19 39  1  0  0  0  0
 20 23  2  0  0  0  0
 20 40  1  0  0  0  0
 21 54  1  0  0  0  0
 22 24  1  0  0  0  0
 22 52  1  0  0  0  0
 23 41  1  0  0  0  0
 24 26  2  0  0  0  0
 24 53  1  0  0  0  0
 25 63  1  0  0  0  0
 26 64  1  0  0  0  0
 27 84  1  0  0  0  0
 28 85  1  0  0  0  0
 29 31  2  0  0  0  0
 29 84  1  0  0  0  0
 30 86  1  0  0  0  0
 31 87  1  0  0  0  0
 32 69  2  0  0  0  0
 33 70  1  0  0  0  0
 33 74  1  0  0  0  0
 34 75  1  0  0  0  0
 34 79  2  0  0  0  0
 35 55  1  0  0  0  0
 35 76  1  0  0  0  0
 35 80  2  0  0  0  0
 36 66  1  0  0  0  0
 36 71  1  0  0  0  0
 36 81  2  0  0  0  0
 37 67  1  0  0  0  0
 37 77  1  0  0  0  0
 37 82  2  0  0  0  0
 38 72  1  0  0  0  0
 38 73  1  0  0  0  0
 38 83  2  0  0  0  0
 39 42  1  0  0  0  0
 40 55  1  0  0  0  0
 41 71  1  0  0  0  0
 42 46  1  0  0  0  0
 43 47  1  0  0  0  0
 43 49  1  0  0  0  0
 44 45  1  0  0  0  0
 44 52  1  0  0  0  0
 45 52  1  0  0  0  0
 46 54  1  0  0  0  0
 47 56  1  0  0  0  0
 48 50  1  0  0  0  0
 48 53  1  0  0  0  0
 49 72  1  0  0  0  0
 50 73  1  0  0  0  0
 51 56  1  0  0  0  0
 51 72  1  0  0  0  0
 53 73  1  0  0  0  0
 54 76  1  0  0  0  0
 55 71  1  0  0  0  0
 56 70  1  0  0  0  0
 57 64  1  0  0  0  0
 58 67  1  0  0  0  0
 59 68  1  0  0  0  0
 60 68  1  0  0  0  0
 61 68  1  0  0  0  0
 62 78  1  0  0  0  0
 63 65  1  0  0  0  0
 65 85  1  0  0  0  0
 66 68  1  0  0  0  0
 66 77  1  0  0  0  0
 67 78  1  0  0  0  0
 69 70  1  0  0  0  0
M  CHG  1  78   1
M  ISO  4  38 100  65 101  73 100  85 101
M  END
> <Batch ID>
0144

> <Smiles>
CCc1cc(C[101CH2:1][101O:1]c2ccc3c(c2)CN(C(=O)C(NC(=O)C(C)NC)C(C)(C)C)C(C(=O)NC2CCCc4ccccc42)C3)cc(C2CC2)c1C1CC[100N:0]1[100C:0](=O)N1CCCC(n2nc(-c3ccc(Oc4ccc(F)cc4F)cc3)c(C(N)=O)c2N)C1

> <Shape>
0.227

> <Color>
0.061

> <Negative vol penalty>
0.000

$$$$

  -OEChem-04052321263D

 93102  0     1  0  0  0  0  0999 V2000
  -22.8506  -11.5910   18.0304 C   0  0  0  0  0  0  0  0  0  0  0  0
  -22.4577  -12.9240   18.0933 C   0  0  0  0  0  0  0  0  0  0  0  0
  -21.2874  -22.2660   15.8618 C   0  0  0  0  0  0  0  0  0  0  0  0
  -19.2983  -21.8464   17.1673 C   0  0  0  0  0  0  0  0  0  0  0  0
  -23.8191  -11.1085   18.9097 C   0  0  0  0  0  0  0  0  0  0  0  0
  -23.0324  -13.7753   19.0365 C   0  0  0  0  0  0  0  0  0  0  0  0
  -26.7678  -20.5621   18.0299 C   0  0  0  0  0  0  0  0  0  0  0  0
  -20.5432  -22.1433   14.6885 C   0  0  0  0  0  0  0  0  0  0  0  0
  -18.5541  -21.7237   15.9940 C   0  0  0  0  0  0  0  0  0  0  0  0
  -27.5836  -21.6919   17.9651 C   0  0  0  0  0  0  0  0  0  0  0  0
  -19.2807  -19.6483   12.7896 C   0  0  0  0  0  0  0  0  0  0  0  0
  -19.8233  -18.8853   11.7557 C   0  0  0  0  0  0  0  0  0  0  0  0
  -28.6585  -21.0473   20.0332 C   0  0  0  0  0  0  0  0  0  0  0  0
  -30.8987  -29.7629   19.7175 C   0  0  0  0  0  0  0  0  0  0  0  0
  -31.5067  -27.4272   19.6085 C   0  0  0  0  0  0  0  0  0  0  0  0
  -19.7805  -20.8182   10.3068 C   0  0  0  0  0  0  0  0  0  0  0  0
  -20.6650  -22.1175   17.1012 C   0  0  0  0  0  0  0  0  0  0  0  0
  -22.5365  -21.4620   18.7061 C   0  0  0  0  0  0  0  0  0  0  0  0
  -24.4129  -11.9566   19.8577 C   0  0  0  0  0  0  0  0  0  0  0  0
  -26.9050  -19.6614   19.0898 C   0  0  0  0  0  0  0  0  0  0  0  0
  -24.0088  -13.3034   19.9302 C   0  0  0  0  0  0  0  0  0  0  0  0
  -27.8527  -19.9074   20.0968 C   0  0  0  0  0  0  0  0  0  0  0  0
  -31.8651  -28.7609   19.8047 C   0  0  0  0  0  0  0  0  0  0  0  0
  -29.2153  -28.0975   19.2380 C   0  0  0  0  0  0  0  0  0  0  0  0
  -19.1765  -21.8722   14.7546 C   0  0  0  0  0  0  0  0  0  0  0  0
  -28.5264  -21.9340   18.9645 C   0  0  0  0  0  0  0  0  0  0  0  0
  -18.9879  -20.9963   12.5821 C   0  0  0  0  0  0  0  0  0  0  0  0
  -29.5737  -29.4312   19.4341 C   0  0  0  0  0  0  0  0  0  0  0  0
  -30.1818  -27.0955   19.3252 C   0  0  0  0  0  0  0  0  0  0  0  0
  -20.0732  -19.4702   10.5143 C   0  0  0  0  0  0  0  0  0  0  0  0
  -19.2378  -21.5812   11.3408 C   0  0  0  0  0  0  0  0  0  0  0  0
  -21.4333  -22.2436   18.3136 C   0  0  0  0  0  0  0  0  0  0  0  0
  -22.9058  -21.9768   19.9247 C   0  0  0  0  0  0  0  0  0  0  0  0
  -23.1708  -20.3686   18.0295 C   0  0  0  0  0  0  0  0  0  0  0  0
  -25.7531  -16.4705   20.6919 C   0  0  0  0  0  0  0  0  0  0  0  0
  -28.8071  -16.5545   20.9685 C   0  0  0  0  0  0  0  0  0  0  0  0
  -32.1964  -16.8270   20.6941 C   0  0  0  0  0  0  0  0  0  0  0  0
  -22.1992  -27.3534   22.4632 C   0  0  0  0  0  0  0  0  0  0  0  0
  -25.4214  -11.3782   20.8184 C   0  0  0  0  0  0  0  0  0  0  0  0
  -26.0056  -18.4637   19.2325 C   0  0  0  0  0  0  0  0  0  0  0  0
  -27.9414  -18.9293   21.2363 C   0  0  0  0  0  0  0  0  0  0  0  0
  -26.2521  -12.4364   21.5398 C   0  0  0  0  0  0  0  0  0  0  0  0
  -21.0988  -24.2194   23.7452 C   0  0  0  0  0  0  0  0  0  0  0  0
  -25.3544  -13.5504   22.0690 C   0  0  0  0  0  0  0  0  0  0  0  0
  -21.1593  -23.2871   22.5340 C   0  0  0  0  0  0  0  0  0  0  0  0
  -25.1467  -28.7201   22.0235 C   0  0  0  0  0  0  0  0  0  0  0  0
  -23.8566  -29.6153   20.0502 C   0  0  0  0  0  0  0  0  0  0  0  0
  -20.6597  -25.6281   23.3518 C   0  0  0  0  0  0  0  0  0  0  0  0
  -21.5139  -25.3132   21.0616 C   0  0  0  0  0  0  0  0  0  0  0  0
  -26.0024  -29.9801   22.0275 C   0  0  0  0  0  0  0  0  0  0  0  0
  -24.7198  -30.8701   20.0634 C   0  0  0  0  0  0  0  0  0  0  0  0
  -24.6269  -14.2639   20.9230 C   0  0  1  0  0  0  0  0  0  0  0  0
  -26.7184  -17.2430   19.8417 C   0  0  1  0  0  0  0  0  0  0  0  0
  -22.0059  -23.8955   21.3998 C   0  0  2  0  0  0  0  0  0  0  0  0
  -23.7586  -28.9858   21.4399 C   0  0  0  0  0  0  0  0  0  0  0  0
  -33.2816  -29.1156   20.1077 C   0  0  0  0  0  0  0  0  0  0  0  0
  -27.1718  -26.8445   20.0173 C   0  0  0  0  0  0  0  0  0  0  0  0
  -27.6411  -27.0812   17.5518 C   0  0  0  0  0  0  0  0  0  0  0  0
  -34.3233  -15.6398   21.2978 C   0  0  0  0  0  0  0  0  0  0  0  0
  -28.4984  -17.4790   23.8588 C   0  0  0  0  0  0  0  0  0  0  0  0
  -30.9605  -17.1361   24.1569 C   0  0  0  0  0  0  0  0  0  0  0  0
  -29.4926  -15.1997   23.5927 C   0  0  0  0  0  0  0  0  0  0  0  0
  -32.9780  -16.5388   17.8542 C   0  0  0  0  0  0  0  0  0  0  0  0
  -27.0122  -31.7184   20.5533 C   0  0  0  0  0  0  0  0  0  0  0  0
  -28.4444  -31.2227   20.5162 C   0  0  0  0  0  0  0  0  0  0  0  0
  -29.7585  -23.6032   20.1278 C   0  0  0  0  0  0  0  0  0  1  0  0
  -30.6222  -24.8156   19.8389 C   0  0  0  0  0  0  0  0  0  0  0  0
  -27.7956  -27.7416   18.9334 C   0  0  0  0  0  0  0  0  0  0  0  0
  -29.9898  -16.9351   21.8227 C   0  0  1  0  0  0  0  0  0  0  0  0
  -33.2529  -15.8380   20.2358 C   0  0  2  0  0  0  0  0  0  0  0  0
  -29.7255  -16.7048   23.3374 C   0  0  0  0  0  0  0  0  0  0  0  0
  -21.1220  -23.1832   19.2103 N   0  0  0  0  0  0  0  0  0  0  0  0
  -22.0351  -22.9955   20.1784 N   0  0  0  0  0  0  0  0  0  0  0  0
  -27.8559  -17.5526   20.7244 N   0  0  0  0  0  0  0  0  0  0  0  0
  -21.5036  -26.1480   22.2732 N   0  0  0  0  0  0  0  0  0  0  0  0
  -23.8871  -21.6529   20.7933 N   0  0  0  0  0  0  0  0  0  0  0  0
  -22.7066  -19.0697   18.2778 N   0  0  0  0  0  0  0  0  0  0  0  0
  -25.5211  -15.1817   20.2505 N   0  0  0  0  0  0  0  0  0  0  0  0
  -31.1298  -16.1930   21.2954 N   0  0  0  0  0  0  0  0  0  0  0  0
  -22.9811  -27.7718   21.3935 N   0  0  0  0  0  0  0  0  0  0  0  0
  -26.0806  -30.5399   20.6275 N   0  3  0  0  0  0  0  0  0  0  0  0
  -33.9111  -16.3233   18.9900 N   0  3  0  0  0  0  0  0  0  0  0  0
  -24.1317  -20.5369   17.2410 O   0  0  0  0  0  0  0  0  0  0  0  0
  -25.2558  -17.0028   21.6773 O   0  0  0  0  0  0  0  0  0  0  0  0
  -28.7234  -15.4028   20.5329 O   0  0  0  0  0  0  0  0  0  0  0  0
  -32.3081  -18.0410   20.5379 O   0  0  0  0  0  0  0  0  0  0  0  0
  -22.1327  -28.0056   23.5106 O   0  0  0  0  0  0  0  0  0  0  0  0
  -18.4500  -21.7526   13.6098 O   0  0  0  0  0  0  0  0  0  0  0  0
  -29.3227  -23.0365   18.8928 O   0  0  0  0  0  0  0  0  0  1  0  0
  -28.6427  -30.4227   19.3524 O   0  0  0  0  0  0  0  0  0  0  0  0
  -29.8487  -25.7801   19.1355 O   0  0  0  0  0  0  0  0  0  0  0  0
  -20.5957  -18.7378    9.5220 F   0  0  0  0  0  0  0  0  0  0  0  0
  -18.9597  -22.8760   11.1358 F   0  0  0  0  0  0  0  0  0  0  0  0
  1  2  1  0  0  0  0
  1  5  2  0  0  0  0
  2  6  2  0  0  0  0
  3  8  2  0  0  0  0
  3 17  1  0  0  0  0
  4  9  1  0  0  0  0
  4 17  2  0  0  0  0
  5 19  1  0  0  0  0
  6 21  1  0  0  0  0
  7 10  2  0  0  0  0
  7 20  1  0  0  0  0
  8 25  1  0  0  0  0
  9 25  2  0  0  0  0
 10 26  1  0  0  0  0
 11 12  2  0  0  0  0
 11 27  1  0  0  0  0
 12 30  1  0  0  0  0
 13 22  1  0  0  0  0
 13 26  2  0  0  0  0
 14 23  1  0  0  0  0
 14 28  2  0  0  0  0
 15 23  2  0  0  0  0
 15 29  1  0  0  0  0
 16 30  2  0  0  0  0
 16 31  1  0  0  0  0
 17 32  1  0  0  0  0
 18 32  1  0  0  0  0
 18 33  2  0  0  0  0
 18 34  1  0  0  0  0
 19 21  2  0  0  0  0
 19 39  1  0  0  0  0
 20 22  2  0  0  0  0
 20 40  1  0  0  0  0
 21 52  1  0  0  0  0
 22 41  1  0  0  0  0
 23 56  1  0  0  0  0
 24 28  1  0  0  0  0
 24 29  2  0  0  0  0
 24 68  1  0  0  0  0
 25 88  1  0  0  0  0
 26 89  1  0  0  0  0
 27 31  2  0  0  0  0
 27 88  1  0  0  0  0
 28 90  1  0  0  0  0
 29 91  1  0  0  0  0
 30 92  1  0  0  0  0
 31 93  1  0  0  0  0
 32 72  2  0  0  0  0
 33 73  1  0  0  0  0
 33 76  1  0  0  0  0
 34 77  1  0  0  0  0
 34 83  2  0  0  0  0
 35 53  1  0  0  0  0
 35 78  1  0  0  0  0
 35 84  2  0  0  0  0
 36 69  1  0  0  0  0
 36 74  1  0  0  0  0
 36 85  2  0  0  0  0
 37 70  1  0  0  0  0
 37 79  1  0  0  0  0
 37 86  2  0  0  0  0
 38 75  1  0  0  0  0
 38 80  1  0  0  0  0
 38 87  2  0  0  0  0
 39 42  1  0  0  0  0
 40 53  1  0  0  0  0
 41 74  1  0  0  0  0
 42 44  1  0  0  0  0
 43 45  1  0  0  0  0
 43 48  1  0  0  0  0
 44 52  1  0  0  0  0
 45 54  1  0  0  0  0
 46 50  1  0  0  0  0
 46 55  1  0  0  0  0
 47 51  1  0  0  0  0
 47 55  1  0  0  0  0
 48 75  1  0  0  0  0
 49 54  1  0  0  0  0
 49 75  1  0  0  0  0
 50 81  1  0  0  0  0
 51 81  1  0  0  0  0
 52 78  1  0  0  0  0
 53 74  1  0  0  0  0
 54 73  1  0  0  0  0
 55 80  1  0  0  0  0
 57 68  1  0  0  0  0
 58 68  1  0  0  0  0
 59 70  1  0  0  0  0
 60 71  1  0  0  0  0
 61 71  1  0  0  0  0
 62 71  1  0  0  0  0
 63 82  1  0  0  0  0
 64 65  1  0  0  0  0
 64 81  1  0  0  0  0
 65 90  1  0  0  0  0
 66 67  1  0  0  0  0
 66 89  1  0  0  0  0
 67 91  1  0  0  0  0
 69 71  1  0  0  0  0
 69 79  1  0  0  0  0
 70 82  1  0  0  0  0
 72 73  1  0  0  0  0
M  CHG  2  81   1  82   1
M  ISO  4  38 100  66 101  80 100  89 101
M  END
> <Batch ID>
0144

> <Smiles>
CNC(C)C(=O)NC(C(=O)N1Cc2cc([101O:1][101CH2:1]COc3cc(C)cc(OCCN4CCC([100NH:0][100C:0](=O)N5CCCC(n6nc(-c7ccc(Oc8ccc(F)cc8F)cc7)c(C(N)=O)c6N)C5)CC4)c3C(C)C)ccc2CC1C(=O)NC1CCCc2ccccc21)C(C)(C)C

> <Shape>
0.189

> <Color>
0.072

> <Negative vol penalty>
0.000

$$$$

  -OEChem-04052321263D

 87 96  0     1  0  0  0  0  0999 V2000
  -29.7372  -32.5440   25.9265 C   0  0  0  0  0  0  0  0  0  0  0  0
  -29.3427  -31.3574   25.3169 C   0  0  0  0  0  0  0  0  0  0  0  0
  -24.1932  -10.3488   23.0538 C   0  0  0  0  0  0  0  0  0  0  0  0
  -23.6500   -9.0879   21.0657 C   0  0  0  0  0  0  0  0  0  0  0  0
  -28.7861  -33.5121   26.2459 C   0  0  0  0  0  0  0  0  0  0  0  0
  -27.9964  -31.1377   25.0272 C   0  0  0  0  0  0  0  0  0  0  0  0
  -27.2922  -29.2444   20.3835 C   0  0  0  0  0  0  0  0  0  0  0  0
  -23.2873   -9.5826   23.7872 C   0  0  0  0  0  0  0  0  0  0  0  0
  -22.7441   -8.3217   21.7992 C   0  0  0  0  0  0  0  0  0  0  0  0
  -27.5449  -27.8850   20.2050 C   0  0  0  0  0  0  0  0  0  0  0  0
  -22.8564   -5.7239   23.9577 C   0  0  0  0  0  0  0  0  0  0  0  0
  -22.8755   -4.3422   23.7675 C   0  0  0  0  0  0  0  0  0  0  0  0
  -25.1796  -27.4329   20.3463 C   0  0  0  0  0  0  0  0  0  0  0  0
  -28.5945  -21.6557   21.5012 C   0  0  0  0  0  0  0  0  0  0  0  0
  -31.0888  -22.6891   22.2035 C   0  0  0  0  0  0  0  0  0  0  0  0
  -20.5742   -4.4112   23.0353 C   0  0  0  0  0  0  0  0  0  0  0  0
  -24.3744  -10.1015   21.6930 C   0  0  0  0  0  0  0  0  0  0  0  0
  -26.6768  -10.6281   20.7289 C   0  0  0  0  0  0  0  0  0  0  0  0
  -27.4288  -33.3084   25.9512 C   0  0  0  0  0  0  0  0  0  0  0  0
  -25.9800  -29.7078   20.5558 C   0  0  0  0  0  0  0  0  0  0  0  0
  -27.0261  -32.1035   25.3441 C   0  0  0  0  0  0  0  0  0  0  0  0
  -24.9127  -28.7990   20.5242 C   0  0  0  0  0  0  0  0  0  0  0  0
  -29.7237  -20.8377   21.4646 C   0  0  0  0  0  0  0  0  0  0  0  0
  -30.9709  -21.3544   21.8157 C   0  0  0  0  0  0  0  0  0  0  0  0
  -29.9596  -23.5071   22.2400 C   0  0  0  0  0  0  0  0  0  0  0  0
  -22.5628   -8.5690   23.1600 C   0  0  0  0  0  0  0  0  0  0  0  0
  -26.4888  -26.9786   20.1893 C   0  0  0  0  0  0  0  0  0  0  0  0
  -21.6961   -6.4492   23.6868 C   0  0  0  0  0  0  0  0  0  0  0  0
  -28.7124  -22.9904   21.8889 C   0  0  0  0  0  0  0  0  0  0  0  0
  -21.7344   -3.6858   23.3062 C   0  0  0  0  0  0  0  0  0  0  0  0
  -20.5551   -5.7929   23.2256 C   0  0  0  0  0  0  0  0  0  0  0  0
  -25.3096  -10.8930   20.9347 C   0  0  0  0  0  0  0  0  0  0  0  0
  -27.1146  -11.6695   19.9477 C   0  0  0  0  0  0  0  0  0  0  0  0
  -27.4793   -9.5380   21.2015 C   0  0  0  0  0  0  0  0  0  0  0  0
  -24.4205  -31.2153   22.8794 C   0  0  0  0  0  0  0  0  0  0  0  0
  -22.0348  -31.3131   20.6837 C   0  0  0  0  0  0  0  0  0  0  0  0
  -20.6143  -29.9685   17.8870 C   0  0  0  0  0  0  0  0  0  0  0  0
  -27.3315  -16.9742   18.5935 C   0  0  0  0  0  0  0  0  0  0  0  0
  -26.4312  -34.3637   26.3582 C   0  0  0  0  0  0  0  0  0  0  0  0
  -25.7218  -31.1804   20.7204 C   0  0  0  0  0  0  0  0  0  0  0  0
  -23.4839  -29.2478   20.6844 C   0  0  0  0  0  0  0  0  0  0  0  0
  -25.0731  -34.2128   25.6778 C   0  0  0  0  0  0  0  0  0  0  0  0
  -24.5484  -15.2526   17.4805 C   0  0  0  0  0  0  0  0  0  0  0  0
  -24.6055  -32.7620   25.7352 C   0  0  0  0  0  0  0  0  0  0  0  0
  -24.6004  -13.9370   18.2569 C   0  0  0  0  0  0  0  0  0  0  0  0
  -28.2081  -18.8068   21.4555 C   0  0  0  0  0  0  0  0  0  0  0  0
  -29.8002  -19.2050   19.5277 C   0  0  0  0  0  0  0  0  0  0  0  0
  -24.9263  -16.4286   18.3736 C   0  0  0  0  0  0  0  0  0  0  0  0
  -28.0474  -17.3554   20.9941 C   0  0  0  0  0  0  0  0  0  0  0  0
  -29.6231  -17.7429   19.1287 C   0  0  0  0  0  0  0  0  0  0  0  0
  -26.3345  -14.9786   19.7993 C   0  0  0  0  0  0  0  0  0  0  0  0
  -29.5705  -19.3897   21.0386 C   0  0  0  0  0  0  0  0  0  0  0  0
  -25.5784  -31.8390   24.9916 C   0  0  1  0  0  0  0  0  0  0  0  0
  -24.3900  -31.4812   21.4009 C   0  0  1  0  0  0  0  0  0  0  0  0
  -25.9670  -13.7517   18.9400 C   0  0  1  0  0  0  0  0  0  0  0  0
  -32.1935  -20.4972   21.7845 C   0  0  0  0  0  0  0  0  0  0  0  0
  -30.1045  -24.9337   22.6562 C   0  0  0  0  0  0  0  0  0  0  0  0
  -18.6491  -30.2407   16.3505 C   0  0  0  0  0  0  0  0  0  0  0  0
  -20.2213  -30.0402   22.7815 C   0  0  0  0  0  0  0  0  0  0  0  0
  -18.6136  -29.4744   20.9475 C   0  0  0  0  0  0  0  0  0  0  0  0
  -19.1496  -31.8600   21.4420 C   0  0  0  0  0  0  0  0  0  0  0  0
  -22.3617  -30.4839   15.5547 C   0  0  0  0  0  0  0  0  0  0  0  0
  -25.8237  -24.7380   20.6287 C   0  0  0  0  0  0  0  0  0  1  0  0
  -26.5607  -23.4639   20.9935 C   0  0  0  0  0  0  0  0  0  0  0  0
  -20.8847  -30.4079   20.3136 C   0  0  1  0  0  0  0  0  0  0  0  0
  -20.1014  -30.6096   16.6102 C   0  0  2  0  0  0  0  0  0  0  0  0
  -19.7443  -30.4366   21.3701 C   0  0  0  0  0  0  0  0  0  0  0  0
  -24.9055  -12.0149   20.3329 N   0  0  0  0  0  0  0  0  0  0  0  0
  -26.0255  -12.4642   19.7415 N   0  0  0  0  0  0  0  0  0  0  0  0
  -23.2834  -30.6970   20.8488 N   0  0  0  0  0  0  0  0  0  0  0  0
  -26.2275  -16.2131   19.0063 N   0  0  0  0  0  0  0  0  0  0  0  0
  -28.3193  -17.2350   19.5550 N   0  0  0  0  0  0  0  0  0  0  0  0
  -28.3211  -11.9739   19.4242 N   0  0  0  0  0  0  0  0  0  0  0  0
  -26.8706   -8.5541   21.9927 N   0  0  0  0  0  0  0  0  0  0  0  0
  -25.3785  -31.9406   23.5618 N   0  0  0  0  0  0  0  0  0  0  0  0
  -20.4676  -30.8051   18.9732 N   0  0  0  0  0  0  0  0  0  0  0  0
  -20.9152  -30.1641   15.4438 N   0  3  0  0  0  0  0  0  0  0  0  0
  -28.7037   -9.4479   20.9439 O   0  0  0  0  0  0  0  0  0  0  0  0
  -23.6322  -30.4127   23.3654 O   0  0  0  0  0  0  0  0  0  0  0  0
  -21.8342  -32.5232   20.8142 O   0  0  0  0  0  0  0  0  0  0  0  0
  -21.0935  -28.8372   17.9185 O   0  0  0  0  0  0  0  0  0  0  0  0
  -27.4298  -17.3956   17.4342 O   0  0  0  0  0  0  0  0  0  0  0  0
  -21.6790   -7.8210   23.8754 O   0  0  0  0  0  0  0  0  0  0  0  0
  -26.7344  -25.6421   20.0148 O   0  0  0  0  0  0  0  0  0  1  0  0
  -27.5993  -23.7755   21.9198 O   0  0  0  0  0  0  0  0  0  0  0  0
  -21.7534   -2.3592   23.1221 F   0  0  0  0  0  0  0  0  0  0  0  0
  -19.4378   -6.4845   22.9625 F   0  0  0  0  0  0  0  0  0  0  0  0
  1  2  1  0  0  0  0
  1  5  2  0  0  0  0
  2  6  2  0  0  0  0
  3  8  2  0  0  0  0
  3 17  1  0  0  0  0
  4  9  1  0  0  0  0
  4 17  2  0  0  0  0
  5 19  1  0  0  0  0
  6 21  1  0  0  0  0
  7 10  2  0  0  0  0
  7 20  1  0  0  0  0
  8 26  1  0  0  0  0
  9 26  2  0  0  0  0
 10 27  1  0  0  0  0
 11 12  2  0  0  0  0
 11 28  1  0  0  0  0
 12 30  1  0  0  0  0
 13 22  1  0  0  0  0
 13 27  2  0  0  0  0
 14 23  2  0  0  0  0
 14 29  1  0  0  0  0
 15 24  2  0  0  0  0
 15 25  1  0  0  0  0
 16 30  2  0  0  0  0
 16 31  1  0  0  0  0
 17 32  1  0  0  0  0
 18 32  1  0  0  0  0
 18 33  2  0  0  0  0
 18 34  1  0  0  0  0
 19 21  2  0  0  0  0
 19 39  1  0  0  0  0
 20 22  2  0  0  0  0
 20 40  1  0  0  0  0
 21 53  1  0  0  0  0
 22 41  1  0  0  0  0
 23 24  1  0  0  0  0
 23 52  1  0  0  0  0
 24 56  1  0  0  0  0
 25 29  2  0  0  0  0
 25 57  1  0  0  0  0
 26 83  1  0  0  0  0
 27 84  1  0  0  0  0
 28 31  2  0  0  0  0
 28 83  1  0  0  0  0
 29 85  1  0  0  0  0
 30 86  1  0  0  0  0
 31 87  1  0  0  0  0
 32 68  2  0  0  0  0
 33 69  1  0  0  0  0
 33 73  1  0  0  0  0
 34 74  1  0  0  0  0
 34 78  2  0  0  0  0
 35 54  1  0  0  0  0
 35 75  1  0  0  0  0
 35 79  2  0  0  0  0
 36 65  1  0  0  0  0
 36 70  1  0  0  0  0
 36 80  2  0  0  0  0
 37 66  1  0  0  0  0
 37 76  1  0  0  0  0
 37 81  2  0  0  0  0
 38 71  1  0  0  0  0
 38 72  1  0  0  0  0
 38 82  2  0  0  0  0
 39 42  1  0  0  0  0
 40 54  1  0  0  0  0
 41 70  1  0  0  0  0
 42 44  1  0  0  0  0
 43 45  1  0  0  0  0
 43 48  1  0  0  0  0
 44 53  1  0  0  0  0
 45 55  1  0  0  0  0
 46 49  1  0  0  0  0
 46 52  1  0  0  0  0
 47 50  1  0  0  0  0
 47 52  1  0  0  0  0
 48 71  1  0  0  0  0
 49 72  1  0  0  0  0
 50 72  1  0  0  0  0
 51 55  1  0  0  0  0
 51 71  1  0  0  0  0
 53 75  1  0  0  0  0
 54 70  1  0  0  0  0
 55 69  1  0  0  0  0
 58 66  1  0  0  0  0
 59 67  1  0  0  0  0
 60 67  1  0  0  0  0
 61 67  1  0  0  0  0
 62 77  1  0  0  0  0
 63 64  1  0  0  0  0
 63 84  1  0  0  0  0
 64 85  1  0  0  0  0
 65 67  1  0  0  0  0
 65 76  1  0  0  0  0
 66 77  1  0  0  0  0
 68 69  1  0  0  0  0
M  CHG  1  77   1
M  ISO  4  38 100  63 101  72 100  84 101
M  END
> <Batch ID>
0144

> <Smiles>
CNC(C)C(=O)NC(C(=O)N1Cc2cc([101O:1][101CH2:1]COc3cc(C4CC[100N:0]([100C:0](=O)N5CCCC(n6nc(-c7ccc(Oc8ccc(F)cc8F)cc7)c(C(N)=O)c6N)C5)CC4)c(C)cc3C)ccc2CC1C(=O)NC1CCCc2ccccc21)C(C)(C)C

> <Shape>
0.280

> <Color>
0.070

> <Negative vol penalty>
0.000

$$$$

  -OEChem-04052321263D

 85 94  0     1  0  0  0  0  0999 V2000
  -23.0060  -29.1554   23.9307 C   0  0  0  0  0  0  0  0  0  0  0  0
  -23.4317  -27.8467   23.7274 C   0  0  0  0  0  0  0  0  0  0  0  0
  -21.1872  -20.4654   21.6580 C   0  0  0  0  0  0  0  0  0  0  0  0
  -22.6696  -20.0918   23.5289 C   0  0  0  0  0  0  0  0  0  0  0  0
  -23.4575  -30.1726   23.0908 C   0  0  0  0  0  0  0  0  0  0  0  0
  -24.3083  -27.5541   22.6832 C   0  0  0  0  0  0  0  0  0  0  0  0
  -28.7421  -23.3295   22.6730 C   0  0  0  0  0  0  0  0  0  0  0  0
  -30.0220  -14.9735   21.4146 C   0  0  0  0  0  0  0  0  0  0  0  0
  -20.3397  -21.2101   22.4782 C   0  0  0  0  0  0  0  0  0  0  0  0
  -21.8221  -20.8366   24.3490 C   0  0  0  0  0  0  0  0  0  0  0  0
  -28.7996  -22.0314   22.1676 C   0  0  0  0  0  0  0  0  0  0  0  0
  -30.4343  -16.2871   21.1908 C   0  0  0  0  0  0  0  0  0  0  0  0
  -17.9700  -23.5127   23.9940 C   0  0  0  0  0  0  0  0  0  0  0  0
  -17.4794  -24.7191   23.4944 C   0  0  0  0  0  0  0  0  0  0  0  0
  -29.8409  -22.8664   20.1582 C   0  0  0  0  0  0  0  0  0  0  0  0
  -29.6822  -16.1328   18.9000 C   0  0  0  0  0  0  0  0  0  0  0  0
  -19.7390  -25.5427   23.2646 C   0  0  0  0  0  0  0  0  0  0  0  0
  -22.3521  -19.9061   22.1834 C   0  0  0  0  0  0  0  0  0  0  0  0
  -24.3103  -19.6145   20.5747 C   0  0  0  0  0  0  0  0  0  0  0  0
  -24.3477  -29.8939   22.0418 C   0  0  0  0  0  0  0  0  0  0  0  0
  -29.2243  -24.4089   21.9190 C   0  0  0  0  0  0  0  0  0  0  0  0
  -24.7711  -28.5683   21.8276 C   0  0  0  0  0  0  0  0  0  0  0  0
  -29.7906  -24.1769   20.6574 C   0  0  0  0  0  0  0  0  0  0  0  0
  -29.2700  -14.8191   19.1238 C   0  0  0  0  0  0  0  0  0  0  0  0
  -29.4399  -14.2395   20.3811 C   0  0  0  0  0  0  0  0  0  0  0  0
  -20.6572  -21.3958   23.8237 C   0  0  0  0  0  0  0  0  0  0  0  0
  -29.3465  -21.8000   20.9088 C   0  0  0  0  0  0  0  0  0  0  0  0
  -30.2643  -16.8668   19.9335 C   0  0  0  0  0  0  0  0  0  0  0  0
  -19.3451  -23.3213   24.1289 C   0  0  0  0  0  0  0  0  0  0  0  0
  -18.3639  -25.7341   23.1297 C   0  0  0  0  0  0  0  0  0  0  0  0
  -20.2296  -24.3363   23.7642 C   0  0  0  0  0  0  0  0  0  0  0  0
  -23.2277  -19.1362   21.3368 C   0  0  0  0  0  0  0  0  0  0  0  0
  -24.8135  -18.4973   19.9540 C   0  0  0  0  0  0  0  0  0  0  0  0
  -24.8161  -20.9493   20.4399 C   0  0  0  0  0  0  0  0  0  0  0  0
  -27.9315  -27.0355   20.6806 C   0  0  0  0  0  0  0  0  0  0  0  0
  -31.0108  -27.7285   19.9323 C   0  0  0  0  0  0  0  0  0  0  0  0
  -34.1695  -26.5916   19.3187 C   0  0  0  0  0  0  0  0  0  0  0  0
  -25.6976  -12.8596   20.9283 C   0  0  0  0  0  0  0  0  0  0  0  0
  -24.7712  -31.0189   21.1309 C   0  0  0  0  0  0  0  0  0  0  0  0
  -29.1793  -25.7999   22.4896 C   0  0  0  0  0  0  0  0  0  0  0  0
  -30.3406  -25.2989   19.8165 C   0  0  0  0  0  0  0  0  0  0  0  0
  -25.9930  -30.6854   20.2786 C   0  0  0  0  0  0  0  0  0  0  0  0
  -23.0327  -14.0147   18.8690 C   0  0  0  0  0  0  0  0  0  0  0  0
  -27.9665  -14.8053   16.8934 C   0  0  0  0  0  0  0  0  0  0  0  0
  -27.1508  -14.0249   17.8762 C   0  0  0  0  0  0  0  0  0  0  0  0
  -25.8427  -29.3050   19.6471 C   0  0  0  0  0  0  0  0  0  0  0  0
  -22.9120  -15.4975   19.2246 C   0  0  0  0  0  0  0  0  0  0  0  0
  -23.3872  -13.1686   20.0899 C   0  0  0  0  0  0  0  0  0  0  0  0
  -24.4638  -15.0979   21.1818 C   0  0  0  0  0  0  0  0  0  0  0  0
  -28.6507  -14.0521   18.0029 C   0  0  0  0  0  0  0  0  0  0  0  0
  -25.7412  -28.2152   20.7211 C   0  0  1  0  0  0  0  0  0  0  0  0
  -29.2311  -26.8864   21.4199 C   0  0  1  0  0  0  0  0  0  0  0  0
  -24.1625  -15.9986   19.9717 C   0  0  2  0  0  0  0  0  0  0  0  0
  -36.4651  -27.3921   18.6967 C   0  0  0  0  0  0  0  0  0  0  0  0
  -30.0910  -28.1186   17.0493 C   0  0  0  0  0  0  0  0  0  0  0  0
  -32.4870  -27.9700   16.3383 C   0  0  0  0  0  0  0  0  0  0  0  0
  -31.7491  -29.8094   17.8532 C   0  0  0  0  0  0  0  0  0  0  0  0
  -35.3403  -25.5457   21.8275 C   0  0  0  0  0  0  0  0  0  0  0  0
  -29.0073  -12.8346   20.6463 C   0  0  0  0  0  0  0  0  0  0  0  0
  -28.0139  -12.7089   21.8064 C   0  0  0  0  0  0  0  0  0  0  0  0
  -29.9764  -20.3695   19.1164 C   0  0  0  0  0  0  0  0  0  1  0  0
  -29.9428  -18.9002   18.7429 C   0  0  0  0  0  0  0  0  0  0  0  0
  -31.9126  -27.4526   18.7535 C   0  0  1  0  0  0  0  0  0  0  0  0
  -35.5219  -27.0450   19.8381 C   0  0  2  0  0  0  0  0  0  0  0  0
  -31.5479  -28.3165   17.5133 C   0  0  0  0  0  0  0  0  0  0  0  0
  -23.0525  -17.8179   21.2130 N   0  0  0  0  0  0  0  0  0  0  0  0
  -24.0318  -17.4582   20.3658 N   0  0  0  0  0  0  0  0  0  0  0  0
  -30.2681  -26.6418   20.4155 N   0  0  0  0  0  0  0  0  0  0  0  0
  -24.5828  -13.6958   20.7520 N   0  0  0  0  0  0  0  0  0  0  0  0
  -25.8438  -18.3122   19.1016 N   0  0  0  0  0  0  0  0  0  0  0  0
  -24.1812  -21.9790   21.1476 N   0  0  0  0  0  0  0  0  0  0  0  0
  -27.0484  -27.9212   21.2680 N   0  0  0  0  0  0  0  0  0  0  0  0
  -33.2782  -27.6400   19.2316 N   0  0  0  0  0  0  0  0  0  0  0  0
  -26.7911  -13.4400   21.5592 N   0  0  0  0  0  0  0  0  0  0  0  0
  -36.1499  -25.9692   20.6561 N   0  3  0  0  0  0  0  0  0  0  0  0
  -25.7917  -21.2234   19.7005 O   0  0  0  0  0  0  0  0  0  0  0  0
  -27.7444  -26.3954   19.6525 O   0  0  0  0  0  0  0  0  0  0  0  0
  -30.9723  -28.8645   20.4114 O   0  0  0  0  0  0  0  0  0  0  0  0
  -33.9291  -25.4247   19.0166 O   0  0  0  0  0  0  0  0  0  0  0  0
  -25.7188  -11.6845   20.5467 O   0  0  0  0  0  0  0  0  0  0  0  0
  -19.8306  -22.1227   24.6242 O   0  0  0  0  0  0  0  0  0  0  0  0
  -29.4033  -20.5341   20.4128 O   0  0  0  0  0  0  0  0  0  1  0  0
  -30.6692  -18.1572   19.7142 O   0  0  0  0  0  0  0  0  0  0  0  0
  -17.8927  -26.8920   22.6486 F   0  0  0  0  0  0  0  0  0  0  0  0
  -21.5517  -24.1579   23.8904 F   0  0  0  0  0  0  0  0  0  0  0  0
  1  2  1  0  0  0  0
  1  5  2  0  0  0  0
  2  6  2  0  0  0  0
  3  9  2  0  0  0  0
  3 18  1  0  0  0  0
  4 10  1  0  0  0  0
  4 18  2  0  0  0  0
  5 20  1  0  0  0  0
  6 22  1  0  0  0  0
  7 11  2  0  0  0  0
  7 21  1  0  0  0  0
  8 12  2  0  0  0  0
  8 25  1  0  0  0  0
  9 26  1  0  0  0  0
 10 26  2  0  0  0  0
 11 27  1  0  0  0  0
 12 28  1  0  0  0  0
 13 14  2  0  0  0  0
 13 29  1  0  0  0  0
 14 30  1  0  0  0  0
 15 23  1  0  0  0  0
 15 27  2  0  0  0  0
 16 24  1  0  0  0  0
 16 28  2  0  0  0  0
 17 30  2  0  0  0  0
 17 31  1  0  0  0  0
 18 32  1  0  0  0  0
 19 32  1  0  0  0  0
 19 33  2  0  0  0  0
 19 34  1  0  0  0  0
 20 22  2  0  0  0  0
 20 39  1  0  0  0  0
 21 23  2  0  0  0  0
 21 40  1  0  0  0  0
 22 51  1  0  0  0  0
 23 41  1  0  0  0  0
 24 25  2  0  0  0  0
 24 50  1  0  0  0  0
 25 59  1  0  0  0  0
 26 81  1  0  0  0  0
 27 82  1  0  0  0  0
 28 83  1  0  0  0  0
 29 31  2  0  0  0  0
 29 81  1  0  0  0  0
 30 84  1  0  0  0  0
 31 85  1  0  0  0  0
 32 66  2  0  0  0  0
 33 67  1  0  0  0  0
 33 70  1  0  0  0  0
 34 71  1  0  0  0  0
 34 76  2  0  0  0  0
 35 52  1  0  0  0  0
 35 72  1  0  0  0  0
 35 77  2  0  0  0  0
 36 63  1  0  0  0  0
 36 68  1  0  0  0  0
 36 78  2  0  0  0  0
 37 64  1  0  0  0  0
 37 73  1  0  0  0  0
 37 79  2  0  0  0  0
 38 69  1  0  0  0  0
 38 74  1  0  0  0  0
 38 80  2  0  0  0  0
 39 42  1  0  0  0  0
 40 52  1  0  0  0  0
 41 68  1  0  0  0  0
 42 46  1  0  0  0  0
 43 47  1  0  0  0  0
 43 48  1  0  0  0  0
 44 45  1  0  0  0  0
 44 50  1  0  0  0  0
 45 50  1  0  0  0  0
 46 51  1  0  0  0  0
 47 53  1  0  0  0  0
 48 69  1  0  0  0  0
 49 53  1  0  0  0  0
 49 69  1  0  0  0  0
 51 72  1  0  0  0  0
 52 68  1  0  0  0  0
 53 67  1  0  0  0  0
 54 64  1  0  0  0  0
 55 65  1  0  0  0  0
 56 65  1  0  0  0  0
 57 65  1  0  0  0  0
 58 75  1  0  0  0  0
 59 60  1  0  0  0  0
 60 74  1  0  0  0  0
 61 62  1  0  0  0  0
 61 82  1  0  0  0  0
 62 83  1  0  0  0  0
 63 65  1  0  0  0  0
 63 73  1  0  0  0  0
 64 75  1  0  0  0  0
 66 67  1  0  0  0  0
M  CHG  1  75   1
M  ISO  4  38 100  61 101  74 100  82 101
M  END
> <Batch ID>
0144

> <Smiles>
CNC(C)C(=O)NC(C(=O)N1Cc2cc([101O:1][101CH2:1]COc3ccc(CC[100NH:0][100C:0](=O)N4CCCC(n5nc(-c6ccc(Oc7ccc(F)cc7F)cc6)c(C(N)=O)c5N)C4)c(C4CC4)c3)ccc2CC1C(=O)NC1CCCc2ccccc21)C(C)(C)C

> <Shape>
0.215

> <Color>
0.070

> <Negative vol penalty>
0.000

$$$$

  -OEChem-04052321263D

 88 97  0     1  0  0  0  0  0999 V2000
  -26.4499  -33.9333   19.3565 C   0  0  0  0  0  0  0  0  0  0  0  0
  -26.5835  -32.5486   19.3528 C   0  0  0  0  0  0  0  0  0  0  0  0
  -23.0176   -9.9064   19.9295 C   0  0  0  0  0  0  0  0  0  0  0  0
  -23.8117   -9.8380   22.2103 C   0  0  0  0  0  0  0  0  0  0  0  0
  -25.7045  -34.5579   20.3556 C   0  0  0  0  0  0  0  0  0  0  0  0
  -25.9727  -31.7876   20.3489 C   0  0  0  0  0  0  0  0  0  0  0  0
  -23.6234  -27.6983   18.5040 C   0  0  0  0  0  0  0  0  0  0  0  0
  -29.4400  -20.0973   19.4740 C   0  0  0  0  0  0  0  0  0  0  0  0
  -22.2681   -8.7521   20.1558 C   0  0  0  0  0  0  0  0  0  0  0  0
  -23.0621   -8.6836   22.4366 C   0  0  0  0  0  0  0  0  0  0  0  0
  -24.4195  -26.6046   18.1668 C   0  0  0  0  0  0  0  0  0  0  0  0
  -28.9088  -21.1270   18.6974 C   0  0  0  0  0  0  0  0  0  0  0  0
  -23.3173   -5.3779   21.7748 C   0  0  0  0  0  0  0  0  0  0  0  0
  -23.9349   -4.3265   22.4521 C   0  0  0  0  0  0  0  0  0  0  0  0
  -23.8346  -25.5434   20.2527 C   0  0  0  0  0  0  0  0  0  0  0  0
  -22.2607   -4.4616   24.1887 C   0  0  0  0  0  0  0  0  0  0  0  0
  -23.7895  -10.4494   20.9567 C   0  0  0  0  0  0  0  0  0  0  0  0
  -24.1503  -12.9743   20.9078 C   0  0  0  0  0  0  0  0  0  0  0  0
  -25.0762  -33.8035   21.3589 C   0  0  0  0  0  0  0  0  0  0  0  0
  -22.9344  -27.7276   19.7250 C   0  0  0  0  0  0  0  0  0  0  0  0
  -25.2193  -32.4028   21.3631 C   0  0  0  0  0  0  0  0  0  0  0  0
  -23.0283  -26.6375   20.6019 C   0  0  0  0  0  0  0  0  0  0  0  0
  -26.6953  -20.5957   19.5071 C   0  0  0  0  0  0  0  0  0  0  0  0
  -28.5989  -19.3167   20.2670 C   0  0  0  0  0  0  0  0  0  0  0  0
  -22.2903   -8.1407   21.4093 C   0  0  0  0  0  0  0  0  0  0  0  0
  -24.5275  -25.5282   19.0424 C   0  0  0  0  0  0  0  0  0  0  0  0
  -27.5365  -21.3763   18.7140 C   0  0  0  0  0  0  0  0  0  0  0  0
  -22.1713   -5.9712   22.3045 C   0  0  0  0  0  0  0  0  0  0  0  0
  -27.2266  -19.5659   20.2836 C   0  0  0  0  0  0  0  0  0  0  0  0
  -23.4066   -3.8683   23.6590 C   0  0  0  0  0  0  0  0  0  0  0  0
  -21.6430   -5.5130   23.5114 C   0  0  0  0  0  0  0  0  0  0  0  0
  -24.5644  -11.6415   20.7234 C   0  0  0  0  0  0  0  0  0  0  0  0
  -25.2431  -13.7259   20.5508 C   0  0  0  0  0  0  0  0  0  0  0  0
  -22.8905  -13.4870   21.3613 C   0  0  0  0  0  0  0  0  0  0  0  0
  -23.0019  -29.5977   22.2944 C   0  0  0  0  0  0  0  0  0  0  0  0
  -20.4660  -27.7878   23.1980 C   0  0  0  0  0  0  0  0  0  0  0  0
  -18.7721  -24.8369   22.9343 C   0  0  0  0  0  0  0  0  0  0  0  0
  -30.7372  -14.6960   20.6867 C   0  0  0  0  0  0  0  0  0  0  0  0
  -24.3200  -34.5269   22.4450 C   0  0  0  0  0  0  0  0  0  0  0  0
  -22.0585  -28.9030   20.0621 C   0  0  0  0  0  0  0  0  0  0  0  0
  -22.2927  -26.6110   21.9159 C   0  0  0  0  0  0  0  0  0  0  0  0
  -23.3935  -33.6195   23.2503 C   0  0  0  0  0  0  0  0  0  0  0  0
  -29.5445  -12.3939   18.2466 C   0  0  0  0  0  0  0  0  0  0  0  0
  -24.2758  -19.7455   19.1955 C   0  0  0  0  0  0  0  0  0  0  0  0
  -24.4686  -20.8678   18.2242 C   0  0  0  0  0  0  0  0  0  0  0  0
  -24.1167  -32.3370   23.6492 C   0  0  0  0  0  0  0  0  0  0  0  0
  -28.1113  -12.0984   18.6922 C   0  0  0  0  0  0  0  0  0  0  0  0
  -30.4813  -12.5710   19.4395 C   0  0  0  0  0  0  0  0  0  0  0  0
  -28.6065  -13.2745   20.8762 C   0  0  0  0  0  0  0  0  0  0  0  0
  -25.2249  -20.8654   19.5247 C   0  0  0  0  0  0  0  0  0  0  0  0
  -24.5511  -31.5411   22.4125 C   0  0  1  0  0  0  0  0  0  0  0  0
  -21.8098  -29.0528   21.5598 C   0  0  1  0  0  0  0  0  0  0  0  0
  -27.6135  -13.1433   19.7088 C   0  0  2  0  0  0  0  0  0  0  0  0
  -16.7557  -23.6367   23.8237 C   0  0  0  0  0  0  0  0  0  0  0  0
  -21.9468  -27.2399   25.8089 C   0  0  0  0  0  0  0  0  0  0  0  0
  -20.3733  -25.3365   26.2207 C   0  0  0  0  0  0  0  0  0  0  0  0
  -19.4964  -27.6670   26.0691 C   0  0  0  0  0  0  0  0  0  0  0  0
  -17.5583  -24.6397   20.2424 C   0  0  0  0  0  0  0  0  0  0  0  0
  -26.1693  -19.2474   22.3899 C   0  0  0  0  0  0  0  0  0  0  0  0
  -30.5506  -17.9832   21.0659 C   0  0  0  0  0  0  0  0  0  0  0  0
  -30.8392  -16.8075   21.9868 C   0  0  0  0  0  0  0  0  0  0  0  0
  -26.4387  -24.7104   17.8872 C   0  0  0  0  0  0  0  0  0  1  0  0
  -27.5226  -23.7009   18.2126 C   0  0  0  0  0  0  0  0  0  0  0  0
  -20.2909  -26.5026   23.9703 C   0  0  1  0  0  0  0  0  0  0  0  0
  -17.2990  -24.5363   22.7245 C   0  0  2  0  0  0  0  0  0  0  0  0
  -20.5424  -26.6875   25.4934 C   0  0  0  0  0  0  0  0  0  0  0  0
  -25.8221  -11.5485   20.2833 N   0  0  0  0  0  0  0  0  0  0  0  0
  -26.2076  -12.8324   20.1881 N   0  0  0  0  0  0  0  0  0  0  0  0
  -21.4540  -27.7864   22.2031 N   0  0  0  0  0  0  0  0  0  0  0  0
  -29.9525  -13.5765   20.3644 N   0  0  0  0  0  0  0  0  0  0  0  0
  -25.4633  -15.0573   20.5149 N   0  0  0  0  0  0  0  0  0  0  0  0
  -21.8763  -12.5759   21.6863 N   0  0  0  0  0  0  0  0  0  0  0  0
  -29.1523  -18.2782   21.0477 N   0  0  0  0  0  0  0  0  0  0  0  0
  -23.4231  -30.8344   21.8444 N   0  0  0  0  0  0  0  0  0  0  0  0
  -18.9592  -26.0064   23.6404 N   0  0  0  0  0  0  0  0  0  0  0  0
  -30.1584  -15.6035   21.5654 N   0  0  0  0  0  0  0  0  0  0  0  0
  -17.0905  -23.8564   21.4148 N   0  3  0  0  0  0  0  0  0  0  0  0
  -22.6653  -14.7171   21.4594 O   0  0  0  0  0  0  0  0  0  0  0  0
  -23.5016  -28.9451   23.2033 O   0  0  0  0  0  0  0  0  0  0  0  0
  -19.7477  -28.7551   23.4626 O   0  0  0  0  0  0  0  0  0  0  0  0
  -19.6672  -24.1054   22.5171 O   0  0  0  0  0  0  0  0  0  0  0  0
  -31.8677  -14.8763   20.2214 O   0  0  0  0  0  0  0  0  0  0  0  0
  -21.5588   -7.0143   21.6305 O   0  0  0  0  0  0  0  0  0  0  0  0
  -26.4031  -18.8002   21.0571 O   0  0  0  0  0  0  0  0  0  0  0  0
  -25.3044  -24.4596   18.7161 O   0  0  0  0  0  0  0  0  0  1  0  0
  -27.0344  -22.3922   17.9440 O   0  0  0  0  0  0  0  0  0  0  0  0
  -23.9990   -2.8577   24.3085 F   0  0  0  0  0  0  0  0  0  0  0  0
  -20.5417   -6.0782   24.0246 F   0  0  0  0  0  0  0  0  0  0  0  0
  1  2  1  0  0  0  0
  1  5  2  0  0  0  0
  2  6  2  0  0  0  0
  3  9  2  0  0  0  0
  3 17  1  0  0  0  0
  4 10  1  0  0  0  0
  4 17  2  0  0  0  0
  5 19  1  0  0  0  0
  6 21  1  0  0  0  0
  7 11  2  0  0  0  0
  7 20  1  0  0  0  0
  8 12  2  0  0  0  0
  8 24  1  0  0  0  0
  9 25  1  0  0  0  0
 10 25  2  0  0  0  0
 11 26  1  0  0  0  0
 12 27  1  0  0  0  0
 13 14  2  0  0  0  0
 13 28  1  0  0  0  0
 14 30  1  0  0  0  0
 15 22  1  0  0  0  0
 15 26  2  0  0  0  0
 16 30  2  0  0  0  0
 16 31  1  0  0  0  0
 17 32  1  0  0  0  0
 18 32  1  0  0  0  0
 18 33  2  0  0  0  0
 18 34  1  0  0  0  0
 19 21  2  0  0  0  0
 19 39  1  0  0  0  0
 20 22  2  0  0  0  0
 20 40  1  0  0  0  0
 21 51  1  0  0  0  0
 22 41  1  0  0  0  0
 23 27  2  0  0  0  0
 23 29  1  0  0  0  0
 23 50  1  0  0  0  0
 24 29  2  0  0  0  0
 24 73  1  0  0  0  0
 25 83  1  0  0  0  0
 26 85  1  0  0  0  0
 27 86  1  0  0  0  0
 28 31  2  0  0  0  0
 28 83  1  0  0  0  0
 29 84  1  0  0  0  0
 30 87  1  0  0  0  0
 31 88  1  0  0  0  0
 32 67  2  0  0  0  0
 33 68  1  0  0  0  0
 33 71  1  0  0  0  0
 34 72  1  0  0  0  0
 34 78  2  0  0  0  0
 35 52  1  0  0  0  0
 35 74  1  0  0  0  0
 35 79  2  0  0  0  0
 36 64  1  0  0  0  0
 36 69  1  0  0  0  0
 36 80  2  0  0  0  0
 37 65  1  0  0  0  0
 37 75  1  0  0  0  0
 37 81  2  0  0  0  0
 38 70  1  0  0  0  0
 38 76  1  0  0  0  0
 38 82  2  0  0  0  0
 39 42  1  0  0  0  0
 40 52  1  0  0  0  0
 41 69  1  0  0  0  0
 42 46  1  0  0  0  0
 43 47  1  0  0  0  0
 43 48  1  0  0  0  0
 44 45  1  0  0  0  0
 44 50  1  0  0  0  0
 45 50  1  0  0  0  0
 46 51  1  0  0  0  0
 47 53  1  0  0  0  0
 48 70  1  0  0  0  0
 49 53  1  0  0  0  0
 49 70  1  0  0  0  0
 51 74  1  0  0  0  0
 52 69  1  0  0  0  0
 53 68  1  0  0  0  0
 54 65  1  0  0  0  0
 55 66  1  0  0  0  0
 56 66  1  0  0  0  0
 57 66  1  0  0  0  0
 58 77  1  0  0  0  0
 59 84  1  0  0  0  0
 60 61  1  0  0  0  0
 60 73  1  0  0  0  0
 61 76  1  0  0  0  0
 62 63  1  0  0  0  0
 62 85  1  0  0  0  0
 63 86  1  0  0  0  0
 64 66  1  0  0  0  0
 64 75  1  0  0  0  0
 65 77  1  0  0  0  0
 67 68  1  0  0  0  0
M  CHG  1  77   1
M  ISO  4  38 100  62 101  76 100  85 101
M  END
> <Batch ID>
0144

> <Smiles>
CNC(C)C(=O)NC(C(=O)N1Cc2cc([101O:1][101CH2:1]COc3ccc(NCC[100NH:0][100C:0](=O)N4CCCC(n5nc(-c6ccc(Oc7ccc(F)cc7F)cc6)c(C(N)=O)c5N)C4)c(OC)c3C3CC3)ccc2CC1C(=O)NC1CCCc2ccccc21)C(C)(C)C

> <Shape>
0.325

> <Color>
0.215

> <Negative vol penalty>
0.000

$$$$

  -OEChem-04052321263D

 92102  0     1  0  0  0  0  0999 V2000
  -27.5802  -34.6633   23.7521 C   0  0  0  0  0  0  0  0  0  0  0  0
  -27.8282  -33.3400   23.4016 C   0  0  0  0  0  0  0  0  0  0  0  0
  -25.5766  -23.8068   23.8332 C   0  0  0  0  0  0  0  0  0  0  0  0
  -24.6020  -23.7330   22.8381 C   0  0  0  0  0  0  0  0  0  0  0  0
  -24.8053   -8.5809   21.3391 C   0  0  0  0  0  0  0  0  0  0  0  0
  -23.2346  -10.4149   21.2571 C   0  0  0  0  0  0  0  0  0  0  0  0
  -26.3441  -35.0213   24.2884 C   0  0  0  0  0  0  0  0  0  0  0  0
  -26.8405  -32.3736   23.5885 C   0  0  0  0  0  0  0  0  0  0  0  0
  -26.4356  -22.7293   24.0495 C   0  0  0  0  0  0  0  0  0  0  0  0
  -26.3577  -29.2925   19.5986 C   0  0  0  0  0  0  0  0  0  0  0  0
  -24.4862  -22.5816   22.0593 C   0  0  0  0  0  0  0  0  0  0  0  0
  -23.7457   -7.6766   21.4103 C   0  0  0  0  0  0  0  0  0  0  0  0
  -22.1750   -9.5105   21.3282 C   0  0  0  0  0  0  0  0  0  0  0  0
  -27.3083  -28.2828   19.4552 C   0  0  0  0  0  0  0  0  0  0  0  0
  -21.6011   -6.5331   23.7591 C   0  0  0  0  0  0  0  0  0  0  0  0
  -21.6915   -5.5023   24.6945 C   0  0  0  0  0  0  0  0  0  0  0  0
  -25.7567  -26.6961   20.4007 C   0  0  0  0  0  0  0  0  0  0  0  0
  -21.5505   -3.8747   22.9145 C   0  0  0  0  0  0  0  0  0  0  0  0
  -24.5497   -9.9501   21.2626 C   0  0  0  0  0  0  0  0  0  0  0  0
  -26.6385  -10.9534   20.1958 C   0  0  0  0  0  0  0  0  0  0  0  0
  -25.3373  -34.0606   24.4729 C   0  0  0  0  0  0  0  0  0  0  0  0
  -25.1012  -29.0134   20.1552 C   0  0  0  0  0  0  0  0  0  0  0  0
  -25.5902  -32.7189   24.1291 C   0  0  0  0  0  0  0  0  0  0  0  0
  -26.3198  -21.5779   23.2707 C   0  0  0  0  0  0  0  0  0  0  0  0
  -24.7910  -27.7035   20.5477 C   0  0  0  0  0  0  0  0  0  0  0  0
  -22.4306   -8.1413   21.4048 C   0  0  0  0  0  0  0  0  0  0  0  0
  -27.0089  -26.9849   19.8589 C   0  0  0  0  0  0  0  0  0  0  0  0
  -25.3451  -21.5040   22.2756 C   0  0  0  0  0  0  0  0  0  0  0  0
  -21.4853   -6.2347   22.4014 C   0  0  0  0  0  0  0  0  0  0  0  0
  -21.6662   -4.1731   24.2722 C   0  0  0  0  0  0  0  0  0  0  0  0
  -21.4600   -4.9055   21.9791 C   0  0  0  0  0  0  0  0  0  0  0  0
  -25.6438  -10.8848   21.1896 C   0  0  0  0  0  0  0  0  0  0  0  0
  -27.4360  -12.0035   20.5801 C   0  0  0  0  0  0  0  0  0  0  0  0
  -26.8247  -10.1407   19.0294 C   0  0  0  0  0  0  0  0  0  0  0  0
  -23.5231  -29.9917   22.7351 C   0  0  0  0  0  0  0  0  0  0  0  0
  -29.8337  -21.9262   20.9277 C   0  0  0  0  0  0  0  0  0  0  0  0
  -21.1127  -28.2466   21.4441 C   0  0  0  0  0  0  0  0  0  0  0  0
  -20.7623  -25.0591   19.7905 C   0  0  0  0  0  0  0  0  0  0  0  0
  -27.8949  -17.1948   22.3012 C   0  0  0  0  0  0  0  0  0  0  0  0
  -24.0336  -34.4866   25.1002 C   0  0  0  0  0  0  0  0  0  0  0  0
  -24.0773  -30.1082   20.2784 C   0  0  0  0  0  0  0  0  0  0  0  0
  -23.4493  -27.3475   21.1322 C   0  0  0  0  0  0  0  0  0  0  0  0
  -22.9091  -33.4704   24.9177 C   0  0  0  0  0  0  0  0  0  0  0  0
  -27.6291  -14.6125   24.8830 C   0  0  0  0  0  0  0  0  0  0  0  0
  -23.4033  -32.0638   25.2400 C   0  0  0  0  0  0  0  0  0  0  0  0
  -28.9356  -24.0552   21.7946 C   0  0  0  0  0  0  0  0  0  0  0  0
  -30.1558  -23.9810   19.5808 C   0  0  0  0  0  0  0  0  0  0  0  0
  -27.1044  -13.4344   24.0689 C   0  0  0  0  0  0  0  0  0  0  0  0
  -29.0702  -25.5780   21.8183 C   0  0  0  0  0  0  0  0  0  0  0  0
  -30.2900  -25.5042   19.6038 C   0  0  0  0  0  0  0  0  0  0  0  0
  -27.1019  -15.9540   24.3727 C   0  0  0  0  0  0  0  0  0  0  0  0
  -26.7033  -18.9563   23.7702 C   0  0  0  0  0  0  0  0  0  0  0  0
  -26.8080  -14.9821   22.1045 C   0  0  0  0  0  0  0  0  0  0  0  0
  -27.3054  -20.3595   23.5304 C   0  0  1  0  0  0  0  0  0  0  0  0
  -24.5353  -31.6463   24.2935 C   0  0  1  0  0  0  0  0  0  0  0  0
  -23.0138  -29.8159   21.3325 C   0  0  1  0  0  0  0  0  0  0  0  0
  -30.0645  -23.4047   20.9941 C   0  0  0  0  0  0  0  0  0  0  0  0
  -27.3922  -13.6429   22.5746 C   0  0  2  0  0  0  0  0  0  0  0  0
  -29.1755  -26.1688   20.4116 C   0  0  0  0  0  0  0  0  0  1  0  0
  -28.0694  -19.7393   22.3314 C   0  0  1  0  0  0  0  0  0  0  0  0
  -19.0612  -24.2627   18.1264 C   0  0  0  0  0  0  0  0  0  0  0  0
  -19.6479  -27.1668   23.8933 C   0  0  0  0  0  0  0  0  0  0  0  0
  -19.0192  -25.1542   22.5435 C   0  0  0  0  0  0  0  0  0  0  0  0
  -18.2246  -27.4154   21.8521 C   0  0  0  0  0  0  0  0  0  0  0  0
  -22.8548  -24.3041   17.8386 C   0  0  0  0  0  0  0  0  0  0  0  0
  -24.1981  -20.3942   20.5125 C   0  0  0  0  0  0  0  0  0  0  0  0
  -29.5604  -20.0044   22.2752 C   0  0  0  0  0  0  0  0  0  0  0  0
  -20.6600  -26.8100   21.5451 C   0  0  1  0  0  0  0  0  0  0  0  0
  -20.4603  -24.8259   18.3212 C   0  0  2  0  0  0  0  0  0  0  0  0
  -19.4152  -26.6439   22.4618 C   0  0  0  0  0  0  0  0  0  0  0  0
  -25.7938  -11.8170   22.1344 N   0  0  0  0  0  0  0  0  0  0  0  0
  -26.8920  -12.4812   21.7360 N   0  0  0  0  0  0  0  0  0  0  0  0
  -22.4839  -28.4541   21.2382 N   0  0  0  0  0  0  0  0  0  0  0  0
  -27.2833  -16.1009   22.9246 N   0  0  0  0  0  0  0  0  0  0  0  0
  -27.7631  -18.4284   22.9146 N   0  0  0  0  0  0  0  0  0  0  0  0
  -28.5427  -12.5555   20.0388 N   0  0  0  0  0  0  0  0  0  0  0  0
  -26.2074  -10.5353   17.8346 N   0  0  0  0  0  0  0  0  0  0  0  0
  -24.0005  -31.2600   23.0054 N   0  0  0  0  0  0  0  0  0  0  0  0
  -20.4596  -26.3480   20.1758 N   0  0  0  0  0  0  0  0  0  0  0  0
  -21.4390  -23.8656   17.7374 N   0  3  0  0  0  0  0  0  0  0  0  0
  -27.5046   -9.0867   19.0502 O   0  0  0  0  0  0  0  0  0  0  0  0
  -23.4844  -29.0472   23.5148 O   0  0  0  0  0  0  0  0  0  0  0  0
  -29.7157  -21.2973   19.8848 O   0  0  0  0  0  0  0  0  0  0  0  0
  -20.2792  -29.1512   21.5372 O   0  0  0  0  0  0  0  0  0  0  0  0
  -21.2173  -24.1842   20.5241 O   0  0  0  0  0  0  0  0  0  0  0  0
  -28.5070  -17.0854   21.2318 O   0  0  0  0  0  0  0  0  0  0  0  0
  -21.3964   -7.2592   21.4740 O   0  0  0  0  0  0  0  0  0  0  0  0
  -27.9411  -25.9913   19.7198 O   0  0  0  0  0  0  0  0  0  1  0  0
  -25.2205  -20.3864   21.5069 O   0  0  0  0  0  0  0  0  0  0  0  0
  -29.7768  -21.4045   22.1917 O   0  0  0  0  0  0  0  0  0  0  0  0
  -21.7546   -3.1834   25.1704 F   0  0  0  0  0  0  0  0  0  0  0  0
  -21.3501   -4.6127   20.6761 F   0  0  0  0  0  0  0  0  0  0  0  0
  1  2  1  0  0  0  0
  1  7  2  0  0  0  0
  2  8  2  0  0  0  0
  3  4  1  0  0  0  0
  3  9  2  0  0  0  0
  4 11  2  0  0  0  0
  5 12  2  0  0  0  0
  5 19  1  0  0  0  0
  6 13  1  0  0  0  0
  6 19  2  0  0  0  0
  7 21  1  0  0  0  0
  8 23  1  0  0  0  0
  9 24  1  0  0  0  0
 10 14  2  0  0  0  0
 10 22  1  0  0  0  0
 11 28  1  0  0  0  0
 12 26  1  0  0  0  0
 13 26  2  0  0  0  0
 14 27  1  0  0  0  0
 15 16  2  0  0  0  0
 15 29  1  0  0  0  0
 16 30  1  0  0  0  0
 17 25  1  0  0  0  0
 17 27  2  0  0  0  0
 18 30  2  0  0  0  0
 18 31  1  0  0  0  0
 19 32  1  0  0  0  0
 20 32  1  0  0  0  0
 20 33  2  0  0  0  0
 20 34  1  0  0  0  0
 21 23  2  0  0  0  0
 21 40  1  0  0  0  0
 22 25  2  0  0  0  0
 22 41  1  0  0  0  0
 23 55  1  0  0  0  0
 24 28  2  0  0  0  0
 24 54  1  0  0  0  0
 25 42  1  0  0  0  0
 26 87  1  0  0  0  0
 27 88  1  0  0  0  0
 28 89  1  0  0  0  0
 29 31  2  0  0  0  0
 29 87  1  0  0  0  0
 30 91  1  0  0  0  0
 31 92  1  0  0  0  0
 32 71  2  0  0  0  0
 33 72  1  0  0  0  0
 33 76  1  0  0  0  0
 34 77  1  0  0  0  0
 34 81  2  0  0  0  0
 35 56  1  0  0  0  0
 35 78  1  0  0  0  0
 35 82  2  0  0  0  0
 36 57  1  0  0  0  0
 36 83  2  0  0  0  0
 36 90  1  0  0  0  0
 37 68  1  0  0  0  0
 37 73  1  0  0  0  0
 37 84  2  0  0  0  0
 38 69  1  0  0  0  0
 38 79  1  0  0  0  0
 38 85  2  0  0  0  0
 39 74  1  0  0  0  0
 39 75  1  0  0  0  0
 39 86  2  0  0  0  0
 40 43  1  0  0  0  0
 41 56  1  0  0  0  0
 42 73  1  0  0  0  0
 43 45  1  0  0  0  0
 44 48  1  0  0  0  0
 44 51  1  0  0  0  0
 45 55  1  0  0  0  0
 46 49  1  0  0  0  0
 46 57  1  0  0  0  0
 47 50  1  0  0  0  0
 47 57  1  0  0  0  0
 48 58  1  0  0  0  0
 49 59  1  0  0  0  0
 50 59  1  0  0  0  0
 51 74  1  0  0  0  0
 52 54  1  0  0  0  0
 52 75  1  0  0  0  0
 53 58  1  0  0  0  0
 53 74  1  0  0  0  0
 54 60  1  0  0  0  0
 55 78  1  0  0  0  0
 56 73  1  0  0  0  0
 58 72  1  0  0  0  0
 59 88  1  0  0  0  0
 60 67  1  0  0  0  0
 60 75  1  0  0  0  0
 61 69  1  0  0  0  0
 62 70  1  0  0  0  0
 63 70  1  0  0  0  0
 64 70  1  0  0  0  0
 65 80  1  0  0  0  0
 66 89  1  0  0  0  0
 67 90  1  0  0  0  0
 68 70  1  0  0  0  0
 68 79  1  0  0  0  0
 69 80  1  0  0  0  0
 71 72  1  0  0  0  0
M  CHG  1  80   1
M  ISO  4  39 100  59 101  75 100  88 101
M  END
> <Batch ID>
0144

> <Smiles>
CNC(C)C(=O)NC(C(=O)N1Cc2cc([101O:1][101CH:1]3CCC(C(=O)OCC4C(c5ccccc5OC)C[100N:0]4[100C:0](=O)N4CCCC(n5nc(-c6ccc(Oc7ccc(F)cc7F)cc6)c(C(N)=O)c5N)C4)CC3)ccc2CC1C(=O)NC1CCCc2ccccc21)C(C)(C)C

> <Shape>
0.303

> <Color>
0.107

> <Negative vol penalty>
0.000

$$$$

  -OEChem-04052321263D

 84 92  0     1  0  0  0  0  0999 V2000
  -27.6197  -10.5975   19.2094 C   0  0  0  0  0  0  0  0  0  0  0  0
  -28.1517  -11.8108   18.7849 C   0  0  0  0  0  0  0  0  0  0  0  0
  -21.6606  -28.5944   20.0018 C   0  0  0  0  0  0  0  0  0  0  0  0
  -22.8928  -27.1209   21.4672 C   0  0  0  0  0  0  0  0  0  0  0  0
  -26.4063  -10.5716   19.8954 C   0  0  0  0  0  0  0  0  0  0  0  0
  -27.4699  -12.9990   19.0453 C   0  0  0  0  0  0  0  0  0  0  0  0
  -30.5286  -16.6635   20.7367 C   0  0  0  0  0  0  0  0  0  0  0  0
  -31.8948  -21.9901   18.8470 C   0  0  0  0  0  0  0  0  0  0  0  0
  -20.6199  -27.6674   19.9447 C   0  0  0  0  0  0  0  0  0  0  0  0
  -21.8520  -26.1939   21.4103 C   0  0  0  0  0  0  0  0  0  0  0  0
  -31.3098  -17.3274   19.7919 C   0  0  0  0  0  0  0  0  0  0  0  0
  -31.7968  -23.2848   19.3566 C   0  0  0  0  0  0  0  0  0  0  0  0
  -19.3639  -23.5965   21.9402 C   0  0  0  0  0  0  0  0  0  0  0  0
  -18.9519  -23.0086   23.1361 C   0  0  0  0  0  0  0  0  0  0  0  0
  -29.7353  -19.1549   19.7829 C   0  0  0  0  0  0  0  0  0  0  0  0
  -29.7753  -22.2724   17.7222 C   0  0  0  0  0  0  0  0  0  0  0  0
  -18.3946  -25.1888   24.0157 C   0  0  0  0  0  0  0  0  0  0  0  0
  -22.7971  -28.3211   20.7630 C   0  0  0  0  0  0  0  0  0  0  0  0
  -24.0272  -30.3275   21.7473 C   0  0  0  0  0  0  0  0  0  0  0  0
  -25.7140  -11.7609   20.1729 C   0  0  0  0  0  0  0  0  0  0  0  0
  -29.3372  -17.2364   21.2044 C   0  0  0  0  0  0  0  0  0  0  0  0
  -26.2453  -12.9888   19.7346 C   0  0  0  0  0  0  0  0  0  0  0  0
  -28.9420  -18.4974   20.7356 C   0  0  0  0  0  0  0  0  0  0  0  0
  -30.8840  -21.4839   18.0297 C   0  0  0  0  0  0  0  0  0  0  0  0
  -29.6773  -23.5671   18.2319 C   0  0  0  0  0  0  0  0  0  0  0  0
  -20.7156  -26.4672   20.6490 C   0  0  0  0  0  0  0  0  0  0  0  0
  -30.9118  -18.5720   19.3127 C   0  0  0  0  0  0  0  0  0  0  0  0
  -30.6881  -24.0733   19.0491 C   0  0  0  0  0  0  0  0  0  0  0  0
  -19.2914  -24.9805   21.7820 C   0  0  0  0  0  0  0  0  0  0  0  0
  -18.4672  -23.8047   24.1739 C   0  0  0  0  0  0  0  0  0  0  0  0
  -18.8067  -25.7766   22.8198 C   0  0  0  0  0  0  0  0  0  0  0  0
  -23.8727  -29.2780   20.8218 C   0  0  0  0  0  0  0  0  0  0  0  0
  -25.1999  -30.9403   21.3789 C   0  0  0  0  0  0  0  0  0  0  0  0
  -23.1860  -30.7137   22.8422 C   0  0  0  0  0  0  0  0  0  0  0  0
  -26.2675  -16.4163   21.1148 C   0  0  0  0  0  0  0  0  0  0  0  0
  -25.9186  -19.0189   23.0192 C   0  0  0  0  0  0  0  0  0  0  0  0
  -27.1391  -22.0306   24.0619 C   0  0  0  0  0  0  0  0  0  0  0  0
  -30.0482  -29.0289   18.4307 C   0  0  0  0  0  0  0  0  0  0  0  0
  -24.3823  -11.6785   20.8761 C   0  0  0  0  0  0  0  0  0  0  0  0
  -28.5194  -16.5195   22.2435 C   0  0  0  0  0  0  0  0  0  0  0  0
  -27.6820  -19.1648   21.2208 C   0  0  0  0  0  0  0  0  0  0  0  0
  -23.9079  -13.0151   21.4406 C   0  0  0  0  0  0  0  0  0  0  0  0
  -27.9506  -31.7686   17.5528 C   0  0  0  0  0  0  0  0  0  0  0  0
  -24.0740  -14.1216   20.4039 C   0  0  0  0  0  0  0  0  0  0  0  0
  -26.6815  -31.5357   18.3746 C   0  0  0  0  0  0  0  0  0  0  0  0
  -28.5544  -30.4546   17.0623 C   0  0  0  0  0  0  0  0  0  0  0  0
  -27.5385  -29.2239   18.9403 C   0  0  0  0  0  0  0  0  0  0  0  0
  -25.5477  -14.3011   20.0199 C   0  0  1  0  0  0  0  0  0  0  0  0
  -27.0604  -16.9646   22.2673 C   0  0  1  0  0  0  0  0  0  0  0  0
  -26.9241  -30.5166   19.5041 C   0  0  2  0  0  0  0  0  0  0  0  0
  -27.4842  -24.4733   19.0415 C   0  0  0  0  0  0  0  0  0  0  0  0
  -31.7234  -20.0447   16.1409 C   0  0  0  0  0  0  0  0  0  0  0  0
  -26.6142  -23.9434   25.5991 C   0  0  0  0  0  0  0  0  0  0  0  0
  -23.8226  -20.0276   21.0445 C   0  0  0  0  0  0  0  0  0  0  0  0
  -24.0358  -22.2953   22.0838 C   0  0  0  0  0  0  0  0  0  0  0  0
  -23.2371  -20.3684   23.4519 C   0  0  0  0  0  0  0  0  0  0  0  0
  -29.6091  -21.5970   25.6335 C   0  0  0  0  0  0  0  0  0  0  0  0
  -28.4841  -24.3978   17.8915 C   0  0  0  0  0  0  0  0  0  0  0  0
  -31.4178  -27.5719   19.9005 C   0  0  0  0  0  0  0  0  0  0  0  0
  -31.6503  -26.2425   19.2050 C   0  0  0  0  0  0  0  0  0  0  0  0
  -30.9915  -20.0813   17.4765 C   0  0  1  0  0  0  0  0  0  1  0  0
  -25.6728  -20.4899   22.7850 C   0  0  1  0  0  0  0  0  0  0  0  0
  -27.3344  -22.6122   25.4504 C   0  0  2  0  0  0  0  0  0  0  0  0
  -24.2149  -20.7821   22.3305 C   0  0  0  0  0  0  0  0  0  0  0  0
  -24.8676  -29.2244   19.9322 N   0  0  0  0  0  0  0  0  0  0  0  0
  -25.6584  -30.2479   20.2970 N   0  0  0  0  0  0  0  0  0  0  0  0
  -26.9132  -18.4211   22.2324 N   0  0  0  0  0  0  0  0  0  0  0  0
  -28.7609  -29.5331   18.1822 N   0  0  0  0  0  0  0  0  0  0  0  0
  -25.8732  -31.9986   21.8780 N   0  0  0  0  0  0  0  0  0  0  0  0
  -22.0186  -29.9757   23.0806 N   0  0  0  0  0  0  0  0  0  0  0  0
  -26.2521  -15.0361   21.0485 N   0  0  0  0  0  0  0  0  0  0  0  0
  -26.0628  -21.1700   24.0153 N   0  0  0  0  0  0  0  0  0  0  0  0
  -30.1576  -28.1670   19.5151 N   0  0  0  0  0  0  0  0  0  0  0  0
  -28.7835  -22.8289   25.7222 N   0  3  0  0  0  0  0  0  0  0  0  0
  -23.4530  -31.6947   23.5771 O   0  0  0  0  0  0  0  0  0  0  0  0
  -25.7096  -17.1882   20.3437 O   0  0  0  0  0  0  0  0  0  0  0  0
  -25.2576  -18.4240   23.8741 O   0  0  0  0  0  0  0  0  0  0  0  0
  -27.8663  -22.3144   23.1125 O   0  0  0  0  0  0  0  0  0  0  0  0
  -31.0284  -29.3292   17.7408 O   0  0  0  0  0  0  0  0  0  0  0  0
  -19.7001  -25.5625   20.5938 O   0  0  0  0  0  0  0  0  0  0  0  0
  -30.6079  -25.3352   19.5569 O   0  0  0  0  0  0  0  0  0  0  0  0
  -31.6721  -19.2218   18.3900 O   0  0  0  0  0  0  0  0  0  1  0  0
  -18.0701  -23.2400   25.3217 F   0  0  0  0  0  0  0  0  0  0  0  0
  -18.7335  -27.1066   22.6733 F   0  0  0  0  0  0  0  0  0  0  0  0
  1  2  1  0  0  0  0
  1  5  2  0  0  0  0
  2  6  2  0  0  0  0
  3  9  2  0  0  0  0
  3 18  1  0  0  0  0
  4 10  1  0  0  0  0
  4 18  2  0  0  0  0
  5 20  1  0  0  0  0
  6 22  1  0  0  0  0
  7 11  2  0  0  0  0
  7 21  1  0  0  0  0
  8 12  2  0  0  0  0
  8 24  1  0  0  0  0
  9 26  1  0  0  0  0
 10 26  2  0  0  0  0
 11 27  1  0  0  0  0
 12 28  1  0  0  0  0
 13 14  2  0  0  0  0
 13 29  1  0  0  0  0
 14 30  1  0  0  0  0
 15 23  1  0  0  0  0
 15 27  2  0  0  0  0
 16 24  2  0  0  0  0
 16 25  1  0  0  0  0
 17 30  2  0  0  0  0
 17 31  1  0  0  0  0
 18 32  1  0  0  0  0
 19 32  1  0  0  0  0
 19 33  2  0  0  0  0
 19 34  1  0  0  0  0
 20 22  2  0  0  0  0
 20 39  1  0  0  0  0
 21 23  2  0  0  0  0
 21 40  1  0  0  0  0
 22 48  1  0  0  0  0
 23 41  1  0  0  0  0
 24 61  1  0  0  0  0
 25 28  2  0  0  0  0
 25 58  1  0  0  0  0
 26 80  1  0  0  0  0
 27 82  1  0  0  0  0
 28 81  1  0  0  0  0
 29 31  2  0  0  0  0
 29 80  1  0  0  0  0
 30 83  1  0  0  0  0
 31 84  1  0  0  0  0
 32 65  2  0  0  0  0
 33 66  1  0  0  0  0
 33 69  1  0  0  0  0
 34 70  1  0  0  0  0
 34 75  2  0  0  0  0
 35 49  1  0  0  0  0
 35 71  1  0  0  0  0
 35 76  2  0  0  0  0
 36 62  1  0  0  0  0
 36 67  1  0  0  0  0
 36 77  2  0  0  0  0
 37 63  1  0  0  0  0
 37 72  1  0  0  0  0
 37 78  2  0  0  0  0
 38 68  1  0  0  0  0
 38 73  1  0  0  0  0
 38 79  2  0  0  0  0
 39 42  1  0  0  0  0
 40 49  1  0  0  0  0
 41 67  1  0  0  0  0
 42 44  1  0  0  0  0
 43 45  1  0  0  0  0
 43 46  1  0  0  0  0
 44 48  1  0  0  0  0
 45 50  1  0  0  0  0
 46 68  1  0  0  0  0
 47 50  1  0  0  0  0
 47 68  1  0  0  0  0
 48 71  1  0  0  0  0
 49 67  1  0  0  0  0
 50 66  1  0  0  0  0
 51 58  1  0  0  0  0
 52 61  1  0  0  0  0
 53 63  1  0  0  0  0
 54 64  1  0  0  0  0
 55 64  1  0  0  0  0
 56 64  1  0  0  0  0
 57 74  1  0  0  0  0
 59 60  1  0  0  0  0
 59 73  1  0  0  0  0
 60 81  1  0  0  0  0
 61 82  1  0  0  0  0
 62 64  1  0  0  0  0
 62 72  1  0  0  0  0
 63 74  1  0  0  0  0
 65 66  1  0  0  0  0
M  CHG  1  74   1
M  ISO  4  38 100  61 101  73 100  82 101
M  END
> <Batch ID>
0144

> <Smiles>
CCc1cc([101CH:1](C)[101O:1]c2ccc3c(c2)CN(C(=O)C(NC(=O)C(C)NC)C(C)(C)C)C(C(=O)NC2CCCc4ccccc42)C3)ccc1OCC[100NH:0][100C:0](=O)N1CCCC(n2nc(-c3ccc(Oc4ccc(F)cc4F)cc3)c(C(N)=O)c2N)C1

> <Shape>
0.231

> <Color>
0.080

> <Negative vol penalty>
0.000

$$$$

  -OEChem-04052321263D

 90 99  0     1  0  0  0  0  0999 V2000
  -17.0891  -30.7694   23.6856 C   0  0  0  0  0  0  0  0  0  0  0  0
  -18.3244  -31.2213   23.2354 C   0  0  0  0  0  0  0  0  0  0  0  0
  -22.9420  -10.9830   22.0584 C   0  0  0  0  0  0  0  0  0  0  0  0
  -23.7766   -9.3845   20.4505 C   0  0  0  0  0  0  0  0  0  0  0  0
  -16.8797  -29.4061   23.8830 C   0  0  0  0  0  0  0  0  0  0  0  0
  -19.3468  -30.3093   22.9711 C   0  0  0  0  0  0  0  0  0  0  0  0
  -26.5711  -27.7772   20.8213 C   0  0  0  0  0  0  0  0  0  0  0  0
  -22.1292   -9.9967   22.6171 C   0  0  0  0  0  0  0  0  0  0  0  0
  -22.9638   -8.3981   21.0092 C   0  0  0  0  0  0  0  0  0  0  0  0
  -27.4442  -26.6944   20.9157 C   0  0  0  0  0  0  0  0  0  0  0  0
  -19.1837   -8.4992   21.9060 C   0  0  0  0  0  0  0  0  0  0  0  0
  -17.8618   -8.8372   22.1955 C   0  0  0  0  0  0  0  0  0  0  0  0
  -25.7504  -25.2548   19.9787 C   0  0  0  0  0  0  0  0  0  0  0  0
  -28.6234  -22.3368   16.0079 C   0  0  0  0  0  0  0  0  0  0  0  0
  -29.5821  -23.9551   17.5240 C   0  0  0  0  0  0  0  0  0  0  0  0
  -18.2424   -8.3286   24.5266 C   0  0  0  0  0  0  0  0  0  0  0  0
  -23.7656  -10.6769   20.9750 C   0  0  0  0  0  0  0  0  0  0  0  0
  -24.1915  -12.9099   19.8173 C   0  0  0  0  0  0  0  0  0  0  0  0
  -17.9045  -28.4788   23.6327 C   0  0  0  0  0  0  0  0  0  0  0  0
  -25.2751  -27.6045   20.3142 C   0  0  0  0  0  0  0  0  0  0  0  0
  -19.1474  -28.9274   23.1413 C   0  0  0  0  0  0  0  0  0  0  0  0
  -24.8637  -26.3375   19.8765 C   0  0  0  0  0  0  0  0  0  0  0  0
  -29.1367  -23.6114   16.2477 C   0  0  0  0  0  0  0  0  0  0  0  0
  -28.5555  -21.4059   17.0445 C   0  0  0  0  0  0  0  0  0  0  0  0
  -29.5143  -23.0242   18.5606 C   0  0  0  0  0  0  0  0  0  0  0  0
  -29.0010  -21.7496   18.3208 C   0  0  0  0  0  0  0  0  0  0  0  0
  -22.1401   -8.7043   22.0926 C   0  0  0  0  0  0  0  0  0  0  0  0
  -27.0329  -25.4323   20.4971 C   0  0  0  0  0  0  0  0  0  0  0  0
  -20.0350   -8.0759   22.9267 C   0  0  0  0  0  0  0  0  0  0  0  0
  -17.3911   -8.7519   23.5058 C   0  0  0  0  0  0  0  0  0  0  0  0
  -19.5643   -7.9906   24.2369 C   0  0  0  0  0  0  0  0  0  0  0  0
  -24.6050  -11.6955   20.3970 C   0  0  0  0  0  0  0  0  0  0  0  0
  -25.3585  -13.5165   19.4217 C   0  0  0  0  0  0  0  0  0  0  0  0
  -22.8705  -13.4420   19.6513 C   0  0  0  0  0  0  0  0  0  0  0  0
  -22.3418  -27.9803   21.4795 C   0  0  0  0  0  0  0  0  0  0  0  0
  -21.4655  -27.3253   18.4258 C   0  0  0  0  0  0  0  0  0  0  0  0
  -22.4701  -25.0257   15.8335 C   0  0  0  0  0  0  0  0  0  0  0  0
  -30.6487  -14.9983   20.4034 C   0  0  0  0  0  0  0  0  0  0  0  0
  -17.6210  -27.0142   23.8558 C   0  0  0  0  0  0  0  0  0  0  0  0
  -24.3546  -28.7880   20.1941 C   0  0  0  0  0  0  0  0  0  0  0  0
  -23.4897  -26.1033   19.3057 C   0  0  0  0  0  0  0  0  0  0  0  0
  -18.8887  -26.1747   23.9753 C   0  0  0  0  0  0  0  0  0  0  0  0
  -30.0774  -11.7151   19.1501 C   0  0  0  0  0  0  0  0  0  0  0  0
  -19.8323  -26.4915   22.8248 C   0  0  0  0  0  0  0  0  0  0  0  0
  -31.0441  -19.4140   19.0127 C   0  0  0  0  0  0  0  0  0  0  0  0
  -30.2725  -19.8392   21.3816 C   0  0  0  0  0  0  0  0  0  0  0  0
  -28.5704  -11.5155   19.3208 C   0  0  0  0  0  0  0  0  0  0  0  0
  -30.4824  -17.9936   19.0824 C   0  0  0  0  0  0  0  0  0  0  0  0
  -29.7102  -18.4193   21.4557 C   0  0  0  0  0  0  0  0  0  0  0  0
  -30.6735  -12.5234   20.3005 C   0  0  0  0  0  0  0  0  0  0  0  0
  -28.5068  -13.6181   20.7256 C   0  0  0  0  0  0  0  0  0  0  0  0
  -20.2839  -27.9566   22.8765 C   0  0  1  0  0  0  0  0  0  0  0  0
  -22.8812  -28.3958   20.1401 C   0  0  1  0  0  0  0  0  0  0  0  0
  -30.3241  -20.3935   19.9506 C   0  0  0  0  0  0  0  0  0  0  0  0
  -27.8509  -12.8563   19.5613 C   0  0  2  0  0  0  0  0  0  0  0  0
  -30.4612  -17.4702   20.5201 C   0  0  0  0  0  0  0  0  0  0  0  0
  -29.2086  -24.6069   15.1396 C   0  0  0  0  0  0  0  0  0  0  0  0
  -28.0027  -20.0473   16.7611 C   0  0  0  0  0  0  0  0  0  0  0  0
  -26.5847  -21.4234   20.2153 C   0  0  0  0  0  0  0  0  0  0  0  0
  -22.3161  -25.2141   13.3359 C   0  0  0  0  0  0  0  0  0  0  0  0
  -18.8270  -25.8309   18.7656 C   0  0  0  0  0  0  0  0  0  0  0  0
  -19.3524  -24.5681   16.6686 C   0  0  0  0  0  0  0  0  0  0  0  0
  -19.0659  -27.0450   16.5923 C   0  0  0  0  0  0  0  0  0  0  0  0
  -25.3698  -24.5352   15.5017 C   0  0  0  0  0  0  0  0  0  0  0  0
  -30.0029  -23.4212   19.9325 C   0  0  0  0  0  0  0  0  0  0  0  0
  -28.0359  -21.1955   20.6209 C   0  0  0  0  0  0  0  0  0  0  0  0
  -29.2783  -24.6490   20.4732 C   0  0  0  0  0  0  0  0  0  1  0  0
  -28.9285  -20.7511   19.4320 C   0  0  1  0  0  0  0  0  0  0  0  0
  -21.1440  -26.0697   17.6517 C   0  0  1  0  0  0  0  0  0  0  0  0
  -23.2132  -25.3664   14.5544 C   0  0  2  0  0  0  0  0  0  0  0  0
  -19.6154  -25.8782   17.4415 C   0  0  0  0  0  0  0  0  0  0  0  0
  -25.9312  -11.5382   20.3737 N   0  0  0  0  0  0  0  0  0  0  0  0
  -26.3611  -12.6617   19.7744 N   0  0  0  0  0  0  0  0  0  0  0  0
  -22.6240  -27.2906   19.2147 N   0  0  0  0  0  0  0  0  0  0  0  0
  -29.9471  -13.7835   20.4748 N   0  0  0  0  0  0  0  0  0  0  0  0
  -25.6147  -14.6922   18.8099 N   0  0  0  0  0  0  0  0  0  0  0  0
  -22.1701  -13.1371   18.4762 N   0  0  0  0  0  0  0  0  0  0  0  0
  -21.0035  -28.2719   21.6621 N   0  0  0  0  0  0  0  0  0  0  0  0
  -21.9125  -26.1452   16.4140 N   0  0  0  0  0  0  0  0  0  0  0  0
  -29.8836  -16.1457   20.5732 N   0  0  0  0  0  0  0  0  0  0  0  0
  -24.3916  -24.4698   14.3855 N   0  3  0  0  0  0  0  0  0  0  0  0
  -22.3337  -14.1800   20.5120 O   0  0  0  0  0  0  0  0  0  0  0  0
  -23.0844  -27.4342   22.2870 O   0  0  0  0  0  0  0  0  0  0  0  0
  -20.7201  -28.3033   18.3284 O   0  0  0  0  0  0  0  0  0  0  0  0
  -22.3889  -23.8803   16.2718 O   0  0  0  0  0  0  0  0  0  0  0  0
  -31.8658  -15.0563   20.1977 O   0  0  0  0  0  0  0  0  0  0  0  0
  -21.3474   -7.7415   22.6377 O   0  0  0  0  0  0  0  0  0  0  0  0
  -27.8829  -24.3736   20.5887 O   0  0  0  0  0  0  0  0  0  1  0  0
  -16.1220   -9.0779   23.7840 F   0  0  0  0  0  0  0  0  0  0  0  0
  -20.3778   -7.5857   25.2219 F   0  0  0  0  0  0  0  0  0  0  0  0
  1  2  1  0  0  0  0
  1  5  2  0  0  0  0
  2  6  2  0  0  0  0
  3  8  2  0  0  0  0
  3 17  1  0  0  0  0
  4  9  1  0  0  0  0
  4 17  2  0  0  0  0
  5 19  1  0  0  0  0
  6 21  1  0  0  0  0
  7 10  2  0  0  0  0
  7 20  1  0  0  0  0
  8 27  1  0  0  0  0
  9 27  2  0  0  0  0
 10 28  1  0  0  0  0
 11 12  2  0  0  0  0
 11 29  1  0  0  0  0
 12 30  1  0  0  0  0
 13 22  1  0  0  0  0
 13 28  2  0  0  0  0
 14 23  1  0  0  0  0
 14 24  2  0  0  0  0
 15 23  2  0  0  0  0
 15 25  1  0  0  0  0
 16 30  2  0  0  0  0
 16 31  1  0  0  0  0
 17 32  1  0  0  0  0
 18 32  1  0  0  0  0
 18 33  2  0  0  0  0
 18 34  1  0  0  0  0
 19 21  2  0  0  0  0
 19 39  1  0  0  0  0
 20 22  2  0  0  0  0
 20 40  1  0  0  0  0
 21 52  1  0  0  0  0
 22 41  1  0  0  0  0
 23 57  1  0  0  0  0
 24 26  1  0  0  0  0
 24 58  1  0  0  0  0
 25 26  2  0  0  0  0
 25 65  1  0  0  0  0
 26 68  1  0  0  0  0
 27 87  1  0  0  0  0
 28 88  1  0  0  0  0
 29 31  2  0  0  0  0
 29 87  1  0  0  0  0
 30 89  1  0  0  0  0
 31 90  1  0  0  0  0
 32 72  2  0  0  0  0
 33 73  1  0  0  0  0
 33 76  1  0  0  0  0
 34 77  1  0  0  0  0
 34 82  2  0  0  0  0
 35 53  1  0  0  0  0
 35 78  1  0  0  0  0
 35 83  2  0  0  0  0
 36 69  1  0  0  0  0
 36 74  1  0  0  0  0
 36 84  2  0  0  0  0
 37 70  1  0  0  0  0
 37 79  1  0  0  0  0
 37 85  2  0  0  0  0
 38 75  1  0  0  0  0
 38 80  1  0  0  0  0
 38 86  2  0  0  0  0
 39 42  1  0  0  0  0
 40 53  1  0  0  0  0
 41 74  1  0  0  0  0
 42 44  1  0  0  0  0
 43 47  1  0  0  0  0
 43 50  1  0  0  0  0
 44 52  1  0  0  0  0
 45 48  1  0  0  0  0
 45 54  1  0  0  0  0
 46 49  1  0  0  0  0
 46 54  1  0  0  0  0
 47 55  1  0  0  0  0
 48 56  1  0  0  0  0
 49 56  1  0  0  0  0
 50 75  1  0  0  0  0
 51 55  1  0  0  0  0
 51 75  1  0  0  0  0
 52 78  1  0  0  0  0
 53 74  1  0  0  0  0
 54 68  1  0  0  0  0
 55 73  1  0  0  0  0
 56 80  1  0  0  0  0
 59 66  1  0  0  0  0
 60 70  1  0  0  0  0
 61 71  1  0  0  0  0
 62 71  1  0  0  0  0
 63 71  1  0  0  0  0
 64 81  1  0  0  0  0
 65 67  1  0  0  0  0
 66 68  1  0  0  0  0
 67 88  1  0  0  0  0
 69 71  1  0  0  0  0
 69 79  1  0  0  0  0
 70 81  1  0  0  0  0
 72 73  1  0  0  0  0
M  CHG  1  81   1
M  ISO  4  38 100  67 101  80 100  88 101
M  END
> <Batch ID>
0144

> <Smiles>
CCC(c1c(C)cc(C)cc1C[101CH2:1][101O:1]c1ccc2c(c1)CN(C(=O)C(NC(=O)C(C)NC)C(C)(C)C)C(C(=O)NC1CCCc3ccccc31)C2)C1CCC([100NH:0][100C:0](=O)N2CCCC(n3nc(-c4ccc(Oc5ccc(F)cc5F)cc4)c(C(N)=O)c3N)C2)CC1

> <Shape>
0.282

> <Color>
0.130

> <Negative vol penalty>
0.000

$$$$

  -OEChem-04052321263D

 87 96  0     1  0  0  0  0  0999 V2000
  -29.5319  -11.2394   15.9666 C   0  0  0  0  0  0  0  0  0  0  0  0
  -28.8950  -12.4691   15.8341 C   0  0  0  0  0  0  0  0  0  0  0  0
  -25.5286  -29.1956   21.0977 C   0  0  0  0  0  0  0  0  0  0  0  0
  -25.0952  -27.7501   19.2109 C   0  0  0  0  0  0  0  0  0  0  0  0
  -29.8029  -10.7292   17.2355 C   0  0  0  0  0  0  0  0  0  0  0  0
  -28.5277  -13.1889   16.9706 C   0  0  0  0  0  0  0  0  0  0  0  0
  -28.5013  -19.2782   17.6229 C   0  0  0  0  0  0  0  0  0  0  0  0
  -19.4816  -21.8271   18.5649 C   0  0  0  0  0  0  0  0  0  0  0  0
  -26.8822  -28.8637   21.0410 C   0  0  0  0  0  0  0  0  0  0  0  0
  -26.4488  -27.4182   19.1542 C   0  0  0  0  0  0  0  0  0  0  0  0
  -27.4829  -20.2264   17.5362 C   0  0  0  0  0  0  0  0  0  0  0  0
  -20.7864  -21.5298   18.1717 C   0  0  0  0  0  0  0  0  0  0  0  0
  -28.5846  -25.3779   20.7993 C   0  0  0  0  0  0  0  0  0  0  0  0
  -28.9158  -24.0327   20.6370 C   0  0  0  0  0  0  0  0  0  0  0  0
  -27.2167  -20.1507   19.9326 C   0  0  0  0  0  0  0  0  0  0  0  0
  -30.0620  -24.5634   18.5774 C   0  0  0  0  0  0  0  0  0  0  0  0
  -24.6351  -28.6388   20.1826 C   0  0  0  0  0  0  0  0  0  0  0  0
  -22.5924  -30.0414   19.5762 C   0  0  0  0  0  0  0  0  0  0  0  0
  -29.4474  -11.4474   18.3880 C   0  0  0  0  0  0  0  0  0  0  0  0
  -28.8783  -18.7501   18.8661 C   0  0  0  0  0  0  0  0  0  0  0  0
  -28.7930  -12.6871   18.2561 C   0  0  0  0  0  0  0  0  0  0  0  0
  -28.2419  -19.1978   20.0326 C   0  0  0  0  0  0  0  0  0  0  0  0
  -21.5341  -21.7920   20.4541 C   0  0  0  0  0  0  0  0  0  0  0  0
  -19.2030  -22.1070   19.9028 C   0  0  0  0  0  0  0  0  0  0  0  0
  -27.3423  -27.9750   20.0693 C   0  0  0  0  0  0  0  0  0  0  0  0
  -26.8385  -20.6607   18.6908 C   0  0  0  0  0  0  0  0  0  0  0  0
  -21.8126  -21.5122   19.1162 C   0  0  0  0  0  0  0  0  0  0  0  0
  -28.9921  -26.3159   19.8506 C   0  0  0  0  0  0  0  0  0  0  0  0
  -20.2292  -22.0894   20.8473 C   0  0  0  0  0  0  0  0  0  0  0  0
  -29.6545  -23.6254   19.5261 C   0  0  0  0  0  0  0  0  0  0  0  0
  -29.7308  -25.9086   18.7397 C   0  0  0  0  0  0  0  0  0  0  0  0
  -23.2366  -28.9808   20.2410 C   0  0  0  0  0  0  0  0  0  0  0  0
  -21.2770  -29.9370   19.9573 C   0  0  0  0  0  0  0  0  0  0  0  0
  -23.1346  -31.0323   18.6931 C   0  0  0  0  0  0  0  0  0  0  0  0
  -28.8731  -15.8493   20.1657 C   0  0  0  0  0  0  0  0  0  0  0  0
  -30.4099  -17.3587   22.5911 C   0  0  0  0  0  0  0  0  0  0  0  0
  -31.0513  -20.2740   24.2453 C   0  0  0  0  0  0  0  0  0  0  0  0
  -17.9377  -25.3497   21.8696 C   0  0  0  0  0  0  0  0  0  0  0  0
  -29.7186  -10.8333   19.7386 C   0  0  0  0  0  0  0  0  0  0  0  0
  -29.9969  -17.7477   18.9453 C   0  0  0  0  0  0  0  0  0  0  0  0
  -28.6230  -18.6771   21.3935 C   0  0  0  0  0  0  0  0  0  0  0  0
  -29.6333  -11.8320   20.8900 C   0  0  0  0  0  0  0  0  0  0  0  0
  -18.5350  -28.4190   23.5723 C   0  0  0  0  0  0  0  0  0  0  0  0
  -22.8672  -22.9938   22.3121 C   0  0  0  0  0  0  0  0  0  0  0  0
  -23.8471  -22.6359   21.2389 C   0  0  0  0  0  0  0  0  0  0  0  0
  -28.3786  -12.6897   20.7609 C   0  0  0  0  0  0  0  0  0  0  0  0
  -19.7496  -29.0067   22.8517 C   0  0  0  0  0  0  0  0  0  0  0  0
  -18.6228  -26.8981   23.6778 C   0  0  0  0  0  0  0  0  0  0  0  0
  -20.0569  -26.7878   21.6765 C   0  0  0  0  0  0  0  0  0  0  0  0
  -22.6358  -21.7727   21.4645 C   0  0  0  0  0  0  0  0  0  0  0  0
  -28.4013  -13.5090   19.4648 C   0  0  1  0  0  0  0  0  0  0  0  0
  -29.9487  -16.8975   20.2111 C   0  0  1  0  0  0  0  0  0  0  0  0
  -19.9868  -28.3139   21.4963 C   0  0  2  0  0  0  0  0  0  0  0  0
  -32.3148  -21.1859   26.2124 C   0  0  0  0  0  0  0  0  0  0  0  0
  -28.3006  -16.2123   24.4743 C   0  0  0  0  0  0  0  0  0  0  0  0
  -29.0295  -17.8801   26.1935 C   0  0  0  0  0  0  0  0  0  0  0  0
  -30.6359  -16.1596   25.3676 C   0  0  0  0  0  0  0  0  0  0  0  0
  -32.6875  -22.0394   22.5234 C   0  0  0  0  0  0  0  0  0  0  0  0
  -19.6063  -21.2597   22.9873 C   0  0  0  0  0  0  0  0  0  0  0  0
  -17.7999  -22.4230   20.3044 C   0  0  0  0  0  0  0  0  0  0  0  0
  -17.3750  -23.8568   19.9686 C   0  0  0  0  0  0  0  0  0  0  0  0
  -25.0646  -21.5975   17.4134 C   0  0  0  0  0  0  0  0  0  1  0  0
  -23.6654  -22.0832   17.7390 C   0  0  0  0  0  0  0  0  0  0  0  0
  -29.9792  -18.0720   23.8499 C   0  0  1  0  0  0  0  0  0  0  0  0
  -32.3513  -20.8981   24.7195 C   0  0  2  0  0  0  0  0  0  0  0  0
  -29.4776  -17.0896   24.9457 C   0  0  0  0  0  0  0  0  0  0  0  0
  -22.3995  -28.2560   20.9879 N   0  0  0  0  0  0  0  0  0  0  0  0
  -21.2157  -28.8623   20.7948 N   0  0  0  0  0  0  0  0  0  0  0  0
  -29.7183  -17.6937   21.4183 N   0  0  0  0  0  0  0  0  0  0  0  0
  -18.8467  -26.3026   22.3583 N   0  0  0  0  0  0  0  0  0  0  0  0
  -20.1783  -30.6606   19.6544 N   0  0  0  0  0  0  0  0  0  0  0  0
  -24.5063  -30.9944   18.4080 N   0  0  0  0  0  0  0  0  0  0  0  0
  -29.2771  -14.6526   19.6052 N   0  0  0  0  0  0  0  0  0  0  0  0
  -31.1110  -18.8965   24.2594 N   0  0  0  0  0  0  0  0  0  0  0  0
  -18.2205  -24.8401   20.6082 N   0  0  0  0  0  0  0  0  0  0  0  0
  -32.6039  -22.1785   24.0001 N   0  3  0  0  0  0  0  0  0  0  0  0
  -22.4266  -31.9347   18.1853 O   0  0  0  0  0  0  0  0  0  0  0  0
  -27.7596  -16.1067   20.6079 O   0  0  0  0  0  0  0  0  0  0  0  0
  -31.3310  -16.5399   22.6449 O   0  0  0  0  0  0  0  0  0  0  0  0
  -30.0787  -20.9417   23.9006 O   0  0  0  0  0  0  0  0  0  0  0  0
  -16.9446  -24.9843   22.5078 O   0  0  0  0  0  0  0  0  0  0  0  0
  -28.6632  -27.6511   20.0136 O   0  0  0  0  0  0  0  0  0  0  0  0
  -19.9538  -22.3635   22.1551 O   0  0  0  0  0  0  0  0  0  0  0  0
  -25.8437  -21.5856   18.6090 O   0  0  0  0  0  0  0  0  0  1  0  0
  -23.0877  -21.2188   18.7097 O   0  0  0  0  0  0  0  0  0  0  0  0
  -29.9738  -22.3338   19.3712 F   0  0  0  0  0  0  0  0  0  0  0  0
  -30.1260  -26.8053   17.8256 F   0  0  0  0  0  0  0  0  0  0  0  0
  1  2  1  0  0  0  0
  1  5  2  0  0  0  0
  2  6  2  0  0  0  0
  3  9  2  0  0  0  0
  3 17  1  0  0  0  0
  4 10  1  0  0  0  0
  4 17  2  0  0  0  0
  5 19  1  0  0  0  0
  6 21  1  0  0  0  0
  7 11  2  0  0  0  0
  7 20  1  0  0  0  0
  8 12  2  0  0  0  0
  8 24  1  0  0  0  0
  9 25  1  0  0  0  0
 10 25  2  0  0  0  0
 11 26  1  0  0  0  0
 12 27  1  0  0  0  0
 13 14  2  0  0  0  0
 13 28  1  0  0  0  0
 14 30  1  0  0  0  0
 15 22  1  0  0  0  0
 15 26  2  0  0  0  0
 16 30  2  0  0  0  0
 16 31  1  0  0  0  0
 17 32  1  0  0  0  0
 18 32  1  0  0  0  0
 18 33  2  0  0  0  0
 18 34  1  0  0  0  0
 19 21  2  0  0  0  0
 19 39  1  0  0  0  0
 20 22  2  0  0  0  0
 20 40  1  0  0  0  0
 21 51  1  0  0  0  0
 22 41  1  0  0  0  0
 23 27  2  0  0  0  0
 23 29  1  0  0  0  0
 23 50  1  0  0  0  0
 24 29  2  0  0  0  0
 24 60  1  0  0  0  0
 25 82  1  0  0  0  0
 26 84  1  0  0  0  0
 27 85  1  0  0  0  0
 28 31  2  0  0  0  0
 28 82  1  0  0  0  0
 29 83  1  0  0  0  0
 30 86  1  0  0  0  0
 31 87  1  0  0  0  0
 32 67  2  0  0  0  0
 33 68  1  0  0  0  0
 33 71  1  0  0  0  0
 34 72  1  0  0  0  0
 34 77  2  0  0  0  0
 35 52  1  0  0  0  0
 35 73  1  0  0  0  0
 35 78  2  0  0  0  0
 36 64  1  0  0  0  0
 36 69  1  0  0  0  0
 36 79  2  0  0  0  0
 37 65  1  0  0  0  0
 37 74  1  0  0  0  0
 37 80  2  0  0  0  0
 38 70  1  0  0  0  0
 38 75  1  0  0  0  0
 38 81  2  0  0  0  0
 39 42  1  0  0  0  0
 40 52  1  0  0  0  0
 41 69  1  0  0  0  0
 42 46  1  0  0  0  0
 43 47  1  0  0  0  0
 43 48  1  0  0  0  0
 44 45  1  0  0  0  0
 44 50  1  0  0  0  0
 45 50  1  0  0  0  0
 46 51  1  0  0  0  0
 47 53  1  0  0  0  0
 48 70  1  0  0  0  0
 49 53  1  0  0  0  0
 49 70  1  0  0  0  0
 51 73  1  0  0  0  0
 52 69  1  0  0  0  0
 53 68  1  0  0  0  0
 54 65  1  0  0  0  0
 55 66  1  0  0  0  0
 56 66  1  0  0  0  0
 57 66  1  0  0  0  0
 58 76  1  0  0  0  0
 59 83  1  0  0  0  0
 60 61  1  0  0  0  0
 61 75  1  0  0  0  0
 62 63  1  0  0  0  0
 62 84  1  0  0  0  0
 63 85  1  0  0  0  0
 64 66  1  0  0  0  0
 64 74  1  0  0  0  0
 65 76  1  0  0  0  0
 67 68  1  0  0  0  0
M  CHG  1  76   1
M  ISO  4  38 100  62 101  75 100  84 101
M  END
> <Batch ID>
0144

> <Smiles>
CNC(C)C(=O)NC(C(=O)N1Cc2cc([101O:1][101CH2:1]COc3ccc(CC[100NH:0][100C:0](=O)N4CCCC(n5nc(-c6ccc(Oc7ccc(F)cc7F)cc6)c(C(N)=O)c5N)C4)c(OC)c3C3CC3)ccc2CC1C(=O)NC1CCCc2ccccc21)C(C)(C)C

> <Shape>
0.246

> <Color>
0.059

> <Negative vol penalty>
0.000

$$$$

  -OEChem-04052321263D

 86 94  0     1  0  0  0  0  0999 V2000
  -28.4909  -24.4514   16.6084 C   0  0  0  0  0  0  0  0  0  0  0  0
  -27.3071  -24.5701   17.3296 C   0  0  0  0  0  0  0  0  0  0  0  0
  -26.3502  -15.3742   19.4403 C   0  0  0  0  0  0  0  0  0  0  0  0
  -24.9226  -15.3991   21.3892 C   0  0  0  0  0  0  0  0  0  0  0  0
  -29.6601  -25.0401   17.0882 C   0  0  0  0  0  0  0  0  0  0  0  0
  -27.2922  -25.2767   18.5316 C   0  0  0  0  0  0  0  0  0  0  0  0
  -23.3101  -28.3823   18.9103 C   0  0  0  0  0  0  0  0  0  0  0  0
  -19.2393  -25.9352   24.0816 C   0  0  0  0  0  0  0  0  0  0  0  0
  -26.4441  -13.9853   19.5267 C   0  0  0  0  0  0  0  0  0  0  0  0
  -25.0164  -14.0101   21.4756 C   0  0  0  0  0  0  0  0  0  0  0  0
  -22.0837  -27.8076   19.2413 C   0  0  0  0  0  0  0  0  0  0  0  0
  -19.3004  -26.7051   22.9201 C   0  0  0  0  0  0  0  0  0  0  0  0
  -23.6448  -11.3231   19.9527 C   0  0  0  0  0  0  0  0  0  0  0  0
  -22.4691  -10.6088   20.1832 C   0  0  0  0  0  0  0  0  0  0  0  0
  -22.3797  -28.5088   21.5304 C   0  0  0  0  0  0  0  0  0  0  0  0
  -21.3646  -25.6116   22.3038 C   0  0  0  0  0  0  0  0  0  0  0  0
  -23.4077   -9.7231   22.2256 C   0  0  0  0  0  0  0  0  0  0  0  0
  -25.5896  -16.0812   20.3716 C   0  0  0  0  0  0  0  0  0  0  0  0
  -24.5336  -18.2612   19.5714 C   0  0  0  0  0  0  0  0  0  0  0  0
  -29.6574  -25.7625   18.2919 C   0  0  0  0  0  0  0  0  0  0  0  0
  -24.0869  -29.0160   19.8908 C   0  0  0  0  0  0  0  0  0  0  0  0
  -28.4629  -25.8745   19.0286 C   0  0  0  0  0  0  0  0  0  0  0  0
  -23.6144  -29.0929   21.2088 C   0  0  0  0  0  0  0  0  0  0  0  0
  -20.2408  -25.0034   24.3542 C   0  0  0  0  0  0  0  0  0  0  0  0
  -21.3035  -24.8417   23.4654 C   0  0  0  0  0  0  0  0  0  0  0  0
  -25.7771  -13.3032   20.5443 C   0  0  0  0  0  0  0  0  0  0  0  0
  -21.6197  -27.8683   20.5520 C   0  0  0  0  0  0  0  0  0  0  0  0
  -20.3631  -26.5433   22.0312 C   0  0  0  0  0  0  0  0  0  1  0  0
  -24.7020  -11.2374   20.8586 C   0  0  0  0  0  0  0  0  0  0  0  0
  -22.3505   -9.8088   21.3196 C   0  0  0  0  0  0  0  0  0  0  0  0
  -24.5834  -10.4374   21.9951 C   0  0  0  0  0  0  0  0  0  0  0  0
  -25.4928  -17.5161   20.2832 C   0  0  0  0  0  0  0  0  0  0  0  0
  -24.8739  -19.5712   19.8050 C   0  0  0  0  0  0  0  0  0  0  0  0
  -23.4334  -17.8095   18.7706 C   0  0  0  0  0  0  0  0  0  0  0  0
  -26.9768  -28.5315   21.1227 C   0  0  0  0  0  0  0  0  0  0  0  0
  -26.3636  -31.3228   22.6573 C   0  0  0  0  0  0  0  0  0  0  0  0
  -24.0450  -33.5289   23.8421 C   0  0  0  0  0  0  0  0  0  0  0  0
  -27.8446  -22.2837   24.2399 C   0  0  0  0  0  0  0  0  0  0  0  0
  -30.9565  -26.3411   18.7941 C   0  0  0  0  0  0  0  0  0  0  0  0
  -25.3952  -29.6544   19.5122 C   0  0  0  0  0  0  0  0  0  0  0  0
  -24.4008  -29.7797   22.2943 C   0  0  0  0  0  0  0  0  0  0  0  0
  -30.7734  -27.3905   19.8876 C   0  0  0  0  0  0  0  0  0  0  0  0
  -28.6515  -22.3432   20.7726 C   0  0  0  0  0  0  0  0  0  0  0  0
  -29.7843  -26.8985   20.9394 C   0  0  0  0  0  0  0  0  0  0  0  0
  -27.8469  -21.1801   20.1898 C   0  0  0  0  0  0  0  0  0  0  0  0
  -29.1786  -22.0210   22.1692 C   0  0  0  0  0  0  0  0  0  0  0  0
  -27.3477  -20.4155   22.5488 C   0  0  0  0  0  0  0  0  0  0  0  0
  -28.4011  -26.6540   20.3243 C   0  0  1  0  0  0  0  0  0  0  0  0
  -26.3417  -29.8248   20.6964 C   0  0  1  0  0  0  0  0  0  0  0  0
  -26.7482  -20.7145   21.1641 C   0  0  2  0  0  0  0  0  0  0  0  0
  -18.9028  -23.2941   25.6354 C   0  0  0  0  0  0  0  0  0  0  0  0
  -20.2084  -25.0593   26.8741 C   0  0  0  0  0  0  0  0  0  0  0  0
  -23.8464  -35.6999   25.0849 C   0  0  0  0  0  0  0  0  0  0  0  0
  -25.8892  -21.3779   27.2382 C   0  0  0  0  0  0  0  0  0  0  0  0
  -27.0105  -29.8840   25.2691 C   0  0  0  0  0  0  0  0  0  0  0  0
  -25.8995  -31.7615   26.4975 C   0  0  0  0  0  0  0  0  0  0  0  0
  -27.9206  -32.2076   25.1050 C   0  0  0  0  0  0  0  0  0  0  0  0
  -22.6869  -34.8423   21.5641 C   0  0  0  0  0  0  0  0  0  0  0  0
  -22.3877  -23.8509   23.7361 C   0  0  0  0  0  0  0  0  0  0  0  0
  -23.3850  -24.2933   24.8067 C   0  0  0  0  0  0  0  0  0  0  0  0
  -25.4398  -23.5852   26.0376 C   0  0  0  0  0  0  0  0  0  0  0  0
  -20.1541  -24.1906   25.6041 C   0  0  0  0  0  0  0  0  0  0  0  0
  -25.7193  -31.7027   23.9686 C   0  0  1  0  0  0  0  0  0  0  0  0
  -23.9352  -35.0379   23.7187 C   0  0  2  0  0  0  0  0  0  0  0  0
  -26.4111  -22.4267   26.2608 C   0  0  2  0  0  0  0  0  0  0  0  0
  -26.6233  -31.3743   25.1902 C   0  0  0  0  0  0  0  0  0  0  0  0
  -26.3762  -18.2885   20.9211 N   0  0  0  0  0  0  0  0  0  0  0  0
  -25.9736  -19.5326   20.6108 N   0  0  0  0  0  0  0  0  0  0  0  0
  -25.6768  -30.3830   21.8756 N   0  0  0  0  0  0  0  0  0  0  0  0
  -28.0867  -21.5875   23.0442 N   0  0  0  0  0  0  0  0  0  0  0  0
  -24.3368  -20.7408   19.3975 N   0  0  0  0  0  0  0  0  0  0  0  0
  -23.2270  -16.4298   18.6361 N   0  0  0  0  0  0  0  0  0  0  0  0
  -27.7062  -27.9083   20.1282 N   0  0  0  0  0  0  0  0  0  0  0  0
  -25.3592  -33.1117   23.8534 N   0  0  0  0  0  0  0  0  0  0  0  0
  -26.7870  -21.8112   25.0075 N   0  0  0  0  0  0  0  0  0  0  0  0
  -22.7205  -35.4067   22.9379 N   0  3  0  0  0  0  0  0  0  0  0  0
  -24.3873  -23.2263   25.0484 N   0  3  0  0  0  0  0  0  0  0  0  0
  -22.6661  -18.6056   18.1782 O   0  0  0  0  0  0  0  0  0  0  0  0
  -26.8181  -28.1295   22.2694 O   0  0  0  0  0  0  0  0  0  0  0  0
  -27.4332  -31.8460   22.3351 O   0  0  0  0  0  0  0  0  0  0  0  0
  -23.0633  -32.7941   23.9243 O   0  0  0  0  0  0  0  0  0  0  0  0
  -28.5174  -23.2576   24.5943 O   0  0  0  0  0  0  0  0  0  0  0  0
  -25.8682  -11.9478   20.6288 O   0  0  0  0  0  0  0  0  0  0  0  0
  -20.4233  -27.3077   20.8779 O   0  0  0  0  0  0  0  0  0  1  0  0
  -21.2209   -9.1241   21.5416 F   0  0  0  0  0  0  0  0  0  0  0  0
  -25.5951  -10.3520   22.8697 F   0  0  0  0  0  0  0  0  0  0  0  0
  1  2  1  0  0  0  0
  1  5  2  0  0  0  0
  2  6  2  0  0  0  0
  3  9  2  0  0  0  0
  3 18  1  0  0  0  0
  4 10  1  0  0  0  0
  4 18  2  0  0  0  0
  5 20  1  0  0  0  0
  6 22  1  0  0  0  0
  7 11  2  0  0  0  0
  7 21  1  0  0  0  0
  8 12  2  0  0  0  0
  8 24  1  0  0  0  0
  9 26  1  0  0  0  0
 10 26  2  0  0  0  0
 11 27  1  0  0  0  0
 12 28  1  0  0  0  0
 13 14  2  0  0  0  0
 13 29  1  0  0  0  0
 14 30  1  0  0  0  0
 15 23  1  0  0  0  0
 15 27  2  0  0  0  0
 16 25  1  0  0  0  0
 16 28  2  0  0  0  0
 17 30  2  0  0  0  0
 17 31  1  0  0  0  0
 18 32  1  0  0  0  0
 19 32  1  0  0  0  0
 19 33  2  0  0  0  0
 19 34  1  0  0  0  0
 20 22  2  0  0  0  0
 20 39  1  0  0  0  0
 21 23  2  0  0  0  0
 21 40  1  0  0  0  0
 22 48  1  0  0  0  0
 23 41  1  0  0  0  0
 24 25  2  0  0  0  0
 24 62  1  0  0  0  0
 25 59  1  0  0  0  0
 26 83  1  0  0  0  0
 27 84  1  0  0  0  0
 28 84  1  0  0  0  0
 29 31  2  0  0  0  0
 29 83  1  0  0  0  0
 30 85  1  0  0  0  0
 31 86  1  0  0  0  0
 32 67  2  0  0  0  0
 33 68  1  0  0  0  0
 33 71  1  0  0  0  0
 34 72  1  0  0  0  0
 34 78  2  0  0  0  0
 35 49  1  0  0  0  0
 35 73  1  0  0  0  0
 35 79  2  0  0  0  0
 36 63  1  0  0  0  0
 36 69  1  0  0  0  0
 36 80  2  0  0  0  0
 37 64  1  0  0  0  0
 37 74  1  0  0  0  0
 37 81  2  0  0  0  0
 38 70  1  0  0  0  0
 38 75  1  0  0  0  0
 38 82  2  0  0  0  0
 39 42  1  0  0  0  0
 40 49  1  0  0  0  0
 41 69  1  0  0  0  0
 42 44  1  0  0  0  0
 43 45  1  0  0  0  0
 43 46  1  0  0  0  0
 44 48  1  0  0  0  0
 45 50  1  0  0  0  0
 46 70  1  0  0  0  0
 47 50  1  0  0  0  0
 47 70  1  0  0  0  0
 48 73  1  0  0  0  0
 49 69  1  0  0  0  0
 50 68  1  0  0  0  0
 51 62  1  0  0  0  0
 52 62  1  0  0  0  0
 53 64  1  0  0  0  0
 54 65  1  0  0  0  0
 55 66  1  0  0  0  0
 56 66  1  0  0  0  0
 57 66  1  0  0  0  0
 58 76  1  0  0  0  0
 59 60  1  0  0  0  0
 60 77  1  0  0  0  0
 61 65  1  0  0  0  0
 61 77  1  0  0  0  0
 63 66  1  0  0  0  0
 63 74  1  0  0  0  0
 64 76  1  0  0  0  0
 65 75  1  0  0  0  0
 67 68  1  0  0  0  0
M  CHG  2  76   1  77   1
M  ISO  4  28 101  38 100  75 100  84 101
M  END
> <Batch ID>
0144

> <Smiles>
CNC(C)C(=O)NC(C(=O)N1Cc2cc([101O:1][101c:1]3ccc(C(C)C)c(CCNCC(C)[100NH:0][100C:0](=O)N4CCCC(n5nc(-c6ccc(Oc7ccc(F)cc7F)cc6)c(C(N)=O)c5N)C4)c3)ccc2CC1C(=O)NC1CCCc2ccccc21)C(C)(C)C

> <Shape>
0.285

> <Color>
0.071

> <Negative vol penalty>
0.000

$$$$

  -OEChem-04052321263D

 86 95  0     1  0  0  0  0  0999 V2000
  -19.9502  -30.9704   20.8254 C   0  0  0  0  0  0  0  0  0  0  0  0
  -21.2165  -30.4617   20.5550 C   0  0  0  0  0  0  0  0  0  0  0  0
  -26.0435  -12.5172   21.6182 C   0  0  0  0  0  0  0  0  0  0  0  0
  -25.6294  -12.9855   19.2845 C   0  0  0  0  0  0  0  0  0  0  0  0
  -19.0296  -30.2033   21.5382 C   0  0  0  0  0  0  0  0  0  0  0  0
  -21.5633  -29.1859   20.9982 C   0  0  0  0  0  0  0  0  0  0  0  0
  -23.9450  -26.4755   17.4448 C   0  0  0  0  0  0  0  0  0  0  0  0
  -24.9100  -11.7052   21.6565 C   0  0  0  0  0  0  0  0  0  0  0  0
  -24.4959  -12.1735   19.3227 C   0  0  0  0  0  0  0  0  0  0  0  0
  -25.2925  -26.7578   17.2253 C   0  0  0  0  0  0  0  0  0  0  0  0
  -24.0577   -8.5715   20.7150 C   0  0  0  0  0  0  0  0  0  0  0  0
  -24.1676   -7.3344   21.3498 C   0  0  0  0  0  0  0  0  0  0  0  0
  -25.9047  -24.8486   18.5668 C   0  0  0  0  0  0  0  0  0  0  0  0
  -22.4393   -7.9810   22.9092 C   0  0  0  0  0  0  0  0  0  0  0  0
  -26.4032  -13.1573   20.4322 C   0  0  0  0  0  0  0  0  0  0  0  0
  -28.8897  -13.6059   20.0801 C   0  0  0  0  0  0  0  0  0  0  0  0
  -19.3621  -28.9137   21.9820 C   0  0  0  0  0  0  0  0  0  0  0  0
  -23.5667  -25.3822   18.2373 C   0  0  0  0  0  0  0  0  0  0  0  0
  -20.6468  -28.4013   21.7188 C   0  0  0  0  0  0  0  0  0  0  0  0
  -24.5517  -24.5531   18.7927 C   0  0  0  0  0  0  0  0  0  0  0  0
  -30.4370  -25.4537   17.2465 C   0  0  0  0  0  0  0  0  0  0  0  0
  -30.8020  -24.1266   17.3495 C   0  0  0  0  0  0  0  0  0  0  0  0
  -31.1413  -23.6383   18.6091 C   0  0  0  0  0  0  0  0  0  0  0  0
  -24.1362  -11.5334   20.5087 C   0  0  0  0  0  0  0  0  0  0  0  0
  -26.2727  -25.9460   17.7887 C   0  0  0  0  0  0  0  0  0  0  0  0
  -23.1386   -9.5135   21.1774 C   0  0  0  0  0  0  0  0  0  0  0  0
  -23.3584   -7.0391   22.4469 C   0  0  0  0  0  0  0  0  0  0  0  0
  -22.3294   -9.2182   22.2744 C   0  0  0  0  0  0  0  0  0  0  0  0
  -27.5737  -13.9967   20.3922 C   0  0  0  0  0  0  0  0  0  0  0  0
  -30.4360  -26.2448   18.3889 C   0  0  0  0  0  0  0  0  0  0  0  0
  -31.1060  -24.5115   19.6962 C   0  0  0  0  0  0  0  0  0  0  0  0
  -29.6242  -14.7622   20.1809 C   0  0  0  0  0  0  0  0  0  0  0  0
  -29.4023  -12.3135   19.7302 C   0  0  0  0  0  0  0  0  0  0  0  0
  -21.9622  -25.0331   20.9590 C   0  0  0  0  0  0  0  0  0  0  0  0
  -22.2566  -21.8761   20.2741 C   0  0  0  0  0  0  0  0  0  0  0  0
  -23.9683  -19.4114   18.6485 C   0  0  0  0  0  0  0  0  0  0  0  0
  -30.2988  -20.0801   19.0802 C   0  0  0  0  0  0  0  0  0  0  0  0
  -18.3500  -28.1406   22.7899 C   0  0  0  0  0  0  0  0  0  0  0  0
  -22.1085  -25.0755   18.4425 C   0  0  0  0  0  0  0  0  0  0  0  0
  -30.0595  -26.2394   16.0350 C   0  0  0  0  0  0  0  0  0  0  0  0
  -24.1977  -23.3554   19.6345 C   0  0  0  0  0  0  0  0  0  0  0  0
  -30.0605  -27.6616   18.0581 C   0  0  0  0  0  0  0  0  0  0  0  0
  -18.6674  -26.6515   22.8997 C   0  0  0  0  0  0  0  0  0  0  0  0
  -28.3899  -19.2967   22.0534 C   0  0  0  0  0  0  0  0  0  0  0  0
  -20.1368  -26.4435   23.2525 C   0  0  0  0  0  0  0  0  0  0  0  0
  -28.1166  -17.8047   21.8550 C   0  0  0  0  0  0  0  0  0  0  0  0
  -28.3301  -20.0507   20.7282 C   0  0  0  0  0  0  0  0  0  0  0  0
  -28.9679  -18.0269   19.4747 C   0  0  0  0  0  0  0  0  0  0  0  0
  -21.0520  -27.0121   22.1614 C   0  0  1  0  0  0  0  0  0  0  0  0
  -21.8438  -24.2378   19.6897 C   0  0  1  0  0  0  0  0  0  0  0  0
  -29.4165  -27.4986   16.6628 C   0  0  2  0  0  0  0  0  0  0  0  0
  -29.0364  -17.2053   20.7748 C   0  0  2  0  0  0  0  0  0  0  0  0
  -31.4666  -24.0205   21.0612 C   0  0  0  0  0  0  0  0  0  0  0  0
  -32.2957  -22.0883   14.4308 C   0  0  0  0  0  0  0  0  0  0  0  0
  -23.9942  -16.9251   18.3099 C   0  0  0  0  0  0  0  0  0  0  0  0
  -23.4525  -21.5118   23.0574 C   0  0  0  0  0  0  0  0  0  0  0  0
  -24.3121  -19.2791   22.3198 C   0  0  0  0  0  0  0  0  0  0  0  0
  -21.8565  -19.7155   22.3645 C   0  0  0  0  0  0  0  0  0  0  0  0
  -23.5518  -19.6878   15.7315 C   0  0  0  0  0  0  0  0  0  0  0  0
  -30.8325  -23.2508   16.1438 C   0  0  0  0  0  0  0  0  0  0  0  0
  -31.5379  -22.2100   18.7886 C   0  0  0  0  0  0  0  0  0  0  0  0
  -27.8939  -27.3541   16.7665 C   0  0  0  0  0  0  0  0  0  1  0  0
  -32.2640  -23.0096   15.6399 C   0  0  0  0  0  0  0  0  0  0  0  0
  -23.2769  -20.8063   20.5800 C   0  0  1  0  0  0  0  0  0  0  0  0
  -23.4942  -18.2601   17.7802 C   0  0  2  0  0  0  0  0  0  0  0  0
  -23.2315  -20.3518   22.0662 C   0  0  0  0  0  0  0  0  0  0  0  0
  -27.4749  -15.2992   20.6706 N   0  0  0  0  0  0  0  0  0  0  0  0
  -30.7633  -25.8200   19.6205 N   0  0  0  0  0  0  0  0  0  0  0  0
  -28.7381  -15.7371   20.5339 N   0  0  0  0  0  0  0  0  0  0  0  0
  -22.7585  -23.1007   19.8113 N   0  0  0  0  0  0  0  0  0  0  0  0
  -29.2421  -19.4412   19.7500 N   0  0  0  0  0  0  0  0  0  0  0  0
  -30.9351  -15.0298   20.0012 N   0  0  0  0  0  0  0  0  0  0  0  0
  -28.5102  -11.2340   19.6727 N   0  0  0  0  0  0  0  0  0  0  0  0
  -21.1046  -26.1144   21.0275 N   0  0  0  0  0  0  0  0  0  0  0  0
  -23.0438  -19.7332   19.6196 N   0  0  0  0  0  0  0  0  0  0  0  0
  -30.4872  -21.4209   19.3922 N   0  0  0  0  0  0  0  0  0  0  0  0
  -23.9883  -18.4266   16.3841 N   0  3  0  0  0  0  0  0  0  0  0  0
  -30.6183  -12.1182   19.4922 O   0  0  0  0  0  0  0  0  0  0  0  0
  -22.7707  -24.6902   21.8136 O   0  0  0  0  0  0  0  0  0  0  0  0
  -21.0580  -21.6316   20.4328 O   0  0  0  0  0  0  0  0  0  0  0  0
  -25.0522  -19.9672   18.4844 O   0  0  0  0  0  0  0  0  0  0  0  0
  -31.0248  -19.4970   18.2677 O   0  0  0  0  0  0  0  0  0  0  0  0
  -23.0302  -10.7410   20.5456 O   0  0  0  0  0  0  0  0  0  0  0  0
  -27.5887  -26.2196   17.5765 O   0  0  0  0  0  0  0  0  0  1  0  0
  -23.4630   -5.8504   23.0554 F   0  0  0  0  0  0  0  0  0  0  0  0
  -21.4438  -10.1186   22.7224 F   0  0  0  0  0  0  0  0  0  0  0  0
  1  2  1  0  0  0  0
  1  5  2  0  0  0  0
  2  6  2  0  0  0  0
  3  8  2  0  0  0  0
  3 15  1  0  0  0  0
  4  9  1  0  0  0  0
  4 15  2  0  0  0  0
  5 17  1  0  0  0  0
  6 19  1  0  0  0  0
  7 10  2  0  0  0  0
  7 18  1  0  0  0  0
  8 24  1  0  0  0  0
  9 24  2  0  0  0  0
 10 25  1  0  0  0  0
 11 12  2  0  0  0  0
 11 26  1  0  0  0  0
 12 27  1  0  0  0  0
 13 20  1  0  0  0  0
 13 25  2  0  0  0  0
 14 27  2  0  0  0  0
 14 28  1  0  0  0  0
 15 29  1  0  0  0  0
 16 29  1  0  0  0  0
 16 32  2  0  0  0  0
 16 33  1  0  0  0  0
 17 19  2  0  0  0  0
 17 38  1  0  0  0  0
 18 20  2  0  0  0  0
 18 39  1  0  0  0  0
 19 49  1  0  0  0  0
 20 41  1  0  0  0  0
 21 22  2  0  0  0  0
 21 30  1  0  0  0  0
 21 40  1  0  0  0  0
 22 23  1  0  0  0  0
 22 60  1  0  0  0  0
 23 31  2  0  0  0  0
 23 61  1  0  0  0  0
 24 83  1  0  0  0  0
 25 84  1  0  0  0  0
 26 28  2  0  0  0  0
 26 83  1  0  0  0  0
 27 85  1  0  0  0  0
 28 86  1  0  0  0  0
 29 67  2  0  0  0  0
 30 42  1  0  0  0  0
 30 68  2  0  0  0  0
 31 53  1  0  0  0  0
 31 68  1  0  0  0  0
 32 69  1  0  0  0  0
 32 72  1  0  0  0  0
 33 73  1  0  0  0  0
 33 78  2  0  0  0  0
 34 50  1  0  0  0  0
 34 74  1  0  0  0  0
 34 79  2  0  0  0  0
 35 64  1  0  0  0  0
 35 70  1  0  0  0  0
 35 80  2  0  0  0  0
 36 65  1  0  0  0  0
 36 75  1  0  0  0  0
 36 81  2  0  0  0  0
 37 71  1  0  0  0  0
 37 76  1  0  0  0  0
 37 82  2  0  0  0  0
 38 43  1  0  0  0  0
 39 50  1  0  0  0  0
 40 51  1  0  0  0  0
 41 70  1  0  0  0  0
 42 51  1  0  0  0  0
 43 45  1  0  0  0  0
 44 46  1  0  0  0  0
 44 47  1  0  0  0  0
 45 49  1  0  0  0  0
 46 52  1  0  0  0  0
 47 71  1  0  0  0  0
 48 52  1  0  0  0  0
 48 71  1  0  0  0  0
 49 74  1  0  0  0  0
 50 70  1  0  0  0  0
 51 62  1  0  0  0  0
 52 69  1  0  0  0  0
 54 63  1  0  0  0  0
 55 65  1  0  0  0  0
 56 66  1  0  0  0  0
 57 66  1  0  0  0  0
 58 66  1  0  0  0  0
 59 77  1  0  0  0  0
 60 63  1  0  0  0  0
 61 76  1  0  0  0  0
 62 84  1  0  0  0  0
 64 66  1  0  0  0  0
 64 75  1  0  0  0  0
 65 77  1  0  0  0  0
 67 69  1  0  0  0  0
M  CHG  1  77   1
M  ISO  4  37 100  62 101  76 100  84 101
M  END
> <Batch ID>
0144

> <Smiles>
CCCc1c(C[100NH:0][100C:0](=O)N2CCCC(n3nc(-c4ccc(Oc5ccc(F)cc5F)cc4)c(C(N)=O)c3N)C2)c(C)nc2c1CC([101CH2:1][101O:1]c1ccc3c(c1)CN(C(=O)C(NC(=O)C(C)NC)C(C)(C)C)C(C(=O)NC1CCCc4ccccc41)C3)C2

> <Shape>
0.229

> <Color>
0.060

> <Negative vol penalty>
0.000

$$$$

  -OEChem-04052321263D

 94104  0     1  0  0  0  0  0999 V2000
  -19.5915   -8.8719   20.7047 C   0  0  0  0  0  0  0  0  0  0  0  0
  -19.7032  -10.1303   21.2872 C   0  0  0  0  0  0  0  0  0  0  0  0
  -21.7090  -28.8461   20.1557 C   0  0  0  0  0  0  0  0  0  0  0  0
  -23.0301  -27.4182   21.5883 C   0  0  0  0  0  0  0  0  0  0  0  0
  -20.7353   -8.1106   20.4679 C   0  0  0  0  0  0  0  0  0  0  0  0
  -20.9588  -10.6277   21.6344 C   0  0  0  0  0  0  0  0  0  0  0  0
  -22.7977  -16.4648   21.4074 C   0  0  0  0  0  0  0  0  0  0  0  0
  -20.7003  -27.8832   20.1260 C   0  0  0  0  0  0  0  0  0  0  0  0
  -22.0214  -26.4552   21.5587 C   0  0  0  0  0  0  0  0  0  0  0  0
  -22.8984  -17.4552   22.3835 C   0  0  0  0  0  0  0  0  0  0  0  0
  -18.1979  -26.8339   22.1434 C   0  0  0  0  0  0  0  0  0  0  0  0
  -16.8833  -27.2666   22.3168 C   0  0  0  0  0  0  0  0  0  0  0  0
  -25.2327  -16.9212   22.6758 C   0  0  0  0  0  0  0  0  0  0  0  0
  -26.5831  -25.4058   24.7181 C   0  0  0  0  0  0  0  0  0  0  0  0
  -16.3067  -26.3864   20.1419 C   0  0  0  0  0  0  0  0  0  0  0  0
  -22.8739  -28.6136   20.8868 C   0  0  0  0  0  0  0  0  0  0  0  0
  -24.0582  -30.6628   21.8386 C   0  0  0  0  0  0  0  0  0  0  0  0
  -22.0064   -8.6029   20.8035 C   0  0  0  0  0  0  0  0  0  0  0  0
  -23.9129  -15.6866   21.0653 C   0  0  0  0  0  0  0  0  0  0  0  0
  -22.1205   -9.8717   21.4031 C   0  0  0  0  0  0  0  0  0  0  0  0
  -25.1441  -15.9234   21.6931 C   0  0  0  0  0  0  0  0  0  0  0  0
  -25.5499  -24.5612   25.1239 C   0  0  0  0  0  0  0  0  0  0  0  0
  -27.1521  -22.8018   25.5415 C   0  0  0  0  0  0  0  0  0  0  0  0
  -25.8343  -23.2592   25.5356 C   0  0  0  0  0  0  0  0  0  0  0  0
  -28.1853  -23.6464   25.1356 C   0  0  0  0  0  0  0  0  0  0  0  0
  -20.8565  -26.6877   20.8275 C   0  0  0  0  0  0  0  0  0  0  0  0
  -24.1153  -17.6815   23.0200 C   0  0  0  0  0  0  0  0  0  0  0  0
  -18.5670  -26.1776   20.9692 C   0  0  0  0  0  0  0  0  0  0  0  0
  -27.9008  -24.9483   24.7239 C   0  0  0  0  0  0  0  0  0  0  0  0
  -15.9377  -27.0429   21.3161 C   0  0  0  0  0  0  0  0  0  0  0  0
  -17.6214  -25.9538   19.9685 C   0  0  0  0  0  0  0  0  0  0  0  0
  -23.9165  -29.6077   20.9175 C   0  0  0  0  0  0  0  0  0  0  0  0
  -25.1986  -31.3161   21.4396 C   0  0  0  0  0  0  0  0  0  0  0  0
  -23.2330  -31.0203   22.9553 C   0  0  0  0  0  0  0  0  0  0  0  0
  -24.6157  -12.5898   21.2066 C   0  0  0  0  0  0  0  0  0  0  0  0
  -27.2924  -13.5239   19.6302 C   0  0  0  0  0  0  0  0  0  0  0  0
  -29.4891  -16.0259   18.8810 C   0  0  0  0  0  0  0  0  0  0  0  0
  -28.7682  -27.8631   20.3910 C   0  0  0  0  0  0  0  0  0  0  0  0
  -23.2098   -7.7239   20.5717 C   0  0  0  0  0  0  0  0  0  0  0  0
  -23.7943  -14.6403   19.9912 C   0  0  0  0  0  0  0  0  0  0  0  0
  -26.3762  -15.1290   21.3477 C   0  0  0  0  0  0  0  0  0  0  0  0
  -24.5353   -8.4792   20.6254 C   0  0  0  0  0  0  0  0  0  0  0  0
  -26.8606  -29.1918   17.6776 C   0  0  0  0  0  0  0  0  0  0  0  0
  -31.6998  -28.5381   22.4158 C   0  0  0  0  0  0  0  0  0  0  0  0
  -24.5764   -9.3996   21.8411 C   0  0  0  0  0  0  0  0  0  0  0  0
  -30.2339  -23.9273   27.5836 C   0  0  0  0  0  0  0  0  0  0  0  0
  -31.4537  -23.2583   27.0140 C   0  0  0  0  0  0  0  0  0  0  0  0
  -26.6580  -30.6623   18.0256 C   0  0  0  0  0  0  0  0  0  0  0  0
  -30.9562  -27.6174   23.3731 C   0  0  0  0  0  0  0  0  0  0  0  0
  -28.2298  -28.7159   18.1378 C   0  0  0  0  0  0  0  0  0  0  0  0
  -30.5697  -29.1744   21.6215 C   0  0  0  0  0  0  0  0  0  0  0  0
  -28.2055  -30.3229   20.0359 C   0  0  0  0  0  0  0  0  0  0  0  0
  -23.4671  -10.4561   21.7710 C   0  0  1  0  0  0  0  0  0  0  0  0
  -24.8678  -13.5606   20.0878 C   0  0  1  0  0  0  0  0  0  0  0  0
  -30.4908  -23.9675   26.1027 C   0  0  0  0  0  0  0  0  0  0  0  0
  -26.8924  -30.9528   19.5166 C   0  0  2  0  0  0  0  0  0  0  0  0
  -29.8067  -27.0761   22.5185 C   0  0  1  0  0  0  0  0  0  0  0  0
  -24.1476  -25.0757   25.1069 C   0  0  0  0  0  0  0  0  0  0  0  0
  -27.4579  -21.4054   25.9832 C   0  0  0  0  0  0  0  0  0  0  0  0
  -30.2204  -23.1581   23.7306 C   0  0  0  0  0  0  0  0  0  0  0  0
  -31.5986  -16.4769   17.5987 C   0  0  0  0  0  0  0  0  0  0  0  0
  -28.9108  -12.1228   21.8045 C   0  0  0  0  0  0  0  0  0  0  0  0
  -30.9256  -13.3862   21.0216 C   0  0  0  0  0  0  0  0  0  0  0  0
  -29.7786  -11.7933   19.4822 C   0  0  0  0  0  0  0  0  0  0  0  0
  -28.1503  -18.0224   17.1546 C   0  0  0  0  0  0  0  0  0  0  0  0
  -24.7239  -22.3560   25.9710 C   0  0  0  0  0  0  0  0  0  0  0  0
  -28.5696  -26.7740   23.3543 C   0  0  0  0  0  0  0  0  0  0  0  0
  -23.3183  -20.3738   25.3932 C   0  0  0  0  0  0  0  0  0  0  0  0
  -23.0374  -19.3911   24.2736 C   0  0  0  0  0  0  0  0  0  1  0  0
  -29.6008  -23.1630   25.1391 C   0  0  2  0  0  0  0  0  0  0  0  0
  -28.6667  -13.9938   20.0421 C   0  0  1  0  0  0  0  0  0  0  0  0
  -30.0783  -16.4871   17.5602 C   0  0  2  0  0  0  0  0  0  0  0  0
  -29.5469  -12.8378   20.5957 C   0  0  0  0  0  0  0  0  0  0  0  0
  -24.8889  -29.5883   20.0021 N   0  0  0  0  0  0  0  0  0  0  0  0
  -25.6527  -30.6392   20.3461 N   0  0  0  0  0  0  0  0  0  0  0  0
  -26.2079  -14.1130   20.2956 N   0  0  0  0  0  0  0  0  0  0  0  0
  -28.4384  -28.9494   19.5669 N   0  0  0  0  0  0  0  0  0  0  0  0
  -29.5662  -28.1146   21.5094 N   0  0  0  0  0  0  0  0  0  0  0  0
  -25.8472  -32.3978   21.9209 N   0  0  0  0  0  0  0  0  0  0  0  0
  -22.0988  -30.2420   23.2241 N   0  0  0  0  0  0  0  0  0  0  0  0
  -23.8309  -11.5103   20.8487 N   0  0  0  0  0  0  0  0  0  0  0  0
  -29.2317  -14.6713   18.8802 N   0  0  0  0  0  0  0  0  0  0  0  0
  -29.6254  -17.8718   17.2463 N   0  3  0  0  0  0  0  0  0  0  0  0
  -24.3807  -21.3199   24.9608 N   0  3  0  0  0  0  0  0  0  0  0  0
  -23.4845  -32.0106   23.6829 O   0  0  0  0  0  0  0  0  0  0  0  0
  -25.0988  -12.8036   22.3123 O   0  0  0  0  0  0  0  0  0  0  0  0
  -27.1849  -12.6711   18.7455 O   0  0  0  0  0  0  0  0  0  0  0  0
  -29.2817  -16.7902   19.8209 O   0  0  0  0  0  0  0  0  0  0  0  0
  -28.3757  -26.7173   20.1339 O   0  0  0  0  0  0  0  0  0  0  0  0
  -19.8724  -25.7479   20.7989 O   0  0  0  0  0  0  0  0  0  0  0  0
  -28.9042  -25.7941   24.3211 O   0  0  0  0  0  0  0  0  0  0  0  0
  -24.2170  -18.6540   23.9804 O   0  0  0  0  0  0  0  0  0  1  0  0
  -14.6749  -27.4571   21.4834 F   0  0  0  0  0  0  0  0  0  0  0  0
  -17.9697  -25.3227   18.8388 F   0  0  0  0  0  0  0  0  0  0  0  0
  1  2  1  0  0  0  0
  1  5  2  0  0  0  0
  2  6  2  0  0  0  0
  3  8  2  0  0  0  0
  3 16  1  0  0  0  0
  4  9  1  0  0  0  0
  4 16  2  0  0  0  0
  5 18  1  0  0  0  0
  6 20  1  0  0  0  0
  7 10  2  0  0  0  0
  7 19  1  0  0  0  0
  8 26  1  0  0  0  0
  9 26  2  0  0  0  0
 10 27  1  0  0  0  0
 11 12  2  0  0  0  0
 11 28  1  0  0  0  0
 12 30  1  0  0  0  0
 13 21  1  0  0  0  0
 13 27  2  0  0  0  0
 14 22  2  0  0  0  0
 14 29  1  0  0  0  0
 15 30  2  0  0  0  0
 15 31  1  0  0  0  0
 16 32  1  0  0  0  0
 17 32  1  0  0  0  0
 17 33  2  0  0  0  0
 17 34  1  0  0  0  0
 18 20  2  0  0  0  0
 18 39  1  0  0  0  0
 19 21  2  0  0  0  0
 19 40  1  0  0  0  0
 20 53  1  0  0  0  0
 21 41  1  0  0  0  0
 22 24  1  0  0  0  0
 22 58  1  0  0  0  0
 23 24  2  0  0  0  0
 23 25  1  0  0  0  0
 23 59  1  0  0  0  0
 24 66  1  0  0  0  0
 25 29  2  0  0  0  0
 25 70  1  0  0  0  0
 26 90  1  0  0  0  0
 27 92  1  0  0  0  0
 28 31  2  0  0  0  0
 28 90  1  0  0  0  0
 29 91  1  0  0  0  0
 30 93  1  0  0  0  0
 31 94  1  0  0  0  0
 32 74  2  0  0  0  0
 33 75  1  0  0  0  0
 33 79  1  0  0  0  0
 34 80  1  0  0  0  0
 34 85  2  0  0  0  0
 35 54  1  0  0  0  0
 35 81  1  0  0  0  0
 35 86  2  0  0  0  0
 36 71  1  0  0  0  0
 36 76  1  0  0  0  0
 36 87  2  0  0  0  0
 37 72  1  0  0  0  0
 37 82  1  0  0  0  0
 37 88  2  0  0  0  0
 38 77  1  0  0  0  0
 38 78  1  0  0  0  0
 38 89  2  0  0  0  0
 39 42  1  0  0  0  0
 40 54  1  0  0  0  0
 41 76  1  0  0  0  0
 42 45  1  0  0  0  0
 43 48  1  0  0  0  0
 43 50  1  0  0  0  0
 44 49  1  0  0  0  0
 44 51  1  0  0  0  0
 45 53  1  0  0  0  0
 46 47  1  0  0  0  0
 46 55  1  0  0  0  0
 47 55  1  0  0  0  0
 48 56  1  0  0  0  0
 49 57  1  0  0  0  0
 50 77  1  0  0  0  0
 51 78  1  0  0  0  0
 52 56  1  0  0  0  0
 52 77  1  0  0  0  0
 53 81  1  0  0  0  0
 54 76  1  0  0  0  0
 55 70  1  0  0  0  0
 56 75  1  0  0  0  0
 57 67  1  0  0  0  0
 57 78  1  0  0  0  0
 60 70  1  0  0  0  0
 61 72  1  0  0  0  0
 62 73  1  0  0  0  0
 63 73  1  0  0  0  0
 64 73  1  0  0  0  0
 65 83  1  0  0  0  0
 66 84  1  0  0  0  0
 67 91  1  0  0  0  0
 68 69  1  0  0  0  0
 68 84  1  0  0  0  0
 69 92  1  0  0  0  0
 71 73  1  0  0  0  0
 71 82  1  0  0  0  0
 72 83  1  0  0  0  0
 74 75  1  0  0  0  0
M  CHG  2  83   1  84   1
M  ISO  4  38 100  69 101  78 100  92 101
M  END
> <Batch ID>
0144

> <Smiles>
CNC(C)C(=O)NC(C(=O)N1Cc2cc([101O:1][101CH2:1]CNCc3c(C)cc(OCC4CCC[100N:0]4[100C:0](=O)N4CCCC(n5nc(-c6ccc(Oc7ccc(F)cc7F)cc6)c(C(N)=O)c5N)C4)c(C(C)C4CC4)c3C)ccc2CC1C(=O)NC1CCCc2ccccc21)C(C)(C)C

> <Shape>
0.234

> <Color>
0.077

> <Negative vol penalty>
0.000

$$$$

  -OEChem-04052321263D

 86 95  0     1  0  0  0  0  0999 V2000
  -25.6083  -13.0830   20.0499 C   0  0  0  0  0  0  0  0  0  0  0  0
  -24.9040  -14.2382   19.7262 C   0  0  0  0  0  0  0  0  0  0  0  0
  -28.6652  -27.4740   19.1532 C   0  0  0  0  0  0  0  0  0  0  0  0
  -27.7035  -25.8176   20.6259 C   0  0  0  0  0  0  0  0  0  0  0  0
  -25.8702  -12.7787   21.3851 C   0  0  0  0  0  0  0  0  0  0  0  0
  -24.4601  -15.0893   20.7377 C   0  0  0  0  0  0  0  0  0  0  0  0
  -24.0527  -21.1952   20.4966 C   0  0  0  0  0  0  0  0  0  0  0  0
  -29.8071  -26.6857   19.0122 C   0  0  0  0  0  0  0  0  0  0  0  0
  -28.8455  -25.0292   20.4848 C   0  0  0  0  0  0  0  0  0  0  0  0
  -22.9830  -22.0549   20.2509 C   0  0  0  0  0  0  0  0  0  0  0  0
  -30.1330  -22.8994   18.1986 C   0  0  0  0  0  0  0  0  0  0  0  0
  -29.9528  -21.5340   17.9778 C   0  0  0  0  0  0  0  0  0  0  0  0
  -19.2753  -27.6597   21.3778 C   0  0  0  0  0  0  0  0  0  0  0  0
  -22.6485  -22.3081   22.6264 C   0  0  0  0  0  0  0  0  0  0  0  0
  -20.7471  -27.2936   23.2799 C   0  0  0  0  0  0  0  0  0  0  0  0
  -31.1746  -21.0451   20.0040 C   0  0  0  0  0  0  0  0  0  0  0  0
  -27.6133  -27.0400   19.9601 C   0  0  0  0  0  0  0  0  0  0  0  0
  -25.2730  -27.8202   19.3108 C   0  0  0  0  0  0  0  0  0  0  0  0
  -25.4376  -13.6314   22.4130 C   0  0  0  0  0  0  0  0  0  0  0  0
  -24.4220  -20.8763   21.8113 C   0  0  0  0  0  0  0  0  0  0  0  0
  -24.7152  -14.7954   22.0880 C   0  0  0  0  0  0  0  0  0  0  0  0
  -18.4947  -28.4721   22.1830 C   0  0  0  0  0  0  0  0  0  0  0  0
  -23.7249  -21.4461   22.8862 C   0  0  0  0  0  0  0  0  0  0  0  0
  -18.8336  -28.7017   23.5204 C   0  0  0  0  0  0  0  0  0  0  0  0
  -19.9603  -28.1240   24.0810 C   0  0  0  0  0  0  0  0  0  0  0  0
  -29.8973  -25.4633   19.6779 C   0  0  0  0  0  0  0  0  0  0  0  0
  -22.2789  -22.6092   21.3158 C   0  0  0  0  0  0  0  0  0  0  0  0
  -30.8341  -23.3377   19.3221 C   0  0  0  0  0  0  0  0  0  0  0  0
  -20.4068  -27.0630   21.9378 C   0  0  0  0  0  0  0  0  0  0  0  0
  -30.4736  -20.6068   18.8805 C   0  0  0  0  0  0  0  0  0  0  0  0
  -31.3548  -22.4105   20.2248 C   0  0  0  0  0  0  0  0  0  0  0  0
  -26.4336  -27.8542   20.1067 C   0  0  0  0  0  0  0  0  0  0  0  0
  -24.4545  -28.7789   19.8561 C   0  0  0  0  0  0  0  0  0  0  0  0
  -24.9624  -26.9956   18.1798 C   0  0  0  0  0  0  0  0  0  0  0  0
  -24.5492  -18.1982   23.5186 C   0  0  0  0  0  0  0  0  0  0  0  0
  -25.9189  -20.1347   25.7314 C   0  0  0  0  0  0  0  0  0  0  0  0
  -26.3353  -23.2922   26.9575 C   0  0  0  0  0  0  0  0  0  0  0  0
  -23.0051  -31.0232   24.9919 C   0  0  0  0  0  0  0  0  0  0  0  0
  -25.7033  -13.2363   23.8440 C   0  0  0  0  0  0  0  0  0  0  0  0
  -25.5952  -19.9683   22.0597 C   0  0  0  0  0  0  0  0  0  0  0  0
  -17.2680  -29.2399   21.8007 C   0  0  0  0  0  0  0  0  0  0  0  0
  -17.8668  -29.6455   24.1647 C   0  0  0  0  0  0  0  0  0  0  0  0
  -24.0944  -21.1517   24.3163 C   0  0  0  0  0  0  0  0  0  0  0  0
  -25.5238  -14.3828   24.8358 C   0  0  0  0  0  0  0  0  0  0  0  0
  -25.1606  -32.7361   22.7344 C   0  0  0  0  0  0  0  0  0  0  0  0
  -24.2249  -15.1321   24.5562 C   0  0  0  0  0  0  0  0  0  0  0  0
  -25.6007  -31.6487   21.7527 C   0  0  0  0  0  0  0  0  0  0  0  0
  -25.0223  -32.1919   24.1545 C   0  0  0  0  0  0  0  0  0  0  0  0
  -24.5923  -29.9205   23.3004 C   0  0  0  0  0  0  0  0  0  0  0  0
  -24.2387  -15.7563   23.1556 C   0  0  1  0  0  0  0  0  0  0  0  0
  -25.5588  -19.3077   23.4344 C   0  0  1  0  0  0  0  0  0  0  0  0
  -16.6755  -29.6039   23.1810 C   0  0  2  0  0  0  0  0  0  0  0  0
  -24.6914  -30.4086   21.8449 C   0  0  2  0  0  0  0  0  0  0  0  0
  -15.6237  -28.5797   23.6230 C   0  0  0  0  0  0  0  0  0  0  0  0
  -27.4818  -24.5554   28.7979 C   0  0  0  0  0  0  0  0  0  0  0  0
  -23.8247  -19.1403   27.7152 C   0  0  0  0  0  0  0  0  0  0  0  0
  -24.4005  -21.0807   29.1889 C   0  0  0  0  0  0  0  0  0  0  0  0
  -26.1306  -19.3641   28.6571 C   0  0  0  0  0  0  0  0  0  0  0  0
  -27.9159  -24.8913   25.0329 C   0  0  0  0  0  0  0  0  0  0  0  0
  -20.3398  -28.3736   25.4992 C   0  0  0  0  0  0  0  0  0  0  0  0
  -21.0174  -29.7313   25.7263 C   0  0  0  0  0  0  0  0  0  0  0  0
  -21.2867  -24.2305   19.8865 C   0  0  0  0  0  0  0  0  0  1  0  0
  -20.5541  -25.5377   20.1191 C   0  0  0  0  0  0  0  0  0  0  0  0
  -25.4084  -20.9930   26.8635 C   0  0  1  0  0  0  0  0  0  0  0  0
  -27.5810  -24.0588   27.3639 C   0  0  2  0  0  0  0  0  0  0  0  0
  -24.9326  -20.1487   28.0793 C   0  0  0  0  0  0  0  0  0  0  0  0
  -26.3628  -28.7628   21.0832 N   0  0  0  0  0  0  0  0  0  0  0  0
  -25.1478  -29.3085   20.9044 N   0  0  0  0  0  0  0  0  0  0  0  0
  -25.2449  -20.2531   24.5077 N   0  0  0  0  0  0  0  0  0  0  0  0
  -24.1463  -31.0180   24.1730 N   0  0  0  0  0  0  0  0  0  0  0  0
  -23.2166  -29.2122   19.5363 N   0  0  0  0  0  0  0  0  0  0  0  0
  -25.9161  -26.0622   17.7514 N   0  0  0  0  0  0  0  0  0  0  0  0
  -25.0404  -16.9612   23.1470 N   0  0  0  0  0  0  0  0  0  0  0  0
  -26.4762  -21.9376   27.1731 N   0  0  0  0  0  0  0  0  0  0  0  0
  -22.2258  -29.8737   24.9452 N   0  0  0  0  0  0  0  0  0  0  0  0
  -27.7791  -25.2358   26.4715 N   0  3  0  0  0  0  0  0  0  0  0  0
  -23.8781  -27.0952   17.5570 O   0  0  0  0  0  0  0  0  0  0  0  0
  -23.4094  -18.4457   23.8944 O   0  0  0  0  0  0  0  0  0  0  0  0
  -26.8848  -19.3919   25.9237 O   0  0  0  0  0  0  0  0  0  0  0  0
  -25.3359  -23.8406   26.4983 O   0  0  0  0  0  0  0  0  0  0  0  0
  -22.7001  -31.9834   25.7075 O   0  0  0  0  0  0  0  0  0  0  0  0
  -31.0114  -24.6936   19.5403 O   0  0  0  0  0  0  0  0  0  0  0  0
  -21.2340  -23.4481   21.0788 O   0  0  0  0  0  0  0  0  0  1  0  0
  -21.1975  -26.2506   21.1684 O   0  0  0  0  0  0  0  0  0  0  0  0
  -30.2991  -19.2957   18.6691 F   0  0  0  0  0  0  0  0  0  0  0  0
  -32.0281  -22.8256   21.3065 F   0  0  0  0  0  0  0  0  0  0  0  0
  1  2  1  0  0  0  0
  1  5  2  0  0  0  0
  2  6  2  0  0  0  0
  3  8  2  0  0  0  0
  3 17  1  0  0  0  0
  4  9  1  0  0  0  0
  4 17  2  0  0  0  0
  5 19  1  0  0  0  0
  6 21  1  0  0  0  0
  7 10  2  0  0  0  0
  7 20  1  0  0  0  0
  8 26  1  0  0  0  0
  9 26  2  0  0  0  0
 10 27  1  0  0  0  0
 11 12  2  0  0  0  0
 11 28  1  0  0  0  0
 12 30  1  0  0  0  0
 13 22  1  0  0  0  0
 13 29  2  0  0  0  0
 14 23  1  0  0  0  0
 14 27  2  0  0  0  0
 15 25  2  0  0  0  0
 15 29  1  0  0  0  0
 16 30  2  0  0  0  0
 16 31  1  0  0  0  0
 17 32  1  0  0  0  0
 18 32  1  0  0  0  0
 18 33  2  0  0  0  0
 18 34  1  0  0  0  0
 19 21  2  0  0  0  0
 19 39  1  0  0  0  0
 20 23  2  0  0  0  0
 20 40  1  0  0  0  0
 21 50  1  0  0  0  0
 22 24  2  0  0  0  0
 22 41  1  0  0  0  0
 23 43  1  0  0  0  0
 24 25  1  0  0  0  0
 24 42  1  0  0  0  0
 25 60  1  0  0  0  0
 26 82  1  0  0  0  0
 27 83  1  0  0  0  0
 28 31  2  0  0  0  0
 28 82  1  0  0  0  0
 29 84  1  0  0  0  0
 30 85  1  0  0  0  0
 31 86  1  0  0  0  0
 32 67  2  0  0  0  0
 33 68  1  0  0  0  0
 33 71  1  0  0  0  0
 34 72  1  0  0  0  0
 34 77  2  0  0  0  0
 35 51  1  0  0  0  0
 35 73  1  0  0  0  0
 35 78  2  0  0  0  0
 36 64  1  0  0  0  0
 36 69  1  0  0  0  0
 36 79  2  0  0  0  0
 37 65  1  0  0  0  0
 37 74  1  0  0  0  0
 37 80  2  0  0  0  0
 38 70  1  0  0  0  0
 38 75  1  0  0  0  0
 38 81  2  0  0  0  0
 39 44  1  0  0  0  0
 40 51  1  0  0  0  0
 41 52  1  0  0  0  0
 42 52  1  0  0  0  0
 43 69  1  0  0  0  0
 44 46  1  0  0  0  0
 45 47  1  0  0  0  0
 45 48  1  0  0  0  0
 46 50  1  0  0  0  0
 47 53  1  0  0  0  0
 48 70  1  0  0  0  0
 49 53  1  0  0  0  0
 49 70  1  0  0  0  0
 50 73  1  0  0  0  0
 51 69  1  0  0  0  0
 52 54  1  0  0  0  0
 53 68  1  0  0  0  0
 55 65  1  0  0  0  0
 56 66  1  0  0  0  0
 57 66  1  0  0  0  0
 58 66  1  0  0  0  0
 59 76  1  0  0  0  0
 60 61  1  0  0  0  0
 61 75  1  0  0  0  0
 62 63  1  0  0  0  0
 62 83  1  0  0  0  0
 63 84  1  0  0  0  0
 64 66  1  0  0  0  0
 64 74  1  0  0  0  0
 65 76  1  0  0  0  0
 67 68  1  0  0  0  0
M  CHG  1  76   1
M  ISO  4  38 100  62 101  75 100  83 101
M  END
> <Batch ID>
0144

> <Smiles>
CNC(C)C(=O)NC(C(=O)N1Cc2cc([101O:1][101CH2:1]COc3cc(CC[100NH:0][100C:0](=O)N4CCCC(n5nc(-c6ccc(Oc7ccc(F)cc7F)cc6)c(C(N)=O)c5N)C4)c4c(c3)CC(C)C4)ccc2CC1C(=O)NC1CCCc2ccccc21)C(C)(C)C

> <Shape>
0.202

> <Color>
0.059

> <Negative vol penalty>
0.000

$$$$

  -OEChem-04052321263D

 88 97  0     1  0  0  0  0  0999 V2000
  -38.8031  -24.5972   11.3617 C   0  0  0  0  0  0  0  0  0  0  0  0
  -38.6570  -24.1223   12.6611 C   0  0  0  0  0  0  0  0  0  0  0  0
  -23.0737   -9.8788   19.9286 C   0  0  0  0  0  0  0  0  0  0  0  0
  -23.8381   -9.8629   22.2204 C   0  0  0  0  0  0  0  0  0  0  0  0
  -37.7277  -25.2095   10.7194 C   0  0  0  0  0  0  0  0  0  0  0  0
  -37.4356  -24.2606   13.3196 C   0  0  0  0  0  0  0  0  0  0  0  0
  -30.4357  -18.3240   24.1108 C   0  0  0  0  0  0  0  0  0  0  0  0
  -36.0448  -20.0360   15.7410 C   0  0  0  0  0  0  0  0  0  0  0  0
  -29.8702  -17.4386   23.1900 C   0  0  0  0  0  0  0  0  0  0  0  0
  -22.3298   -8.7235   20.1687 C   0  0  0  0  0  0  0  0  0  0  0  0
  -23.0942   -8.7076   22.4606 C   0  0  0  0  0  0  0  0  0  0  0  0
  -36.6640  -19.7682   16.9611 C   0  0  0  0  0  0  0  0  0  0  0  0
  -19.8669   -7.9052   23.0617 C   0  0  0  0  0  0  0  0  0  0  0  0
  -19.1123   -7.8541   24.2336 C   0  0  0  0  0  0  0  0  0  0  0  0
  -32.0717  -16.5844   22.5817 C   0  0  0  0  0  0  0  0  0  0  0  0
  -34.7329  -20.6283   18.1231 C   0  0  0  0  0  0  0  0  0  0  0  0
  -20.3544   -5.9090   24.9485 C   0  0  0  0  0  0  0  0  0  0  0  0
  -23.8279  -10.4484   20.9545 C   0  0  0  0  0  0  0  0  0  0  0  0
  -24.1706  -12.9745   20.8586 C   0  0  0  0  0  0  0  0  0  0  0  0
  -36.4896  -25.3467   11.3668 C   0  0  0  0  0  0  0  0  0  0  0  0
  -34.7673  -20.6130   15.7027 C   0  0  0  0  0  0  0  0  0  0  0  0
  -31.8052  -18.3092   24.2386 C   0  0  0  0  0  0  0  0  0  0  0  0
  -36.3430  -24.8766   12.6859 C   0  0  0  0  0  0  0  0  0  0  0  0
  -32.5994  -17.4674   23.4947 C   0  0  0  0  0  0  0  0  0  0  0  0
  -34.0986  -20.9001   16.9012 C   0  0  0  0  0  0  0  0  0  0  0  0
  -30.6828  -16.5748   22.4302 C   0  0  0  0  0  0  0  0  0  0  0  0
  -22.3400   -8.1379   21.4347 C   0  0  0  0  0  0  0  0  0  0  0  0
  -36.0093  -20.0670   18.1523 C   0  0  0  0  0  0  0  0  0  0  0  0
  -20.8652   -6.9582   22.8330 C   0  0  0  0  0  0  0  0  0  0  0  0
  -19.3560   -6.8560   25.1770 C   0  0  0  0  0  0  0  0  0  0  0  0
  -21.1090   -5.9601   23.7764 C   0  0  0  0  0  0  0  0  0  0  0  0
  -24.5970  -11.6415   20.7069 C   0  0  0  0  0  0  0  0  0  0  0  0
  -25.2623  -13.7271   20.5006 C   0  0  0  0  0  0  0  0  0  0  0  0
  -22.9011  -13.4867   21.2851 C   0  0  0  0  0  0  0  0  0  0  0  0
  -33.5650  -23.3271   14.5660 C   0  0  0  0  0  0  0  0  0  0  0  0
  -30.7410  -21.9797   15.4215 C   0  0  0  0  0  0  0  0  0  0  0  0
  -29.0769  -19.7410   17.3877 C   0  0  0  0  0  0  0  0  0  0  0  0
  -30.7293  -14.7686   20.6746 C   0  0  0  0  0  0  0  0  0  0  0  0
  -35.3700  -26.0580   10.6491 C   0  0  0  0  0  0  0  0  0  0  0  0
  -34.1020  -20.8710   14.3786 C   0  0  0  0  0  0  0  0  0  0  0  0
  -32.7178  -21.5014   16.9145 C   0  0  0  0  0  0  0  0  0  0  0  0
  -33.9993  -25.8294   11.2810 C   0  0  0  0  0  0  0  0  0  0  0  0
  -29.6091  -12.3787   18.2849 C   0  0  0  0  0  0  0  0  0  0  0  0
  -34.0726  -26.0076   12.7942 C   0  0  0  0  0  0  0  0  0  0  0  0
  -28.1702  -12.0835   18.7145 C   0  0  0  0  0  0  0  0  0  0  0  0
  -30.5267  -12.5953   19.4869 C   0  0  0  0  0  0  0  0  0  0  0  0
  -28.6228  -13.3069   20.8791 C   0  0  0  0  0  0  0  0  0  0  0  0
  -32.9726  -18.9420   24.9541 C   0  0  2  0  0  0  0  0  0  0  0  0
  -35.0267  -24.9858   13.4244 C   0  0  1  0  0  0  0  0  0  0  0  0
  -33.8758  -17.9545   24.1204 C   0  0  2  0  0  0  0  0  0  0  0  0
  -33.0112  -21.9348   14.4552 C   0  0  1  0  0  0  0  0  0  0  0  0
  -27.6476  -13.1457   19.7016 C   0  0  2  0  0  0  0  0  0  0  0  0
  -26.7686  -18.8927   17.8872 C   0  0  0  0  0  0  0  0  0  0  0  0
  -34.9887  -20.2322   26.8776 C   0  0  0  0  0  0  0  0  0  0  0  0
  -34.2771  -18.5627   28.6008 C   0  0  0  0  0  0  0  0  0  0  0  0
  -30.1553  -24.5172   17.0116 C   0  0  0  0  0  0  0  0  0  0  0  0
  -28.3540  -23.2631   18.2161 C   0  0  0  0  0  0  0  0  0  0  0  0
  -28.1997  -23.6021   15.7496 C   0  0  0  0  0  0  0  0  0  0  0  0
  -29.7819  -16.9900   16.5547 C   0  0  0  0  0  0  0  0  0  0  0  0
  -32.9722  -18.7292   26.4588 C   0  0  0  0  0  0  0  0  0  0  0  0
  -35.6006  -17.7670   22.3236 C   0  0  0  0  0  0  0  0  0  0  0  0
  -35.7615  -19.4972   20.4479 C   0  0  0  0  0  0  0  0  0  1  0  0
  -29.8963  -21.9708   16.6727 C   0  0  1  0  0  0  0  0  0  0  0  0
  -28.0274  -18.6953   17.0570 C   0  0  2  0  0  0  0  0  0  0  0  0
  -34.3661  -18.8533   27.1008 C   0  0  0  0  0  0  0  0  0  0  0  0
  -36.5116  -18.5732   21.4019 C   0  0  1  0  0  0  0  0  0  0  0  0
  -29.1781  -23.3287   16.9126 C   0  0  0  0  0  0  0  0  0  0  0  0
  -25.8609  -11.5492   20.2852 N   0  0  0  0  0  0  0  0  0  0  0  0
  -26.2381  -12.8338   20.1688 N   0  0  0  0  0  0  0  0  0  0  0  0
  -32.1118  -21.7410   15.5944 N   0  0  0  0  0  0  0  0  0  0  0  0
  -29.9699  -13.6177   20.3755 N   0  0  0  0  0  0  0  0  0  0  0  0
  -25.4731  -15.0591   20.4402 N   0  0  0  0  0  0  0  0  0  0  0  0
  -21.8895  -12.5746   21.6155 N   0  0  0  0  0  0  0  0  0  0  0  0
  -30.0839  -15.6859   21.5034 N   0  0  0  0  0  0  0  0  0  0  0  0
  -34.3892  -23.6898   13.5179 N   0  0  0  0  0  0  0  0  0  0  0  0
  -28.9938  -20.8314   16.5477 N   0  0  0  0  0  0  0  0  0  0  0  0
  -34.7597  -18.6633   23.1556 N   0  3  0  0  0  0  0  0  0  0  0  0
  -28.5566  -17.3279   17.3237 N   0  3  0  0  0  0  0  0  0  0  0  0
  -22.6655  -14.7168   21.3551 O   0  0  0  0  0  0  0  0  0  0  0  0
  -33.2655  -24.0215   15.5303 O   0  0  0  0  0  0  0  0  0  0  0  0
  -30.2033  -22.1837   14.3303 O   0  0  0  0  0  0  0  0  0  0  0  0
  -29.8868  -19.6060   18.3022 O   0  0  0  0  0  0  0  0  0  0  0  0
  -31.8575  -14.9415   20.2064 O   0  0  0  0  0  0  0  0  0  0  0  0
  -37.4059  -19.3636   22.1869 O   0  0  0  0  0  0  0  0  0  0  0  0
  -21.6141   -7.0108   21.6694 O   0  0  0  0  0  0  0  0  0  0  0  0
  -36.6117  -19.8073   19.3446 O   0  0  0  0  0  0  0  0  0  1  0  0
  -18.6323   -6.8079   26.3031 F   0  0  0  0  0  0  0  0  0  0  0  0
  -22.0675   -5.0483   23.5629 F   0  0  0  0  0  0  0  0  0  0  0  0
  1  2  1  0  0  0  0
  1  5  2  0  0  0  0
  2  6  2  0  0  0  0
  3 10  2  0  0  0  0
  3 18  1  0  0  0  0
  4 11  1  0  0  0  0
  4 18  2  0  0  0  0
  5 20  1  0  0  0  0
  6 23  1  0  0  0  0
  7  9  2  0  0  0  0
  7 22  1  0  0  0  0
  8 12  2  0  0  0  0
  8 21  1  0  0  0  0
  9 26  1  0  0  0  0
 10 27  1  0  0  0  0
 11 27  2  0  0  0  0
 12 28  1  0  0  0  0
 13 14  2  0  0  0  0
 13 29  1  0  0  0  0
 14 30  1  0  0  0  0
 15 24  1  0  0  0  0
 15 26  2  0  0  0  0
 16 25  1  0  0  0  0
 16 28  2  0  0  0  0
 17 30  2  0  0  0  0
 17 31  1  0  0  0  0
 18 32  1  0  0  0  0
 19 32  1  0  0  0  0
 19 33  2  0  0  0  0
 19 34  1  0  0  0  0
 20 23  2  0  0  0  0
 20 39  1  0  0  0  0
 21 25  2  0  0  0  0
 21 40  1  0  0  0  0
 22 24  2  0  0  0  0
 22 48  1  0  0  0  0
 23 49  1  0  0  0  0
 24 50  1  0  0  0  0
 25 41  1  0  0  0  0
 26 74  1  0  0  0  0
 27 85  1  0  0  0  0
 28 86  1  0  0  0  0
 29 31  2  0  0  0  0
 29 85  1  0  0  0  0
 30 87  1  0  0  0  0
 31 88  1  0  0  0  0
 32 68  2  0  0  0  0
 33 69  1  0  0  0  0
 33 72  1  0  0  0  0
 34 73  1  0  0  0  0
 34 79  2  0  0  0  0
 35 51  1  0  0  0  0
 35 75  1  0  0  0  0
 35 80  2  0  0  0  0
 36 63  1  0  0  0  0
 36 70  1  0  0  0  0
 36 81  2  0  0  0  0
 37 64  1  0  0  0  0
 37 76  1  0  0  0  0
 37 82  2  0  0  0  0
 38 71  1  0  0  0  0
 38 74  1  0  0  0  0
 38 83  2  0  0  0  0
 39 42  1  0  0  0  0
 40 51  1  0  0  0  0
 41 70  1  0  0  0  0
 42 44  1  0  0  0  0
 43 45  1  0  0  0  0
 43 46  1  0  0  0  0
 44 49  1  0  0  0  0
 45 52  1  0  0  0  0
 46 71  1  0  0  0  0
 47 52  1  0  0  0  0
 47 71  1  0  0  0  0
 48 50  1  0  0  0  0
 48 60  1  0  0  0  0
 49 75  1  0  0  0  0
 50 77  1  0  0  0  0
 51 70  1  0  0  0  0
 52 69  1  0  0  0  0
 53 64  1  0  0  0  0
 54 65  1  0  0  0  0
 55 65  1  0  0  0  0
 56 67  1  0  0  0  0
 57 67  1  0  0  0  0
 58 67  1  0  0  0  0
 59 78  1  0  0  0  0
 60 65  1  0  0  0  0
 61 66  1  0  0  0  0
 61 77  1  0  0  0  0
 62 66  1  0  0  0  0
 62 86  1  0  0  0  0
 63 67  1  0  0  0  0
 63 76  1  0  0  0  0
 64 78  1  0  0  0  0
 66 84  1  0  0  0  0
 68 69  1  0  0  0  0
M  CHG  2  77   1  78   1
M  ISO  4  38 100  62 101  74 100  86 101
M  END
> <Batch ID>
0144

> <Smiles>
CNC(C)C(=O)NC(C(=O)N1Cc2cc([101O:1][101CH2:1]C(O)CNC3c4cc([100NH:0][100C:0](=O)N5CCCC(n6nc(-c7ccc(Oc8ccc(F)cc8F)cc7)c(C(N)=O)c6N)C5)ccc4C3CC(C)C)ccc2CC1C(=O)NC1CCCc2ccccc21)C(C)(C)C

> <Shape>
0.190

> <Color>
0.177

> <Negative vol penalty>
0.000

$$$$

  -OEChem-04052321263D

 83 91  0     1  0  0  0  0  0999 V2000
  -27.5537  -32.5229   27.4963 C   0  0  0  0  0  0  0  0  0  0  0  0
  -27.7677  -31.4713   26.6109 C   0  0  0  0  0  0  0  0  0  0  0  0
  -25.4231  -14.9746   21.3970 C   0  0  0  0  0  0  0  0  0  0  0  0
  -27.7565  -14.5010   20.9875 C   0  0  0  0  0  0  0  0  0  0  0  0
  -26.2550  -32.9529   27.7653 C   0  0  0  0  0  0  0  0  0  0  0  0
  -26.6828  -30.8485   25.9947 C   0  0  0  0  0  0  0  0  0  0  0  0
  -27.4397  -30.0750   21.0476 C   0  0  0  0  0  0  0  0  0  0  0  0
  -25.1034  -13.6474   21.1106 C   0  0  0  0  0  0  0  0  0  0  0  0
  -27.4369  -13.1738   20.7011 C   0  0  0  0  0  0  0  0  0  0  0  0
  -28.2517  -29.0002   20.6881 C   0  0  0  0  0  0  0  0  0  0  0  0
  -25.2367  -10.6578   22.6845 C   0  0  0  0  0  0  0  0  0  0  0  0
  -24.3520  -10.0045   23.5425 C   0  0  0  0  0  0  0  0  0  0  0  0
  -26.2874  -27.6817   20.2166 C   0  0  0  0  0  0  0  0  0  0  0  0
  -31.1727  -25.6441   18.2949 C   0  0  0  0  0  0  0  0  0  0  0  0
  -30.6097  -24.5783   20.3886 C   0  0  0  0  0  0  0  0  0  0  0  0
  -22.8321   -9.6426   21.6996 C   0  0  0  0  0  0  0  0  0  0  0  0
  -26.7496  -15.4014   21.3354 C   0  0  0  0  0  0  0  0  0  0  0  0
  -27.4113  -17.3156   22.8864 C   0  0  0  0  0  0  0  0  0  0  0  0
  -25.1543  -32.3414   27.1447 C   0  0  0  0  0  0  0  0  0  0  0  0
  -26.0430  -29.9574   21.0047 C   0  0  0  0  0  0  0  0  0  0  0  0
  -25.3681  -31.2699   26.2567 C   0  0  0  0  0  0  0  0  0  0  0  0
  -25.4599  -28.7573   20.5736 C   0  0  0  0  0  0  0  0  0  0  0  0
  -30.5697  -25.6934   19.5516 C   0  0  0  0  0  0  0  0  0  0  0  0
  -31.8156  -24.4796   17.8750 C   0  0  0  0  0  0  0  0  0  0  0  0
  -31.2527  -23.4138   19.9688 C   0  0  0  0  0  0  0  0  0  0  0  0
  -31.8557  -23.3645   18.7120 C   0  0  0  0  0  0  0  0  0  0  0  0
  -26.1103  -12.7470   20.7627 C   0  0  0  0  0  0  0  0  0  0  0  0
  -27.6756  -27.8024   20.2753 C   0  0  0  0  0  0  0  0  0  0  0  0
  -24.9191  -10.8036   21.3341 C   0  0  0  0  0  0  0  0  0  0  0  0
  -23.1498   -9.4969   23.0500 C   0  0  0  0  0  0  0  0  0  0  0  0
  -23.7168  -10.2960   20.8417 C   0  0  0  0  0  0  0  0  0  0  0  0
  -27.0804  -16.7724   21.6305 C   0  0  0  0  0  0  0  0  0  0  0  0
  -27.6383  -18.6468   22.6356 C   0  0  0  0  0  0  0  0  0  0  0  0
  -27.5051  -16.6743   24.1653 C   0  0  0  0  0  0  0  0  0  0  0  0
  -23.7098  -30.1343   23.1561 C   0  0  0  0  0  0  0  0  0  0  0  0
  -21.8078  -29.8925   20.5396 C   0  0  0  0  0  0  0  0  0  0  0  0
  -21.4497  -28.8740   17.3022 C   0  0  0  0  0  0  0  0  0  0  0  0
  -29.3011  -21.6456   17.7271 C   0  0  0  0  0  0  0  0  0  0  0  0
  -23.7662  -32.8098   27.5031 C   0  0  0  0  0  0  0  0  0  0  0  0
  -25.1812  -31.1348   21.3701 C   0  0  0  0  0  0  0  0  0  0  0  0
  -23.9658  -28.5865   20.4906 C   0  0  0  0  0  0  0  0  0  0  0  0
  -22.6937  -32.3431   26.5222 C   0  0  0  0  0  0  0  0  0  0  0  0
  -26.3576  -22.1683   19.6608 C   0  0  0  0  0  0  0  0  0  0  0  0
  -22.8631  -30.8592   26.2122 C   0  0  0  0  0  0  0  0  0  0  0  0
  -26.2389  -20.8937   20.4982 C   0  0  0  0  0  0  0  0  0  0  0  0
  -26.8931  -21.8760   18.2609 C   0  0  0  0  0  0  0  0  0  0  0  0
  -28.0431  -19.8500   19.0649 C   0  0  0  0  0  0  0  0  0  0  0  0
  -24.2186  -30.5852   25.5496 C   0  0  1  0  0  0  0  0  0  0  0  0
  -23.7671  -30.7357   21.7804 C   0  0  1  0  0  0  0  0  0  0  0  0
  -27.5600  -20.1013   20.5036 C   0  0  2  0  0  0  0  0  0  0  0  0
  -32.4545  -24.4531   16.5249 C   0  0  0  0  0  0  0  0  0  0  0  0
  -32.3065  -22.3940   22.0025 C   0  0  0  0  0  0  0  0  0  0  0  0
  -19.7680  -28.7769   15.4421 C   0  0  0  0  0  0  0  0  0  0  0  0
  -20.4222  -27.5494   21.9179 C   0  0  0  0  0  0  0  0  0  0  0  0
  -19.4476  -26.9123   19.7015 C   0  0  0  0  0  0  0  0  0  0  0  0
  -18.8817  -29.1163   20.7237 C   0  0  0  0  0  0  0  0  0  0  0  0
  -23.1190  -30.5757   15.5482 C   0  0  0  0  0  0  0  0  0  0  0  0
  -31.2816  -22.2334   20.8840 C   0  0  0  0  0  0  0  0  0  0  0  0
  -32.5455  -22.1162   18.2617 C   0  0  0  0  0  0  0  0  0  0  0  0
  -29.8774  -26.9457   20.0030 C   0  0  0  0  0  0  0  0  0  1  0  0
  -31.7153  -21.2792   17.2837 C   0  0  0  0  0  0  0  0  0  0  0  0
  -21.1930  -28.7508   19.7666 C   0  0  1  0  0  0  0  0  0  0  0  0
  -20.8909  -29.5800   16.0800 C   0  0  2  0  0  0  0  0  0  0  0  0
  -20.0143  -28.0844   20.5308 C   0  0  0  0  0  0  0  0  0  0  0  0
  -27.0947  -17.6840   20.6544 N   0  0  0  0  0  0  0  0  0  0  0  0
  -27.4371  -18.8136   21.2970 N   0  0  0  0  0  0  0  0  0  0  0  0
  -23.1657  -29.7644   20.8644 N   0  0  0  0  0  0  0  0  0  0  0  0
  -28.1480  -21.1240   18.3364 N   0  0  0  0  0  0  0  0  0  0  0  0
  -27.9883  -19.6793   23.4318 N   0  0  0  0  0  0  0  0  0  0  0  0
  -27.2394  -15.3004   24.2448 N   0  0  0  0  0  0  0  0  0  0  0  0
  -24.1845  -30.9647   24.1534 N   0  0  0  0  0  0  0  0  0  0  0  0
  -20.8295  -29.2908   18.4610 N   0  0  0  0  0  0  0  0  0  0  0  0
  -30.4491  -20.8726   17.8514 N   0  0  0  0  0  0  0  0  0  0  0  0
  -21.9616  -29.7807   15.0630 N   0  3  0  0  0  0  0  0  0  0  0  0
  -27.7993  -17.3042   25.2094 O   0  0  0  0  0  0  0  0  0  0  0  0
  -23.2664  -29.0013   23.3022 O   0  0  0  0  0  0  0  0  0  0  0  0
  -21.1106  -30.8655   20.8380 O   0  0  0  0  0  0  0  0  0  0  0  0
  -22.3442  -28.0338   17.2352 O   0  0  0  0  0  0  0  0  0  0  0  0
  -29.3084  -22.7231   17.1222 O   0  0  0  0  0  0  0  0  0  0  0  0
  -25.7988  -11.4518   20.4835 O   0  0  0  0  0  0  0  0  0  0  0  0
  -28.4659  -26.7515   19.9245 O   0  0  0  0  0  0  0  0  0  1  0  0
  -22.3010   -8.8681   23.8737 F   0  0  0  0  0  0  0  0  0  0  0  0
  -23.4067  -10.4320   19.5451 F   0  0  0  0  0  0  0  0  0  0  0  0
  1  2  1  0  0  0  0
  1  5  2  0  0  0  0
  2  6  2  0  0  0  0
  3  8  2  0  0  0  0
  3 17  1  0  0  0  0
  4  9  1  0  0  0  0
  4 17  2  0  0  0  0
  5 19  1  0  0  0  0
  6 21  1  0  0  0  0
  7 10  2  0  0  0  0
  7 20  1  0  0  0  0
  8 27  1  0  0  0  0
  9 27  2  0  0  0  0
 10 28  1  0  0  0  0
 11 12  2  0  0  0  0
 11 29  1  0  0  0  0
 12 30  1  0  0  0  0
 13 22  1  0  0  0  0
 13 28  2  0  0  0  0
 14 23  1  0  0  0  0
 14 24  2  0  0  0  0
 15 23  2  0  0  0  0
 15 25  1  0  0  0  0
 16 30  2  0  0  0  0
 16 31  1  0  0  0  0
 17 32  1  0  0  0  0
 18 32  1  0  0  0  0
 18 33  2  0  0  0  0
 18 34  1  0  0  0  0
 19 21  2  0  0  0  0
 19 39  1  0  0  0  0
 20 22  2  0  0  0  0
 20 40  1  0  0  0  0
 21 48  1  0  0  0  0
 22 41  1  0  0  0  0
 23 60  1  0  0  0  0
 24 26  1  0  0  0  0
 24 51  1  0  0  0  0
 25 26  2  0  0  0  0
 25 58  1  0  0  0  0
 26 59  1  0  0  0  0
 27 80  1  0  0  0  0
 28 81  1  0  0  0  0
 29 31  2  0  0  0  0
 29 80  1  0  0  0  0
 30 82  1  0  0  0  0
 31 83  1  0  0  0  0
 32 65  2  0  0  0  0
 33 66  1  0  0  0  0
 33 69  1  0  0  0  0
 34 70  1  0  0  0  0
 34 75  2  0  0  0  0
 35 49  1  0  0  0  0
 35 71  1  0  0  0  0
 35 76  2  0  0  0  0
 36 62  1  0  0  0  0
 36 67  1  0  0  0  0
 36 77  2  0  0  0  0
 37 63  1  0  0  0  0
 37 72  1  0  0  0  0
 37 78  2  0  0  0  0
 38 68  1  0  0  0  0
 38 73  1  0  0  0  0
 38 79  2  0  0  0  0
 39 42  1  0  0  0  0
 40 49  1  0  0  0  0
 41 67  1  0  0  0  0
 42 44  1  0  0  0  0
 43 45  1  0  0  0  0
 43 46  1  0  0  0  0
 44 48  1  0  0  0  0
 45 50  1  0  0  0  0
 46 68  1  0  0  0  0
 47 50  1  0  0  0  0
 47 68  1  0  0  0  0
 48 71  1  0  0  0  0
 49 67  1  0  0  0  0
 50 66  1  0  0  0  0
 52 58  1  0  0  0  0
 53 63  1  0  0  0  0
 54 64  1  0  0  0  0
 55 64  1  0  0  0  0
 56 64  1  0  0  0  0
 57 74  1  0  0  0  0
 59 61  1  0  0  0  0
 60 81  1  0  0  0  0
 61 73  1  0  0  0  0
 62 64  1  0  0  0  0
 62 72  1  0  0  0  0
 63 74  1  0  0  0  0
 65 66  1  0  0  0  0
M  CHG  1  74   1
M  ISO  4  38 100  60 101  73 100  81 101
M  END
> <Batch ID>
0144

> <Smiles>
CCc1cc([101CH2:1][101O:1]c2ccc3c(c2)CN(C(=O)C(NC(=O)C(C)NC)C(C)(C)C)C(C(=O)NC2CCCc4ccccc42)C3)cc(C)c1CC[100NH:0][100C:0](=O)N1CCCC(n2nc(-c3ccc(Oc4ccc(F)cc4F)cc3)c(C(N)=O)c2N)C1

> <Shape>
0.260

> <Color>
0.082

> <Negative vol penalty>
0.000

$$$$

  -OEChem-04052321263D

 91101  0     1  0  0  0  0  0999 V2000
  -27.9157  -33.7327   14.8943 C   0  0  0  0  0  0  0  0  0  0  0  0
  -28.2189  -32.6678   15.7366 C   0  0  0  0  0  0  0  0  0  0  0  0
  -23.1614  -10.6644   21.4004 C   0  0  0  0  0  0  0  0  0  0  0  0
  -24.2958   -8.5312   21.3949 C   0  0  0  0  0  0  0  0  0  0  0  0
  -27.2969  -34.8717   15.4076 C   0  0  0  0  0  0  0  0  0  0  0  0
  -27.9045  -32.7418   17.0931 C   0  0  0  0  0  0  0  0  0  0  0  0
  -25.7847  -28.4838   18.8311 C   0  0  0  0  0  0  0  0  0  0  0  0
  -21.9564  -10.0244   21.1111 C   0  0  0  0  0  0  0  0  0  0  0  0
  -23.0906   -7.8911   21.1057 C   0  0  0  0  0  0  0  0  0  0  0  0
  -26.6349  -27.4107   19.0942 C   0  0  0  0  0  0  0  0  0  0  0  0
  -19.6064   -8.2631   22.7871 C   0  0  0  0  0  0  0  0  0  0  0  0
  -18.4778   -8.6485   23.5104 C   0  0  0  0  0  0  0  0  0  0  0  0
  -30.5114  -20.5846   19.1350 C   0  0  0  0  0  0  0  0  0  0  0  0
  -29.6581  -21.5541   21.1767 C   0  0  0  0  0  0  0  0  0  0  0  0
  -26.5861  -27.9558   21.4436 C   0  0  0  0  0  0  0  0  0  0  0  0
  -17.3846   -9.3009   21.4571 C   0  0  0  0  0  0  0  0  0  0  0  0
  -24.3312   -9.9178   21.5422 C   0  0  0  0  0  0  0  0  0  0  0  0
  -26.1072  -10.8572   23.1142 C   0  0  0  0  0  0  0  0  0  0  0  0
  -26.9660  -34.9558   16.7693 C   0  0  0  0  0  0  0  0  0  0  0  0
  -25.3368  -29.3090   19.8727 C   0  0  0  0  0  0  0  0  0  0  0  0
  -27.2819  -33.8836   17.6254 C   0  0  0  0  0  0  0  0  0  0  0  0
  -30.0018  -20.4310   20.4243 C   0  0  0  0  0  0  0  0  0  0  0  0
  -25.7282  -29.0372   21.1914 C   0  0  0  0  0  0  0  0  0  0  0  0
  -30.6776  -21.8613   18.5982 C   0  0  0  0  0  0  0  0  0  0  0  0
  -30.3339  -22.9844   19.3506 C   0  0  0  0  0  0  0  0  0  0  0  0
  -21.9209   -8.6377   20.9639 C   0  0  0  0  0  0  0  0  0  0  0  0
  -27.0381  -27.1482   20.4002 C   0  0  0  0  0  0  0  0  0  0  0  0
  -19.6242   -8.3966   21.3987 C   0  0  0  0  0  0  0  0  0  0  0  0
  -29.8242  -22.8308   20.6399 C   0  0  0  0  0  0  0  0  0  0  0  0
  -17.3669   -9.1674   22.8455 C   0  0  0  0  0  0  0  0  0  0  0  0
  -18.5132   -8.9155   20.7337 C   0  0  0  0  0  0  0  0  0  0  0  0
  -25.5765  -10.5785   21.8404 C   0  0  0  0  0  0  0  0  0  0  0  0
  -27.2988  -11.4906   22.8585 C   0  0  0  0  0  0  0  0  0  0  0  0
  -25.5710  -10.5693   24.4124 C   0  0  0  0  0  0  0  0  0  0  0  0
  -25.6461  -32.3916   20.5836 C   0  0  0  0  0  0  0  0  0  0  0  0
  -23.5701  -31.6508   22.9634 C   0  0  0  0  0  0  0  0  0  0  0  0
  -22.2405  -29.2653   25.0100 C   0  0  0  0  0  0  0  0  0  0  0  0
  -30.4086  -15.0796   20.1255 C   0  0  0  0  0  0  0  0  0  0  0  0
  -26.3405  -36.2268   17.2871 C   0  0  0  0  0  0  0  0  0  0  0  0
  -24.3985  -30.4465   19.5757 C   0  0  0  0  0  0  0  0  0  0  0  0
  -25.2592  -29.8807   22.3477 C   0  0  0  0  0  0  0  0  0  0  0  0
  -25.7013  -36.0736   18.6649 C   0  0  0  0  0  0  0  0  0  0  0  0
  -29.8883  -12.0434   18.5574 C   0  0  0  0  0  0  0  0  0  0  0  0
  -26.6411  -35.3317   19.6099 C   0  0  0  0  0  0  0  0  0  0  0  0
  -29.3717  -20.6118   15.9510 C   0  0  0  0  0  0  0  0  0  0  0  0
  -30.3363  -21.0930   14.9033 C   0  0  0  0  0  0  0  0  0  0  0  0
  -28.7637  -11.4026   19.3703 C   0  0  0  0  0  0  0  0  0  0  0  0
  -28.8123  -18.2043   20.2043 C   0  0  0  0  0  0  0  0  0  0  0  0
  -31.1619  -18.2954   21.1428 C   0  0  0  0  0  0  0  0  0  0  0  0
  -29.6344  -13.5326   18.3541 C   0  0  0  0  0  0  0  0  0  0  0  0
  -28.6607  -16.7934   20.7801 C   0  0  0  0  0  0  0  0  0  0  0  0
  -30.9463  -16.8981   21.7169 C   0  0  0  0  0  0  0  0  0  0  0  0
  -28.3301  -13.6639   20.4516 C   0  0  0  0  0  0  0  0  0  0  0  0
  -29.8225  -19.0424   21.0083 C   0  0  0  0  0  0  0  0  0  0  0  0
  -26.9341  -33.9162   19.0978 C   0  0  1  0  0  0  0  0  0  0  0  0
  -24.4161  -31.5311   20.6484 C   0  0  1  0  0  0  0  0  0  0  0  0
  -30.8174  -20.8286   16.3030 C   0  0  0  0  0  0  0  0  0  0  0  0
  -28.5399  -12.1553   20.6938 C   0  0  1  0  0  0  0  0  0  0  0  0
  -30.5090  -24.3554   18.7796 C   0  0  0  0  0  0  0  0  0  0  0  0
  -32.7575  -22.1611   17.2060 C   0  0  0  0  0  0  0  0  0  0  0  0
  -20.5915  -28.9691   26.8783 C   0  0  0  0  0  0  0  0  0  0  0  0
  -25.5677  -32.8759   24.9175 C   0  0  0  0  0  0  0  0  0  0  0  0
  -24.3497  -31.7236   26.7768 C   0  0  0  0  0  0  0  0  0  0  0  0
  -23.1747  -33.4301   25.3875 C   0  0  0  0  0  0  0  0  0  0  0  0
  -20.5813  -27.4115   23.4070 C   0  0  0  0  0  0  0  0  0  0  0  0
  -27.7418  -25.4722   21.9337 C   0  0  0  0  0  0  0  0  0  1  0  0
  -28.1231  -24.0096   21.8115 C   0  0  0  0  0  0  0  0  0  0  0  0
  -31.2265  -21.9989   17.2158 C   0  0  2  0  0  0  0  0  0  0  0  0
  -23.7044  -31.1691   24.3878 C   0  0  1  0  0  0  0  0  0  0  0  0
  -20.8036  -28.9364   25.3727 C   0  0  2  0  0  0  0  0  0  0  0  0
  -24.2097  -32.2847   25.3456 C   0  0  0  0  0  0  0  0  0  0  0  0
  -26.3661  -11.0003   20.8492 N   0  0  0  0  0  0  0  0  0  0  0  0
  -27.4051  -11.5507   21.5001 N   0  0  0  0  0  0  0  0  0  0  0  0
  -24.3479  -30.9852   22.0054 N   0  0  0  0  0  0  0  0  0  0  0  0
  -29.4233  -14.2107   19.6328 N   0  0  0  0  0  0  0  0  0  0  0  0
  -29.9728  -16.1477   20.9242 N   0  0  0  0  0  0  0  0  0  0  0  0
  -28.2556  -11.9965   23.6655 N   0  0  0  0  0  0  0  0  0  0  0  0
  -24.3354   -9.9129   24.4943 N   0  0  0  0  0  0  0  0  0  0  0  0
  -25.8177  -33.0376   19.3742 N   0  0  0  0  0  0  0  0  0  0  0  0
  -22.4075  -30.6098   24.7536 N   0  0  0  0  0  0  0  0  0  0  0  0
  -20.4419  -27.5784   24.8766 N   0  3  0  0  0  0  0  0  0  0  0  0
  -26.1621  -10.8994   25.4684 O   0  0  0  0  0  0  0  0  0  0  0  0
  -26.3841  -32.4652   21.5592 O   0  0  0  0  0  0  0  0  0  0  0  0
  -22.7980  -32.5786   22.7091 O   0  0  0  0  0  0  0  0  0  0  0  0
  -23.1268  -28.4152   24.9627 O   0  0  0  0  0  0  0  0  0  0  0  0
  -31.6072  -14.9113   19.8682 O   0  0  0  0  0  0  0  0  0  0  0  0
  -20.7451   -8.0128   20.6819 O   0  0  0  0  0  0  0  0  0  0  0  0
  -27.8741  -26.0947   20.6614 O   0  0  0  0  0  0  0  0  0  1  0  0
  -29.4820  -23.9161   21.3892 O   0  0  0  0  0  0  0  0  0  0  0  0
  -16.2826   -9.5360   23.5401 F   0  0  0  0  0  0  0  0  0  0  0  0
  -18.5239   -9.0451   19.3999 F   0  0  0  0  0  0  0  0  0  0  0  0
  1  2  1  0  0  0  0
  1  5  2  0  0  0  0
  2  6  2  0  0  0  0
  3  8  2  0  0  0  0
  3 17  1  0  0  0  0
  4  9  1  0  0  0  0
  4 17  2  0  0  0  0
  5 19  1  0  0  0  0
  6 21  1  0  0  0  0
  7 10  2  0  0  0  0
  7 20  1  0  0  0  0
  8 26  1  0  0  0  0
  9 26  2  0  0  0  0
 10 27  1  0  0  0  0
 11 12  2  0  0  0  0
 11 28  1  0  0  0  0
 12 30  1  0  0  0  0
 13 22  1  0  0  0  0
 13 24  2  0  0  0  0
 14 22  2  0  0  0  0
 14 29  1  0  0  0  0
 15 23  1  0  0  0  0
 15 27  2  0  0  0  0
 16 30  2  0  0  0  0
 16 31  1  0  0  0  0
 17 32  1  0  0  0  0
 18 32  1  0  0  0  0
 18 33  2  0  0  0  0
 18 34  1  0  0  0  0
 19 21  2  0  0  0  0
 19 39  1  0  0  0  0
 20 23  2  0  0  0  0
 20 40  1  0  0  0  0
 21 55  1  0  0  0  0
 22 54  1  0  0  0  0
 23 41  1  0  0  0  0
 24 25  1  0  0  0  0
 24 68  1  0  0  0  0
 25 29  2  0  0  0  0
 25 59  1  0  0  0  0
 26 87  1  0  0  0  0
 27 88  1  0  0  0  0
 28 31  2  0  0  0  0
 28 87  1  0  0  0  0
 29 89  1  0  0  0  0
 30 90  1  0  0  0  0
 31 91  1  0  0  0  0
 32 72  2  0  0  0  0
 33 73  1  0  0  0  0
 33 77  1  0  0  0  0
 34 78  1  0  0  0  0
 34 82  2  0  0  0  0
 35 56  1  0  0  0  0
 35 79  1  0  0  0  0
 35 83  2  0  0  0  0
 36 69  1  0  0  0  0
 36 74  1  0  0  0  0
 36 84  2  0  0  0  0
 37 70  1  0  0  0  0
 37 80  1  0  0  0  0
 37 85  2  0  0  0  0
 38 75  1  0  0  0  0
 38 76  1  0  0  0  0
 38 86  2  0  0  0  0
 39 42  1  0  0  0  0
 40 56  1  0  0  0  0
 41 74  1  0  0  0  0
 42 44  1  0  0  0  0
 43 47  1  0  0  0  0
 43 50  1  0  0  0  0
 44 55  1  0  0  0  0
 45 46  1  0  0  0  0
 45 57  1  0  0  0  0
 46 57  1  0  0  0  0
 47 58  1  0  0  0  0
 48 51  1  0  0  0  0
 48 54  1  0  0  0  0
 49 52  1  0  0  0  0
 49 54  1  0  0  0  0
 50 75  1  0  0  0  0
 51 76  1  0  0  0  0
 52 76  1  0  0  0  0
 53 58  1  0  0  0  0
 53 75  1  0  0  0  0
 55 79  1  0  0  0  0
 56 74  1  0  0  0  0
 57 68  1  0  0  0  0
 58 73  1  0  0  0  0
 60 68  1  0  0  0  0
 61 70  1  0  0  0  0
 62 71  1  0  0  0  0
 63 71  1  0  0  0  0
 64 71  1  0  0  0  0
 65 81  1  0  0  0  0
 66 67  1  0  0  0  0
 66 88  1  0  0  0  0
 67 89  1  0  0  0  0
 69 71  1  0  0  0  0
 69 80  1  0  0  0  0
 70 81  1  0  0  0  0
 72 73  1  0  0  0  0
M  CHG  1  81   1
M  ISO  4  38 100  66 101  76 100  88 101
M  END
> <Batch ID>
0144

> <Smiles>
CNC(C)C(=O)NC(C(=O)N1Cc2cc([101O:1][101CH2:1]COc3cc(C4CC[100N:0]([100C:0](=O)N5CCCC(n6nc(-c7ccc(Oc8ccc(F)cc8F)cc7)c(C(N)=O)c6N)C5)CC4)cc(C(C)C4CC4)c3C)ccc2CC1C(=O)NC1CCCc2ccccc21)C(C)(C)C

> <Shape>
0.256

> <Color>
0.118

> <Negative vol penalty>
0.000

$$$$

  -OEChem-04052321263D

 88 97  0     1  0  0  0  0  0999 V2000
  -20.4138  -36.0468   20.4647 C   0  0  0  0  0  0  0  0  0  0  0  0
  -20.4444  -34.7536   19.9528 C   0  0  0  0  0  0  0  0  0  0  0  0
  -23.7166  -10.0535   21.8076 C   0  0  0  0  0  0  0  0  0  0  0  0
  -21.8431  -10.5744   20.3738 C   0  0  0  0  0  0  0  0  0  0  0  0
  -21.6061  -36.7258   20.7122 C   0  0  0  0  0  0  0  0  0  0  0  0
  -21.6676  -34.1390   19.6869 C   0  0  0  0  0  0  0  0  0  0  0  0
  -21.8338  -29.3514   21.3292 C   0  0  0  0  0  0  0  0  0  0  0  0
  -23.2988   -8.7242   21.8707 C   0  0  0  0  0  0  0  0  0  0  0  0
  -21.4253   -9.2450   20.4368 C   0  0  0  0  0  0  0  0  0  0  0  0
  -21.1897  -28.3892   20.5526 C   0  0  0  0  0  0  0  0  0  0  0  0
  -20.9608   -6.9241   23.5193 C   0  0  0  0  0  0  0  0  0  0  0  0
  -20.9578   -6.3051   24.7692 C   0  0  0  0  0  0  0  0  0  0  0  0
  -23.3109  -27.7465   19.6005 C   0  0  0  0  0  0  0  0  0  0  0  0
  -18.0870  -25.0321   19.7292 C   0  0  0  0  0  0  0  0  0  0  0  0
  -20.7310  -25.0484   20.6187 C   0  0  0  0  0  0  0  0  0  0  0  0
  -22.5191   -4.6514   23.9540 C   0  0  0  0  0  0  0  0  0  0  0  0
  -22.9887  -10.9786   21.0592 C   0  0  0  0  0  0  0  0  0  0  0  0
  -24.6491  -12.8352   20.5080 C   0  0  0  0  0  0  0  0  0  0  0  0
  -22.8446  -36.1156   20.4583 C   0  0  0  0  0  0  0  0  0  0  0  0
  -23.2222  -29.5261   21.2390 C   0  0  0  0  0  0  0  0  0  0  0  0
  -22.8776  -34.8110   19.9300 C   0  0  0  0  0  0  0  0  0  0  0  0
  -23.9705  -28.7099   20.3789 C   0  0  0  0  0  0  0  0  0  0  0  0
  -19.0302  -25.8427   19.0978 C   0  0  0  0  0  0  0  0  0  0  0  0
  -18.4657  -24.2296   20.8054 C   0  0  0  0  0  0  0  0  0  0  0  0
  -22.1532   -8.3200   21.1853 C   0  0  0  0  0  0  0  0  0  0  0  0
  -21.9279  -27.5885   19.6860 C   0  0  0  0  0  0  0  0  0  0  0  0
  -21.7429   -6.4067   22.4866 C   0  0  0  0  0  0  0  0  0  0  0  0
  -20.3523  -25.8509   19.5426 C   0  0  0  0  0  0  0  0  0  1  0  0
  -19.7877  -24.2377   21.2502 C   0  0  0  0  0  0  0  0  0  0  0  0
  -21.7370   -5.1688   24.9866 C   0  0  0  0  0  0  0  0  0  0  0  0
  -22.5220   -5.2704   22.7040 C   0  0  0  0  0  0  0  0  0  0  0  0
  -23.4195  -12.3521   20.9941 C   0  0  0  0  0  0  0  0  0  0  0  0
  -24.5677  -14.1976   20.6618 C   0  0  0  0  0  0  0  0  0  0  0  0
  -25.7651  -12.1167   19.9657 C   0  0  0  0  0  0  0  0  0  0  0  0
  -25.1308  -31.9165   20.3746 C   0  0  0  0  0  0  0  0  0  0  0  0
  -27.4646  -29.9004   21.3803 C   0  0  0  0  0  0  0  0  0  0  0  0
  -28.1871  -26.3744   21.1289 C   0  0  0  0  0  0  0  0  0  0  0  0
  -19.7141  -17.7381   21.0625 C   0  0  0  0  0  0  0  0  0  0  0  0
  -24.1062  -36.9068   20.6973 C   0  0  0  0  0  0  0  0  0  0  0  0
  -23.9053  -30.5504   22.1032 C   0  0  0  0  0  0  0  0  0  0  0  0
  -25.4660  -28.8438   20.2601 C   0  0  0  0  0  0  0  0  0  0  0  0
  -25.3661  -36.0459   20.7406 C   0  0  0  0  0  0  0  0  0  0  0  0
  -21.9304  -16.4242   23.9157 C   0  0  0  0  0  0  0  0  0  0  0  0
  -25.3793  -35.0602   19.5765 C   0  0  0  0  0  0  0  0  0  0  0  0
  -16.1594  -21.1862   21.2849 C   0  0  0  0  0  0  0  0  0  0  0  0
  -17.9261  -21.7556   19.5695 C   0  0  0  0  0  0  0  0  0  0  0  0
  -23.1421  -16.2263   23.0098 C   0  0  0  0  0  0  0  0  0  0  0  0
  -17.1374  -20.2392   21.9810 C   0  0  0  0  0  0  0  0  0  0  0  0
  -18.9069  -20.8090   20.2622 C   0  0  0  0  0  0  0  0  0  0  0  0
  -20.9105  -17.3554   23.2677 C   0  0  0  0  0  0  0  0  0  0  0  0
  -21.2293  -15.7931   21.3493 C   0  0  0  0  0  0  0  0  0  0  0  0
  -24.1850  -34.1014   19.6519 C   0  0  1  0  0  0  0  0  0  0  0  0
  -25.2577  -30.9912   21.5516 C   0  0  1  0  0  0  0  0  0  0  0  0
  -16.8586  -22.3184   20.5189 C   0  0  0  0  0  0  0  0  0  0  0  0
  -22.7506  -15.7873   21.5818 C   0  0  2  0  0  0  0  0  0  0  0  0
  -18.1751  -19.6872   21.0012 C   0  0  0  0  0  0  0  0  0  0  0  0
  -18.6070  -26.6959   17.9479 C   0  0  0  0  0  0  0  0  0  0  0  0
  -16.3067  -24.1882   22.1059 C   0  0  0  0  0  0  0  0  0  0  0  0
  -29.5073  -24.8678   22.6403 C   0  0  0  0  0  0  0  0  0  0  0  0
  -29.7872  -30.5368   19.5066 C   0  0  0  0  0  0  0  0  0  0  0  0
  -30.5341  -28.1584   19.7377 C   0  0  0  0  0  0  0  0  0  0  0  0
  -30.4648  -29.6423   21.7416 C   0  0  0  0  0  0  0  0  0  0  0  0
  -25.9186  -24.4980   21.4318 C   0  0  0  0  0  0  0  0  0  0  0  0
  -21.5450  -23.5307   22.6881 C   0  0  0  0  0  0  0  0  0  0  0  0
  -17.4431  -23.3673   21.4689 C   0  0  2  0  0  0  0  0  0  0  0  0
  -28.2973  -28.8208   20.7320 C   0  0  1  0  0  0  0  0  0  0  0  0
  -28.1197  -25.3510   22.2480 C   0  0  2  0  0  0  0  0  0  0  0  0
  -29.7446  -29.2957   20.4203 C   0  0  0  0  0  0  0  0  0  0  0  0
  -22.6159  -13.3282   21.4248 N   0  0  0  0  0  0  0  0  0  0  0  0
  -23.3422  -14.4383   21.2098 N   0  0  0  0  0  0  0  0  0  0  0  0
  -26.0872  -29.8638   21.1211 N   0  0  0  0  0  0  0  0  0  0  0  0
  -20.6071  -17.0105   21.8729 N   0  0  0  0  0  0  0  0  0  0  0  0
  -25.4257  -15.2012   20.3806 N   0  0  0  0  0  0  0  0  0  0  0  0
  -25.8003  -11.8805   18.5846 N   0  0  0  0  0  0  0  0  0  0  0  0
  -24.4240  -33.0733   20.6420 N   0  0  0  0  0  0  0  0  0  0  0  0
  -28.2258  -27.6634   21.6172 N   0  0  0  0  0  0  0  0  0  0  0  0
  -19.1189  -18.8326   21.6849 N   0  0  0  0  0  0  0  0  0  0  0  0
  -27.3139  -24.1714   21.8233 N   0  3  0  0  0  0  0  0  0  0  0  0
  -26.6951  -11.6824   20.6867 O   0  0  0  0  0  0  0  0  0  0  0  0
  -25.6380  -31.6047   19.3035 O   0  0  0  0  0  0  0  0  0  0  0  0
  -28.0150  -30.7407   22.0961 O   0  0  0  0  0  0  0  0  0  0  0  0
  -28.2074  -26.0617   19.9405 O   0  0  0  0  0  0  0  0  0  0  0  0
  -19.4678  -17.4372   19.8907 O   0  0  0  0  0  0  0  0  0  0  0  0
  -21.7454   -7.0229   21.2464 O   0  0  0  0  0  0  0  0  0  0  0  0
  -21.3016  -26.6490   18.9264 O   0  0  0  0  0  0  0  0  0  1  0  0
  -20.1745  -23.4602   22.3001 O   0  0  0  0  0  0  0  0  0  0  0  0
  -21.7352   -4.5754   26.1875 F   0  0  0  0  0  0  0  0  0  0  0  0
  -23.2763   -4.7694   21.7161 F   0  0  0  0  0  0  0  0  0  0  0  0
  1  2  1  0  0  0  0
  1  5  2  0  0  0  0
  2  6  2  0  0  0  0
  3  8  2  0  0  0  0
  3 17  1  0  0  0  0
  4  9  1  0  0  0  0
  4 17  2  0  0  0  0
  5 19  1  0  0  0  0
  6 21  1  0  0  0  0
  7 10  2  0  0  0  0
  7 20  1  0  0  0  0
  8 25  1  0  0  0  0
  9 25  2  0  0  0  0
 10 26  1  0  0  0  0
 11 12  2  0  0  0  0
 11 27  1  0  0  0  0
 12 30  1  0  0  0  0
 13 22  1  0  0  0  0
 13 26  2  0  0  0  0
 14 23  1  0  0  0  0
 14 24  2  0  0  0  0
 15 28  1  0  0  0  0
 15 29  2  0  0  0  0
 16 30  2  0  0  0  0
 16 31  1  0  0  0  0
 17 32  1  0  0  0  0
 18 32  1  0  0  0  0
 18 33  2  0  0  0  0
 18 34  1  0  0  0  0
 19 21  2  0  0  0  0
 19 39  1  0  0  0  0
 20 22  2  0  0  0  0
 20 40  1  0  0  0  0
 21 52  1  0  0  0  0
 22 41  1  0  0  0  0
 23 28  2  0  0  0  0
 23 57  1  0  0  0  0
 24 29  1  0  0  0  0
 24 65  1  0  0  0  0
 25 84  1  0  0  0  0
 26 85  1  0  0  0  0
 27 31  2  0  0  0  0
 27 84  1  0  0  0  0
 28 85  1  0  0  0  0
 29 86  1  0  0  0  0
 30 87  1  0  0  0  0
 31 88  1  0  0  0  0
 32 69  2  0  0  0  0
 33 70  1  0  0  0  0
 33 73  1  0  0  0  0
 34 74  1  0  0  0  0
 34 79  2  0  0  0  0
 35 53  1  0  0  0  0
 35 75  1  0  0  0  0
 35 80  2  0  0  0  0
 36 66  1  0  0  0  0
 36 71  1  0  0  0  0
 36 81  2  0  0  0  0
 37 67  1  0  0  0  0
 37 76  1  0  0  0  0
 37 82  2  0  0  0  0
 38 72  1  0  0  0  0
 38 77  1  0  0  0  0
 38 83  2  0  0  0  0
 39 42  1  0  0  0  0
 40 53  1  0  0  0  0
 41 71  1  0  0  0  0
 42 44  1  0  0  0  0
 43 47  1  0  0  0  0
 43 50  1  0  0  0  0
 44 52  1  0  0  0  0
 45 48  1  0  0  0  0
 45 54  1  0  0  0  0
 46 49  1  0  0  0  0
 46 54  1  0  0  0  0
 47 55  1  0  0  0  0
 48 56  1  0  0  0  0
 49 56  1  0  0  0  0
 50 72  1  0  0  0  0
 51 55  1  0  0  0  0
 51 72  1  0  0  0  0
 52 75  1  0  0  0  0
 53 71  1  0  0  0  0
 54 65  1  0  0  0  0
 55 70  1  0  0  0  0
 56 77  1  0  0  0  0
 58 65  1  0  0  0  0
 59 67  1  0  0  0  0
 60 68  1  0  0  0  0
 61 68  1  0  0  0  0
 62 68  1  0  0  0  0
 63 78  1  0  0  0  0
 64 86  1  0  0  0  0
 66 68  1  0  0  0  0
 66 76  1  0  0  0  0
 67 78  1  0  0  0  0
 69 70  1  0  0  0  0
M  CHG  1  78   1
M  ISO  4  28 101  38 100  77 100  85 101
M  END
> <Batch ID>
0144

> <Smiles>
CNC(C)C(=O)NC(C(=O)N1Cc2cc([101O:1][101c:1]3cc(OC)c(C(C)C4CCC([100NH:0][100C:0](=O)N5CCCC(n6nc(-c7ccc(Oc8ccc(F)cc8F)cc7)c(C(N)=O)c6N)C5)CC4)cc3C)ccc2CC1C(=O)NC1CCCc2ccccc21)C(C)(C)C

> <Shape>
0.208

> <Color>
0.126

> <Negative vol penalty>
0.000

$$$$

  -OEChem-04052321263D

 90 99  0     1  0  0  0  0  0999 V2000
  -19.6280   -8.8418   19.9467 C   0  0  0  0  0  0  0  0  0  0  0  0
  -19.7882  -10.1990   20.2068 C   0  0  0  0  0  0  0  0  0  0  0  0
  -29.2636  -26.6028   18.8853 C   0  0  0  0  0  0  0  0  0  0  0  0
  -26.9956  -25.8317   18.5715 C   0  0  0  0  0  0  0  0  0  0  0  0
  -20.6827   -7.9596   20.1778 C   0  0  0  0  0  0  0  0  0  0  0  0
  -21.0030  -10.6747   20.6993 C   0  0  0  0  0  0  0  0  0  0  0  0
  -22.5350  -14.8904   18.3485 C   0  0  0  0  0  0  0  0  0  0  0  0
  -21.3758  -24.3780   19.9779 C   0  0  0  0  0  0  0  0  0  0  0  0
  -29.7118  -25.2819   18.8926 C   0  0  0  0  0  0  0  0  0  0  0  0
  -27.4437  -24.5108   18.5787 C   0  0  0  0  0  0  0  0  0  0  0  0
  -21.9234  -16.0861   18.7225 C   0  0  0  0  0  0  0  0  0  0  0  0
  -21.6698  -23.0753   19.5754 C   0  0  0  0  0  0  0  0  0  0  0  0
  -28.3843  -22.2116   20.8722 C   0  0  0  0  0  0  0  0  0  0  0  0
  -27.6648  -21.2873   21.6295 C   0  0  0  0  0  0  0  0  0  0  0  0
  -23.8216  -16.6148   20.1140 C   0  0  0  0  0  0  0  0  0  0  0  0
  -19.6796  -22.2812   20.6915 C   0  0  0  0  0  0  0  0  0  0  0  0
  -27.2234  -19.9971   19.6351 C   0  0  0  0  0  0  0  0  0  0  0  0
  -27.9056  -26.8777   18.7248 C   0  0  0  0  0  0  0  0  0  0  0  0
  -27.3084  -29.0886   17.6011 C   0  0  0  0  0  0  0  0  0  0  0  0
  -21.9141   -8.4262   20.6641 C   0  0  0  0  0  0  0  0  0  0  0  0
  -23.7919  -14.5422   18.8637 C   0  0  0  0  0  0  0  0  0  0  0  0
  -22.0747   -9.7978   20.9383 C   0  0  0  0  0  0  0  0  0  0  0  0
  -24.4482  -15.4153   19.7429 C   0  0  0  0  0  0  0  0  0  0  0  0
  -19.3856  -23.5840   21.0940 C   0  0  0  0  0  0  0  0  0  0  0  0
  -20.2337  -24.6324   20.7373 C   0  0  0  0  0  0  0  0  0  0  0  0
  -28.8018  -24.2359   18.7393 C   0  0  0  0  0  0  0  0  0  0  0  0
  -22.5654  -16.9472   19.6077 C   0  0  0  0  0  0  0  0  0  0  0  0
  -20.8217  -22.0269   19.9321 C   0  0  0  0  0  0  0  0  0  0  0  0
  -28.5234  -22.0287   19.4964 C   0  0  0  0  0  0  0  0  0  0  0  0
  -27.0843  -20.1800   21.0109 C   0  0  0  0  0  0  0  0  0  0  0  0
  -27.9429  -20.9214   18.8778 C   0  0  0  0  0  0  0  0  0  0  0  0
  -27.4420  -28.2419   18.7178 C   0  0  0  0  0  0  0  0  0  0  0  0
  -26.8345  -30.2688   18.1198 C   0  0  0  0  0  0  0  0  0  0  0  0
  -27.5877  -28.8313   16.2185 C   0  0  0  0  0  0  0  0  0  0  0  0
  -24.9014  -12.1601   20.6521 C   0  0  0  0  0  0  0  0  0  0  0  0
  -27.7689  -13.5376   20.0177 C   0  0  0  0  0  0  0  0  0  0  0  0
  -29.5062  -16.3437   19.1491 C   0  0  0  0  0  0  0  0  0  0  0  0
  -23.7289  -31.5938   23.0646 C   0  0  0  0  0  0  0  0  0  0  0  0
  -23.0097   -7.4279   20.9431 C   0  0  0  0  0  0  0  0  0  0  0  0
  -24.4500  -13.2613   18.4296 C   0  0  0  0  0  0  0  0  0  0  0  0
  -25.8074  -15.0974   20.3087 C   0  0  0  0  0  0  0  0  0  0  0  0
  -24.3864   -8.0655   21.1113 C   0  0  0  0  0  0  0  0  0  0  0  0
  -26.9035  -32.8976   22.1167 C   0  0  0  0  0  0  0  0  0  0  0  0
  -18.2737  -23.8747   23.4077 C   0  0  0  0  0  0  0  0  0  0  0  0
  -17.5980  -22.7149   22.7455 C   0  0  0  0  0  0  0  0  0  0  0  0
  -24.3044   -9.2768   22.0349 C   0  0  0  0  0  0  0  0  0  0  0  0
  -27.3895  -31.9287   21.0374 C   0  0  0  0  0  0  0  0  0  0  0  0
  -26.1322  -32.1744   23.2185 C   0  0  0  0  0  0  0  0  0  0  0  0
  -25.5001  -30.3684   21.6653 C   0  0  0  0  0  0  0  0  0  0  0  0
  -18.1587  -23.8327   21.9072 C   0  0  0  0  0  0  0  0  0  0  0  0
  -23.3852  -10.3556   21.4495 C   0  0  1  0  0  0  0  0  0  0  0  0
  -25.5033  -12.7665   19.4161 C   0  0  1  0  0  0  0  0  0  0  0  0
  -26.2353  -31.0589   20.5039 C   0  0  2  0  0  0  0  0  0  0  0  0
  -31.8416  -17.1688   18.7459 C   0  0  0  0  0  0  0  0  0  0  0  0
  -19.4194  -30.1578   24.2263 C   0  0  0  0  0  0  0  0  0  0  0  0
  -28.2639  -13.6000   23.0278 C   0  0  0  0  0  0  0  0  0  0  0  0
  -30.1055  -15.2465   22.6205 C   0  0  0  0  0  0  0  0  0  0  0  0
  -30.2521  -12.9503   21.6569 C   0  0  0  0  0  0  0  0  0  0  0  0
  -28.8981  -17.0431   16.3384 C   0  0  0  0  0  0  0  0  0  0  0  0
  -19.9413  -26.0361   21.1560 C   0  0  0  0  0  0  0  0  0  0  0  0
  -21.3595  -30.9084   22.7899 C   0  0  0  0  0  0  0  0  0  0  0  0
  -20.8150  -26.5398   22.3045 C   0  0  0  0  0  0  0  0  0  0  0  0
  -21.2560  -28.5223   23.7584 C   0  0  0  0  0  0  0  0  0  0  0  0
  -20.6879  -18.3942   19.4150 C   0  0  0  0  0  0  0  0  0  1  0  0
  -20.2001  -19.7314   19.9378 C   0  0  0  0  0  0  0  0  0  0  0  0
  -28.6113  -14.6041   20.6747 C   0  0  1  0  0  0  0  0  0  0  0  0
  -30.5918  -16.5761   18.1138 C   0  0  2  0  0  0  0  0  0  0  0  0
  -20.9199  -30.0059   23.9542 C   0  0  2  0  0  0  0  0  0  0  0  0
  -29.2817  -14.1056   21.9860 C   0  0  0  0  0  0  0  0  0  0  0  0
  -27.0821  -28.8339   19.8597 N   0  0  0  0  0  0  0  0  0  0  0  0
  -26.7179  -30.0653   19.4633 N   0  0  0  0  0  0  0  0  0  0  0  0
  -26.4069  -13.8302   19.8589 N   0  0  0  0  0  0  0  0  0  0  0  0
  -25.0508  -31.3688   22.6462 N   0  0  0  0  0  0  0  0  0  0  0  0
  -26.5104  -31.4505   17.5531 N   0  0  0  0  0  0  0  0  0  0  0  0
  -28.0688  -27.5651   15.8585 N   0  0  0  0  0  0  0  0  0  0  0  0
  -24.0669  -11.0872   20.4033 N   0  0  0  0  0  0  0  0  0  0  0  0
  -29.5529  -15.0636   19.6595 N   0  0  0  0  0  0  0  0  0  0  0  0
  -22.7642  -30.7913   22.4677 N   0  0  0  0  0  0  0  0  0  0  0  0
  -30.1097  -17.5120   17.0589 N   0  3  0  0  0  0  0  0  0  0  0  0
  -20.4947  -27.9555   22.6120 N   0  3  0  0  0  0  0  0  0  0  0  0
  -27.4313  -29.7038   15.3309 O   0  0  0  0  0  0  0  0  0  0  0  0
  -25.1751  -12.6299   21.7503 O   0  0  0  0  0  0  0  0  0  0  0  0
  -28.3011  -12.4865   19.6521 O   0  0  0  0  0  0  0  0  0  0  0  0
  -28.6999  -17.2120   19.4753 O   0  0  0  0  0  0  0  0  0  0  0  0
  -23.4299  -32.4502   23.9037 O   0  0  0  0  0  0  0  0  0  0  0  0
  -29.2388  -22.9469   18.7461 O   0  0  0  0  0  0  0  0  0  0  0  0
  -21.9703  -18.1146   19.9749 O   0  0  0  0  0  0  0  0  0  1  0  0
  -21.1109  -20.7475   19.5363 O   0  0  0  0  0  0  0  0  0  0  0  0
  -26.3946  -19.2917   21.7385 F   0  0  0  0  0  0  0  0  0  0  0  0
  -28.0741  -20.7397   17.5566 F   0  0  0  0  0  0  0  0  0  0  0  0
  1  2  1  0  0  0  0
  1  5  2  0  0  0  0
  2  6  2  0  0  0  0
  3  9  2  0  0  0  0
  3 18  1  0  0  0  0
  4 10  1  0  0  0  0
  4 18  2  0  0  0  0
  5 20  1  0  0  0  0
  6 22  1  0  0  0  0
  7 11  2  0  0  0  0
  7 21  1  0  0  0  0
  8 12  2  0  0  0  0
  8 25  1  0  0  0  0
  9 26  1  0  0  0  0
 10 26  2  0  0  0  0
 11 27  1  0  0  0  0
 12 28  1  0  0  0  0
 13 14  2  0  0  0  0
 13 29  1  0  0  0  0
 14 30  1  0  0  0  0
 15 23  1  0  0  0  0
 15 27  2  0  0  0  0
 16 24  1  0  0  0  0
 16 28  2  0  0  0  0
 17 30  2  0  0  0  0
 17 31  1  0  0  0  0
 18 32  1  0  0  0  0
 19 32  1  0  0  0  0
 19 33  2  0  0  0  0
 19 34  1  0  0  0  0
 20 22  2  0  0  0  0
 20 39  1  0  0  0  0
 21 23  2  0  0  0  0
 21 40  1  0  0  0  0
 22 51  1  0  0  0  0
 23 41  1  0  0  0  0
 24 25  2  0  0  0  0
 24 50  1  0  0  0  0
 25 60  1  0  0  0  0
 26 86  1  0  0  0  0
 27 87  1  0  0  0  0
 28 88  1  0  0  0  0
 29 31  2  0  0  0  0
 29 86  1  0  0  0  0
 30 89  1  0  0  0  0
 31 90  1  0  0  0  0
 32 70  2  0  0  0  0
 33 71  1  0  0  0  0
 33 74  1  0  0  0  0
 34 75  1  0  0  0  0
 34 81  2  0  0  0  0
 35 52  1  0  0  0  0
 35 76  1  0  0  0  0
 35 82  2  0  0  0  0
 36 66  1  0  0  0  0
 36 72  1  0  0  0  0
 36 83  2  0  0  0  0
 37 67  1  0  0  0  0
 37 77  1  0  0  0  0
 37 84  2  0  0  0  0
 38 73  1  0  0  0  0
 38 78  1  0  0  0  0
 38 85  2  0  0  0  0
 39 42  1  0  0  0  0
 40 52  1  0  0  0  0
 41 72  1  0  0  0  0
 42 46  1  0  0  0  0
 43 47  1  0  0  0  0
 43 48  1  0  0  0  0
 44 45  1  0  0  0  0
 44 50  1  0  0  0  0
 45 50  1  0  0  0  0
 46 51  1  0  0  0  0
 47 53  1  0  0  0  0
 48 73  1  0  0  0  0
 49 53  1  0  0  0  0
 49 73  1  0  0  0  0
 51 76  1  0  0  0  0
 52 72  1  0  0  0  0
 53 71  1  0  0  0  0
 54 67  1  0  0  0  0
 55 68  1  0  0  0  0
 56 69  1  0  0  0  0
 57 69  1  0  0  0  0
 58 69  1  0  0  0  0
 59 79  1  0  0  0  0
 60 62  1  0  0  0  0
 61 68  1  0  0  0  0
 61 78  1  0  0  0  0
 62 80  1  0  0  0  0
 63 68  1  0  0  0  0
 63 80  1  0  0  0  0
 64 65  1  0  0  0  0
 64 87  1  0  0  0  0
 65 88  1  0  0  0  0
 66 69  1  0  0  0  0
 66 77  1  0  0  0  0
 67 79  1  0  0  0  0
 70 71  1  0  0  0  0
M  CHG  2  79   1  80   1
M  ISO  4  38 100  64 101  78 100  87 101
M  END
> <Batch ID>
0144

> <Smiles>
CNC(C)C(=O)NC(C(=O)N1Cc2cc([101O:1][101CH2:1]COc3ccc(CCNCC(C)C[100NH:0][100C:0](=O)N4CCCC(n5nc(-c6ccc(Oc7ccc(F)cc7F)cc6)c(C(N)=O)c5N)C4)c(C4CC4)c3)ccc2CC1C(=O)NC1CCCc2ccccc21)C(C)(C)C

> <Shape>
0.268

> <Color>
0.053

> <Negative vol penalty>
0.000

$$$$

  -OEChem-04052321263D

 85 94  0     1  0  0  0  0  0999 V2000
  -18.1119  -24.8733   23.3817 C   0  0  0  0  0  0  0  0  0  0  0  0
  -19.4978  -24.7521   23.3945 C   0  0  0  0  0  0  0  0  0  0  0  0
  -23.1897  -14.3392   24.7688 C   0  0  0  0  0  0  0  0  0  0  0  0
  -22.7620  -15.8495   22.9322 C   0  0  0  0  0  0  0  0  0  0  0  0
  -17.5201  -26.0455   22.9132 C   0  0  0  0  0  0  0  0  0  0  0  0
  -20.2927  -25.8027   22.9376 C   0  0  0  0  0  0  0  0  0  0  0  0
  -24.2116  -26.7486   26.0022 C   0  0  0  0  0  0  0  0  0  0  0  0
  -22.1607  -14.9348   25.4982 C   0  0  0  0  0  0  0  0  0  0  0  0
  -21.7329  -16.4451   23.6615 C   0  0  0  0  0  0  0  0  0  0  0  0
  -25.3080  -25.8916   25.9169 C   0  0  0  0  0  0  0  0  0  0  0  0
  -21.4345  -18.6939   26.1684 C   0  0  0  0  0  0  0  0  0  0  0  0
  -21.3718  -20.0873   26.1815 C   0  0  0  0  0  0  0  0  0  0  0  0
  -26.4608  -27.5120   24.5514 C   0  0  0  0  0  0  0  0  0  0  0  0
  -27.9592  -21.0912   21.6327 C   0  0  0  0  0  0  0  0  0  0  0  0
  -30.1125  -21.8542   20.8465 C   0  0  0  0  0  0  0  0  0  0  0  0
  -19.1691  -19.9975   25.1930 C   0  0  0  0  0  0  0  0  0  0  0  0
  -23.4904  -14.7966   23.4858 C   0  0  0  0  0  0  0  0  0  0  0  0
  -24.4502  -13.0861   21.8546 C   0  0  0  0  0  0  0  0  0  0  0  0
  -18.3084  -27.1148   22.4594 C   0  0  0  0  0  0  0  0  0  0  0  0
  -24.2273  -27.9913   25.3527 C   0  0  0  0  0  0  0  0  0  0  0  0
  -19.7108  -26.9899   22.4613 C   0  0  0  0  0  0  0  0  0  0  0  0
  -25.3643  -28.3840   24.6322 C   0  0  0  0  0  0  0  0  0  0  0  0
  -29.0398  -22.9686   22.7024 C   0  0  0  0  0  0  0  0  0  0  0  0
  -27.9619  -22.0884   22.6079 C   0  0  0  0  0  0  0  0  0  0  0  0
  -30.1152  -22.8515   21.8217 C   0  0  0  0  0  0  0  0  0  0  0  0
  -21.4323  -15.9877   24.9446 C   0  0  0  0  0  0  0  0  0  0  0  0
  -26.4316  -26.2720   25.1890 C   0  0  0  0  0  0  0  0  0  0  0  0
  -20.3645  -17.9523   25.6675 C   0  0  0  0  0  0  0  0  0  0  0  0
  -29.0346  -20.9740   20.7520 C   0  0  0  0  0  0  0  0  0  0  0  0
  -20.2391  -20.7391   25.6938 C   0  0  0  0  0  0  0  0  0  0  0  0
  -19.2319  -18.6041   25.1798 C   0  0  0  0  0  0  0  0  0  0  0  0
  -24.5536  -14.1821   22.7320 C   0  0  0  0  0  0  0  0  0  0  0  0
  -25.7300  -12.8917   21.3957 C   0  0  0  0  0  0  0  0  0  0  0  0
  -23.3000  -12.3129   21.4872 C   0  0  0  0  0  0  0  0  0  0  0  0
  -22.4978  -29.3425   23.0534 C   0  0  0  0  0  0  0  0  0  0  0  0
  -24.2809  -31.9524   23.7827 C   0  0  0  0  0  0  0  0  0  0  0  0
  -27.1651  -33.2148   25.0995 C   0  0  0  0  0  0  0  0  0  0  0  0
  -30.4597  -16.5220   20.8457 C   0  0  0  0  0  0  0  0  0  0  0  0
  -17.6223  -28.3439   21.9179 C   0  0  0  0  0  0  0  0  0  0  0  0
  -23.0472  -28.9156   25.4766 C   0  0  0  0  0  0  0  0  0  0  0  0
  -25.4393  -29.7161   23.9334 C   0  0  0  0  0  0  0  0  0  0  0  0
  -18.5445  -29.5547   21.8012 C   0  0  0  0  0  0  0  0  0  0  0  0
  -30.2999  -13.4780   22.6855 C   0  0  0  0  0  0  0  0  0  0  0  0
  -19.8659  -29.1585   21.1504 C   0  0  0  0  0  0  0  0  0  0  0  0
  -28.7997  -13.2144   22.8269 C   0  0  0  0  0  0  0  0  0  0  0  0
  -29.2305  -25.4695   23.3230 C   0  0  0  0  0  0  0  0  0  0  0  0
  -30.6213  -14.9685   22.7685 C   0  0  0  0  0  0  0  0  0  0  0  0
  -28.3639  -15.5549   21.9720 C   0  0  0  0  0  0  0  0  0  0  0  0
  -29.0417  -24.0291   23.7382 C   0  0  1  0  0  0  0  0  0  0  0  0
  -20.6075  -28.1171   21.9971 C   0  0  1  0  0  0  0  0  0  0  0  0
  -22.9696  -29.9400   24.3489 C   0  0  1  0  0  0  0  0  0  0  0  0
  -27.9845  -14.0701   21.8388 C   0  0  2  0  0  0  0  0  0  0  0  0
  -27.8877  -25.0058   23.7989 C   0  0  1  0  0  0  0  0  0  1  0  0
  -26.7973  -22.1896   23.5380 C   0  0  0  0  0  0  0  0  0  0  0  0
  -31.2825  -23.7804   21.9008 C   0  0  0  0  0  0  0  0  0  0  0  0
  -28.3534  -35.3844   25.5220 C   0  0  0  0  0  0  0  0  0  0  0  0
  -25.0069  -32.1281   20.8244 C   0  0  0  0  0  0  0  0  0  0  0  0
  -26.8844  -33.6626   21.4478 C   0  0  0  0  0  0  0  0  0  0  0  0
  -24.5255  -34.3276   21.9128 C   0  0  0  0  0  0  0  0  0  0  0  0
  -27.1862  -32.7673   28.0249 C   0  0  0  0  0  0  0  0  0  0  0  0
  -30.1362  -18.0545   18.9206 C   0  0  0  0  0  0  0  0  0  0  0  0
  -30.3002  -19.4879   19.3935 C   0  0  0  0  0  0  0  0  0  0  0  0
  -25.5996  -32.5130   23.3076 C   0  0  1  0  0  0  0  0  0  0  0  0
  -27.4128  -34.3350   26.0937 C   0  0  2  0  0  0  0  0  0  0  0  0
  -25.5022  -33.1318   21.8846 C   0  0  0  0  0  0  0  0  0  0  0  0
  -25.8006  -14.6511   22.8266 N   0  0  0  0  0  0  0  0  0  0  0  0
  -26.4926  -13.8458   22.0027 N   0  0  0  0  0  0  0  0  0  0  0  0
  -24.2576  -30.5821   24.0789 N   0  0  0  0  0  0  0  0  0  0  0  0
  -29.8160  -15.7232   21.8052 N   0  0  0  0  0  0  0  0  0  0  0  0
  -26.2663  -11.9995   20.5362 N   0  0  0  0  0  0  0  0  0  0  0  0
  -22.0617  -12.6477   22.0519 N   0  0  0  0  0  0  0  0  0  0  0  0
  -21.2514  -28.7506   23.1278 N   0  0  0  0  0  0  0  0  0  0  0  0
  -26.0402  -33.4481   24.3371 N   0  0  0  0  0  0  0  0  0  0  0  0
  -29.6228  -17.1987   19.9669 N   0  0  0  0  0  0  0  0  0  0  0  0
  -28.0167  -33.7937   27.3440 N   0  3  0  0  0  0  0  0  0  0  0  0
  -23.3713  -11.3432   20.6947 O   0  0  0  0  0  0  0  0  0  0  0  0
  -23.2111  -29.4146   22.0596 O   0  0  0  0  0  0  0  0  0  0  0  0
  -23.3091  -32.7040   23.8940 O   0  0  0  0  0  0  0  0  0  0  0  0
  -27.8985  -32.2331   25.0058 O   0  0  0  0  0  0  0  0  0  0  0  0
  -31.6894  -16.6203   20.7739 O   0  0  0  0  0  0  0  0  0  0  0  0
  -20.4280  -16.5690   25.6559 O   0  0  0  0  0  0  0  0  0  0  0  0
  -27.5028  -25.4371   25.1036 O   0  0  0  0  0  0  0  0  0  1  0  0
  -29.0325  -20.0004   19.8008 O   0  0  0  0  0  0  0  0  0  0  0  0
  -20.1784  -22.0771   25.7079 F   0  0  0  0  0  0  0  0  0  0  0  0
  -18.2003  -17.8969   24.6985 F   0  0  0  0  0  0  0  0  0  0  0  0
  1  2  1  0  0  0  0
  1  5  2  0  0  0  0
  2  6  2  0  0  0  0
  3  8  2  0  0  0  0
  3 17  1  0  0  0  0
  4  9  1  0  0  0  0
  4 17  2  0  0  0  0
  5 19  1  0  0  0  0
  6 21  1  0  0  0  0
  7 10  2  0  0  0  0
  7 20  1  0  0  0  0
  8 26  1  0  0  0  0
  9 26  2  0  0  0  0
 10 27  1  0  0  0  0
 11 12  2  0  0  0  0
 11 28  1  0  0  0  0
 12 30  1  0  0  0  0
 13 22  1  0  0  0  0
 13 27  2  0  0  0  0
 14 24  2  0  0  0  0
 14 29  1  0  0  0  0
 15 25  1  0  0  0  0
 15 29  2  0  0  0  0
 16 30  2  0  0  0  0
 16 31  1  0  0  0  0
 17 32  1  0  0  0  0
 18 32  1  0  0  0  0
 18 33  2  0  0  0  0
 18 34  1  0  0  0  0
 19 21  2  0  0  0  0
 19 39  1  0  0  0  0
 20 22  2  0  0  0  0
 20 40  1  0  0  0  0
 21 50  1  0  0  0  0
 22 41  1  0  0  0  0
 23 24  1  0  0  0  0
 23 25  2  0  0  0  0
 23 49  1  0  0  0  0
 24 54  1  0  0  0  0
 25 55  1  0  0  0  0
 26 81  1  0  0  0  0
 27 82  1  0  0  0  0
 28 31  2  0  0  0  0
 28 81  1  0  0  0  0
 29 83  1  0  0  0  0
 30 84  1  0  0  0  0
 31 85  1  0  0  0  0
 32 66  2  0  0  0  0
 33 67  1  0  0  0  0
 33 70  1  0  0  0  0
 34 71  1  0  0  0  0
 34 76  2  0  0  0  0
 35 51  1  0  0  0  0
 35 72  1  0  0  0  0
 35 77  2  0  0  0  0
 36 63  1  0  0  0  0
 36 68  1  0  0  0  0
 36 78  2  0  0  0  0
 37 64  1  0  0  0  0
 37 73  1  0  0  0  0
 37 79  2  0  0  0  0
 38 69  1  0  0  0  0
 38 74  1  0  0  0  0
 38 80  2  0  0  0  0
 39 42  1  0  0  0  0
 40 51  1  0  0  0  0
 41 68  1  0  0  0  0
 42 44  1  0  0  0  0
 43 45  1  0  0  0  0
 43 47  1  0  0  0  0
 44 50  1  0  0  0  0
 45 52  1  0  0  0  0
 46 49  1  0  0  0  0
 46 53  1  0  0  0  0
 47 69  1  0  0  0  0
 48 52  1  0  0  0  0
 48 69  1  0  0  0  0
 49 53  1  0  0  0  0
 50 72  1  0  0  0  0
 51 68  1  0  0  0  0
 52 67  1  0  0  0  0
 53 82  1  0  0  0  0
 56 64  1  0  0  0  0
 57 65  1  0  0  0  0
 58 65  1  0  0  0  0
 59 65  1  0  0  0  0
 60 75  1  0  0  0  0
 61 62  1  0  0  0  0
 61 74  1  0  0  0  0
 62 83  1  0  0  0  0
 63 65  1  0  0  0  0
 63 73  1  0  0  0  0
 64 75  1  0  0  0  0
 66 67  1  0  0  0  0
M  CHG  1  75   1
M  ISO  4  38 100  53 101  74 100  82 101
M  END
> <Batch ID>
0144

> <Smiles>
CNC(C)C(=O)NC(C(=O)N1Cc2cc([101O:1][101CH:1]3CC3c3c(C)cc(OCC[100NH:0][100C:0](=O)N4CCCC(n5nc(-c6ccc(Oc7ccc(F)cc7F)cc6)c(C(N)=O)c5N)C4)cc3C)ccc2CC1C(=O)NC1CCCc2ccccc21)C(C)(C)C

> <Shape>
0.223

> <Color>
0.099

> <Negative vol penalty>
0.000

$$$$

  -OEChem-04052321263D

 88 97  0     1  0  0  0  0  0999 V2000
  -27.1616  -37.8741   22.5985 C   0  0  0  0  0  0  0  0  0  0  0  0
  -27.7517  -36.7177   22.0985 C   0  0  0  0  0  0  0  0  0  0  0  0
  -26.6848  -12.6223   22.0969 C   0  0  0  0  0  0  0  0  0  0  0  0
  -24.5399  -11.8917   21.2587 C   0  0  0  0  0  0  0  0  0  0  0  0
  -26.1602  -37.7828   23.5643 C   0  0  0  0  0  0  0  0  0  0  0  0
  -27.3415  -35.4693   22.5650 C   0  0  0  0  0  0  0  0  0  0  0  0
  -26.9975  -30.2688   19.3490 C   0  0  0  0  0  0  0  0  0  0  0  0
  -26.6270  -11.6483   23.0937 C   0  0  0  0  0  0  0  0  0  0  0  0
  -24.4821  -10.9177   22.2554 C   0  0  0  0  0  0  0  0  0  0  0  0
  -27.8571  -29.1769   19.2364 C   0  0  0  0  0  0  0  0  0  0  0  0
  -25.8023   -7.8598   22.8271 C   0  0  0  0  0  0  0  0  0  0  0  0
  -25.4011   -6.5768   22.4549 C   0  0  0  0  0  0  0  0  0  0  0  0
  -29.7215  -24.6151   18.6304 C   0  0  0  0  0  0  0  0  0  0  0  0
  -26.5827  -28.0079   20.9182 C   0  0  0  0  0  0  0  0  0  0  0  0
  -31.7010  -25.8354   19.2861 C   0  0  0  0  0  0  0  0  0  0  0  0
  -23.5352   -6.7169   23.9833 C   0  0  0  0  0  0  0  0  0  0  0  0
  -25.6412  -12.7440   21.1794 C   0  0  0  0  0  0  0  0  0  0  0  0
  -26.2492  -13.6164   18.8605 C   0  0  0  0  0  0  0  0  0  0  0  0
  -25.7307  -36.5322   24.0357 C   0  0  0  0  0  0  0  0  0  0  0  0
  -25.9287  -30.2426   20.2564 C   0  0  0  0  0  0  0  0  0  0  0  0
  -26.3343  -35.3612   23.5389 C   0  0  0  0  0  0  0  0  0  0  0  0
  -30.4565  -23.4297   18.6177 C   0  0  0  0  0  0  0  0  0  0  0  0
  -25.7094  -29.0997   21.0385 C   0  0  0  0  0  0  0  0  0  0  0  0
  -30.3438  -25.8180   18.9645 C   0  0  0  0  0  0  0  0  0  0  0  0
  -31.8136  -23.4470   18.9393 C   0  0  0  0  0  0  0  0  0  0  0  0
  -25.5257  -10.7960   23.1729 C   0  0  0  0  0  0  0  0  0  0  0  0
  -27.6515  -28.0474   20.0232 C   0  0  0  0  0  0  0  0  0  0  0  0
  -25.0700   -8.5713   23.7775 C   0  0  0  0  0  0  0  0  0  0  0  0
  -32.4359  -24.6499   19.2735 C   0  0  0  0  0  0  0  0  0  0  0  0
  -24.2675   -6.0053   23.0330 C   0  0  0  0  0  0  0  0  0  0  0  0
  -23.9364   -7.9999   24.3555 C   0  0  0  0  0  0  0  0  0  0  0  0
  -25.7000  -13.7503   20.1498 C   0  0  0  0  0  0  0  0  0  0  0  0
  -26.0581  -14.8448   18.2766 C   0  0  0  0  0  0  0  0  0  0  0  0
  -26.8761  -12.4829   18.2458 C   0  0  0  0  0  0  0  0  0  0  0  0
  -25.1098  -31.9526   22.8077 C   0  0  0  0  0  0  0  0  0  0  0  0
  -22.4114  -30.1584   22.6604 C   0  0  0  0  0  0  0  0  0  0  0  0
  -20.9025  -27.2737   21.6362 C   0  0  0  0  0  0  0  0  0  0  0  0
  -26.0775  -20.3232   18.3597 C   0  0  0  0  0  0  0  0  0  0  0  0
  -24.6780  -36.4856   25.1147 C   0  0  0  0  0  0  0  0  0  0  0  0
  -24.9946  -31.4181   20.3466 C   0  0  0  0  0  0  0  0  0  0  0  0
  -24.5645  -29.0135   22.0133 C   0  0  0  0  0  0  0  0  0  0  0  0
  -24.0388  -35.1097   25.2831 C   0  0  0  0  0  0  0  0  0  0  0  0
  -23.2998  -18.8099   19.7535 C   0  0  0  0  0  0  0  0  0  0  0  0
  -25.1097  -34.0239   25.3160 C   0  0  0  0  0  0  0  0  0  0  0  0
  -23.7100  -17.3428   19.8790 C   0  0  0  0  0  0  0  0  0  0  0  0
  -29.2215  -21.3966   19.4913 C   0  0  0  0  0  0  0  0  0  0  0  0
  -28.6300  -22.3583   17.2252 C   0  0  0  0  0  0  0  0  0  0  0  0
  -24.4523  -19.7329   20.1320 C   0  0  0  0  0  0  0  0  0  0  0  0
  -28.4877  -20.1073   19.1112 C   0  0  0  0  0  0  0  0  0  0  0  0
  -27.9354  -21.0416   16.8897 C   0  0  0  0  0  0  0  0  0  0  0  0
  -26.1203  -18.0366   19.4550 C   0  0  0  0  0  0  0  0  0  0  0  0
  -29.7561  -22.1349   18.2508 C   0  0  0  0  0  0  0  0  0  0  0  0
  -25.8992  -33.9877   24.0018 C   0  0  1  0  0  0  0  0  0  0  0  0
  -24.2436  -31.4841   21.6729 C   0  0  1  0  0  0  0  0  0  0  0  0
  -24.9915  -17.0562   19.0765 C   0  0  1  0  0  0  0  0  0  0  0  0
  -32.6066  -22.1792   18.9274 C   0  0  0  0  0  0  0  0  0  0  0  0
  -35.8167  -24.9532   22.7207 C   0  0  0  0  0  0  0  0  0  0  0  0
  -18.6985  -26.0753   21.6948 C   0  0  0  0  0  0  0  0  0  0  0  0
  -22.8953  -29.4162   25.5801 C   0  0  0  0  0  0  0  0  0  0  0  0
  -21.2695  -27.5332   25.2984 C   0  0  0  0  0  0  0  0  0  0  0  0
  -20.5078  -29.8906   25.0063 C   0  0  0  0  0  0  0  0  0  0  0  0
  -20.6943  -27.2703   18.6840 C   0  0  0  0  0  0  0  0  0  0  0  0
  -29.5587  -27.0858   18.9772 C   0  0  0  0  0  0  0  0  0  1  0  0
  -35.3964  -24.5003   21.3340 C   0  0  0  0  0  0  0  0  0  0  0  0
  -34.1030  -25.1657   20.8892 C   0  0  0  0  0  0  0  0  0  0  0  0
  -21.9752  -28.8341   23.2391 C   0  0  1  0  0  0  0  0  0  0  0  0
  -19.5919  -27.0248   20.9118 C   0  0  2  0  0  0  0  0  0  0  0  0
  -21.6848  -28.9206   24.7641 C   0  0  0  0  0  0  0  0  0  0  0  0
  -25.1978  -14.9678   20.3724 N   0  0  0  0  0  0  0  0  0  0  0  0
  -25.4307  -15.6101   19.2151 N   0  0  0  0  0  0  0  0  0  0  0  0
  -23.6825  -30.1910   22.0697 N   0  0  0  0  0  0  0  0  0  0  0  0
  -25.6509  -19.4270   19.3512 N   0  0  0  0  0  0  0  0  0  0  0  0
  -27.4553  -20.3762   18.1006 N   0  0  0  0  0  0  0  0  0  0  0  0
  -26.3672  -15.3341   17.0570 N   0  0  0  0  0  0  0  0  0  0  0  0
  -26.9905  -11.2990   18.9871 N   0  0  0  0  0  0  0  0  0  0  0  0
  -25.1318  -33.3247   22.9694 N   0  0  0  0  0  0  0  0  0  0  0  0
  -20.8380  -28.3934   22.4384 N   0  0  0  0  0  0  0  0  0  0  0  0
  -19.8469  -26.4304   19.5692 N   0  3  0  0  0  0  0  0  0  0  0  0
  -27.3362  -12.5239   17.0795 O   0  0  0  0  0  0  0  0  0  0  0  0
  -25.7124  -31.1300   23.4873 O   0  0  0  0  0  0  0  0  0  0  0  0
  -21.6494  -31.1264   22.7236 O   0  0  0  0  0  0  0  0  0  0  0  0
  -21.8840  -26.5455   21.5066 O   0  0  0  0  0  0  0  0  0  0  0  0
  -25.2752  -21.0339   17.7413 O   0  0  0  0  0  0  0  0  0  0  0  0
  -25.4691   -9.8453   24.1453 O   0  0  0  0  0  0  0  0  0  0  0  0
  -28.4952  -26.9732   19.9151 O   0  0  0  0  0  0  0  0  0  1  0  0
  -33.7608  -24.6862   19.5906 O   0  0  0  0  0  0  0  0  0  0  0  0
  -23.8815   -4.7738   22.6744 F   0  0  0  0  0  0  0  0  0  0  0  0
  -23.2282   -8.6791   25.2682 F   0  0  0  0  0  0  0  0  0  0  0  0
  1  2  1  0  0  0  0
  1  5  2  0  0  0  0
  2  6  2  0  0  0  0
  3  8  2  0  0  0  0
  3 17  1  0  0  0  0
  4  9  1  0  0  0  0
  4 17  2  0  0  0  0
  5 19  1  0  0  0  0
  6 21  1  0  0  0  0
  7 10  2  0  0  0  0
  7 20  1  0  0  0  0
  8 26  1  0  0  0  0
  9 26  2  0  0  0  0
 10 27  1  0  0  0  0
 11 12  2  0  0  0  0
 11 28  1  0  0  0  0
 12 30  1  0  0  0  0
 13 22  2  0  0  0  0
 13 24  1  0  0  0  0
 14 23  1  0  0  0  0
 14 27  2  0  0  0  0
 15 24  2  0  0  0  0
 15 29  1  0  0  0  0
 16 30  2  0  0  0  0
 16 31  1  0  0  0  0
 17 32  1  0  0  0  0
 18 32  1  0  0  0  0
 18 33  2  0  0  0  0
 18 34  1  0  0  0  0
 19 21  2  0  0  0  0
 19 39  1  0  0  0  0
 20 23  2  0  0  0  0
 20 40  1  0  0  0  0
 21 53  1  0  0  0  0
 22 25  1  0  0  0  0
 22 52  1  0  0  0  0
 23 41  1  0  0  0  0
 24 63  1  0  0  0  0
 25 29  2  0  0  0  0
 25 56  1  0  0  0  0
 26 84  1  0  0  0  0
 27 85  1  0  0  0  0
 28 31  2  0  0  0  0
 28 84  1  0  0  0  0
 29 86  1  0  0  0  0
 30 87  1  0  0  0  0
 31 88  1  0  0  0  0
 32 69  2  0  0  0  0
 33 70  1  0  0  0  0
 33 74  1  0  0  0  0
 34 75  1  0  0  0  0
 34 79  2  0  0  0  0
 35 54  1  0  0  0  0
 35 76  1  0  0  0  0
 35 80  2  0  0  0  0
 36 66  1  0  0  0  0
 36 71  1  0  0  0  0
 36 81  2  0  0  0  0
 37 67  1  0  0  0  0
 37 77  1  0  0  0  0
 37 82  2  0  0  0  0
 38 72  1  0  0  0  0
 38 73  1  0  0  0  0
 38 83  2  0  0  0  0
 39 42  1  0  0  0  0
 40 54  1  0  0  0  0
 41 71  1  0  0  0  0
 42 44  1  0  0  0  0
 43 45  1  0  0  0  0
 43 48  1  0  0  0  0
 44 53  1  0  0  0  0
 45 55  1  0  0  0  0
 46 49  1  0  0  0  0
 46 52  1  0  0  0  0
 47 50  1  0  0  0  0
 47 52  1  0  0  0  0
 48 72  1  0  0  0  0
 49 73  1  0  0  0  0
 50 73  1  0  0  0  0
 51 55  1  0  0  0  0
 51 72  1  0  0  0  0
 53 76  1  0  0  0  0
 54 71  1  0  0  0  0
 55 70  1  0  0  0  0
 57 64  1  0  0  0  0
 58 67  1  0  0  0  0
 59 68  1  0  0  0  0
 60 68  1  0  0  0  0
 61 68  1  0  0  0  0
 62 78  1  0  0  0  0
 63 85  1  0  0  0  0
 64 65  1  0  0  0  0
 65 86  1  0  0  0  0
 66 68  1  0  0  0  0
 66 77  1  0  0  0  0
 67 78  1  0  0  0  0
 69 70  1  0  0  0  0
M  CHG  1  78   1
M  ISO  4  38 100  63 101  73 100  85 101
M  END
> <Batch ID>
0144

> <Smiles>
CCCOc1cc([101CH2:1][101O:1]c2ccc3c(c2)CN(C(=O)C(NC(=O)C(C)NC)C(C)(C)C)C(C(=O)NC2CCCc4ccccc42)C3)cc(C2CC[100N:0]([100C:0](=O)N3CCCC(n4nc(-c5ccc(Oc6ccc(F)cc6F)cc5)c(C(N)=O)c4N)C3)CC2)c1C

> <Shape>
0.280

> <Color>
0.066

> <Negative vol penalty>
0.000

$$$$

  -OEChem-04052321263D

 86 96  0     1  0  0  0  0  0999 V2000
  -26.7845  -31.6228   27.5643 C   0  0  0  0  0  0  0  0  0  0  0  0
  -27.4566  -30.6683   26.8076 C   0  0  0  0  0  0  0  0  0  0  0  0
  -22.9054  -11.9119   21.5216 C   0  0  0  0  0  0  0  0  0  0  0  0
  -23.2086   -9.9227   20.1843 C   0  0  0  0  0  0  0  0  0  0  0  0
  -25.4164  -31.8194   27.3805 C   0  0  0  0  0  0  0  0  0  0  0  0
  -26.7609  -29.9091   25.8674 C   0  0  0  0  0  0  0  0  0  0  0  0
  -28.8647  -27.8868   20.4832 C   0  0  0  0  0  0  0  0  0  0  0  0
  -21.5528  -11.9342   21.1819 C   0  0  0  0  0  0  0  0  0  0  0  0
  -21.8559   -9.9450   19.8446 C   0  0  0  0  0  0  0  0  0  0  0  0
  -29.3777  -26.6549   20.0794 C   0  0  0  0  0  0  0  0  0  0  0  0
  -18.7240  -10.3329   22.1129 C   0  0  0  0  0  0  0  0  0  0  0  0
  -17.8028  -10.5646   23.1343 C   0  0  0  0  0  0  0  0  0  0  0  0
  -28.6093  -21.2025   18.9300 C   0  0  0  0  0  0  0  0  0  0  0  0
  -27.1988  -26.0232   19.2593 C   0  0  0  0  0  0  0  0  0  0  0  0
  -17.0206  -12.5382   21.9810 C   0  0  0  0  0  0  0  0  0  0  0  0
  -23.7334  -10.9062   21.0228 C   0  0  0  0  0  0  0  0  0  0  0  0
  -25.7209  -10.2329   22.4734 C   0  0  0  0  0  0  0  0  0  0  0  0
  -24.7054  -31.0690   26.4309 C   0  0  0  0  0  0  0  0  0  0  0  0
  -27.5102  -28.1924   20.2875 C   0  0  0  0  0  0  0  0  0  0  0  0
  -25.3818  -30.0949   25.6718 C   0  0  0  0  0  0  0  0  0  0  0  0
  -29.2516  -19.9916   18.6592 C   0  0  0  0  0  0  0  0  0  0  0  0
  -26.6717  -27.2607   19.6591 C   0  0  0  0  0  0  0  0  0  0  0  0
  -30.1123  -19.9623   17.5873 C   0  0  0  0  0  0  0  0  0  0  0  0
  -30.3419  -21.0684   16.8052 C   0  0  0  0  0  0  0  0  0  0  0  0
  -28.8448  -22.3364   18.1283 C   0  0  0  0  0  0  0  0  0  0  0  0
  -29.7256  -22.2738   17.0455 C   0  0  0  0  0  0  0  0  0  0  0  0
  -21.0280  -10.9507   20.3434 C   0  0  0  0  0  0  0  0  0  0  0  0
  -28.5441  -25.7218   19.4700 C   0  0  0  0  0  0  0  0  0  0  0  0
  -18.7935  -11.2038   21.0256 C   0  0  0  0  0  0  0  0  0  0  0  0
  -16.9511  -11.6673   23.0684 C   0  0  0  0  0  0  0  0  0  0  0  0
  -17.9418  -12.3065   20.9596 C   0  0  0  0  0  0  0  0  0  0  0  0
  -25.1309  -10.8830   21.3729 C   0  0  0  0  0  0  0  0  0  0  0  0
  -27.0607  -10.5126   22.3595 C   0  0  0  0  0  0  0  0  0  0  0  0
  -25.1122   -9.4463   23.5061 C   0  0  0  0  0  0  0  0  0  0  0  0
  -25.0636  -28.8663   22.2016 C   0  0  0  0  0  0  0  0  0  0  0  0
  -23.5292  -29.4253   19.3988 C   0  0  0  0  0  0  0  0  0  0  0  0
  -23.3220  -28.8415   16.0427 C   0  0  0  0  0  0  0  0  0  0  0  0
  -30.1709  -14.8455   19.9103 C   0  0  0  0  0  0  0  0  0  0  0  0
  -23.2183  -31.2841   26.3012 C   0  0  0  0  0  0  0  0  0  0  0  0
  -26.9783  -29.5362   20.7046 C   0  0  0  0  0  0  0  0  0  0  0  0
  -31.0448  -19.0920   16.7984 C   0  0  0  0  0  0  0  0  0  0  0  0
  -31.3070  -20.3523   15.9079 C   0  0  0  0  0  0  0  0  0  0  0  0
  -25.2147  -27.5480   19.4078 C   0  0  0  0  0  0  0  0  0  0  0  0
  -22.6277  -30.6997   25.0206 C   0  0  0  0  0  0  0  0  0  0  0  0
  -30.4287  -11.4913   19.1162 C   0  0  0  0  0  0  0  0  0  0  0  0
  -23.1426  -29.2819   24.7938 C   0  0  0  0  0  0  0  0  0  0  0  0
  -29.1604  -10.8788   19.7101 C   0  0  0  0  0  0  0  0  0  0  0  0
  -28.3815  -17.6119   18.7009 C   0  0  0  0  0  0  0  0  0  0  0  0
  -30.2939  -18.2857   20.2169 C   0  0  0  0  0  0  0  0  0  0  0  0
  -30.1312  -12.8364   18.4638 C   0  0  0  0  0  0  0  0  0  0  0  0
  -28.1708  -16.3612   19.5590 C   0  0  0  0  0  0  0  0  0  0  0  0
  -30.0223  -17.0374   21.0515 C   0  0  0  0  0  0  0  0  0  0  0  0
  -28.2206  -13.2265   19.9856 C   0  0  0  0  0  0  0  0  0  0  0  0
  -29.0105  -18.7597   19.5111 C   0  0  0  0  0  0  0  0  0  0  0  0
  -24.6667  -29.2689   24.6246 C   0  0  1  0  0  0  0  0  0  0  0  0
  -25.4681  -29.5401   20.9209 C   0  0  1  0  0  0  0  0  0  0  0  0
  -28.4656  -11.8644   20.6662 C   0  0  1  0  0  0  0  0  0  0  0  0
  -30.0020  -23.4476   16.1751 C   0  0  0  0  0  0  0  0  0  0  0  0
  -21.9395  -29.4077   14.0264 C   0  0  0  0  0  0  0  0  0  0  0  0
  -21.3679  -27.4880   20.3398 C   0  0  0  0  0  0  0  0  0  0  0  0
  -20.5502  -27.3618   17.9769 C   0  0  0  0  0  0  0  0  0  0  0  0
  -20.5053  -29.5378   19.1958 C   0  0  0  0  0  0  0  0  0  0  0  0
  -25.6197  -30.1170   14.6815 C   0  0  0  0  0  0  0  0  0  0  0  0
  -28.1341  -23.6091   18.4579 C   0  0  0  0  0  0  0  0  0  1  0  0
  -22.7219  -28.5880   18.4365 C   0  0  1  0  0  0  0  0  0  0  0  0
  -23.1510  -29.7840   14.8651 C   0  0  2  0  0  0  0  0  0  0  0  0
  -21.3133  -28.2374   18.9936 C   0  0  0  0  0  0  0  0  0  0  0  0
  -26.0228  -11.5274   20.6158 N   0  0  0  0  0  0  0  0  0  0  0  0
  -27.1869  -11.2836   21.2416 N   0  0  0  0  0  0  0  0  0  0  0  0
  -24.7404  -28.8732   19.8393 N   0  0  0  0  0  0  0  0  0  0  0  0
  -29.4688  -13.7423   19.4021 N   0  0  0  0  0  0  0  0  0  0  0  0
  -29.4172  -15.9823   20.2391 N   0  0  0  0  0  0  0  0  0  0  0  0
  -28.1315  -10.1720   23.1077 N   0  0  0  0  0  0  0  0  0  0  0  0
  -23.7237   -9.2584   23.4722 N   0  0  0  0  0  0  0  0  0  0  0  0
  -25.0314  -29.7101   23.2954 N   0  0  0  0  0  0  0  0  0  0  0  0
  -22.7002  -29.3219   17.1758 N   0  0  0  0  0  0  0  0  0  0  0  0
  -24.3577  -29.7455   13.9913 N   0  3  0  0  0  0  0  0  0  0  0  0
  -25.7777   -8.9393   24.4407 O   0  0  0  0  0  0  0  0  0  0  0  0
  -24.7986  -27.6699   22.1973 O   0  0  0  0  0  0  0  0  0  0  0  0
  -23.1044  -30.5316   19.7413 O   0  0  0  0  0  0  0  0  0  0  0  0
  -23.9419  -27.7832   15.9643 O   0  0  0  0  0  0  0  0  0  0  0  0
  -31.3985  -14.8171   20.0624 O   0  0  0  0  0  0  0  0  0  0  0  0
  -19.7081  -10.9719   20.0119 O   0  0  0  0  0  0  0  0  0  0  0  0
  -29.0457  -24.5096   19.0727 O   0  0  0  0  0  0  0  0  0  1  0  0
  -16.0655  -11.8889   24.0486 F   0  0  0  0  0  0  0  0  0  0  0  0
  -18.0031  -13.1460   19.9170 F   0  0  0  0  0  0  0  0  0  0  0  0
  1  2  1  0  0  0  0
  1  5  2  0  0  0  0
  2  6  2  0  0  0  0
  3  8  2  0  0  0  0
  3 16  1  0  0  0  0
  4  9  1  0  0  0  0
  4 16  2  0  0  0  0
  5 18  1  0  0  0  0
  6 20  1  0  0  0  0
  7 10  2  0  0  0  0
  7 19  1  0  0  0  0
  8 27  1  0  0  0  0
  9 27  2  0  0  0  0
 10 28  1  0  0  0  0
 11 12  2  0  0  0  0
 11 29  1  0  0  0  0
 12 30  1  0  0  0  0
 13 21  2  0  0  0  0
 13 25  1  0  0  0  0
 14 22  1  0  0  0  0
 14 28  2  0  0  0  0
 15 30  2  0  0  0  0
 15 31  1  0  0  0  0
 16 32  1  0  0  0  0
 17 32  1  0  0  0  0
 17 33  2  0  0  0  0
 17 34  1  0  0  0  0
 18 20  2  0  0  0  0
 18 39  1  0  0  0  0
 19 22  2  0  0  0  0
 19 40  1  0  0  0  0
 20 55  1  0  0  0  0
 21 23  1  0  0  0  0
 21 54  1  0  0  0  0
 22 43  1  0  0  0  0
 23 24  2  0  0  0  0
 23 41  1  0  0  0  0
 24 26  1  0  0  0  0
 24 42  1  0  0  0  0
 25 26  2  0  0  0  0
 25 64  1  0  0  0  0
 26 58  1  0  0  0  0
 27 83  1  0  0  0  0
 28 84  1  0  0  0  0
 29 31  2  0  0  0  0
 29 83  1  0  0  0  0
 30 85  1  0  0  0  0
 31 86  1  0  0  0  0
 32 68  2  0  0  0  0
 33 69  1  0  0  0  0
 33 73  1  0  0  0  0
 34 74  1  0  0  0  0
 34 78  2  0  0  0  0
 35 56  1  0  0  0  0
 35 75  1  0  0  0  0
 35 79  2  0  0  0  0
 36 65  1  0  0  0  0
 36 70  1  0  0  0  0
 36 80  2  0  0  0  0
 37 66  1  0  0  0  0
 37 76  1  0  0  0  0
 37 81  2  0  0  0  0
 38 71  1  0  0  0  0
 38 72  1  0  0  0  0
 38 82  2  0  0  0  0
 39 44  1  0  0  0  0
 40 56  1  0  0  0  0
 41 42  1  0  0  0  0
 43 70  1  0  0  0  0
 44 46  1  0  0  0  0
 45 47  1  0  0  0  0
 45 50  1  0  0  0  0
 46 55  1  0  0  0  0
 47 57  1  0  0  0  0
 48 51  1  0  0  0  0
 48 54  1  0  0  0  0
 49 52  1  0  0  0  0
 49 54  1  0  0  0  0
 50 71  1  0  0  0  0
 51 72  1  0  0  0  0
 52 72  1  0  0  0  0
 53 57  1  0  0  0  0
 53 71  1  0  0  0  0
 55 75  1  0  0  0  0
 56 70  1  0  0  0  0
 57 69  1  0  0  0  0
 59 66  1  0  0  0  0
 60 67  1  0  0  0  0
 61 67  1  0  0  0  0
 62 67  1  0  0  0  0
 63 77  1  0  0  0  0
 64 84  1  0  0  0  0
 65 67  1  0  0  0  0
 65 76  1  0  0  0  0
 66 77  1  0  0  0  0
 68 69  1  0  0  0  0
M  CHG  1  77   1
M  ISO  4  38 100  64 101  72 100  84 101
M  END
> <Batch ID>
0144

> <Smiles>
CNC(C)C(=O)NC(C(=O)N1Cc2cc([101O:1][101CH2:1]c3cc(C4CC[100N:0]([100C:0](=O)N5CCCC(n6nc(-c7ccc(Oc8ccc(F)cc8F)cc7)c(C(N)=O)c6N)C5)CC4)c4c(c3C)CC4)ccc2CC1C(=O)NC1CCCc2ccccc21)C(C)(C)C

> <Shape>
0.256

> <Color>
0.072

> <Negative vol penalty>
0.000

$$$$

  -OEChem-04052321263D

 88 97  0     1  0  0  0  0  0999 V2000
  -34.0368  -29.5677   22.0741 C   0  0  0  0  0  0  0  0  0  0  0  0
  -33.4718  -29.3385   23.3246 C   0  0  0  0  0  0  0  0  0  0  0  0
  -23.1087   -9.8627   19.9191 C   0  0  0  0  0  0  0  0  0  0  0  0
  -23.7857   -9.8808   22.2382 C   0  0  0  0  0  0  0  0  0  0  0  0
  -33.3098  -29.2823   20.9191 C   0  0  0  0  0  0  0  0  0  0  0  0
  -32.1790  -28.8248   23.4208 C   0  0  0  0  0  0  0  0  0  0  0  0
  -30.8974  -22.6290   26.8648 C   0  0  0  0  0  0  0  0  0  0  0  0
  -22.3424   -8.7206   20.1517 C   0  0  0  0  0  0  0  0  0  0  0  0
  -23.0193   -8.7388   22.4708 C   0  0  0  0  0  0  0  0  0  0  0  0
  -30.5420  -21.5596   27.6871 C   0  0  0  0  0  0  0  0  0  0  0  0
  -19.7622   -7.9844   22.9633 C   0  0  0  0  0  0  0  0  0  0  0  0
  -18.9632   -7.9637   24.1064 C   0  0  0  0  0  0  0  0  0  0  0  0
  -28.2295  -21.8036   27.0231 C   0  0  0  0  0  0  0  0  0  0  0  0
  -20.1538   -6.0182   24.9032 C   0  0  0  0  0  0  0  0  0  0  0  0
  -23.8304  -10.4428   20.9624 C   0  0  0  0  0  0  0  0  0  0  0  0
  -24.2068  -12.9626   20.8337 C   0  0  0  0  0  0  0  0  0  0  0  0
  -32.0111  -28.7558   21.0012 C   0  0  0  0  0  0  0  0  0  0  0  0
  -29.9213  -23.2807   26.1058 C   0  0  0  0  0  0  0  0  0  0  0  0
  -31.4335  -28.5334   22.2658 C   0  0  0  0  0  0  0  0  0  0  0  0
  -28.5815  -22.8675   26.1882 C   0  0  0  0  0  0  0  0  0  0  0  0
  -22.2977   -8.1587   21.4275 C   0  0  0  0  0  0  0  0  0  0  0  0
  -29.2113  -21.1481   27.7662 C   0  0  0  0  0  0  0  0  0  0  0  0
  -20.7570   -7.0220   22.7900 C   0  0  0  0  0  0  0  0  0  0  0  0
  -19.1591   -6.9806   25.0764 C   0  0  0  0  0  0  0  0  0  0  0  0
  -20.9528   -6.0390   23.7600 C   0  0  0  0  0  0  0  0  0  0  0  0
  -24.6226  -11.6222   20.7226 C   0  0  0  0  0  0  0  0  0  0  0  0
  -25.3203  -13.6959   20.5038 C   0  0  0  0  0  0  0  0  0  0  0  0
  -30.0948  -15.2994   25.7890 C   0  0  0  0  0  0  0  0  0  0  0  0
  -31.2544  -17.5025   25.6740 C   0  0  0  0  0  0  0  0  0  0  0  0
  -30.1890  -14.7366   24.6148 C   0  0  0  0  0  0  0  0  0  0  0  0
  -30.2063  -16.7229   25.9973 C   0  0  0  0  0  0  0  0  0  0  0  0
  -30.3724  -14.6139   23.2296 C   0  0  0  0  0  0  0  0  0  0  0  0
  -22.9284  -13.4970   21.2022 C   0  0  0  0  0  0  0  0  0  0  0  0
  -29.1319  -25.9823   23.6250 C   0  0  0  0  0  0  0  0  0  0  0  0
  -27.4549  -23.5359   22.8421 C   0  0  0  0  0  0  0  0  0  0  0  0
  -26.1024  -20.5010   22.0691 C   0  0  0  0  0  0  0  0  0  0  0  0
  -30.7562  -14.6613   20.8153 C   0  0  0  0  0  0  0  0  0  0  0  0
  -31.2465  -28.5075   19.7251 C   0  0  0  0  0  0  0  0  0  0  0  0
  -30.2488  -24.4767   25.2537 C   0  0  0  0  0  0  0  0  0  0  0  0
  -27.5600  -23.6203   25.3803 C   0  0  0  0  0  0  0  0  0  0  0  0
  -30.0232  -27.6138   19.9121 C   0  0  0  0  0  0  0  0  0  0  0  0
  -32.4754  -16.8611   22.5173 C   0  0  0  0  0  0  0  0  0  0  0  0
  -29.7172  -12.2909   18.4649 C   0  0  0  0  0  0  0  0  0  0  0  0
  -29.2147  -28.0624   21.1254 C   0  0  0  0  0  0  0  0  0  0  0  0
  -32.8509  -17.7432   23.7154 C   0  0  0  0  0  0  0  0  0  0  0  0
  -28.2700  -11.9948   18.8533 C   0  0  0  0  0  0  0  0  0  0  0  0
  -30.9754  -16.7164   22.2667 C   0  0  0  0  0  0  0  0  0  0  0  0
  -30.5881  -12.4663   19.7028 C   0  0  0  0  0  0  0  0  0  0  0  0
  -28.6522  -13.2649   21.0258 C   0  0  0  0  0  0  0  0  0  0  0  0
  -30.0431  -27.9539   22.4112 C   0  0  1  0  0  0  0  0  0  0  0  0
  -32.5878  -17.0871   25.0901 C   0  0  1  0  0  0  0  0  0  0  0  0
  -29.4099  -24.5476   23.9652 C   0  0  1  0  0  0  0  0  0  0  0  0
  -27.7275  -13.0728   19.8066 C   0  0  2  0  0  0  0  0  0  0  0  0
  -24.8508  -18.7805   20.7384 C   0  0  0  0  0  0  0  0  0  0  0  0
  -33.6816  -19.0113   26.2753 C   0  0  0  0  0  0  0  0  0  0  0  0
  -33.4861  -16.7825   27.4146 C   0  0  0  0  0  0  0  0  0  0  0  0
  -25.0221  -24.8034   24.1757 C   0  0  0  0  0  0  0  0  0  0  0  0
  -23.6150  -22.9961   23.1650 C   0  0  0  0  0  0  0  0  0  0  0  0
  -24.8529  -24.5822   21.6904 C   0  0  0  0  0  0  0  0  0  0  0  0
  -28.5278  -19.7403   20.5533 C   0  0  0  0  0  0  0  0  0  0  0  0
  -27.9411  -17.8714   28.6225 C   0  0  0  0  0  0  0  0  0  0  0  0
  -27.7539  -19.3107   28.1691 C   0  0  0  0  0  0  0  0  0  1  0  0
  -29.1827  -17.2398   28.0128 C   0  0  0  0  0  0  0  0  0  0  0  0
  -26.1364  -22.8147   22.9635 C   0  0  1  0  0  0  0  0  0  0  0  0
  -26.0389  -19.7294   20.7633 C   0  0  2  0  0  0  0  0  0  0  0  0
  -33.6830  -17.4991   26.0839 C   0  0  0  0  0  0  0  0  0  0  0  0
  -24.9287  -23.7926   23.0154 C   0  0  0  0  0  0  0  0  0  0  0  0
  -25.9004  -11.5078   20.3510 N   0  0  0  0  0  0  0  0  0  0  0  0
  -26.2972  -12.7856   20.2256 N   0  0  0  0  0  0  0  0  0  0  0  0
  -30.6285  -15.2763   22.1321 N   0  0  0  0  0  0  0  0  0  0  0  0
  -28.0892  -23.8997   24.0362 N   0  0  0  0  0  0  0  0  0  0  0  0
  -30.0409  -13.4818   20.6013 N   0  0  0  0  0  0  0  0  0  0  0  0
  -30.1046  -13.5696   23.9762 N   0  3  0  0  0  0  0  0  0  0  0  0
  -25.5493  -15.0241   20.4273 N   0  0  0  0  0  0  0  0  0  0  0  0
  -21.8941  -12.6028   21.5104 N   0  0  0  0  0  0  0  0  0  0  0  0
  -30.1117  -26.5776   22.8536 N   0  0  0  0  0  0  0  0  0  0  0  0
  -26.0880  -21.8636   21.8583 N   0  0  0  0  0  0  0  0  0  0  0  0
  -27.2825  -18.9305   20.5728 N   0  3  0  0  0  0  0  0  0  0  0  0
  -22.7052  -14.7308   21.2407 O   0  0  0  0  0  0  0  0  0  0  0  0
  -28.1036  -26.5111   24.0308 O   0  0  0  0  0  0  0  0  0  0  0  0
  -27.9098  -23.7764   21.7202 O   0  0  0  0  0  0  0  0  0  0  0  0
  -26.1554  -19.9501   23.1664 O   0  0  0  0  0  0  0  0  0  0  0  0
  -31.5022  -15.1862   19.9930 O   0  0  0  0  0  0  0  0  0  0  0  0
  -21.5499   -7.0444   21.6549 O   0  0  0  0  0  0  0  0  0  0  0  0
  -28.8695  -20.0929   28.5733 O   0  0  0  0  0  0  0  0  0  1  0  0
  -29.0828  -17.2481   26.6110 O   0  0  0  0  0  0  0  0  0  0  0  0
  -18.3928   -6.9618   26.1749 F   0  0  0  0  0  0  0  0  0  0  0  0
  -21.9076   -5.1125   23.5997 F   0  0  0  0  0  0  0  0  0  0  0  0
  1  2  1  0  0  0  0
  1  5  2  0  0  0  0
  2  6  2  0  0  0  0
  3  8  2  0  0  0  0
  3 15  1  0  0  0  0
  4  9  1  0  0  0  0
  4 15  2  0  0  0  0
  5 17  1  0  0  0  0
  6 19  1  0  0  0  0
  7 10  2  0  0  0  0
  7 18  1  0  0  0  0
  8 21  1  0  0  0  0
  9 21  2  0  0  0  0
 10 22  1  0  0  0  0
 11 12  2  0  0  0  0
 11 23  1  0  0  0  0
 12 24  1  0  0  0  0
 13 20  1  0  0  0  0
 13 22  2  0  0  0  0
 14 24  2  0  0  0  0
 14 25  1  0  0  0  0
 15 26  1  0  0  0  0
 16 26  1  0  0  0  0
 16 27  2  0  0  0  0
 16 33  1  0  0  0  0
 17 19  2  0  0  0  0
 17 38  1  0  0  0  0
 18 20  2  0  0  0  0
 18 39  1  0  0  0  0
 19 50  1  0  0  0  0
 20 40  1  0  0  0  0
 21 84  1  0  0  0  0
 22 85  1  0  0  0  0
 23 25  2  0  0  0  0
 23 84  1  0  0  0  0
 24 87  1  0  0  0  0
 25 88  1  0  0  0  0
 26 68  2  0  0  0  0
 27 69  1  0  0  0  0
 27 74  1  0  0  0  0
 28 30  2  0  0  0  0
 28 31  1  0  0  0  0
 29 31  2  0  0  0  0
 29 51  1  0  0  0  0
 30 32  1  0  0  0  0
 30 73  1  0  0  0  0
 31 86  1  0  0  0  0
 32 70  1  0  0  0  0
 32 73  2  0  0  0  0
 33 75  1  0  0  0  0
 33 79  2  0  0  0  0
 34 52  1  0  0  0  0
 34 76  1  0  0  0  0
 34 80  2  0  0  0  0
 35 64  1  0  0  0  0
 35 71  1  0  0  0  0
 35 81  2  0  0  0  0
 36 65  1  0  0  0  0
 36 77  1  0  0  0  0
 36 82  2  0  0  0  0
 37 70  1  0  0  0  0
 37 72  1  0  0  0  0
 37 83  2  0  0  0  0
 38 41  1  0  0  0  0
 39 52  1  0  0  0  0
 40 71  1  0  0  0  0
 41 44  1  0  0  0  0
 42 45  1  0  0  0  0
 42 47  1  0  0  0  0
 43 46  1  0  0  0  0
 43 48  1  0  0  0  0
 44 50  1  0  0  0  0
 45 51  1  0  0  0  0
 46 53  1  0  0  0  0
 47 70  1  0  0  0  0
 48 72  1  0  0  0  0
 49 53  1  0  0  0  0
 49 72  1  0  0  0  0
 50 76  1  0  0  0  0
 51 66  1  0  0  0  0
 52 71  1  0  0  0  0
 53 69  1  0  0  0  0
 54 65  1  0  0  0  0
 55 66  1  0  0  0  0
 56 66  1  0  0  0  0
 57 67  1  0  0  0  0
 58 67  1  0  0  0  0
 59 67  1  0  0  0  0
 60 78  1  0  0  0  0
 61 62  1  0  0  0  0
 61 63  1  0  0  0  0
 62 85  1  0  0  0  0
 63 86  1  0  0  0  0
 64 67  1  0  0  0  0
 64 77  1  0  0  0  0
 65 78  1  0  0  0  0
 68 69  1  0  0  0  0
M  CHG  2  73   1  78   1
M  ISO  4  37 100  62 101  70 100  85 101
M  END
> <Batch ID>
0144

> <Smiles>
CNC(C)C(=O)NC(C(=O)N1Cc2cc([101O:1][101CH2:1]CCOC3=CC4=NC4[100N:0]([100C:0](=O)N4CCCC(n5nc(-c6ccc(Oc7ccc(F)cc7F)cc6)c(C(N)=O)c5N)C4)CCCC(C(C)C)=C3)ccc2CC1C(=O)NC1CCCc2ccccc21)C(C)(C)C

> <Shape>
0.192

> <Color>
0.189

> <Negative vol penalty>
0.000

$$$$
