
  -OEChem-04052321283D

 88 97  0     1  0  0  0  0  0999 V2000
  -28.4426  -35.7822   24.5668 C   0  0  0  0  0  0  0  0  0  0  0  0
  -28.5544  -34.4153   24.3334 C   0  0  0  0  0  0  0  0  0  0  0  0
  -24.3753   -8.7004   21.3887 C   0  0  0  0  0  0  0  0  0  0  0  0
  -24.2883  -10.3796   23.1235 C   0  0  0  0  0  0  0  0  0  0  0  0
  -27.1839  -36.3602   24.7268 C   0  0  0  0  0  0  0  0  0  0  0  0
  -27.4076  -33.6254   24.2610 C   0  0  0  0  0  0  0  0  0  0  0  0
  -27.5259  -30.3806   20.3748 C   0  0  0  0  0  0  0  0  0  0  0  0
  -24.0360   -7.7198   22.3209 C   0  0  0  0  0  0  0  0  0  0  0  0
  -23.9489   -9.3991   24.0557 C   0  0  0  0  0  0  0  0  0  0  0  0
  -28.2994  -29.2309   20.5286 C   0  0  0  0  0  0  0  0  0  0  0  0
  -21.2406   -6.6178   23.8714 C   0  0  0  0  0  0  0  0  0  0  0  0
  -20.2663   -5.6879   23.5086 C   0  0  0  0  0  0  0  0  0  0  0  0
  -26.3094  -27.9680   21.0424 C   0  0  0  0  0  0  0  0  0  0  0  0
  -27.2682  -23.0048   19.2085 C   0  0  0  0  0  0  0  0  0  0  0  0
  -29.6071  -22.5966   19.6558 C   0  0  0  0  0  0  0  0  0  0  0  0
  -21.8618   -3.8988   23.8098 C   0  0  0  0  0  0  0  0  0  0  0  0
  -24.5015  -10.0303   21.7901 C   0  0  0  0  0  0  0  0  0  0  0  0
  -23.9721  -11.8107   20.0414 C   0  0  0  0  0  0  0  0  0  0  0  0
  -26.0206  -35.5786   24.6467 C   0  0  0  0  0  0  0  0  0  0  0  0
  -26.1373  -30.3349   20.5646 C   0  0  0  0  0  0  0  0  0  0  0  0
  -26.1323  -34.1932   24.4214 C   0  0  0  0  0  0  0  0  0  0  0  0
  -25.5202  -29.1180   20.8879 C   0  0  0  0  0  0  0  0  0  0  0  0
  -28.0346  -20.7626   19.6799 C   0  0  0  0  0  0  0  0  0  0  0  0
  -26.9995  -21.6461   19.3736 C   0  0  0  0  0  0  0  0  0  0  0  0
  -29.3384  -21.2379   19.8210 C   0  0  0  0  0  0  0  0  0  0  0  0
  -23.8228   -8.0691   23.6544 C   0  0  0  0  0  0  0  0  0  0  0  0
  -27.6916  -28.0250   20.8652 C   0  0  0  0  0  0  0  0  0  0  0  0
  -22.5255   -6.1882   24.2034 C   0  0  0  0  0  0  0  0  0  0  0  0
  -28.5721  -23.4801   19.3495 C   0  0  0  0  0  0  0  0  0  0  0  0
  -20.5769   -4.3284   23.4778 C   0  0  0  0  0  0  0  0  0  0  0  0
  -22.8361   -4.8287   24.1726 C   0  0  0  0  0  0  0  0  0  0  0  0
  -24.8525  -11.0436   20.8277 C   0  0  0  0  0  0  0  0  0  0  0  0
  -24.7939  -12.6222   19.2982 C   0  0  0  0  0  0  0  0  0  0  0  0
  -22.5395  -11.7913   19.9877 C   0  0  0  0  0  0  0  0  0  0  0  0
  -24.1013  -31.7198   22.5747 C   0  0  0  0  0  0  0  0  0  0  0  0
  -21.8789  -30.2739   20.7058 C   0  0  0  0  0  0  0  0  0  0  0  0
  -21.1175  -27.7588   18.5284 C   0  0  0  0  0  0  0  0  0  0  0  0
  -29.2149  -16.0017   18.9347 C   0  0  0  0  0  0  0  0  0  0  0  0
  -24.6844  -36.2402   24.8733 C   0  0  0  0  0  0  0  0  0  0  0  0
  -25.3138  -31.5782   20.3688 C   0  0  0  0  0  0  0  0  0  0  0  0
  -24.0305  -29.0114   21.0827 C   0  0  0  0  0  0  0  0  0  0  0  0
  -23.5002  -35.3960   24.4095 C   0  0  0  0  0  0  0  0  0  0  0  0
  -29.7851  -12.5307   18.6034 C   0  0  0  0  0  0  0  0  0  0  0  0
  -23.6488  -33.9568   24.8927 C   0  0  0  0  0  0  0  0  0  0  0  0
  -28.4999  -11.8875   19.1169 C   0  0  0  0  0  0  0  0  0  0  0  0
  -28.1267  -18.6650   21.2099 C   0  0  0  0  0  0  0  0  0  0  0  0
  -30.1382  -13.7638   19.4242 C   0  0  0  0  0  0  0  0  0  0  0  0
  -28.0928  -17.1706   20.9194 C   0  0  0  0  0  0  0  0  0  0  0  0
  -28.4884  -18.3684   18.8820 C   0  0  0  0  0  0  0  0  0  0  0  0
  -27.7470  -14.1813   19.9320 C   0  0  0  0  0  0  0  0  0  0  0  0
  -27.7429  -19.2890   19.8584 C   0  0  2  0  0  0  0  0  0  0  0  0
  -24.9104  -33.3072   24.3115 C   0  0  1  0  0  0  0  0  0  0  0  0
  -23.9708  -31.5252   21.0905 C   0  0  1  0  0  0  0  0  0  0  0  0
  -27.3556  -12.9125   19.1465 C   0  0  2  0  0  0  0  0  0  0  0  0
  -25.5944  -21.1637   19.2183 C   0  0  0  0  0  0  0  0  0  0  0  0
  -19.2098  -26.8131   17.2003 C   0  0  0  0  0  0  0  0  0  0  0  0
  -20.7174  -29.0518   23.2490 C   0  0  0  0  0  0  0  0  0  0  0  0
  -19.4721  -27.4217   21.8136 C   0  0  0  0  0  0  0  0  0  0  0  0
  -19.0128  -29.8651   21.6097 C   0  0  0  0  0  0  0  0  0  0  0  0
  -22.5204  -28.2231   15.9642 C   0  0  0  0  0  0  0  0  0  0  0  0
  -32.1439  -19.8611   21.7273 C   0  0  0  0  0  0  0  0  0  0  0  0
  -30.4643  -20.3119   20.1466 C   0  0  0  0  0  0  0  0  0  0  0  0
  -29.6348  -26.8069   20.2361 C   0  0  0  0  0  0  0  0  0  1  0  0
  -29.9220  -25.3492   19.9323 C   0  0  0  0  0  0  0  0  0  0  0  0
  -21.1851  -28.9332   20.7126 C   0  0  1  0  0  0  0  0  0  0  0  0
  -20.3947  -27.7665   17.1935 C   0  0  2  0  0  0  0  0  0  0  0  0
  -20.1252  -28.8200   21.8445 C   0  0  0  0  0  0  0  0  0  0  0  0
  -26.1354  -11.3412   20.6047 N   0  0  0  0  0  0  0  0  0  0  0  0
  -26.0671  -12.3041   19.6698 N   0  0  0  0  0  0  0  0  0  0  0  0
  -23.2692  -30.2562   20.8864 N   0  0  0  0  0  0  0  0  0  0  0  0
  -29.0320  -14.7218   19.4699 N   0  0  0  0  0  0  0  0  0  0  0  0
  -28.5308  -17.0611   19.5295 N   0  0  0  0  0  0  0  0  0  0  0  0
  -24.5445  -13.5697   18.3695 N   0  0  0  0  0  0  0  0  0  0  0  0
  -21.8517  -10.8963   20.8185 N   0  0  0  0  0  0  0  0  0  0  0  0
  -24.6898  -32.9169   22.9355 N   0  0  0  0  0  0  0  0  0  0  0  0
  -20.6474  -28.7451   19.3695 N   0  0  0  0  0  0  0  0  0  0  0  0
  -21.3211  -27.3570   16.1004 N   0  3  0  0  0  0  0  0  0  0  0  0
  -21.8891  -12.5338   19.2136 O   0  0  0  0  0  0  0  0  0  0  0  0
  -23.6966  -30.8492   23.3362 O   0  0  0  0  0  0  0  0  0  0  0  0
  -21.2128  -31.2987   20.5392 O   0  0  0  0  0  0  0  0  0  0  0  0
  -22.0075  -26.9557   18.7993 O   0  0  0  0  0  0  0  0  0  0  0  0
  -29.9903  -16.1983   17.9892 O   0  0  0  0  0  0  0  0  0  0  0  0
  -23.4914   -7.1126   24.5642 O   0  0  0  0  0  0  0  0  0  0  0  0
  -28.4494  -26.8938   21.0176 O   0  0  0  0  0  0  0  0  0  1  0  0
  -28.8341  -24.8056   19.1861 O   0  0  0  0  0  0  0  0  0  0  0  0
  -31.0635  -20.7130   21.3718 O   0  0  0  0  0  0  0  0  0  0  0  0
  -19.6407   -3.4354   23.1308 F   0  0  0  0  0  0  0  0  0  0  0  0
  -24.0684   -4.4099   24.4916 F   0  0  0  0  0  0  0  0  0  0  0  0
  1  2  1  0  0  0  0
  1  5  2  0  0  0  0
  2  6  2  0  0  0  0
  3  8  2  0  0  0  0
  3 17  1  0  0  0  0
  4  9  1  0  0  0  0
  4 17  2  0  0  0  0
  5 19  1  0  0  0  0
  6 21  1  0  0  0  0
  7 10  2  0  0  0  0
  7 20  1  0  0  0  0
  8 26  1  0  0  0  0
  9 26  2  0  0  0  0
 10 27  1  0  0  0  0
 11 12  2  0  0  0  0
 11 28  1  0  0  0  0
 12 30  1  0  0  0  0
 13 22  1  0  0  0  0
 13 27  2  0  0  0  0
 14 24  2  0  0  0  0
 14 29  1  0  0  0  0
 15 25  1  0  0  0  0
 15 29  2  0  0  0  0
 16 30  2  0  0  0  0
 16 31  1  0  0  0  0
 17 32  1  0  0  0  0
 18 32  1  0  0  0  0
 18 33  2  0  0  0  0
 18 34  1  0  0  0  0
 19 21  2  0  0  0  0
 19 39  1  0  0  0  0
 20 22  2  0  0  0  0
 20 40  1  0  0  0  0
 21 52  1  0  0  0  0
 22 41  1  0  0  0  0
 23 24  1  0  0  0  0
 23 25  2  0  0  0  0
 23 51  1  0  0  0  0
 24 55  1  0  0  0  0
 25 62  1  0  0  0  0
 26 83  1  0  0  0  0
 27 84  1  0  0  0  0
 28 31  2  0  0  0  0
 28 83  1  0  0  0  0
 29 85  1  0  0  0  0
 30 87  1  0  0  0  0
 31 88  1  0  0  0  0
 32 68  2  0  0  0  0
 33 69  1  0  0  0  0
 33 73  1  0  0  0  0
 34 74  1  0  0  0  0
 34 78  2  0  0  0  0
 35 53  1  0  0  0  0
 35 75  1  0  0  0  0
 35 79  2  0  0  0  0
 36 65  1  0  0  0  0
 36 70  1  0  0  0  0
 36 80  2  0  0  0  0
 37 66  1  0  0  0  0
 37 76  1  0  0  0  0
 37 81  2  0  0  0  0
 38 71  1  0  0  0  0
 38 72  1  0  0  0  0
 38 82  2  0  0  0  0
 39 42  1  0  0  0  0
 40 53  1  0  0  0  0
 41 70  1  0  0  0  0
 42 44  1  0  0  0  0
 43 45  1  0  0  0  0
 43 47  1  0  0  0  0
 44 52  1  0  0  0  0
 45 54  1  0  0  0  0
 46 48  1  0  0  0  0
 46 51  1  0  0  0  0
 47 71  1  0  0  0  0
 48 72  1  0  0  0  0
 49 51  1  0  0  0  0
 49 72  1  0  0  0  0
 50 54  1  0  0  0  0
 50 71  1  0  0  0  0
 52 75  1  0  0  0  0
 53 70  1  0  0  0  0
 54 69  1  0  0  0  0
 56 66  1  0  0  0  0
 57 67  1  0  0  0  0
 58 67  1  0  0  0  0
 59 67  1  0  0  0  0
 60 77  1  0  0  0  0
 61 86  1  0  0  0  0
 62 86  1  0  0  0  0
 63 64  1  0  0  0  0
 63 84  1  0  0  0  0
 64 85  1  0  0  0  0
 65 67  1  0  0  0  0
 65 76  1  0  0  0  0
 66 77  1  0  0  0  0
 68 69  1  0  0  0  0
M  CHG  1  77   1
M  ISO  4  38 100  63 101  72 100  84 101
M  END
> <Batch ID>
0145

> <Smiles>
CNC(C)C(=O)NC(C(=O)N1Cc2cc([101O:1][101CH2:1]COc3cc(C)c(C4CC[100N:0]([100C:0](=O)N5CCCC(n6nc(-c7ccc(Oc8ccc(F)cc8F)cc7)c(C(N)=O)c6N)C5)C4)c(COC)c3)ccc2CC1C(=O)NC1CCCc2ccccc21)C(C)(C)C

> <Shape>
0.351

> <Color>
0.088

> <Negative vol penalty>
0.000

$$$$

  -OEChem-04052321283D

 89 98  0     1  0  0  0  0  0999 V2000
  -25.8143  -35.6236   21.7916 C   0  0  0  0  0  0  0  0  0  0  0  0
  -26.4011  -34.3632   21.7420 C   0  0  0  0  0  0  0  0  0  0  0  0
  -32.8799  -25.8358   19.8579 C   0  0  0  0  0  0  0  0  0  0  0  0
  -32.8048  -24.4987   19.4667 C   0  0  0  0  0  0  0  0  0  0  0  0
  -26.3707  -13.1231   21.9224 C   0  0  0  0  0  0  0  0  0  0  0  0
  -25.4919  -12.9354   19.6797 C   0  0  0  0  0  0  0  0  0  0  0  0
  -24.5645  -35.7865   22.3878 C   0  0  0  0  0  0  0  0  0  0  0  0
  -25.7389  -33.2651   22.2897 C   0  0  0  0  0  0  0  0  0  0  0  0
  -25.8861  -29.2031   19.2691 C   0  0  0  0  0  0  0  0  0  0  0  0
  -31.7610  -26.6566   19.7521 C   0  0  0  0  0  0  0  0  0  0  0  0
  -26.0357  -11.7911   22.1652 C   0  0  0  0  0  0  0  0  0  0  0  0
  -25.1570  -11.6033   19.9225 C   0  0  0  0  0  0  0  0  0  0  0  0
  -27.0709  -28.4686   19.2471 C   0  0  0  0  0  0  0  0  0  0  0  0
  -23.7430   -8.2583   20.0695 C   0  0  0  0  0  0  0  0  0  0  0  0
  -22.4845   -7.8208   19.6571 C   0  0  0  0  0  0  0  0  0  0  0  0
  -29.2711  -24.2667   18.3538 C   0  0  0  0  0  0  0  0  0  0  0  0
  -26.0919  -26.8559   20.7504 C   0  0  0  0  0  0  0  0  0  0  0  0
  -21.4435   -9.4615   21.0929 C   0  0  0  0  0  0  0  0  0  0  0  0
  -31.6069  -23.9653   18.9640 C   0  0  0  0  0  0  0  0  0  0  0  0
  -30.4690  -24.8000   18.8565 C   0  0  0  0  0  0  0  0  0  0  0  0
  -26.0988  -13.6954   20.6797 C   0  0  0  0  0  0  0  0  0  0  0  0
  -27.6579  -15.5627   19.9115 C   0  0  0  0  0  0  0  0  0  0  0  0
  -23.8824  -34.6881   22.9344 C   0  0  0  0  0  0  0  0  0  0  0  0
  -24.7972  -28.7746   20.0418 C   0  0  0  0  0  0  0  0  0  0  0  0
  -24.4795  -33.4136   22.8950 C   0  0  0  0  0  0  0  0  0  0  0  0
  -24.8935  -27.5854   20.7785 C   0  0  0  0  0  0  0  0  0  0  0  0
  -30.5627  -26.1435   19.2549 C   0  0  0  0  0  0  0  0  0  0  0  0
  -31.5133  -22.6219   18.5656 C   0  0  0  0  0  0  0  0  0  0  0  0
  -29.1960  -22.9295   17.9627 C   0  0  0  0  0  0  0  0  0  0  0  0
  -25.4289  -11.0311   21.1652 C   0  0  0  0  0  0  0  0  0  0  0  0
  -27.1749  -27.2963   19.9901 C   0  0  0  0  0  0  0  0  0  0  0  0
  -23.8519   -9.2974   20.9938 C   0  0  0  0  0  0  0  0  0  0  0  0
  -30.3150  -22.1087   18.0684 C   0  0  0  0  0  0  0  0  0  0  0  0
  -21.3347   -8.4223   20.1687 C   0  0  0  0  0  0  0  0  0  0  0  0
  -22.7021   -9.8990   21.5054 C   0  0  0  0  0  0  0  0  0  0  0  0
  -26.4441  -15.0715   20.4285 C   0  0  0  0  0  0  0  0  0  0  0  0
  -27.4850  -16.9244   19.8644 C   0  0  0  0  0  0  0  0  0  0  0  0
  -28.8363  -14.8515   19.5098 C   0  0  0  0  0  0  0  0  0  0  0  0
  -23.1770  -29.9787   22.4972 C   0  0  0  0  0  0  0  0  0  0  0  0
  -21.2764  -27.3962   22.0070 C   0  0  0  0  0  0  0  0  0  0  0  0
  -20.9515  -24.2300   20.7754 C   0  0  0  0  0  0  0  0  0  0  0  0
  -24.3723  -21.3961   18.6560 C   0  0  0  0  0  0  0  0  0  0  0  0
  -22.5546  -34.9215   23.6106 C   0  0  0  0  0  0  0  0  0  0  0  0
  -23.5169  -29.5641   20.0338 C   0  0  0  0  0  0  0  0  0  0  0  0
  -23.7464  -27.0715   21.6083 C   0  0  0  0  0  0  0  0  0  0  0  0
  -21.7517  -33.6425   23.8341 C   0  0  0  0  0  0  0  0  0  0  0  0
  -23.8540  -19.8518   21.8220 C   0  0  0  0  0  0  0  0  0  0  0  0
  -22.6410  -32.5491   24.4176 C   0  0  0  0  0  0  0  0  0  0  0  0
  -24.5761  -18.5092   21.6966 C   0  0  0  0  0  0  0  0  0  0  0  0
  -23.1868  -20.2585   20.5099 C   0  0  0  0  0  0  0  0  0  0  0  0
  -24.8035  -18.9260   19.2120 C   0  0  0  0  0  0  0  0  0  0  0  0
  -23.7814  -32.1937   23.4560 C   0  0  1  0  0  0  0  0  0  0  0  0
  -22.6486  -29.3069   21.2615 C   0  0  1  0  0  0  0  0  0  0  0  0
  -25.5392  -18.5005   20.4943 C   0  0  2  0  0  0  0  0  0  0  0  0
  -33.6957  -21.9367   17.5390 C   0  0  0  0  0  0  0  0  0  0  0  0
  -19.2896  -22.3627   20.5558 C   0  0  0  0  0  0  0  0  0  0  0  0
  -21.6628  -26.7088   24.9546 C   0  0  0  0  0  0  0  0  0  0  0  0
  -20.8096  -24.4080   24.4581 C   0  0  0  0  0  0  0  0  0  0  0  0
  -19.3327  -26.3871   24.1051 C   0  0  0  0  0  0  0  0  0  0  0  0
  -21.0784  -24.3094   17.8197 C   0  0  0  0  0  0  0  0  0  0  0  0
  -30.5525  -20.5067   16.3269 C   0  0  0  0  0  0  0  0  0  0  0  0
  -32.6923  -21.6995   18.6602 C   0  0  0  0  0  0  0  0  0  0  0  0
  -29.3962  -27.0832   19.1678 C   0  0  0  0  0  0  0  0  0  1  0  0
  -26.7998  -23.2237   17.3327 C   0  0  0  0  0  0  0  0  0  0  0  0
  -25.6477  -22.3995   16.7784 C   0  0  0  0  0  0  0  0  0  0  0  0
  -21.2532  -25.9742   22.5135 C   0  0  1  0  0  0  0  0  0  0  0  0
  -19.8889  -23.5951   19.8966 C   0  0  2  0  0  0  0  0  0  0  0  0
  -20.7870  -25.8800   23.9938 C   0  0  0  0  0  0  0  0  0  0  0  0
  -25.5651  -16.0423   20.6911 N   0  0  0  0  0  0  0  0  0  0  0  0
  -26.2273  -17.1571   20.3379 N   0  0  0  0  0  0  0  0  0  0  0  0
  -22.5179  -27.8820   21.5729 N   0  0  0  0  0  0  0  0  0  0  0  0
  -24.1544  -20.2314   19.4103 N   0  0  0  0  0  0  0  0  0  0  0  0
  -28.2877  -17.9335   19.4646 N   0  0  0  0  0  0  0  0  0  0  0  0
  -28.8452  -13.4547   19.6240 N   0  0  0  0  0  0  0  0  0  0  0  0
  -27.9765  -22.4232   17.4611 N   0  0  0  0  0  0  0  0  0  0  0  0
  -23.2951  -31.3509   22.3848 N   0  0  0  0  0  0  0  0  0  0  0  0
  -20.4259  -25.2209   21.5774 N   0  0  0  0  0  0  0  0  0  0  0  0
  -25.3102  -21.2859   17.6368 N   0  0  0  0  0  0  0  0  0  0  0  0
  -20.4739  -23.1902   18.5871 N   0  3  0  0  0  0  0  0  0  0  0  0
  -29.8573  -15.4387   19.0781 O   0  0  0  0  0  0  0  0  0  0  0  0
  -23.4555  -29.3024   23.4805 O   0  0  0  0  0  0  0  0  0  0  0  0
  -20.2301  -28.0493   21.9902 O   0  0  0  0  0  0  0  0  0  0  0  0
  -22.1293  -23.8793   20.7553 O   0  0  0  0  0  0  0  0  0  0  0  0
  -23.7791  -22.4571   18.8781 O   0  0  0  0  0  0  0  0  0  0  0  0
  -25.1021   -9.7312   21.4017 O   0  0  0  0  0  0  0  0  0  0  0  0
  -30.2388  -20.8007   17.6854 O   0  0  0  0  0  0  0  0  0  0  0  0
  -28.3304  -26.5778   19.9709 O   0  0  0  0  0  0  0  0  0  1  0  0
  -20.1262   -8.0031   19.7713 F   0  0  0  0  0  0  0  0  0  0  0  0
  -22.8003  -10.8985   22.3927 F   0  0  0  0  0  0  0  0  0  0  0  0
  1  2  1  0  0  0  0
  1  7  2  0  0  0  0
  2  8  2  0  0  0  0
  3  4  2  0  0  0  0
  3 10  1  0  0  0  0
  4 19  1  0  0  0  0
  5 11  2  0  0  0  0
  5 21  1  0  0  0  0
  6 12  1  0  0  0  0
  6 21  2  0  0  0  0
  7 23  1  0  0  0  0
  8 25  1  0  0  0  0
  9 13  2  0  0  0  0
  9 24  1  0  0  0  0
 10 27  2  0  0  0  0
 11 30  1  0  0  0  0
 12 30  2  0  0  0  0
 13 31  1  0  0  0  0
 14 15  2  0  0  0  0
 14 32  1  0  0  0  0
 15 34  1  0  0  0  0
 16 20  2  0  0  0  0
 16 29  1  0  0  0  0
 17 26  1  0  0  0  0
 17 31  2  0  0  0  0
 18 34  2  0  0  0  0
 18 35  1  0  0  0  0
 19 20  1  0  0  0  0
 19 28  2  0  0  0  0
 20 27  1  0  0  0  0
 21 36  1  0  0  0  0
 22 36  1  0  0  0  0
 22 37  2  0  0  0  0
 22 38  1  0  0  0  0
 23 25  2  0  0  0  0
 23 43  1  0  0  0  0
 24 26  2  0  0  0  0
 24 44  1  0  0  0  0
 25 52  1  0  0  0  0
 26 45  1  0  0  0  0
 27 63  1  0  0  0  0
 28 33  1  0  0  0  0
 28 62  1  0  0  0  0
 29 33  2  0  0  0  0
 29 75  1  0  0  0  0
 30 85  1  0  0  0  0
 31 87  1  0  0  0  0
 32 35  2  0  0  0  0
 32 85  1  0  0  0  0
 33 86  1  0  0  0  0
 34 88  1  0  0  0  0
 35 89  1  0  0  0  0
 36 69  2  0  0  0  0
 37 70  1  0  0  0  0
 37 73  1  0  0  0  0
 38 74  1  0  0  0  0
 38 80  2  0  0  0  0
 39 53  1  0  0  0  0
 39 76  1  0  0  0  0
 39 81  2  0  0  0  0
 40 66  1  0  0  0  0
 40 71  1  0  0  0  0
 40 82  2  0  0  0  0
 41 67  1  0  0  0  0
 41 77  1  0  0  0  0
 41 83  2  0  0  0  0
 42 72  1  0  0  0  0
 42 78  1  0  0  0  0
 42 84  2  0  0  0  0
 43 46  1  0  0  0  0
 44 53  1  0  0  0  0
 45 71  1  0  0  0  0
 46 48  1  0  0  0  0
 47 49  1  0  0  0  0
 47 50  1  0  0  0  0
 48 52  1  0  0  0  0
 49 54  1  0  0  0  0
 50 72  1  0  0  0  0
 51 54  1  0  0  0  0
 51 72  1  0  0  0  0
 52 76  1  0  0  0  0
 53 71  1  0  0  0  0
 54 70  1  0  0  0  0
 55 62  1  0  0  0  0
 56 67  1  0  0  0  0
 57 68  1  0  0  0  0
 58 68  1  0  0  0  0
 59 68  1  0  0  0  0
 60 79  1  0  0  0  0
 61 86  1  0  0  0  0
 63 87  1  0  0  0  0
 64 65  1  0  0  0  0
 64 75  1  0  0  0  0
 65 78  1  0  0  0  0
 66 68  1  0  0  0  0
 66 77  1  0  0  0  0
 67 79  1  0  0  0  0
 69 70  1  0  0  0  0
M  CHG  1  79   1
M  ISO  4  42 100  63 101  78 100  87 101
M  END
> <Batch ID>
0145

> <Smiles>
CCc1c(OC)c(NCC[100NH:0][100C:0](=O)N2CCCC(n3nc(-c4ccc(Oc5ccc(F)cc5F)cc4)c(C(N)=O)c3N)C2)cc2c([101CH2:1][101O:1]c3ccc4c(c3)CN(C(=O)C(NC(=O)C(C)NC)C(C)(C)C)C(C(=O)NC3CCCc5ccccc53)C4)cccc12

> <Shape>
0.251

> <Color>
0.079

> <Negative vol penalty>
0.000

$$$$

  -OEChem-04052321283D

 86 96  0     1  0  0  0  0  0999 V2000
  -16.4700  -29.1401   23.5097 C   0  0  0  0  0  0  0  0  0  0  0  0
  -17.3824  -28.4105   22.7543 C   0  0  0  0  0  0  0  0  0  0  0  0
  -22.6510  -10.1532   20.7387 C   0  0  0  0  0  0  0  0  0  0  0  0
  -24.5221   -8.7906   21.4312 C   0  0  0  0  0  0  0  0  0  0  0  0
  -16.9065  -30.2205   24.2752 C   0  0  0  0  0  0  0  0  0  0  0  0
  -18.7318  -28.7616   22.7631 C   0  0  0  0  0  0  0  0  0  0  0  0
  -21.7810  -24.7460   23.2348 C   0  0  0  0  0  0  0  0  0  0  0  0
  -21.8237   -9.4702   21.6301 C   0  0  0  0  0  0  0  0  0  0  0  0
  -23.6948   -8.1077   22.3227 C   0  0  0  0  0  0  0  0  0  0  0  0
  -21.9970  -23.9731   22.0947 C   0  0  0  0  0  0  0  0  0  0  0  0
  -21.3776   -5.6494   22.1870 C   0  0  0  0  0  0  0  0  0  0  0  0
  -21.4762   -4.2587   22.2270 C   0  0  0  0  0  0  0  0  0  0  0  0
  -24.1149  -25.0768   21.7551 C   0  0  0  0  0  0  0  0  0  0  0  0
  -22.0949   -4.3696   24.5598 C   0  0  0  0  0  0  0  0  0  0  0  0
  -24.0002   -9.8134   20.6392 C   0  0  0  0  0  0  0  0  0  0  0  0
  -24.7113  -10.6039   18.3203 C   0  0  0  0  0  0  0  0  0  0  0  0
  -18.2635  -30.5791   24.3010 C   0  0  0  0  0  0  0  0  0  0  0  0
  -22.7270  -25.6993   23.6381 C   0  0  0  0  0  0  0  0  0  0  0  0
  -19.1868  -29.8486   23.5287 C   0  0  0  0  0  0  0  0  0  0  0  0
  -23.9097  -25.8587   22.9021 C   0  0  0  0  0  0  0  0  0  0  0  0
  -22.3456   -8.4475   22.4222 C   0  0  0  0  0  0  0  0  0  0  0  0
  -23.1627  -24.1405   21.3530 C   0  0  0  0  0  0  0  0  0  0  0  0
  -21.6377   -6.4003   23.3334 C   0  0  0  0  0  0  0  0  0  0  0  0
  -21.8348   -3.6187   23.4134 C   0  0  0  0  0  0  0  0  0  0  0  0
  -21.9963   -5.7604   24.5198 C   0  0  0  0  0  0  0  0  0  0  0  0
  -24.8552  -10.5181   19.7181 C   0  0  0  0  0  0  0  0  0  0  0  0
  -25.7691  -11.3796   17.9132 C   0  0  0  0  0  0  0  0  0  0  0  0
  -23.7108  -10.0335   17.4663 C   0  0  0  0  0  0  0  0  0  0  0  0
  -22.7146  -28.8570   24.0021 C   0  0  0  0  0  0  0  0  0  0  0  0
  -25.6771  -28.3378   25.2171 C   0  0  0  0  0  0  0  0  0  0  0  0
  -28.4340  -26.3323   25.3729 C   0  0  0  0  0  0  0  0  0  0  0  0
  -29.0844  -15.5290   20.6777 C   0  0  0  0  0  0  0  0  0  0  0  0
  -18.6808  -31.7839   25.1066 C   0  0  0  0  0  0  0  0  0  0  0  0
  -22.4913  -26.5063   24.8854 C   0  0  0  0  0  0  0  0  0  0  0  0
  -24.9659  -26.8543   23.3043 C   0  0  0  0  0  0  0  0  0  0  0  0
  -20.1851  -31.8591   25.3552 C   0  0  0  0  0  0  0  0  0  0  0  0
  -30.2480  -12.5408   19.1307 C   0  0  0  0  0  0  0  0  0  0  0  0
  -20.9534  -31.5914   24.0649 C   0  0  0  0  0  0  0  0  0  0  0  0
  -30.0862  -23.6738   19.7276 C   0  0  0  0  0  0  0  0  0  0  0  0
  -29.7133  -23.7247   21.1831 C   0  0  0  0  0  0  0  0  0  0  0  0
  -27.1992  -19.7352   19.5629 C   0  0  0  0  0  0  0  0  0  0  0  0
  -26.5228  -19.5445   21.9904 C   0  0  0  0  0  0  0  0  0  0  0  0
  -28.9849  -11.6913   18.9797 C   0  0  0  0  0  0  0  0  0  0  0  0
  -27.8060  -18.3275   19.5403 C   0  0  0  0  0  0  0  0  0  0  0  0
  -26.5648  -18.0354   21.7237 C   0  0  0  0  0  0  0  0  0  0  0  0
  -24.9604  -21.8317   19.0672 C   0  0  0  0  0  0  0  0  0  0  0  0
  -30.2332  -13.3487   20.4264 C   0  0  0  0  0  0  0  0  0  0  0  0
  -27.7692  -13.3326   20.4720 C   0  0  0  0  0  0  0  0  0  0  0  0
  -20.6626  -30.1833   23.5317 C   0  0  1  0  0  0  0  0  0  0  0  0
  -23.2860  -27.8083   24.9137 C   0  0  1  0  0  0  0  0  0  0  0  0
  -29.1739  -22.6283   20.3069 C   0  0  0  0  0  0  0  0  0  0  0  0
  -27.2865  -20.3793   20.9480 C   0  0  0  0  0  0  0  0  0  0  0  0
  -25.3388  -21.8446   20.5225 C   0  0  2  0  0  0  0  0  0  0  0  0
  -27.7126  -12.5425   19.1533 C   0  0  2  0  0  0  0  0  0  0  0  0
  -27.7916  -17.6348   20.9093 C   0  0  0  0  0  0  0  0  0  0  0  0
  -24.7550  -23.0775   19.8857 C   0  0  2  0  0  0  0  0  0  1  0  0
  -30.7101  -26.1904   26.4201 C   0  0  0  0  0  0  0  0  0  0  0  0
  -26.9577  -22.3859   22.3588 C   0  0  0  0  0  0  0  0  0  0  0  0
  -26.7188  -30.4028   23.2271 C   0  0  0  0  0  0  0  0  0  0  0  0
  -29.0306  -29.5379   23.6461 C   0  0  0  0  0  0  0  0  0  0  0  0
  -27.7245  -30.5558   25.5117 C   0  0  0  0  0  0  0  0  0  0  0  0
  -27.7488  -23.8320   26.8004 C   0  0  0  0  0  0  0  0  0  0  0  0
  -27.6974  -22.6037   19.9305 C   0  0  0  0  0  0  0  0  0  0  0  0
  -27.0718  -28.2730   24.6430 C   0  0  1  0  0  0  0  0  0  0  0  0
  -29.2412  -25.8194   26.5518 C   0  0  2  0  0  0  0  0  0  0  0  0
  -26.7728  -21.8174   20.9241 C   0  0  1  0  0  0  0  0  0  0  0  0
  -27.6158  -29.6749   24.2480 C   0  0  0  0  0  0  0  0  0  0  0  0
  -25.9206  -11.1859   20.1687 N   0  0  0  0  0  0  0  0  0  0  0  0
  -26.4558  -11.6986   19.0476 N   0  0  0  0  0  0  0  0  0  0  0  0
  -24.6865  -27.6241   24.5277 N   0  0  0  0  0  0  0  0  0  0  0  0
  -29.0013  -14.1348   20.5290 N   0  0  0  0  0  0  0  0  0  0  0  0
  -26.1696  -11.8131   16.6991 N   0  0  0  0  0  0  0  0  0  0  0  0
  -23.9351   -8.7560   16.9352 N   0  0  0  0  0  0  0  0  0  0  0  0
  -21.4047  -29.1946   24.2842 N   0  0  0  0  0  0  0  0  0  0  0  0
  -27.8869  -27.5718   25.6291 N   0  0  0  0  0  0  0  0  0  0  0  0
  -27.8697  -16.1986   20.7609 N   0  0  0  0  0  0  0  0  0  0  0  0
  -29.1377  -24.3356   26.6441 N   0  3  0  0  0  0  0  0  0  0  0  0
  -22.6568  -10.6454   17.1694 O   0  0  0  0  0  0  0  0  0  0  0  0
  -23.4110  -29.3264   23.1096 O   0  0  0  0  0  0  0  0  0  0  0  0
  -25.4754  -28.9916   26.2435 O   0  0  0  0  0  0  0  0  0  0  0  0
  -28.3050  -25.6986   24.3278 O   0  0  0  0  0  0  0  0  0  0  0  0
  -30.1613  -16.1330   20.7269 O   0  0  0  0  0  0  0  0  0  0  0  0
  -21.5387   -7.7810   23.2923 O   0  0  0  0  0  0  0  0  0  0  0  0
  -23.3758  -23.3879   20.2395 O   0  0  0  0  0  0  0  0  0  1  0  0
  -21.9279   -2.2830   23.4520 F   0  0  0  0  0  0  0  0  0  0  0  0
  -22.2463   -6.4763   25.6247 F   0  0  0  0  0  0  0  0  0  0  0  0
  1  2  1  0  0  0  0
  1  5  2  0  0  0  0
  2  6  2  0  0  0  0
  3  8  2  0  0  0  0
  3 15  1  0  0  0  0
  4  9  1  0  0  0  0
  4 15  2  0  0  0  0
  5 17  1  0  0  0  0
  6 19  1  0  0  0  0
  7 10  2  0  0  0  0
  7 18  1  0  0  0  0
  8 21  1  0  0  0  0
  9 21  2  0  0  0  0
 10 22  1  0  0  0  0
 11 12  2  0  0  0  0
 11 23  1  0  0  0  0
 12 24  1  0  0  0  0
 13 20  1  0  0  0  0
 13 22  2  0  0  0  0
 14 24  2  0  0  0  0
 14 25  1  0  0  0  0
 15 26  1  0  0  0  0
 16 26  1  0  0  0  0
 16 27  2  0  0  0  0
 16 28  1  0  0  0  0
 17 19  2  0  0  0  0
 17 33  1  0  0  0  0
 18 20  2  0  0  0  0
 18 34  1  0  0  0  0
 19 49  1  0  0  0  0
 20 35  1  0  0  0  0
 21 83  1  0  0  0  0
 22 84  1  0  0  0  0
 23 25  2  0  0  0  0
 23 83  1  0  0  0  0
 24 85  1  0  0  0  0
 25 86  1  0  0  0  0
 26 68  2  0  0  0  0
 27 69  1  0  0  0  0
 27 72  1  0  0  0  0
 28 73  1  0  0  0  0
 28 78  2  0  0  0  0
 29 50  1  0  0  0  0
 29 74  1  0  0  0  0
 29 79  2  0  0  0  0
 30 64  1  0  0  0  0
 30 70  1  0  0  0  0
 30 80  2  0  0  0  0
 31 65  1  0  0  0  0
 31 75  1  0  0  0  0
 31 81  2  0  0  0  0
 32 71  1  0  0  0  0
 32 76  1  0  0  0  0
 32 82  2  0  0  0  0
 33 36  1  0  0  0  0
 34 50  1  0  0  0  0
 35 70  1  0  0  0  0
 36 38  1  0  0  0  0
 37 43  1  0  0  0  0
 37 47  1  0  0  0  0
 38 49  1  0  0  0  0
 39 40  1  0  0  0  0
 39 51  1  0  0  0  0
 40 51  1  0  0  0  0
 41 44  1  0  0  0  0
 41 52  1  0  0  0  0
 42 45  1  0  0  0  0
 42 52  1  0  0  0  0
 43 54  1  0  0  0  0
 44 55  1  0  0  0  0
 45 55  1  0  0  0  0
 46 53  1  0  0  0  0
 46 56  1  0  0  0  0
 47 71  1  0  0  0  0
 48 54  1  0  0  0  0
 48 71  1  0  0  0  0
 49 74  1  0  0  0  0
 50 70  1  0  0  0  0
 51 63  1  0  0  0  0
 52 66  1  0  0  0  0
 53 56  1  0  0  0  0
 53 66  1  0  0  0  0
 54 69  1  0  0  0  0
 55 76  1  0  0  0  0
 56 84  1  0  0  0  0
 57 65  1  0  0  0  0
 58 66  1  0  0  0  0
 59 67  1  0  0  0  0
 60 67  1  0  0  0  0
 61 67  1  0  0  0  0
 62 77  1  0  0  0  0
 63 66  1  0  0  0  0
 64 67  1  0  0  0  0
 64 75  1  0  0  0  0
 65 77  1  0  0  0  0
 68 69  1  0  0  0  0
M  CHG  1  77   1
M  ISO  4  32 100  56 101  76 100  84 101
M  END
> <Batch ID>
0145

> <Smiles>
CNC(C)C(=O)NC(C(=O)N1Cc2cc([101O:1][101CH:1]3CC3C(C)(CC3CC3)C3CCC([100NH:0][100C:0](=O)N4CCCC(n5nc(-c6ccc(Oc7ccc(F)cc7F)cc6)c(C(N)=O)c5N)C4)CC3)ccc2CC1C(=O)NC1CCCc2ccccc21)C(C)(C)C

> <Shape>
0.251

> <Color>
0.105

> <Negative vol penalty>
0.000

$$$$

  -OEChem-04052321283D

 87 96  0     1  0  0  0  0  0999 V2000
  -14.9923  -22.2976   23.2178 C   0  0  0  0  0  0  0  0  0  0  0  0
  -16.2384  -22.7631   22.8105 C   0  0  0  0  0  0  0  0  0  0  0  0
  -28.9894  -17.7360   19.5208 C   0  0  0  0  0  0  0  0  0  0  0  0
  -30.6173  -18.1304   21.2619 C   0  0  0  0  0  0  0  0  0  0  0  0
  -14.8359  -20.9636   23.5918 C   0  0  0  0  0  0  0  0  0  0  0  0
  -17.3292  -21.8950   22.7781 C   0  0  0  0  0  0  0  0  0  0  0  0
  -20.0652  -22.3705   18.5433 C   0  0  0  0  0  0  0  0  0  0  0  0
  -29.5058  -16.4546   19.3283 C   0  0  0  0  0  0  0  0  0  0  0  0
  -31.1337  -16.8490   21.0695 C   0  0  0  0  0  0  0  0  0  0  0  0
  -20.9362  -23.4564   18.4666 C   0  0  0  0  0  0  0  0  0  0  0  0
  -30.1621  -12.9487   18.6261 C   0  0  0  0  0  0  0  0  0  0  0  0
  -29.2553  -11.8965   18.4990 C   0  0  0  0  0  0  0  0  0  0  0  0
  -22.7777  -22.0129   19.0536 C   0  0  0  0  0  0  0  0  0  0  0  0
  -23.5677  -29.9366   20.7463 C   0  0  0  0  0  0  0  0  0  0  0  0
  -28.3872  -12.3786   20.7016 C   0  0  0  0  0  0  0  0  0  0  0  0
  -29.5452  -18.5739   20.4876 C   0  0  0  0  0  0  0  0  0  0  0  0
  -27.9806  -20.2757   21.5662 C   0  0  0  0  0  0  0  0  0  0  0  0
  -15.9231  -20.0764   23.5547 C   0  0  0  0  0  0  0  0  0  0  0  0
  -20.5429  -21.0977   18.8870 C   0  0  0  0  0  0  0  0  0  0  0  0
  -17.1875  -20.5482   23.1532 C   0  0  0  0  0  0  0  0  0  0  0  0
  -21.9110  -20.9120   19.1315 C   0  0  0  0  0  0  0  0  0  0  0  0
  -24.4687  -30.8484   21.2852 C   0  0  0  0  0  0  0  0  0  0  0  0
  -25.7978  -30.4812   21.4637 C   0  0  0  0  0  0  0  0  0  0  0  0
  -30.5778  -16.0111   20.1026 C   0  0  0  0  0  0  0  0  0  0  0  0
  -22.2923  -23.2782   18.7246 C   0  0  0  0  0  0  0  0  0  0  0  0
  -30.1815  -13.7159   19.7909 C   0  0  0  0  0  0  0  0  0  0  0  0
  -28.3679  -11.6115   19.5368 C   0  0  0  0  0  0  0  0  0  0  0  0
  -29.2940  -13.4309   20.8286 C   0  0  0  0  0  0  0  0  0  0  0  0
  -29.0127  -19.8979   20.6866 C   0  0  0  0  0  0  0  0  0  0  0  0
  -26.1727  -29.2006   21.0904 C   0  0  0  0  0  0  0  0  0  0  0  0
  -24.0425  -28.6805   20.4049 C   0  0  0  0  0  0  0  0  0  0  0  0
  -27.8509  -21.6306   21.3817 C   0  0  0  0  0  0  0  0  0  0  0  0
  -27.2082  -19.4737   22.4695 C   0  0  0  0  0  0  0  0  0  0  0  0
  -20.0024  -19.0677   21.2725 C   0  0  0  0  0  0  0  0  0  0  0  0
  -21.8972  -17.1067   19.5156 C   0  0  0  0  0  0  0  0  0  0  0  0
  -24.3422  -16.7909   17.1557 C   0  0  0  0  0  0  0  0  0  0  0  0
  -30.1096  -26.6968   20.7676 C   0  0  0  0  0  0  0  0  0  0  0  0
  -15.7159  -18.6547   24.0135 C   0  0  0  0  0  0  0  0  0  0  0  0
  -19.5945  -19.9313   18.9393 C   0  0  0  0  0  0  0  0  0  0  0  0
  -22.4774  -19.5618   19.4846 C   0  0  0  0  0  0  0  0  0  0  0  0
  -16.8383  -17.7093   23.5930 C   0  0  0  0  0  0  0  0  0  0  0  0
  -29.8145  -24.6752   17.8517 C   0  0  0  0  0  0  0  0  0  0  0  0
  -24.2097  -32.6993   23.0687 C   0  0  0  0  0  0  0  0  0  0  0  0
  -22.8295  -32.3390   22.6154 C   0  0  0  0  0  0  0  0  0  0  0  0
  -18.1993  -18.3357   23.8792 C   0  0  0  0  0  0  0  0  0  0  0  0
  -29.5008  -23.2829   18.4021 C   0  0  0  0  0  0  0  0  0  0  0  0
  -30.7910  -25.4306   18.7505 C   0  0  0  0  0  0  0  0  0  0  0  0
  -30.0727  -24.1292   20.7163 C   0  0  0  0  0  0  0  0  0  0  0  0
  -23.9878  -32.2100   21.6621 C   0  0  0  0  0  0  0  0  0  0  0  0
  -18.3892  -19.6312   23.0810 C   0  0  1  0  0  0  0  0  0  0  0  0
  -20.1080  -18.7820   19.8011 C   0  0  1  0  0  0  0  0  0  0  0  0
  -29.0486  -23.3503   19.8732 C   0  0  2  0  0  0  0  0  0  0  0  0
  -26.7885  -31.4368   22.0395 C   0  0  0  0  0  0  0  0  0  0  0  0
  -25.7100  -15.0630   15.9553 C   0  0  0  0  0  0  0  0  0  0  0  0
  -23.6122  -16.7339   22.0116 C   0  0  0  0  0  0  0  0  0  0  0  0
  -25.4218  -15.8143   20.5460 C   0  0  0  0  0  0  0  0  0  0  0  0
  -23.2229  -14.6455   20.6920 C   0  0  0  0  0  0  0  0  0  0  0  0
  -23.2725  -17.6074   14.5197 C   0  0  0  0  0  0  0  0  0  0  0  0
  -27.5866  -28.7490   21.2588 C   0  0  0  0  0  0  0  0  0  0  0  0
  -27.9545  -28.3340   22.6960 C   0  0  0  0  0  0  0  0  0  0  0  0
  -29.3846  -27.8231   22.8569 C   0  0  0  0  0  0  0  0  0  0  0  0
  -22.6107  -25.6232   18.9609 C   0  0  0  0  0  0  0  0  0  1  0  0
  -23.7125  -26.4905   19.5384 C   0  0  0  0  0  0  0  0  0  0  0  0
  -23.3809  -16.8376   19.4422 C   0  0  1  0  0  0  0  0  0  0  0  0
  -24.4462  -15.9084   15.9249 C   0  0  2  0  0  0  0  0  0  0  0  0
  -23.8988  -16.0338   20.6682 C   0  0  0  0  0  0  0  0  0  0  0  0
  -29.5037  -20.9294   19.9945 N   0  0  0  0  0  0  0  0  0  0  0  0
  -25.3262  -28.2875   20.5637 N   0  0  0  0  0  0  0  0  0  0  0  0
  -28.7769  -21.9687   20.4392 N   0  0  0  0  0  0  0  0  0  0  0  0
  -21.5090  -18.4538   19.5293 N   0  0  0  0  0  0  0  0  0  0  0  0
  -30.3027  -25.4595   20.1313 N   0  0  0  0  0  0  0  0  0  0  0  0
  -27.0362  -22.5537   21.9353 N   0  0  0  0  0  0  0  0  0  0  0  0
  -27.4712  -18.0986   22.5340 N   0  0  0  0  0  0  0  0  0  0  0  0
  -18.7164  -19.3326   21.7032 N   0  0  0  0  0  0  0  0  0  0  0  0
  -23.6144  -16.1855   18.1582 N   0  0  0  0  0  0  0  0  0  0  0  0
  -29.6387  -26.6346   22.0734 N   0  0  0  0  0  0  0  0  0  0  0  0
  -24.4681  -16.7422   14.6899 N   0  3  0  0  0  0  0  0  0  0  0  0
  -26.3001  -19.9593   23.1858 O   0  0  0  0  0  0  0  0  0  0  0  0
  -21.0126  -19.0477   21.9658 O   0  0  0  0  0  0  0  0  0  0  0  0
  -21.1114  -16.1565   19.5521 O   0  0  0  0  0  0  0  0  0  0  0  0
  -24.8583  -17.9043   17.2225 O   0  0  0  0  0  0  0  0  0  0  0  0
  -30.3348  -27.7770   20.2113 O   0  0  0  0  0  0  0  0  0  0  0  0
  -31.0818  -14.7607   19.9152 O   0  0  0  0  0  0  0  0  0  0  0  0
  -23.1446  -24.3366   18.6511 O   0  0  0  0  0  0  0  0  0  1  0  0
  -23.1745  -27.7645   19.8714 O   0  0  0  0  0  0  0  0  0  0  0  0
  -27.4961  -10.6019   19.4140 F   0  0  0  0  0  0  0  0  0  0  0  0
  -29.3072  -14.1651   21.9496 F   0  0  0  0  0  0  0  0  0  0  0  0
  1  2  1  0  0  0  0
  1  5  2  0  0  0  0
  2  6  2  0  0  0  0
  3  8  2  0  0  0  0
  3 16  1  0  0  0  0
  4  9  1  0  0  0  0
  4 16  2  0  0  0  0
  5 18  1  0  0  0  0
  6 20  1  0  0  0  0
  7 10  2  0  0  0  0
  7 19  1  0  0  0  0
  8 24  1  0  0  0  0
  9 24  2  0  0  0  0
 10 25  1  0  0  0  0
 11 12  2  0  0  0  0
 11 26  1  0  0  0  0
 12 27  1  0  0  0  0
 13 21  1  0  0  0  0
 13 25  2  0  0  0  0
 14 22  2  0  0  0  0
 14 31  1  0  0  0  0
 15 27  2  0  0  0  0
 15 28  1  0  0  0  0
 16 29  1  0  0  0  0
 17 29  1  0  0  0  0
 17 32  2  0  0  0  0
 17 33  1  0  0  0  0
 18 20  2  0  0  0  0
 18 38  1  0  0  0  0
 19 21  2  0  0  0  0
 19 39  1  0  0  0  0
 20 50  1  0  0  0  0
 21 40  1  0  0  0  0
 22 23  1  0  0  0  0
 22 49  1  0  0  0  0
 23 30  2  0  0  0  0
 23 53  1  0  0  0  0
 24 83  1  0  0  0  0
 25 84  1  0  0  0  0
 26 28  2  0  0  0  0
 26 83  1  0  0  0  0
 27 86  1  0  0  0  0
 28 87  1  0  0  0  0
 29 67  2  0  0  0  0
 30 59  1  0  0  0  0
 30 68  1  0  0  0  0
 31 68  2  0  0  0  0
 31 85  1  0  0  0  0
 32 69  1  0  0  0  0
 32 72  1  0  0  0  0
 33 73  1  0  0  0  0
 33 78  2  0  0  0  0
 34 51  1  0  0  0  0
 34 74  1  0  0  0  0
 34 79  2  0  0  0  0
 35 64  1  0  0  0  0
 35 70  1  0  0  0  0
 35 80  2  0  0  0  0
 36 65  1  0  0  0  0
 36 75  1  0  0  0  0
 36 81  2  0  0  0  0
 37 71  1  0  0  0  0
 37 76  1  0  0  0  0
 37 82  2  0  0  0  0
 38 41  1  0  0  0  0
 39 51  1  0  0  0  0
 40 70  1  0  0  0  0
 41 45  1  0  0  0  0
 42 46  1  0  0  0  0
 42 47  1  0  0  0  0
 43 44  1  0  0  0  0
 43 49  1  0  0  0  0
 44 49  1  0  0  0  0
 45 50  1  0  0  0  0
 46 52  1  0  0  0  0
 47 71  1  0  0  0  0
 48 52  1  0  0  0  0
 48 71  1  0  0  0  0
 50 74  1  0  0  0  0
 51 70  1  0  0  0  0
 52 69  1  0  0  0  0
 54 65  1  0  0  0  0
 55 66  1  0  0  0  0
 56 66  1  0  0  0  0
 57 66  1  0  0  0  0
 58 77  1  0  0  0  0
 59 60  1  0  0  0  0
 60 61  1  0  0  0  0
 61 76  1  0  0  0  0
 62 63  1  0  0  0  0
 62 84  1  0  0  0  0
 63 85  1  0  0  0  0
 64 66  1  0  0  0  0
 64 75  1  0  0  0  0
 65 77  1  0  0  0  0
 67 69  1  0  0  0  0
M  CHG  1  77   1
M  ISO  4  37 100  62 101  76 100  84 101
M  END
> <Batch ID>
0145

> <Smiles>
CNC(C)C(=O)NC(C(=O)N1Cc2cc([101O:1][101CH2:1]COc3cc(C4CC4)c(C)c(CCC[100NH:0][100C:0](=O)N4CCCC(n5nc(-c6ccc(Oc7ccc(F)cc7F)cc6)c(C(N)=O)c5N)C4)n3)ccc2CC1C(=O)NC1CCCc2ccccc21)C(C)(C)C

> <Shape>
0.233

> <Color>
0.057

> <Negative vol penalty>
0.000

$$$$

  -OEChem-04052321283D

 92101  0     1  0  0  0  0  0999 V2000
  -28.0894  -38.0954   23.2660 C   0  0  0  0  0  0  0  0  0  0  0  0
  -28.6236  -36.9201   22.7477 C   0  0  0  0  0  0  0  0  0  0  0  0
  -23.4780   -9.9623   22.4787 C   0  0  0  0  0  0  0  0  0  0  0  0
  -24.7606  -11.2835   24.0428 C   0  0  0  0  0  0  0  0  0  0  0  0
  -27.0495  -38.0378   24.1930 C   0  0  0  0  0  0  0  0  0  0  0  0
  -28.1190  -35.6863   23.1570 C   0  0  0  0  0  0  0  0  0  0  0  0
  -27.5670  -30.6231   19.7562 C   0  0  0  0  0  0  0  0  0  0  0  0
  -23.0367   -9.1522   23.5249 C   0  0  0  0  0  0  0  0  0  0  0  0
  -24.3192  -10.4734   25.0890 C   0  0  0  0  0  0  0  0  0  0  0  0
  -28.3599  -29.4827   19.6363 C   0  0  0  0  0  0  0  0  0  0  0  0
  -20.7236   -9.3026   25.9865 C   0  0  0  0  0  0  0  0  0  0  0  0
  -19.3679   -8.9769   26.0267 C   0  0  0  0  0  0  0  0  0  0  0  0
  -31.1380  -23.8764   18.2627 C   0  0  0  0  0  0  0  0  0  0  0  0
  -26.9539  -28.3448   21.2325 C   0  0  0  0  0  0  0  0  0  0  0  0
  -19.9269   -6.6314   25.8741 C   0  0  0  0  0  0  0  0  0  0  0  0
  -24.3400  -11.0279   22.7376 C   0  0  0  0  0  0  0  0  0  0  0  0
  -31.9481  -23.5083   19.3369 C   0  0  0  0  0  0  0  0  0  0  0  0
  -24.0046  -12.6379   20.7875 C   0  0  0  0  0  0  0  0  0  0  0  0
  -26.5254  -36.8029   24.6066 C   0  0  0  0  0  0  0  0  0  0  0  0
  -26.4661  -30.6366   20.6247 C   0  0  0  0  0  0  0  0  0  0  0  0
  -27.0721  -35.6120   24.0914 C   0  0  0  0  0  0  0  0  0  0  0  0
  -26.1471  -29.4858   21.3596 C   0  0  0  0  0  0  0  0  0  0  0  0
  -30.4838  -25.1084   18.2726 C   0  0  0  0  0  0  0  0  0  0  0  0
  -32.1039  -24.3721   20.4210 C   0  0  0  0  0  0  0  0  0  0  0  0
  -31.4497  -25.6040   20.4309 C   0  0  0  0  0  0  0  0  0  0  0  0
  -30.6396  -25.9721   19.3567 C   0  0  0  0  0  0  0  0  0  0  0  0
  -23.4572   -9.4077   24.8300 C   0  0  0  0  0  0  0  0  0  0  0  0
  -28.0551  -28.3442   20.3767 C   0  0  0  0  0  0  0  0  0  0  0  0
  -21.6809   -8.2927   25.8901 C   0  0  0  0  0  0  0  0  0  0  0  0
  -18.9695   -7.6413   25.9705 C   0  0  0  0  0  0  0  0  0  0  0  0
  -21.2826   -6.9571   25.8340 C   0  0  0  0  0  0  0  0  0  0  0  0
  -24.7968  -11.8648   21.6573 C   0  0  0  0  0  0  0  0  0  0  0  0
  -24.9072  -13.2423   19.9469 C   0  0  0  0  0  0  0  0  0  0  0  0
  -32.0633  -21.0755   19.7450 C   0  0  0  0  0  0  0  0  0  0  0  0
  -32.6167  -22.2141   19.2942 C   0  0  0  0  0  0  0  0  0  0  0  0
  -22.5802  -12.7957   20.7433 C   0  0  0  0  0  0  0  0  0  0  0  0
  -25.6635  -32.3136   23.2029 C   0  0  0  0  0  0  0  0  0  0  0  0
  -22.8649  -30.7013   22.9017 C   0  0  0  0  0  0  0  0  0  0  0  0
  -21.2164  -27.9530   21.7287 C   0  0  0  0  0  0  0  0  0  0  0  0
  -30.6949  -14.6647   20.5220 C   0  0  0  0  0  0  0  0  0  0  0  0
  -25.4331  -36.7896   25.6464 C   0  0  0  0  0  0  0  0  0  0  0  0
  -25.6050  -31.8660   20.7226 C   0  0  0  0  0  0  0  0  0  0  0  0
  -24.9641  -29.4422   22.2908 C   0  0  0  0  0  0  0  0  0  0  0  0
  -24.7030  -35.4526   25.7458 C   0  0  0  0  0  0  0  0  0  0  0  0
  -29.2368  -12.5991   18.0152 C   0  0  0  0  0  0  0  0  0  0  0  0
  -25.7017  -34.3001   25.7787 C   0  0  0  0  0  0  0  0  0  0  0  0
  -27.8621  -12.2465   18.5859 C   0  0  0  0  0  0  0  0  0  0  0  0
  -30.3007  -12.6689   19.1084 C   0  0  0  0  0  0  0  0  0  0  0  0
  -28.5980  -13.2091   20.8063 C   0  0  0  0  0  0  0  0  0  0  0  0
  -32.7614  -19.1200   21.1305 C   0  0  0  0  0  0  0  0  0  0  0  0
  -30.6694  -20.3892   21.7318 C   0  0  0  0  0  0  0  0  0  0  0  0
  -26.5349  -34.2552   24.4921 C   0  0  1  0  0  0  0  0  0  0  0  0
  -32.7336  -19.7097   19.7151 C   0  0  2  0  0  0  0  0  0  0  0  0
  -30.6795  -21.0994   20.3720 C   0  0  2  0  0  0  0  0  0  0  0  0
  -24.8116  -31.9377   22.0237 C   0  0  1  0  0  0  0  0  0  0  0  0
  -27.4810  -13.1819   19.7490 C   0  0  2  0  0  0  0  0  0  0  0  0
  -29.6215  -25.4781   17.1103 C   0  0  0  0  0  0  0  0  0  0  0  0
  -32.9721  -23.9858   21.5787 C   0  0  0  0  0  0  0  0  0  0  0  0
  -31.6162  -26.5315   21.5930 C   0  0  0  0  0  0  0  0  0  0  0  0
  -34.1557  -19.6821   19.1400 C   0  0  0  0  0  0  0  0  0  0  0  0
  -29.6108  -20.5891   19.4025 C   0  0  0  0  0  0  0  0  0  0  0  0
  -18.9408  -26.8967   21.6704 C   0  0  0  0  0  0  0  0  0  0  0  0
  -23.1941  -29.8374   25.8095 C   0  0  0  0  0  0  0  0  0  0  0  0
  -21.4647  -28.0721   25.4080 C   0  0  0  0  0  0  0  0  0  0  0  0
  -20.8637  -30.4815   25.1701 C   0  0  0  0  0  0  0  0  0  0  0  0
  -21.1165  -28.0566   18.7726 C   0  0  0  0  0  0  0  0  0  0  0  0
  -29.9352  -27.2969   19.3646 C   0  0  0  0  0  0  0  0  0  1  0  0
  -30.9420  -16.6402   22.0036 C   0  0  0  0  0  0  0  0  0  0  0  0
  -30.5550  -17.8948   21.2430 C   0  0  0  0  0  0  0  0  0  0  0  0
  -22.3255  -29.3899   23.4197 C   0  0  1  0  0  0  0  0  0  0  0  0
  -19.9201  -27.8115   20.9514 C   0  0  2  0  0  0  0  0  0  0  0  0
  -21.9855  -29.4464   24.9358 C   0  0  0  0  0  0  0  0  0  0  0  0
  -26.1022  -11.9667   21.3936 N   0  0  0  0  0  0  0  0  0  0  0  0
  -26.1372  -12.8109   20.3485 N   0  0  0  0  0  0  0  0  0  0  0  0
  -24.1563  -30.6713   22.3567 N   0  0  0  0  0  0  0  0  0  0  0  0
  -29.8787  -13.5737   20.1804 N   0  0  0  0  0  0  0  0  0  0  0  0
  -24.7608  -14.0952   18.9109 N   0  0  0  0  0  0  0  0  0  0  0  0
  -21.8019  -12.1026   21.6804 N   0  0  0  0  0  0  0  0  0  0  0  0
  -25.7656  -33.6758   23.4118 N   0  0  0  0  0  0  0  0  0  0  0  0
  -21.1930  -29.0485   22.5657 N   0  0  0  0  0  0  0  0  0  0  0  0
  -30.2179  -15.4760   21.5443 N   0  0  0  0  0  0  0  0  0  0  0  0
  -31.3757  -19.0565   21.7275 N   0  3  0  0  0  0  0  0  0  0  0  0
  -20.1862  -27.2450   19.5990 N   0  3  0  0  0  0  0  0  0  0  0  0
  -22.0134  -13.5167   19.8876 O   0  0  0  0  0  0  0  0  0  0  0  0
  -26.1880  -31.4330   23.8746 O   0  0  0  0  0  0  0  0  0  0  0  0
  -22.1634  -31.7136   22.9715 O   0  0  0  0  0  0  0  0  0  0  0  0
  -22.1543  -27.1680   21.6083 O   0  0  0  0  0  0  0  0  0  0  0  0
  -31.7665  -14.9014   19.9541 O   0  0  0  0  0  0  0  0  0  0  0  0
  -23.0265   -8.6176   25.8512 O   0  0  0  0  0  0  0  0  0  0  0  0
  -28.8278  -27.2299   20.2621 O   0  0  0  0  0  0  0  0  0  1  0  0
  -17.6677   -7.3286   26.0106 F   0  0  0  0  0  0  0  0  0  0  0  0
  -22.1978   -5.9824   25.7425 F   0  0  0  0  0  0  0  0  0  0  0  0
  1  2  1  0  0  0  0
  1  5  2  0  0  0  0
  2  6  2  0  0  0  0
  3  8  2  0  0  0  0
  3 16  1  0  0  0  0
  4  9  1  0  0  0  0
  4 16  2  0  0  0  0
  5 19  1  0  0  0  0
  6 21  1  0  0  0  0
  7 10  2  0  0  0  0
  7 20  1  0  0  0  0
  8 27  1  0  0  0  0
  9 27  2  0  0  0  0
 10 28  1  0  0  0  0
 11 12  2  0  0  0  0
 11 29  1  0  0  0  0
 12 30  1  0  0  0  0
 13 17  1  0  0  0  0
 13 23  2  0  0  0  0
 14 22  1  0  0  0  0
 14 28  2  0  0  0  0
 15 30  2  0  0  0  0
 15 31  1  0  0  0  0
 16 32  1  0  0  0  0
 17 24  2  0  0  0  0
 17 35  1  0  0  0  0
 18 32  1  0  0  0  0
 18 33  2  0  0  0  0
 18 36  1  0  0  0  0
 19 21  2  0  0  0  0
 19 41  1  0  0  0  0
 20 22  2  0  0  0  0
 20 42  1  0  0  0  0
 21 52  1  0  0  0  0
 22 43  1  0  0  0  0
 23 26  1  0  0  0  0
 23 57  1  0  0  0  0
 24 25  1  0  0  0  0
 24 58  1  0  0  0  0
 25 26  2  0  0  0  0
 25 59  1  0  0  0  0
 26 67  1  0  0  0  0
 27 89  1  0  0  0  0
 28 90  1  0  0  0  0
 29 31  2  0  0  0  0
 29 89  1  0  0  0  0
 30 91  1  0  0  0  0
 31 92  1  0  0  0  0
 32 73  2  0  0  0  0
 33 74  1  0  0  0  0
 33 77  1  0  0  0  0
 34 35  2  0  0  0  0
 34 53  1  0  0  0  0
 34 54  1  0  0  0  0
 36 78  1  0  0  0  0
 36 84  2  0  0  0  0
 37 55  1  0  0  0  0
 37 79  1  0  0  0  0
 37 85  2  0  0  0  0
 38 70  1  0  0  0  0
 38 75  1  0  0  0  0
 38 86  2  0  0  0  0
 39 71  1  0  0  0  0
 39 80  1  0  0  0  0
 39 87  2  0  0  0  0
 40 76  1  0  0  0  0
 40 81  1  0  0  0  0
 40 88  2  0  0  0  0
 41 44  1  0  0  0  0
 42 55  1  0  0  0  0
 43 75  1  0  0  0  0
 44 46  1  0  0  0  0
 45 47  1  0  0  0  0
 45 48  1  0  0  0  0
 46 52  1  0  0  0  0
 47 56  1  0  0  0  0
 48 76  1  0  0  0  0
 49 56  1  0  0  0  0
 49 76  1  0  0  0  0
 50 53  1  0  0  0  0
 50 82  1  0  0  0  0
 51 54  1  0  0  0  0
 51 82  1  0  0  0  0
 52 79  1  0  0  0  0
 53 60  1  0  0  0  0
 54 61  1  0  0  0  0
 55 75  1  0  0  0  0
 56 74  1  0  0  0  0
 62 71  1  0  0  0  0
 63 72  1  0  0  0  0
 64 72  1  0  0  0  0
 65 72  1  0  0  0  0
 66 83  1  0  0  0  0
 67 90  1  0  0  0  0
 68 69  1  0  0  0  0
 68 81  1  0  0  0  0
 69 82  1  0  0  0  0
 70 72  1  0  0  0  0
 70 80  1  0  0  0  0
 71 83  1  0  0  0  0
 73 74  1  0  0  0  0
M  CHG  2  82   1  83   1
M  ISO  4  40 100  67 101  81 100  90 101
M  END
> <Batch ID>
0145

> <Smiles>
CNC(C)C(=O)NC(C(=O)N1Cc2cc([101O:1][101CH2:1]c3c(C)cc(C=C4C(C)CN(CC[100NH:0][100C:0](=O)N5CCCC(n6nc(-c7ccc(Oc8ccc(F)cc8F)cc7)c(C(N)=O)c6N)C5)CC4C)c(C)c3C)ccc2CC1C(=O)NC1CCCc2ccccc21)C(C)(C)C

> <Shape>
0.343

> <Color>
0.127

> <Negative vol penalty>
0.000

$$$$

  -OEChem-04052321283D

 88 97  0     1  0  0  0  0  0999 V2000
  -20.5086  -29.6288   14.7733 C   0  0  0  0  0  0  0  0  0  0  0  0
  -21.7371  -29.1542   15.2213 C   0  0  0  0  0  0  0  0  0  0  0  0
  -22.6613  -10.7804   21.3099 C   0  0  0  0  0  0  0  0  0  0  0  0
  -24.5346   -9.2876   21.6255 C   0  0  0  0  0  0  0  0  0  0  0  0
  -20.1020  -30.9224   15.0975 C   0  0  0  0  0  0  0  0  0  0  0  0
  -22.5604  -29.9734   15.9931 C   0  0  0  0  0  0  0  0  0  0  0  0
  -29.0958  -20.2302   22.4011 C   0  0  0  0  0  0  0  0  0  0  0  0
  -24.5289  -27.5476   19.9787 C   0  0  0  0  0  0  0  0  0  0  0  0
  -28.9768  -18.8572   22.6161 C   0  0  0  0  0  0  0  0  0  0  0  0
  -21.8785   -9.9724   22.1345 C   0  0  0  0  0  0  0  0  0  0  0  0
  -23.7518   -8.4796   22.4501 C   0  0  0  0  0  0  0  0  0  0  0  0
  -25.6096  -26.7003   19.7382 C   0  0  0  0  0  0  0  0  0  0  0  0
  -21.3579   -6.1210   22.0806 C   0  0  0  0  0  0  0  0  0  0  0  0
  -21.4171   -4.7417   21.8816 C   0  0  0  0  0  0  0  0  0  0  0  0
  -27.3774  -20.1139   20.7068 C   0  0  0  0  0  0  0  0  0  0  0  0
  -27.1193  -28.4180   20.5062 C   0  0  0  0  0  0  0  0  0  0  0  0
  -22.2013   -4.4484   24.1479 C   0  0  0  0  0  0  0  0  0  0  0  0
  -23.9894  -10.4380   21.0553 C   0  0  0  0  0  0  0  0  0  0  0  0
  -24.5592  -11.5936   18.8536 C   0  0  0  0  0  0  0  0  0  0  0  0
  -28.2960  -20.8586   21.4465 C   0  0  0  0  0  0  0  0  0  0  0  0
  -20.9164  -31.7545   15.8817 C   0  0  0  0  0  0  0  0  0  0  0  0
  -24.7363  -28.8425   20.4753 C   0  0  0  0  0  0  0  0  0  0  0  0
  -22.1649  -31.2799   16.3270 C   0  0  0  0  0  0  0  0  0  0  0  0
  -26.0393  -29.2788   20.7545 C   0  0  0  0  0  0  0  0  0  0  0  0
  -28.0582  -18.1125   21.8763 C   0  0  0  0  0  0  0  0  0  0  0  0
  -22.4238   -8.8220   22.7046 C   0  0  0  0  0  0  0  0  0  0  0  0
  -26.9053  -27.1365   19.9992 C   0  0  0  0  0  0  0  0  0  0  0  0
  -21.7204   -6.6640   23.3132 C   0  0  0  0  0  0  0  0  0  0  0  0
  -27.2585  -18.7409   20.9217 C   0  0  0  0  0  0  0  0  0  0  0  0
  -21.8388   -3.9054   22.9152 C   0  0  0  0  0  0  0  0  0  0  0  0
  -22.1421   -5.8277   24.3469 C   0  0  0  0  0  0  0  0  0  0  0  0
  -24.7984  -11.2719   20.2031 C   0  0  0  0  0  0  0  0  0  0  0  0
  -25.6087  -12.4076   18.5036 C   0  0  0  0  0  0  0  0  0  0  0  0
  -23.4845  -11.1926   17.9935 C   0  0  0  0  0  0  0  0  0  0  0  0
  -24.1533  -31.7769   19.4014 C   0  0  0  0  0  0  0  0  0  0  0  0
  -29.2240  -15.9229   21.7722 C   0  0  0  0  0  0  0  0  0  0  0  0
  -25.1699  -32.6404   22.3583 C   0  0  0  0  0  0  0  0  0  0  0  0
  -27.0031  -31.8691   25.1316 C   0  0  0  0  0  0  0  0  0  0  0  0
  -20.4551  -33.1619   16.1668 C   0  0  0  0  0  0  0  0  0  0  0  0
  -23.5580  -29.7347   20.7545 C   0  0  0  0  0  0  0  0  0  0  0  0
  -26.3142  -30.6525   21.3074 C   0  0  0  0  0  0  0  0  0  0  0  0
  -21.2204  -33.8353   17.3031 C   0  0  0  0  0  0  0  0  0  0  0  0
  -30.1870  -13.2849   19.5466 C   0  0  0  0  0  0  0  0  0  0  0  0
  -27.1217  -23.0995   21.5477 C   0  0  0  0  0  0  0  0  0  0  0  0
  -28.8929  -22.6704   19.7820 C   0  0  0  0  0  0  0  0  0  0  0  0
  -22.7215  -33.6210   17.1363 C   0  0  0  0  0  0  0  0  0  0  0  0
  -28.8995  -12.4825   19.3627 C   0  0  0  0  0  0  0  0  0  0  0  0
  -27.2654  -24.6018   21.3175 C   0  0  0  0  0  0  0  0  0  0  0  0
  -29.0277  -24.1748   19.5615 C   0  0  0  0  0  0  0  0  0  0  0  0
  -30.2967  -13.8483   20.9600 C   0  0  0  0  0  0  0  0  0  0  0  0
  -27.8338  -13.8722   21.1951 C   0  0  0  0  0  0  0  0  0  0  0  0
  -28.4254  -22.3529   21.2135 C   0  0  0  0  0  0  0  0  0  0  0  0
  -23.0749  -32.1297   17.1870 C   0  0  1  0  0  0  0  0  0  0  0  0
  -23.9220  -31.2160   20.7760 C   0  0  1  0  0  0  0  0  0  0  0  0
  -27.6687  -13.3108   19.7717 C   0  0  2  0  0  0  0  0  0  0  0  0
  -27.7340  -24.9128   19.8972 C   0  0  0  0  0  0  0  0  0  1  0  0
  -25.5269  -17.1537   16.6354 C   0  0  0  0  0  0  0  0  0  0  0  0
  -27.5472  -16.2962   23.5592 C   0  0  0  0  0  0  0  0  0  0  0  0
  -27.9217  -32.1041   27.4550 C   0  0  0  0  0  0  0  0  0  0  0  0
  -27.1599  -34.5069   20.9923 C   0  0  0  0  0  0  0  0  0  0  0  0
  -28.4002  -34.6588   23.1619 C   0  0  0  0  0  0  0  0  0  0  0  0
  -26.0456  -35.4691   23.0140 C   0  0  0  0  0  0  0  0  0  0  0  0
  -24.7144  -30.4082   26.3091 C   0  0  0  0  0  0  0  0  0  0  0  0
  -25.4082  -17.2057   18.1479 C   0  0  0  0  0  0  0  0  0  0  0  0
  -26.5193  -18.0341   18.7746 C   0  0  0  0  0  0  0  0  0  0  0  0
  -27.9456  -16.6437   22.1188 C   0  0  1  0  0  0  0  0  0  0  0  0
  -26.5059  -32.9834   22.9716 C   0  0  1  0  0  0  0  0  0  0  0  0
  -26.6682  -31.9348   26.6108 C   0  0  2  0  0  0  0  0  0  0  0  0
  -27.0232  -34.3793   22.5227 C   0  0  0  0  0  0  0  0  0  0  0  0
  -25.9124  -11.8353   20.6780 N   0  0  0  0  0  0  0  0  0  0  0  0
  -26.3827  -12.5193   19.6210 N   0  0  0  0  0  0  0  0  0  0  0  0
  -25.1295  -31.4900   21.5577 N   0  0  0  0  0  0  0  0  0  0  0  0
  -29.0988  -14.6096   21.3188 N   0  0  0  0  0  0  0  0  0  0  0  0
  -25.9358  -13.0315   17.3519 N   0  0  0  0  0  0  0  0  0  0  0  0
  -22.4894  -10.3541   18.5140 N   0  0  0  0  0  0  0  0  0  0  0  0
  -23.0685  -31.6551   18.5542 N   0  0  0  0  0  0  0  0  0  0  0  0
  -26.3410  -32.8430   24.4143 N   0  0  0  0  0  0  0  0  0  0  0  0
  -25.9767  -30.6867   27.0412 N   0  3  0  0  0  0  0  0  0  0  0  0
  -23.4176  -11.5536   16.7940 O   0  0  0  0  0  0  0  0  0  0  0  0
  -25.2354  -32.2839   19.1299 O   0  0  0  0  0  0  0  0  0  0  0  0
  -30.3006  -16.5122   21.8985 O   0  0  0  0  0  0  0  0  0  0  0  0
  -24.1962  -33.3623   22.5871 O   0  0  0  0  0  0  0  0  0  0  0  0
  -27.7777  -31.0395   24.6602 O   0  0  0  0  0  0  0  0  0  0  0  0
  -21.6603   -8.0335   23.5095 O   0  0  0  0  0  0  0  0  0  0  0  0
  -27.9620  -26.3117   19.7648 O   0  0  0  0  0  0  0  0  0  1  0  0
  -26.3554  -18.0285   20.1913 O   0  0  0  0  0  0  0  0  0  0  0  0
  -21.8942   -2.5807   22.7245 F   0  0  0  0  0  0  0  0  0  0  0  0
  -22.4904   -6.3435   25.5337 F   0  0  0  0  0  0  0  0  0  0  0  0
  1  2  1  0  0  0  0
  1  5  2  0  0  0  0
  2  6  2  0  0  0  0
  3 10  2  0  0  0  0
  3 18  1  0  0  0  0
  4 11  1  0  0  0  0
  4 18  2  0  0  0  0
  5 21  1  0  0  0  0
  6 23  1  0  0  0  0
  7  9  2  0  0  0  0
  7 20  1  0  0  0  0
  8 12  2  0  0  0  0
  8 22  1  0  0  0  0
  9 25  1  0  0  0  0
 10 26  1  0  0  0  0
 11 26  2  0  0  0  0
 12 27  1  0  0  0  0
 13 14  2  0  0  0  0
 13 28  1  0  0  0  0
 14 30  1  0  0  0  0
 15 20  2  0  0  0  0
 15 29  1  0  0  0  0
 16 24  1  0  0  0  0
 16 27  2  0  0  0  0
 17 30  2  0  0  0  0
 17 31  1  0  0  0  0
 18 32  1  0  0  0  0
 19 32  1  0  0  0  0
 19 33  2  0  0  0  0
 19 34  1  0  0  0  0
 20 52  1  0  0  0  0
 21 23  2  0  0  0  0
 21 39  1  0  0  0  0
 22 24  2  0  0  0  0
 22 40  1  0  0  0  0
 23 53  1  0  0  0  0
 24 41  1  0  0  0  0
 25 29  2  0  0  0  0
 25 66  1  0  0  0  0
 26 84  1  0  0  0  0
 27 85  1  0  0  0  0
 28 31  2  0  0  0  0
 28 84  1  0  0  0  0
 29 86  1  0  0  0  0
 30 87  1  0  0  0  0
 31 88  1  0  0  0  0
 32 70  2  0  0  0  0
 33 71  1  0  0  0  0
 33 74  1  0  0  0  0
 34 75  1  0  0  0  0
 34 79  2  0  0  0  0
 35 54  1  0  0  0  0
 35 76  1  0  0  0  0
 35 80  2  0  0  0  0
 36 66  1  0  0  0  0
 36 73  1  0  0  0  0
 36 81  2  0  0  0  0
 37 67  1  0  0  0  0
 37 72  1  0  0  0  0
 37 82  2  0  0  0  0
 38 68  1  0  0  0  0
 38 77  1  0  0  0  0
 38 83  2  0  0  0  0
 39 42  1  0  0  0  0
 40 54  1  0  0  0  0
 41 72  1  0  0  0  0
 42 46  1  0  0  0  0
 43 47  1  0  0  0  0
 43 50  1  0  0  0  0
 44 48  1  0  0  0  0
 44 52  1  0  0  0  0
 45 49  1  0  0  0  0
 45 52  1  0  0  0  0
 46 53  1  0  0  0  0
 47 55  1  0  0  0  0
 48 56  1  0  0  0  0
 49 56  1  0  0  0  0
 50 73  1  0  0  0  0
 51 55  1  0  0  0  0
 51 73  1  0  0  0  0
 53 76  1  0  0  0  0
 54 72  1  0  0  0  0
 55 71  1  0  0  0  0
 56 85  1  0  0  0  0
 57 64  1  0  0  0  0
 58 66  1  0  0  0  0
 59 68  1  0  0  0  0
 60 69  1  0  0  0  0
 61 69  1  0  0  0  0
 62 69  1  0  0  0  0
 63 78  1  0  0  0  0
 64 65  1  0  0  0  0
 65 86  1  0  0  0  0
 67 69  1  0  0  0  0
 67 77  1  0  0  0  0
 68 78  1  0  0  0  0
 70 71  1  0  0  0  0
M  CHG  1  78   1
M  ISO  4  36 100  56 101  66 100  85 101
M  END
> <Batch ID>
0145

> <Smiles>
CCCOc1cc(C2CC[101CH:1]([101O:1]c3ccc4c(c3)CN(C(=O)C(NC(=O)C(C)NC)C(C)(C)C)C(C(=O)NC3CCCc5ccccc53)C4)CC2)ccc1[100CH:0](C)[100C:0](=O)N1CCCC(n2nc(-c3ccc(Oc4ccc(F)cc4F)cc3)c(C(N)=O)c2N)C1

> <Shape>
0.319

> <Color>
0.105

> <Negative vol penalty>
0.000

$$$$

  -OEChem-04052321283D

 84 93  0     1  0  0  0  0  0999 V2000
  -26.0792  -33.9226   14.5350 C   0  0  0  0  0  0  0  0  0  0  0  0
  -26.5906  -32.8310   15.2295 C   0  0  0  0  0  0  0  0  0  0  0  0
  -23.2271   -9.4108   19.8719 C   0  0  0  0  0  0  0  0  0  0  0  0
  -24.5688   -8.8204   21.7924 C   0  0  0  0  0  0  0  0  0  0  0  0
  -25.7177  -35.0791   15.2247 C   0  0  0  0  0  0  0  0  0  0  0  0
  -26.7418  -32.8958   16.6142 C   0  0  0  0  0  0  0  0  0  0  0  0
  -25.1084  -28.7071   18.9448 C   0  0  0  0  0  0  0  0  0  0  0  0
  -22.1344   -8.7488   20.4317 C   0  0  0  0  0  0  0  0  0  0  0  0
  -23.4761   -8.1584   22.3523 C   0  0  0  0  0  0  0  0  0  0  0  0
  -25.9458  -27.5929   18.9126 C   0  0  0  0  0  0  0  0  0  0  0  0
  -21.9018   -5.1900   21.9770 C   0  0  0  0  0  0  0  0  0  0  0  0
  -22.1226   -3.9297   22.5324 C   0  0  0  0  0  0  0  0  0  0  0  0
  -26.6955  -28.0993   21.1489 C   0  0  0  0  0  0  0  0  0  0  0  0
  -21.3640   -4.7422   24.6775 C   0  0  0  0  0  0  0  0  0  0  0  0
  -24.4443   -9.4465   20.5522 C   0  0  0  0  0  0  0  0  0  0  0  0
  -26.1995   -9.8479   18.7451 C   0  0  0  0  0  0  0  0  0  0  0  0
  -25.8555  -35.1545   16.6197 C   0  0  0  0  0  0  0  0  0  0  0  0
  -25.0663  -29.5334   20.0770 C   0  0  0  0  0  0  0  0  0  0  0  0
  -26.3831  -34.0549   17.3231 C   0  0  0  0  0  0  0  0  0  0  0  0
  -25.8548  -29.2220   21.1938 C   0  0  0  0  0  0  0  0  0  0  0  0
  -22.2589   -8.1227   21.6719 C   0  0  0  0  0  0  0  0  0  0  0  0
  -26.7416  -27.2905   20.0137 C   0  0  0  0  0  0  0  0  0  0  0  0
  -21.4122   -6.2264   22.7718 C   0  0  0  0  0  0  0  0  0  0  0  0
  -21.8537   -3.7058   23.8827 C   0  0  0  0  0  0  0  0  0  0  0  0
  -21.1433   -6.0025   24.1220 C   0  0  0  0  0  0  0  0  0  0  0  0
  -25.5736  -10.1297   19.9741 C   0  0  0  0  0  0  0  0  0  0  0  0
  -27.2118  -10.7719   18.6555 C   0  0  0  0  0  0  0  0  0  0  0  0
  -25.8934   -8.8409   17.7714 C   0  0  0  0  0  0  0  0  0  0  0  0
  -25.7378  -32.5866   20.6519 C   0  0  0  0  0  0  0  0  0  0  0  0
  -24.5234  -31.8982   23.5799 C   0  0  0  0  0  0  0  0  0  0  0  0
  -23.8257  -29.5395   25.9457 C   0  0  0  0  0  0  0  0  0  0  0  0
  -28.0369  -16.3302   20.1601 C   0  0  0  0  0  0  0  0  0  0  0  0
  -25.4955  -36.4430   17.3161 C   0  0  0  0  0  0  0  0  0  0  0  0
  -24.1378  -30.7164   20.1060 C   0  0  0  0  0  0  0  0  0  0  0  0
  -25.8312  -30.0656   22.4413 C   0  0  0  0  0  0  0  0  0  0  0  0
  -25.3365  -36.2948   18.8271 C   0  0  0  0  0  0  0  0  0  0  0  0
  -28.5102  -13.3937   22.5957 C   0  0  0  0  0  0  0  0  0  0  0  0
  -26.4976  -35.4958   19.4103 C   0  0  0  0  0  0  0  0  0  0  0  0
  -29.0064  -21.1305   20.8516 C   0  0  0  0  0  0  0  0  0  0  0  0
  -30.6230  -20.1777   19.1595 C   0  0  0  0  0  0  0  0  0  0  0  0
  -27.7759  -23.4104   18.3397 C   0  0  0  0  0  0  0  0  0  0  0  0
  -28.8225  -12.3980   21.4825 C   0  0  0  0  0  0  0  0  0  0  0  0
  -28.9795  -19.6992   21.4000 C   0  0  0  0  0  0  0  0  0  0  0  0
  -30.0889  -18.7518   19.3369 C   0  0  0  0  0  0  0  0  0  0  0  0
  -27.1297  -24.7793   18.0987 C   0  0  0  0  0  0  0  0  0  0  0  0
  -29.3984  -25.0816   18.8932 C   0  0  0  0  0  0  0  0  0  0  0  0
  -28.6722  -14.8292   22.1053 C   0  0  0  0  0  0  0  0  0  0  0  0
  -27.2164  -13.9897   20.2619 C   0  0  0  0  0  0  0  0  0  0  0  0
  -26.5389  -34.0777   18.8282 C   0  0  1  0  0  0  0  0  0  0  0  0
  -24.5574  -31.7807   21.1153 C   0  0  1  0  0  0  0  0  0  0  0  0
  -29.5450  -21.2329   19.4143 C   0  0  0  0  0  0  0  0  0  0  0  0
  -28.9592  -23.6680   19.2720 C   0  0  2  0  0  0  0  0  0  0  0  0
  -28.0277  -12.6840   20.1897 C   0  0  2  0  0  0  0  0  0  0  0  0
  -28.8841  -18.6622   20.2835 C   0  0  0  0  0  0  0  0  0  0  0  0
  -28.0732  -25.8122   18.7148 C   0  0  2  0  0  0  0  0  0  1  0  0
  -22.8678  -29.2850   28.2511 C   0  0  0  0  0  0  0  0  0  0  0  0
  -31.2376  -22.9677   20.0607 C   0  0  0  0  0  0  0  0  0  0  0  0
  -27.1069  -32.9997   24.7724 C   0  0  0  0  0  0  0  0  0  0  0  0
  -26.5119  -31.8710   26.9265 C   0  0  0  0  0  0  0  0  0  0  0  0
  -25.0292  -33.6516   26.0023 C   0  0  0  0  0  0  0  0  0  0  0  0
  -21.6467  -27.7890   24.9728 C   0  0  0  0  0  0  0  0  0  0  0  0
  -25.0938  -31.3867   24.8807 C   0  0  1  0  0  0  0  0  0  0  0  0
  -22.5730  -29.2686   26.7592 C   0  0  2  0  0  0  0  0  0  0  0  0
  -30.0682  -22.6395   19.1307 C   0  0  1  0  0  0  0  0  0  0  0  0
  -25.9376  -32.4623   25.6214 C   0  0  0  0  0  0  0  0  0  0  0  0
  -26.1407  -11.1526   20.6191 N   0  0  0  0  0  0  0  0  0  0  0  0
  -27.1338  -11.5216   19.7922 N   0  0  0  0  0  0  0  0  0  0  0  0
  -24.9117  -31.2152   22.4187 N   0  0  0  0  0  0  0  0  0  0  0  0
  -28.0072  -15.0872   20.8218 N   0  0  0  0  0  0  0  0  0  0  0  0
  -28.1520  -11.0082   17.7161 N   0  0  0  0  0  0  0  0  0  0  0  0
  -24.8206   -7.9743   18.0212 N   0  0  0  0  0  0  0  0  0  0  0  0
  -25.5343  -33.2450   19.4542 N   0  0  0  0  0  0  0  0  0  0  0  0
  -23.9633  -30.8794   25.6507 N   0  0  0  0  0  0  0  0  0  0  0  0
  -28.7533  -17.3263   20.8189 N   0  0  0  0  0  0  0  0  0  0  0  0
  -22.0046  -27.9368   26.4070 N   0  3  0  0  0  0  0  0  0  0  0  0
  -26.5619   -8.7030   16.7190 O   0  0  0  0  0  0  0  0  0  0  0  0
  -26.7573  -32.6106   21.3315 O   0  0  0  0  0  0  0  0  0  0  0  0
  -23.7557  -32.8636   23.5944 O   0  0  0  0  0  0  0  0  0  0  0  0
  -24.6062  -28.6518   25.6089 O   0  0  0  0  0  0  0  0  0  0  0  0
  -27.4732  -16.5338   19.0807 O   0  0  0  0  0  0  0  0  0  0  0  0
  -21.1928   -7.4769   22.2186 O   0  0  0  0  0  0  0  0  0  0  0  0
  -27.5604  -26.2039   19.9847 O   0  0  0  0  0  0  0  0  0  1  0  0
  -22.0643   -2.4951   24.4156 F   0  0  0  0  0  0  0  0  0  0  0  0
  -20.6716   -6.9940   24.8903 F   0  0  0  0  0  0  0  0  0  0  0  0
  1  2  1  0  0  0  0
  1  5  2  0  0  0  0
  2  6  2  0  0  0  0
  3  8  2  0  0  0  0
  3 15  1  0  0  0  0
  4  9  1  0  0  0  0
  4 15  2  0  0  0  0
  5 17  1  0  0  0  0
  6 19  1  0  0  0  0
  7 10  2  0  0  0  0
  7 18  1  0  0  0  0
  8 21  1  0  0  0  0
  9 21  2  0  0  0  0
 10 22  1  0  0  0  0
 11 12  2  0  0  0  0
 11 23  1  0  0  0  0
 12 24  1  0  0  0  0
 13 20  1  0  0  0  0
 13 22  2  0  0  0  0
 14 24  2  0  0  0  0
 14 25  1  0  0  0  0
 15 26  1  0  0  0  0
 16 26  1  0  0  0  0
 16 27  2  0  0  0  0
 16 28  1  0  0  0  0
 17 19  2  0  0  0  0
 17 33  1  0  0  0  0
 18 20  2  0  0  0  0
 18 34  1  0  0  0  0
 19 49  1  0  0  0  0
 20 35  1  0  0  0  0
 21 81  1  0  0  0  0
 22 82  1  0  0  0  0
 23 25  2  0  0  0  0
 23 81  1  0  0  0  0
 24 83  1  0  0  0  0
 25 84  1  0  0  0  0
 26 66  2  0  0  0  0
 27 67  1  0  0  0  0
 27 70  1  0  0  0  0
 28 71  1  0  0  0  0
 28 76  2  0  0  0  0
 29 50  1  0  0  0  0
 29 72  1  0  0  0  0
 29 77  2  0  0  0  0
 30 62  1  0  0  0  0
 30 68  1  0  0  0  0
 30 78  2  0  0  0  0
 31 63  1  0  0  0  0
 31 73  1  0  0  0  0
 31 79  2  0  0  0  0
 32 69  1  0  0  0  0
 32 74  1  0  0  0  0
 32 80  2  0  0  0  0
 33 36  1  0  0  0  0
 34 50  1  0  0  0  0
 35 68  1  0  0  0  0
 36 38  1  0  0  0  0
 37 42  1  0  0  0  0
 37 47  1  0  0  0  0
 38 49  1  0  0  0  0
 39 43  1  0  0  0  0
 39 51  1  0  0  0  0
 40 44  1  0  0  0  0
 40 51  1  0  0  0  0
 41 45  1  0  0  0  0
 41 52  1  0  0  0  0
 42 53  1  0  0  0  0
 43 54  1  0  0  0  0
 44 54  1  0  0  0  0
 45 55  1  0  0  0  0
 46 52  1  0  0  0  0
 46 55  1  0  0  0  0
 47 69  1  0  0  0  0
 48 53  1  0  0  0  0
 48 69  1  0  0  0  0
 49 72  1  0  0  0  0
 50 68  1  0  0  0  0
 51 64  1  0  0  0  0
 52 64  1  0  0  0  0
 53 67  1  0  0  0  0
 54 74  1  0  0  0  0
 55 82  1  0  0  0  0
 56 63  1  0  0  0  0
 57 64  1  0  0  0  0
 58 65  1  0  0  0  0
 59 65  1  0  0  0  0
 60 65  1  0  0  0  0
 61 75  1  0  0  0  0
 62 65  1  0  0  0  0
 62 73  1  0  0  0  0
 63 75  1  0  0  0  0
 66 67  1  0  0  0  0
M  CHG  1  75   1
M  ISO  4  32 100  55 101  74 100  82 101
M  END
> <Batch ID>
0145

> <Smiles>
CNC(C)C(=O)NC(C(=O)N1Cc2cc([101O:1][101CH:1]3CCC(C(C)C4CCC([100NH:0][100C:0](=O)N5CCCC(n6nc(-c7ccc(Oc8ccc(F)cc8F)cc7)c(C(N)=O)c6N)C5)CC4)C3)ccc2CC1C(=O)NC1CCCc2ccccc21)C(C)(C)C

> <Shape>
0.298

> <Color>
0.109

> <Negative vol penalty>
0.000

$$$$

  -OEChem-04052321283D

 87 96  0     1  0  0  0  0  0999 V2000
  -20.5083  -25.9565   25.6974 C   0  0  0  0  0  0  0  0  0  0  0  0
  -21.5314  -25.7300   24.7823 C   0  0  0  0  0  0  0  0  0  0  0  0
  -24.1498   -9.9972   22.7573 C   0  0  0  0  0  0  0  0  0  0  0  0
  -24.2946  -11.9566   24.1632 C   0  0  0  0  0  0  0  0  0  0  0  0
  -19.5122  -26.8890   25.4110 C   0  0  0  0  0  0  0  0  0  0  0  0
  -21.5583  -26.4353   23.5797 C   0  0  0  0  0  0  0  0  0  0  0  0
  -26.1758  -28.1852   22.4566 C   0  0  0  0  0  0  0  0  0  0  0  0
  -23.7115   -9.2467   23.8483 C   0  0  0  0  0  0  0  0  0  0  0  0
  -23.8562  -11.2062   25.2542 C   0  0  0  0  0  0  0  0  0  0  0  0
  -27.0925  -27.2738   21.9343 C   0  0  0  0  0  0  0  0  0  0  0  0
  -20.8313   -8.7850   25.5582 C   0  0  0  0  0  0  0  0  0  0  0  0
  -19.7465   -7.9302   25.3631 C   0  0  0  0  0  0  0  0  0  0  0  0
  -26.6424  -28.1027   19.7141 C   0  0  0  0  0  0  0  0  0  0  0  0
  -29.5571  -21.9540   19.2468 C   0  0  0  0  0  0  0  0  0  0  0  0
  -28.2951  -22.0680   21.3039 C   0  0  0  0  0  0  0  0  0  0  0  0
  -21.1209   -6.0437   25.9869 C   0  0  0  0  0  0  0  0  0  0  0  0
  -24.4414  -11.3522   22.9147 C   0  0  0  0  0  0  0  0  0  0  0  0
  -24.0992  -12.8432   20.8734 C   0  0  0  0  0  0  0  0  0  0  0  0
  -19.5322  -27.6130   24.2085 C   0  0  0  0  0  0  0  0  0  0  0  0
  -25.4763  -29.0562   21.6090 C   0  0  0  0  0  0  0  0  0  0  0  0
  -20.5607  -27.3774   23.2763 C   0  0  0  0  0  0  0  0  0  0  0  0
  -25.7193  -29.0260   20.2283 C   0  0  0  0  0  0  0  0  0  0  0  0
  -30.0139  -20.3920   21.0324 C   0  0  0  0  0  0  0  0  0  0  0  0
  -30.2823  -20.8747   19.7515 C   0  0  0  0  0  0  0  0  0  0  0  0
  -29.0203  -20.9886   21.8086 C   0  0  0  0  0  0  0  0  0  0  0  0
  -23.5647   -9.8512   25.0967 C   0  0  0  0  0  0  0  0  0  0  0  0
  -27.3238  -27.2304   20.5626 C   0  0  0  0  0  0  0  0  0  0  0  0
  -22.0609   -8.2692   25.9675 C   0  0  0  0  0  0  0  0  0  0  0  0
  -28.5635  -22.5507   20.0230 C   0  0  0  0  0  0  0  0  0  0  0  0
  -19.8913   -6.5595   25.5775 C   0  0  0  0  0  0  0  0  0  0  0  0
  -22.2058   -6.8985   26.1819 C   0  0  0  0  0  0  0  0  0  0  0  0
  -24.8948  -12.1278   21.7883 C   0  0  0  0  0  0  0  0  0  0  0  0
  -24.9995  -13.4039   20.0007 C   0  0  0  0  0  0  0  0  0  0  0  0
  -22.6739  -12.9881   20.8174 C   0  0  0  0  0  0  0  0  0  0  0  0
  -22.4123  -29.5167   20.8998 C   0  0  0  0  0  0  0  0  0  0  0  0
  -23.5820  -32.0333   19.2202 C   0  0  0  0  0  0  0  0  0  0  0  0
  -26.2292  -33.4609   17.6074 C   0  0  0  0  0  0  0  0  0  0  0  0
  -30.7665  -14.9098   20.4868 C   0  0  0  0  0  0  0  0  0  0  0  0
  -18.4076  -28.5764   23.9223 C   0  0  0  0  0  0  0  0  0  0  0  0
  -24.5106  -30.0518   22.1908 C   0  0  0  0  0  0  0  0  0  0  0  0
  -25.0093  -29.9536   19.2777 C   0  0  0  0  0  0  0  0  0  0  0  0
  -18.7154  -29.5530   22.7902 C   0  0  0  0  0  0  0  0  0  0  0  0
  -29.3403  -12.6791   18.1200 C   0  0  0  0  0  0  0  0  0  0  0  0
  -19.3131  -28.8152   21.5964 C   0  0  0  0  0  0  0  0  0  0  0  0
  -27.9654  -12.3519   18.7051 C   0  0  0  0  0  0  0  0  0  0  0  0
  -31.2161  -17.9975   20.6479 C   0  0  0  0  0  0  0  0  0  0  0  0
  -30.1000  -18.0980   22.4667 C   0  0  0  0  0  0  0  0  0  0  0  0
  -30.3989  -12.8205   19.2116 C   0  0  0  0  0  0  0  0  0  0  0  0
  -28.6876  -13.4469   20.8685 C   0  0  0  0  0  0  0  0  0  0  0  0
  -30.8384  -19.1652   21.6062 C   0  0  0  0  0  0  0  0  0  0  0  0
  -20.6381  -28.1406   21.9718 C   0  0  1  0  0  0  0  0  0  0  0  0
  -23.4756  -30.5401   21.1820 C   0  0  1  0  0  0  0  0  0  0  0  0
  -27.5741  -13.3504   19.8114 C   0  0  2  0  0  0  0  0  0  0  0  0
  -31.0132  -17.0163   21.8322 C   0  0  0  0  0  0  0  0  0  0  0  0
  -31.3413  -20.2519   18.9032 C   0  0  0  0  0  0  0  0  0  0  0  0
  -28.7162  -20.4884   23.1822 C   0  0  0  0  0  0  0  0  0  0  0  0
  -32.2611  -16.6475   22.6184 C   0  0  0  0  0  0  0  0  0  0  0  0
  -26.8701  -35.5048   16.3001 C   0  0  0  0  0  0  0  0  0  0  0  0
  -22.0930  -30.9430   16.7903 C   0  0  0  0  0  0  0  0  0  0  0  0
  -23.5009  -32.4284   15.3482 C   0  0  0  0  0  0  0  0  0  0  0  0
  -21.9802  -33.4273   17.0547 C   0  0  0  0  0  0  0  0  0  0  0  0
  -28.2896  -34.2248   19.5898 C   0  0  0  0  0  0  0  0  0  0  0  0
  -27.9733  -25.8641   18.7276 C   0  0  0  0  0  0  0  0  0  1  0  0
  -28.5213  -24.4559   18.6002 C   0  0  0  0  0  0  0  0  0  0  0  0
  -24.0799  -32.2386   17.8099 C   0  0  1  0  0  0  0  0  0  0  0  0
  -26.8154  -34.8595   17.6761 C   0  0  2  0  0  0  0  0  0  0  0  0
  -22.9256  -32.2404   16.7682 C   0  0  0  0  0  0  0  0  0  0  0  0
  -26.2000  -12.2234   21.5215 N   0  0  0  0  0  0  0  0  0  0  0  0
  -26.2315  -13.0055   20.4290 N   0  0  0  0  0  0  0  0  0  0  0  0
  -24.0698  -30.9048   19.8942 N   0  0  0  0  0  0  0  0  0  0  0  0
  -29.9665  -13.7864   20.2248 N   0  0  0  0  0  0  0  0  0  0  0  0
  -24.8495  -14.1939   18.9163 N   0  0  0  0  0  0  0  0  0  0  0  0
  -21.8982  -12.3453   21.7919 N   0  0  0  0  0  0  0  0  0  0  0  0
  -21.7064  -29.1157   22.0180 N   0  0  0  0  0  0  0  0  0  0  0  0
  -24.8685  -33.4659   17.8300 N   0  0  0  0  0  0  0  0  0  0  0  0
  -30.2870  -15.7864   21.4545 N   0  0  0  0  0  0  0  0  0  0  0  0
  -28.1984  -34.8149   18.2295 N   0  3  0  0  0  0  0  0  0  0  0  0
  -22.1040  -13.6540   19.9200 O   0  0  0  0  0  0  0  0  0  0  0  0
  -22.2436  -29.1214   19.7522 O   0  0  0  0  0  0  0  0  0  0  0  0
  -22.7950  -32.8481   19.7083 O   0  0  0  0  0  0  0  0  0  0  0  0
  -26.9098  -32.4641   17.3755 O   0  0  0  0  0  0  0  0  0  0  0  0
  -31.8310  -15.1272   19.8978 O   0  0  0  0  0  0  0  0  0  0  0  0
  -23.1368   -9.1193   26.1615 O   0  0  0  0  0  0  0  0  0  0  0  0
  -28.2175  -26.3413   20.0501 O   0  0  0  0  0  0  0  0  0  1  0  0
  -27.8510  -23.6108   19.5274 O   0  0  0  0  0  0  0  0  0  0  0  0
  -18.8490   -5.7389   25.3916 F   0  0  0  0  0  0  0  0  0  0  0  0
  -23.3843   -6.3973   26.5763 F   0  0  0  0  0  0  0  0  0  0  0  0
  1  2  1  0  0  0  0
  1  5  2  0  0  0  0
  2  6  2  0  0  0  0
  3  8  2  0  0  0  0
  3 17  1  0  0  0  0
  4  9  1  0  0  0  0
  4 17  2  0  0  0  0
  5 19  1  0  0  0  0
  6 21  1  0  0  0  0
  7 10  2  0  0  0  0
  7 20  1  0  0  0  0
  8 26  1  0  0  0  0
  9 26  2  0  0  0  0
 10 27  1  0  0  0  0
 11 12  2  0  0  0  0
 11 28  1  0  0  0  0
 12 30  1  0  0  0  0
 13 22  1  0  0  0  0
 13 27  2  0  0  0  0
 14 24  2  0  0  0  0
 14 29  1  0  0  0  0
 15 25  1  0  0  0  0
 15 29  2  0  0  0  0
 16 30  2  0  0  0  0
 16 31  1  0  0  0  0
 17 32  1  0  0  0  0
 18 32  1  0  0  0  0
 18 33  2  0  0  0  0
 18 34  1  0  0  0  0
 19 21  2  0  0  0  0
 19 39  1  0  0  0  0
 20 22  2  0  0  0  0
 20 40  1  0  0  0  0
 21 51  1  0  0  0  0
 22 41  1  0  0  0  0
 23 24  1  0  0  0  0
 23 25  2  0  0  0  0
 23 50  1  0  0  0  0
 24 55  1  0  0  0  0
 25 56  1  0  0  0  0
 26 83  1  0  0  0  0
 27 84  1  0  0  0  0
 28 31  2  0  0  0  0
 28 83  1  0  0  0  0
 29 85  1  0  0  0  0
 30 86  1  0  0  0  0
 31 87  1  0  0  0  0
 32 68  2  0  0  0  0
 33 69  1  0  0  0  0
 33 72  1  0  0  0  0
 34 73  1  0  0  0  0
 34 78  2  0  0  0  0
 35 52  1  0  0  0  0
 35 74  1  0  0  0  0
 35 79  2  0  0  0  0
 36 65  1  0  0  0  0
 36 70  1  0  0  0  0
 36 80  2  0  0  0  0
 37 66  1  0  0  0  0
 37 75  1  0  0  0  0
 37 81  2  0  0  0  0
 38 71  1  0  0  0  0
 38 76  1  0  0  0  0
 38 82  2  0  0  0  0
 39 42  1  0  0  0  0
 40 52  1  0  0  0  0
 41 70  1  0  0  0  0
 42 44  1  0  0  0  0
 43 45  1  0  0  0  0
 43 48  1  0  0  0  0
 44 51  1  0  0  0  0
 45 53  1  0  0  0  0
 46 50  1  0  0  0  0
 46 54  1  0  0  0  0
 47 50  1  0  0  0  0
 47 54  1  0  0  0  0
 48 71  1  0  0  0  0
 49 53  1  0  0  0  0
 49 71  1  0  0  0  0
 51 74  1  0  0  0  0
 52 70  1  0  0  0  0
 53 69  1  0  0  0  0
 54 57  1  0  0  0  0
 54 76  1  0  0  0  0
 58 66  1  0  0  0  0
 59 67  1  0  0  0  0
 60 67  1  0  0  0  0
 61 67  1  0  0  0  0
 62 77  1  0  0  0  0
 63 64  1  0  0  0  0
 63 84  1  0  0  0  0
 64 85  1  0  0  0  0
 65 67  1  0  0  0  0
 65 75  1  0  0  0  0
 66 77  1  0  0  0  0
 68 69  1  0  0  0  0
M  CHG  1  77   1
M  ISO  4  38 100  63 101  76 100  84 101
M  END
> <Batch ID>
0145

> <Smiles>
CNC(C)C(=O)NC(C(=O)N1Cc2cc([101O:1][101CH2:1]COc3cc(C)c(C4CC(C)([100NH:0][100C:0](=O)N5CCCC(n6nc(-c7ccc(Oc8ccc(F)cc8F)cc7)c(C(N)=O)c6N)C5)C4)c(C)c3)ccc2CC1C(=O)NC1CCCc2ccccc21)C(C)(C)C

> <Shape>
0.276

> <Color>
0.153

> <Negative vol penalty>
0.000

$$$$

  -OEChem-04052321283D

 86 96  0     1  0  0  0  0  0999 V2000
  -29.6770  -11.9523   20.1897 C   0  0  0  0  0  0  0  0  0  0  0  0
  -29.7409  -13.1934   20.8150 C   0  0  0  0  0  0  0  0  0  0  0  0
  -29.8103  -21.1578   19.2730 C   0  0  0  0  0  0  0  0  0  0  0  0
  -27.8633  -20.3482   20.4523 C   0  0  0  0  0  0  0  0  0  0  0  0
  -28.7429  -11.7297   19.1788 C   0  0  0  0  0  0  0  0  0  0  0  0
  -28.8715  -14.2130   20.4289 C   0  0  0  0  0  0  0  0  0  0  0  0
  -25.3201  -19.8314   23.1005 C   0  0  0  0  0  0  0  0  0  0  0  0
  -30.3534  -19.8732   19.2877 C   0  0  0  0  0  0  0  0  0  0  0  0
  -28.4064  -19.0635   20.4670 C   0  0  0  0  0  0  0  0  0  0  0  0
  -25.1282  -21.1930   22.8699 C   0  0  0  0  0  0  0  0  0  0  0  0
  -32.4143  -16.8774   19.3322 C   0  0  0  0  0  0  0  0  0  0  0  0
  -33.7601  -16.7446   19.6736 C   0  0  0  0  0  0  0  0  0  0  0  0
  -25.2117  -28.3311   23.1252 C   0  0  0  0  0  0  0  0  0  0  0  0
  -23.4358  -27.5201   21.0785 C   0  0  0  0  0  0  0  0  0  0  0  0
  -23.5026  -20.6692   21.1663 C   0  0  0  0  0  0  0  0  0  0  0  0
  -33.3117  -17.7402   21.8288 C   0  0  0  0  0  0  0  0  0  0  0  0
  -28.5652  -21.3954   19.8554 C   0  0  0  0  0  0  0  0  0  0  0  0
  -27.1721  -23.2829   18.8532 C   0  0  0  0  0  0  0  0  0  0  0  0
  -27.8552  -12.7440   18.7868 C   0  0  0  0  0  0  0  0  0  0  0  0
  -24.6115  -18.8768   22.3568 C   0  0  0  0  0  0  0  0  0  0  0  0
  -27.9256  -14.0041   19.4109 C   0  0  0  0  0  0  0  0  0  0  0  0
  -24.9705  -29.1391   22.0268 C   0  0  0  0  0  0  0  0  0  0  0  0
  -24.5643  -27.0955   23.1923 C   0  0  0  0  0  0  0  0  0  0  0  0
  -24.0914  -28.7378   21.0141 C   0  0  0  0  0  0  0  0  0  0  0  0
  -23.6855  -19.2962   21.3911 C   0  0  0  0  0  0  0  0  0  0  0  0
  -29.6515  -18.8260   19.8847 C   0  0  0  0  0  0  0  0  0  0  0  0
  -24.2214  -21.6120   21.9008 C   0  0  0  0  0  0  0  0  0  0  0  0
  -31.5171  -17.4418   20.2391 C   0  0  0  0  0  0  0  0  0  0  0  0
  -23.6829  -26.6928   22.1763 C   0  0  0  0  0  0  0  0  0  0  0  0
  -34.2089  -17.1759   20.9219 C   0  0  0  0  0  0  0  0  0  0  0  0
  -31.9658  -17.8731   21.4874 C   0  0  0  0  0  0  0  0  0  0  0  0
  -28.0039  -22.7223   19.8410 C   0  0  0  0  0  0  0  0  0  0  0  0
  -26.9144  -24.5549   19.3027 C   0  0  0  0  0  0  0  0  0  0  0  0
  -26.6768  -22.7054   17.6379 C   0  0  0  0  0  0  0  0  0  0  0  0
  -25.4168  -16.5507   20.3458 C   0  0  0  0  0  0  0  0  0  0  0  0
  -22.2472  -15.8728   20.4743 C   0  0  0  0  0  0  0  0  0  0  0  0
  -19.0714  -16.9712   21.0698 C   0  0  0  0  0  0  0  0  0  0  0  0
  -27.3369  -26.7214   25.0586 C   0  0  0  0  0  0  0  0  0  0  0  0
  -26.8944  -12.4711   17.6567 C   0  0  0  0  0  0  0  0  0  0  0  0
  -24.8104  -17.4123   22.6362 C   0  0  0  0  0  0  0  0  0  0  0  0
  -25.5109  -30.5068   21.7522 C   0  0  0  0  0  0  0  0  0  0  0  0
  -23.9614  -29.8006   19.9692 C   0  0  0  0  0  0  0  0  0  0  0  0
  -22.8849  -18.3116   20.5799 C   0  0  0  0  0  0  0  0  0  0  0  0
  -25.7582  -13.4864   17.5645 C   0  0  0  0  0  0  0  0  0  0  0  0
  -25.2094  -30.6501   20.2528 C   0  0  0  0  0  0  0  0  0  0  0  0
  -28.7836  -28.0603   21.9211 C   0  0  0  0  0  0  0  0  0  0  0  0
  -26.3011  -14.9071   17.6814 C   0  0  0  0  0  0  0  0  0  0  0  0
  -28.7529  -26.8515   20.9908 C   0  0  0  0  0  0  0  0  0  0  0  0
  -24.0098  -26.4498   25.7110 C   0  0  0  0  0  0  0  0  0  0  0  0
  -28.8797  -27.6415   23.3838 C   0  0  0  0  0  0  0  0  0  0  0  0
  -25.2933  -26.3675   26.5290 C   0  0  0  0  0  0  0  0  0  0  0  0
  -27.7506  -25.5007   22.8789 C   0  0  0  0  0  0  0  0  0  0  0  0
  -24.8333  -26.1512   24.4380 C   0  0  2  0  0  0  0  0  0  0  0  0
  -26.9829  -15.1274   19.0372 C   0  0  1  0  0  0  0  0  0  0  0  0
  -24.4131  -16.5210   21.4635 C   0  0  1  0  0  0  0  0  0  0  0  0
  -27.6272  -25.8883   21.3961 C   0  0  2  0  0  0  0  0  0  0  0  0
  -16.5847  -16.8462   21.3829 C   0  0  0  0  0  0  0  0  0  0  0  0
  -22.2213  -16.0125   17.4264 C   0  0  0  0  0  0  0  0  0  0  0  0
  -19.7255  -16.1842   17.5249 C   0  0  0  0  0  0  0  0  0  0  0  0
  -20.8692  -14.1458   18.3967 C   0  0  0  0  0  0  0  0  0  0  0  0
  -19.3478  -16.3835   23.9573 C   0  0  0  0  0  0  0  0  0  0  0  0
  -22.7410  -23.3451   21.2220 C   0  0  0  0  0  0  0  0  0  1  0  0
  -22.7265  -24.8480   21.0198 C   0  0  0  0  0  0  0  0  0  0  0  0
  -21.0285  -16.3081   19.6970 C   0  0  1  0  0  0  0  0  0  0  0  0
  -17.9402  -16.3833   21.8939 C   0  0  2  0  0  0  0  0  0  0  0  0
  -20.9775  -15.6814   18.2750 C   0  0  0  0  0  0  0  0  0  0  0  0
  -28.2578  -23.5689   20.8424 N   0  0  0  0  0  0  0  0  0  0  0  0
  -27.5817  -24.6744   20.4861 N   0  0  0  0  0  0  0  0  0  0  0  0
  -23.1194  -16.8907   20.8855 N   0  0  0  0  0  0  0  0  0  0  0  0
  -27.8373  -26.6795   23.7514 N   0  0  0  0  0  0  0  0  0  0  0  0
  -26.0236  -26.3683   25.2675 N   0  0  0  0  0  0  0  0  0  0  0  0
  -26.1844  -25.5717   18.7970 N   0  0  0  0  0  0  0  0  0  0  0  0
  -27.0385  -21.3871   17.3287 N   0  0  0  0  0  0  0  0  0  0  0  0
  -25.9932  -15.3244   20.0745 N   0  0  0  0  0  0  0  0  0  0  0  0
  -19.8759  -15.9887   20.5325 N   0  0  0  0  0  0  0  0  0  0  0  0
  -18.0703  -16.7949   23.3203 N   0  3  0  0  0  0  0  0  0  0  0  0
  -25.9487  -23.3451   16.8416 O   0  0  0  0  0  0  0  0  0  0  0  0
  -25.6500  -17.6075   19.7710 O   0  0  0  0  0  0  0  0  0  0  0  0
  -22.4153  -14.6746   20.7141 O   0  0  0  0  0  0  0  0  0  0  0  0
  -19.2238  -18.1809   20.9150 O   0  0  0  0  0  0  0  0  0  0  0  0
  -28.0370  -27.0911   26.0110 O   0  0  0  0  0  0  0  0  0  0  0  0
  -30.1811  -17.5723   19.8990 O   0  0  0  0  0  0  0  0  0  0  0  0
  -24.0313  -22.9494   21.6717 O   0  0  0  0  0  0  0  0  0  1  0  0
  -23.0510  -25.4868   22.2522 O   0  0  0  0  0  0  0  0  0  0  0  0
  -35.5011  -17.0468   21.2502 F   0  0  0  0  0  0  0  0  0  0  0  0
  -31.1084  -18.4149   22.3632 F   0  0  0  0  0  0  0  0  0  0  0  0
  1  2  1  0  0  0  0
  1  5  2  0  0  0  0
  2  6  2  0  0  0  0
  3  8  2  0  0  0  0
  3 17  1  0  0  0  0
  4  9  1  0  0  0  0
  4 17  2  0  0  0  0
  5 19  1  0  0  0  0
  6 21  1  0  0  0  0
  7 10  2  0  0  0  0
  7 20  1  0  0  0  0
  8 26  1  0  0  0  0
  9 26  2  0  0  0  0
 10 27  1  0  0  0  0
 11 12  2  0  0  0  0
 11 28  1  0  0  0  0
 12 30  1  0  0  0  0
 13 22  2  0  0  0  0
 13 23  1  0  0  0  0
 14 24  2  0  0  0  0
 14 29  1  0  0  0  0
 15 25  1  0  0  0  0
 15 27  2  0  0  0  0
 16 30  2  0  0  0  0
 16 31  1  0  0  0  0
 17 32  1  0  0  0  0
 18 32  1  0  0  0  0
 18 33  2  0  0  0  0
 18 34  1  0  0  0  0
 19 21  2  0  0  0  0
 19 39  1  0  0  0  0
 20 25  2  0  0  0  0
 20 40  1  0  0  0  0
 21 54  1  0  0  0  0
 22 24  1  0  0  0  0
 22 41  1  0  0  0  0
 23 29  2  0  0  0  0
 23 53  1  0  0  0  0
 24 42  1  0  0  0  0
 25 43  1  0  0  0  0
 26 82  1  0  0  0  0
 27 83  1  0  0  0  0
 28 31  2  0  0  0  0
 28 82  1  0  0  0  0
 29 84  1  0  0  0  0
 30 85  1  0  0  0  0
 31 86  1  0  0  0  0
 32 67  2  0  0  0  0
 33 68  1  0  0  0  0
 33 72  1  0  0  0  0
 34 73  1  0  0  0  0
 34 77  2  0  0  0  0
 35 55  1  0  0  0  0
 35 74  1  0  0  0  0
 35 78  2  0  0  0  0
 36 64  1  0  0  0  0
 36 69  1  0  0  0  0
 36 79  2  0  0  0  0
 37 65  1  0  0  0  0
 37 75  1  0  0  0  0
 37 80  2  0  0  0  0
 38 70  1  0  0  0  0
 38 71  1  0  0  0  0
 38 81  2  0  0  0  0
 39 44  1  0  0  0  0
 40 55  1  0  0  0  0
 41 45  1  0  0  0  0
 42 45  1  0  0  0  0
 43 69  1  0  0  0  0
 44 47  1  0  0  0  0
 46 48  1  0  0  0  0
 46 50  1  0  0  0  0
 47 54  1  0  0  0  0
 48 56  1  0  0  0  0
 49 51  1  0  0  0  0
 49 53  1  0  0  0  0
 50 70  1  0  0  0  0
 51 71  1  0  0  0  0
 52 56  1  0  0  0  0
 52 70  1  0  0  0  0
 53 71  1  0  0  0  0
 54 74  1  0  0  0  0
 55 69  1  0  0  0  0
 56 68  1  0  0  0  0
 57 65  1  0  0  0  0
 58 66  1  0  0  0  0
 59 66  1  0  0  0  0
 60 66  1  0  0  0  0
 61 76  1  0  0  0  0
 62 63  1  0  0  0  0
 62 83  1  0  0  0  0
 63 84  1  0  0  0  0
 64 66  1  0  0  0  0
 64 75  1  0  0  0  0
 65 76  1  0  0  0  0
 67 68  1  0  0  0  0
M  CHG  1  76   1
M  ISO  4  38 100  62 101  71 100  83 101
M  END
> <Batch ID>
0145

> <Smiles>
CNC(C)C(=O)NC(C(=O)N1Cc2cc([101O:1][101CH2:1]COc3cc4c(cc3C3CC[100N:0]3[100C:0](=O)N3CCCC(n5nc(-c6ccc(Oc7ccc(F)cc7F)cc6)c(C(N)=O)c5N)C3)CCC4)ccc2CC1C(=O)NC1CCCc2ccccc21)C(C)(C)C

> <Shape>
0.152

> <Color>
0.084

> <Negative vol penalty>
0.000

$$$$

  -OEChem-04052321283D

 85 94  0     1  0  0  0  0  0999 V2000
  -23.9768  -35.9404   27.9670 C   0  0  0  0  0  0  0  0  0  0  0  0
  -23.4608  -34.6570   28.1152 C   0  0  0  0  0  0  0  0  0  0  0  0
  -23.0614   -9.7533   20.3252 C   0  0  0  0  0  0  0  0  0  0  0  0
  -23.7195  -10.1810   22.6101 C   0  0  0  0  0  0  0  0  0  0  0  0
  -24.3826  -36.3865   26.7099 C   0  0  0  0  0  0  0  0  0  0  0  0
  -23.3492  -33.8193   27.0061 C   0  0  0  0  0  0  0  0  0  0  0  0
  -26.6792  -27.4339   26.8320 C   0  0  0  0  0  0  0  0  0  0  0  0
  -22.3095   -8.6569   20.7470 C   0  0  0  0  0  0  0  0  0  0  0  0
  -22.9675   -9.0845   23.0320 C   0  0  0  0  0  0  0  0  0  0  0  0
  -27.1130  -26.1083   26.8089 C   0  0  0  0  0  0  0  0  0  0  0  0
  -23.2892   -5.7195   23.0964 C   0  0  0  0  0  0  0  0  0  0  0  0
  -23.8744   -4.8465   24.0134 C   0  0  0  0  0  0  0  0  0  0  0  0
  -26.2687  -25.8601   24.5564 C   0  0  0  0  0  0  0  0  0  0  0  0
  -22.0991   -5.3081   25.5858 C   0  0  0  0  0  0  0  0  0  0  0  0
  -23.7665  -10.5154   21.2568 C   0  0  0  0  0  0  0  0  0  0  0  0
  -24.1084  -12.9808   20.6978 C   0  0  0  0  0  0  0  0  0  0  0  0
  -24.2849  -35.5504   25.5866 C   0  0  0  0  0  0  0  0  0  0  0  0
  -26.0515  -27.9830   25.7104 C   0  0  0  0  0  0  0  0  0  0  0  0
  -23.7528  -34.2550   25.7326 C   0  0  0  0  0  0  0  0  0  0  0  0
  -25.8432  -27.1911   24.5692 C   0  0  0  0  0  0  0  0  0  0  0  0
  -22.2625   -8.3225   22.1003 C   0  0  0  0  0  0  0  0  0  0  0  0
  -26.9080  -25.3233   25.6740 C   0  0  0  0  0  0  0  0  0  0  0  0
  -22.1089   -6.3869   23.4241 C   0  0  0  0  0  0  0  0  0  0  0  0
  -23.2794   -4.6408   25.2581 C   0  0  0  0  0  0  0  0  0  0  0  0
  -21.5139   -6.1812   24.6688 C   0  0  0  0  0  0  0  0  0  0  0  0
  -24.5438  -11.6479   20.8216 C   0  0  0  0  0  0  0  0  0  0  0  0
  -25.2140  -13.6633   20.2525 C   0  0  0  0  0  0  0  0  0  0  0  0
  -22.8196  -13.5512   20.9617 C   0  0  0  0  0  0  0  0  0  0  0  0
  -24.4569  -30.9951   24.1419 C   0  0  0  0  0  0  0  0  0  0  0  0
  -26.1519  -29.6502   21.9674 C   0  0  0  0  0  0  0  0  0  0  0  0
  -28.4604  -28.1089   19.9843 C   0  0  0  0  0  0  0  0  0  0  0  0
  -30.6821  -14.7536   20.4894 C   0  0  0  0  0  0  0  0  0  0  0  0
  -24.6924  -36.0934   24.2398 C   0  0  0  0  0  0  0  0  0  0  0  0
  -25.5129  -29.3879   25.7130 C   0  0  0  0  0  0  0  0  0  0  0  0
  -25.1326  -27.8137   23.3986 C   0  0  0  0  0  0  0  0  0  0  0  0
  -24.8896  -35.0115   23.1811 C   0  0  0  0  0  0  0  0  0  0  0  0
  -29.6554  -11.9669   18.5255 C   0  0  0  0  0  0  0  0  0  0  0  0
  -23.7277  -34.0236   23.2044 C   0  0  0  0  0  0  0  0  0  0  0  0
  -31.0968  -19.3783   20.3199 C   0  0  0  0  0  0  0  0  0  0  0  0
  -30.8338  -19.1213   22.8204 C   0  0  0  0  0  0  0  0  0  0  0  0
  -29.6432  -22.4136   23.1690 C   0  0  0  0  0  0  0  0  0  0  0  0
  -27.2807  -21.5994   22.7791 C   0  0  0  0  0  0  0  0  0  0  0  0
  -28.2009  -11.7418   18.9422 C   0  0  0  0  0  0  0  0  0  0  0  0
  -30.4645  -18.0021   20.1097 C   0  0  0  0  0  0  0  0  0  0  0  0
  -30.2017  -17.7443   22.6146 C   0  0  0  0  0  0  0  0  0  0  0  0
  -29.1903  -23.1011   24.4535 C   0  0  0  0  0  0  0  0  0  0  0  0
  -26.8342  -22.2898   24.0644 C   0  0  0  0  0  0  0  0  0  0  0  0
  -30.5183  -12.4096   19.7051 C   0  0  0  0  0  0  0  0  0  0  0  0
  -28.5559  -13.3598   20.8539 C   0  0  0  0  0  0  0  0  0  0  0  0
  -23.6391  -33.3079   24.5578 C   0  0  1  0  0  0  0  0  0  0  0  0
  -25.6299  -30.0816   24.3440 C   0  0  1  0  0  0  0  0  0  0  0  0
  -30.6422  -20.0583   21.6193 C   0  0  0  0  0  0  0  0  0  0  0  0
  -28.7622  -21.2014   22.8360 C   0  0  0  0  0  0  0  0  0  0  0  0
  -27.6349  -12.9662   19.6864 C   0  0  2  0  0  0  0  0  0  0  0  0
  -30.6892  -17.0924   21.3194 C   0  0  0  0  0  0  0  0  0  0  0  0
  -27.7161  -23.4923   24.3945 C   0  0  0  0  0  0  0  0  0  1  0  0
  -29.4658  -28.2104   17.6873 C   0  0  0  0  0  0  0  0  0  0  0  0
  -29.0556  -21.5539   20.3675 C   0  0  0  0  0  0  0  0  0  0  0  0
  -23.6277  -28.3877   20.8108 C   0  0  0  0  0  0  0  0  0  0  0  0
  -24.9830  -27.6573   18.8365 C   0  0  0  0  0  0  0  0  0  0  0  0
  -24.7156  -30.0871   19.3334 C   0  0  0  0  0  0  0  0  0  0  0  0
  -31.1705  -28.6028   21.0661 C   0  0  0  0  0  0  0  0  0  0  0  0
  -26.1937  -28.6734   20.8196 C   0  0  1  0  0  0  0  0  0  0  0  0
  -29.5889  -28.6634   19.1338 C   0  0  2  0  0  0  0  0  0  0  0  0
  -29.1997  -20.5622   21.5195 C   0  0  1  0  0  0  0  0  0  0  0  0
  -24.8875  -28.6937   19.9764 C   0  0  0  0  0  0  0  0  0  0  0  0
  -25.8261  -11.4907   20.4823 N   0  0  0  0  0  0  0  0  0  0  0  0
  -26.2058  -12.7338   20.1407 N   0  0  0  0  0  0  0  0  0  0  0  0
  -25.6293  -29.1810   23.1786 N   0  0  0  0  0  0  0  0  0  0  0  0
  -29.9273  -13.5754   20.3664 N   0  0  0  0  0  0  0  0  0  0  0  0
  -25.4248  -14.9618   19.9494 N   0  0  0  0  0  0  0  0  0  0  0  0
  -21.7956  -12.7077   21.4137 N   0  0  0  0  0  0  0  0  0  0  0  0
  -24.6419  -32.2682   24.6463 N   0  0  0  0  0  0  0  0  0  0  0  0
  -27.3997  -28.9866   20.0607 N   0  0  0  0  0  0  0  0  0  0  0  0
  -30.0447  -15.8130   21.1234 N   0  0  0  0  0  0  0  0  0  0  0  0
  -30.9064  -28.2058   19.6591 N   0  3  0  0  0  0  0  0  0  0  0  0
  -22.5787  -14.7696   20.7858 O   0  0  0  0  0  0  0  0  0  0  0  0
  -23.4573  -30.5773   23.5692 O   0  0  0  0  0  0  0  0  0  0  0  0
  -26.5656  -30.8004   21.7959 O   0  0  0  0  0  0  0  0  0  0  0  0
  -28.5129  -27.0058   20.5237 O   0  0  0  0  0  0  0  0  0  0  0  0
  -31.8366  -14.8556   20.0608 O   0  0  0  0  0  0  0  0  0  0  0  0
  -21.5287   -7.2527   22.5123 O   0  0  0  0  0  0  0  0  0  0  0  0
  -27.3380  -24.0312   25.6565 O   0  0  0  0  0  0  0  0  0  1  0  0
  -23.8407   -3.8012   26.1380 F   0  0  0  0  0  0  0  0  0  0  0  0
  -20.3794   -6.8185   24.9888 F   0  0  0  0  0  0  0  0  0  0  0  0
  1  2  1  0  0  0  0
  1  5  2  0  0  0  0
  2  6  2  0  0  0  0
  3  8  2  0  0  0  0
  3 15  1  0  0  0  0
  4  9  1  0  0  0  0
  4 15  2  0  0  0  0
  5 17  1  0  0  0  0
  6 19  1  0  0  0  0
  7 10  2  0  0  0  0
  7 18  1  0  0  0  0
  8 21  1  0  0  0  0
  9 21  2  0  0  0  0
 10 22  1  0  0  0  0
 11 12  2  0  0  0  0
 11 23  1  0  0  0  0
 12 24  1  0  0  0  0
 13 20  1  0  0  0  0
 13 22  2  0  0  0  0
 14 24  2  0  0  0  0
 14 25  1  0  0  0  0
 15 26  1  0  0  0  0
 16 26  1  0  0  0  0
 16 27  2  0  0  0  0
 16 28  1  0  0  0  0
 17 19  2  0  0  0  0
 17 33  1  0  0  0  0
 18 20  2  0  0  0  0
 18 34  1  0  0  0  0
 19 50  1  0  0  0  0
 20 35  1  0  0  0  0
 21 82  1  0  0  0  0
 22 83  1  0  0  0  0
 23 25  2  0  0  0  0
 23 82  1  0  0  0  0
 24 84  1  0  0  0  0
 25 85  1  0  0  0  0
 26 67  2  0  0  0  0
 27 68  1  0  0  0  0
 27 71  1  0  0  0  0
 28 72  1  0  0  0  0
 28 77  2  0  0  0  0
 29 51  1  0  0  0  0
 29 73  1  0  0  0  0
 29 78  2  0  0  0  0
 30 63  1  0  0  0  0
 30 69  1  0  0  0  0
 30 79  2  0  0  0  0
 31 64  1  0  0  0  0
 31 74  1  0  0  0  0
 31 80  2  0  0  0  0
 32 70  1  0  0  0  0
 32 75  1  0  0  0  0
 32 81  2  0  0  0  0
 33 36  1  0  0  0  0
 34 51  1  0  0  0  0
 35 69  1  0  0  0  0
 36 38  1  0  0  0  0
 37 43  1  0  0  0  0
 37 48  1  0  0  0  0
 38 50  1  0  0  0  0
 39 44  1  0  0  0  0
 39 52  1  0  0  0  0
 40 45  1  0  0  0  0
 40 52  1  0  0  0  0
 41 46  1  0  0  0  0
 41 53  1  0  0  0  0
 42 47  1  0  0  0  0
 42 53  1  0  0  0  0
 43 54  1  0  0  0  0
 44 55  1  0  0  0  0
 45 55  1  0  0  0  0
 46 56  1  0  0  0  0
 47 56  1  0  0  0  0
 48 70  1  0  0  0  0
 49 54  1  0  0  0  0
 49 70  1  0  0  0  0
 50 73  1  0  0  0  0
 51 69  1  0  0  0  0
 52 65  1  0  0  0  0
 53 65  1  0  0  0  0
 54 68  1  0  0  0  0
 55 75  1  0  0  0  0
 56 83  1  0  0  0  0
 57 64  1  0  0  0  0
 58 65  1  0  0  0  0
 59 66  1  0  0  0  0
 60 66  1  0  0  0  0
 61 66  1  0  0  0  0
 62 76  1  0  0  0  0
 63 66  1  0  0  0  0
 63 74  1  0  0  0  0
 64 76  1  0  0  0  0
 67 68  1  0  0  0  0
M  CHG  1  76   1
M  ISO  4  32 100  56 101  75 100  83 101
M  END
> <Batch ID>
0145

> <Smiles>
CNC(C)C(=O)NC(C(=O)N1Cc2cc([101O:1][101CH:1]3CCC(C(C)C4CCC([100NH:0][100C:0](=O)N5CCCC(n6nc(-c7ccc(Oc8ccc(F)cc8F)cc7)c(C(N)=O)c6N)C5)CC4)CC3)ccc2CC1C(=O)NC1CCCc2ccccc21)C(C)(C)C

> <Shape>
0.317

> <Color>
0.191

> <Negative vol penalty>
0.000

$$$$

  -OEChem-04052321283D

 86 95  0     1  0  0  0  0  0999 V2000
  -23.8464  -36.2882   28.5627 C   0  0  0  0  0  0  0  0  0  0  0  0
  -23.4825  -35.2149   27.7558 C   0  0  0  0  0  0  0  0  0  0  0  0
  -24.5516   -9.2023   21.4913 C   0  0  0  0  0  0  0  0  0  0  0  0
  -22.7583  -10.4586   20.4703 C   0  0  0  0  0  0  0  0  0  0  0  0
  -24.7158  -37.2627   28.0743 C   0  0  0  0  0  0  0  0  0  0  0  0
  -23.9869  -35.1161   26.4596 C   0  0  0  0  0  0  0  0  0  0  0  0
  -25.5607  -30.4350   25.3390 C   0  0  0  0  0  0  0  0  0  0  0  0
  -23.6958   -8.1129   21.6541 C   0  0  0  0  0  0  0  0  0  0  0  0
  -21.9024   -9.3692   20.6330 C   0  0  0  0  0  0  0  0  0  0  0  0
  -24.5827  -29.4932   25.0225 C   0  0  0  0  0  0  0  0  0  0  0  0
  -21.2326   -7.1756   23.7704 C   0  0  0  0  0  0  0  0  0  0  0  0
  -21.2479   -6.5186   25.0007 C   0  0  0  0  0  0  0  0  0  0  0  0
  -25.0441  -29.8114   22.6762 C   0  0  0  0  0  0  0  0  0  0  0  0
  -21.8996   -4.4698   23.8985 C   0  0  0  0  0  0  0  0  0  0  0  0
  -24.0828  -10.3751   20.8994 C   0  0  0  0  0  0  0  0  0  0  0  0
  -26.1662  -11.5377   19.9962 C   0  0  0  0  0  0  0  0  0  0  0  0
  -25.2387  -37.1707   26.7748 C   0  0  0  0  0  0  0  0  0  0  0  0
  -26.2814  -31.0812   24.3243 C   0  0  0  0  0  0  0  0  0  0  0  0
  -24.8630  -36.0910   25.9529 C   0  0  0  0  0  0  0  0  0  0  0  0
  -26.0325  -30.7592   22.9825 C   0  0  0  0  0  0  0  0  0  0  0  0
  -22.3712   -8.1964   21.2250 C   0  0  0  0  0  0  0  0  0  0  0  0
  -24.3222  -29.1833   23.6908 C   0  0  0  0  0  0  0  0  0  0  0  0
  -21.5508   -6.4797   22.6041 C   0  0  0  0  0  0  0  0  0  0  0  0
  -21.5814   -5.1657   25.0648 C   0  0  0  0  0  0  0  0  0  0  0  0
  -21.8843   -5.1268   22.6682 C   0  0  0  0  0  0  0  0  0  0  0  0
  -24.9662  -11.5010   20.7315 C   0  0  0  0  0  0  0  0  0  0  0  0
  -26.6229  -12.8240   20.1485 C   0  0  0  0  0  0  0  0  0  0  0  0
  -26.8103  -10.5017   19.2429 C   0  0  0  0  0  0  0  0  0  0  0  0
  -26.6058  -34.0976   23.3757 C   0  0  0  0  0  0  0  0  0  0  0  0
  -28.8284  -32.8236   21.3859 C   0  0  0  0  0  0  0  0  0  0  0  0
  -29.9949  -30.0825   19.7208 C   0  0  0  0  0  0  0  0  0  0  0  0
  -23.5899  -17.8454   21.5051 C   0  0  0  0  0  0  0  0  0  0  0  0
  -26.1378  -38.2733   26.2743 C   0  0  0  0  0  0  0  0  0  0  0  0
  -27.3517  -32.0752   24.6832 C   0  0  0  0  0  0  0  0  0  0  0  0
  -26.7925  -31.4098   21.8567 C   0  0  0  0  0  0  0  0  0  0  0  0
  -26.9229  -37.8971   25.0204 C   0  0  0  0  0  0  0  0  0  0  0  0
  -25.6821  -15.6339   23.8526 C   0  0  0  0  0  0  0  0  0  0  0  0
  -26.0073  -37.2343   23.9960 C   0  0  0  0  0  0  0  0  0  0  0  0
  -19.0539  -26.5765   23.4670 C   0  0  0  0  0  0  0  0  0  0  0  0
  -19.2422  -27.6081   24.5442 C   0  0  0  0  0  0  0  0  0  0  0  0
  -21.6687  -22.3228   22.4196 C   0  0  0  0  0  0  0  0  0  0  0  0
  -23.1473  -22.3266   20.3698 C   0  0  0  0  0  0  0  0  0  0  0  0
  -26.5331  -15.0715   22.7180 C   0  0  0  0  0  0  0  0  0  0  0  0
  -22.3466  -21.0426   22.9089 C   0  0  0  0  0  0  0  0  0  0  0  0
  -23.8272  -21.0459   20.8551 C   0  0  0  0  0  0  0  0  0  0  0  0
  -24.9698  -16.9115   23.4193 C   0  0  0  0  0  0  0  0  0  0  0  0
  -24.3091  -15.4697   21.4939 C   0  0  0  0  0  0  0  0  0  0  0  0
  -25.4086  -35.9357   24.5499 C   0  0  1  0  0  0  0  0  0  0  0  0
  -27.6670  -33.0485   23.5515 C   0  0  1  0  0  0  0  0  0  0  0  0
  -22.5700  -23.1734   21.5131 C   0  0  0  0  0  0  0  0  0  0  0  0
  -20.3396  -27.3519   23.5488 C   0  0  0  0  0  0  0  0  0  0  0  0
  -25.7356  -14.8989   21.4068 C   0  0  2  0  0  0  0  0  0  0  0  0
  -22.8948  -20.2186   21.7419 C   0  0  0  0  0  0  0  0  0  0  0  0
  -31.8075  -29.3598   18.1430 C   0  0  0  0  0  0  0  0  0  0  0  0
  -24.6041  -24.6422   21.3696 C   0  0  0  0  0  0  0  0  0  0  0  0
  -27.3561  -34.1741   19.0798 C   0  0  0  0  0  0  0  0  0  0  0  0
  -28.6000  -32.6799   17.5024 C   0  0  0  0  0  0  0  0  0  0  0  0
  -29.8501  -34.2927   18.9372 C   0  0  0  0  0  0  0  0  0  0  0  0
  -31.0769  -28.1370   21.6710 C   0  0  0  0  0  0  0  0  0  0  0  0
  -23.1153  -24.7582   23.4318 C   0  0  0  0  0  0  0  0  0  0  0  0
  -22.6713  -27.6572   24.4664 C   0  0  0  0  0  0  0  0  0  1  0  0
  -28.8088  -32.2444   19.9919 C   0  0  1  0  0  0  0  0  0  0  0  0
  -31.3898  -29.4961   19.5989 C   0  0  2  0  0  0  0  0  0  0  0  0
  -23.6732  -23.8749   22.3101 C   0  0  1  0  0  0  0  0  0  0  0  0
  -21.6069  -26.6722   23.9796 C   0  0  2  0  0  0  0  0  0  0  0  0
  -28.6379  -33.3368   18.8987 C   0  0  0  0  0  0  0  0  0  0  0  0
  -24.6789  -12.6709   21.3082 N   0  0  0  0  0  0  0  0  0  0  0  0
  -25.7048  -13.4549   20.9354 N   0  0  0  0  0  0  0  0  0  0  0  0
  -27.8247  -32.3797   22.2584 N   0  0  0  0  0  0  0  0  0  0  0  0
  -24.2935  -16.7923   22.1213 N   0  0  0  0  0  0  0  0  0  0  0  0
  -27.7164  -13.4657   19.6849 N   0  0  0  0  0  0  0  0  0  0  0  0
  -26.4844  -10.3603   17.8871 N   0  0  0  0  0  0  0  0  0  0  0  0
  -26.3845  -34.8682   24.5011 N   0  0  0  0  0  0  0  0  0  0  0  0
  -30.0279  -31.4538   19.8612 N   0  0  0  0  0  0  0  0  0  0  0  0
  -23.5731  -19.0374   22.2249 N   0  0  0  0  0  0  0  0  0  0  0  0
  -31.4418  -28.1475   20.2310 N   0  3  0  0  0  0  0  0  0  0  0  0
  -22.2122  -25.8164   22.9150 N   0  3  0  0  0  0  0  0  0  0  0  0
  -27.6378   -9.7140   19.7607 O   0  0  0  0  0  0  0  0  0  0  0  0
  -26.0314  -34.2013   22.2982 O   0  0  0  0  0  0  0  0  0  0  0  0
  -29.7064  -33.6344   21.6916 O   0  0  0  0  0  0  0  0  0  0  0  0
  -28.9777  -29.3934   19.6905 O   0  0  0  0  0  0  0  0  0  0  0  0
  -23.0254  -17.7318   20.4129 O   0  0  0  0  0  0  0  0  0  0  0  0
  -21.5359   -7.1335   21.3835 O   0  0  0  0  0  0  0  0  0  0  0  0
  -23.3677  -28.2649   23.3791 O   0  0  0  0  0  0  0  0  0  1  0  0
  -21.5975   -4.5353   26.2465 F   0  0  0  0  0  0  0  0  0  0  0  0
  -22.1920   -4.4532   21.5513 F   0  0  0  0  0  0  0  0  0  0  0  0
  1  2  1  0  0  0  0
  1  5  2  0  0  0  0
  2  6  2  0  0  0  0
  3  8  2  0  0  0  0
  3 15  1  0  0  0  0
  4  9  1  0  0  0  0
  4 15  2  0  0  0  0
  5 17  1  0  0  0  0
  6 19  1  0  0  0  0
  7 10  2  0  0  0  0
  7 18  1  0  0  0  0
  8 21  1  0  0  0  0
  9 21  2  0  0  0  0
 10 22  1  0  0  0  0
 11 12  2  0  0  0  0
 11 23  1  0  0  0  0
 12 24  1  0  0  0  0
 13 20  1  0  0  0  0
 13 22  2  0  0  0  0
 14 24  2  0  0  0  0
 14 25  1  0  0  0  0
 15 26  1  0  0  0  0
 16 26  1  0  0  0  0
 16 27  2  0  0  0  0
 16 28  1  0  0  0  0
 17 19  2  0  0  0  0
 17 33  1  0  0  0  0
 18 20  2  0  0  0  0
 18 34  1  0  0  0  0
 19 48  1  0  0  0  0
 20 35  1  0  0  0  0
 21 83  1  0  0  0  0
 22 84  1  0  0  0  0
 23 25  2  0  0  0  0
 23 83  1  0  0  0  0
 24 85  1  0  0  0  0
 25 86  1  0  0  0  0
 26 67  2  0  0  0  0
 27 68  1  0  0  0  0
 27 71  1  0  0  0  0
 28 72  1  0  0  0  0
 28 78  2  0  0  0  0
 29 49  1  0  0  0  0
 29 73  1  0  0  0  0
 29 79  2  0  0  0  0
 30 62  1  0  0  0  0
 30 69  1  0  0  0  0
 30 80  2  0  0  0  0
 31 63  1  0  0  0  0
 31 74  1  0  0  0  0
 31 81  2  0  0  0  0
 32 70  1  0  0  0  0
 32 75  1  0  0  0  0
 32 82  2  0  0  0  0
 33 36  1  0  0  0  0
 34 49  1  0  0  0  0
 35 69  1  0  0  0  0
 36 38  1  0  0  0  0
 37 43  1  0  0  0  0
 37 46  1  0  0  0  0
 38 48  1  0  0  0  0
 39 40  1  0  0  0  0
 39 51  1  0  0  0  0
 40 51  1  0  0  0  0
 41 44  1  0  0  0  0
 41 50  1  0  0  0  0
 42 45  1  0  0  0  0
 42 50  1  0  0  0  0
 43 52  1  0  0  0  0
 44 53  1  0  0  0  0
 45 53  1  0  0  0  0
 46 70  1  0  0  0  0
 47 52  1  0  0  0  0
 47 70  1  0  0  0  0
 48 73  1  0  0  0  0
 49 69  1  0  0  0  0
 50 64  1  0  0  0  0
 51 65  1  0  0  0  0
 52 68  1  0  0  0  0
 53 75  1  0  0  0  0
 54 63  1  0  0  0  0
 55 64  1  0  0  0  0
 56 66  1  0  0  0  0
 57 66  1  0  0  0  0
 58 66  1  0  0  0  0
 59 76  1  0  0  0  0
 60 64  1  0  0  0  0
 60 77  1  0  0  0  0
 61 65  1  0  0  0  0
 61 84  1  0  0  0  0
 62 66  1  0  0  0  0
 62 74  1  0  0  0  0
 63 76  1  0  0  0  0
 65 77  1  0  0  0  0
 67 68  1  0  0  0  0
M  CHG  2  76   1  77   1
M  ISO  4  32 100  61 101  75 100  84 101
M  END
> <Batch ID>
0145

> <Smiles>
CNC(C)C(=O)NC(C(=O)N1Cc2cc([101O:1][101CH2:1]C(NCC(C)C3CCC([100NH:0][100C:0](=O)N4CCCC(n5nc(-c6ccc(Oc7ccc(F)cc7F)cc6)c(C(N)=O)c5N)C4)CC3)C3CC3)ccc2CC1C(=O)NC1CCCc2ccccc21)C(C)(C)C

> <Shape>
0.234

> <Color>
0.091

> <Negative vol penalty>
0.000

$$$$

  -OEChem-04052321283D

 87 96  0     1  0  0  0  0  0999 V2000
  -26.2111  -36.5287   19.3864 C   0  0  0  0  0  0  0  0  0  0  0  0
  -26.9085  -35.5354   18.7064 C   0  0  0  0  0  0  0  0  0  0  0  0
  -24.5423   -9.2657   21.7437 C   0  0  0  0  0  0  0  0  0  0  0  0
  -23.1233  -10.9397   22.7544 C   0  0  0  0  0  0  0  0  0  0  0  0
  -25.8219  -36.3244   20.7095 C   0  0  0  0  0  0  0  0  0  0  0  0
  -27.2180  -34.3375   19.3496 C   0  0  0  0  0  0  0  0  0  0  0  0
  -28.0419  -27.3444   18.0325 C   0  0  0  0  0  0  0  0  0  0  0  0
  -24.0696   -8.3173   22.6508 C   0  0  0  0  0  0  0  0  0  0  0  0
  -22.6506   -9.9913   23.6614 C   0  0  0  0  0  0  0  0  0  0  0  0
  -28.9596  -26.3128   18.2258 C   0  0  0  0  0  0  0  0  0  0  0  0
  -21.3143   -6.3957   23.0361 C   0  0  0  0  0  0  0  0  0  0  0  0
  -20.9636   -5.1408   22.5382 C   0  0  0  0  0  0  0  0  0  0  0  0
  -28.1670  -26.0395   20.4877 C   0  0  0  0  0  0  0  0  0  0  0  0
  -28.6871  -20.9590   18.9229 C   0  0  0  0  0  0  0  0  0  0  0  0
  -29.4455  -21.8494   21.0368 C   0  0  0  0  0  0  0  0  0  0  0  0
  -22.6154   -4.1113   23.9696 C   0  0  0  0  0  0  0  0  0  0  0  0
  -24.0692  -10.5769   21.7956 C   0  0  0  0  0  0  0  0  0  0  0  0
  -24.0213  -11.8662   19.5949 C   0  0  0  0  0  0  0  0  0  0  0  0
  -26.1183  -35.1196   21.3661 C   0  0  0  0  0  0  0  0  0  0  0  0
  -27.1858  -27.7393   19.0707 C   0  0  0  0  0  0  0  0  0  0  0  0
  -26.8336  -34.1174   20.6832 C   0  0  0  0  0  0  0  0  0  0  0  0
  -27.2376  -27.0747   20.3043 C   0  0  0  0  0  0  0  0  0  0  0  0
  -27.5239  -20.3869   20.9617 C   0  0  0  0  0  0  0  0  0  0  0  0
  -29.5804  -21.7433   19.6526 C   0  0  0  0  0  0  0  0  0  0  0  0
  -27.6588  -20.2808   19.5774 C   0  0  0  0  0  0  0  0  0  0  0  0
  -28.4173  -21.1712   21.6914 C   0  0  0  0  0  0  0  0  0  0  0  0
  -23.1237   -8.6801   23.6096 C   0  0  0  0  0  0  0  0  0  0  0  0
  -29.0243  -25.6621   19.4544 C   0  0  0  0  0  0  0  0  0  0  0  0
  -22.3156   -6.5084   24.0008 C   0  0  0  0  0  0  0  0  0  0  0  0
  -21.6142   -3.9986   23.0049 C   0  0  0  0  0  0  0  0  0  0  0  0
  -22.9661   -5.3662   24.4675 C   0  0  0  0  0  0  0  0  0  0  0  0
  -24.5576  -11.5571   20.8592 C   0  0  0  0  0  0  0  0  0  0  0  0
  -24.8397  -12.8555   19.1072 C   0  0  0  0  0  0  0  0  0  0  0  0
  -22.8849  -11.3088   18.9214 C   0  0  0  0  0  0  0  0  0  0  0  0
  -26.7429  -30.4236   20.7144 C   0  0  0  0  0  0  0  0  0  0  0  0
  -24.2510  -28.7775   21.9805 C   0  0  0  0  0  0  0  0  0  0  0  0
  -22.8439  -25.7531   22.7015 C   0  0  0  0  0  0  0  0  0  0  0  0
  -28.3599  -16.9100   21.7569 C   0  0  0  0  0  0  0  0  0  0  0  0
  -25.7182  -34.9632   22.8119 C   0  0  0  0  0  0  0  0  0  0  0  0
  -26.1831  -28.8359   18.8377 C   0  0  0  0  0  0  0  0  0  0  0  0
  -26.3266  -27.4470   21.4445 C   0  0  0  0  0  0  0  0  0  0  0  0
  -25.7576  -33.5181   23.3019 C   0  0  0  0  0  0  0  0  0  0  0  0
  -29.3399  -14.4593   19.3673 C   0  0  0  0  0  0  0  0  0  0  0  0
  -27.0542  -32.8422   22.8674 C   0  0  0  0  0  0  0  0  0  0  0  0
  -28.1770  -13.4655   19.3646 C   0  0  0  0  0  0  0  0  0  0  0  0
  -25.4780  -20.6333   22.4044 C   0  0  0  0  0  0  0  0  0  0  0  0
  -25.9646  -18.8109   23.8868 C   0  0  0  0  0  0  0  0  0  0  0  0
  -29.6062  -15.0125   20.7655 C   0  0  0  0  0  0  0  0  0  0  0  0
  -27.2675  -14.6087   21.4297 C   0  0  0  0  0  0  0  0  0  0  0  0
  -26.4216  -19.6593   21.6633 C   0  0  2  0  0  0  0  0  0  0  0  0
  -27.1662  -32.7946   21.3388 C   0  0  1  0  0  0  0  0  0  0  0  0
  -25.7130  -29.4998   20.1283 C   0  0  1  0  0  0  0  0  0  0  0  0
  -25.6196  -20.2975   23.8924 C   0  0  2  0  0  0  0  0  0  0  0  0
  -26.9249  -14.0657   20.0318 C   0  0  2  0  0  0  0  0  0  0  0  0
  -26.9781  -18.7162   22.7506 C   0  0  2  0  0  0  0  0  0  0  0  0
  -26.7162  -19.4465   18.7730 C   0  0  0  0  0  0  0  0  0  0  0  0
  -28.2945  -21.3012   23.1746 C   0  0  0  0  0  0  0  0  0  0  0  0
  -24.3741  -20.6190   24.7006 C   0  0  0  0  0  0  0  0  0  0  0  0
  -20.8197  -24.7275   23.7731 C   0  0  0  0  0  0  0  0  0  0  0  0
  -25.3828  -29.4305   24.7377 C   0  0  0  0  0  0  0  0  0  0  0  0
  -23.9177  -27.6360   25.6873 C   0  0  0  0  0  0  0  0  0  0  0  0
  -22.8948  -29.6130   24.5613 C   0  0  0  0  0  0  0  0  0  0  0  0
  -22.0443  -24.4181   20.1841 C   0  0  0  0  0  0  0  0  0  0  0  0
  -30.6927  -22.4777   18.9442 C   0  0  0  0  0  0  0  0  0  0  0  0
  -30.2755  -23.8768   18.5042 C   0  0  0  0  0  0  0  0  0  1  0  0
  -24.0671  -27.8608   23.1658 C   0  0  1  0  0  0  0  0  0  0  0  0
  -21.4431  -25.2140   22.4740 C   0  0  2  0  0  0  0  0  0  0  0  0
  -24.0843  -28.6291   24.5174 C   0  0  0  0  0  0  0  0  0  0  0  0
  -25.6336  -12.2906   21.1562 N   0  0  0  0  0  0  0  0  0  0  0  0
  -25.7801  -13.0704   20.0715 N   0  0  0  0  0  0  0  0  0  0  0  0
  -25.3677  -28.5298   21.1695 N   0  0  0  0  0  0  0  0  0  0  0  0
  -28.3793  -15.5683   21.3415 N   0  0  0  0  0  0  0  0  0  0  0  0
  -24.8396  -13.5539   17.9520 N   0  0  0  0  0  0  0  0  0  0  0  0
  -22.1550  -10.3003   19.5653 N   0  0  0  0  0  0  0  0  0  0  0  0
  -26.3322  -31.7400   20.8035 N   0  0  0  0  0  0  0  0  0  0  0  0
  -22.8381  -27.1148   22.9180 N   0  0  0  0  0  0  0  0  0  0  0  0
  -27.1558  -17.3586   22.2857 N   0  0  0  0  0  0  0  0  0  0  0  0
  -21.4761  -24.0752   21.5132 N   0  3  0  0  0  0  0  0  0  0  0  0
  -22.5370  -11.6821   17.7755 O   0  0  0  0  0  0  0  0  0  0  0  0
  -27.8292  -29.9751   21.0614 O   0  0  0  0  0  0  0  0  0  0  0  0
  -23.4301  -29.6755   21.7774 O   0  0  0  0  0  0  0  0  0  0  0  0
  -23.8428  -25.0372   22.6920 O   0  0  0  0  0  0  0  0  0  0  0  0
  -29.3412  -17.6545   21.6587 O   0  0  0  0  0  0  0  0  0  0  0  0
  -22.6620   -7.7549   24.4947 O   0  0  0  0  0  0  0  0  0  0  0  0
  -29.9196  -24.6553   19.6459 O   0  0  0  0  0  0  0  0  0  1  0  0
  -21.2763   -2.7935   22.5278 F   0  0  0  0  0  0  0  0  0  0  0  0
  -23.9280   -5.4681   25.3950 F   0  0  0  0  0  0  0  0  0  0  0  0
  1  2  1  0  0  0  0
  1  5  2  0  0  0  0
  2  6  2  0  0  0  0
  3  8  2  0  0  0  0
  3 17  1  0  0  0  0
  4  9  1  0  0  0  0
  4 17  2  0  0  0  0
  5 19  1  0  0  0  0
  6 21  1  0  0  0  0
  7 10  2  0  0  0  0
  7 20  1  0  0  0  0
  8 27  1  0  0  0  0
  9 27  2  0  0  0  0
 10 28  1  0  0  0  0
 11 12  2  0  0  0  0
 11 29  1  0  0  0  0
 12 30  1  0  0  0  0
 13 22  1  0  0  0  0
 13 28  2  0  0  0  0
 14 24  1  0  0  0  0
 14 25  2  0  0  0  0
 15 24  2  0  0  0  0
 15 26  1  0  0  0  0
 16 30  2  0  0  0  0
 16 31  1  0  0  0  0
 17 32  1  0  0  0  0
 18 32  1  0  0  0  0
 18 33  2  0  0  0  0
 18 34  1  0  0  0  0
 19 21  2  0  0  0  0
 19 39  1  0  0  0  0
 20 22  2  0  0  0  0
 20 40  1  0  0  0  0
 21 51  1  0  0  0  0
 22 41  1  0  0  0  0
 23 25  1  0  0  0  0
 23 26  2  0  0  0  0
 23 50  1  0  0  0  0
 24 64  1  0  0  0  0
 25 56  1  0  0  0  0
 26 57  1  0  0  0  0
 27 84  1  0  0  0  0
 28 85  1  0  0  0  0
 29 31  2  0  0  0  0
 29 84  1  0  0  0  0
 30 86  1  0  0  0  0
 31 87  1  0  0  0  0
 32 69  2  0  0  0  0
 33 70  1  0  0  0  0
 33 73  1  0  0  0  0
 34 74  1  0  0  0  0
 34 79  2  0  0  0  0
 35 52  1  0  0  0  0
 35 75  1  0  0  0  0
 35 80  2  0  0  0  0
 36 66  1  0  0  0  0
 36 71  1  0  0  0  0
 36 81  2  0  0  0  0
 37 67  1  0  0  0  0
 37 76  1  0  0  0  0
 37 82  2  0  0  0  0
 38 72  1  0  0  0  0
 38 77  1  0  0  0  0
 38 83  2  0  0  0  0
 39 42  1  0  0  0  0
 40 52  1  0  0  0  0
 41 71  1  0  0  0  0
 42 44  1  0  0  0  0
 43 45  1  0  0  0  0
 43 48  1  0  0  0  0
 44 51  1  0  0  0  0
 45 54  1  0  0  0  0
 46 50  1  0  0  0  0
 46 53  1  0  0  0  0
 47 53  1  0  0  0  0
 47 55  1  0  0  0  0
 48 72  1  0  0  0  0
 49 54  1  0  0  0  0
 49 72  1  0  0  0  0
 50 55  1  0  0  0  0
 51 75  1  0  0  0  0
 52 71  1  0  0  0  0
 53 58  1  0  0  0  0
 54 70  1  0  0  0  0
 55 77  1  0  0  0  0
 59 67  1  0  0  0  0
 60 68  1  0  0  0  0
 61 68  1  0  0  0  0
 62 68  1  0  0  0  0
 63 78  1  0  0  0  0
 64 65  1  0  0  0  0
 65 85  1  0  0  0  0
 66 68  1  0  0  0  0
 66 76  1  0  0  0  0
 67 78  1  0  0  0  0
 69 70  1  0  0  0  0
M  CHG  1  78   1
M  ISO  4  38 100  65 101  77 100  85 101
M  END
> <Batch ID>
0145

> <Smiles>
CNC(C)C(=O)NC(C(=O)N1Cc2cc([101O:1][101CH2:1]Cc3cc(C)c(C4CC(C)CC4[100NH:0][100C:0](=O)N4CCCC(n5nc(-c6ccc(Oc7ccc(F)cc7F)cc6)c(C(N)=O)c5N)C4)c(C)c3)ccc2CC1C(=O)NC1CCCc2ccccc21)C(C)(C)C

> <Shape>
0.266

> <Color>
0.065

> <Negative vol penalty>
0.000

$$$$

  -OEChem-04052321283D

 87 96  0     1  0  0  0  0  0999 V2000
  -24.3331  -19.5924   13.5139 C   0  0  0  0  0  0  0  0  0  0  0  0
  -24.8737  -18.3452   13.8058 C   0  0  0  0  0  0  0  0  0  0  0  0
  -26.9265  -30.4041   22.2653 C   0  0  0  0  0  0  0  0  0  0  0  0
  -28.5382  -30.2994   20.4684 C   0  0  0  0  0  0  0  0  0  0  0  0
  -23.8664  -20.4042   14.5456 C   0  0  0  0  0  0  0  0  0  0  0  0
  -24.9370  -17.9045   15.1282 C   0  0  0  0  0  0  0  0  0  0  0  0
  -27.3700  -12.8498   17.5068 C   0  0  0  0  0  0  0  0  0  0  0  0
  -27.6197  -31.4775   22.8245 C   0  0  0  0  0  0  0  0  0  0  0  0
  -29.2314  -31.3729   21.0276 C   0  0  0  0  0  0  0  0  0  0  0  0
  -28.5938  -12.4502   18.0419 C   0  0  0  0  0  0  0  0  0  0  0  0
  -27.9121  -34.8035   22.2906 C   0  0  0  0  0  0  0  0  0  0  0  0
  -27.1672  -35.8975   22.7309 C   0  0  0  0  0  0  0  0  0  0  0  0
  -27.7543  -12.8745   20.2632 C   0  0  0  0  0  0  0  0  0  0  0  0
  -30.4111  -16.7255   19.7356 C   0  0  0  0  0  0  0  0  0  0  0  0
  -28.0161  -35.5745   24.9697 C   0  0  0  0  0  0  0  0  0  0  0  0
  -31.0473  -16.1338   21.9496 C   0  0  0  0  0  0  0  0  0  0  0  0
  -27.3858  -29.8149   21.0872 C   0  0  0  0  0  0  0  0  0  0  0  0
  -25.6253  -28.7657   19.5681 C   0  0  0  0  0  0  0  0  0  0  0  0
  -23.9359  -19.9777   15.8821 C   0  0  0  0  0  0  0  0  0  0  0  0
  -26.3310  -13.2759   18.3467 C   0  0  0  0  0  0  0  0  0  0  0  0
  -24.4494  -18.6994   16.1813 C   0  0  0  0  0  0  0  0  0  0  0  0
  -26.5174  -13.2766   19.7365 C   0  0  0  0  0  0  0  0  0  0  0  0
  -29.5947  -17.7172   20.2678 C   0  0  0  0  0  0  0  0  0  0  0  0
  -28.7721  -31.9619   22.2057 C   0  0  0  0  0  0  0  0  0  0  0  0
  -28.7871  -12.4652   19.4201 C   0  0  0  0  0  0  0  0  0  0  0  0
  -28.7090  -34.0950   23.1899 C   0  0  0  0  0  0  0  0  0  0  0  0
  -31.1546  -15.9144   20.5857 C   0  0  0  0  0  0  0  0  0  0  0  0
  -27.2192  -36.2830   24.0704 C   0  0  0  0  0  0  0  0  0  0  0  0
  -28.7610  -34.4805   24.5294 C   0  0  0  0  0  0  0  0  0  0  0  0
  -26.6705  -28.7056   20.5094 C   0  0  0  0  0  0  0  0  0  0  0  0
  -29.5571  -17.8558   21.6459 C   0  0  0  0  0  0  0  0  0  0  0  0
  -25.2902  -27.4529   19.3429 C   0  0  0  0  0  0  0  0  0  0  0  0
  -25.0123  -29.9062   18.9524 C   0  0  0  0  0  0  0  0  0  0  0  0
  -24.7184  -15.9895   18.7204 C   0  0  0  0  0  0  0  0  0  0  0  0
  -22.9554  -14.2039   20.7760 C   0  0  0  0  0  0  0  0  0  0  0  0
  -22.7762  -11.4885   22.8354 C   0  0  0  0  0  0  0  0  0  0  0  0
  -28.4005  -22.4653   19.8098 C   0  0  0  0  0  0  0  0  0  0  0  0
  -23.4091  -20.8935   16.9587 C   0  0  0  0  0  0  0  0  0  0  0  0
  -25.0079  -13.6784   17.7554 C   0  0  0  0  0  0  0  0  0  0  0  0
  -25.4270  -13.7060   20.6825 C   0  0  0  0  0  0  0  0  0  0  0  0
  -23.9216  -20.5327   18.3492 C   0  0  0  0  0  0  0  0  0  0  0  0
  -25.2719  -23.1727   21.4836 C   0  0  0  0  0  0  0  0  0  0  0  0
  -28.9752  -18.5490   17.7727 C   0  0  0  0  0  0  0  0  0  0  0  0
  -23.7311  -19.0448   18.6035 C   0  0  0  0  0  0  0  0  0  0  0  0
  -25.1821  -24.6916   21.3271 C   0  0  0  0  0  0  0  0  0  0  0  0
  -28.6658  -20.0553   17.6914 C   0  0  0  0  0  0  0  0  0  0  0  0
  -26.7102  -22.7251   21.7287 C   0  0  0  0  0  0  0  0  0  0  0  0
  -27.5918  -24.6907   20.5339 C   0  0  0  0  0  0  0  0  0  0  0  0
  -28.7401  -18.6509   19.3106 C   0  0  2  0  0  0  0  0  0  0  0  0
  -24.5565  -18.2118   17.6148 C   0  0  1  0  0  0  0  0  0  0  0  0
  -24.1928  -14.5826   18.6748 C   0  0  1  0  0  0  0  0  0  0  0  0
  -26.1666  -25.2035   20.2592 C   0  0  2  0  0  0  0  0  0  0  0  0
  -29.1387  -20.1550   19.1584 C   0  0  2  0  0  0  0  0  0  0  0  0
  -21.2183  -10.3106   24.4112 C   0  0  0  0  0  0  0  0  0  0  0  0
  -23.4684  -16.3500   22.8834 C   0  0  0  0  0  0  0  0  0  0  0  0
  -22.7342  -14.7125   24.6292 C   0  0  0  0  0  0  0  0  0  0  0  0
  -21.1363  -15.4471   22.8601 C   0  0  0  0  0  0  0  0  0  0  0  0
  -22.8100   -9.0179   21.2063 C   0  0  0  0  0  0  0  0  0  0  0  0
  -28.7721  -18.9129   23.6263 C   0  0  0  0  0  0  0  0  0  0  0  0
  -32.3451  -12.5483   20.0420 C   0  0  0  0  0  0  0  0  0  0  0  0
  -31.1432  -12.2932   19.1461 C   0  0  0  0  0  0  0  0  0  1  0  0
  -32.1552  -13.7816   20.9111 C   0  0  0  0  0  0  0  0  0  0  0  0
  -23.0290  -13.8859   22.2499 C   0  0  1  0  0  0  0  0  0  0  0  0
  -21.7260  -10.4019   22.9806 C   0  0  2  0  0  0  0  0  0  0  0  0
  -22.6133  -15.0926   23.1380 C   0  0  0  0  0  0  0  0  0  0  0  0
  -30.2650  -17.0870   22.5035 N   0  0  0  0  0  0  0  0  0  0  0  0
  -26.9789  -27.4538   20.8582 N   0  0  0  0  0  0  0  0  0  0  0  0
  -26.1223  -26.7151   20.1324 N   0  0  0  0  0  0  0  0  0  0  0  0
  -24.1534  -14.0966   20.0556 N   0  0  0  0  0  0  0  0  0  0  0  0
  -27.5923  -23.2296   20.6664 N   0  0  0  0  0  0  0  0  0  0  0  0
  -24.3678  -26.8692   18.5486 N   0  0  0  0  0  0  0  0  0  0  0  0
  -25.4780  -31.1824   19.2968 N   0  0  0  0  0  0  0  0  0  0  0  0
  -24.1900  -16.8192   17.7498 N   0  0  0  0  0  0  0  0  0  0  0  0
  -22.2187  -12.6894   22.4503 N   0  0  0  0  0  0  0  0  0  0  0  0
  -28.3490  -21.0871   19.9894 N   0  0  0  0  0  0  0  0  0  0  0  0
  -22.2939   -9.0783   22.5980 N   0  3  0  0  0  0  0  0  0  0  0  0
  -24.0680  -29.7975   18.1338 O   0  0  0  0  0  0  0  0  0  0  0  0
  -25.5413  -16.2997   19.5738 O   0  0  0  0  0  0  0  0  0  0  0  0
  -21.8733  -14.5284   20.2807 O   0  0  0  0  0  0  0  0  0  0  0  0
  -23.9710  -11.2925   23.0464 O   0  0  0  0  0  0  0  0  0  0  0  0
  -29.1171  -22.9691   18.9378 O   0  0  0  0  0  0  0  0  0  0  0  0
  -29.4486  -33.0096   22.7510 O   0  0  0  0  0  0  0  0  0  0  0  0
  -29.9809  -12.0763   19.9450 O   0  0  0  0  0  0  0  0  0  1  0  0
  -31.9640  -14.9256   20.0898 O   0  0  0  0  0  0  0  0  0  0  0  0
  -28.7651  -18.8238   22.2067 O   0  0  0  0  0  0  0  0  0  0  0  0
  -26.5050  -37.3345   24.4928 F   0  0  0  0  0  0  0  0  0  0  0  0
  -29.5257  -33.8044   25.3977 F   0  0  0  0  0  0  0  0  0  0  0  0
  1  2  1  0  0  0  0
  1  5  2  0  0  0  0
  2  6  2  0  0  0  0
  3  8  2  0  0  0  0
  3 17  1  0  0  0  0
  4  9  1  0  0  0  0
  4 17  2  0  0  0  0
  5 19  1  0  0  0  0
  6 21  1  0  0  0  0
  7 10  2  0  0  0  0
  7 20  1  0  0  0  0
  8 24  1  0  0  0  0
  9 24  2  0  0  0  0
 10 25  1  0  0  0  0
 11 12  2  0  0  0  0
 11 26  1  0  0  0  0
 12 28  1  0  0  0  0
 13 22  1  0  0  0  0
 13 25  2  0  0  0  0
 14 23  1  0  0  0  0
 14 27  2  0  0  0  0
 15 28  2  0  0  0  0
 15 29  1  0  0  0  0
 16 27  1  0  0  0  0
 16 66  2  0  0  0  0
 17 30  1  0  0  0  0
 18 30  1  0  0  0  0
 18 32  2  0  0  0  0
 18 33  1  0  0  0  0
 19 21  2  0  0  0  0
 19 38  1  0  0  0  0
 20 22  2  0  0  0  0
 20 39  1  0  0  0  0
 21 50  1  0  0  0  0
 22 40  1  0  0  0  0
 23 31  2  0  0  0  0
 23 49  1  0  0  0  0
 24 82  1  0  0  0  0
 25 83  1  0  0  0  0
 26 29  2  0  0  0  0
 26 82  1  0  0  0  0
 27 84  1  0  0  0  0
 28 86  1  0  0  0  0
 29 87  1  0  0  0  0
 30 67  2  0  0  0  0
 31 66  1  0  0  0  0
 31 85  1  0  0  0  0
 32 68  1  0  0  0  0
 32 71  1  0  0  0  0
 33 72  1  0  0  0  0
 33 77  2  0  0  0  0
 34 51  1  0  0  0  0
 34 73  1  0  0  0  0
 34 78  2  0  0  0  0
 35 63  1  0  0  0  0
 35 69  1  0  0  0  0
 35 79  2  0  0  0  0
 36 64  1  0  0  0  0
 36 74  1  0  0  0  0
 36 80  2  0  0  0  0
 37 70  1  0  0  0  0
 37 75  1  0  0  0  0
 37 81  2  0  0  0  0
 38 41  1  0  0  0  0
 39 51  1  0  0  0  0
 40 69  1  0  0  0  0
 41 44  1  0  0  0  0
 42 45  1  0  0  0  0
 42 47  1  0  0  0  0
 43 46  1  0  0  0  0
 43 49  1  0  0  0  0
 44 50  1  0  0  0  0
 45 52  1  0  0  0  0
 46 53  1  0  0  0  0
 47 70  1  0  0  0  0
 48 52  1  0  0  0  0
 48 70  1  0  0  0  0
 49 53  1  0  0  0  0
 50 73  1  0  0  0  0
 51 69  1  0  0  0  0
 52 68  1  0  0  0  0
 53 75  1  0  0  0  0
 54 64  1  0  0  0  0
 55 65  1  0  0  0  0
 56 65  1  0  0  0  0
 57 65  1  0  0  0  0
 58 76  1  0  0  0  0
 59 85  1  0  0  0  0
 60 61  1  0  0  0  0
 60 62  1  0  0  0  0
 61 83  1  0  0  0  0
 62 84  1  0  0  0  0
 63 65  1  0  0  0  0
 63 74  1  0  0  0  0
 64 76  1  0  0  0  0
 67 68  1  0  0  0  0
M  CHG  1  76   1
M  ISO  4  37 100  61 101  75 100  83 101
M  END
> <Batch ID>
0145

> <Smiles>
CNC(C)C(=O)NC(C(=O)N1Cc2cc([101O:1][101CH2:1]CCOc3cnc(OC)c(C4CCC4[100NH:0][100C:0](=O)N4CCCC(n5nc(-c6ccc(Oc7ccc(F)cc7F)cc6)c(C(N)=O)c5N)C4)c3)ccc2CC1C(=O)NC1CCCc2ccccc21)C(C)(C)C

> <Shape>
0.259

> <Color>
0.083

> <Negative vol penalty>
0.000

$$$$

  -OEChem-04052321283D

 87 96  0     1  0  0  0  0  0999 V2000
  -32.2881  -13.6045   20.8220 C   0  0  0  0  0  0  0  0  0  0  0  0
  -31.7631  -14.8916   20.7652 C   0  0  0  0  0  0  0  0  0  0  0  0
  -29.6609  -28.1562   21.1163 C   0  0  0  0  0  0  0  0  0  0  0  0
  -28.0831  -27.5039   19.4069 C   0  0  0  0  0  0  0  0  0  0  0  0
  -31.4755  -12.5082   20.5363 C   0  0  0  0  0  0  0  0  0  0  0  0
  -30.4253  -15.0831   20.4215 C   0  0  0  0  0  0  0  0  0  0  0  0
  -26.6544  -19.4037   22.5707 C   0  0  0  0  0  0  0  0  0  0  0  0
  -30.5033  -27.1110   20.7376 C   0  0  0  0  0  0  0  0  0  0  0  0
  -28.9255  -26.4587   19.0281 C   0  0  0  0  0  0  0  0  0  0  0  0
  -26.2466  -20.6335   22.0559 C   0  0  0  0  0  0  0  0  0  0  0  0
  -29.6981  -23.3573   20.1303 C   0  0  0  0  0  0  0  0  0  0  0  0
  -29.1204  -22.1074   19.9079 C   0  0  0  0  0  0  0  0  0  0  0  0
  -24.2579  -19.5958   21.1686 C   0  0  0  0  0  0  0  0  0  0  0  0
  -21.6798  -25.8780   21.2537 C   0  0  0  0  0  0  0  0  0  0  0  0
  -29.9142  -22.1465   17.6263 C   0  0  0  0  0  0  0  0  0  0  0  0
  -20.4384  -24.3049   22.2802 C   0  0  0  0  0  0  0  0  0  0  0  0
  -28.4507  -28.3526   20.4510 C   0  0  0  0  0  0  0  0  0  0  0  0
  -27.5785  -30.7474   20.3412 C   0  0  0  0  0  0  0  0  0  0  0  0
  -30.1246  -12.6858   20.1984 C   0  0  0  0  0  0  0  0  0  0  0  0
  -25.8710  -18.2566   22.3787 C   0  0  0  0  0  0  0  0  0  0  0  0
  -29.5942  -13.9882   20.1297 C   0  0  0  0  0  0  0  0  0  0  0  0
  -24.6566  -18.3531   21.6843 C   0  0  0  0  0  0  0  0  0  0  0  0
  -30.1357  -26.2623   19.6935 C   0  0  0  0  0  0  0  0  0  0  0  0
  -25.0497  -20.7291   21.3522 C   0  0  0  0  0  0  0  0  0  0  0  0
  -30.3839  -24.0019   19.1008 C   0  0  0  0  0  0  0  0  0  0  0  0
  -21.7066  -24.5787   21.8177 C   0  0  0  0  0  0  0  0  0  0  0  0
  -29.2285  -21.5020   18.6559 C   0  0  0  0  0  0  0  0  0  0  0  0
  -30.4920  -23.3965   17.8488 C   0  0  0  0  0  0  0  0  0  0  0  0
  -27.5798  -29.4318   20.8422 C   0  0  0  0  0  0  0  0  0  0  0  0
  -20.3961  -26.3588   21.3890 C   0  0  0  0  0  0  0  0  0  0  0  0
  -26.5705  -31.3763   21.0304 C   0  0  0  0  0  0  0  0  0  0  0  0
  -28.4137  -31.3473   19.3420 C   0  0  0  0  0  0  0  0  0  0  0  0
  -26.3008  -15.4648   20.9210 C   0  0  0  0  0  0  0  0  0  0  0  0
  -23.4149  -14.7775   22.2330 C   0  0  0  0  0  0  0  0  0  0  0  0
  -20.4579  -15.9246   23.4928 C   0  0  0  0  0  0  0  0  0  0  0  0
  -21.6229  -29.3761   23.7454 C   0  0  0  0  0  0  0  0  0  0  0  0
  -29.2976  -11.4731   19.8516 C   0  0  0  0  0  0  0  0  0  0  0  0
  -26.3117  -16.9427   22.9635 C   0  0  0  0  0  0  0  0  0  0  0  0
  -23.7693  -17.1555   21.4682 C   0  0  0  0  0  0  0  0  0  0  0  0
  -27.7942  -11.7381   19.8612 C   0  0  0  0  0  0  0  0  0  0  0  0
  -24.2599  -31.2611   25.2183 C   0  0  0  0  0  0  0  0  0  0  0  0
  -27.4749  -13.0286   19.1131 C   0  0  0  0  0  0  0  0  0  0  0  0
  -18.2714  -25.3376   24.9760 C   0  0  0  0  0  0  0  0  0  0  0  0
  -16.8312  -25.2531   24.5536 C   0  0  0  0  0  0  0  0  0  0  0  0
  -25.4096  -31.1247   24.2186 C   0  0  0  0  0  0  0  0  0  0  0  0
  -23.4419  -29.9753   25.3165 C   0  0  0  0  0  0  0  0  0  0  0  0
  -24.0888  -29.3250   23.0291 C   0  0  0  0  0  0  0  0  0  0  0  0
  -28.1415  -14.2351   19.7850 C   0  0  1  0  0  0  0  0  0  0  0  0
  -25.6875  -15.7385   22.2651 C   0  0  1  0  0  0  0  0  0  0  0  0
  -17.9130  -24.7442   23.6418 C   0  0  0  0  0  0  0  0  0  0  0  0
  -24.9086  -30.6147   22.8540 C   0  0  2  0  0  0  0  0  0  0  0  0
  -18.2820  -15.1229   24.4520 C   0  0  0  0  0  0  0  0  0  0  0  0
  -17.3491  -25.0500   21.1934 C   0  0  0  0  0  0  0  0  0  0  0  0
  -19.3135  -30.0787   21.5688 C   0  0  0  0  0  0  0  0  0  0  0  0
  -22.4631  -14.0204   19.4347 C   0  0  0  0  0  0  0  0  0  0  0  0
  -20.1086  -14.1528   20.2753 C   0  0  0  0  0  0  0  0  0  0  0  0
  -21.6875  -12.4862   21.2510 C   0  0  0  0  0  0  0  0  0  0  0  0
  -20.9548  -17.2953   26.0683 C   0  0  0  0  0  0  0  0  0  0  0  0
  -19.8206  -27.6546   20.9743 C   0  0  0  0  0  0  0  0  0  0  0  0
  -25.0566  -23.0986   21.5556 C   0  0  0  0  0  0  0  0  0  1  0  0
  -24.0080  -24.1784   21.3714 C   0  0  0  0  0  0  0  0  0  0  0  0
  -21.9779  -14.9372   21.7990 C   0  0  1  0  0  0  0  0  0  0  0  0
  -19.7004  -15.5758   24.7613 C   0  0  2  0  0  0  0  0  0  0  0  0
  -18.2468  -25.4931   22.3501 C   0  0  2  0  0  0  0  0  0  0  0  0
  -19.9135  -28.7628   22.0539 C   0  0  1  0  0  0  0  0  0  0  0  0
  -21.5767  -13.9215   20.6922 C   0  0  0  0  0  0  0  0  0  0  0  0
  -26.6468  -29.2353   21.7776 N   0  0  0  0  0  0  0  0  0  0  0  0
  -19.6503  -25.3941   22.0146 N   0  0  0  0  0  0  0  0  0  0  0  0
  -26.0499  -30.4359   21.8699 N   0  0  0  0  0  0  0  0  0  0  0  0
  -24.2467  -15.8919   22.0538 N   0  0  0  0  0  0  0  0  0  0  0  0
  -22.9958  -29.5463   23.9888 N   0  0  0  0  0  0  0  0  0  0  0  0
  -26.0877  -32.6364   20.9942 N   0  0  0  0  0  0  0  0  0  0  0  0
  -29.3997  -30.5585   18.7339 N   0  0  0  0  0  0  0  0  0  0  0  0
  -27.4011  -14.6300   20.9641 N   0  0  0  0  0  0  0  0  0  0  0  0
  -21.1726  -14.8478   23.0123 N   0  0  0  0  0  0  0  0  0  0  0  0
  -21.2854  -28.9739   22.4589 N   0  0  0  0  0  0  0  0  0  0  0  0
  -19.6296  -16.7592   25.6643 N   0  3  0  0  0  0  0  0  0  0  0  0
  -28.3000  -32.5517   19.0104 O   0  0  0  0  0  0  0  0  0  0  0  0
  -25.8111  -15.9723   19.9188 O   0  0  0  0  0  0  0  0  0  0  0  0
  -23.7840  -13.7059   22.7200 O   0  0  0  0  0  0  0  0  0  0  0  0
  -20.4165  -17.0397   22.9776 O   0  0  0  0  0  0  0  0  0  0  0  0
  -20.7613  -29.5734   24.6089 O   0  0  0  0  0  0  0  0  0  0  0  0
  -30.9576  -25.2424   19.3235 O   0  0  0  0  0  0  0  0  0  0  0  0
  -24.6496  -21.9281   20.8480 O   0  0  0  0  0  0  0  0  0  1  0  0
  -22.7717  -23.7216   21.9065 O   0  0  0  0  0  0  0  0  0  0  0  0
  -28.6749  -20.3010   18.4428 F   0  0  0  0  0  0  0  0  0  0  0  0
  -31.1505  -24.0103   16.8562 F   0  0  0  0  0  0  0  0  0  0  0  0
  1  2  1  0  0  0  0
  1  5  2  0  0  0  0
  2  6  2  0  0  0  0
  3  8  2  0  0  0  0
  3 17  1  0  0  0  0
  4  9  1  0  0  0  0
  4 17  2  0  0  0  0
  5 19  1  0  0  0  0
  6 21  1  0  0  0  0
  7 10  2  0  0  0  0
  7 20  1  0  0  0  0
  8 23  1  0  0  0  0
  9 23  2  0  0  0  0
 10 24  1  0  0  0  0
 11 12  2  0  0  0  0
 11 25  1  0  0  0  0
 12 27  1  0  0  0  0
 13 22  1  0  0  0  0
 13 24  2  0  0  0  0
 14 26  1  0  0  0  0
 14 30  2  0  0  0  0
 15 27  2  0  0  0  0
 15 28  1  0  0  0  0
 16 26  2  0  0  0  0
 16 68  1  0  0  0  0
 17 29  1  0  0  0  0
 18 29  1  0  0  0  0
 18 31  2  0  0  0  0
 18 32  1  0  0  0  0
 19 21  2  0  0  0  0
 19 37  1  0  0  0  0
 20 22  2  0  0  0  0
 20 38  1  0  0  0  0
 21 48  1  0  0  0  0
 22 39  1  0  0  0  0
 23 83  1  0  0  0  0
 24 84  1  0  0  0  0
 25 28  2  0  0  0  0
 25 83  1  0  0  0  0
 26 85  1  0  0  0  0
 27 86  1  0  0  0  0
 28 87  1  0  0  0  0
 29 67  2  0  0  0  0
 30 59  1  0  0  0  0
 30 68  1  0  0  0  0
 31 69  1  0  0  0  0
 31 72  1  0  0  0  0
 32 73  1  0  0  0  0
 32 78  2  0  0  0  0
 33 49  1  0  0  0  0
 33 74  1  0  0  0  0
 33 79  2  0  0  0  0
 34 62  1  0  0  0  0
 34 70  1  0  0  0  0
 34 80  2  0  0  0  0
 35 63  1  0  0  0  0
 35 75  1  0  0  0  0
 35 81  2  0  0  0  0
 36 71  1  0  0  0  0
 36 76  1  0  0  0  0
 36 82  2  0  0  0  0
 37 40  1  0  0  0  0
 38 49  1  0  0  0  0
 39 70  1  0  0  0  0
 40 42  1  0  0  0  0
 41 45  1  0  0  0  0
 41 46  1  0  0  0  0
 42 48  1  0  0  0  0
 43 44  1  0  0  0  0
 43 50  1  0  0  0  0
 44 50  1  0  0  0  0
 45 51  1  0  0  0  0
 46 71  1  0  0  0  0
 47 51  1  0  0  0  0
 47 71  1  0  0  0  0
 48 74  1  0  0  0  0
 49 70  1  0  0  0  0
 50 64  1  0  0  0  0
 51 69  1  0  0  0  0
 52 63  1  0  0  0  0
 53 64  1  0  0  0  0
 54 65  1  0  0  0  0
 55 66  1  0  0  0  0
 56 66  1  0  0  0  0
 57 66  1  0  0  0  0
 58 77  1  0  0  0  0
 59 65  1  0  0  0  0
 60 61  1  0  0  0  0
 60 84  1  0  0  0  0
 61 85  1  0  0  0  0
 62 66  1  0  0  0  0
 62 75  1  0  0  0  0
 63 77  1  0  0  0  0
 64 68  1  0  0  0  0
 65 76  1  0  0  0  0
 67 69  1  0  0  0  0
M  CHG  1  77   1
M  ISO  4  36 100  60 101  76 100  84 101
M  END
> <Batch ID>
0145

> <Smiles>
CNC(C)C(=O)NC(C(=O)N1Cc2cc([101O:1][101CH2:1]COc3cc(CC(C)[100NH:0][100C:0](=O)N4CCCC(n5nc(-c6ccc(Oc7ccc(F)cc7F)cc6)c(C(N)=O)c5N)C4)n(C(C)C4CC4)c3)ccc2CC1C(=O)NC1CCCc2ccccc21)C(C)(C)C

> <Shape>
0.258

> <Color>
0.059

> <Negative vol penalty>
0.000

$$$$

  -OEChem-04052321283D

 91101  0     1  0  0  0  0  0999 V2000
  -29.4987  -36.7424   23.4217 C   0  0  0  0  0  0  0  0  0  0  0  0
  -29.6463  -35.7997   22.4092 C   0  0  0  0  0  0  0  0  0  0  0  0
  -22.4397  -10.5842   21.8934 C   0  0  0  0  0  0  0  0  0  0  0  0
  -23.2709   -9.8298   19.7540 C   0  0  0  0  0  0  0  0  0  0  0  0
  -28.9022  -36.3798   24.6286 C   0  0  0  0  0  0  0  0  0  0  0  0
  -29.1985  -34.4936   22.6036 C   0  0  0  0  0  0  0  0  0  0  0  0
  -26.3749  -28.9690   19.0226 C   0  0  0  0  0  0  0  0  0  0  0  0
  -21.9308   -9.3101   22.1450 C   0  0  0  0  0  0  0  0  0  0  0  0
  -22.7620   -8.5557   20.0056 C   0  0  0  0  0  0  0  0  0  0  0  0
  -26.5813  -27.6073   18.8061 C   0  0  0  0  0  0  0  0  0  0  0  0
  -23.1160   -6.3096   23.1575 C   0  0  0  0  0  0  0  0  0  0  0  0
  -23.3364   -5.7613   24.4210 C   0  0  0  0  0  0  0  0  0  0  0  0
  -25.4946  -27.1152   20.9027 C   0  0  0  0  0  0  0  0  0  0  0  0
  -28.7700  -21.1857   20.6251 C   0  0  0  0  0  0  0  0  0  0  0  0
  -20.9507   -5.6111   24.7720 C   0  0  0  0  0  0  0  0  0  0  0  0
  -23.1097  -10.8441   20.6979 C   0  0  0  0  0  0  0  0  0  0  0  0
  -24.9160  -12.6442   20.7640 C   0  0  0  0  0  0  0  0  0  0  0  0
  -28.4381  -35.0710   24.8342 C   0  0  0  0  0  0  0  0  0  0  0  0
  -25.7354  -29.4154   20.1880 C   0  0  0  0  0  0  0  0  0  0  0  0
  -28.5964  -34.1128   23.8148 C   0  0  0  0  0  0  0  0  0  0  0  0
  -25.2790  -28.4830   21.1305 C   0  0  0  0  0  0  0  0  0  0  0  0
  -28.9668  -19.8122   20.7149 C   0  0  0  0  0  0  0  0  0  0  0  0
  -28.4615  -18.9769   19.7248 C   0  0  0  0  0  0  0  0  0  0  0  0
  -22.0919   -8.2958   21.2011 C   0  0  0  0  0  0  0  0  0  0  0  0
  -26.1437  -26.6803   19.7475 C   0  0  0  0  0  0  0  0  0  0  0  0
  -21.8129   -6.5087   22.7013 C   0  0  0  0  0  0  0  0  0  0  0  0
  -22.2538   -5.4121   25.2282 C   0  0  0  0  0  0  0  0  0  0  0  0
  -20.7303   -6.1594   23.5085 C   0  0  0  0  0  0  0  0  0  0  0  0
  -23.6351  -12.1602   20.4372 C   0  0  0  0  0  0  0  0  0  0  0  0
  -28.0666  -21.6701   19.5340 C   0  0  0  0  0  0  0  0  0  0  0  0
  -27.7718  -19.5601   18.6741 C   0  0  0  0  0  0  0  0  0  0  0  0
  -24.9202  -13.9397   20.3079 C   0  0  0  0  0  0  0  0  0  0  0  0
  -26.0048  -11.9819   21.4210 C   0  0  0  0  0  0  0  0  0  0  0  0
  -26.5738  -31.2508   22.6441 C   0  0  0  0  0  0  0  0  0  0  0  0
  -23.4561  -30.8998   23.4681 C   0  0  0  0  0  0  0  0  0  0  0  0
  -20.5931  -29.0545   23.2551 C   0  0  0  0  0  0  0  0  0  0  0  0
  -23.7506  -17.7162   16.3689 C   0  0  0  0  0  0  0  0  0  0  0  0
  -27.8427  -34.7139   26.1731 C   0  0  0  0  0  0  0  0  0  0  0  0
  -25.4965  -30.8861   20.3941 C   0  0  0  0  0  0  0  0  0  0  0  0
  -24.5689  -28.9095   22.3884 C   0  0  0  0  0  0  0  0  0  0  0  0
  -27.0561  -33.4057   26.1605 C   0  0  0  0  0  0  0  0  0  0  0  0
  -21.1397  -16.8514   18.6297 C   0  0  0  0  0  0  0  0  0  0  0  0
  -28.9548  -18.7727   23.0799 C   0  0  0  0  0  0  0  0  0  0  0  0
  -29.7512  -20.0370   23.1669 C   0  0  0  0  0  0  0  0  0  0  0  0
  -27.8451  -32.3153   25.4428 C   0  0  0  0  0  0  0  0  0  0  0  0
  -21.6591  -15.5909   19.3235 C   0  0  0  0  0  0  0  0  0  0  0  0
  -30.0600  -15.6414   18.5716 C   0  0  0  0  0  0  0  0  0  0  0  0
  -21.5508  -16.8967   17.1597 C   0  0  0  0  0  0  0  0  0  0  0  0
  -23.5164  -15.4797   17.6097 C   0  0  0  0  0  0  0  0  0  0  0  0
  -29.7205  -19.2591   21.8781 C   0  0  0  0  0  0  0  0  0  0  0  0
  -28.1008  -32.6923   23.9786 C   0  0  1  0  0  0  0  0  0  0  0  0
  -25.2925  -31.2587   21.8593 C   0  0  1  0  0  0  0  0  0  0  0  0
  -29.9372  -16.7914   17.6068 C   0  0  1  0  0  0  0  0  0  0  0  0
  -29.9347  -17.0495   19.0914 C   0  0  1  0  0  0  0  0  0  0  0  0
  -23.1745  -15.4164   19.1082 C   0  0  2  0  0  0  0  0  0  0  0  0
  -31.1056  -17.2019   16.7790 C   0  0  0  0  0  0  0  0  0  0  0  0
  -18.2192  -29.0007   24.0669 C   0  0  0  0  0  0  0  0  0  0  0  0
  -24.4158  -29.9507   26.2046 C   0  0  0  0  0  0  0  0  0  0  0  0
  -22.1231  -29.0315   26.6125 C   0  0  0  0  0  0  0  0  0  0  0  0
  -22.4391  -31.4814   26.2656 C   0  0  0  0  0  0  0  0  0  0  0  0
  -19.5250  -29.2155   20.4997 C   0  0  0  0  0  0  0  0  0  0  0  0
  -28.6534  -17.4990   19.7885 C   0  0  0  0  0  0  0  0  0  0  0  0
  -26.0231  -18.4090   15.6512 C   0  0  0  0  0  0  0  0  0  0  0  0
  -26.5618  -19.4365   16.6305 C   0  0  0  0  0  0  0  0  0  0  0  0
  -27.0103  -24.9755   18.3338 C   0  0  0  0  0  0  0  0  0  1  0  0
  -27.1317  -23.4648   18.2847 C   0  0  0  0  0  0  0  0  0  0  0  0
  -22.6746  -29.9105   24.2986 C   0  0  1  0  0  0  0  0  0  0  0  0
  -19.1582  -29.4520   22.9590 C   0  0  2  0  0  0  0  0  0  0  0  0
  -22.9282  -30.0853   25.8227 C   0  0  0  0  0  0  0  0  0  0  0  0
  -22.8803  -13.0738   19.8212 N   0  0  0  0  0  0  0  0  0  0  0  0
  -27.5606  -20.8899   18.5527 N   0  0  0  0  0  0  0  0  0  0  0  0
  -23.6894  -14.1450   19.7574 N   0  0  0  0  0  0  0  0  0  0  0  0
  -24.3647  -30.3588   22.5475 N   0  0  0  0  0  0  0  0  0  0  0  0
  -22.9996  -16.7270   17.0249 N   0  0  0  0  0  0  0  0  0  0  0  0
  -25.8566  -14.9119   20.3280 N   0  0  0  0  0  0  0  0  0  0  0  0
  -25.8318  -10.6508   21.8240 N   0  0  0  0  0  0  0  0  0  0  0  0
  -26.9094  -32.4769   23.1857 N   0  0  0  0  0  0  0  0  0  0  0  0
  -21.2780  -30.0599   23.9043 N   0  0  0  0  0  0  0  0  0  0  0  0
  -25.1177  -17.4803   16.2903 N   0  0  0  0  0  0  0  0  0  0  0  0
  -18.7043  -28.8382   21.6791 N   0  3  0  0  0  0  0  0  0  0  0  0
  -27.0930  -12.5588   21.6588 O   0  0  0  0  0  0  0  0  0  0  0  0
  -27.2100  -30.2089   22.7516 O   0  0  0  0  0  0  0  0  0  0  0  0
  -23.2621  -32.1078   23.6253 O   0  0  0  0  0  0  0  0  0  0  0  0
  -21.0587  -27.9602   22.9450 O   0  0  0  0  0  0  0  0  0  0  0  0
  -23.2414  -18.7368   15.8934 O   0  0  0  0  0  0  0  0  0  0  0  0
  -21.5957   -7.0524   21.4463 O   0  0  0  0  0  0  0  0  0  0  0  0
  -26.3445  -25.3506   19.5389 O   0  0  0  0  0  0  0  0  0  1  0  0
  -27.8592  -23.0198   19.4231 O   0  0  0  0  0  0  0  0  0  0  0  0
  -27.2579  -18.7715   17.6776 O   0  0  0  0  0  0  0  0  0  0  0  0
  -22.4657   -4.8841   26.4409 F   0  0  0  0  0  0  0  0  0  0  0  0
  -19.4762   -6.3472   23.0752 F   0  0  0  0  0  0  0  0  0  0  0  0
  1  2  1  0  0  0  0
  1  5  2  0  0  0  0
  2  6  2  0  0  0  0
  3  8  2  0  0  0  0
  3 16  1  0  0  0  0
  4  9  1  0  0  0  0
  4 16  2  0  0  0  0
  5 18  1  0  0  0  0
  6 20  1  0  0  0  0
  7 10  2  0  0  0  0
  7 19  1  0  0  0  0
  8 24  1  0  0  0  0
  9 24  2  0  0  0  0
 10 25  1  0  0  0  0
 11 12  2  0  0  0  0
 11 26  1  0  0  0  0
 12 27  1  0  0  0  0
 13 21  1  0  0  0  0
 13 25  2  0  0  0  0
 14 22  2  0  0  0  0
 14 30  1  0  0  0  0
 15 27  2  0  0  0  0
 15 28  1  0  0  0  0
 16 29  1  0  0  0  0
 17 29  1  0  0  0  0
 17 32  2  0  0  0  0
 17 33  1  0  0  0  0
 18 20  2  0  0  0  0
 18 38  1  0  0  0  0
 19 21  2  0  0  0  0
 19 39  1  0  0  0  0
 20 51  1  0  0  0  0
 21 40  1  0  0  0  0
 22 23  1  0  0  0  0
 22 50  1  0  0  0  0
 23 31  2  0  0  0  0
 23 62  1  0  0  0  0
 24 86  1  0  0  0  0
 25 87  1  0  0  0  0
 26 28  2  0  0  0  0
 26 86  1  0  0  0  0
 27 90  1  0  0  0  0
 28 91  1  0  0  0  0
 29 70  2  0  0  0  0
 30 71  2  0  0  0  0
 30 88  1  0  0  0  0
 31 71  1  0  0  0  0
 31 89  1  0  0  0  0
 32 72  1  0  0  0  0
 32 75  1  0  0  0  0
 33 76  1  0  0  0  0
 33 81  2  0  0  0  0
 34 52  1  0  0  0  0
 34 77  1  0  0  0  0
 34 82  2  0  0  0  0
 35 67  1  0  0  0  0
 35 73  1  0  0  0  0
 35 83  2  0  0  0  0
 36 68  1  0  0  0  0
 36 78  1  0  0  0  0
 36 84  2  0  0  0  0
 37 74  1  0  0  0  0
 37 79  1  0  0  0  0
 37 85  2  0  0  0  0
 38 41  1  0  0  0  0
 39 52  1  0  0  0  0
 40 73  1  0  0  0  0
 41 45  1  0  0  0  0
 42 46  1  0  0  0  0
 42 48  1  0  0  0  0
 43 44  1  0  0  0  0
 43 50  1  0  0  0  0
 44 50  1  0  0  0  0
 45 51  1  0  0  0  0
 46 55  1  0  0  0  0
 47 53  1  0  0  0  0
 47 54  1  0  0  0  0
 48 74  1  0  0  0  0
 49 55  1  0  0  0  0
 49 74  1  0  0  0  0
 51 77  1  0  0  0  0
 52 73  1  0  0  0  0
 53 54  1  0  0  0  0
 53 56  1  0  0  0  0
 54 62  1  0  0  0  0
 55 72  1  0  0  0  0
 57 68  1  0  0  0  0
 58 69  1  0  0  0  0
 59 69  1  0  0  0  0
 60 69  1  0  0  0  0
 61 80  1  0  0  0  0
 63 64  1  0  0  0  0
 63 79  1  0  0  0  0
 64 89  1  0  0  0  0
 65 66  1  0  0  0  0
 65 87  1  0  0  0  0
 66 88  1  0  0  0  0
 67 69  1  0  0  0  0
 67 78  1  0  0  0  0
 68 80  1  0  0  0  0
 70 72  1  0  0  0  0
M  CHG  1  80   1
M  ISO  4  37 100  65 101  79 100  87 101
M  END
> <Batch ID>
0145

> <Smiles>
CNC(C)C(=O)NC(C(=O)N1Cc2cc([101O:1][101CH2:1]COc3cc(C4CC4)c(CC4CC4C)c(OCC[100NH:0][100C:0](=O)N4CCCC(n5nc(-c6ccc(Oc7ccc(F)cc7F)cc6)c(C(N)=O)c5N)C4)n3)ccc2CC1C(=O)NC1CCCc2ccccc21)C(C)(C)C

> <Shape>
0.293

> <Color>
0.129

> <Negative vol penalty>
0.000

$$$$

  -OEChem-04052321283D

 87 97  0     1  0  0  0  0  0999 V2000
  -27.9339  -10.8357   26.2558 C   0  0  0  0  0  0  0  0  0  0  0  0
  -27.6481  -11.9930   25.5386 C   0  0  0  0  0  0  0  0  0  0  0  0
  -22.8554  -10.0884   20.0492 C   0  0  0  0  0  0  0  0  0  0  0  0
  -24.2615   -9.4829   21.9183 C   0  0  0  0  0  0  0  0  0  0  0  0
  -26.9286  -10.2036   26.9865 C   0  0  0  0  0  0  0  0  0  0  0  0
  -26.3564  -12.5183   25.5508 C   0  0  0  0  0  0  0  0  0  0  0  0
  -26.3074  -17.5397   26.2056 C   0  0  0  0  0  0  0  0  0  0  0  0
  -22.1389   -8.9017   20.2039 C   0  0  0  0  0  0  0  0  0  0  0  0
  -23.5449   -8.2962   22.0729 C   0  0  0  0  0  0  0  0  0  0  0  0
  -26.6103  -18.3293   25.0973 C   0  0  0  0  0  0  0  0  0  0  0  0
  -20.5936   -7.3259   23.4028 C   0  0  0  0  0  0  0  0  0  0  0  0
  -20.2183   -6.9611   24.6957 C   0  0  0  0  0  0  0  0  0  0  0  0
  -24.2571  -18.7241   24.7430 C   0  0  0  0  0  0  0  0  0  0  0  0
  -28.7258  -18.1770   18.4204 C   0  0  0  0  0  0  0  0  0  0  0  0
  -21.4802   -4.9117   24.4836 C   0  0  0  0  0  0  0  0  0  0  0  0
  -26.8491  -19.6332   18.3021 C   0  0  0  0  0  0  0  0  0  0  0  0
  -23.9168  -10.3789   20.9064 C   0  0  0  0  0  0  0  0  0  0  0  0
  -24.1562  -12.9174   20.8246 C   0  0  0  0  0  0  0  0  0  0  0  0
  -25.6263  -10.7268   27.0154 C   0  0  0  0  0  0  0  0  0  0  0  0
  -24.9743  -17.3271   26.5852 C   0  0  0  0  0  0  0  0  0  0  0  0
  -25.3325  -11.8919   26.2814 C   0  0  0  0  0  0  0  0  0  0  0  0
  -23.9400  -17.9334   25.8581 C   0  0  0  0  0  0  0  0  0  0  0  0
  -28.5300  -17.8653   17.0796 C   0  0  0  0  0  0  0  0  0  0  0  0
  -22.4836   -8.0056   21.2157 C   0  0  0  0  0  0  0  0  0  0  0  0
  -25.5850  -18.9193   24.3640 C   0  0  0  0  0  0  0  0  0  0  0  0
  -21.4121   -6.4837   22.6502 C   0  0  0  0  0  0  0  0  0  0  0  0
  -27.8737  -19.0768   19.0508 C   0  0  0  0  0  0  0  0  0  0  0  0
  -20.6617   -5.7540   25.2362 C   0  0  0  0  0  0  0  0  0  0  0  0
  -21.8554   -5.2766   23.1907 C   0  0  0  0  0  0  0  0  0  0  0  0
  -24.6578  -11.6043   20.7468 C   0  0  0  0  0  0  0  0  0  0  0  0
  -27.4759  -18.4757   16.4192 C   0  0  0  0  0  0  0  0  0  0  0  0
  -25.2509  -13.7168   20.6033 C   0  0  0  0  0  0  0  0  0  0  0  0
  -22.8202  -13.3736   21.0747 C   0  0  0  0  0  0  0  0  0  0  0  0
  -23.0919  -14.7778   26.8331 C   0  0  0  0  0  0  0  0  0  0  0  0
  -21.0129  -16.9204   28.1018 C   0  0  0  0  0  0  0  0  0  0  0  0
  -20.0003  -20.1688   28.3639 C   0  0  0  0  0  0  0  0  0  0  0  0
  -29.8857  -14.9510   17.8451 C   0  0  0  0  0  0  0  0  0  0  0  0
  -24.5617   -9.9821   27.7813 C   0  0  0  0  0  0  0  0  0  0  0  0
  -24.6654  -16.4944   27.7991 C   0  0  0  0  0  0  0  0  0  0  0  0
  -22.4933  -17.7530   26.2361 C   0  0  0  0  0  0  0  0  0  0  0  0
  -23.3079  -10.8121   28.0450 C   0  0  0  0  0  0  0  0  0  0  0  0
  -30.1705  -12.6093   20.4255 C   0  0  0  0  0  0  0  0  0  0  0  0
  -22.8680  -11.5330   26.7747 C   0  0  0  0  0  0  0  0  0  0  0  0
  -27.9817  -18.9473   13.9301 C   0  0  0  0  0  0  0  0  0  0  0  0
  -26.5180  -19.1899   14.1278 C   0  0  0  0  0  0  0  0  0  0  0  0
  -28.7263  -12.2278   20.7442 C   0  0  0  0  0  0  0  0  0  0  0  0
  -29.0102  -14.3611   14.4821 C   0  0  0  0  0  0  0  0  0  0  0  0
  -28.7415  -13.3123   15.5197 C   0  0  0  0  0  0  0  0  0  0  0  0
  -30.3688  -12.7777   18.9244 C   0  0  0  0  0  0  0  0  0  0  0  0
  -27.9998  -13.4330   18.6217 C   0  0  0  0  0  0  0  0  0  0  0  0
  -23.9494  -12.5061   26.2899 C   0  0  1  0  0  0  0  0  0  0  0  0
  -27.2292  -18.1714   14.9769 C   0  0  0  0  0  0  0  0  0  0  0  0
  -23.2497  -15.9260   27.7893 C   0  0  1  0  0  0  0  0  0  0  0  0
  -27.7446  -13.2403   20.1308 C   0  0  1  0  0  0  0  0  0  0  0  0
  -28.4118  -14.7517   15.8057 C   0  0  0  0  0  0  0  0  0  0  0  0
  -18.6864  -22.1383   29.1959 C   0  0  0  0  0  0  0  0  0  0  0  0
  -18.9678  -15.9621   26.0502 C   0  0  0  0  0  0  0  0  0  0  0  0
  -17.6268  -18.0216   26.5283 C   0  0  0  0  0  0  0  0  0  0  0  0
  -18.0423  -16.3575   28.3396 C   0  0  0  0  0  0  0  0  0  0  0  0
  -21.8949  -20.6405   30.5881 C   0  0  0  0  0  0  0  0  0  0  0  0
  -29.4416  -16.9019   16.4007 C   0  0  0  0  0  0  0  0  0  0  0  0
  -27.0625  -19.3660   22.5548 C   0  0  0  0  0  0  0  0  0  1  0  0
  -26.8717  -19.7493   21.1001 C   0  0  0  0  0  0  0  0  0  0  0  0
  -19.9409  -17.8271   27.5473 C   0  0  1  0  0  0  0  0  0  0  0  0
  -19.6455  -21.0191   29.5704 C   0  0  2  0  0  0  0  0  0  0  0  0
  -18.6715  -17.0441   27.1078 C   0  0  0  0  0  0  0  0  0  0  0  0
  -26.6275  -19.3548   16.9979 N   0  0  0  0  0  0  0  0  0  0  0  0
  -25.9691  -11.5674   20.4955 N   0  0  0  0  0  0  0  0  0  0  0  0
  -26.3007  -12.8671   20.4134 N   0  0  0  0  0  0  0  0  0  0  0  0
  -22.2420  -16.9248   27.4272 N   0  0  0  0  0  0  0  0  0  0  0  0
  -29.4152  -13.7357   18.3631 N   0  0  0  0  0  0  0  0  0  0  0  0
  -25.4082  -15.0567   20.5544 N   0  0  0  0  0  0  0  0  0  0  0  0
  -22.4299  -13.6033   22.4011 N   0  0  0  0  0  0  0  0  0  0  0  0
  -23.9365  -13.7140   27.0870 N   0  0  0  0  0  0  0  0  0  0  0  0
  -19.6946  -18.8399   28.5680 N   0  0  0  0  0  0  0  0  0  0  0  0
  -29.1696  -15.5192   16.7775 N   0  0  0  0  0  0  0  0  0  0  0  0
  -20.8740  -21.6285   30.1539 N   0  3  0  0  0  0  0  0  0  0  0  0
  -21.9917  -13.5561   20.1506 O   0  0  0  0  0  0  0  0  0  0  0  0
  -22.2640  -14.8509   25.9325 O   0  0  0  0  0  0  0  0  0  0  0  0
  -20.7711  -16.2388   29.1011 O   0  0  0  0  0  0  0  0  0  0  0  0
  -20.4953  -20.6373   27.3412 O   0  0  0  0  0  0  0  0  0  0  0  0
  -30.9039  -15.4928   18.2948 O   0  0  0  0  0  0  0  0  0  0  0  0
  -21.7844   -6.8477   21.3671 O   0  0  0  0  0  0  0  0  0  0  0  0
  -25.8778  -19.6900   23.2814 O   0  0  0  0  0  0  0  0  0  1  0  0
  -28.0427  -19.4025   20.3708 O   0  0  0  0  0  0  0  0  0  0  0  0
  -20.3025   -5.4045   26.4783 F   0  0  0  0  0  0  0  0  0  0  0  0
  -22.6429   -4.4639   22.4729 F   0  0  0  0  0  0  0  0  0  0  0  0
  1  2  1  0  0  0  0
  1  5  2  0  0  0  0
  2  6  2  0  0  0  0
  3  8  2  0  0  0  0
  3 17  1  0  0  0  0
  4  9  1  0  0  0  0
  4 17  2  0  0  0  0
  5 19  1  0  0  0  0
  6 21  1  0  0  0  0
  7 10  2  0  0  0  0
  7 20  1  0  0  0  0
  8 24  1  0  0  0  0
  9 24  2  0  0  0  0
 10 25  1  0  0  0  0
 11 12  2  0  0  0  0
 11 26  1  0  0  0  0
 12 28  1  0  0  0  0
 13 22  1  0  0  0  0
 13 25  2  0  0  0  0
 14 23  1  0  0  0  0
 14 27  2  0  0  0  0
 15 28  2  0  0  0  0
 15 29  1  0  0  0  0
 16 27  1  0  0  0  0
 16 67  2  0  0  0  0
 17 30  1  0  0  0  0
 18 30  1  0  0  0  0
 18 32  2  0  0  0  0
 18 33  1  0  0  0  0
 19 21  2  0  0  0  0
 19 38  1  0  0  0  0
 20 22  2  0  0  0  0
 20 39  1  0  0  0  0
 21 51  1  0  0  0  0
 22 40  1  0  0  0  0
 23 31  2  0  0  0  0
 23 61  1  0  0  0  0
 24 83  1  0  0  0  0
 25 84  1  0  0  0  0
 26 29  2  0  0  0  0
 26 83  1  0  0  0  0
 27 85  1  0  0  0  0
 28 86  1  0  0  0  0
 29 87  1  0  0  0  0
 30 68  2  0  0  0  0
 31 52  1  0  0  0  0
 31 67  1  0  0  0  0
 32 69  1  0  0  0  0
 32 72  1  0  0  0  0
 33 73  1  0  0  0  0
 33 78  2  0  0  0  0
 34 53  1  0  0  0  0
 34 74  1  0  0  0  0
 34 79  2  0  0  0  0
 35 64  1  0  0  0  0
 35 70  1  0  0  0  0
 35 80  2  0  0  0  0
 36 65  1  0  0  0  0
 36 75  1  0  0  0  0
 36 81  2  0  0  0  0
 37 71  1  0  0  0  0
 37 76  1  0  0  0  0
 37 82  2  0  0  0  0
 38 41  1  0  0  0  0
 39 53  1  0  0  0  0
 40 70  1  0  0  0  0
 41 43  1  0  0  0  0
 42 46  1  0  0  0  0
 42 49  1  0  0  0  0
 43 51  1  0  0  0  0
 44 45  1  0  0  0  0
 44 52  1  0  0  0  0
 45 52  1  0  0  0  0
 46 54  1  0  0  0  0
 47 48  1  0  0  0  0
 47 55  1  0  0  0  0
 48 55  1  0  0  0  0
 49 71  1  0  0  0  0
 50 54  1  0  0  0  0
 50 71  1  0  0  0  0
 51 74  1  0  0  0  0
 53 70  1  0  0  0  0
 54 69  1  0  0  0  0
 55 76  1  0  0  0  0
 56 65  1  0  0  0  0
 57 66  1  0  0  0  0
 58 66  1  0  0  0  0
 59 66  1  0  0  0  0
 60 77  1  0  0  0  0
 61 76  1  0  0  0  0
 62 63  1  0  0  0  0
 62 84  1  0  0  0  0
 63 85  1  0  0  0  0
 64 66  1  0  0  0  0
 64 75  1  0  0  0  0
 65 77  1  0  0  0  0
 68 69  1  0  0  0  0
M  CHG  1  77   1
M  ISO  4  37 100  62 101  76 100  84 101
M  END
> <Batch ID>
0145

> <Smiles>
CNC(C)C(=O)NC(C(=O)N1Cc2cc([101O:1][101CH2:1]COc3cnc(C4CC4)c(C[100N:0](C4CC4)[100C:0](=O)N4CCCC(n5nc(-c6ccc(Oc7ccc(F)cc7F)cc6)c(C(N)=O)c5N)C4)c3)ccc2CC1C(=O)NC1CCCc2ccccc21)C(C)(C)C

> <Shape>
0.170

> <Color>
0.164

> <Negative vol penalty>
0.000

$$$$

  -OEChem-04052321283D

 85 94  0     1  0  0  0  0  0999 V2000
  -30.3882  -32.3857   24.2529 C   0  0  0  0  0  0  0  0  0  0  0  0
  -30.2279  -31.0198   24.0426 C   0  0  0  0  0  0  0  0  0  0  0  0
  -22.7702  -10.2113   20.0791 C   0  0  0  0  0  0  0  0  0  0  0  0
  -24.2833   -9.5506   21.8429 C   0  0  0  0  0  0  0  0  0  0  0  0
  -29.2872  -33.2369   24.1678 C   0  0  0  0  0  0  0  0  0  0  0  0
  -28.9662  -30.5042   23.7482 C   0  0  0  0  0  0  0  0  0  0  0  0
  -29.0736  -27.1551   19.9513 C   0  0  0  0  0  0  0  0  0  0  0  0
  -22.0701   -9.0146   20.2314 C   0  0  0  0  0  0  0  0  0  0  0  0
  -23.5832   -8.3538   21.9952 C   0  0  0  0  0  0  0  0  0  0  0  0
  -29.5217  -25.8689   20.2493 C   0  0  0  0  0  0  0  0  0  0  0  0
  -20.7175   -7.3147   23.4540 C   0  0  0  0  0  0  0  0  0  0  0  0
  -20.4182   -6.9014   24.7522 C   0  0  0  0  0  0  0  0  0  0  0  0
  -30.1470  -19.9573   22.7084 C   0  0  0  0  0  0  0  0  0  0  0  0
  -27.2362  -25.1062   20.3660 C   0  0  0  0  0  0  0  0  0  0  0  0
  -28.5081  -20.1860   20.4624 C   0  0  0  0  0  0  0  0  0  0  0  0
  -21.6774   -4.8705   24.3958 C   0  0  0  0  0  0  0  0  0  0  0  0
  -23.8768  -10.4794   20.8848 C   0  0  0  0  0  0  0  0  0  0  0  0
  -24.3586  -12.9326   21.3917 C   0  0  0  0  0  0  0  0  0  0  0  0
  -28.0131  -32.7327   23.8628 C   0  0  0  0  0  0  0  0  0  0  0  0
  -27.7009  -27.4293   19.8691 C   0  0  0  0  0  0  0  0  0  0  0  0
  -27.8469  -31.3493   23.6603 C   0  0  0  0  0  0  0  0  0  0  0  0
  -29.9413  -18.8542   21.8799 C   0  0  0  0  0  0  0  0  0  0  0  0
  -26.7733  -26.3961   20.0643 C   0  0  0  0  0  0  0  0  0  0  0  0
  -29.5332  -21.1748   22.4140 C   0  0  0  0  0  0  0  0  0  0  0  0
  -28.7137  -21.2891   21.2910 C   0  0  0  0  0  0  0  0  0  0  0  0
  -22.4766   -8.0858   21.1894 C   0  0  0  0  0  0  0  0  0  0  0  0
  -28.6029  -24.8449   20.4595 C   0  0  0  0  0  0  0  0  0  0  0  0
  -21.4966   -6.5059   22.6267 C   0  0  0  0  0  0  0  0  0  0  0  0
  -29.1219  -18.9685   20.7569 C   0  0  0  0  0  0  0  0  0  0  0  0
  -20.8982   -5.6794   25.2231 C   0  0  0  0  0  0  0  0  0  0  0  0
  -21.9766   -5.2838   23.0976 C   0  0  0  0  0  0  0  0  0  0  0  0
  -24.6008  -11.7152   20.7276 C   0  0  0  0  0  0  0  0  0  0  0  0
  -25.3112  -13.7893   20.8965 C   0  0  0  0  0  0  0  0  0  0  0  0
  -23.3618  -13.2599   22.3689 C   0  0  0  0  0  0  0  0  0  0  0  0
  -25.6920  -29.3179   21.4506 C   0  0  0  0  0  0  0  0  0  0  0  0
  -23.5924  -28.3289   19.1844 C   0  0  0  0  0  0  0  0  0  0  0  0
  -22.7032  -25.9589   16.8955 C   0  0  0  0  0  0  0  0  0  0  0  0
  -30.5647  -14.8840   19.3853 C   0  0  0  0  0  0  0  0  0  0  0  0
  -26.8445  -33.6856   23.8282 C   0  0  0  0  0  0  0  0  0  0  0  0
  -27.2342  -28.8161   19.5204 C   0  0  0  0  0  0  0  0  0  0  0  0
  -25.2892  -26.6339   19.9674 C   0  0  0  0  0  0  0  0  0  0  0  0
  -25.6086  -33.1090   23.1425 C   0  0  0  0  0  0  0  0  0  0  0  0
  -28.4884  -13.2792   16.9925 C   0  0  0  0  0  0  0  0  0  0  0  0
  -32.0925  -17.5089   22.8092 C   0  0  0  0  0  0  0  0  0  0  0  0
  -25.3317  -31.6947   23.6423 C   0  0  0  0  0  0  0  0  0  0  0  0
  -27.2731  -12.8275   17.8042 C   0  0  0  0  0  0  0  0  0  0  0  0
  -32.3494  -16.1835   22.0686 C   0  0  0  0  0  0  0  0  0  0  0  0
  -29.7812  -13.1557   17.7960 C   0  0  0  0  0  0  0  0  0  0  0  0
  -28.5500  -13.3789   19.9175 C   0  0  0  0  0  0  0  0  0  0  0  0
  -30.6455  -17.4758   22.2299 C   0  0  2  0  0  0  0  0  0  0  0  0
  -26.4986  -30.7554   23.3145 C   0  0  1  0  0  0  0  0  0  0  0  0
  -25.8030  -29.0953   19.9688 C   0  0  1  0  0  0  0  0  0  0  0  0
  -27.2148  -13.5379   19.1701 C   0  0  2  0  0  0  0  0  0  0  0  0
  -31.2485  -16.6128   21.0740 C   0  0  2  0  0  0  0  0  0  0  0  0
  -29.7673  -22.3420   23.3159 C   0  0  0  0  0  0  0  0  0  0  0  0
  -20.9161  -25.4093   15.2217 C   0  0  0  0  0  0  0  0  0  0  0  0
  -21.7248  -27.5056   21.4525 C   0  0  0  0  0  0  0  0  0  0  0  0
  -20.4348  -26.1368   19.8000 C   0  0  0  0  0  0  0  0  0  0  0  0
  -20.5909  -28.6102   19.5164 C   0  0  0  0  0  0  0  0  0  0  0  0
  -24.6329  -25.9894   14.6518 C   0  0  0  0  0  0  0  0  0  0  0  0
  -28.0597  -18.1017   18.8137 C   0  0  0  0  0  0  0  0  0  0  0  0
  -28.0413  -22.5876   20.9545 C   0  0  0  0  0  0  0  0  0  1  0  0
  -22.6231  -27.1790   19.0541 C   0  0  1  0  0  0  0  0  0  0  0  0
  -22.2663  -26.0721   15.4461 C   0  0  2  0  0  0  0  0  0  0  0  0
  -21.3712  -27.3535   19.9595 C   0  0  0  0  0  0  0  0  0  0  0  0
  -25.6267  -11.7879   19.8754 N   0  0  0  0  0  0  0  0  0  0  0  0
  -26.0375  -13.0613   20.0006 N   0  0  0  0  0  0  0  0  0  0  0  0
  -24.8824  -28.0081   19.6303 N   0  0  0  0  0  0  0  0  0  0  0  0
  -29.6591  -13.8567   19.0768 N   0  0  0  0  0  0  0  0  0  0  0  0
  -25.5900  -15.0867   21.1443 N   0  0  0  0  0  0  0  0  0  0  0  0
  -22.4620  -12.2613   22.7658 N   0  0  0  0  0  0  0  0  0  0  0  0
  -26.4587  -30.3670   21.9209 N   0  0  0  0  0  0  0  0  0  0  0  0
  -22.3200  -27.0598   17.6320 N   0  0  0  0  0  0  0  0  0  0  0  0
  -30.3808  -15.5090   20.6143 N   0  0  0  0  0  0  0  0  0  0  0  0
  -23.2644  -25.4202   14.5518 N   0  3  0  0  0  0  0  0  0  0  0  0
  -23.2613  -14.4085   22.8631 O   0  0  0  0  0  0  0  0  0  0  0  0
  -24.9635  -28.5927   22.1177 O   0  0  0  0  0  0  0  0  0  0  0  0
  -23.2208  -29.4689   18.8943 O   0  0  0  0  0  0  0  0  0  0  0  0
  -23.3194  -24.9890   17.3316 O   0  0  0  0  0  0  0  0  0  0  0  0
  -31.4713  -15.2309   18.6204 O   0  0  0  0  0  0  0  0  0  0  0  0
  -21.7935   -6.9180   21.3384 O   0  0  0  0  0  0  0  0  0  0  0  0
  -28.9109  -17.8991   19.9400 O   0  0  0  0  0  0  0  0  0  0  0  0
  -29.0376  -23.5887   20.7511 O   0  0  0  0  0  0  0  0  0  1  0  0
  -20.6120   -5.2833   26.4703 F   0  0  0  0  0  0  0  0  0  0  0  0
  -22.7266   -4.5030   22.3079 F   0  0  0  0  0  0  0  0  0  0  0  0
  1  2  1  0  0  0  0
  1  5  2  0  0  0  0
  2  6  2  0  0  0  0
  3  8  2  0  0  0  0
  3 17  1  0  0  0  0
  4  9  1  0  0  0  0
  4 17  2  0  0  0  0
  5 19  1  0  0  0  0
  6 21  1  0  0  0  0
  7 10  2  0  0  0  0
  7 20  1  0  0  0  0
  8 26  1  0  0  0  0
  9 26  2  0  0  0  0
 10 27  1  0  0  0  0
 11 12  2  0  0  0  0
 11 28  1  0  0  0  0
 12 30  1  0  0  0  0
 13 22  2  0  0  0  0
 13 24  1  0  0  0  0
 14 23  1  0  0  0  0
 14 27  2  0  0  0  0
 15 25  1  0  0  0  0
 15 29  2  0  0  0  0
 16 30  2  0  0  0  0
 16 31  1  0  0  0  0
 17 32  1  0  0  0  0
 18 32  1  0  0  0  0
 18 33  2  0  0  0  0
 18 34  1  0  0  0  0
 19 21  2  0  0  0  0
 19 39  1  0  0  0  0
 20 23  2  0  0  0  0
 20 40  1  0  0  0  0
 21 51  1  0  0  0  0
 22 29  1  0  0  0  0
 22 50  1  0  0  0  0
 23 41  1  0  0  0  0
 24 25  2  0  0  0  0
 24 55  1  0  0  0  0
 25 62  1  0  0  0  0
 26 81  1  0  0  0  0
 27 83  1  0  0  0  0
 28 31  2  0  0  0  0
 28 81  1  0  0  0  0
 29 82  1  0  0  0  0
 30 84  1  0  0  0  0
 31 85  1  0  0  0  0
 32 66  2  0  0  0  0
 33 67  1  0  0  0  0
 33 70  1  0  0  0  0
 34 71  1  0  0  0  0
 34 76  2  0  0  0  0
 35 52  1  0  0  0  0
 35 72  1  0  0  0  0
 35 77  2  0  0  0  0
 36 63  1  0  0  0  0
 36 68  1  0  0  0  0
 36 78  2  0  0  0  0
 37 64  1  0  0  0  0
 37 73  1  0  0  0  0
 37 79  2  0  0  0  0
 38 69  1  0  0  0  0
 38 74  1  0  0  0  0
 38 80  2  0  0  0  0
 39 42  1  0  0  0  0
 40 52  1  0  0  0  0
 41 68  1  0  0  0  0
 42 45  1  0  0  0  0
 43 46  1  0  0  0  0
 43 48  1  0  0  0  0
 44 47  1  0  0  0  0
 44 50  1  0  0  0  0
 45 51  1  0  0  0  0
 46 53  1  0  0  0  0
 47 54  1  0  0  0  0
 48 69  1  0  0  0  0
 49 53  1  0  0  0  0
 49 69  1  0  0  0  0
 50 54  1  0  0  0  0
 51 72  1  0  0  0  0
 52 68  1  0  0  0  0
 53 67  1  0  0  0  0
 54 74  1  0  0  0  0
 56 64  1  0  0  0  0
 57 65  1  0  0  0  0
 58 65  1  0  0  0  0
 59 65  1  0  0  0  0
 60 75  1  0  0  0  0
 61 82  1  0  0  0  0
 62 83  1  0  0  0  0
 63 65  1  0  0  0  0
 63 73  1  0  0  0  0
 64 75  1  0  0  0  0
 66 67  1  0  0  0  0
M  CHG  1  75   1
M  ISO  4  38 100  62 101  74 100  83 101
M  END
> <Batch ID>
0145

> <Smiles>
CNC(C)C(=O)NC(C(=O)N1Cc2cc([101O:1][101CH2:1]c3cc(OC)c(C4CCC4[100NH:0][100C:0](=O)N4CCCC(n5nc(-c6ccc(Oc7ccc(F)cc7F)cc6)c(C(N)=O)c5N)C4)cc3C)ccc2CC1C(=O)NC1CCCc2ccccc21)C(C)(C)C

> <Shape>
0.357

> <Color>
0.128

> <Negative vol penalty>
0.000

$$$$

  -OEChem-04052321283D

 85 94  0     1  0  0  0  0  0999 V2000
  -25.4663  -34.8240   24.7534 C   0  0  0  0  0  0  0  0  0  0  0  0
  -26.0598  -33.8176   23.9983 C   0  0  0  0  0  0  0  0  0  0  0  0
  -23.8730   -9.1268   19.9185 C   0  0  0  0  0  0  0  0  0  0  0  0
  -23.1008  -10.6990   21.5825 C   0  0  0  0  0  0  0  0  0  0  0  0
  -24.3347  -34.5446   25.5186 C   0  0  0  0  0  0  0  0  0  0  0  0
  -25.5228  -32.5308   24.0087 C   0  0  0  0  0  0  0  0  0  0  0  0
  -25.3657  -28.5691   19.3412 C   0  0  0  0  0  0  0  0  0  0  0  0
  -23.0926   -8.1277   20.5002 C   0  0  0  0  0  0  0  0  0  0  0  0
  -22.3203   -9.6999   22.1642 C   0  0  0  0  0  0  0  0  0  0  0  0
  -26.1742  -27.4845   19.0039 C   0  0  0  0  0  0  0  0  0  0  0  0
  -22.7833   -7.0596   24.2245 C   0  0  0  0  0  0  0  0  0  0  0  0
  -22.8107   -6.9425   25.6142 C   0  0  0  0  0  0  0  0  0  0  0  0
  -24.6149  -25.9940   20.0838 C   0  0  0  0  0  0  0  0  0  0  0  0
  -20.4316   -7.3552   25.6958 C   0  0  0  0  0  0  0  0  0  0  0  0
  -23.8772  -10.4124   20.4596 C   0  0  0  0  0  0  0  0  0  0  0  0
  -24.3016  -12.3368   18.8397 C   0  0  0  0  0  0  0  0  0  0  0  0
  -23.7779  -33.2560   25.5309 C   0  0  0  0  0  0  0  0  0  0  0  0
  -24.1793  -28.3751   20.0630 C   0  0  0  0  0  0  0  0  0  0  0  0
  -24.3835  -32.2335   24.7758 C   0  0  0  0  0  0  0  0  0  0  0  0
  -23.7918  -27.0775   20.4268 C   0  0  0  0  0  0  0  0  0  0  0  0
  -22.3162   -8.4143   21.6230 C   0  0  0  0  0  0  0  0  0  0  0  0
  -25.8003  -26.1970   19.3776 C   0  0  0  0  0  0  0  0  0  0  0  0
  -21.5800   -7.3245   23.5705 C   0  0  0  0  0  0  0  0  0  0  0  0
  -21.6348   -7.0903   26.3498 C   0  0  0  0  0  0  0  0  0  0  0  0
  -20.4042   -7.4723   24.3062 C   0  0  0  0  0  0  0  0  0  0  0  0
  -24.6836  -11.4447   19.8595 C   0  0  0  0  0  0  0  0  0  0  0  0
  -25.4156  -13.1113   18.6260 C   0  0  0  0  0  0  0  0  0  0  0  0
  -23.0516  -12.4548   18.1474 C   0  0  0  0  0  0  0  0  0  0  0  0
  -23.0980  -29.3225   22.8980 C   0  0  0  0  0  0  0  0  0  0  0  0
  -20.3574  -27.9106   21.8893 C   0  0  0  0  0  0  0  0  0  0  0  0
  -18.8597  -25.6107   19.8608 C   0  0  0  0  0  0  0  0  0  0  0  0
  -29.9211  -14.5779   22.1481 C   0  0  0  0  0  0  0  0  0  0  0  0
  -22.5819  -32.9904   26.4105 C   0  0  0  0  0  0  0  0  0  0  0  0
  -23.3047  -29.5527   20.3960 C   0  0  0  0  0  0  0  0  0  0  0  0
  -22.5174  -26.8136   21.1849 C   0  0  0  0  0  0  0  0  0  0  0  0
  -21.8541  -31.6917   26.0731 C   0  0  0  0  0  0  0  0  0  0  0  0
  -30.1905  -12.9655   18.9193 C   0  0  0  0  0  0  0  0  0  0  0  0
  -22.8512  -30.5503   25.9003 C   0  0  0  0  0  0  0  0  0  0  0  0
  -28.7572  -12.4767   18.7029 C   0  0  0  0  0  0  0  0  0  0  0  0
  -33.1462  -15.8644   23.5215 C   0  0  0  0  0  0  0  0  0  0  0  0
  -31.5842  -20.3128   22.6445 C   0  0  0  0  0  0  0  0  0  0  0  0
  -30.3713  -18.1022   22.2222 C   0  0  0  0  0  0  0  0  0  0  0  0
  -30.6018  -12.8414   20.3834 C   0  0  0  0  0  0  0  0  0  0  0  0
  -28.2607  -13.0486   21.1249 C   0  0  0  0  0  0  0  0  0  0  0  0
  -33.6626  -17.2790   23.8004 C   0  0  0  0  0  0  0  0  0  0  0  0
  -32.8850  -19.5492   22.8975 C   0  0  0  0  0  0  0  0  0  0  0  0
  -23.8158  -30.8312   24.7418 C   0  0  1  0  0  0  0  0  0  0  0  0
  -22.3779  -29.2930   21.5796 C   0  0  1  0  0  0  0  0  0  0  0  0
  -27.7772  -13.1693   19.6683 C   0  0  2  0  0  0  0  0  0  0  0  0
  -31.6908  -16.0309   23.0769 C   0  0  1  0  0  0  0  0  0  0  0  0
  -31.7040  -17.3929   22.4083 C   0  0  2  0  0  0  0  0  0  0  0  0
  -30.6267  -19.5334   21.7343 C   0  0  1  0  0  0  0  0  0  0  0  0
  -16.6099  -24.6584   19.2875 C   0  0  0  0  0  0  0  0  0  0  0  0
  -20.3833  -26.2967   24.4786 C   0  0  0  0  0  0  0  0  0  0  0  0
  -18.7173  -24.7405   23.4436 C   0  0  0  0  0  0  0  0  0  0  0  0
  -18.1293  -27.1389   23.7968 C   0  0  0  0  0  0  0  0  0  0  0  0
  -19.0719  -26.4996   17.0459 C   0  0  0  0  0  0  0  0  0  0  0  0
  -27.9735  -22.1120   20.8116 C   0  0  0  0  0  0  0  0  0  0  0  0
  -27.9203  -23.3124   19.8696 C   0  0  0  0  0  0  0  0  0  0  0  0
  -29.3400  -21.4444   20.7693 C   0  0  0  0  0  0  0  0  0  0  0  0
  -26.5727  -24.0172   19.9326 C   0  0  0  0  0  0  0  0  0  1  0  0
  -19.7748  -26.5208   21.9795 C   0  0  1  0  0  0  0  0  0  0  0  0
  -17.6537  -25.7098   18.9442 C   0  0  2  0  0  0  0  0  0  0  0  0
  -19.2762  -26.1791   23.4120 C   0  0  0  0  0  0  0  0  0  0  0  0
  -25.9419  -11.6339   20.2655 N   0  0  0  0  0  0  0  0  0  0  0  0
  -26.3604  -12.6537   19.4967 N   0  0  0  0  0  0  0  0  0  0  0  0
  -21.6993  -27.9983   21.4926 N   0  0  0  0  0  0  0  0  0  0  0  0
  -29.6381  -13.5376   21.2474 N   0  0  0  0  0  0  0  0  0  0  0  0
  -25.6693  -14.1324   17.7801 N   0  0  0  0  0  0  0  0  0  0  0  0
  -22.0123  -11.5795   18.4910 N   0  0  0  0  0  0  0  0  0  0  0  0
  -23.1687  -30.5773   23.4724 N   0  0  0  0  0  0  0  0  0  0  0  0
  -18.7410  -26.4441   20.9529 N   0  0  0  0  0  0  0  0  0  0  0  0
  -31.2506  -14.9774   22.2089 N   0  0  0  0  0  0  0  0  0  0  0  0
  -32.5271  -18.1850   23.3977 N   0  3  1  0  0  0  0  0  0  0  0  0
  -29.3301  -20.2575   21.6652 N   0  3  0  0  0  0  0  0  0  0  0  0
  -18.0648  -25.5180   17.5247 N   0  3  0  0  0  0  0  0  0  0  0  0
  -22.8672  -13.3002   17.2393 O   0  0  0  0  0  0  0  0  0  0  0  0
  -23.5543  -28.2835   23.3606 O   0  0  0  0  0  0  0  0  0  0  0  0
  -19.6459  -28.8829   22.1538 O   0  0  0  0  0  0  0  0  0  0  0  0
  -19.8102  -24.8656   19.6329 O   0  0  0  0  0  0  0  0  0  0  0  0
  -29.0520  -15.1150   22.8432 O   0  0  0  0  0  0  0  0  0  0  0  0
  -21.5543   -7.4397   22.1907 O   0  0  0  0  0  0  0  0  0  0  0  0
  -26.5937  -25.1289   19.0478 O   0  0  0  0  0  0  0  0  0  1  0  0
  -21.6610   -6.9763   27.6842 F   0  0  0  0  0  0  0  0  0  0  0  0
  -19.2450   -7.7257   23.6833 F   0  0  0  0  0  0  0  0  0  0  0  0
  1  2  1  0  0  0  0
  1  5  2  0  0  0  0
  2  6  2  0  0  0  0
  3  8  2  0  0  0  0
  3 15  1  0  0  0  0
  4  9  1  0  0  0  0
  4 15  2  0  0  0  0
  5 17  1  0  0  0  0
  6 19  1  0  0  0  0
  7 10  2  0  0  0  0
  7 18  1  0  0  0  0
  8 21  1  0  0  0  0
  9 21  2  0  0  0  0
 10 22  1  0  0  0  0
 11 12  2  0  0  0  0
 11 23  1  0  0  0  0
 12 24  1  0  0  0  0
 13 20  1  0  0  0  0
 13 22  2  0  0  0  0
 14 24  2  0  0  0  0
 14 25  1  0  0  0  0
 15 26  1  0  0  0  0
 16 26  1  0  0  0  0
 16 27  2  0  0  0  0
 16 28  1  0  0  0  0
 17 19  2  0  0  0  0
 17 33  1  0  0  0  0
 18 20  2  0  0  0  0
 18 34  1  0  0  0  0
 19 47  1  0  0  0  0
 20 35  1  0  0  0  0
 21 82  1  0  0  0  0
 22 83  1  0  0  0  0
 23 25  2  0  0  0  0
 23 82  1  0  0  0  0
 24 84  1  0  0  0  0
 25 85  1  0  0  0  0
 26 65  2  0  0  0  0
 27 66  1  0  0  0  0
 27 69  1  0  0  0  0
 28 70  1  0  0  0  0
 28 77  2  0  0  0  0
 29 48  1  0  0  0  0
 29 71  1  0  0  0  0
 29 78  2  0  0  0  0
 30 62  1  0  0  0  0
 30 67  1  0  0  0  0
 30 79  2  0  0  0  0
 31 63  1  0  0  0  0
 31 72  1  0  0  0  0
 31 80  2  0  0  0  0
 32 68  1  0  0  0  0
 32 73  1  0  0  0  0
 32 81  2  0  0  0  0
 33 36  1  0  0  0  0
 34 48  1  0  0  0  0
 35 67  1  0  0  0  0
 36 38  1  0  0  0  0
 37 39  1  0  0  0  0
 37 43  1  0  0  0  0
 38 47  1  0  0  0  0
 39 49  1  0  0  0  0
 40 45  1  0  0  0  0
 40 50  1  0  0  0  0
 41 46  1  0  0  0  0
 41 52  1  0  0  0  0
 42 51  1  0  0  0  0
 42 52  1  0  0  0  0
 43 68  1  0  0  0  0
 44 49  1  0  0  0  0
 44 68  1  0  0  0  0
 45 74  1  0  0  0  0
 46 74  1  0  0  0  0
 47 71  1  0  0  0  0
 48 67  1  0  0  0  0
 49 66  1  0  0  0  0
 50 51  1  0  0  0  0
 50 73  1  0  0  0  0
 51 74  1  0  0  0  0
 52 75  1  0  0  0  0
 53 63  1  0  0  0  0
 54 64  1  0  0  0  0
 55 64  1  0  0  0  0
 56 64  1  0  0  0  0
 57 76  1  0  0  0  0
 58 59  1  0  0  0  0
 58 60  1  0  0  0  0
 59 61  1  0  0  0  0
 60 75  1  0  0  0  0
 61 83  1  0  0  0  0
 62 64  1  0  0  0  0
 62 72  1  0  0  0  0
 63 76  1  0  0  0  0
 65 66  1  0  0  0  0
M  CHG  3  74   1  75   1  76   1
M  ISO  4  32 100  61 101  73 100  83 101
M  END
> <Batch ID>
0145

> <Smiles>
CNC(C)C(=O)NC(C(=O)N1Cc2cc([101O:1][101CH2:1]CCCNC3CCN4CCC([100NH:0][100C:0](=O)N5CCCC(n6nc(-c7ccc(Oc8ccc(F)cc8F)cc7)c(C(N)=O)c6N)C5)C4C3)ccc2CC1C(=O)NC1CCCc2ccccc21)C(C)(C)C

> <Shape>
0.285

> <Color>
0.074

> <Negative vol penalty>
0.000

$$$$

  -OEChem-04052321283D

 89 98  0     1  0  0  0  0  0999 V2000
  -19.4353  -28.4649   26.5533 C   0  0  0  0  0  0  0  0  0  0  0  0
  -20.7754  -28.2220   26.2693 C   0  0  0  0  0  0  0  0  0  0  0  0
  -25.6418  -12.3343   19.3265 C   0  0  0  0  0  0  0  0  0  0  0  0
  -25.0634  -13.4131   21.4094 C   0  0  0  0  0  0  0  0  0  0  0  0
  -18.5069  -28.5415   25.5160 C   0  0  0  0  0  0  0  0  0  0  0  0
  -21.1876  -28.0545   24.9478 C   0  0  0  0  0  0  0  0  0  0  0  0
  -25.4257  -30.6185   23.8947 C   0  0  0  0  0  0  0  0  0  0  0  0
  -25.5181  -11.0868   19.9382 C   0  0  0  0  0  0  0  0  0  0  0  0
  -24.9396  -12.1656   22.0211 C   0  0  0  0  0  0  0  0  0  0  0  0
  -26.6290  -30.0669   24.3323 C   0  0  0  0  0  0  0  0  0  0  0  0
  -22.6580   -9.6766   22.1597 C   0  0  0  0  0  0  0  0  0  0  0  0
  -21.5459   -9.4634   22.9742 C   0  0  0  0  0  0  0  0  0  0  0  0
  -32.0792  -23.6396   22.9837 C   0  0  0  0  0  0  0  0  0  0  0  0
  -29.9232  -24.7153   22.8071 C   0  0  0  0  0  0  0  0  0  0  0  0
  -27.0362  -29.2105   22.1142 C   0  0  0  0  0  0  0  0  0  0  0  0
  -31.3235  -25.1251   24.7328 C   0  0  0  0  0  0  0  0  0  0  0  0
  -23.0037   -9.0425   24.8543 C   0  0  0  0  0  0  0  0  0  0  0  0
  -25.4145  -13.4974   20.0621 C   0  0  0  0  0  0  0  0  0  0  0  0
  -24.5335  -15.5151   18.7734 C   0  0  0  0  0  0  0  0  0  0  0  0
  -18.9095  -28.3844   24.1804 C   0  0  0  0  0  0  0  0  0  0  0  0
  -25.0127  -30.4607   22.5639 C   0  0  0  0  0  0  0  0  0  0  0  0
  -20.2634  -28.1277   23.8917 C   0  0  0  0  0  0  0  0  0  0  0  0
  -30.8938  -23.8616   22.2830 C   0  0  0  0  0  0  0  0  0  0  0  0
  -25.8284  -29.7633   21.6615 C   0  0  0  0  0  0  0  0  0  0  0  0
  -25.1670  -11.0025   21.2855 C   0  0  0  0  0  0  0  0  0  0  0  0
  -27.4331  -29.3603   23.4428 C   0  0  0  0  0  0  0  0  0  0  0  0
  -23.9429   -9.5727   22.6924 C   0  0  0  0  0  0  0  0  0  0  0  0
  -32.2940  -24.2713   24.2087 C   0  0  0  0  0  0  0  0  0  0  0  0
  -30.1380  -25.3471   24.0321 C   0  0  0  0  0  0  0  0  0  0  0  0
  -21.7188   -9.1463   24.3215 C   0  0  0  0  0  0  0  0  0  0  0  0
  -24.1158   -9.2557   24.0397 C   0  0  0  0  0  0  0  0  0  0  0  0
  -25.5427  -14.7863   19.4309 C   0  0  0  0  0  0  0  0  0  0  0  0
  -25.1580  -16.6638   18.3529 C   0  0  0  0  0  0  0  0  0  0  0  0
  -23.1548  -15.1833   18.5619 C   0  0  0  0  0  0  0  0  0  0  0  0
  -22.5279  -29.0874   21.1342 C   0  0  0  0  0  0  0  0  0  0  0  0
  -23.8200  -30.4185   18.4732 C   0  0  0  0  0  0  0  0  0  0  0  0
  -26.5893  -31.6424   16.8984 C   0  0  0  0  0  0  0  0  0  0  0  0
  -28.4124  -20.9412   19.4641 C   0  0  0  0  0  0  0  0  0  0  0  0
  -17.8617  -28.4285   23.0964 C   0  0  0  0  0  0  0  0  0  0  0  0
  -23.7247  -31.0847   22.1009 C   0  0  0  0  0  0  0  0  0  0  0  0
  -25.4401  -29.5829   20.2176 C   0  0  0  0  0  0  0  0  0  0  0  0
  -18.4414  -28.6121   21.6962 C   0  0  0  0  0  0  0  0  0  0  0  0
  -30.0335  -17.9138   18.1947 C   0  0  0  0  0  0  0  0  0  0  0  0
  -19.6206  -27.6693   21.4787 C   0  0  0  0  0  0  0  0  0  0  0  0
  -28.9368  -16.8773   18.4154 C   0  0  0  0  0  0  0  0  0  0  0  0
  -30.0377  -18.9964   19.2744 C   0  0  0  0  0  0  0  0  0  0  0  0
  -30.4795  -21.6052   20.8666 C   0  0  0  0  0  0  0  0  0  0  0  0
  -27.6165  -18.6096   19.6794 C   0  0  0  0  0  0  0  0  0  0  0  0
  -30.6495  -23.1413   20.8884 C   0  0  1  0  0  0  0  0  0  0  0  0
  -20.7533  -27.9651   22.4692 C   0  0  1  0  0  0  0  0  0  0  0  0
  -23.1558  -30.4225   20.8498 C   0  0  1  0  0  0  0  0  0  0  0  0
  -27.5698  -17.5630   18.5577 C   0  0  2  0  0  0  0  0  0  0  0  0
  -29.2466  -23.2260   20.2320 C   0  0  1  0  0  0  0  0  0  0  0  0
  -27.3411  -32.6245   14.7149 C   0  0  0  0  0  0  0  0  0  0  0  0
  -23.7551  -27.6438   17.2057 C   0  0  0  0  0  0  0  0  0  0  0  0
  -25.3458  -28.4793   15.4622 C   0  0  0  0  0  0  0  0  0  0  0  0
  -23.0821  -29.5050   15.6769 C   0  0  0  0  0  0  0  0  0  0  0  0
  -28.8706  -27.8396   18.3310 C   0  0  0  0  0  0  0  0  0  0  0  0
  -27.4120  -34.1759   18.1882 C   0  0  0  0  0  0  0  0  0  0  0  0
  -33.6042  -24.7321   26.1393 C   0  0  0  0  0  0  0  0  0  0  0  0
  -29.1359  -24.0913   18.9928 C   0  0  0  0  0  0  0  0  0  0  0  0
  -29.0687  -25.5688   19.3522 C   0  0  0  0  0  0  0  0  0  0  0  0
  -28.6813  -28.4181   25.2344 C   0  0  0  0  0  0  0  0  0  1  0  0
  -29.6447  -27.2542   25.3645 C   0  0  0  0  0  0  0  0  0  0  0  0
  -24.8301  -29.9794   17.4408 C   0  0  1  0  0  0  0  0  0  0  0  0
  -26.8185  -32.9205   16.1120 C   0  0  2  0  0  0  0  0  0  0  0  0
  -24.2600  -28.9034   16.4740 C   0  0  0  0  0  0  0  0  0  0  0  0
  -26.7190  -15.4190   19.4305 N   0  0  0  0  0  0  0  0  0  0  0  0
  -26.4529  -16.5573   18.7675 N   0  0  0  0  0  0  0  0  0  0  0  0
  -24.1686  -30.2062   19.8146 N   0  0  0  0  0  0  0  0  0  0  0  0
  -28.7045  -19.5724   19.4804 N   0  0  0  0  0  0  0  0  0  0  0  0
  -29.4013  -21.8050   19.9014 N   0  0  0  0  0  0  0  0  0  0  0  0
  -24.7203  -17.7444   17.6724 N   0  0  0  0  0  0  0  0  0  0  0  0
  -22.6770  -13.9635   19.0601 N   0  0  0  0  0  0  0  0  0  0  0  0
  -21.4964  -29.1350   22.0525 N   0  0  0  0  0  0  0  0  0  0  0  0
  -25.2907  -31.1946   16.7778 N   0  0  0  0  0  0  0  0  0  0  0  0
  -28.9174  -26.3677   18.1124 N   0  3  0  0  0  0  0  0  0  0  0  0
  -27.8091  -33.7877   16.8103 N   0  3  0  0  0  0  0  0  0  0  0  0
  -22.3737  -15.9385   17.9348 O   0  0  0  0  0  0  0  0  0  0  0  0
  -22.9472  -28.0883   20.5618 O   0  0  0  0  0  0  0  0  0  0  0  0
  -22.7638  -30.9375   18.1034 O   0  0  0  0  0  0  0  0  0  0  0  0
  -27.4746  -31.0940   17.5510 O   0  0  0  0  0  0  0  0  0  0  0  0
  -27.3114  -21.3751   19.1039 O   0  0  0  0  0  0  0  0  0  0  0  0
  -25.0459   -9.7854   21.8827 O   0  0  0  0  0  0  0  0  0  0  0  0
  -33.4502  -24.0541   24.8934 O   0  0  0  0  0  0  0  0  0  0  0  0
  -28.6157  -28.8166   23.8704 O   0  0  0  0  0  0  0  0  0  1  0  0
  -29.1903  -26.1791   24.5439 O   0  0  0  0  0  0  0  0  0  0  0  0
  -20.6507   -8.9431   25.1040 F   0  0  0  0  0  0  0  0  0  0  0  0
  -25.3477   -9.1556   24.5575 F   0  0  0  0  0  0  0  0  0  0  0  0
  1  2  1  0  0  0  0
  1  5  2  0  0  0  0
  2  6  2  0  0  0  0
  3  8  2  0  0  0  0
  3 18  1  0  0  0  0
  4  9  1  0  0  0  0
  4 18  2  0  0  0  0
  5 20  1  0  0  0  0
  6 22  1  0  0  0  0
  7 10  2  0  0  0  0
  7 21  1  0  0  0  0
  8 25  1  0  0  0  0
  9 25  2  0  0  0  0
 10 26  1  0  0  0  0
 11 12  2  0  0  0  0
 11 27  1  0  0  0  0
 12 30  1  0  0  0  0
 13 23  1  0  0  0  0
 13 28  2  0  0  0  0
 14 23  2  0  0  0  0
 14 29  1  0  0  0  0
 15 24  1  0  0  0  0
 15 26  2  0  0  0  0
 16 28  1  0  0  0  0
 16 29  2  0  0  0  0
 17 30  2  0  0  0  0
 17 31  1  0  0  0  0
 18 32  1  0  0  0  0
 19 32  1  0  0  0  0
 19 33  2  0  0  0  0
 19 34  1  0  0  0  0
 20 22  2  0  0  0  0
 20 39  1  0  0  0  0
 21 24  2  0  0  0  0
 21 40  1  0  0  0  0
 22 50  1  0  0  0  0
 23 49  1  0  0  0  0
 24 41  1  0  0  0  0
 25 84  1  0  0  0  0
 26 86  1  0  0  0  0
 27 31  2  0  0  0  0
 27 84  1  0  0  0  0
 28 85  1  0  0  0  0
 29 87  1  0  0  0  0
 30 88  1  0  0  0  0
 31 89  1  0  0  0  0
 32 68  2  0  0  0  0
 33 69  1  0  0  0  0
 33 73  1  0  0  0  0
 34 74  1  0  0  0  0
 34 79  2  0  0  0  0
 35 51  1  0  0  0  0
 35 75  1  0  0  0  0
 35 80  2  0  0  0  0
 36 65  1  0  0  0  0
 36 70  1  0  0  0  0
 36 81  2  0  0  0  0
 37 66  1  0  0  0  0
 37 76  1  0  0  0  0
 37 82  2  0  0  0  0
 38 71  1  0  0  0  0
 38 72  1  0  0  0  0
 38 83  2  0  0  0  0
 39 42  1  0  0  0  0
 40 51  1  0  0  0  0
 41 70  1  0  0  0  0
 42 44  1  0  0  0  0
 43 45  1  0  0  0  0
 43 46  1  0  0  0  0
 44 50  1  0  0  0  0
 45 52  1  0  0  0  0
 46 71  1  0  0  0  0
 47 49  1  0  0  0  0
 47 72  1  0  0  0  0
 48 52  1  0  0  0  0
 48 71  1  0  0  0  0
 49 53  1  0  0  0  0
 50 75  1  0  0  0  0
 51 70  1  0  0  0  0
 52 69  1  0  0  0  0
 53 61  1  0  0  0  0
 53 72  1  0  0  0  0
 54 66  1  0  0  0  0
 55 67  1  0  0  0  0
 56 67  1  0  0  0  0
 57 67  1  0  0  0  0
 58 77  1  0  0  0  0
 59 78  1  0  0  0  0
 60 85  1  0  0  0  0
 61 62  1  0  0  0  0
 62 77  1  0  0  0  0
 63 64  1  0  0  0  0
 63 86  1  0  0  0  0
 64 87  1  0  0  0  0
 65 67  1  0  0  0  0
 65 76  1  0  0  0  0
 66 78  1  0  0  0  0
 68 69  1  0  0  0  0
M  CHG  2  77   1  78   1
M  ISO  4  38 100  63 101  72 100  86 101
M  END
> <Batch ID>
0145

> <Smiles>
CNCCC1C(c2cc(OC)cc(OC[101CH2:1][101O:1]c3ccc4c(c3)CN(C(=O)C(NC(=O)C(C)NC)C(C)(C)C)C(C(=O)NC3CCCc5ccccc53)C4)c2)C[100N:0]1[100C:0](=O)N1CCCC(n2nc(-c3ccc(Oc4ccc(F)cc4F)cc3)c(C(N)=O)c2N)C1

> <Shape>
0.229

> <Color>
0.063

> <Negative vol penalty>
0.000

$$$$

  -OEChem-04052321283D

 90100  0     1  0  0  0  0  0999 V2000
  -29.0639  -24.1156   17.5397 C   0  0  0  0  0  0  0  0  0  0  0  0
  -27.8216  -24.2980   18.1388 C   0  0  0  0  0  0  0  0  0  0  0  0
  -29.0725  -17.0694   20.9331 C   0  0  0  0  0  0  0  0  0  0  0  0
  -29.2874  -17.1478   18.5280 C   0  0  0  0  0  0  0  0  0  0  0  0
  -30.1928  -24.7332   18.0764 C   0  0  0  0  0  0  0  0  0  0  0  0
  -27.7078  -25.0972   19.2757 C   0  0  0  0  0  0  0  0  0  0  0  0
  -23.7490  -28.2471   19.0476 C   0  0  0  0  0  0  0  0  0  0  0  0
  -30.1108  -16.1402   20.9957 C   0  0  0  0  0  0  0  0  0  0  0  0
  -30.3258  -16.2185   18.5905 C   0  0  0  0  0  0  0  0  0  0  0  0
  -22.4903  -27.7078   19.3095 C   0  0  0  0  0  0  0  0  0  0  0  0
  -30.5212  -12.8257   20.4758 C   0  0  0  0  0  0  0  0  0  0  0  0
  -30.3468  -11.7147   21.3009 C   0  0  0  0  0  0  0  0  0  0  0  0
  -22.5880  -28.5854   21.5543 C   0  0  0  0  0  0  0  0  0  0  0  0
  -32.2888  -12.3625   22.5838 C   0  0  0  0  0  0  0  0  0  0  0  0
  -28.6607  -17.5732   19.6993 C   0  0  0  0  0  0  0  0  0  0  0  0
  -27.6970  -19.9352   19.6892 C   0  0  0  0  0  0  0  0  0  0  0  0
  -30.0911  -25.5482   19.2148 C   0  0  0  0  0  0  0  0  0  0  0  0
  -24.4426  -28.9515   20.0422 C   0  0  0  0  0  0  0  0  0  0  0  0
  -28.8366  -25.7252   19.8290 C   0  0  0  0  0  0  0  0  0  0  0  0
  -23.8543  -29.1349   21.3017 C   0  0  0  0  0  0  0  0  0  0  0  0
  -30.7375  -15.7147   19.8244 C   0  0  0  0  0  0  0  0  0  0  0  0
  -21.9109  -27.8744   20.5639 C   0  0  0  0  0  0  0  0  0  0  0  0
  -31.5795  -13.7051   20.7046 C   0  0  0  0  0  0  0  0  0  0  0  0
  -31.2306  -11.4831   22.3549 C   0  0  0  0  0  0  0  0  0  0  0  0
  -32.4633  -13.4736   21.7586 C   0  0  0  0  0  0  0  0  0  0  0  0
  -27.5878  -18.5327   19.6340 C   0  0  0  0  0  0  0  0  0  0  0  0
  -26.4032  -20.3846   19.5874 C   0  0  0  0  0  0  0  0  0  0  0  0
  -28.8638  -20.7581   19.8207 C   0  0  0  0  0  0  0  0  0  0  0  0
  -27.2030  -28.5480   21.5657 C   0  0  0  0  0  0  0  0  0  0  0  0
  -26.4908  -31.4553   22.8159 C   0  0  0  0  0  0  0  0  0  0  0  0
  -24.1042  -33.7620   23.6094 C   0  0  0  0  0  0  0  0  0  0  0  0
  -21.0269  -20.0191   21.0361 C   0  0  0  0  0  0  0  0  0  0  0  0
  -31.3471  -26.1567   19.7865 C   0  0  0  0  0  0  0  0  0  0  0  0
  -25.7880  -29.5500   19.7355 C   0  0  0  0  0  0  0  0  0  0  0  0
  -24.5486  -29.9003   22.3974 C   0  0  0  0  0  0  0  0  0  0  0  0
  -31.0801  -27.2901   20.7736 C   0  0  0  0  0  0  0  0  0  0  0  0
  -22.1474  -17.9711   18.3790 C   0  0  0  0  0  0  0  0  0  0  0  0
  -29.9938  -26.8887   21.7663 C   0  0  0  0  0  0  0  0  0  0  0  0
  -18.9264  -24.4846   17.6149 C   0  0  0  0  0  0  0  0  0  0  0  0
  -18.0909  -23.2569   17.8486 C   0  0  0  0  0  0  0  0  0  0  0  0
  -18.6549  -25.0463   25.3521 C   0  0  0  0  0  0  0  0  0  0  0  0
  -23.6690  -18.0138   18.4871 C   0  0  0  0  0  0  0  0  0  0  0  0
  -18.4800  -25.8453   24.0429 C   0  0  0  0  0  0  0  0  0  0  0  0
  -21.3320  -20.7026   24.6311 C   0  0  0  0  0  0  0  0  0  0  0  0
  -21.5073  -17.9596   19.7606 C   0  0  0  0  0  0  0  0  0  0  0  0
  -21.9935  -20.0747   23.4110 C   0  0  0  0  0  0  0  0  0  0  0  0
  -20.4539  -21.7697   22.6915 C   0  0  0  0  0  0  0  0  0  0  0  0
  -23.4187  -19.2162   20.7193 C   0  0  0  0  0  0  0  0  0  0  0  0
  -28.6685  -26.6048   21.0489 C   0  0  1  0  0  0  0  0  0  0  0  0
  -26.6261  -29.8075   20.9839 C   0  0  1  0  0  0  0  0  0  0  0  0
  -18.1784  -24.3196   18.9088 C   0  0  0  0  0  0  0  0  0  0  0  0
  -19.7668  -24.2410   24.6295 C   0  0  2  0  0  0  0  0  0  0  0  0
  -20.9176  -22.0798   24.1118 C   0  0  1  0  0  0  0  0  0  0  0  0
  -24.1173  -19.2078   19.3441 C   0  0  1  0  0  0  0  0  0  0  0  0
  -19.0516  -24.6159   23.3024 C   0  0  2  0  0  0  0  0  0  0  0  0
  -23.8230  -36.0254   24.6559 C   0  0  0  0  0  0  0  0  0  0  0  0
  -21.0423  -23.3925   27.1669 C   0  0  0  0  0  0  0  0  0  0  0  0
  -18.7176  -22.4688   27.2468 C   0  0  0  0  0  0  0  0  0  0  0  0
  -26.8806  -30.2230   25.5799 C   0  0  0  0  0  0  0  0  0  0  0  0
  -25.6883  -32.1983   26.5520 C   0  0  0  0  0  0  0  0  0  0  0  0
  -27.8324  -32.5209   25.3185 C   0  0  0  0  0  0  0  0  0  0  0  0
  -22.9744  -34.9000   21.1219 C   0  0  0  0  0  0  0  0  0  0  0  0
  -18.9230  -24.0545   20.1839 C   0  0  0  0  0  0  0  0  0  0  0  0
  -20.3237  -26.1603   20.1182 C   0  0  0  0  0  0  0  0  0  1  0  0
  -25.7360  -31.9413   24.0296 C   0  0  1  0  0  0  0  0  0  0  0  0
  -24.0259  -35.2573   23.3592 C   0  0  2  0  0  0  0  0  0  0  0  0
  -19.8499  -22.7438   24.9624 C   0  0  1  0  0  0  0  0  0  0  0  0
  -20.0449  -22.4551   26.4808 C   0  0  0  0  0  0  0  0  0  0  0  0
  -19.3263  -25.3319   20.9253 C   0  0  2  0  0  0  0  0  0  0  0  0
  -26.5218  -31.7047   25.3502 C   0  0  0  0  0  0  0  0  0  0  0  0
  -26.3243  -18.1185   19.5071 N   0  0  0  0  0  0  0  0  0  0  0  0
  -25.6278  -19.2676   19.4818 N   0  0  0  0  0  0  0  0  0  0  0  0
  -25.8650  -30.4610   22.0507 N   0  0  0  0  0  0  0  0  0  0  0  0
  -21.9625  -19.0832   20.5815 N   0  0  0  0  0  0  0  0  0  0  0  0
  -21.2563  -20.6242   22.2712 N   0  0  0  0  0  0  0  0  0  0  0  0
  -25.8644  -21.6224   19.5788 N   0  0  0  0  0  0  0  0  0  0  0  0
  -30.1150  -20.1334   19.9129 N   0  0  0  0  0  0  0  0  0  0  0  0
  -28.0108  -27.8439   20.6932 N   0  0  0  0  0  0  0  0  0  0  0  0
  -25.4064  -33.3390   23.7725 N   0  0  0  0  0  0  0  0  0  0  0  0
  -19.9782  -24.9648   22.2199 N   0  3  0  0  0  0  0  0  0  0  0  0
  -22.8915  -35.5707   22.4448 N   0  3  0  0  0  0  0  0  0  0  0  0
  -28.7972  -22.0096   19.8719 O   0  0  0  0  0  0  0  0  0  0  0  0
  -26.9363  -28.2387   22.7210 O   0  0  0  0  0  0  0  0  0  0  0  0
  -27.5919  -31.9450   22.5524 O   0  0  0  0  0  0  0  0  0  0  0  0
  -23.1094  -33.0419   23.6590 O   0  0  0  0  0  0  0  0  0  0  0  0
  -20.0045  -20.2741   20.3854 O   0  0  0  0  0  0  0  0  0  0  0  0
  -31.7509  -14.8081   19.8851 O   0  0  0  0  0  0  0  0  0  0  0  0
  -20.6745  -27.3450   20.8241 O   0  0  0  0  0  0  0  0  0  1  0  0
  -31.0620  -10.4170   23.1481 F   0  0  0  0  0  0  0  0  0  0  0  0
  -33.4811  -14.3155   21.9842 F   0  0  0  0  0  0  0  0  0  0  0  0
  1  2  1  0  0  0  0
  1  5  2  0  0  0  0
  2  6  2  0  0  0  0
  3  8  2  0  0  0  0
  3 15  1  0  0  0  0
  4  9  1  0  0  0  0
  4 15  2  0  0  0  0
  5 17  1  0  0  0  0
  6 19  1  0  0  0  0
  7 10  2  0  0  0  0
  7 18  1  0  0  0  0
  8 21  1  0  0  0  0
  9 21  2  0  0  0  0
 10 22  1  0  0  0  0
 11 12  2  0  0  0  0
 11 23  1  0  0  0  0
 12 24  1  0  0  0  0
 13 20  1  0  0  0  0
 13 22  2  0  0  0  0
 14 24  2  0  0  0  0
 14 25  1  0  0  0  0
 15 26  1  0  0  0  0
 16 26  1  0  0  0  0
 16 27  2  0  0  0  0
 16 28  1  0  0  0  0
 17 19  2  0  0  0  0
 17 33  1  0  0  0  0
 18 20  2  0  0  0  0
 18 34  1  0  0  0  0
 19 49  1  0  0  0  0
 20 35  1  0  0  0  0
 21 87  1  0  0  0  0
 22 88  1  0  0  0  0
 23 25  2  0  0  0  0
 23 87  1  0  0  0  0
 24 89  1  0  0  0  0
 25 90  1  0  0  0  0
 26 71  2  0  0  0  0
 27 72  1  0  0  0  0
 27 76  1  0  0  0  0
 28 77  1  0  0  0  0
 28 82  2  0  0  0  0
 29 50  1  0  0  0  0
 29 78  1  0  0  0  0
 29 83  2  0  0  0  0
 30 65  1  0  0  0  0
 30 73  1  0  0  0  0
 30 84  2  0  0  0  0
 31 66  1  0  0  0  0
 31 79  1  0  0  0  0
 31 85  2  0  0  0  0
 32 74  1  0  0  0  0
 32 75  1  0  0  0  0
 32 86  2  0  0  0  0
 33 36  1  0  0  0  0
 34 50  1  0  0  0  0
 35 73  1  0  0  0  0
 36 38  1  0  0  0  0
 37 42  1  0  0  0  0
 37 45  1  0  0  0  0
 38 49  1  0  0  0  0
 39 40  1  0  0  0  0
 39 51  1  0  0  0  0
 40 51  1  0  0  0  0
 41 43  1  0  0  0  0
 41 52  1  0  0  0  0
 42 54  1  0  0  0  0
 43 55  1  0  0  0  0
 44 46  1  0  0  0  0
 44 53  1  0  0  0  0
 45 74  1  0  0  0  0
 46 75  1  0  0  0  0
 47 53  1  0  0  0  0
 47 75  1  0  0  0  0
 48 54  1  0  0  0  0
 48 74  1  0  0  0  0
 49 78  1  0  0  0  0
 50 73  1  0  0  0  0
 51 63  1  0  0  0  0
 52 55  1  0  0  0  0
 52 67  1  0  0  0  0
 53 67  1  0  0  0  0
 54 72  1  0  0  0  0
 55 80  1  0  0  0  0
 56 66  1  0  0  0  0
 57 68  1  0  0  0  0
 58 68  1  0  0  0  0
 59 70  1  0  0  0  0
 60 70  1  0  0  0  0
 61 70  1  0  0  0  0
 62 81  1  0  0  0  0
 63 69  1  0  0  0  0
 64 69  1  0  0  0  0
 64 88  1  0  0  0  0
 65 70  1  0  0  0  0
 65 79  1  0  0  0  0
 66 81  1  0  0  0  0
 67 68  1  0  0  0  0
 69 80  1  0  0  0  0
 71 72  1  0  0  0  0
M  CHG  2  80   1  81   1
M  ISO  4  32 100  64 101  75 100  88 101
M  END
> <Batch ID>
0145

> <Smiles>
CNC(C)C(=O)NC(C(=O)N1Cc2cc([101O:1][101CH2:1]C(CC3CC3)NC3CCC3C(C(C)C)C3CC[100N:0]([100C:0](=O)N4CCCC(n5nc(-c6ccc(Oc7ccc(F)cc7F)cc6)c(C(N)=O)c5N)C4)C3)ccc2CC1C(=O)NC1CCCc2ccccc21)C(C)(C)C

> <Shape>
0.256

> <Color>
0.068

> <Negative vol penalty>
0.000

$$$$

  -OEChem-04052321283D

 83 91  0     1  0  0  0  0  0999 V2000
  -29.5109  -19.6629   13.1324 C   0  0  0  0  0  0  0  0  0  0  0  0
  -28.9421  -18.8102   14.0731 C   0  0  0  0  0  0  0  0  0  0  0  0
  -26.3307  -27.8890   18.8915 C   0  0  0  0  0  0  0  0  0  0  0  0
  -26.1699  -27.1152   21.1746 C   0  0  0  0  0  0  0  0  0  0  0  0
  -30.8378  -20.0675   13.2722 C   0  0  0  0  0  0  0  0  0  0  0  0
  -29.7004  -18.3607   15.1536 C   0  0  0  0  0  0  0  0  0  0  0  0
  -27.1717  -18.5995   19.5346 C   0  0  0  0  0  0  0  0  0  0  0  0
  -25.9238  -29.1610   19.2939 C   0  0  0  0  0  0  0  0  0  0  0  0
  -25.7631  -28.3873   21.5771 C   0  0  0  0  0  0  0  0  0  0  0  0
  -26.2349  -17.5976   19.7845 C   0  0  0  0  0  0  0  0  0  0  0  0
  -27.2058  -31.3750   22.2195 C   0  0  0  0  0  0  0  0  0  0  0  0
  -27.7936  -31.9093   23.3661 C   0  0  0  0  0  0  0  0  0  0  0  0
  -27.8315  -16.4645   21.1937 C   0  0  0  0  0  0  0  0  0  0  0  0
  -25.6202  -32.0587   24.4107 C   0  0  0  0  0  0  0  0  0  0  0  0
  -26.4538  -26.8660   19.8319 C   0  0  0  0  0  0  0  0  0  0  0  0
  -28.1920  -25.0637   19.3444 C   0  0  0  0  0  0  0  0  0  0  0  0
  -31.6098  -19.6304   14.3602 C   0  0  0  0  0  0  0  0  0  0  0  0
  -28.4513  -18.5356   20.1047 C   0  0  0  0  0  0  0  0  0  0  0  0
  -31.0392  -18.7587   15.3073 C   0  0  0  0  0  0  0  0  0  0  0  0
  -28.7819  -17.4681   20.9516 C   0  0  0  0  0  0  0  0  0  0  0  0
  -25.6400  -29.4102   20.6367 C   0  0  0  0  0  0  0  0  0  0  0  0
  -26.5657  -16.5284   20.6118 C   0  0  0  0  0  0  0  0  0  0  0  0
  -25.8252  -31.1827   22.1685 C   0  0  0  0  0  0  0  0  0  0  0  0
  -27.0009  -32.2511   24.4616 C   0  0  0  0  0  0  0  0  0  0  0  0
  -25.0324  -31.5245   23.2640 C   0  0  0  0  0  0  0  0  0  0  0  0
  -26.8735  -25.5517   19.4167 C   0  0  0  0  0  0  0  0  0  0  0  0
  -28.0560  -23.7719   18.8980 C   0  0  0  0  0  0  0  0  0  0  0  0
  -29.4290  -25.7193   19.6533 C   0  0  0  0  0  0  0  0  0  0  0  0
  -31.4097  -18.3364   18.9594 C   0  0  0  0  0  0  0  0  0  0  0  0
  -32.2243  -18.6962   22.0785 C   0  0  0  0  0  0  0  0  0  0  0  0
  -31.3400  -18.3772   25.3593 C   0  0  0  0  0  0  0  0  0  0  0  0
  -23.1638  -20.1910   19.3008 C   0  0  0  0  0  0  0  0  0  0  0  0
  -33.0540  -20.0569   14.4434 C   0  0  0  0  0  0  0  0  0  0  0  0
  -29.4414  -19.6381   19.8466 C   0  0  0  0  0  0  0  0  0  0  0  0
  -30.1352  -17.3634   21.6042 C   0  0  0  0  0  0  0  0  0  0  0  0
  -33.6764  -19.8348   15.8195 C   0  0  0  0  0  0  0  0  0  0  0  0
  -25.2045  -20.9874   16.2687 C   0  0  0  0  0  0  0  0  0  0  0  0
  -33.3366  -18.4420   16.3406 C   0  0  0  0  0  0  0  0  0  0  0  0
  -25.9225  -22.2563   16.7257 C   0  0  0  0  0  0  0  0  0  0  0  0
  -25.2255  -11.8173   21.1966 C   0  0  0  0  0  0  0  0  0  0  0  0
  -23.8539  -20.8387   16.9588 C   0  0  0  0  0  0  0  0  0  0  0  0
  -24.6486  -22.1259   18.9154 C   0  0  0  0  0  0  0  0  0  0  0  0
  -31.8219  -18.2694   16.5065 C   0  0  1  0  0  0  0  0  0  0  0  0
  -30.8877  -19.2062   20.0678 C   0  0  1  0  0  0  0  0  0  0  0  0
  -25.1639  -13.2248   20.6638 C   0  0  1  0  0  0  0  0  0  0  0  0
  -24.1055  -12.7326   21.6168 C   0  0  1  0  0  0  0  0  0  0  0  0
  -26.0276  -22.3071   18.2594 C   0  0  2  0  0  0  0  0  0  0  0  0
  -32.2295  -18.7160   27.6812 C   0  0  0  0  0  0  0  0  0  0  0  0
  -22.0316  -11.3511   21.9131 C   0  0  0  0  0  0  0  0  0  0  0  0
  -33.9020  -16.1625   21.8030 C   0  0  0  0  0  0  0  0  0  0  0  0
  -33.9788  -16.0252   24.3017 C   0  0  0  0  0  0  0  0  0  0  0  0
  -34.9791  -17.9876   23.1309 C   0  0  0  0  0  0  0  0  0  0  0  0
  -21.9988  -19.1933   17.2891 C   0  0  0  0  0  0  0  0  0  0  0  0
  -29.2321  -20.3521   26.0035 C   0  0  0  0  0  0  0  0  0  0  0  0
  -26.1593  -14.2390   21.1113 C   0  0  0  0  0  0  0  0  0  1  0  0
  -22.2978  -17.0201   19.5722 C   0  0  0  0  0  0  0  0  0  0  0  0
  -21.5491  -18.3460   19.5621 C   0  0  0  0  0  0  0  0  0  0  0  0
  -21.6383  -15.9736   20.4621 C   0  0  0  0  0  0  0  0  0  0  0  0
  -21.8287  -13.7525   21.2058 C   0  0  0  0  0  0  0  0  0  0  0  0
  -32.4636  -17.7572   23.2362 C   0  0  1  0  0  0  0  0  0  0  0  0
  -31.4522  -19.3362   26.5306 C   0  0  2  0  0  0  0  0  0  0  0  0
  -22.7182  -12.4895   21.1324 C   0  0  1  0  0  0  0  0  0  0  0  0
  -33.8059  -16.9838   23.1042 C   0  0  0  0  0  0  0  0  0  0  0  0
  -25.9666  -24.6439   19.0458 N   0  0  0  0  0  0  0  0  0  0  0  0
  -26.7165  -23.5726   18.7360 N   0  0  0  0  0  0  0  0  0  0  0  0
  -31.0710  -18.4629   21.3161 N   0  0  0  0  0  0  0  0  0  0  0  0
  -23.9793  -20.9207   18.4201 N   0  0  0  0  0  0  0  0  0  0  0  0
  -28.9527  -22.7984   18.6320 N   0  0  0  0  0  0  0  0  0  0  0  0
  -29.3881  -27.0473   20.0996 N   0  0  0  0  0  0  0  0  0  0  0  0
  -31.3672  -18.9290   17.7118 N   0  0  0  0  0  0  0  0  0  0  0  0
  -32.3559  -18.5651   24.4461 N   0  0  0  0  0  0  0  0  0  0  0  0
  -22.2023  -19.3448   18.7280 N   0  0  0  0  0  0  0  0  0  0  0  0
  -30.0971  -19.7095   27.0261 N   0  3  0  0  0  0  0  0  0  0  0  0
  -30.5390  -25.1500   19.5212 O   0  0  0  0  0  0  0  0  0  0  0  0
  -31.8220  -17.2116   19.2171 O   0  0  0  0  0  0  0  0  0  0  0  0
  -33.0272  -19.6075   21.8632 O   0  0  0  0  0  0  0  0  0  0  0  0
  -30.4431  -17.5421   25.2657 O   0  0  0  0  0  0  0  0  0  0  0  0
  -23.2950  -20.2825   20.5281 O   0  0  0  0  0  0  0  0  0  0  0  0
  -25.2432  -30.6514   21.0297 O   0  0  0  0  0  0  0  0  0  0  0  0
  -25.6534  -15.5489   20.8569 O   0  0  0  0  0  0  0  0  0  1  0  0
  -22.3948  -14.7726   20.3936 O   0  0  0  0  0  0  0  0  0  0  0  0
  -27.5656  -32.7627   25.5632 F   0  0  0  0  0  0  0  0  0  0  0  0
  -23.7057  -31.3409   23.2213 F   0  0  0  0  0  0  0  0  0  0  0  0
  1  2  1  0  0  0  0
  1  5  2  0  0  0  0
  2  6  2  0  0  0  0
  3  8  2  0  0  0  0
  3 15  1  0  0  0  0
  4  9  1  0  0  0  0
  4 15  2  0  0  0  0
  5 17  1  0  0  0  0
  6 19  1  0  0  0  0
  7 10  2  0  0  0  0
  7 18  1  0  0  0  0
  8 21  1  0  0  0  0
  9 21  2  0  0  0  0
 10 22  1  0  0  0  0
 11 12  2  0  0  0  0
 11 23  1  0  0  0  0
 12 24  1  0  0  0  0
 13 20  1  0  0  0  0
 13 22  2  0  0  0  0
 14 24  2  0  0  0  0
 14 25  1  0  0  0  0
 15 26  1  0  0  0  0
 16 26  1  0  0  0  0
 16 27  2  0  0  0  0
 16 28  1  0  0  0  0
 17 19  2  0  0  0  0
 17 33  1  0  0  0  0
 18 20  2  0  0  0  0
 18 34  1  0  0  0  0
 19 43  1  0  0  0  0
 20 35  1  0  0  0  0
 21 79  1  0  0  0  0
 22 80  1  0  0  0  0
 23 25  2  0  0  0  0
 23 79  1  0  0  0  0
 24 82  1  0  0  0  0
 25 83  1  0  0  0  0
 26 64  2  0  0  0  0
 27 65  1  0  0  0  0
 27 68  1  0  0  0  0
 28 69  1  0  0  0  0
 28 74  2  0  0  0  0
 29 44  1  0  0  0  0
 29 70  1  0  0  0  0
 29 75  2  0  0  0  0
 30 60  1  0  0  0  0
 30 66  1  0  0  0  0
 30 76  2  0  0  0  0
 31 61  1  0  0  0  0
 31 71  1  0  0  0  0
 31 77  2  0  0  0  0
 32 67  1  0  0  0  0
 32 72  1  0  0  0  0
 32 78  2  0  0  0  0
 33 36  1  0  0  0  0
 34 44  1  0  0  0  0
 35 66  1  0  0  0  0
 36 38  1  0  0  0  0
 37 39  1  0  0  0  0
 37 41  1  0  0  0  0
 38 43  1  0  0  0  0
 39 47  1  0  0  0  0
 40 45  1  0  0  0  0
 40 46  1  0  0  0  0
 41 67  1  0  0  0  0
 42 47  1  0  0  0  0
 42 67  1  0  0  0  0
 43 70  1  0  0  0  0
 44 66  1  0  0  0  0
 45 46  1  0  0  0  0
 45 55  1  0  0  0  0
 46 62  1  0  0  0  0
 47 65  1  0  0  0  0
 48 61  1  0  0  0  0
 49 62  1  0  0  0  0
 50 63  1  0  0  0  0
 51 63  1  0  0  0  0
 52 63  1  0  0  0  0
 53 72  1  0  0  0  0
 54 73  1  0  0  0  0
 55 80  1  0  0  0  0
 56 57  1  0  0  0  0
 56 58  1  0  0  0  0
 57 72  1  0  0  0  0
 58 81  1  0  0  0  0
 59 62  1  0  0  0  0
 59 81  1  0  0  0  0
 60 63  1  0  0  0  0
 60 71  1  0  0  0  0
 61 73  1  0  0  0  0
 64 65  1  0  0  0  0
M  CHG  1  73   1
M  ISO  4  32 100  55 101  72 100  80 101
M  END
> <Batch ID>
0145

> <Smiles>
CNC(C)C(=O)NC(C(=O)N1Cc2cc([101O:1][101CH2:1]C3CC3C(C)COCCC[100N:0](C)[100C:0](=O)N3CCCC(n4nc(-c5ccc(Oc6ccc(F)cc6F)cc5)c(C(N)=O)c4N)C3)ccc2CC1C(=O)NC1CCCc2ccccc21)C(C)(C)C

> <Shape>
0.195

> <Color>
0.089

> <Negative vol penalty>
0.000

$$$$

  -OEChem-04052321282D

  0  0  0     0  0  0  0  0  0999 V2000
M  END
$$$$

  -OEChem-04052321283D

 84 92  0     1  0  0  0  0  0999 V2000
  -20.4048  -11.6311   16.6538 C   0  0  0  0  0  0  0  0  0  0  0  0
  -20.5126  -12.9780   16.9849 C   0  0  0  0  0  0  0  0  0  0  0  0
  -28.3815  -28.4787   20.7475 C   0  0  0  0  0  0  0  0  0  0  0  0
  -26.8433  -26.9933   19.6230 C   0  0  0  0  0  0  0  0  0  0  0  0
  -21.2758  -10.7028   17.2225 C   0  0  0  0  0  0  0  0  0  0  0  0
  -21.4908  -13.3972   17.8860 C   0  0  0  0  0  0  0  0  0  0  0  0
  -24.5768  -18.6859   17.7729 C   0  0  0  0  0  0  0  0  0  0  0  0
  -29.4340  -27.6124   20.4521 C   0  0  0  0  0  0  0  0  0  0  0  0
  -27.8958  -26.1271   19.3274 C   0  0  0  0  0  0  0  0  0  0  0  0
  -24.4071  -19.8858   18.4621 C   0  0  0  0  0  0  0  0  0  0  0  0
  -29.7044  -23.7651   20.9340 C   0  0  0  0  0  0  0  0  0  0  0  0
  -29.4992  -22.4013   21.1423 C   0  0  0  0  0  0  0  0  0  0  0  0
  -26.0420  -19.1763   20.0877 C   0  0  0  0  0  0  0  0  0  0  0  0
  -20.7933  -23.0278   21.9159 C   0  0  0  0  0  0  0  0  0  0  0  0
  -29.9132  -21.9811   18.7994 C   0  0  0  0  0  0  0  0  0  0  0  0
  -21.3587  -24.3245   24.2493 C   0  0  0  0  0  0  0  0  0  0  0  0
  -27.0861  -28.1691   20.3330 C   0  0  0  0  0  0  0  0  0  0  0  0
  -25.5345  -30.1367   19.8545 C   0  0  0  0  0  0  0  0  0  0  0  0
  -22.2714  -11.1120   18.1236 C   0  0  0  0  0  0  0  0  0  0  0  0
  -25.4739  -17.7159   18.2427 C   0  0  0  0  0  0  0  0  0  0  0  0
  -22.3751  -12.4732   18.4683 C   0  0  0  0  0  0  0  0  0  0  0  0
  -26.2232  -17.9660   19.4012 C   0  0  0  0  0  0  0  0  0  0  0  0
  -19.8536  -23.8977   22.4579 C   0  0  0  0  0  0  0  0  0  0  0  0
  -20.1340  -24.5624   23.6465 C   0  0  0  0  0  0  0  0  0  0  0  0
  -29.1912  -26.4366   19.7420 C   0  0  0  0  0  0  0  0  0  0  0  0
  -25.1376  -20.1300   19.6214 C   0  0  0  0  0  0  0  0  0  0  0  0
  -30.0139  -24.2370   19.6583 C   0  0  0  0  0  0  0  0  0  0  0  0
  -29.6037  -21.5092   20.0751 C   0  0  0  0  0  0  0  0  0  0  0  0
  -30.1184  -23.3450   18.5911 C   0  0  0  0  0  0  0  0  0  0  0  0
  -25.9983  -29.0633   20.6384 C   0  0  0  0  0  0  0  0  0  0  0  0
  -21.9886  -22.8589   22.5960 C   0  0  0  0  0  0  0  0  0  0  0  0
  -24.4936  -30.6656   20.5780 C   0  0  0  0  0  0  0  0  0  0  0  0
  -26.0027  -30.6131   18.5859 C   0  0  0  0  0  0  0  0  0  0  0  0
  -25.2053  -14.7147   19.2548 C   0  0  0  0  0  0  0  0  0  0  0  0
  -28.4456  -14.8545   19.3101 C   0  0  0  0  0  0  0  0  0  0  0  0
  -31.2596  -16.7744   19.5156 C   0  0  0  0  0  0  0  0  0  0  0  0
  -20.8030  -28.3632   24.6924 C   0  0  0  0  0  0  0  0  0  0  0  0
  -23.1593  -10.0655   18.7488 C   0  0  0  0  0  0  0  0  0  0  0  0
  -25.6652  -16.4379   17.4729 C   0  0  0  0  0  0  0  0  0  0  0  0
  -27.2141  -16.9657   19.9360 C   0  0  0  0  0  0  0  0  0  0  0  0
  -24.4097  -10.6422   19.4077 C   0  0  0  0  0  0  0  0  0  0  0  0
  -22.9409  -31.1847   25.0735 C   0  0  0  0  0  0  0  0  0  0  0  0
  -24.0507  -11.8480   20.2703 C   0  0  0  0  0  0  0  0  0  0  0  0
  -23.9250  -31.0578   23.9094 C   0  0  0  0  0  0  0  0  0  0  0  0
  -22.5651  -29.8198   25.6462 C   0  0  0  0  0  0  0  0  0  0  0  0
  -23.0446  -28.7235   23.4917 C   0  0  0  0  0  0  0  0  0  0  0  0
  -23.4392  -12.9701   19.4227 C   0  0  1  0  0  0  0  0  0  0  0  0
  -26.2280  -15.3052   18.3258 C   0  0  1  0  0  0  0  0  0  0  0  0
  -23.4100  -30.0704   22.8449 C   0  0  2  0  0  0  0  0  0  0  0  0
  -17.7865  -22.7974   21.5618 C   0  0  0  0  0  0  0  0  0  0  0  0
  -33.7624  -16.6015   19.5732 C   0  0  0  0  0  0  0  0  0  0  0  0
  -28.3117  -13.9176   22.2108 C   0  0  0  0  0  0  0  0  0  0  0  0
  -30.6839  -14.6680   22.4897 C   0  0  0  0  0  0  0  0  0  0  0  0
  -30.1319  -12.8643   20.8573 C   0  0  0  0  0  0  0  0  0  0  0  0
  -31.5426  -18.3684   17.0381 C   0  0  0  0  0  0  0  0  0  0  0  0
  -18.5555  -24.1020   21.7496 C   0  0  0  0  0  0  0  0  0  0  0  0
  -19.1639  -25.5046   24.2703 C   0  0  0  0  0  0  0  0  0  0  0  0
  -19.1315  -26.8863   23.6043 C   0  0  0  0  0  0  0  0  0  0  0  0
  -25.1773  -21.2695   21.7084 C   0  0  0  0  0  0  0  0  0  1  0  0
  -24.2913  -22.3138   22.3595 C   0  0  0  0  0  0  0  0  0  0  0  0
  -29.4813  -15.2508   20.3345 C   0  0  1  0  0  0  0  0  0  0  0  0
  -32.5355  -16.7829   18.6931 C   0  0  2  0  0  0  0  0  0  0  0  0
  -29.6322  -14.1934   21.4643 C   0  0  0  0  0  0  0  0  0  0  0  0
  -22.2966  -23.4869   23.7529 N   0  0  0  0  0  0  0  0  0  0  0  0
  -25.3087  -28.9177   21.7730 N   0  0  0  0  0  0  0  0  0  0  0  0
  -24.4010  -29.9066   21.7073 N   0  0  0  0  0  0  0  0  0  0  0  0
  -27.3608  -15.7286   19.1515 N   0  0  0  0  0  0  0  0  0  0  0  0
  -22.0830  -28.9316   24.5857 N   0  0  0  0  0  0  0  0  0  0  0  0
  -23.6578  -31.7013   20.3518 N   0  0  0  0  0  0  0  0  0  0  0  0
  -27.0820  -29.9541   17.9816 N   0  0  0  0  0  0  0  0  0  0  0  0
  -24.4739  -13.6806   18.7023 N   0  0  0  0  0  0  0  0  0  0  0  0
  -30.7100  -15.5122   19.5927 N   0  0  0  0  0  0  0  0  0  0  0  0
  -20.4214  -27.5386   23.6412 N   0  0  0  0  0  0  0  0  0  0  0  0
  -32.6701  -18.0730   17.9592 N   0  3  0  0  0  0  0  0  0  0  0  0
  -25.4900  -31.6043   18.0130 O   0  0  0  0  0  0  0  0  0  0  0  0
  -25.0893  -15.1631   20.3893 O   0  0  0  0  0  0  0  0  0  0  0  0
  -28.5973  -13.8116   18.6691 O   0  0  0  0  0  0  0  0  0  0  0  0
  -30.7987  -17.7857   20.0406 O   0  0  0  0  0  0  0  0  0  0  0  0
  -20.0535  -28.5791   25.6509 O   0  0  0  0  0  0  0  0  0  0  0  0
  -30.2181  -25.5912   19.4533 O   0  0  0  0  0  0  0  0  0  0  0  0
  -24.9734  -21.3001   20.2964 O   0  0  0  0  0  0  0  0  0  1  0  0
  -22.9304  -22.0066   22.0826 O   0  0  0  0  0  0  0  0  0  0  0  0
  -29.4081  -20.1994   20.2756 F   0  0  0  0  0  0  0  0  0  0  0  0
  -30.4166  -23.7922   17.3635 F   0  0  0  0  0  0  0  0  0  0  0  0
  1  2  1  0  0  0  0
  1  5  2  0  0  0  0
  2  6  2  0  0  0  0
  3  8  2  0  0  0  0
  3 17  1  0  0  0  0
  4  9  1  0  0  0  0
  4 17  2  0  0  0  0
  5 19  1  0  0  0  0
  6 21  1  0  0  0  0
  7 10  2  0  0  0  0
  7 20  1  0  0  0  0
  8 25  1  0  0  0  0
  9 25  2  0  0  0  0
 10 26  1  0  0  0  0
 11 12  2  0  0  0  0
 11 27  1  0  0  0  0
 12 28  1  0  0  0  0
 13 22  1  0  0  0  0
 13 26  2  0  0  0  0
 14 23  1  0  0  0  0
 14 31  2  0  0  0  0
 15 28  2  0  0  0  0
 15 29  1  0  0  0  0
 16 24  1  0  0  0  0
 16 64  2  0  0  0  0
 17 30  1  0  0  0  0
 18 30  1  0  0  0  0
 18 32  2  0  0  0  0
 18 33  1  0  0  0  0
 19 21  2  0  0  0  0
 19 38  1  0  0  0  0
 20 22  2  0  0  0  0
 20 39  1  0  0  0  0
 21 47  1  0  0  0  0
 22 40  1  0  0  0  0
 23 24  2  0  0  0  0
 23 56  1  0  0  0  0
 24 57  1  0  0  0  0
 25 80  1  0  0  0  0
 26 81  1  0  0  0  0
 27 29  2  0  0  0  0
 27 80  1  0  0  0  0
 28 83  1  0  0  0  0
 29 84  1  0  0  0  0
 30 65  2  0  0  0  0
 31 64  1  0  0  0  0
 31 82  1  0  0  0  0
 32 66  1  0  0  0  0
 32 69  1  0  0  0  0
 33 70  1  0  0  0  0
 33 75  2  0  0  0  0
 34 48  1  0  0  0  0
 34 71  1  0  0  0  0
 34 76  2  0  0  0  0
 35 61  1  0  0  0  0
 35 67  1  0  0  0  0
 35 77  2  0  0  0  0
 36 62  1  0  0  0  0
 36 72  1  0  0  0  0
 36 78  2  0  0  0  0
 37 68  1  0  0  0  0
 37 73  1  0  0  0  0
 37 79  2  0  0  0  0
 38 41  1  0  0  0  0
 39 48  1  0  0  0  0
 40 67  1  0  0  0  0
 41 43  1  0  0  0  0
 42 44  1  0  0  0  0
 42 45  1  0  0  0  0
 43 47  1  0  0  0  0
 44 49  1  0  0  0  0
 45 68  1  0  0  0  0
 46 49  1  0  0  0  0
 46 68  1  0  0  0  0
 47 71  1  0  0  0  0
 48 67  1  0  0  0  0
 49 66  1  0  0  0  0
 50 56  1  0  0  0  0
 51 62  1  0  0  0  0
 52 63  1  0  0  0  0
 53 63  1  0  0  0  0
 54 63  1  0  0  0  0
 55 74  1  0  0  0  0
 57 58  1  0  0  0  0
 58 73  1  0  0  0  0
 59 60  1  0  0  0  0
 59 81  1  0  0  0  0
 60 82  1  0  0  0  0
 61 63  1  0  0  0  0
 61 72  1  0  0  0  0
 62 74  1  0  0  0  0
 65 66  1  0  0  0  0
M  CHG  1  74   1
M  ISO  4  37 100  59 101  73 100  81 101
M  END
> <Batch ID>
0145

> <Smiles>
CCc1cc(OC[101CH2:1][101O:1]c2ccc3c(c2)CN(C(=O)C(NC(=O)C(C)NC)C(C)(C)C)C(C(=O)NC2CCCc4ccccc42)C3)ncc1CC[100NH:0][100C:0](=O)N1CCCC(n2nc(-c3ccc(Oc4ccc(F)cc4F)cc3)c(C(N)=O)c2N)C1

> <Shape>
0.214

> <Color>
0.059

> <Negative vol penalty>
0.000

$$$$

  -OEChem-04052321283D

 89 98  0     1  0  0  0  0  0999 V2000
  -28.6451  -31.2607   26.7070 C   0  0  0  0  0  0  0  0  0  0  0  0
  -28.7607  -30.0550   26.0225 C   0  0  0  0  0  0  0  0  0  0  0  0
  -23.9538   -9.6626   21.5055 C   0  0  0  0  0  0  0  0  0  0  0  0
  -24.5121  -10.7541   23.5873 C   0  0  0  0  0  0  0  0  0  0  0  0
  -27.4414  -31.9637   26.6798 C   0  0  0  0  0  0  0  0  0  0  0  0
  -27.6722  -29.5512   25.3114 C   0  0  0  0  0  0  0  0  0  0  0  0
  -28.9722  -27.8362   20.7273 C   0  0  0  0  0  0  0  0  0  0  0  0
  -23.4896   -8.5529   22.2117 C   0  0  0  0  0  0  0  0  0  0  0  0
  -24.0479   -9.6444   24.2936 C   0  0  0  0  0  0  0  0  0  0  0  0
  -29.5829  -26.5843   20.6654 C   0  0  0  0  0  0  0  0  0  0  0  0
  -20.7143   -7.6790   23.9341 C   0  0  0  0  0  0  0  0  0  0  0  0
  -19.4973   -7.1227   23.5403 C   0  0  0  0  0  0  0  0  0  0  0  0
  -27.4763  -25.5948   20.0312 C   0  0  0  0  0  0  0  0  0  0  0  0
  -30.2113  -19.8217   22.3567 C   0  0  0  0  0  0  0  0  0  0  0  0
  -20.6040   -5.0238   23.0851 C   0  0  0  0  0  0  0  0  0  0  0  0
  -24.4651  -10.7632   22.1933 C   0  0  0  0  0  0  0  0  0  0  0  0
  -24.2028  -13.0392   21.0714 C   0  0  0  0  0  0  0  0  0  0  0  0
  -26.3406  -31.4730   25.9601 C   0  0  0  0  0  0  0  0  0  0  0  0
  -27.6043  -27.9752   20.4518 C   0  0  0  0  0  0  0  0  0  0  0  0
  -26.4522  -30.2477   25.2757 C   0  0  0  0  0  0  0  0  0  0  0  0
  -26.8512  -26.8498   20.0878 C   0  0  0  0  0  0  0  0  0  0  0  0
  -23.5366   -8.5438   23.6057 C   0  0  0  0  0  0  0  0  0  0  0  0
  -28.8343  -25.4630   20.3201 C   0  0  0  0  0  0  0  0  0  0  0  0
  -21.8762   -6.9077   23.9032 C   0  0  0  0  0  0  0  0  0  0  0  0
  -29.2534  -20.8554   22.5018 C   0  0  0  0  0  0  0  0  0  0  0  0
  -19.4421   -5.7951   23.1159 C   0  0  0  0  0  0  0  0  0  0  0  0
  -21.8210   -5.5802   23.4788 C   0  0  0  0  0  0  0  0  0  0  0  0
  -24.9453  -11.9095   21.4643 C   0  0  0  0  0  0  0  0  0  0  0  0
  -28.1509  -20.3104   23.1219 C   0  0  0  0  0  0  0  0  0  0  0  0
  -29.6649  -18.6764   22.8925 C   0  0  0  0  0  0  0  0  0  0  0  0
  -25.1091  -13.8337   20.4128 C   0  0  0  0  0  0  0  0  0  0  0  0
  -22.8177  -13.3432   21.2830 C   0  0  0  0  0  0  0  0  0  0  0  0
  -25.0690  -28.9397   22.1089 C   0  0  0  0  0  0  0  0  0  0  0  0
  -23.5675  -28.6233   19.2510 C   0  0  0  0  0  0  0  0  0  0  0  0
  -23.4855  -27.1638   16.1672 C   0  0  0  0  0  0  0  0  0  0  0  0
  -31.0694  -14.3247   20.7041 C   0  0  0  0  0  0  0  0  0  0  0  0
  -25.0454  -32.2448   25.9990 C   0  0  0  0  0  0  0  0  0  0  0  0
  -26.9663  -29.3366   20.4968 C   0  0  0  0  0  0  0  0  0  0  0  0
  -25.3838  -26.9488   19.7629 C   0  0  0  0  0  0  0  0  0  0  0  0
  -24.0558  -31.8290   24.9137 C   0  0  0  0  0  0  0  0  0  0  0  0
  -29.1212  -13.5796   17.8186 C   0  0  0  0  0  0  0  0  0  0  0  0
  -23.9518  -30.3089   24.8400 C   0  0  0  0  0  0  0  0  0  0  0  0
  -25.5424  -20.5221   22.9702 C   0  0  0  0  0  0  0  0  0  0  0  0
  -26.1072  -21.7832   22.3951 C   0  0  0  0  0  0  0  0  0  0  0  0
  -27.7630  -13.1690   18.3903 C   0  0  0  0  0  0  0  0  0  0  0  0
  -30.2725  -13.1034   18.7017 C   0  0  0  0  0  0  0  0  0  0  0  0
  -28.8155  -13.0934   20.6893 C   0  0  0  0  0  0  0  0  0  0  0  0
  -25.3016  -29.6808   24.4726 C   0  0  1  0  0  0  0  0  0  0  0  0
  -26.8630  -21.0540   23.4860 C   0  0  0  0  0  0  0  0  0  0  0  0
  -25.4550  -29.2819   20.6976 C   0  0  1  0  0  0  0  0  0  0  0  0
  -27.6210  -13.5996   19.8626 C   0  0  2  0  0  0  0  0  0  0  0  0
  -22.1155  -27.0727   14.0667 C   0  0  0  0  0  0  0  0  0  0  0  0
  -28.0465  -17.5238   25.3102 C   0  0  0  0  0  0  0  0  0  0  0  0
  -27.0711  -16.9349   23.0501 C   0  0  0  0  0  0  0  0  0  0  0  0
  -31.6650  -15.1344   24.2570 C   0  0  0  0  0  0  0  0  0  0  0  0
  -21.5298  -26.8424   20.6602 C   0  0  0  0  0  0  0  0  0  0  0  0
  -20.7816  -26.0374   18.4107 C   0  0  0  0  0  0  0  0  0  0  0  0
  -20.5492  -28.4472   19.0117 C   0  0  0  0  0  0  0  0  0  0  0  0
  -25.7174  -28.2082   14.5280 C   0  0  0  0  0  0  0  0  0  0  0  0
  -31.4882  -17.0094   22.5428 C   0  0  0  0  0  0  0  0  0  0  0  0
  -30.5348  -24.0113   21.1305 C   0  0  0  0  0  0  0  0  0  1  0  0
  -30.5911  -22.5376   21.4837 C   0  0  0  0  0  0  0  0  0  0  0  0
  -22.8468  -27.5034   18.5401 C   0  0  1  0  0  0  0  0  0  0  0  0
  -23.2756  -27.7477   14.7817 C   0  0  2  0  0  0  0  0  0  0  0  0
  -27.4927  -18.0653   23.9908 C   0  0  0  0  0  0  0  0  0  0  0  0
  -31.7242  -15.5153   22.7808 C   0  0  2  0  0  0  0  0  0  0  0  0
  -21.4540  -27.2051   19.1636 C   0  0  0  0  0  0  0  0  0  0  0  0
  -26.2247  -11.9765   21.0866 N   0  0  0  0  0  0  0  0  0  0  0  0
  -28.4121  -18.9852   23.3544 N   0  0  0  0  0  0  0  0  0  0  0  0
  -26.2932  -13.1578   20.4495 N   0  0  0  0  0  0  0  0  0  0  0  0
  -24.8043  -28.3007   19.8271 N   0  0  0  0  0  0  0  0  0  0  0  0
  -30.0780  -13.5462   20.0844 N   0  0  0  0  0  0  0  0  0  0  0  0
  -25.0008  -15.0375   19.8116 N   0  0  0  0  0  0  0  0  0  0  0  0
  -22.0291  -12.4170   21.9791 N   0  0  0  0  0  0  0  0  0  0  0  0
  -30.1637  -17.4261   23.0049 N   0  0  0  0  0  0  0  0  0  0  0  0
  -25.5555  -29.8217   23.0548 N   0  0  0  0  0  0  0  0  0  0  0  0
  -22.8029  -27.8762   17.1304 N   0  0  0  0  0  0  0  0  0  0  0  0
  -30.8030  -14.7074   22.0130 N   0  0  0  0  0  0  0  0  0  0  0  0
  -24.5030  -27.5730   13.9546 N   0  3  0  0  0  0  0  0  0  0  0  0
  -22.2910  -14.3972   20.8527 O   0  0  0  0  0  0  0  0  0  0  0  0
  -24.3796  -27.9496   22.3235 O   0  0  0  0  0  0  0  0  0  0  0  0
  -23.0554  -29.7450   19.2874 O   0  0  0  0  0  0  0  0  0  0  0  0
  -24.1821  -26.1726   16.3738 O   0  0  0  0  0  0  0  0  0  0  0  0
  -32.1122  -14.6587   20.1314 O   0  0  0  0  0  0  0  0  0  0  0  0
  -23.0835   -7.4613   24.2952 O   0  0  0  0  0  0  0  0  0  0  0  0
  -29.4277  -24.2398   20.2596 O   0  0  0  0  0  0  0  0  0  1  0  0
  -29.3702  -22.1630   22.1100 O   0  0  0  0  0  0  0  0  0  0  0  0
  -18.2731   -5.2606   22.7393 F   0  0  0  0  0  0  0  0  0  0  0  0
  -22.9337   -4.8340   23.4481 F   0  0  0  0  0  0  0  0  0  0  0  0
  1  2  1  0  0  0  0
  1  5  2  0  0  0  0
  2  6  2  0  0  0  0
  3  8  2  0  0  0  0
  3 16  1  0  0  0  0
  4  9  1  0  0  0  0
  4 16  2  0  0  0  0
  5 18  1  0  0  0  0
  6 20  1  0  0  0  0
  7 10  2  0  0  0  0
  7 19  1  0  0  0  0
  8 22  1  0  0  0  0
  9 22  2  0  0  0  0
 10 23  1  0  0  0  0
 11 12  2  0  0  0  0
 11 24  1  0  0  0  0
 12 26  1  0  0  0  0
 13 21  1  0  0  0  0
 13 23  2  0  0  0  0
 14 25  1  0  0  0  0
 14 30  2  0  0  0  0
 15 26  2  0  0  0  0
 15 27  1  0  0  0  0
 16 28  1  0  0  0  0
 17 28  1  0  0  0  0
 17 31  2  0  0  0  0
 17 32  1  0  0  0  0
 18 20  2  0  0  0  0
 18 37  1  0  0  0  0
 19 21  2  0  0  0  0
 19 38  1  0  0  0  0
 20 48  1  0  0  0  0
 21 39  1  0  0  0  0
 22 85  1  0  0  0  0
 23 86  1  0  0  0  0
 24 27  2  0  0  0  0
 24 85  1  0  0  0  0
 25 29  2  0  0  0  0
 25 87  1  0  0  0  0
 26 88  1  0  0  0  0
 27 89  1  0  0  0  0
 28 68  2  0  0  0  0
 29 49  1  0  0  0  0
 29 69  1  0  0  0  0
 30 69  1  0  0  0  0
 30 75  1  0  0  0  0
 31 70  1  0  0  0  0
 31 73  1  0  0  0  0
 32 74  1  0  0  0  0
 32 80  2  0  0  0  0
 33 50  1  0  0  0  0
 33 76  1  0  0  0  0
 33 81  2  0  0  0  0
 34 63  1  0  0  0  0
 34 71  1  0  0  0  0
 34 82  2  0  0  0  0
 35 64  1  0  0  0  0
 35 77  1  0  0  0  0
 35 83  2  0  0  0  0
 36 72  1  0  0  0  0
 36 78  1  0  0  0  0
 36 84  2  0  0  0  0
 37 40  1  0  0  0  0
 38 50  1  0  0  0  0
 39 71  1  0  0  0  0
 40 42  1  0  0  0  0
 41 45  1  0  0  0  0
 41 46  1  0  0  0  0
 42 48  1  0  0  0  0
 43 44  1  0  0  0  0
 43 49  1  0  0  0  0
 44 49  1  0  0  0  0
 45 51  1  0  0  0  0
 46 72  1  0  0  0  0
 47 51  1  0  0  0  0
 47 72  1  0  0  0  0
 48 76  1  0  0  0  0
 50 71  1  0  0  0  0
 51 70  1  0  0  0  0
 52 64  1  0  0  0  0
 53 65  1  0  0  0  0
 54 65  1  0  0  0  0
 55 66  1  0  0  0  0
 56 67  1  0  0  0  0
 57 67  1  0  0  0  0
 58 67  1  0  0  0  0
 59 79  1  0  0  0  0
 60 66  1  0  0  0  0
 60 75  1  0  0  0  0
 61 62  1  0  0  0  0
 61 86  1  0  0  0  0
 62 87  1  0  0  0  0
 63 67  1  0  0  0  0
 63 77  1  0  0  0  0
 64 79  1  0  0  0  0
 65 69  1  0  0  0  0
 66 78  1  0  0  0  0
 68 70  1  0  0  0  0
M  CHG  1  79   1
M  ISO  4  36 100  61 101  78 100  86 101
M  END
> <Batch ID>
0145

> <Smiles>
CNC(C)C(=O)NC(C(=O)N1Cc2cc([101O:1][101CH2:1]COc3cc(NCC(C)[100NH:0][100C:0](=O)N4CCCC(n5nc(-c6ccc(Oc7ccc(F)cc7F)cc6)c(C(N)=O)c5N)C4)n(C(C)C)c3C3CC3)ccc2CC1C(=O)NC1CCCc2ccccc21)C(C)(C)C

> <Shape>
0.303

> <Color>
0.146

> <Negative vol penalty>
0.000

$$$$

  -OEChem-04052321283D

 90100  0     1  0  0  0  0  0999 V2000
  -18.4879  -35.3236   21.9882 C   0  0  0  0  0  0  0  0  0  0  0  0
  -18.3430  -34.1793   21.2103 C   0  0  0  0  0  0  0  0  0  0  0  0
  -23.1097   -9.8270   19.9771 C   0  0  0  0  0  0  0  0  0  0  0  0
  -23.8199   -9.9278   22.2842 C   0  0  0  0  0  0  0  0  0  0  0  0
  -19.7495  -35.6955   22.4507 C   0  0  0  0  0  0  0  0  0  0  0  0
  -19.4599  -33.4069   20.8936 C   0  0  0  0  0  0  0  0  0  0  0  0
  -20.8093  -25.8151   22.1472 C   0  0  0  0  0  0  0  0  0  0  0  0
  -22.3735   -8.6751   20.2540 C   0  0  0  0  0  0  0  0  0  0  0  0
  -23.0837   -8.7758   22.5611 C   0  0  0  0  0  0  0  0  0  0  0  0
  -21.2273  -24.5203   22.4551 C   0  0  0  0  0  0  0  0  0  0  0  0
  -19.8525   -7.9623   23.1247 C   0  0  0  0  0  0  0  0  0  0  0  0
  -19.0710   -7.9566   24.2801 C   0  0  0  0  0  0  0  0  0  0  0  0
  -23.5333  -25.2483   22.4347 C   0  0  0  0  0  0  0  0  0  0  0  0
  -29.6378  -17.8471   22.6041 C   0  0  0  0  0  0  0  0  0  0  0  0
  -31.3557  -19.5303   22.6142 C   0  0  0  0  0  0  0  0  0  0  0  0
  -20.3178   -6.0627   25.1140 C   0  0  0  0  0  0  0  0  0  0  0  0
  -23.8330  -10.4533   20.9922 C   0  0  0  0  0  0  0  0  0  0  0  0
  -24.1491  -12.9762   20.7856 C   0  0  0  0  0  0  0  0  0  0  0  0
  -20.8810  -34.9220   22.1476 C   0  0  0  0  0  0  0  0  0  0  0  0
  -21.7520  -26.8360   21.9968 C   0  0  0  0  0  0  0  0  0  0  0  0
  -20.7380  -33.7696   21.3514 C   0  0  0  0  0  0  0  0  0  0  0  0
  -23.1198  -26.5499   22.1385 C   0  0  0  0  0  0  0  0  0  0  0  0
  -30.0896  -19.1019   22.9974 C   0  0  0  0  0  0  0  0  0  0  0  0
  -22.3605   -8.1495   21.5460 C   0  0  0  0  0  0  0  0  0  0  0  0
  -22.5860  -24.2376   22.5982 C   0  0  0  0  0  0  0  0  0  0  0  0
  -20.8666   -7.0181   22.9640 C   0  0  0  0  0  0  0  0  0  0  0  0
  -19.3037   -7.0068   25.2748 C   0  0  0  0  0  0  0  0  0  0  0  0
  -21.0993   -6.0683   23.9586 C   0  0  0  0  0  0  0  0  0  0  0  0
  -24.5941  -11.6430   20.7066 C   0  0  0  0  0  0  0  0  0  0  0  0
  -30.4838  -17.0651   21.8343 C   0  0  0  0  0  0  0  0  0  0  0  0
  -32.1249  -18.6729   21.8441 C   0  0  0  0  0  0  0  0  0  0  0  0
  -25.2404  -13.7248   20.4178 C   0  0  0  0  0  0  0  0  0  0  0  0
  -27.1109  -23.9408   23.6479 C   0  0  0  0  0  0  0  0  0  0  0  0
  -22.8642  -13.4920   21.1582 C   0  0  0  0  0  0  0  0  0  0  0  0
  -22.3916  -30.4657   21.2952 C   0  0  0  0  0  0  0  0  0  0  0  0
  -24.3213  -29.6368   23.5312 C   0  0  0  0  0  0  0  0  0  0  0  0
  -25.9828  -28.4346   26.2572 C   0  0  0  0  0  0  0  0  0  0  0  0
  -30.6896  -14.8413   20.6687 C   0  0  0  0  0  0  0  0  0  0  0  0
  -22.2309  -35.3900   22.6306 C   0  0  0  0  0  0  0  0  0  0  0  0
  -21.3512  -28.2322   21.6045 C   0  0  0  0  0  0  0  0  0  0  0  0
  -24.1003  -27.6722   21.9336 C   0  0  0  0  0  0  0  0  0  0  0  0
  -23.3093  -34.3116   22.5637 C   0  0  0  0  0  0  0  0  0  0  0  0
  -29.6533  -12.3285   18.3688 C   0  0  0  0  0  0  0  0  0  0  0  0
  -23.2674  -33.5976   21.2164 C   0  0  0  0  0  0  0  0  0  0  0  0
  -28.2081  -12.0359   18.7785 C   0  0  0  0  0  0  0  0  0  0  0  0
  -27.6360  -20.0830   23.5848 C   0  0  0  0  0  0  0  0  0  0  0  0
  -29.1551  -21.5718   23.5924 C   0  0  0  0  0  0  0  0  0  0  0  0
  -24.6456  -21.1008   22.6740 C   0  0  0  0  0  0  0  0  0  0  0  0
  -30.5398  -12.6125   19.5801 C   0  0  0  0  0  0  0  0  0  0  0  0
  -28.5956  -13.3646   20.8930 C   0  0  0  0  0  0  0  0  0  0  0  0
  -29.1658  -20.0399   23.8783 C   0  0  0  0  0  0  0  0  0  0  0  0
  -21.9220  -32.8921   21.0074 C   0  0  1  0  0  0  0  0  0  0  0  0
  -22.2343  -29.3167   22.2473 C   0  0  1  0  0  0  0  0  0  0  0  0
  -27.6634  -21.5724   24.0072 C   0  0  0  0  0  0  0  0  0  0  0  0
  -25.3086  -22.1931   23.4667 C   0  0  2  0  0  0  0  0  0  0  0  0
  -27.6503  -13.1364   19.7022 C   0  0  2  0  0  0  0  0  0  0  0  0
  -24.2896  -22.5394   22.4142 C   0  0  2  0  0  0  0  0  0  1  0  0
  -35.4619  -18.7748   20.3226 C   0  0  0  0  0  0  0  0  0  0  0  0
  -27.6484  -29.1144   28.0068 C   0  0  0  0  0  0  0  0  0  0  0  0
  -26.5660  -29.4056   21.4789 C   0  0  0  0  0  0  0  0  0  0  0  0
  -28.1775  -29.1400   23.3764 C   0  0  0  0  0  0  0  0  0  0  0  0
  -26.8615  -31.2465   23.1457 C   0  0  0  0  0  0  0  0  0  0  0  0
  -24.0532  -27.9499   28.4483 C   0  0  0  0  0  0  0  0  0  0  0  0
  -34.1240  -18.1547   20.6649 C   0  0  0  0  0  0  0  0  0  0  0  0
  -26.7475  -22.5098   23.2482 C   0  0  1  0  0  0  0  0  0  0  0  0
  -25.6950  -29.1319   23.8939 C   0  0  1  0  0  0  0  0  0  0  0  0
  -26.1738  -29.0025   27.6520 C   0  0  2  0  0  0  0  0  0  0  0  0
  -26.8029  -29.7133   22.9709 C   0  0  0  0  0  0  0  0  0  0  0  0
  -25.8686  -11.5469   20.3189 N   0  0  0  0  0  0  0  0  0  0  0  0
  -31.7201  -17.4471   21.4428 N   0  0  0  0  0  0  0  0  0  0  0  0
  -26.2339  -12.8292   20.1509 N   0  0  0  0  0  0  0  0  0  0  0  0
  -23.6054  -28.8964   22.5826 N   0  0  0  0  0  0  0  0  0  0  0  0
  -29.9506  -13.6683   20.4066 N   0  0  0  0  0  0  0  0  0  0  0  0
  -25.4375  -15.0551   20.2998 N   0  0  0  0  0  0  0  0  0  0  0  0
  -21.8555  -12.5839   21.5076 N   0  0  0  0  0  0  0  0  0  0  0  0
  -30.0145  -15.7882   21.4383 N   0  0  0  0  0  0  0  0  0  0  0  0
  -21.8752  -31.6589   21.7633 N   0  0  0  0  0  0  0  0  0  0  0  0
  -25.8791  -29.4311   25.3099 N   0  0  0  0  0  0  0  0  0  0  0  0
  -25.5124  -28.1287   28.6621 N   0  3  0  0  0  0  0  0  0  0  0  0
  -26.5277  -24.5662   24.5276 O   0  0  0  0  0  0  0  0  0  0  0  0
  -22.6131  -14.7210   21.1647 O   0  0  0  0  0  0  0  0  0  0  0  0
  -22.9422  -30.2847   20.2156 O   0  0  0  0  0  0  0  0  0  0  0  0
  -23.8945  -30.6627   24.0684 O   0  0  0  0  0  0  0  0  0  0  0  0
  -25.9345  -27.2277   26.0303 O   0  0  0  0  0  0  0  0  0  0  0  0
  -31.8265  -15.0061   20.2190 O   0  0  0  0  0  0  0  0  0  0  0  0
  -21.6421   -7.0256   21.8167 O   0  0  0  0  0  0  0  0  0  0  0  0
  -22.9868  -22.9723   22.9034 O   0  0  0  0  0  0  0  0  0  1  0  0
  -33.3763  -19.0723   21.4540 O   0  0  0  0  0  0  0  0  0  0  0  0
  -18.5542   -7.0024   26.3849 F   0  0  0  0  0  0  0  0  0  0  0  0
  -22.0729   -5.1595   23.8104 F   0  0  0  0  0  0  0  0  0  0  0  0
  1  2  1  0  0  0  0
  1  5  2  0  0  0  0
  2  6  2  0  0  0  0
  3  8  2  0  0  0  0
  3 17  1  0  0  0  0
  4  9  1  0  0  0  0
  4 17  2  0  0  0  0
  5 19  1  0  0  0  0
  6 21  1  0  0  0  0
  7 10  2  0  0  0  0
  7 20  1  0  0  0  0
  8 24  1  0  0  0  0
  9 24  2  0  0  0  0
 10 25  1  0  0  0  0
 11 12  2  0  0  0  0
 11 26  1  0  0  0  0
 12 27  1  0  0  0  0
 13 22  1  0  0  0  0
 13 25  2  0  0  0  0
 14 23  1  0  0  0  0
 14 30  2  0  0  0  0
 15 23  2  0  0  0  0
 15 31  1  0  0  0  0
 16 27  2  0  0  0  0
 16 28  1  0  0  0  0
 17 29  1  0  0  0  0
 18 29  1  0  0  0  0
 18 32  2  0  0  0  0
 18 34  1  0  0  0  0
 19 21  2  0  0  0  0
 19 39  1  0  0  0  0
 20 22  2  0  0  0  0
 20 40  1  0  0  0  0
 21 52  1  0  0  0  0
 22 41  1  0  0  0  0
 23 51  1  0  0  0  0
 24 86  1  0  0  0  0
 25 87  1  0  0  0  0
 26 28  2  0  0  0  0
 26 86  1  0  0  0  0
 27 89  1  0  0  0  0
 28 90  1  0  0  0  0
 29 69  2  0  0  0  0
 30 70  1  0  0  0  0
 30 76  1  0  0  0  0
 31 70  2  0  0  0  0
 31 88  1  0  0  0  0
 32 71  1  0  0  0  0
 32 74  1  0  0  0  0
 33 65  1  0  0  0  0
 33 80  2  0  0  0  0
 34 75  1  0  0  0  0
 34 81  2  0  0  0  0
 35 53  1  0  0  0  0
 35 77  1  0  0  0  0
 35 82  2  0  0  0  0
 36 66  1  0  0  0  0
 36 72  1  0  0  0  0
 36 83  2  0  0  0  0
 37 67  1  0  0  0  0
 37 78  1  0  0  0  0
 37 84  2  0  0  0  0
 38 73  1  0  0  0  0
 38 76  1  0  0  0  0
 38 85  2  0  0  0  0
 39 42  1  0  0  0  0
 40 53  1  0  0  0  0
 41 72  1  0  0  0  0
 42 44  1  0  0  0  0
 43 45  1  0  0  0  0
 43 49  1  0  0  0  0
 44 52  1  0  0  0  0
 45 56  1  0  0  0  0
 46 51  1  0  0  0  0
 46 54  1  0  0  0  0
 47 51  1  0  0  0  0
 47 54  1  0  0  0  0
 48 55  1  0  0  0  0
 48 57  1  0  0  0  0
 49 73  1  0  0  0  0
 50 56  1  0  0  0  0
 50 73  1  0  0  0  0
 52 77  1  0  0  0  0
 53 72  1  0  0  0  0
 54 65  1  0  0  0  0
 55 57  1  0  0  0  0
 55 65  1  0  0  0  0
 56 71  1  0  0  0  0
 57 87  1  0  0  0  0
 58 64  1  0  0  0  0
 59 67  1  0  0  0  0
 60 68  1  0  0  0  0
 61 68  1  0  0  0  0
 62 68  1  0  0  0  0
 63 79  1  0  0  0  0
 64 88  1  0  0  0  0
 66 68  1  0  0  0  0
 66 78  1  0  0  0  0
 67 79  1  0  0  0  0
 69 71  1  0  0  0  0
M  CHG  1  79   1
M  ISO  4  38 100  57 101  76 100  87 101
M  END
> <Batch ID>
0145

> <Smiles>
CCOc1cc(C2CC(C(C=O)C3C[101CH:1]3[101O:1]c3ccc4c(c3)CN(C(=O)C(NC(=O)C(C)NC)C(C)(C)C)C(C(=O)NC3CCCc5ccccc53)C4)C2)cc([100NH:0][100C:0](=O)N2CCCC(n3nc(-c4ccc(Oc5ccc(F)cc5F)cc4)c(C(N)=O)c3N)C2)n1

> <Shape>
0.258

> <Color>
0.185

> <Negative vol penalty>
0.000

$$$$

  -OEChem-04052321283D

 88 97  0     1  0  0  0  0  0999 V2000
  -17.5195  -27.6474   19.5403 C   0  0  0  0  0  0  0  0  0  0  0  0
  -18.5731  -26.8225   19.9210 C   0  0  0  0  0  0  0  0  0  0  0  0
  -23.0757  -10.4011   20.4494 C   0  0  0  0  0  0  0  0  0  0  0  0
  -24.4029   -9.3501   22.1730 C   0  0  0  0  0  0  0  0  0  0  0  0
  -17.6324  -29.0300   19.6800 C   0  0  0  0  0  0  0  0  0  0  0  0
  -19.7409  -27.3800   20.4405 C   0  0  0  0  0  0  0  0  0  0  0  0
  -21.4152  -24.9156   24.5354 C   0  0  0  0  0  0  0  0  0  0  0  0
  -22.2418   -9.2836   20.4100 C   0  0  0  0  0  0  0  0  0  0  0  0
  -23.5690   -8.2326   22.1337 C   0  0  0  0  0  0  0  0  0  0  0  0
  -22.0912  -23.7148   24.3238 C   0  0  0  0  0  0  0  0  0  0  0  0
  -20.5272   -7.3537   23.3152 C   0  0  0  0  0  0  0  0  0  0  0  0
  -20.1098   -6.8153   24.5323 C   0  0  0  0  0  0  0  0  0  0  0  0
  -27.3315  -17.3601   17.5410 C   0  0  0  0  0  0  0  0  0  0  0  0
  -24.1969  -24.8574   24.6061 C   0  0  0  0  0  0  0  0  0  0  0  0
  -27.6138  -18.5468   20.0499 C   0  0  0  0  0  0  0  0  0  0  0  0
  -21.1590   -4.7148   23.9630 C   0  0  0  0  0  0  0  0  0  0  0  0
  -24.1562  -10.4343   21.3309 C   0  0  0  0  0  0  0  0  0  0  0  0
  -28.3303  -16.9228   18.4109 C   0  0  0  0  0  0  0  0  0  0  0  0
  -24.8719  -12.7305   22.1811 C   0  0  0  0  0  0  0  0  0  0  0  0
  -18.7985  -29.6041   20.2105 C   0  0  0  0  0  0  0  0  0  0  0  0
  -22.1265  -26.1004   24.7736 C   0  0  0  0  0  0  0  0  0  0  0  0
  -19.8701  -28.7717   20.5862 C   0  0  0  0  0  0  0  0  0  0  0  0
  -23.5275  -26.0714   24.8231 C   0  0  0  0  0  0  0  0  0  0  0  0
  -26.6149  -18.9840   19.1800 C   0  0  0  0  0  0  0  0  0  0  0  0
  -26.4738  -18.3907   17.9256 C   0  0  0  0  0  0  0  0  0  0  0  0
  -22.4885   -8.1994   21.2522 C   0  0  0  0  0  0  0  0  0  0  0  0
  -23.4823  -23.6861   24.3562 C   0  0  0  0  0  0  0  0  0  0  0  0
  -21.2605   -6.5727   22.4219 C   0  0  0  0  0  0  0  0  0  0  0  0
  -28.4715  -17.5163   19.6653 C   0  0  0  0  0  0  0  0  0  0  0  0
  -20.4257   -5.4959   24.8563 C   0  0  0  0  0  0  0  0  0  0  0  0
  -21.5764   -5.2533   22.7458 C   0  0  0  0  0  0  0  0  0  0  0  0
  -25.0183  -11.5881   21.3716 C   0  0  0  0  0  0  0  0  0  0  0  0
  -25.9392  -13.5276   21.8465 C   0  0  0  0  0  0  0  0  0  0  0  0
  -29.2227  -15.8364   17.9866 C   0  0  0  0  0  0  0  0  0  0  0  0
  -23.8615  -13.0432   23.1491 C   0  0  0  0  0  0  0  0  0  0  0  0
  -22.3944  -28.8943   23.2817 C   0  0  0  0  0  0  0  0  0  0  0  0
  -24.1218  -29.6901   25.9094 C   0  0  0  0  0  0  0  0  0  0  0  0
  -26.0250  -28.6578   28.5474 C   0  0  0  0  0  0  0  0  0  0  0  0
  -18.8926  -31.1068   20.2984 C   0  0  0  0  0  0  0  0  0  0  0  0
  -21.3817  -27.3825   25.0266 C   0  0  0  0  0  0  0  0  0  0  0  0
  -24.3372  -27.3119   25.0950 C   0  0  0  0  0  0  0  0  0  0  0  0
  -20.0186  -31.5944   21.2065 C   0  0  0  0  0  0  0  0  0  0  0  0
  -30.0617  -12.5457   19.0863 C   0  0  0  0  0  0  0  0  0  0  0  0
  -21.3094  -30.8380   20.9095 C   0  0  0  0  0  0  0  0  0  0  0  0
  -28.8060  -12.0864   19.8295 C   0  0  0  0  0  0  0  0  0  0  0  0
  -24.2172  -19.8689   19.5651 C   0  0  0  0  0  0  0  0  0  0  0  0
  -29.7163  -13.4167   17.8810 C   0  0  0  0  0  0  0  0  0  0  0  0
  -27.5948  -14.1193   18.9346 C   0  0  0  0  0  0  0  0  0  0  0  0
  -25.7143  -20.0809   19.6094 C   0  0  1  0  0  0  0  0  0  0  0  0
  -21.1434  -29.3372   21.1770 C   0  0  1  0  0  0  0  0  0  0  0  0
  -22.2213  -28.6258   24.7499 C   0  0  1  0  0  0  0  0  0  0  0  0
  -27.9009  -13.2805   20.1863 C   0  0  1  0  0  0  0  0  0  0  0  0
  -24.9188  -19.9261   20.8874 C   0  0  1  0  0  0  0  0  0  0  0  0
  -25.4122  -18.8406   16.9760 C   0  0  0  0  0  0  0  0  0  0  0  0
  -27.3297  -29.5415   30.5004 C   0  0  0  0  0  0  0  0  0  0  0  0
  -26.3657  -30.5381   24.0237 C   0  0  0  0  0  0  0  0  0  0  0  0
  -27.9292  -30.4989   25.9788 C   0  0  0  0  0  0  0  0  0  0  0  0
  -25.9953  -32.0746   25.9618 C   0  0  0  0  0  0  0  0  0  0  0  0
  -24.3140  -27.2216   30.4888 C   0  0  0  0  0  0  0  0  0  0  0  0
  -31.7147  -17.3703   21.2466 C   0  0  0  0  0  0  0  0  0  0  0  0
  -32.7863  -18.3587   21.6738 C   0  0  0  0  0  0  0  0  0  0  0  0
  -25.7310  -21.3175   22.7961 C   0  0  0  0  0  0  0  0  0  0  0  0
  -30.4018  -18.0750   20.9371 C   0  0  0  0  0  0  0  0  0  0  0  0
  -25.4386  -22.5979   23.5533 C   0  0  0  0  0  0  0  0  0  1  0  0
  -25.5780  -29.6038   26.2980 C   0  0  1  0  0  0  0  0  0  0  0  0
  -25.9843  -29.0190   30.0213 C   0  0  2  0  0  0  0  0  0  0  0  0
  -26.4522  -30.6556   25.5585 C   0  0  0  0  0  0  0  0  0  0  0  0
  -26.0938  -11.6501   20.5820 N   0  0  0  0  0  0  0  0  0  0  0  0
  -26.6328  -12.8410   20.8937 N   0  0  0  0  0  0  0  0  0  0  0  0
  -28.8446  -14.5228   18.2748 N   0  0  0  0  0  0  0  0  0  0  0  0
  -23.5633  -28.5421   25.3298 N   0  0  0  0  0  0  0  0  0  0  0  0
  -26.3427  -14.7417   22.2771 N   0  0  0  0  0  0  0  0  0  0  0  0
  -22.8368  -12.1128   23.3697 N   0  0  0  0  0  0  0  0  0  0  0  0
  -21.2064  -29.0669   22.5974 N   0  0  0  0  0  0  0  0  0  0  0  0
  -25.6193  -29.7089   27.7526 N   0  0  0  0  0  0  0  0  0  0  0  0
  -34.0266  -17.6172   22.0056 N   0  3  0  0  0  0  0  0  0  0  0  0
  -24.7195  -21.1404   21.7238 N   0  3  0  0  0  0  0  0  0  0  0  0
  -25.6261  -27.8247   30.8376 N   0  3  0  0  0  0  0  0  0  0  0  0
  -30.2561  -16.1751   17.4118 O   0  0  0  0  0  0  0  0  0  0  0  0
  -23.8581  -14.1231   23.7873 O   0  0  0  0  0  0  0  0  0  0  0  0
  -23.5224  -28.9428   22.8053 O   0  0  0  0  0  0  0  0  0  0  0  0
  -23.5009  -30.7351   26.1192 O   0  0  0  0  0  0  0  0  0  0  0  0
  -26.3846  -27.5548   28.1416 O   0  0  0  0  0  0  0  0  0  0  0  0
  -21.6749   -7.1089   21.2142 O   0  0  0  0  0  0  0  0  0  0  0  0
  -24.1446  -22.5154   24.1493 O   0  0  0  0  0  0  0  0  0  1  0  0
  -29.4413  -17.1032   20.5293 O   0  0  0  0  0  0  0  0  0  0  0  0
  -20.0261   -4.9795   26.0258 F   0  0  0  0  0  0  0  0  0  0  0  0
  -22.2816   -4.4984   21.8922 F   0  0  0  0  0  0  0  0  0  0  0  0
  1  2  1  0  0  0  0
  1  5  2  0  0  0  0
  2  6  2  0  0  0  0
  3  8  2  0  0  0  0
  3 17  1  0  0  0  0
  4  9  1  0  0  0  0
  4 17  2  0  0  0  0
  5 20  1  0  0  0  0
  6 22  1  0  0  0  0
  7 10  2  0  0  0  0
  7 21  1  0  0  0  0
  8 26  1  0  0  0  0
  9 26  2  0  0  0  0
 10 27  1  0  0  0  0
 11 12  2  0  0  0  0
 11 28  1  0  0  0  0
 12 30  1  0  0  0  0
 13 18  2  0  0  0  0
 13 25  1  0  0  0  0
 14 23  1  0  0  0  0
 14 27  2  0  0  0  0
 15 24  1  0  0  0  0
 15 29  2  0  0  0  0
 16 30  2  0  0  0  0
 16 31  1  0  0  0  0
 17 32  1  0  0  0  0
 18 29  1  0  0  0  0
 18 34  1  0  0  0  0
 19 32  1  0  0  0  0
 19 33  2  0  0  0  0
 19 35  1  0  0  0  0
 20 22  2  0  0  0  0
 20 39  1  0  0  0  0
 21 23  2  0  0  0  0
 21 40  1  0  0  0  0
 22 50  1  0  0  0  0
 23 41  1  0  0  0  0
 24 25  2  0  0  0  0
 24 49  1  0  0  0  0
 25 54  1  0  0  0  0
 26 84  1  0  0  0  0
 27 85  1  0  0  0  0
 28 31  2  0  0  0  0
 28 84  1  0  0  0  0
 29 86  1  0  0  0  0
 30 87  1  0  0  0  0
 31 88  1  0  0  0  0
 32 68  2  0  0  0  0
 33 69  1  0  0  0  0
 33 72  1  0  0  0  0
 34 70  1  0  0  0  0
 34 79  2  0  0  0  0
 35 73  1  0  0  0  0
 35 80  2  0  0  0  0
 36 51  1  0  0  0  0
 36 74  1  0  0  0  0
 36 81  2  0  0  0  0
 37 65  1  0  0  0  0
 37 71  1  0  0  0  0
 37 82  2  0  0  0  0
 38 66  1  0  0  0  0
 38 75  1  0  0  0  0
 38 83  2  0  0  0  0
 39 42  1  0  0  0  0
 40 51  1  0  0  0  0
 41 71  1  0  0  0  0
 42 44  1  0  0  0  0
 43 45  1  0  0  0  0
 43 47  1  0  0  0  0
 44 50  1  0  0  0  0
 45 52  1  0  0  0  0
 46 49  1  0  0  0  0
 46 53  1  0  0  0  0
 47 70  1  0  0  0  0
 48 52  1  0  0  0  0
 48 70  1  0  0  0  0
 49 53  1  0  0  0  0
 50 74  1  0  0  0  0
 51 71  1  0  0  0  0
 52 69  1  0  0  0  0
 53 77  1  0  0  0  0
 55 66  1  0  0  0  0
 56 67  1  0  0  0  0
 57 67  1  0  0  0  0
 58 67  1  0  0  0  0
 59 78  1  0  0  0  0
 60 61  1  0  0  0  0
 60 63  1  0  0  0  0
 61 76  1  0  0  0  0
 62 64  1  0  0  0  0
 62 77  1  0  0  0  0
 63 86  1  0  0  0  0
 64 85  1  0  0  0  0
 65 67  1  0  0  0  0
 65 75  1  0  0  0  0
 66 78  1  0  0  0  0
 68 69  1  0  0  0  0
M  CHG  3  76   1  77   1  78   1
M  ISO  4  18 100  34 100  64 101  85 101
M  END
> <Batch ID>
0145

> <Smiles>
CNC(C)C(=O)NC(C(=O)N1Cc2cc([101O:1][101CH2:1]CNC3CC3c3cc(OCCCN)[100c:0]([100C:0](=O)N4CCCC(n5nc(-c6ccc(Oc7ccc(F)cc7F)cc6)c(C(N)=O)c5N)C4)cc3C)ccc2CC1C(=O)NC1CCCc2ccccc21)C(C)(C)C

> <Shape>
0.234

> <Color>
0.132

> <Negative vol penalty>
0.000

$$$$

  -OEChem-04052321283D

 91100  0     1  0  0  0  0  0999 V2000
  -28.1018  -37.1043   24.2773 C   0  0  0  0  0  0  0  0  0  0  0  0
  -28.5755  -36.0127   23.5566 C   0  0  0  0  0  0  0  0  0  0  0  0
  -25.4355  -14.2655   21.4659 C   0  0  0  0  0  0  0  0  0  0  0  0
  -26.3783  -13.0939   19.5750 C   0  0  0  0  0  0  0  0  0  0  0  0
  -27.0820  -36.9315   25.2122 C   0  0  0  0  0  0  0  0  0  0  0  0
  -28.0305  -34.7473   23.7714 C   0  0  0  0  0  0  0  0  0  0  0  0
  -27.1943  -30.3426   19.5994 C   0  0  0  0  0  0  0  0  0  0  0  0
  -24.6006  -13.1782   21.7233 C   0  0  0  0  0  0  0  0  0  0  0  0
  -25.5434  -12.0065   19.8325 C   0  0  0  0  0  0  0  0  0  0  0  0
  -27.9371  -29.2097   19.2697 C   0  0  0  0  0  0  0  0  0  0  0  0
  -24.8530  -10.1303   23.1653 C   0  0  0  0  0  0  0  0  0  0  0  0
  -24.7368   -9.7009   24.4873 C   0  0  0  0  0  0  0  0  0  0  0  0
  -26.5229  -27.8746   20.6969 C   0  0  0  0  0  0  0  0  0  0  0  0
  -27.0783  -22.3062   20.8540 C   0  0  0  0  0  0  0  0  0  0  0  0
  -22.3612  -10.1353   24.4196 C   0  0  0  0  0  0  0  0  0  0  0  0
  -26.3244  -14.2234   20.3917 C   0  0  0  0  0  0  0  0  0  0  0  0
  -28.4807  -15.5646   20.6346 C   0  0  0  0  0  0  0  0  0  0  0  0
  -26.5176  -35.6650   25.4316 C   0  0  0  0  0  0  0  0  0  0  0  0
  -26.1152  -30.2518   20.4903 C   0  0  0  0  0  0  0  0  0  0  0  0
  -27.0032  -34.5571   24.7112 C   0  0  0  0  0  0  0  0  0  0  0  0
  -25.7665  -29.0073   21.0343 C   0  0  0  0  0  0  0  0  0  0  0  0
  -26.5332  -19.9844   20.5427 C   0  0  0  0  0  0  0  0  0  0  0  0
  -26.3237  -21.3219   20.2255 C   0  0  0  0  0  0  0  0  0  0  0  0
  -24.6546  -12.0487   20.9067 C   0  0  0  0  0  0  0  0  0  0  0  0
  -27.6032  -27.9760   19.8207 C   0  0  0  0  0  0  0  0  0  0  0  0
  -23.7233  -10.5622   22.4704 C   0  0  0  0  0  0  0  0  0  0  0  0
  -23.4909   -9.7034   25.1145 C   0  0  0  0  0  0  0  0  0  0  0  0
  -22.4774  -10.5647   23.0976 C   0  0  0  0  0  0  0  0  0  0  0  0
  -27.1867  -15.3465   20.1249 C   0  0  0  0  0  0  0  0  0  0  0  0
  -27.5017  -19.6860   21.4875 C   0  0  0  0  0  0  0  0  0  0  0  0
  -28.0223  -21.9038   21.7851 C   0  0  0  0  0  0  0  0  0  0  0  0
  -28.8688  -16.7621   20.0851 C   0  0  0  0  0  0  0  0  0  0  0  0
  -29.2620  -14.7571   21.5252 C   0  0  0  0  0  0  0  0  0  0  0  0
  -25.4412  -31.5055   23.3324 C   0  0  0  0  0  0  0  0  0  0  0  0
  -22.5729  -30.0686   22.8518 C   0  0  0  0  0  0  0  0  0  0  0  0
  -20.7871  -27.6152   21.2904 C   0  0  0  0  0  0  0  0  0  0  0  0
  -25.3626  -21.2838   17.9090 C   0  0  0  0  0  0  0  0  0  0  0  0
  -25.4498  -35.5190   26.4867 C   0  0  0  0  0  0  0  0  0  0  0  0
  -25.3074  -31.4783   20.8150 C   0  0  0  0  0  0  0  0  0  0  0  0
  -24.6044  -28.8528   21.9799 C   0  0  0  0  0  0  0  0  0  0  0  0
  -24.6683  -34.2116   26.3855 C   0  0  0  0  0  0  0  0  0  0  0  0
  -28.1880  -19.5511   16.2634 C   0  0  0  0  0  0  0  0  0  0  0  0
  -33.1821  -23.1965   21.9071 C   0  0  0  0  0  0  0  0  0  0  0  0
  -25.6197  -33.0340   26.1984 C   0  0  0  0  0  0  0  0  0  0  0  0
  -28.3029  -18.2546   17.0629 C   0  0  0  0  0  0  0  0  0  0  0  0
  -32.4263  -23.4053   23.2058 C   0  0  0  0  0  0  0  0  0  0  0  0
  -26.7594  -20.0865   16.2550 C   0  0  0  0  0  0  0  0  0  0  0  0
  -26.3016  -18.9784   18.4238 C   0  0  0  0  0  0  0  0  0  0  0  0
  -32.5790  -24.2451   20.9992 C   0  0  0  0  0  0  0  0  0  0  0  0
  -26.4205  -33.1730   24.8981 C   0  0  1  0  0  0  0  0  0  0  0  0
  -24.5478  -31.3619   22.1329 C   0  0  1  0  0  0  0  0  0  0  0  0
  -27.7390  -18.4402   18.4813 C   0  0  1  0  0  0  0  0  0  0  0  0
  -30.9886  -23.7014   22.7796 C   0  0  2  0  0  0  0  0  0  0  0  0
  -27.7725  -18.2672   21.8687 C   0  0  0  0  0  0  0  0  0  0  0  0
  -24.3303  -18.7900   20.4592 C   0  0  0  0  0  0  0  0  0  0  0  0
  -18.4696  -26.6668   21.1256 C   0  0  0  0  0  0  0  0  0  0  0  0
  -22.9335  -28.7225   25.5662 C   0  0  0  0  0  0  0  0  0  0  0  0
  -21.1247  -27.1126   24.9300 C   0  0  0  0  0  0  0  0  0  0  0  0
  -20.6172  -29.5483   25.1107 C   0  0  0  0  0  0  0  0  0  0  0  0
  -24.4108  -22.7861   19.6028 C   0  0  0  0  0  0  0  0  0  0  0  0
  -20.6235  -28.2117   18.3962 C   0  0  0  0  0  0  0  0  0  0  0  0
  -25.7403  -18.9032   19.8867 C   0  0  0  0  0  0  0  0  0  0  0  0
  -30.0863  -22.4763   22.8185 C   0  0  0  0  0  0  0  0  0  0  0  0
  -30.4759  -25.8055   19.5692 C   0  0  0  0  0  0  0  0  0  0  0  0
  -30.3670  -25.4474   21.0437 C   0  0  0  0  0  0  0  0  0  0  0  0
  -29.7049  -27.0625   19.1850 C   0  0  0  0  0  0  0  0  0  1  0  0
  -21.9925  -28.7100   23.1619 C   0  0  1  0  0  0  0  0  0  0  0  0
  -19.4686  -27.6520   20.5390 C   0  0  2  0  0  0  0  0  0  0  0  0
  -21.6901  -28.5263   24.6759 C   0  0  0  0  0  0  0  0  0  0  0  0
  -26.7799  -16.3267   19.3140 N   0  0  0  0  0  0  0  0  0  0  0  0
  -28.2544  -20.6146   22.1191 N   0  0  0  0  0  0  0  0  0  0  0  0
  -27.8242  -17.1725   19.3101 N   0  0  0  0  0  0  0  0  0  0  0  0
  -23.8492  -30.0825   22.2715 N   0  0  0  0  0  0  0  0  0  0  0  0
  -26.2147  -20.2012   17.6088 N   0  0  0  0  0  0  0  0  0  0  0  0
  -29.9982  -17.4935   20.1942 N   0  0  0  0  0  0  0  0  0  0  0  0
  -28.7117  -13.5569   21.9954 N   0  0  0  0  0  0  0  0  0  0  0  0
  -25.6036  -32.8094   23.7601 N   0  0  0  0  0  0  0  0  0  0  0  0
  -20.8277  -28.5566   22.2970 N   0  0  0  0  0  0  0  0  0  0  0  0
  -25.3327  -21.7083   19.2511 N   0  0  0  0  0  0  0  0  0  0  0  0
  -31.1066  -24.1800   21.3340 N   0  3  1  0  0  0  0  0  0  0  0  0
  -19.6802  -27.3086   19.1043 N   0  3  0  0  0  0  0  0  0  0  0  0
  -30.4075  -15.0979   21.9060 O   0  0  0  0  0  0  0  0  0  0  0  0
  -25.9446  -30.5071   23.8338 O   0  0  0  0  0  0  0  0  0  0  0  0
  -21.9151  -31.0801   23.1083 O   0  0  0  0  0  0  0  0  0  0  0  0
  -21.6892  -26.8274   21.0145 O   0  0  0  0  0  0  0  0  0  0  0  0
  -24.6357  -21.8016   17.0523 O   0  0  0  0  0  0  0  0  0  0  0  0
  -23.8402  -10.9875   21.1577 O   0  0  0  0  0  0  0  0  0  0  0  0
  -28.3269  -26.8688   19.5011 O   0  0  0  0  0  0  0  0  0  1  0  0
  -28.7795  -22.8563   22.4188 O   0  0  0  0  0  0  0  0  0  0  0  0
  -23.3792   -9.2896   26.3835 F   0  0  0  0  0  0  0  0  0  0  0  0
  -21.3883  -10.9774   22.4347 F   0  0  0  0  0  0  0  0  0  0  0  0
  1  2  1  0  0  0  0
  1  5  2  0  0  0  0
  2  6  2  0  0  0  0
  3  8  2  0  0  0  0
  3 16  1  0  0  0  0
  4  9  1  0  0  0  0
  4 16  2  0  0  0  0
  5 18  1  0  0  0  0
  6 20  1  0  0  0  0
  7 10  2  0  0  0  0
  7 19  1  0  0  0  0
  8 24  1  0  0  0  0
  9 24  2  0  0  0  0
 10 25  1  0  0  0  0
 11 12  2  0  0  0  0
 11 26  1  0  0  0  0
 12 27  1  0  0  0  0
 13 21  1  0  0  0  0
 13 25  2  0  0  0  0
 14 23  2  0  0  0  0
 14 31  1  0  0  0  0
 15 27  2  0  0  0  0
 15 28  1  0  0  0  0
 16 29  1  0  0  0  0
 17 29  1  0  0  0  0
 17 32  2  0  0  0  0
 17 33  1  0  0  0  0
 18 20  2  0  0  0  0
 18 38  1  0  0  0  0
 19 21  2  0  0  0  0
 19 39  1  0  0  0  0
 20 50  1  0  0  0  0
 21 40  1  0  0  0  0
 22 23  1  0  0  0  0
 22 30  2  0  0  0  0
 22 62  1  0  0  0  0
 23 79  1  0  0  0  0
 24 87  1  0  0  0  0
 25 88  1  0  0  0  0
 26 28  2  0  0  0  0
 26 87  1  0  0  0  0
 27 90  1  0  0  0  0
 28 91  1  0  0  0  0
 29 70  2  0  0  0  0
 30 54  1  0  0  0  0
 30 71  1  0  0  0  0
 31 71  2  0  0  0  0
 31 89  1  0  0  0  0
 32 72  1  0  0  0  0
 32 75  1  0  0  0  0
 33 76  1  0  0  0  0
 33 82  2  0  0  0  0
 34 51  1  0  0  0  0
 34 77  1  0  0  0  0
 34 83  2  0  0  0  0
 35 67  1  0  0  0  0
 35 73  1  0  0  0  0
 35 84  2  0  0  0  0
 36 68  1  0  0  0  0
 36 78  1  0  0  0  0
 36 85  2  0  0  0  0
 37 74  1  0  0  0  0
 37 79  1  0  0  0  0
 37 86  2  0  0  0  0
 38 41  1  0  0  0  0
 39 51  1  0  0  0  0
 40 73  1  0  0  0  0
 41 44  1  0  0  0  0
 42 45  1  0  0  0  0
 42 47  1  0  0  0  0
 43 46  1  0  0  0  0
 43 49  1  0  0  0  0
 44 50  1  0  0  0  0
 45 52  1  0  0  0  0
 46 53  1  0  0  0  0
 47 74  1  0  0  0  0
 48 52  1  0  0  0  0
 48 74  1  0  0  0  0
 49 80  1  0  0  0  0
 50 77  1  0  0  0  0
 51 73  1  0  0  0  0
 52 72  1  0  0  0  0
 53 63  1  0  0  0  0
 53 80  1  0  0  0  0
 55 62  1  0  0  0  0
 56 68  1  0  0  0  0
 57 69  1  0  0  0  0
 58 69  1  0  0  0  0
 59 69  1  0  0  0  0
 60 79  1  0  0  0  0
 61 81  1  0  0  0  0
 63 89  1  0  0  0  0
 64 65  1  0  0  0  0
 64 66  1  0  0  0  0
 65 80  1  0  0  0  0
 66 88  1  0  0  0  0
 67 69  1  0  0  0  0
 67 78  1  0  0  0  0
 68 81  1  0  0  0  0
 70 72  1  0  0  0  0
M  CHG  2  80   1  81   1
M  ISO  4  37 100  66 101  79 100  88 101
M  END
> <Batch ID>
0145

> <Smiles>
CCc1c([100N:0](C)[100C:0](=O)N2CCCC(n3nc(-c4ccc(Oc5ccc(F)cc5F)cc4)c(C(N)=O)c3N)C2)cc(OCC2CCCN2CC[101CH2:1][101O:1]c2ccc3c(c2)CN(C(=O)C(NC(=O)C(C)NC)C(C)(C)C)C(C(=O)NC2CCCc4ccccc42)C3)nc1C

> <Shape>
0.278

> <Color>
0.072

> <Negative vol penalty>
0.000

$$$$

  -OEChem-04052321283D

 94104  0     1  0  0  0  0  0999 V2000
  -17.7303  -32.3671   20.2193 C   0  0  0  0  0  0  0  0  0  0  0  0
  -18.9405  -32.0451   19.6134 C   0  0  0  0  0  0  0  0  0  0  0  0
  -23.0336  -10.5715   21.7788 C   0  0  0  0  0  0  0  0  0  0  0  0
  -24.2327   -8.7785   20.6906 C   0  0  0  0  0  0  0  0  0  0  0  0
  -17.6525  -32.4690   21.6076 C   0  0  0  0  0  0  0  0  0  0  0  0
  -20.0739  -31.8257   20.3955 C   0  0  0  0  0  0  0  0  0  0  0  0
  -24.5921  -27.8409   19.2943 C   0  0  0  0  0  0  0  0  0  0  0  0
  -21.8227   -9.9712   21.4337 C   0  0  0  0  0  0  0  0  0  0  0  0
  -23.0219   -8.1781   20.3456 C   0  0  0  0  0  0  0  0  0  0  0  0
  -25.8572  -27.9904   18.7277 C   0  0  0  0  0  0  0  0  0  0  0  0
  -20.2505   -5.9858   19.4905 C   0  0  0  0  0  0  0  0  0  0  0  0
  -20.1295   -4.6098   19.6845 C   0  0  0  0  0  0  0  0  0  0  0  0
  -30.9403  -20.3594   19.1653 C   0  0  0  0  0  0  0  0  0  0  0  0
  -30.0134  -21.3986   21.1396 C   0  0  0  0  0  0  0  0  0  0  0  0
  -26.8148  -28.1883   20.9330 C   0  0  0  0  0  0  0  0  0  0  0  0
  -20.5406   -4.9067   22.0467 C   0  0  0  0  0  0  0  0  0  0  0  0
  -24.2386   -9.9752   21.4072 C   0  0  0  0  0  0  0  0  0  0  0  0
  -25.9598  -10.8786   23.0591 C   0  0  0  0  0  0  0  0  0  0  0  0
  -18.7832  -32.2413   22.4077 C   0  0  0  0  0  0  0  0  0  0  0  0
  -24.4271  -27.8750   20.6864 C   0  0  0  0  0  0  0  0  0  0  0  0
  -20.0114  -31.9259   21.7958 C   0  0  0  0  0  0  0  0  0  0  0  0
  -30.3552  -20.2494   20.4267 C   0  0  0  0  0  0  0  0  0  0  0  0
  -25.5469  -28.0364   21.5148 C   0  0  0  0  0  0  0  0  0  0  0  0
  -30.8419  -22.7678   19.3297 C   0  0  0  0  0  0  0  0  0  0  0  0
  -31.1837  -21.6186   18.6168 C   0  0  0  0  0  0  0  0  0  0  0  0
  -21.8169   -8.7745   20.7172 C   0  0  0  0  0  0  0  0  0  0  0  0
  -26.9684  -28.1670   19.5470 C   0  0  0  0  0  0  0  0  0  0  0  0
  -20.5165   -6.8223   20.5746 C   0  0  0  0  0  0  0  0  0  0  0  0
  -30.2568  -22.6578   20.5911 C   0  0  0  0  0  0  0  0  0  0  0  0
  -20.2746   -4.0703   20.9626 C   0  0  0  0  0  0  0  0  0  0  0  0
  -20.6616   -6.2827   21.8527 C   0  0  0  0  0  0  0  0  0  0  0  0
  -25.4897  -10.5952   21.7628 C   0  0  0  0  0  0  0  0  0  0  0  0
  -27.1867  -11.4627   22.8594 C   0  0  0  0  0  0  0  0  0  0  0  0
  -25.3426  -10.6355   24.3302 C   0  0  0  0  0  0  0  0  0  0  0  0
  -22.8541  -29.7512   22.7135 C   0  0  0  0  0  0  0  0  0  0  0  0
  -23.8175  -27.5484   24.8911 C   0  0  0  0  0  0  0  0  0  0  0  0
  -26.0494  -25.1173   25.7602 C   0  0  0  0  0  0  0  0  0  0  0  0
  -30.5753  -14.8819   20.2425 C   0  0  0  0  0  0  0  0  0  0  0  0
  -18.6612  -32.4093   23.9016 C   0  0  0  0  0  0  0  0  0  0  0  0
  -23.0594  -27.6855   21.2828 C   0  0  0  0  0  0  0  0  0  0  0  0
  -25.4260  -28.0599   23.0159 C   0  0  0  0  0  0  0  0  0  0  0  0
  -19.8209  -31.7939   24.6804 C   0  0  0  0  0  0  0  0  0  0  0  0
  -30.0276  -11.8374   18.7000 C   0  0  0  0  0  0  0  0  0  0  0  0
  -21.1539  -32.1821   24.0485 C   0  0  0  0  0  0  0  0  0  0  0  0
  -28.8366  -11.2541   19.4599 C   0  0  0  0  0  0  0  0  0  0  0  0
  -29.0963  -18.0641   20.1790 C   0  0  0  0  0  0  0  0  0  0  0  0
  -31.3925  -18.0867   21.2450 C   0  0  0  0  0  0  0  0  0  0  0  0
  -32.0320  -25.0131   19.5729 C   0  0  0  0  0  0  0  0  0  0  0  0
  -29.8416  -13.3308   18.4574 C   0  0  0  0  0  0  0  0  0  0  0  0
  -28.8600  -16.6710   20.7695 C   0  0  0  0  0  0  0  0  0  0  0  0
  -31.0931  -16.7096   21.8300 C   0  0  0  0  0  0  0  0  0  0  0  0
  -28.4300  -13.5501   20.4767 C   0  0  0  0  0  0  0  0  0  0  0  0
  -31.8176  -26.3826   18.9631 C   0  0  0  0  0  0  0  0  0  0  0  0
  -29.8466  -24.9892   18.5608 C   0  0  0  0  0  0  0  0  0  0  0  0
  -30.0918  -18.8797   21.0235 C   0  0  0  0  0  0  0  0  0  0  0  0
  -31.1022  -24.1325   18.7406 C   0  0  2  0  0  0  0  0  0  0  0  0
  -21.2572  -31.6565   22.6117 C   0  0  1  0  0  0  0  0  0  0  0  0
  -22.9395  -28.2512   22.6946 C   0  0  1  0  0  0  0  0  0  0  0  0
  -28.5690  -12.0397   20.7559 C   0  0  1  0  0  0  0  0  0  0  0  0
  -30.9392  -21.0739   16.1679 C   0  0  0  0  0  0  0  0  0  0  0  0
  -33.2243  -21.0961   17.2322 C   0  0  0  0  0  0  0  0  0  0  0  0
  -26.6011  -23.5224   27.6175 C   0  0  0  0  0  0  0  0  0  0  0  0
  -24.9840  -29.8507   26.5185 C   0  0  0  0  0  0  0  0  0  0  0  0
  -26.3094  -28.1697   27.8167 C   0  0  0  0  0  0  0  0  0  0  0  0
  -23.8164  -28.1024   27.8729 C   0  0  0  0  0  0  0  0  0  0  0  0
  -25.6670  -22.7629   24.0082 C   0  0  0  0  0  0  0  0  0  0  0  0
  -29.3222  -23.5626   22.5820 C   0  0  0  0  0  0  0  0  0  0  0  0
  -29.9175  -27.3381   17.6133 C   0  0  0  0  0  0  0  0  0  0  0  0
  -28.4431  -27.6630   17.7505 C   0  0  0  0  0  0  0  0  0  1  0  0
  -31.8126  -21.7095   17.2650 C   0  0  0  0  0  0  0  0  0  0  0  0
  -25.0289  -27.3784   25.7758 C   0  0  1  0  0  0  0  0  0  0  0  0
  -25.8497  -23.7163   26.3096 C   0  0  2  0  0  0  0  0  0  0  0  0
  -25.0370  -28.3768   26.9677 C   0  0  0  0  0  0  0  0  0  0  0  0
  -26.3479  -10.9687   20.8099 N   0  0  0  0  0  0  0  0  0  0  0  0
  -27.3697  -11.4928   21.5081 N   0  0  0  0  0  0  0  0  0  0  0  0
  -24.0668  -27.8768   23.5510 N   0  0  0  0  0  0  0  0  0  0  0  0
  -29.5864  -14.0406   19.7107 N   0  0  0  0  0  0  0  0  0  0  0  0
  -30.1370  -15.9804   20.9973 N   0  0  0  0  0  0  0  0  0  0  0  0
  -28.1162  -11.9484   23.7095 N   0  0  0  0  0  0  0  0  0  0  0  0
  -25.5906   -9.4137   24.9706 N   0  0  0  0  0  0  0  0  0  0  0  0
  -21.5667  -30.2427   22.6117 N   0  0  0  0  0  0  0  0  0  0  0  0
  -25.0511  -25.9746   26.1722 N   0  0  0  0  0  0  0  0  0  0  0  0
  -30.3261  -26.4227   18.7218 N   0  3  2  0  0  0  0  0  0  0  0  0
  -26.3376  -22.7023   25.3325 N   0  3  0  0  0  0  0  0  0  0  0  0
  -24.5803  -11.4701   24.8741 O   0  0  0  0  0  0  0  0  0  0  0  0
  -23.8802  -30.4135   22.8147 O   0  0  0  0  0  0  0  0  0  0  0  0
  -22.6919  -27.3883   25.3696 O   0  0  0  0  0  0  0  0  0  0  0  0
  -26.9983  -25.4217   25.0408 O   0  0  0  0  0  0  0  0  0  0  0  0
  -31.7789  -14.6647   20.0551 O   0  0  0  0  0  0  0  0  0  0  0  0
  -20.6356   -8.1882   20.3805 O   0  0  0  0  0  0  0  0  0  0  0  0
  -29.9153  -23.7691   21.3015 O   0  0  0  0  0  0  0  0  0  0  0  0
  -28.2132  -28.3148   18.9926 O   0  0  0  0  0  0  0  0  0  1  0  0
  -20.1569   -2.7491   21.1490 F   0  0  0  0  0  0  0  0  0  0  0  0
  -20.9161   -7.0814   22.8982 F   0  0  0  0  0  0  0  0  0  0  0  0
  1  2  1  0  0  0  0
  1  5  2  0  0  0  0
  2  6  2  0  0  0  0
  3  8  2  0  0  0  0
  3 17  1  0  0  0  0
  4  9  1  0  0  0  0
  4 17  2  0  0  0  0
  5 19  1  0  0  0  0
  6 21  1  0  0  0  0
  7 10  2  0  0  0  0
  7 20  1  0  0  0  0
  8 26  1  0  0  0  0
  9 26  2  0  0  0  0
 10 27  1  0  0  0  0
 11 12  2  0  0  0  0
 11 28  1  0  0  0  0
 12 30  1  0  0  0  0
 13 22  2  0  0  0  0
 13 25  1  0  0  0  0
 14 22  1  0  0  0  0
 14 29  2  0  0  0  0
 15 23  1  0  0  0  0
 15 27  2  0  0  0  0
 16 30  2  0  0  0  0
 16 31  1  0  0  0  0
 17 32  1  0  0  0  0
 18 32  1  0  0  0  0
 18 33  2  0  0  0  0
 18 34  1  0  0  0  0
 19 21  2  0  0  0  0
 19 39  1  0  0  0  0
 20 23  2  0  0  0  0
 20 40  1  0  0  0  0
 21 57  1  0  0  0  0
 22 55  1  0  0  0  0
 23 41  1  0  0  0  0
 24 25  2  0  0  0  0
 24 29  1  0  0  0  0
 24 56  1  0  0  0  0
 25 70  1  0  0  0  0
 26 90  1  0  0  0  0
 27 92  1  0  0  0  0
 28 31  2  0  0  0  0
 28 90  1  0  0  0  0
 29 91  1  0  0  0  0
 30 93  1  0  0  0  0
 31 94  1  0  0  0  0
 32 74  2  0  0  0  0
 33 75  1  0  0  0  0
 33 79  1  0  0  0  0
 34 80  1  0  0  0  0
 34 85  2  0  0  0  0
 35 58  1  0  0  0  0
 35 81  1  0  0  0  0
 35 86  2  0  0  0  0
 36 71  1  0  0  0  0
 36 76  1  0  0  0  0
 36 87  2  0  0  0  0
 37 72  1  0  0  0  0
 37 82  1  0  0  0  0
 37 88  2  0  0  0  0
 38 77  1  0  0  0  0
 38 78  1  0  0  0  0
 38 89  2  0  0  0  0
 39 42  1  0  0  0  0
 40 58  1  0  0  0  0
 41 76  1  0  0  0  0
 42 44  1  0  0  0  0
 43 45  1  0  0  0  0
 43 49  1  0  0  0  0
 44 57  1  0  0  0  0
 45 59  1  0  0  0  0
 46 50  1  0  0  0  0
 46 55  1  0  0  0  0
 47 51  1  0  0  0  0
 47 55  1  0  0  0  0
 48 53  1  0  0  0  0
 48 56  1  0  0  0  0
 49 77  1  0  0  0  0
 50 78  1  0  0  0  0
 51 78  1  0  0  0  0
 52 59  1  0  0  0  0
 52 77  1  0  0  0  0
 53 83  1  0  0  0  0
 54 56  1  0  0  0  0
 54 83  1  0  0  0  0
 57 81  1  0  0  0  0
 58 76  1  0  0  0  0
 59 75  1  0  0  0  0
 60 70  1  0  0  0  0
 61 70  1  0  0  0  0
 62 72  1  0  0  0  0
 63 73  1  0  0  0  0
 64 73  1  0  0  0  0
 65 73  1  0  0  0  0
 66 84  1  0  0  0  0
 67 91  1  0  0  0  0
 68 69  1  0  0  0  0
 68 83  1  0  0  0  0
 69 92  1  0  0  0  0
 71 73  1  0  0  0  0
 71 82  1  0  0  0  0
 72 84  1  0  0  0  0
 74 75  1  0  0  0  0
M  CHG  2  83   1  84   1
M  ISO  4  38 100  69 101  78 100  92 101
M  END
> <Batch ID>
0145

> <Smiles>
CNC(C)C(=O)NC(C(=O)N1Cc2cc([101O:1][101CH2:1]CN3CCC(c4c(OC)cc(C5CC[100N:0]([100C:0](=O)N6CCCC(n7nc(-c8ccc(Oc9ccc(F)cc9F)cc8)c(C(N)=O)c7N)C6)CC5)cc4C(C)C)C3)ccc2CC1C(=O)NC1CCCc2ccccc21)C(C)(C)C

> <Shape>
0.236

> <Color>
0.088

> <Negative vol penalty>
0.000

$$$$

  -OEChem-04052321283D

 83 91  0     1  0  0  0  0  0999 V2000
  -25.7534  -23.2911   22.0048 C   0  0  0  0  0  0  0  0  0  0  0  0
  -25.1009  -22.1402   21.5749 C   0  0  0  0  0  0  0  0  0  0  0  0
  -24.6416  -30.1724   20.4314 C   0  0  0  0  0  0  0  0  0  0  0  0
  -24.3409  -28.6276   22.2645 C   0  0  0  0  0  0  0  0  0  0  0  0
  -27.1039  -23.4762   21.7118 C   0  0  0  0  0  0  0  0  0  0  0  0
  -25.7983  -21.1740   20.8506 C   0  0  0  0  0  0  0  0  0  0  0  0
  -24.8318  -16.4693   22.4558 C   0  0  0  0  0  0  0  0  0  0  0  0
  -24.3673  -31.2401   21.2861 C   0  0  0  0  0  0  0  0  0  0  0  0
  -24.0666  -29.6953   23.1192 C   0  0  0  0  0  0  0  0  0  0  0  0
  -23.6282  -15.8932   22.0514 C   0  0  0  0  0  0  0  0  0  0  0  0
  -23.6414  -32.0405   25.8647 C   0  0  0  0  0  0  0  0  0  0  0  0
  -24.2531  -32.0423   27.1182 C   0  0  0  0  0  0  0  0  0  0  0  0
  -24.7981  -14.6699   20.3327 C   0  0  0  0  0  0  0  0  0  0  0  0
  -26.4244  -32.0518   26.0587 C   0  0  0  0  0  0  0  0  0  0  0  0
  -20.0679  -18.1858   16.3726 C   0  0  0  0  0  0  0  0  0  0  0  0
  -20.8569  -18.4938   18.4456 C   0  0  0  0  0  0  0  0  0  0  0  0
  -24.6283  -28.8662   20.9206 C   0  0  0  0  0  0  0  0  0  0  0  0
  -26.1693  -27.1935   19.7650 C   0  0  0  0  0  0  0  0  0  0  0  0
  -27.8206  -22.5073   20.9920 C   0  0  0  0  0  0  0  0  0  0  0  0
  -26.0279  -16.1578   21.7935 C   0  0  0  0  0  0  0  0  0  0  0  0
  -27.1593  -21.3469   20.5466 C   0  0  0  0  0  0  0  0  0  0  0  0
  -26.0159  -15.2414   20.7322 C   0  0  0  0  0  0  0  0  0  0  0  0
  -19.2141  -17.5382   17.2381 C   0  0  0  0  0  0  0  0  0  0  0  0
  -19.7133  -17.7329   18.5496 C   0  0  0  0  0  0  0  0  0  0  0  0
  -24.0799  -31.0015   22.6300 C   0  0  0  0  0  0  0  0  0  0  0  0
  -23.6108  -14.9956   20.9879 C   0  0  0  0  0  0  0  0  0  0  0  0
  -24.4212  -32.0442   24.7081 C   0  0  0  0  0  0  0  0  0  0  0  0
  -25.6446  -32.0480   27.2153 C   0  0  0  0  0  0  0  0  0  0  0  0
  -25.8127  -32.0499   24.8051 C   0  0  0  0  0  0  0  0  0  0  0  0
  -24.9110  -27.7628   20.0381 C   0  0  0  0  0  0  0  0  0  0  0  0
  -25.9030  -26.1844   18.8721 C   0  0  0  0  0  0  0  0  0  0  0  0
  -27.4630  -27.5452   20.2732 C   0  0  0  0  0  0  0  0  0  0  0  0
  -28.1679  -17.8168   20.1286 C   0  0  0  0  0  0  0  0  0  0  0  0
  -29.7895  -15.0076   20.1549 C   0  0  0  0  0  0  0  0  0  0  0  0
  -29.6900  -11.6073   20.4286 C   0  0  0  0  0  0  0  0  0  0  0  0
  -22.8586  -21.7843   17.5245 C   0  0  0  0  0  0  0  0  0  0  0  0
  -29.2672  -22.7735   20.6585 C   0  0  0  0  0  0  0  0  0  0  0  0
  -27.3218  -16.7672   22.2590 C   0  0  0  0  0  0  0  0  0  0  0  0
  -27.2757  -14.8581   20.0012 C   0  0  0  0  0  0  0  0  0  0  0  0
  -30.0278  -21.5284   20.2095 C   0  0  0  0  0  0  0  0  0  0  0  0
  -21.7263  -25.0788   16.2799 C   0  0  0  0  0  0  0  0  0  0  0  0
  -29.2147  -20.7477   19.1819 C   0  0  0  0  0  0  0  0  0  0  0  0
  -22.5230  -26.0198   17.1782 C   0  0  0  0  0  0  0  0  0  0  0  0
  -21.3426  -23.7860   16.9984 C   0  0  0  0  0  0  0  0  0  0  0  0
  -23.3068  -24.0155   18.4965 C   0  0  0  0  0  0  0  0  0  0  0  0
  -27.8879  -20.2644   19.7799 C   0  0  1  0  0  0  0  0  0  0  0  0
  -28.4021  -16.7711   21.1818 C   0  0  1  0  0  0  0  0  0  0  0  0
  -23.7420  -25.2976   17.7711 C   0  0  2  0  0  0  0  0  0  0  0  0
  -18.0033  -16.7841   16.8572 C   0  0  0  0  0  0  0  0  0  0  0  0
  -31.1709   -9.5822   20.3713 C   0  0  0  0  0  0  0  0  0  0  0  0
  -19.8274  -13.3575   19.8305 C   0  0  0  0  0  0  0  0  0  0  0  0
  -29.9616  -15.2224   17.1161 C   0  0  0  0  0  0  0  0  0  0  0  0
  -30.5725  -12.7954   17.0488 C   0  0  0  0  0  0  0  0  0  0  0  0
  -32.0547  -14.4206   18.2254 C   0  0  0  0  0  0  0  0  0  0  0  0
  -28.9811  -10.8670   23.2050 C   0  0  0  0  0  0  0  0  0  0  0  0
  -19.1133  -17.2092   19.8304 C   0  0  0  0  0  0  0  0  0  0  0  0
  -18.9040  -15.6886   19.8454 C   0  0  0  0  0  0  0  0  0  0  0  0
  -21.2504  -15.2010   20.7826 C   0  0  0  0  0  0  0  0  0  1  0  0
  -22.2040  -19.5714   16.5633 C   0  0  0  0  0  0  0  0  0  0  0  0
  -29.8359  -13.7915   19.2615 C   0  0  1  0  0  0  0  0  0  0  0  0
  -30.5200  -10.6382   21.2511 C   0  0  2  0  0  0  0  0  0  0  0  0
  -20.1923  -14.8441   19.7298 C   0  0  1  0  0  0  0  0  0  0  0  0
  -30.5820  -14.0660   17.9253 C   0  0  0  0  0  0  0  0  0  0  0  0
  -23.9192  -27.1652   19.3724 N   0  0  0  0  0  0  0  0  0  0  0  0
  -21.0625  -18.7634   17.1178 N   0  0  0  0  0  0  0  0  0  0  0  0
  -24.5541  -26.2099   18.6721 N   0  0  0  0  0  0  0  0  0  0  0  0
  -28.5147  -15.4856   20.4896 N   0  0  0  0  0  0  0  0  0  0  0  0
  -22.5092  -23.1441   17.6249 N   0  0  0  0  0  0  0  0  0  0  0  0
  -26.6935  -25.2867   18.2462 N   0  0  0  0  0  0  0  0  0  0  0  0
  -27.5574  -28.6074   21.1827 N   0  0  0  0  0  0  0  0  0  0  0  0
  -28.1045  -19.1065   20.6206 N   0  0  0  0  0  0  0  0  0  0  0  0
  -30.4179  -12.7193   20.0615 N   0  0  0  0  0  0  0  0  0  0  0  0
  -22.0002  -20.9974   16.7647 N   0  0  0  0  0  0  0  0  0  0  0  0
  -29.6647   -9.9489   22.2581 N   0  3  0  0  0  0  0  0  0  0  0  0
  -28.5065  -26.9464   19.9182 O   0  0  0  0  0  0  0  0  0  0  0  0
  -28.0546  -17.4788   18.9562 O   0  0  0  0  0  0  0  0  0  0  0  0
  -30.8454  -15.5103   20.5473 O   0  0  0  0  0  0  0  0  0  0  0  0
  -28.5146  -11.3970   20.1376 O   0  0  0  0  0  0  0  0  0  0  0  0
  -23.8557  -21.3091   18.0781 O   0  0  0  0  0  0  0  0  0  0  0  0
  -23.8124  -32.0431   23.4643 O   0  0  0  0  0  0  0  0  0  0  0  0
  -22.4374  -14.4324   20.5908 O   0  0  0  0  0  0  0  0  0  1  0  0
  -26.2318  -32.0514   28.4191 F   0  0  0  0  0  0  0  0  0  0  0  0
  -26.5670  -32.0547   23.6976 F   0  0  0  0  0  0  0  0  0  0  0  0
  1  2  1  0  0  0  0
  1  5  2  0  0  0  0
  2  6  2  0  0  0  0
  3  8  2  0  0  0  0
  3 17  1  0  0  0  0
  4  9  1  0  0  0  0
  4 17  2  0  0  0  0
  5 19  1  0  0  0  0
  6 21  1  0  0  0  0
  7 10  2  0  0  0  0
  7 20  1  0  0  0  0
  8 25  1  0  0  0  0
  9 25  2  0  0  0  0
 10 26  1  0  0  0  0
 11 12  2  0  0  0  0
 11 27  1  0  0  0  0
 12 28  1  0  0  0  0
 13 22  1  0  0  0  0
 13 26  2  0  0  0  0
 14 28  2  0  0  0  0
 14 29  1  0  0  0  0
 15 23  2  0  0  0  0
 15 65  1  0  0  0  0
 16 24  2  0  0  0  0
 16 65  1  0  0  0  0
 17 30  1  0  0  0  0
 18 30  1  0  0  0  0
 18 31  2  0  0  0  0
 18 32  1  0  0  0  0
 19 21  2  0  0  0  0
 19 37  1  0  0  0  0
 20 22  2  0  0  0  0
 20 38  1  0  0  0  0
 21 46  1  0  0  0  0
 22 39  1  0  0  0  0
 23 24  1  0  0  0  0
 23 49  1  0  0  0  0
 24 56  1  0  0  0  0
 25 80  1  0  0  0  0
 26 81  1  0  0  0  0
 27 29  2  0  0  0  0
 27 80  1  0  0  0  0
 28 82  1  0  0  0  0
 29 83  1  0  0  0  0
 30 64  2  0  0  0  0
 31 66  1  0  0  0  0
 31 69  1  0  0  0  0
 32 70  1  0  0  0  0
 32 75  2  0  0  0  0
 33 47  1  0  0  0  0
 33 71  1  0  0  0  0
 33 76  2  0  0  0  0
 34 60  1  0  0  0  0
 34 67  1  0  0  0  0
 34 77  2  0  0  0  0
 35 61  1  0  0  0  0
 35 72  1  0  0  0  0
 35 78  2  0  0  0  0
 36 68  1  0  0  0  0
 36 73  1  0  0  0  0
 36 79  2  0  0  0  0
 37 40  1  0  0  0  0
 38 47  1  0  0  0  0
 39 67  1  0  0  0  0
 40 42  1  0  0  0  0
 41 43  1  0  0  0  0
 41 44  1  0  0  0  0
 42 46  1  0  0  0  0
 43 48  1  0  0  0  0
 44 68  1  0  0  0  0
 45 48  1  0  0  0  0
 45 68  1  0  0  0  0
 46 71  1  0  0  0  0
 47 67  1  0  0  0  0
 48 66  1  0  0  0  0
 50 61  1  0  0  0  0
 51 62  1  0  0  0  0
 52 63  1  0  0  0  0
 53 63  1  0  0  0  0
 54 63  1  0  0  0  0
 55 74  1  0  0  0  0
 56 57  1  0  0  0  0
 57 62  1  0  0  0  0
 58 62  1  0  0  0  0
 58 81  1  0  0  0  0
 59 65  1  0  0  0  0
 59 73  1  0  0  0  0
 60 63  1  0  0  0  0
 60 72  1  0  0  0  0
 61 74  1  0  0  0  0
 64 66  1  0  0  0  0
M  CHG  1  74   1
M  ISO  4  36 100  58 101  73 100  81 101
M  END
> <Batch ID>
0145

> <Smiles>
CNC(C)C(=O)NC(C(=O)N1Cc2cc([101O:1][101CH2:1]C(C)CCc3cn(C[100NH:0][100C:0](=O)N4CCCC(n5nc(-c6ccc(Oc7ccc(F)cc7F)cc6)c(C(N)=O)c5N)C4)cc3C)ccc2CC1C(=O)NC1CCCc2ccccc21)C(C)(C)C

> <Shape>
0.228

> <Color>
0.066

> <Negative vol penalty>
0.000

$$$$

  -OEChem-04052321283D

 79 87  0     1  0  0  0  0  0999 V2000
  -20.9073   -9.9131   28.7023 C   0  0  0  0  0  0  0  0  0  0  0  0
  -22.0480  -10.6056   28.3090 C   0  0  0  0  0  0  0  0  0  0  0  0
  -23.2882   -9.7994   19.9127 C   0  0  0  0  0  0  0  0  0  0  0  0
  -23.7388   -9.9394   22.2821 C   0  0  0  0  0  0  0  0  0  0  0  0
  -20.1815  -10.3414   29.8131 C   0  0  0  0  0  0  0  0  0  0  0  0
  -22.4629  -11.7276   29.0256 C   0  0  0  0  0  0  0  0  0  0  0  0
  -27.4513  -11.7399   29.8978 C   0  0  0  0  0  0  0  0  0  0  0  0
  -22.5618   -8.6269   20.1201 C   0  0  0  0  0  0  0  0  0  0  0  0
  -23.0123   -8.7668   22.4896 C   0  0  0  0  0  0  0  0  0  0  0  0
  -28.2813  -12.1159   28.8426 C   0  0  0  0  0  0  0  0  0  0  0  0
  -19.7653   -7.8558   22.7065 C   0  0  0  0  0  0  0  0  0  0  0  0
  -18.8628   -7.8339   23.7698 C   0  0  0  0  0  0  0  0  0  0  0  0
  -28.4832  -14.3228   29.7956 C   0  0  0  0  0  0  0  0  0  0  0  0
  -20.0685   -5.9864   24.7549 C   0  0  0  0  0  0  0  0  0  0  0  0
  -23.8768  -10.4557   20.9937 C   0  0  0  0  0  0  0  0  0  0  0  0
  -24.1362  -12.9857   20.7958 C   0  0  0  0  0  0  0  0  0  0  0  0
  -20.5933  -11.4634   30.5494 C   0  0  0  0  0  0  0  0  0  0  0  0
  -27.1217  -12.6574   30.9058 C   0  0  0  0  0  0  0  0  0  0  0  0
  -21.7412  -12.1720   30.1464 C   0  0  0  0  0  0  0  0  0  0  0  0
  -27.6509  -13.9552   30.8639 C   0  0  0  0  0  0  0  0  0  0  0  0
  -22.4238   -8.1106   21.4085 C   0  0  0  0  0  0  0  0  0  0  0  0
  -28.7950  -13.4083   28.7898 C   0  0  0  0  0  0  0  0  0  0  0  0
  -20.8193   -6.9430   22.6672 C   0  0  0  0  0  0  0  0  0  0  0  0
  -19.0144   -6.8992   24.7940 C   0  0  0  0  0  0  0  0  0  0  0  0
  -20.9709   -6.0083   23.6915 C   0  0  0  0  0  0  0  0  0  0  0  0
  -24.6277  -11.6666   20.7800 C   0  0  0  0  0  0  0  0  0  0  0  0
  -25.2377  -13.7656   20.5411 C   0  0  0  0  0  0  0  0  0  0  0  0
  -22.8032  -13.4633   21.0206 C   0  0  0  0  0  0  0  0  0  0  0  0
  -24.4200  -13.9630   31.9546 C   0  0  0  0  0  0  0  0  0  0  0  0
  -26.3602  -15.1930   34.2448 C   0  0  0  0  0  0  0  0  0  0  0  0
  -29.5078  -16.1178   35.1851 C   0  0  0  0  0  0  0  0  0  0  0  0
  -31.1087  -12.9223   21.3608 C   0  0  0  0  0  0  0  0  0  0  0  0
  -19.7498  -11.9164   31.7147 C   0  0  0  0  0  0  0  0  0  0  0  0
  -26.2467  -12.2282   32.0515 C   0  0  0  0  0  0  0  0  0  0  0  0
  -27.3438  -14.9717   31.9320 C   0  0  0  0  0  0  0  0  0  0  0  0
  -20.4675  -12.8930   32.6429 C   0  0  0  0  0  0  0  0  0  0  0  0
  -29.4600  -13.6625   18.2932 C   0  0  0  0  0  0  0  0  0  0  0  0
  -21.1693  -13.9798   31.8348 C   0  0  0  0  0  0  0  0  0  0  0  0
  -27.9902  -13.3540   18.5841 C   0  0  0  0  0  0  0  0  0  0  0  0
  -29.1235  -15.0894   25.8015 C   0  0  0  0  0  0  0  0  0  0  0  0
  -29.9263  -12.7897   25.5785 C   0  0  0  0  0  0  0  0  0  0  0  0
  -30.3932  -12.6829   19.0013 C   0  0  0  0  0  0  0  0  0  0  0  0
  -28.7064  -12.2531   20.7460 C   0  0  0  0  0  0  0  0  0  0  0  0
  -22.2372  -13.3790   30.9129 C   0  0  1  0  0  0  0  0  0  0  0  0
  -25.5619  -13.3981   32.7512 C   0  0  1  0  0  0  0  0  0  0  0  0
  -30.0823  -14.9594   24.6079 C   0  0  2  0  0  0  0  0  0  0  0  0
  -30.9496  -13.7449   24.9616 C   0  0  2  0  0  0  0  0  0  0  0  0
  -27.7285  -13.2485   20.0986 C   0  0  2  0  0  0  0  0  0  0  0  0
  -29.0594  -13.6992   26.4443 C   0  0  1  0  0  0  0  0  0  1  0  0
  -30.8791  -16.2315   24.3583 C   0  0  0  0  0  0  0  0  0  0  0  0
  -30.7746  -17.1263   37.1023 C   0  0  0  0  0  0  0  0  0  0  0  0
  -32.4175  -11.8663   24.1617 C   0  0  0  0  0  0  0  0  0  0  0  0
  -25.2672  -17.9467   33.5154 C   0  0  0  0  0  0  0  0  0  0  0  0
  -27.1991  -18.9617   34.7426 C   0  0  0  0  0  0  0  0  0  0  0  0
  -25.5467  -17.5517   35.9691 C   0  0  0  0  0  0  0  0  0  0  0  0
  -31.1882  -13.7016   35.4970 C   0  0  0  0  0  0  0  0  0  0  0  0
  -27.1827  -16.4509   34.3867 C   0  0  1  0  0  0  0  0  0  0  0  0
  -30.3059  -15.8372   36.4456 C   0  0  2  0  0  0  0  0  0  0  0  0
  -31.6704  -13.1353   23.7688 C   0  0  1  0  0  0  0  0  0  0  0  0
  -26.3033  -17.7094   34.6321 C   0  0  0  0  0  0  0  0  0  0  0  0
  -25.9394  -11.6080   20.5346 N   0  0  0  0  0  0  0  0  0  0  0  0
  -26.2813  -12.9000   20.3936 N   0  0  0  0  0  0  0  0  0  0  0  0
  -26.4785  -14.5060   33.0283 N   0  0  0  0  0  0  0  0  0  0  0  0
  -30.0938  -12.6311   20.4344 N   0  0  0  0  0  0  0  0  0  0  0  0
  -25.4057  -15.1006   20.4310 N   0  0  0  0  0  0  0  0  0  0  0  0
  -21.7906  -12.5264   21.2678 N   0  0  0  0  0  0  0  0  0  0  0  0
  -23.4268  -13.0464   31.6670 N   0  0  0  0  0  0  0  0  0  0  0  0
  -28.1548  -16.1861   35.4419 N   0  0  0  0  0  0  0  0  0  0  0  0
  -30.7389  -12.8564   22.6986 N   0  0  0  0  0  0  0  0  0  0  0  0
  -31.5036  -15.0096   36.1268 N   0  3  0  0  0  0  0  0  0  0  0  0
  -22.5153  -14.6838   20.9866 O   0  0  0  0  0  0  0  0  0  0  0  0
  -24.4380  -15.1436   31.6264 O   0  0  0  0  0  0  0  0  0  0  0  0
  -25.6448  -14.8293   35.1816 O   0  0  0  0  0  0  0  0  0  0  0  0
  -30.0325  -16.2657   34.0836 O   0  0  0  0  0  0  0  0  0  0  0  0
  -32.2577  -13.2241   21.0209 O   0  0  0  0  0  0  0  0  0  0  0  0
  -21.7148   -6.9665   21.6113 O   0  0  0  0  0  0  0  0  0  0  0  0
  -29.6048  -13.7781   27.7606 O   0  0  0  0  0  0  0  0  0  1  0  0
  -18.1486   -6.8792   25.8159 F   0  0  0  0  0  0  0  0  0  0  0  0
  -21.9822   -5.1296   23.6599 F   0  0  0  0  0  0  0  0  0  0  0  0
  1  2  1  0  0  0  0
  1  5  2  0  0  0  0
  2  6  2  0  0  0  0
  3  8  2  0  0  0  0
  3 15  1  0  0  0  0
  4  9  1  0  0  0  0
  4 15  2  0  0  0  0
  5 17  1  0  0  0  0
  6 19  1  0  0  0  0
  7 10  2  0  0  0  0
  7 18  1  0  0  0  0
  8 21  1  0  0  0  0
  9 21  2  0  0  0  0
 10 22  1  0  0  0  0
 11 12  2  0  0  0  0
 11 23  1  0  0  0  0
 12 24  1  0  0  0  0
 13 20  1  0  0  0  0
 13 22  2  0  0  0  0
 14 24  2  0  0  0  0
 14 25  1  0  0  0  0
 15 26  1  0  0  0  0
 16 26  1  0  0  0  0
 16 27  2  0  0  0  0
 16 28  1  0  0  0  0
 17 19  2  0  0  0  0
 17 33  1  0  0  0  0
 18 20  2  0  0  0  0
 18 34  1  0  0  0  0
 19 44  1  0  0  0  0
 20 35  1  0  0  0  0
 21 76  1  0  0  0  0
 22 77  1  0  0  0  0
 23 25  2  0  0  0  0
 23 76  1  0  0  0  0
 24 78  1  0  0  0  0
 25 79  1  0  0  0  0
 26 61  2  0  0  0  0
 27 62  1  0  0  0  0
 27 65  1  0  0  0  0
 28 66  1  0  0  0  0
 28 71  2  0  0  0  0
 29 45  1  0  0  0  0
 29 67  1  0  0  0  0
 29 72  2  0  0  0  0
 30 57  1  0  0  0  0
 30 63  1  0  0  0  0
 30 73  2  0  0  0  0
 31 58  1  0  0  0  0
 31 68  1  0  0  0  0
 31 74  2  0  0  0  0
 32 64  1  0  0  0  0
 32 69  1  0  0  0  0
 32 75  2  0  0  0  0
 33 36  1  0  0  0  0
 34 45  1  0  0  0  0
 35 63  1  0  0  0  0
 36 38  1  0  0  0  0
 37 39  1  0  0  0  0
 37 42  1  0  0  0  0
 38 44  1  0  0  0  0
 39 48  1  0  0  0  0
 40 46  1  0  0  0  0
 40 49  1  0  0  0  0
 41 47  1  0  0  0  0
 41 49  1  0  0  0  0
 42 64  1  0  0  0  0
 43 48  1  0  0  0  0
 43 64  1  0  0  0  0
 44 67  1  0  0  0  0
 45 63  1  0  0  0  0
 46 47  1  0  0  0  0
 46 50  1  0  0  0  0
 47 59  1  0  0  0  0
 48 62  1  0  0  0  0
 49 77  1  0  0  0  0
 51 58  1  0  0  0  0
 52 59  1  0  0  0  0
 53 60  1  0  0  0  0
 54 60  1  0  0  0  0
 55 60  1  0  0  0  0
 56 70  1  0  0  0  0
 57 60  1  0  0  0  0
 57 68  1  0  0  0  0
 58 70  1  0  0  0  0
 59 69  1  0  0  0  0
 61 62  1  0  0  0  0
M  CHG  1  70   1
M  ISO  4  32 100  49 101  69 100  77 101
M  END
> <Batch ID>
0145

> <Smiles>
CNC(C)C(=O)NC(C(=O)N1Cc2cc([101O:1][101CH:1]3CC(C)C(C(C)[100NH:0][100C:0](=O)N4CCCC(n5nc(-c6ccc(Oc7ccc(F)cc7F)cc6)c(C(N)=O)c5N)C4)C3)ccc2CC1C(=O)NC1CCCc2ccccc21)C(C)(C)C

> <Shape>
0.137

> <Color>
0.182

> <Negative vol penalty>
0.000

$$$$

  -OEChem-04052321283D

 87 97  0     1  0  0  0  0  0999 V2000
  -16.7855  -30.1192   23.4406 C   0  0  0  0  0  0  0  0  0  0  0  0
  -17.9230  -30.8323   23.0758 C   0  0  0  0  0  0  0  0  0  0  0  0
  -25.9174  -13.8943   21.6206 C   0  0  0  0  0  0  0  0  0  0  0  0
  -26.4876  -12.4018   19.8082 C   0  0  0  0  0  0  0  0  0  0  0  0
  -16.8954  -28.7846   23.8287 C   0  0  0  0  0  0  0  0  0  0  0  0
  -19.1713  -30.2113   23.1001 C   0  0  0  0  0  0  0  0  0  0  0  0
  -25.4764  -30.2169   19.6998 C   0  0  0  0  0  0  0  0  0  0  0  0
  -24.6886  -13.2502   21.7644 C   0  0  0  0  0  0  0  0  0  0  0  0
  -25.2588  -11.7577   19.9521 C   0  0  0  0  0  0  0  0  0  0  0  0
  -26.8415  -30.3237   19.9622 C   0  0  0  0  0  0  0  0  0  0  0  0
  -23.8801   -9.4566   22.0075 C   0  0  0  0  0  0  0  0  0  0  0  0
  -23.8753   -8.0619   21.9903 C   0  0  0  0  0  0  0  0  0  0  0  0
  -26.9005  -27.9910   20.5738 C   0  0  0  0  0  0  0  0  0  0  0  0
  -30.5710  -26.1417   17.5940 C   0  0  0  0  0  0  0  0  0  0  0  0
  -22.4182   -8.0906   20.0633 C   0  0  0  0  0  0  0  0  0  0  0  0
  -28.9974  -27.4234   16.3539 C   0  0  0  0  0  0  0  0  0  0  0  0
  -26.8169  -13.4701   20.6424 C   0  0  0  0  0  0  0  0  0  0  0  0
  -29.2956  -13.8141   21.1379 C   0  0  0  0  0  0  0  0  0  0  0  0
  -18.1444  -28.1442   23.8485 C   0  0  0  0  0  0  0  0  0  0  0  0
  -24.8098  -28.9969   19.8832 C   0  0  0  0  0  0  0  0  0  0  0  0
  -19.2982  -28.8673   23.4902 C   0  0  0  0  0  0  0  0  0  0  0  0
  -25.5274  -27.8706   20.3106 C   0  0  0  0  0  0  0  0  0  0  0  0
  -30.0108  -24.9888   17.0551 C   0  0  0  0  0  0  0  0  0  0  0  0
  -24.3593  -12.1819   20.9302 C   0  0  0  0  0  0  0  0  0  0  0  0
  -27.5532  -29.2114   20.4020 C   0  0  0  0  0  0  0  0  0  0  0  0
  -23.1539  -10.1683   21.0526 C   0  0  0  0  0  0  0  0  0  0  0  0
  -30.0604  -27.3861   17.2418 C   0  0  0  0  0  0  0  0  0  0  0  0
  -23.1444   -7.3788   21.0183 C   0  0  0  0  0  0  0  0  0  0  0  0
  -22.4230   -9.4853   20.0805 C   0  0  0  0  0  0  0  0  0  0  0  0
  -28.0862  -14.1355   20.4930 C   0  0  0  0  0  0  0  0  0  0  0  0
  -28.9499  -25.1333   16.1757 C   0  0  0  0  0  0  0  0  0  0  0  0
  -30.1949  -14.7360   20.6604 C   0  0  0  0  0  0  0  0  0  0  0  0
  -29.5807  -12.7750   22.0838 C   0  0  0  0  0  0  0  0  0  0  0  0
  -22.4366  -27.9954   21.7456 C   0  0  0  0  0  0  0  0  0  0  0  0
  -22.7329  -25.2779   19.9993 C   0  0  0  0  0  0  0  0  0  0  0  0
  -24.7046  -23.2858   18.0523 C   0  0  0  0  0  0  0  0  0  0  0  0
  -29.2981  -20.2099   18.4853 C   0  0  0  0  0  0  0  0  0  0  0  0
  -18.2194  -26.7138   24.3206 C   0  0  0  0  0  0  0  0  0  0  0  0
  -23.3424  -28.8915   19.5702 C   0  0  0  0  0  0  0  0  0  0  0  0
  -24.8626  -26.5330   20.5037 C   0  0  0  0  0  0  0  0  0  0  0  0
  -19.5310  -26.0212   23.9596 C   0  0  0  0  0  0  0  0  0  0  0  0
  -31.1250  -17.4510   16.8533 C   0  0  0  0  0  0  0  0  0  0  0  0
  -20.7180  -26.9204   24.2899 C   0  0  0  0  0  0  0  0  0  0  0  0
  -29.1806  -22.9462   14.8203 C   0  0  0  0  0  0  0  0  0  0  0  0
  -28.2226  -23.8198   14.0724 C   0  0  0  0  0  0  0  0  0  0  0  0
  -30.6091  -16.2507   17.6417 C   0  0  0  0  0  0  0  0  0  0  0  0
  -30.6472  -23.2815   18.8862 C   0  0  0  0  0  0  0  0  0  0  0  0
  -30.0594  -18.5350   16.6964 C   0  0  0  0  0  0  0  0  0  0  0  0
  -28.9518  -17.7776   18.7806 C   0  0  0  0  0  0  0  0  0  0  0  0
  -30.5545  -23.6529   17.4302 C   0  0  1  0  0  0  0  0  0  0  0  0
  -20.6667  -28.2215   23.4798 C   0  0  1  0  0  0  0  0  0  0  0  0
  -28.3159  -23.9224   15.5705 C   0  0  0  0  0  0  0  0  0  0  0  0
  -22.6612  -27.7281   20.2842 C   0  0  1  0  0  0  0  0  0  0  0  0
  -30.0247  -16.6981   18.9903 C   0  0  1  0  0  0  0  0  0  0  0  0
  -29.6192  -22.6202   18.0167 C   0  0  1  0  0  0  0  0  0  0  0  0
  -25.3159  -21.3740   16.5461 C   0  0  0  0  0  0  0  0  0  0  0  0
  -23.0028  -23.7629   22.6340 C   0  0  0  0  0  0  0  0  0  0  0  0
  -23.9087  -21.8186   21.3429 C   0  0  0  0  0  0  0  0  0  0  0  0
  -21.5866  -22.6239   20.9160 C   0  0  0  0  0  0  0  0  0  0  0  0
  -23.9395  -24.7999   15.6273 C   0  0  0  0  0  0  0  0  0  0  0  0
  -31.0644  -29.8085   19.7488 C   0  0  0  0  0  0  0  0  0  0  0  0
  -29.6230  -30.2691   19.8987 C   0  0  0  0  0  0  0  0  0  1  0  0
  -31.1609  -28.4576   19.0574 C   0  0  0  0  0  0  0  0  0  0  0  0
  -23.5453  -24.0114   20.1221 C   0  0  1  0  0  0  0  0  0  0  0  0
  -24.4476  -22.6107   16.7172 C   0  0  2  0  0  0  0  0  0  0  0  0
  -23.0232  -23.0798   21.2521 C   0  0  0  0  0  0  0  0  0  0  0  0
  -28.4269  -26.3251   15.8098 N   0  0  0  0  0  0  0  0  0  0  0  0
  -28.2031  -15.1801   19.6688 N   0  0  0  0  0  0  0  0  0  0  0  0
  -29.4965  -15.5231   19.7927 N   0  0  0  0  0  0  0  0  0  0  0  0
  -23.4249  -26.4822   20.1905 N   0  0  0  0  0  0  0  0  0  0  0  0
  -29.4675  -18.9035   17.9921 N   0  0  0  0  0  0  0  0  0  0  0  0
  -31.5068  -14.9421   20.9025 N   0  0  0  0  0  0  0  0  0  0  0  0
  -28.5415  -11.9156   22.4656 N   0  0  0  0  0  0  0  0  0  0  0  0
  -21.1067  -27.9884   22.1209 N   0  0  0  0  0  0  0  0  0  0  0  0
  -23.5501  -23.3996   18.7977 N   0  0  0  0  0  0  0  0  0  0  0  0
  -29.7326  -21.2336   17.6509 N   0  0  0  0  0  0  0  0  0  0  0  0
  -24.7407  -23.5493   15.5973 N   0  3  0  0  0  0  0  0  0  0  0  0
  -30.7192  -12.6238   22.5883 O   0  0  0  0  0  0  0  0  0  0  0  0
  -23.3986  -28.1919   22.4787 O   0  0  0  0  0  0  0  0  0  0  0  0
  -21.5302  -25.2018   19.7361 O   0  0  0  0  0  0  0  0  0  0  0  0
  -25.8187  -23.6700   18.4009 O   0  0  0  0  0  0  0  0  0  0  0  0
  -28.7914  -20.4496   19.5869 O   0  0  0  0  0  0  0  0  0  0  0  0
  -23.1603  -11.5530   21.0704 O   0  0  0  0  0  0  0  0  0  0  0  0
  -28.8856  -29.3132   20.6595 O   0  0  0  0  0  0  0  0  0  1  0  0
  -30.5923  -28.5393   17.7575 O   0  0  0  0  0  0  0  0  0  0  0  0
  -23.1411   -6.0395   21.0010 F   0  0  0  0  0  0  0  0  0  0  0  0
  -21.7244  -10.1636   19.1598 F   0  0  0  0  0  0  0  0  0  0  0  0
  1  2  1  0  0  0  0
  1  5  2  0  0  0  0
  2  6  2  0  0  0  0
  3  8  2  0  0  0  0
  3 17  1  0  0  0  0
  4  9  1  0  0  0  0
  4 17  2  0  0  0  0
  5 19  1  0  0  0  0
  6 21  1  0  0  0  0
  7 10  2  0  0  0  0
  7 20  1  0  0  0  0
  8 24  1  0  0  0  0
  9 24  2  0  0  0  0
 10 25  1  0  0  0  0
 11 12  2  0  0  0  0
 11 26  1  0  0  0  0
 12 28  1  0  0  0  0
 13 22  1  0  0  0  0
 13 25  2  0  0  0  0
 14 23  1  0  0  0  0
 14 27  2  0  0  0  0
 15 28  2  0  0  0  0
 15 29  1  0  0  0  0
 16 27  1  0  0  0  0
 16 67  2  0  0  0  0
 17 30  1  0  0  0  0
 18 30  1  0  0  0  0
 18 32  2  0  0  0  0
 18 33  1  0  0  0  0
 19 21  2  0  0  0  0
 19 38  1  0  0  0  0
 20 22  2  0  0  0  0
 20 39  1  0  0  0  0
 21 51  1  0  0  0  0
 22 40  1  0  0  0  0
 23 31  2  0  0  0  0
 23 50  1  0  0  0  0
 24 83  1  0  0  0  0
 25 84  1  0  0  0  0
 26 29  2  0  0  0  0
 26 83  1  0  0  0  0
 27 85  1  0  0  0  0
 28 86  1  0  0  0  0
 29 87  1  0  0  0  0
 30 68  2  0  0  0  0
 31 52  1  0  0  0  0
 31 67  1  0  0  0  0
 32 69  1  0  0  0  0
 32 72  1  0  0  0  0
 33 73  1  0  0  0  0
 33 78  2  0  0  0  0
 34 53  1  0  0  0  0
 34 74  1  0  0  0  0
 34 79  2  0  0  0  0
 35 64  1  0  0  0  0
 35 70  1  0  0  0  0
 35 80  2  0  0  0  0
 36 65  1  0  0  0  0
 36 75  1  0  0  0  0
 36 81  2  0  0  0  0
 37 71  1  0  0  0  0
 37 76  1  0  0  0  0
 37 82  2  0  0  0  0
 38 41  1  0  0  0  0
 39 53  1  0  0  0  0
 40 70  1  0  0  0  0
 41 43  1  0  0  0  0
 42 46  1  0  0  0  0
 42 48  1  0  0  0  0
 43 51  1  0  0  0  0
 44 45  1  0  0  0  0
 44 52  1  0  0  0  0
 45 52  1  0  0  0  0
 46 54  1  0  0  0  0
 47 50  1  0  0  0  0
 47 55  1  0  0  0  0
 48 71  1  0  0  0  0
 49 54  1  0  0  0  0
 49 71  1  0  0  0  0
 50 55  1  0  0  0  0
 51 74  1  0  0  0  0
 53 70  1  0  0  0  0
 54 69  1  0  0  0  0
 55 76  1  0  0  0  0
 56 65  1  0  0  0  0
 57 66  1  0  0  0  0
 58 66  1  0  0  0  0
 59 66  1  0  0  0  0
 60 77  1  0  0  0  0
 61 62  1  0  0  0  0
 61 63  1  0  0  0  0
 62 84  1  0  0  0  0
 63 85  1  0  0  0  0
 64 66  1  0  0  0  0
 64 75  1  0  0  0  0
 65 77  1  0  0  0  0
 68 69  1  0  0  0  0
M  CHG  1  77   1
M  ISO  4  37 100  62 101  76 100  84 101
M  END
> <Batch ID>
0145

> <Smiles>
CNC(C)C(=O)NC(C(=O)N1Cc2cc([101O:1][101CH2:1]CCOc3cnc(C4CC4)c(C4CC4[100NH:0][100C:0](=O)N4CCCC(n5nc(-c6ccc(Oc7ccc(F)cc7F)cc6)c(C(N)=O)c5N)C4)c3)ccc2CC1C(=O)NC1CCCc2ccccc21)C(C)(C)C

> <Shape>
0.268

> <Color>
0.094

> <Negative vol penalty>
0.000

$$$$

  -OEChem-04052321283D

 87 97  0     1  0  0  0  0  0999 V2000
  -29.1303  -34.7578   16.3941 C   0  0  0  0  0  0  0  0  0  0  0  0
  -29.1974  -33.3783   16.2266 C   0  0  0  0  0  0  0  0  0  0  0  0
  -24.5361   -8.9407   21.2922 C   0  0  0  0  0  0  0  0  0  0  0  0
  -22.6851  -10.4286   20.8486 C   0  0  0  0  0  0  0  0  0  0  0  0
  -28.9828  -35.2974   17.6712 C   0  0  0  0  0  0  0  0  0  0  0  0
  -29.1182  -32.5377   17.3363 C   0  0  0  0  0  0  0  0  0  0  0  0
  -26.5088  -27.0027   17.5830 C   0  0  0  0  0  0  0  0  0  0  0  0
  -23.6469   -7.8745   21.4266 C   0  0  0  0  0  0  0  0  0  0  0  0
  -21.7958   -9.3624   20.9829 C   0  0  0  0  0  0  0  0  0  0  0  0
  -27.0345  -25.7136   17.5073 C   0  0  0  0  0  0  0  0  0  0  0  0
  -21.5355   -6.6738   23.7770 C   0  0  0  0  0  0  0  0  0  0  0  0
  -21.7207   -5.8083   24.8551 C   0  0  0  0  0  0  0  0  0  0  0  0
  -27.0824  -25.5981   19.9163 C   0  0  0  0  0  0  0  0  0  0  0  0
  -28.3993  -18.7121   19.6950 C   0  0  0  0  0  0  0  0  0  0  0  0
  -22.0195   -3.9641   23.3231 C   0  0  0  0  0  0  0  0  0  0  0  0
  -24.0552  -10.2178   21.0032 C   0  0  0  0  0  0  0  0  0  0  0  0
  -25.6062  -11.7558   19.6855 C   0  0  0  0  0  0  0  0  0  0  0  0
  -28.8921  -34.4625   18.7962 C   0  0  0  0  0  0  0  0  0  0  0  0
  -26.2757  -27.6043   18.8281 C   0  0  0  0  0  0  0  0  0  0  0  0
  -28.9708  -33.0666   18.6298 C   0  0  0  0  0  0  0  0  0  0  0  0
  -26.5513  -26.8939   20.0052 C   0  0  0  0  0  0  0  0  0  0  0  0
  -28.9083  -19.8529   19.1065 C   0  0  0  0  0  0  0  0  0  0  0  0
  -29.0294  -21.0430   19.8279 C   0  0  0  0  0  0  0  0  0  0  0  0
  -22.2767   -8.0853   21.2720 C   0  0  0  0  0  0  0  0  0  0  0  0
  -27.3241  -25.0122   18.6740 C   0  0  0  0  0  0  0  0  0  0  0  0
  -21.5921   -6.1844   22.4720 C   0  0  0  0  0  0  0  0  0  0  0  0
  -21.9628   -4.4535   24.6282 C   0  0  0  0  0  0  0  0  0  0  0  0
  -21.8342   -4.8296   22.2451 C   0  0  0  0  0  0  0  0  0  0  0  0
  -24.9732  -11.3197   20.8649 C   0  0  0  0  0  0  0  0  0  0  0  0
  -28.6185  -21.0561   21.1425 C   0  0  0  0  0  0  0  0  0  0  0  0
  -28.0073  -18.8280   21.0198 C   0  0  0  0  0  0  0  0  0  0  0  0
  -26.3705  -12.8261   20.0816 C   0  0  0  0  0  0  0  0  0  0  0  0
  -25.5117  -11.2397   18.3512 C   0  0  0  0  0  0  0  0  0  0  0  0
  -27.3841  -30.1861   20.3145 C   0  0  0  0  0  0  0  0  0  0  0  0
  -25.1342  -29.4060   22.5171 C   0  0  0  0  0  0  0  0  0  0  0  0
  -23.1698  -26.9956   23.9235 C   0  0  0  0  0  0  0  0  0  0  0  0
  -27.0170  -17.5525   22.9533 C   0  0  0  0  0  0  0  0  0  0  0  0
  -28.7807  -35.0937   20.1614 C   0  0  0  0  0  0  0  0  0  0  0  0
  -25.6833  -28.9853   18.8929 C   0  0  0  0  0  0  0  0  0  0  0  0
  -29.4306  -20.0118   17.7142 C   0  0  0  0  0  0  0  0  0  0  0  0
  -26.3003  -27.4871   21.3666 C   0  0  0  0  0  0  0  0  0  0  0  0
  -28.3280  -34.1207   21.2471 C   0  0  0  0  0  0  0  0  0  0  0  0
  -29.4046  -21.5425   17.5661 C   0  0  0  0  0  0  0  0  0  0  0  0
  -27.5440  -14.5016   24.7117 C   0  0  0  0  0  0  0  0  0  0  0  0
  -29.1090  -32.8139   21.1522 C   0  0  0  0  0  0  0  0  0  0  0  0
  -26.9742  -13.4377   23.7706 C   0  0  0  0  0  0  0  0  0  0  0  0
  -26.7208  -15.7881   24.6779 C   0  0  0  0  0  0  0  0  0  0  0  0
  -25.9332  -15.2869   22.3981 C   0  0  0  0  0  0  0  0  0  0  0  0
  -30.1646  -24.4243   18.5460 C   0  0  0  0  0  0  0  0  0  0  0  0
  -31.1308  -22.3097   19.2902 C   0  0  0  0  0  0  0  0  0  0  0  0
  -28.8636  -32.1210   19.8064 C   0  0  1  0  0  0  0  0  0  0  0  0
  -25.9674  -29.6961   20.2125 C   0  0  1  0  0  0  0  0  0  0  0  0
  -26.7664  -13.9958   22.3490 C   0  0  2  0  0  0  0  0  0  0  0  0
  -29.1084  -23.5462   19.1987 C   0  0  2  0  0  0  0  0  0  1  0  0
  -29.6430  -22.1249   18.9892 C   0  0  2  0  0  0  0  0  0  0  0  0
  -29.5734  -22.0079   23.2714 C   0  0  0  0  0  0  0  0  0  0  0  0
  -27.2472  -22.6446   22.5377 C   0  0  0  0  0  0  0  0  0  0  0  0
  -21.4614  -26.6525   25.7294 C   0  0  0  0  0  0  0  0  0  0  0  0
  -27.3439  -29.4871   24.6195 C   0  0  0  0  0  0  0  0  0  0  0  0
  -25.8215  -28.2400   26.1671 C   0  0  0  0  0  0  0  0  0  0  0  0
  -25.1772  -30.5048   25.3436 C   0  0  0  0  0  0  0  0  0  0  0  0
  -21.1100  -26.1483   21.9746 C   0  0  0  0  0  0  0  0  0  0  0  0
  -28.6513  -22.2224   22.0502 C   0  0  0  0  0  0  0  0  0  0  0  0
  -25.1034  -28.5405   23.7535 C   0  0  1  0  0  0  0  0  0  0  0  0
  -21.6897  -26.9721   24.2602 C   0  0  2  0  0  0  0  0  0  0  0  0
  -25.8682  -29.1824   24.9454 C   0  0  0  0  0  0  0  0  0  0  0  0
  -25.3065  -12.0529   21.9304 N   0  0  0  0  0  0  0  0  0  0  0  0
  -28.1018  -19.9663   21.7569 N   0  0  0  0  0  0  0  0  0  0  0  0
  -26.1574  -12.9605   21.4220 N   0  0  0  0  0  0  0  0  0  0  0  0
  -25.7259  -28.8427   21.3776 N   0  0  0  0  0  0  0  0  0  0  0  0
  -26.5691  -16.2602   23.2999 N   0  0  0  0  0  0  0  0  0  0  0  0
  -27.1973  -13.6559   19.4107 N   0  0  0  0  0  0  0  0  0  0  0  0
  -24.6806  -10.1353   18.1193 N   0  0  0  0  0  0  0  0  0  0  0  0
  -27.4731  -17.6719   21.6409 N   0  0  0  0  0  0  0  0  0  0  0  0
  -27.5779  -31.4567   19.8070 N   0  0  0  0  0  0  0  0  0  0  0  0
  -23.6965  -28.2659   24.0247 N   0  0  0  0  0  0  0  0  0  0  0  0
  -31.4466  -23.6616   18.7127 N   0  3  0  0  0  0  0  0  0  0  0  0
  -20.9884  -25.9436   23.4410 N   0  3  0  0  0  0  0  0  0  0  0  0
  -26.1583  -11.7328   17.3960 O   0  0  0  0  0  0  0  0  0  0  0  0
  -28.2380  -29.4655   20.8177 O   0  0  0  0  0  0  0  0  0  0  0  0
  -24.6446  -30.5375   22.5586 O   0  0  0  0  0  0  0  0  0  0  0  0
  -23.7968  -25.9873   23.6063 O   0  0  0  0  0  0  0  0  0  0  0  0
  -27.0227  -18.4778   23.7692 O   0  0  0  0  0  0  0  0  0  0  0  0
  -21.4088   -7.0451   21.4028 O   0  0  0  0  0  0  0  0  0  0  0  0
  -27.8406  -23.7474   18.6025 O   0  0  0  0  0  0  0  0  0  1  0  0
  -22.1422   -3.6227   25.6635 F   0  0  0  0  0  0  0  0  0  0  0  0
  -21.8910   -4.3539   20.9936 F   0  0  0  0  0  0  0  0  0  0  0  0
  1  2  1  0  0  0  0
  1  5  2  0  0  0  0
  2  6  2  0  0  0  0
  3  8  2  0  0  0  0
  3 16  1  0  0  0  0
  4  9  1  0  0  0  0
  4 16  2  0  0  0  0
  5 18  1  0  0  0  0
  6 20  1  0  0  0  0
  7 10  2  0  0  0  0
  7 19  1  0  0  0  0
  8 24  1  0  0  0  0
  9 24  2  0  0  0  0
 10 25  1  0  0  0  0
 11 12  2  0  0  0  0
 11 26  1  0  0  0  0
 12 27  1  0  0  0  0
 13 21  1  0  0  0  0
 13 25  2  0  0  0  0
 14 22  1  0  0  0  0
 14 31  2  0  0  0  0
 15 27  2  0  0  0  0
 15 28  1  0  0  0  0
 16 29  1  0  0  0  0
 17 29  1  0  0  0  0
 17 32  2  0  0  0  0
 17 33  1  0  0  0  0
 18 20  2  0  0  0  0
 18 38  1  0  0  0  0
 19 21  2  0  0  0  0
 19 39  1  0  0  0  0
 20 51  1  0  0  0  0
 21 41  1  0  0  0  0
 22 23  2  0  0  0  0
 22 40  1  0  0  0  0
 23 30  1  0  0  0  0
 23 55  1  0  0  0  0
 24 84  1  0  0  0  0
 25 85  1  0  0  0  0
 26 28  2  0  0  0  0
 26 84  1  0  0  0  0
 27 86  1  0  0  0  0
 28 87  1  0  0  0  0
 29 67  2  0  0  0  0
 30 63  1  0  0  0  0
 30 68  2  0  0  0  0
 31 68  1  0  0  0  0
 31 74  1  0  0  0  0
 32 69  1  0  0  0  0
 32 72  1  0  0  0  0
 33 73  1  0  0  0  0
 33 79  2  0  0  0  0
 34 52  1  0  0  0  0
 34 75  1  0  0  0  0
 34 80  2  0  0  0  0
 35 64  1  0  0  0  0
 35 70  1  0  0  0  0
 35 81  2  0  0  0  0
 36 65  1  0  0  0  0
 36 76  1  0  0  0  0
 36 82  2  0  0  0  0
 37 71  1  0  0  0  0
 37 74  1  0  0  0  0
 37 83  2  0  0  0  0
 38 42  1  0  0  0  0
 39 52  1  0  0  0  0
 40 43  1  0  0  0  0
 41 70  1  0  0  0  0
 42 45  1  0  0  0  0
 43 55  1  0  0  0  0
 44 46  1  0  0  0  0
 44 47  1  0  0  0  0
 45 51  1  0  0  0  0
 46 53  1  0  0  0  0
 47 71  1  0  0  0  0
 48 53  1  0  0  0  0
 48 71  1  0  0  0  0
 49 54  1  0  0  0  0
 49 77  1  0  0  0  0
 50 55  1  0  0  0  0
 50 77  1  0  0  0  0
 51 75  1  0  0  0  0
 52 70  1  0  0  0  0
 53 69  1  0  0  0  0
 54 55  1  0  0  0  0
 54 85  1  0  0  0  0
 56 63  1  0  0  0  0
 57 63  1  0  0  0  0
 58 65  1  0  0  0  0
 59 66  1  0  0  0  0
 60 66  1  0  0  0  0
 61 66  1  0  0  0  0
 62 78  1  0  0  0  0
 64 66  1  0  0  0  0
 64 76  1  0  0  0  0
 65 78  1  0  0  0  0
 67 69  1  0  0  0  0
M  CHG  2  77   1  78   1
M  ISO  4  37 100  54 101  74 100  85 101
M  END
> <Batch ID>
0145

> <Smiles>
CNC(C)C(=O)NC(C(=O)N1Cc2cc([101O:1][101CH:1]3CNCC34CCc3cc([100NH:0][100C:0](=O)N5CCCC(n6nc(-c7ccc(Oc8ccc(F)cc8F)cc7)c(C(N)=O)c6N)C5)nc(C(C)C)c34)ccc2CC1C(=O)NC1CCCc2ccccc21)C(C)(C)C

> <Shape>
0.260

> <Color>
0.087

> <Negative vol penalty>
0.000

$$$$

  -OEChem-04052321283D

 86 95  0     1  0  0  0  0  0999 V2000
  -27.9191  -10.6654   19.8051 C   0  0  0  0  0  0  0  0  0  0  0  0
  -28.2950  -11.8753   19.2305 C   0  0  0  0  0  0  0  0  0  0  0  0
  -22.3370  -27.2741   26.2961 C   0  0  0  0  0  0  0  0  0  0  0  0
  -21.2745  -26.5423   24.2534 C   0  0  0  0  0  0  0  0  0  0  0  0
  -26.6646  -10.5373   20.3998 C   0  0  0  0  0  0  0  0  0  0  0  0
  -27.4160  -12.9576   19.2492 C   0  0  0  0  0  0  0  0  0  0  0  0
  -29.6964  -17.2901   20.5432 C   0  0  0  0  0  0  0  0  0  0  0  0
  -21.6545  -26.2857   27.0052 C   0  0  0  0  0  0  0  0  0  0  0  0
  -20.5920  -25.5539   24.9625 C   0  0  0  0  0  0  0  0  0  0  0  0
  -30.4519  -17.9299   19.5615 C   0  0  0  0  0  0  0  0  0  0  0  0
  -21.9272  -22.9559   27.5263 C   0  0  0  0  0  0  0  0  0  0  0  0
  -22.6523  -22.2031   28.4499 C   0  0  0  0  0  0  0  0  0  0  0  0
  -30.9937  -22.7440   17.4156 C   0  0  0  0  0  0  0  0  0  0  0  0
  -28.6217  -19.4467   19.1502 C   0  0  0  0  0  0  0  0  0  0  0  0
  -32.8044  -22.7668   19.0149 C   0  0  0  0  0  0  0  0  0  0  0  0
  -21.1936  -22.9674   30.2178 C   0  0  0  0  0  0  0  0  0  0  0  0
  -22.1470  -27.4025   24.9202 C   0  0  0  0  0  0  0  0  0  0  0  0
  -22.7814  -29.8153   24.3880 C   0  0  0  0  0  0  0  0  0  0  0  0
  -25.7735  -11.6215   20.4343 C   0  0  0  0  0  0  0  0  0  0  0  0
  -28.3917  -17.7176   20.8286 C   0  0  0  0  0  0  0  0  0  0  0  0
  -26.1478  -12.8436   19.8437 C   0  0  0  0  0  0  0  0  0  0  0  0
  -30.5127  -23.9424   17.9430 C   0  0  0  0  0  0  0  0  0  0  0  0
  -27.8527  -18.8123   20.1377 C   0  0  0  0  0  0  0  0  0  0  0  0
  -32.1395  -22.1562   17.9516 C   0  0  0  0  0  0  0  0  0  0  0  0
  -32.3234  -23.9652   19.5424 C   0  0  0  0  0  0  0  0  0  0  0  0
  -20.7820  -25.4255   26.3385 C   0  0  0  0  0  0  0  0  0  0  0  0
  -29.9135  -19.0065   18.8628 C   0  0  0  0  0  0  0  0  0  0  0  0
  -20.8354  -23.7145   27.9484 C   0  0  0  0  0  0  0  0  0  0  0  0
  -31.1776  -24.5530   19.0064 C   0  0  0  0  0  0  0  0  0  0  0  0
  -22.2855  -22.2088   29.7957 C   0  0  0  0  0  0  0  0  0  0  0  0
  -20.4686  -23.7202   29.2941 C   0  0  0  0  0  0  0  0  0  0  0  0
  -22.8512  -28.4236   24.1873 C   0  0  0  0  0  0  0  0  0  0  0  0
  -23.6300  -30.3412   23.4447 C   0  0  0  0  0  0  0  0  0  0  0  0
  -22.0179  -30.5655   25.3418 C   0  0  0  0  0  0  0  0  0  0  0  0
  -25.5084  -16.3909   20.6564 C   0  0  0  0  0  0  0  0  0  0  0  0
  -24.5817  -19.1487   22.0911 C   0  0  0  0  0  0  0  0  0  0  0  0
  -25.2172  -22.4419   22.7219 C   0  0  0  0  0  0  0  0  0  0  0  0
  -28.3609  -28.0937   20.7202 C   0  0  0  0  0  0  0  0  0  0  0  0
  -24.4098  -11.4211   21.0466 C   0  0  0  0  0  0  0  0  0  0  0  0
  -27.5996  -17.0338   21.9091 C   0  0  0  0  0  0  0  0  0  0  0  0
  -26.4643  -19.3229   20.4205 C   0  0  0  0  0  0  0  0  0  0  0  0
  -23.6829  -12.7275   21.3555 C   0  0  0  0  0  0  0  0  0  0  0  0
  -25.4187  -29.4388   19.0980 C   0  0  0  0  0  0  0  0  0  0  0  0
  -28.1216  -24.8674   18.2605 C   0  0  0  0  0  0  0  0  0  0  0  0
  -28.0228  -23.7393   17.2818 C   0  0  0  0  0  0  0  0  0  0  0  0
  -23.7738  -13.6823   20.1695 C   0  0  0  0  0  0  0  0  0  0  0  0
  -24.4171  -29.4604   20.2540 C   0  0  0  0  0  0  0  0  0  0  0  0
  -26.3181  -28.2083   19.1688 C   0  0  0  0  0  0  0  0  0  0  0  0
  -26.0497  -28.0740   21.6149 C   0  0  0  0  0  0  0  0  0  0  0  0
  -29.2849  -24.5566   17.3568 C   0  0  0  0  0  0  0  0  0  0  0  0
  -25.2318  -14.0479   19.8659 C   0  0  1  0  0  0  0  0  0  0  0  0
  -26.0938  -17.2269   21.7591 C   0  0  1  0  0  0  0  0  0  0  0  0
  -25.1260  -29.3056   21.6126 C   0  0  2  0  0  0  0  0  0  0  0  0
  -33.0487  -24.6034   20.6812 C   0  0  0  0  0  0  0  0  0  0  0  0
  -24.2591  -24.4438   23.8930 C   0  0  0  0  0  0  0  0  0  0  0  0
  -22.5524  -19.4920   19.8386 C   0  0  0  0  0  0  0  0  0  0  0  0
  -22.3125  -21.8908   20.5144 C   0  0  0  0  0  0  0  0  0  0  0  0
  -21.6950  -20.0786   22.1136 C   0  0  0  0  0  0  0  0  0  0  0  0
  -27.5638  -22.6628   24.5117 C   0  0  0  0  0  0  0  0  0  0  0  0
  -32.6609  -20.8603   17.3796 C   0  0  0  0  0  0  0  0  0  0  0  0
  -30.6131  -28.1211   19.6792 C   0  0  0  0  0  0  0  0  0  0  0  0
  -32.0655  -19.6395   18.0726 C   0  0  0  0  0  0  0  0  0  1  0  0
  -31.2044  -26.9303   18.9461 C   0  0  0  0  0  0  0  0  0  0  0  0
  -24.1348  -20.5073   21.6081 C   0  0  1  0  0  0  0  0  0  0  0  0
  -25.1872  -23.2448   24.0098 C   0  0  2  0  0  0  0  0  0  0  0  0
  -22.6992  -20.4816   21.0117 C   0  0  0  0  0  0  0  0  0  0  0  0
  -23.6786  -28.0867   23.1943 N   0  0  0  0  0  0  0  0  0  0  0  0
  -24.1365  -29.2742   22.7626 N   0  0  0  0  0  0  0  0  0  0  0  0
  -25.7271  -18.6172   21.4816 N   0  0  0  0  0  0  0  0  0  0  0  0
  -26.9772  -28.1298   20.4801 N   0  0  0  0  0  0  0  0  0  0  0  0
  -23.9848  -31.6077   23.1403 N   0  0  0  0  0  0  0  0  0  0  0  0
  -20.7287  -30.9838   24.9851 N   0  0  0  0  0  0  0  0  0  0  0  0
  -25.7130  -15.0330   20.8106 N   0  0  0  0  0  0  0  0  0  0  0  0
  -24.2963  -21.4157   22.7382 N   0  0  0  0  0  0  0  0  0  0  0  0
  -29.1699  -28.1437   19.5916 N   0  0  0  0  0  0  0  0  0  0  0  0
  -26.5530  -23.7385   24.3443 N   0  3  0  0  0  0  0  0  0  0  0  0
  -22.4719  -30.8704   26.4708 O   0  0  0  0  0  0  0  0  0  0  0  0
  -24.9137  -16.9372   19.7346 O   0  0  0  0  0  0  0  0  0  0  0  0
  -23.9424  -18.5830   22.9816 O   0  0  0  0  0  0  0  0  0  0  0  0
  -25.9786  -22.7014   21.7927 O   0  0  0  0  0  0  0  0  0  0  0  0
  -28.8404  -28.0272   21.8572 O   0  0  0  0  0  0  0  0  0  0  0  0
  -20.1161  -24.4608   27.0300 O   0  0  0  0  0  0  0  0  0  0  0  0
  -30.6485  -19.6324   17.9036 O   0  0  0  0  0  0  0  0  0  1  0  0
  -30.7086  -25.7250   19.5233 O   0  0  0  0  0  0  0  0  0  0  0  0
  -22.9809  -21.4846   30.6823 F   0  0  0  0  0  0  0  0  0  0  0  0
  -19.4199  -24.4461   29.7054 F   0  0  0  0  0  0  0  0  0  0  0  0
  1  2  1  0  0  0  0
  1  5  2  0  0  0  0
  2  6  2  0  0  0  0
  3  8  2  0  0  0  0
  3 17  1  0  0  0  0
  4  9  1  0  0  0  0
  4 17  2  0  0  0  0
  5 19  1  0  0  0  0
  6 21  1  0  0  0  0
  7 10  2  0  0  0  0
  7 20  1  0  0  0  0
  8 26  1  0  0  0  0
  9 26  2  0  0  0  0
 10 27  1  0  0  0  0
 11 12  2  0  0  0  0
 11 28  1  0  0  0  0
 12 30  1  0  0  0  0
 13 22  1  0  0  0  0
 13 24  2  0  0  0  0
 14 23  1  0  0  0  0
 14 27  2  0  0  0  0
 15 24  1  0  0  0  0
 15 25  2  0  0  0  0
 16 30  2  0  0  0  0
 16 31  1  0  0  0  0
 17 32  1  0  0  0  0
 18 32  1  0  0  0  0
 18 33  2  0  0  0  0
 18 34  1  0  0  0  0
 19 21  2  0  0  0  0
 19 39  1  0  0  0  0
 20 23  2  0  0  0  0
 20 40  1  0  0  0  0
 21 51  1  0  0  0  0
 22 29  2  0  0  0  0
 22 50  1  0  0  0  0
 23 41  1  0  0  0  0
 24 60  1  0  0  0  0
 25 29  1  0  0  0  0
 25 54  1  0  0  0  0
 26 82  1  0  0  0  0
 27 83  1  0  0  0  0
 28 31  2  0  0  0  0
 28 82  1  0  0  0  0
 29 84  1  0  0  0  0
 30 85  1  0  0  0  0
 31 86  1  0  0  0  0
 32 67  2  0  0  0  0
 33 68  1  0  0  0  0
 33 71  1  0  0  0  0
 34 72  1  0  0  0  0
 34 77  2  0  0  0  0
 35 52  1  0  0  0  0
 35 73  1  0  0  0  0
 35 78  2  0  0  0  0
 36 64  1  0  0  0  0
 36 69  1  0  0  0  0
 36 79  2  0  0  0  0
 37 65  1  0  0  0  0
 37 74  1  0  0  0  0
 37 80  2  0  0  0  0
 38 70  1  0  0  0  0
 38 75  1  0  0  0  0
 38 81  2  0  0  0  0
 39 42  1  0  0  0  0
 40 52  1  0  0  0  0
 41 69  1  0  0  0  0
 42 46  1  0  0  0  0
 43 47  1  0  0  0  0
 43 48  1  0  0  0  0
 44 45  1  0  0  0  0
 44 50  1  0  0  0  0
 45 50  1  0  0  0  0
 46 51  1  0  0  0  0
 47 53  1  0  0  0  0
 48 70  1  0  0  0  0
 49 53  1  0  0  0  0
 49 70  1  0  0  0  0
 51 73  1  0  0  0  0
 52 69  1  0  0  0  0
 53 68  1  0  0  0  0
 55 65  1  0  0  0  0
 56 66  1  0  0  0  0
 57 66  1  0  0  0  0
 58 66  1  0  0  0  0
 59 76  1  0  0  0  0
 60 62  1  0  0  0  0
 61 63  1  0  0  0  0
 61 75  1  0  0  0  0
 62 83  1  0  0  0  0
 63 84  1  0  0  0  0
 64 66  1  0  0  0  0
 64 74  1  0  0  0  0
 65 76  1  0  0  0  0
 67 68  1  0  0  0  0
M  CHG  1  76   1
M  ISO  4  38 100  62 101  75 100  83 101
M  END
> <Batch ID>
0145

> <Smiles>
CNC(C)C(=O)NC(C(=O)N1Cc2cc([101O:1][101CH2:1]Cc3cc(C)c(OCC[100NH:0][100C:0](=O)N4CCCC(n5nc(-c6ccc(Oc7ccc(F)cc7F)cc6)c(C(N)=O)c5N)C4)c(C4CC4)c3)ccc2CC1C(=O)NC1CCCc2ccccc21)C(C)(C)C

> <Shape>
0.200

> <Color>
0.080

> <Negative vol penalty>
0.000

$$$$

  -OEChem-04052321283D

 86 95  0     1  0  0  0  0  0999 V2000
  -28.6074  -10.9015   16.9129 C   0  0  0  0  0  0  0  0  0  0  0  0
  -27.6738  -11.8399   16.4848 C   0  0  0  0  0  0  0  0  0  0  0  0
  -18.0312  -21.8312   19.5976 C   0  0  0  0  0  0  0  0  0  0  0  0
  -20.3814  -22.0591   19.0860 C   0  0  0  0  0  0  0  0  0  0  0  0
  -29.2592  -11.0749   18.1331 C   0  0  0  0  0  0  0  0  0  0  0  0
  -27.3906  -12.9517   17.2773 C   0  0  0  0  0  0  0  0  0  0  0  0
  -27.7803  -20.5591   15.5446 C   0  0  0  0  0  0  0  0  0  0  0  0
  -17.8453  -21.1061   18.4206 C   0  0  0  0  0  0  0  0  0  0  0  0
  -20.1955  -21.3339   17.9091 C   0  0  0  0  0  0  0  0  0  0  0  0
  -27.9614  -21.9354   15.4066 C   0  0  0  0  0  0  0  0  0  0  0  0
  -18.3744  -17.9497   17.3297 C   0  0  0  0  0  0  0  0  0  0  0  0
  -17.6059  -16.7878   17.3988 C   0  0  0  0  0  0  0  0  0  0  0  0
  -28.3067  -22.1400   17.7913 C   0  0  0  0  0  0  0  0  0  0  0  0
  -16.0525  -17.7202   15.8004 C   0  0  0  0  0  0  0  0  0  0  0  0
  -19.2993  -22.3078   19.9303 C   0  0  0  0  0  0  0  0  0  0  0  0
  -19.8181  -22.5472   22.4164 C   0  0  0  0  0  0  0  0  0  0  0  0
  -28.9909  -12.1943   18.9366 C   0  0  0  0  0  0  0  0  0  0  0  0
  -27.8771  -19.9651   16.8061 C   0  0  0  0  0  0  0  0  0  0  0  0
  -28.0384  -13.1395   18.5101 C   0  0  0  0  0  0  0  0  0  0  0  0
  -28.1386  -20.7601   17.9341 C   0  0  0  0  0  0  0  0  0  0  0  0
  -18.9275  -20.8574   17.5764 C   0  0  0  0  0  0  0  0  0  0  0  0
  -28.2237  -22.7239   16.5272 C   0  0  0  0  0  0  0  0  0  0  0  0
  -17.9820  -18.9970   16.4960 C   0  0  0  0  0  0  0  0  0  0  0  0
  -16.4450  -16.6730   16.6341 C   0  0  0  0  0  0  0  0  0  0  0  0
  -16.8211  -18.8822   15.7314 C   0  0  0  0  0  0  0  0  0  0  0  0
  -19.4918  -23.0574   21.1456 C   0  0  0  0  0  0  0  0  0  0  0  0
  -19.8873  -23.6560   23.2241 C   0  0  0  0  0  0  0  0  0  0  0  0
  -20.0389  -21.1922   22.8298 C   0  0  0  0  0  0  0  0  0  0  0  0
  -27.7402  -16.8086   18.8293 C   0  0  0  0  0  0  0  0  0  0  0  0
  -30.0572  -18.4817   19.9441 C   0  0  0  0  0  0  0  0  0  0  0  0
  -32.7760  -20.4352   20.5990 C   0  0  0  0  0  0  0  0  0  0  0  0
  -20.9898  -29.4379   22.1264 C   0  0  0  0  0  0  0  0  0  0  0  0
  -29.6858  -12.3144   20.2698 C   0  0  0  0  0  0  0  0  0  0  0  0
  -27.6283  -18.4953   17.0102 C   0  0  0  0  0  0  0  0  0  0  0  0
  -28.1996  -20.0827   19.2759 C   0  0  0  0  0  0  0  0  0  0  0  0
  -29.6036  -13.7131   20.8757 C   0  0  0  0  0  0  0  0  0  0  0  0
  -18.0974  -28.0688   23.6873 C   0  0  0  0  0  0  0  0  0  0  0  0
  -28.1782  -14.2494   20.7892 C   0  0  0  0  0  0  0  0  0  0  0  0
  -25.9266  -29.7787   21.8778 C   0  0  0  0  0  0  0  0  0  0  0  0
  -24.7856  -31.3506   20.2608 C   0  0  0  0  0  0  0  0  0  0  0  0
  -28.9085  -26.6147   19.0993 C   0  0  0  0  0  0  0  0  0  0  0  0
  -26.5809  -26.8573   18.1406 C   0  0  0  0  0  0  0  0  0  0  0  0
  -18.1562  -26.5832   23.3276 C   0  0  0  0  0  0  0  0  0  0  0  0
  -24.6552  -28.9329   21.9562 C   0  0  0  0  0  0  0  0  0  0  0  0
  -23.5119  -30.5081   20.3370 C   0  0  0  0  0  0  0  0  0  0  0  0
  -29.2581  -25.6264   17.9908 C   0  0  0  0  0  0  0  0  0  0  0  0
  -26.9367  -25.8678   17.0350 C   0  0  0  0  0  0  0  0  0  0  0  0
  -18.5976  -28.9469   22.5425 C   0  0  0  0  0  0  0  0  0  0  0  0
  -19.9966  -27.1128   21.6749 C   0  0  0  0  0  0  0  0  0  0  0  0
  -27.7223  -14.3714   19.3302 C   0  0  1  0  0  0  0  0  0  0  0  0
  -28.5074  -17.8822   18.1151 C   0  0  1  0  0  0  0  0  0  0  0  0
  -27.8210  -27.6022   18.6537 C   0  0  0  0  0  0  0  0  0  0  0  0
  -26.0597  -30.5456   20.5543 C   0  0  0  0  0  0  0  0  0  0  0  0
  -19.5546  -26.1843   22.8190 C   0  0  2  0  0  0  0  0  0  0  0  0
  -23.4069  -29.7717   21.6736 C   0  0  0  0  0  0  0  0  0  0  0  0
  -28.0221  -24.8902   17.4808 C   0  0  0  0  0  0  0  0  0  1  0  0
  -34.7825  -20.5795   22.0992 C   0  0  0  0  0  0  0  0  0  0  0  0
  -26.9599  -30.4338   18.2203 C   0  0  0  0  0  0  0  0  0  0  0  0
  -28.2687  -19.3876   22.2429 C   0  0  0  0  0  0  0  0  0  0  0  0
  -30.2897  -20.3941   23.3249 C   0  0  0  0  0  0  0  0  0  0  0  0
  -30.1868  -17.9343   22.9233 C   0  0  0  0  0  0  0  0  0  0  0  0
  -34.6434  -20.3197   18.3059 C   0  0  0  0  0  0  0  0  0  0  0  0
  -27.4490  -28.5460   19.7957 C   0  0  0  0  0  0  0  0  0  0  0  0
  -30.5081  -19.4979   20.9626 C   0  0  1  0  0  0  0  0  0  0  0  0
  -34.2462  -20.0940   20.7615 C   0  0  2  0  0  0  0  0  0  0  0  0
  -26.4196  -29.6136   19.3941 C   0  0  1  0  0  0  0  0  0  0  0  0
  -29.8056  -19.3112   22.3371 C   0  0  0  0  0  0  0  0  0  0  0  0
  -19.3625  -24.3868   21.1413 N   0  0  0  0  0  0  0  0  0  0  0  0
  -19.6087  -24.7214   22.4194 N   0  0  0  0  0  0  0  0  0  0  0  0
  -28.9422  -18.8173   19.1665 N   0  0  0  0  0  0  0  0  0  0  0  0
  -19.9290  -28.5173   22.1080 N   0  0  0  0  0  0  0  0  0  0  0  0
  -20.1585  -23.8138   24.5371 N   0  0  0  0  0  0  0  0  0  0  0  0
  -19.9283  -20.1750   21.8721 N   0  0  0  0  0  0  0  0  0  0  0  0
  -28.2981  -15.5493   18.7175 N   0  0  0  0  0  0  0  0  0  0  0  0
  -31.9629  -19.4032   21.0173 N   0  0  0  0  0  0  0  0  0  0  0  0
  -22.2195  -28.9472   21.7049 N   0  0  0  0  0  0  0  0  0  0  0  0
  -35.0479  -20.7267   19.6762 N   0  3  0  0  0  0  0  0  0  0  0  0
  -20.3098  -20.8909   24.0170 O   0  0  0  0  0  0  0  0  0  0  0  0
  -26.7179  -17.1001   19.4388 O   0  0  0  0  0  0  0  0  0  0  0  0
  -30.6716  -17.4161   19.8424 O   0  0  0  0  0  0  0  0  0  0  0  0
  -32.3877  -21.5113   20.1497 O   0  0  0  0  0  0  0  0  0  0  0  0
  -20.8523  -30.6088   22.4965 O   0  0  0  0  0  0  0  0  0  0  0  0
  -18.7465  -20.1496   16.4280 O   0  0  0  0  0  0  0  0  0  0  0  0
  -28.4039  -24.0663   16.3847 O   0  0  0  0  0  0  0  0  0  1  0  0
  -15.7079  -15.5564   16.6994 F   0  0  0  0  0  0  0  0  0  0  0  0
  -16.4396  -19.8844   14.9277 F   0  0  0  0  0  0  0  0  0  0  0  0
  1  2  1  0  0  0  0
  1  5  2  0  0  0  0
  2  6  2  0  0  0  0
  3  8  2  0  0  0  0
  3 15  1  0  0  0  0
  4  9  1  0  0  0  0
  4 15  2  0  0  0  0
  5 17  1  0  0  0  0
  6 19  1  0  0  0  0
  7 10  2  0  0  0  0
  7 18  1  0  0  0  0
  8 21  1  0  0  0  0
  9 21  2  0  0  0  0
 10 22  1  0  0  0  0
 11 12  2  0  0  0  0
 11 23  1  0  0  0  0
 12 24  1  0  0  0  0
 13 20  1  0  0  0  0
 13 22  2  0  0  0  0
 14 24  2  0  0  0  0
 14 25  1  0  0  0  0
 15 26  1  0  0  0  0
 16 26  1  0  0  0  0
 16 27  2  0  0  0  0
 16 28  1  0  0  0  0
 17 19  2  0  0  0  0
 17 33  1  0  0  0  0
 18 20  2  0  0  0  0
 18 34  1  0  0  0  0
 19 50  1  0  0  0  0
 20 35  1  0  0  0  0
 21 83  1  0  0  0  0
 22 84  1  0  0  0  0
 23 25  2  0  0  0  0
 23 83  1  0  0  0  0
 24 85  1  0  0  0  0
 25 86  1  0  0  0  0
 26 68  2  0  0  0  0
 27 69  1  0  0  0  0
 27 72  1  0  0  0  0
 28 73  1  0  0  0  0
 28 78  2  0  0  0  0
 29 51  1  0  0  0  0
 29 74  1  0  0  0  0
 29 79  2  0  0  0  0
 30 64  1  0  0  0  0
 30 70  1  0  0  0  0
 30 80  2  0  0  0  0
 31 65  1  0  0  0  0
 31 75  1  0  0  0  0
 31 81  2  0  0  0  0
 32 71  1  0  0  0  0
 32 76  1  0  0  0  0
 32 82  2  0  0  0  0
 33 36  1  0  0  0  0
 34 51  1  0  0  0  0
 35 70  1  0  0  0  0
 36 38  1  0  0  0  0
 37 43  1  0  0  0  0
 37 48  1  0  0  0  0
 38 50  1  0  0  0  0
 39 44  1  0  0  0  0
 39 53  1  0  0  0  0
 40 45  1  0  0  0  0
 40 53  1  0  0  0  0
 41 46  1  0  0  0  0
 41 52  1  0  0  0  0
 42 47  1  0  0  0  0
 42 52  1  0  0  0  0
 43 54  1  0  0  0  0
 44 55  1  0  0  0  0
 45 55  1  0  0  0  0
 46 56  1  0  0  0  0
 47 56  1  0  0  0  0
 48 71  1  0  0  0  0
 49 54  1  0  0  0  0
 49 71  1  0  0  0  0
 50 74  1  0  0  0  0
 51 70  1  0  0  0  0
 52 63  1  0  0  0  0
 53 66  1  0  0  0  0
 54 69  1  0  0  0  0
 55 76  1  0  0  0  0
 56 84  1  0  0  0  0
 57 65  1  0  0  0  0
 58 66  1  0  0  0  0
 59 67  1  0  0  0  0
 60 67  1  0  0  0  0
 61 67  1  0  0  0  0
 62 77  1  0  0  0  0
 63 66  1  0  0  0  0
 64 67  1  0  0  0  0
 64 75  1  0  0  0  0
 65 77  1  0  0  0  0
 68 69  1  0  0  0  0
M  CHG  1  77   1
M  ISO  4  32 100  56 101  76 100  84 101
M  END
> <Batch ID>
0145

> <Smiles>
CNC(C)C(=O)NC(C(=O)N1Cc2cc([101O:1][101CH:1]3CCC(CC(C)C4CCC([100NH:0][100C:0](=O)N5CCCC(n6nc(-c7ccc(Oc8ccc(F)cc8F)cc7)c(C(N)=O)c6N)C5)CC4)CC3)ccc2CC1C(=O)NC1CCCc2ccccc21)C(C)(C)C

> <Shape>
0.197

> <Color>
0.069

> <Negative vol penalty>
0.000

$$$$

  -OEChem-04052321283D

 89 98  0     1  0  0  0  0  0999 V2000
  -16.1894  -20.4545   29.2277 C   0  0  0  0  0  0  0  0  0  0  0  0
  -17.4062  -20.4983   28.5547 C   0  0  0  0  0  0  0  0  0  0  0  0
  -22.9316  -10.0248   20.1720 C   0  0  0  0  0  0  0  0  0  0  0  0
  -23.6892  -10.1672   22.4617 C   0  0  0  0  0  0  0  0  0  0  0  0
  -15.1324  -21.2608   28.8076 C   0  0  0  0  0  0  0  0  0  0  0  0
  -17.5663  -21.3477   27.4605 C   0  0  0  0  0  0  0  0  0  0  0  0
  -21.9494  -23.8808   27.5923 C   0  0  0  0  0  0  0  0  0  0  0  0
  -22.1060   -8.9531   20.5118 C   0  0  0  0  0  0  0  0  0  0  0  0
  -22.8636   -9.0954   22.8016 C   0  0  0  0  0  0  0  0  0  0  0  0
  -23.0974  -23.1869   27.2125 C   0  0  0  0  0  0  0  0  0  0  0  0
  -19.1073   -8.4946   22.0053 C   0  0  0  0  0  0  0  0  0  0  0  0
  -17.8007   -8.5027   21.5173 C   0  0  0  0  0  0  0  0  0  0  0  0
  -26.9105  -19.5408   22.8799 C   0  0  0  0  0  0  0  0  0  0  0  0
  -22.9927  -24.2181   25.0342 C   0  0  0  0  0  0  0  0  0  0  0  0
  -25.1705  -20.6524   21.6328 C   0  0  0  0  0  0  0  0  0  0  0  0
  -18.2185   -6.4213   20.3639 C   0  0  0  0  0  0  0  0  0  0  0  0
  -23.7232  -10.6318   21.1470 C   0  0  0  0  0  0  0  0  0  0  0  0
  -24.2472  -13.1070   20.8206 C   0  0  0  0  0  0  0  0  0  0  0  0
  -15.2826  -22.1276   27.7136 C   0  0  0  0  0  0  0  0  0  0  0  0
  -21.3070  -24.7416   26.6908 C   0  0  0  0  0  0  0  0  0  0  0  0
  -16.5098  -22.1654   27.0245 C   0  0  0  0  0  0  0  0  0  0  0  0
  -27.6453  -19.3345   21.7023 C   0  0  0  0  0  0  0  0  0  0  0  0
  -21.8381  -24.9237   25.4059 C   0  0  0  0  0  0  0  0  0  0  0  0
  -27.1410  -19.8165   20.4810 C   0  0  0  0  0  0  0  0  0  0  0  0
  -25.8956  -20.4626   20.4569 C   0  0  0  0  0  0  0  0  0  0  0  0
  -22.0720   -8.4884   21.8266 C   0  0  0  0  0  0  0  0  0  0  0  0
  -23.6176  -23.3533   25.9323 C   0  0  0  0  0  0  0  0  0  0  0  0
  -19.9696   -7.4498   21.6726 C   0  0  0  0  0  0  0  0  0  0  0  0
  -25.6789  -20.1937   22.8442 C   0  0  0  0  0  0  0  0  0  0  0  0
  -17.3563   -7.4661   20.6966 C   0  0  0  0  0  0  0  0  0  0  0  0
  -19.5252   -6.4132   20.8519 C   0  0  0  0  0  0  0  0  0  0  0  0
  -24.5767  -11.7386   20.7965 C   0  0  0  0  0  0  0  0  0  0  0  0
  -25.3909  -13.7430   20.4035 C   0  0  0  0  0  0  0  0  0  0  0  0
  -23.0173  -13.7462   21.1874 C   0  0  0  0  0  0  0  0  0  0  0  0
  -18.4297  -24.8375   25.3433 C   0  0  0  0  0  0  0  0  0  0  0  0
  -19.4818  -27.6913   24.2157 C   0  0  0  0  0  0  0  0  0  0  0  0
  -22.1272  -29.6836   23.3915 C   0  0  0  0  0  0  0  0  0  0  0  0
  -30.9340  -14.3756   20.5417 C   0  0  0  0  0  0  0  0  0  0  0  0
  -14.0966  -22.9454   27.2672 C   0  0  0  0  0  0  0  0  0  0  0  0
  -20.0848  -25.5033   27.1247 C   0  0  0  0  0  0  0  0  0  0  0  0
  -28.9892  -18.6537   21.7885 C   0  0  0  0  0  0  0  0  0  0  0  0
  -27.8786  -19.6013   19.1840 C   0  0  0  0  0  0  0  0  0  0  0  0
  -21.1977  -25.8517   24.4073 C   0  0  0  0  0  0  0  0  0  0  0  0
  -14.4659  -24.0930   26.3307 C   0  0  0  0  0  0  0  0  0  0  0  0
  -29.3518  -19.2447   19.3775 C   0  0  0  0  0  0  0  0  0  0  0  0
  -29.6274  -11.8896   18.3532 C   0  0  0  0  0  0  0  0  0  0  0  0
  -15.4194  -23.6087   25.2430 C   0  0  0  0  0  0  0  0  0  0  0  0
  -28.1723  -11.7374   18.7999 C   0  0  0  0  0  0  0  0  0  0  0  0
  -30.5577  -12.1425   19.5375 C   0  0  0  0  0  0  0  0  0  0  0  0
  -28.7135  -13.1215   20.8468 C   0  0  0  0  0  0  0  0  0  0  0  0
  -16.7301  -23.0920   25.8485 C   0  0  1  0  0  0  0  0  0  0  0  0
  -19.2189  -25.9604   25.9548 C   0  0  1  0  0  0  0  0  0  0  0  0
  -29.5046  -18.1461   20.4335 C   0  0  1  0  0  0  0  0  0  0  0  0
  -27.7296  -12.9206   19.6815 C   0  0  2  0  0  0  0  0  0  0  0  0
  -25.1012  -22.4875   19.1831 C   0  0  0  0  0  0  0  0  0  0  0  0
  -23.9689  -20.2609   18.8440 C   0  0  0  0  0  0  0  0  0  0  0  0
  -22.6721  -31.9491   22.4599 C   0  0  0  0  0  0  0  0  0  0  0  0
  -18.7487  -26.7151   21.4194 C   0  0  0  0  0  0  0  0  0  0  0  0
  -20.1555  -28.5616   20.4817 C   0  0  0  0  0  0  0  0  0  0  0  0
  -18.1607  -29.1021   21.8785 C   0  0  0  0  0  0  0  0  0  0  0  0
  -23.5605  -30.4801   25.8553 C   0  0  0  0  0  0  0  0  0  0  0  0
  -30.9591  -17.6943   20.5457 C   0  0  0  0  0  0  0  0  0  0  0  0
  -31.1551  -16.6110   21.5969 C   0  0  0  0  0  0  0  0  0  0  0  0
  -24.9614  -21.4051   26.1665 C   0  0  0  0  0  0  0  0  0  1  0  0
  -25.7250  -20.5214   25.1992 C   0  0  0  0  0  0  0  0  0  0  0  0
  -25.2971  -20.9613   19.1797 C   0  0  0  0  0  0  0  0  0  0  0  0
  -20.2243  -28.1454   22.9823 C   0  0  1  0  0  0  0  0  0  0  0  0
  -22.4384  -31.1323   23.7213 C   0  0  2  0  0  0  0  0  0  0  0  0
  -19.3335  -28.1120   21.7084 C   0  0  0  0  0  0  0  0  0  0  0  0
  -25.8314  -11.5173   20.3956 N   0  0  0  0  0  0  0  0  0  0  0  0
  -26.3004  -12.7552   20.1639 N   0  0  0  0  0  0  0  0  0  0  0  0
  -20.0010  -26.5692   24.8768 N   0  0  0  0  0  0  0  0  0  0  0  0
  -30.0829  -13.2781   20.3319 N   0  0  0  0  0  0  0  0  0  0  0  0
  -25.6973  -15.0451   20.2220 N   0  0  0  0  0  0  0  0  0  0  0  0
  -21.9420  -12.9436   21.5923 N   0  0  0  0  0  0  0  0  0  0  0  0
  -17.5823  -24.1984   26.2281 N   0  0  0  0  0  0  0  0  0  0  0  0
  -20.7697  -29.4618   23.2957 N   0  0  0  0  0  0  0  0  0  0  0  0
  -30.4035  -15.4119   21.3002 N   0  0  0  0  0  0  0  0  0  0  0  0
  -23.6599  -31.2194   24.5706 N   0  3  0  0  0  0  0  0  0  0  0  0
  -22.8708  -14.9911   21.1412 O   0  0  0  0  0  0  0  0  0  0  0  0
  -18.5776  -24.5716   24.1562 O   0  0  0  0  0  0  0  0  0  0  0  0
  -18.4822  -28.3137   24.5833 O   0  0  0  0  0  0  0  0  0  0  0  0
  -23.0012  -28.8344   23.2311 O   0  0  0  0  0  0  0  0  0  0  0  0
  -32.0799  -14.4303   20.0824 O   0  0  0  0  0  0  0  0  0  0  0  0
  -21.2663   -7.4428   22.1585 O   0  0  0  0  0  0  0  0  0  0  0  0
  -24.7377  -22.6767   25.5588 O   0  0  0  0  0  0  0  0  0  1  0  0
  -24.9704  -20.3831   24.0015 O   0  0  0  0  0  0  0  0  0  0  0  0
  -16.1010   -7.4732   20.2292 F   0  0  0  0  0  0  0  0  0  0  0  0
  -20.3487   -5.4062   20.5298 F   0  0  0  0  0  0  0  0  0  0  0  0
  1  2  1  0  0  0  0
  1  5  2  0  0  0  0
  2  6  2  0  0  0  0
  3  8  2  0  0  0  0
  3 17  1  0  0  0  0
  4  9  1  0  0  0  0
  4 17  2  0  0  0  0
  5 19  1  0  0  0  0
  6 21  1  0  0  0  0
  7 10  2  0  0  0  0
  7 20  1  0  0  0  0
  8 26  1  0  0  0  0
  9 26  2  0  0  0  0
 10 27  1  0  0  0  0
 11 12  2  0  0  0  0
 11 28  1  0  0  0  0
 12 30  1  0  0  0  0
 13 22  2  0  0  0  0
 13 29  1  0  0  0  0
 14 23  1  0  0  0  0
 14 27  2  0  0  0  0
 15 25  1  0  0  0  0
 15 29  2  0  0  0  0
 16 30  2  0  0  0  0
 16 31  1  0  0  0  0
 17 32  1  0  0  0  0
 18 32  1  0  0  0  0
 18 33  2  0  0  0  0
 18 34  1  0  0  0  0
 19 21  2  0  0  0  0
 19 39  1  0  0  0  0
 20 23  2  0  0  0  0
 20 40  1  0  0  0  0
 21 51  1  0  0  0  0
 22 24  1  0  0  0  0
 22 41  1  0  0  0  0
 23 43  1  0  0  0  0
 24 25  2  0  0  0  0
 24 42  1  0  0  0  0
 25 66  1  0  0  0  0
 26 85  1  0  0  0  0
 27 86  1  0  0  0  0
 28 31  2  0  0  0  0
 28 85  1  0  0  0  0
 29 87  1  0  0  0  0
 30 88  1  0  0  0  0
 31 89  1  0  0  0  0
 32 70  2  0  0  0  0
 33 71  1  0  0  0  0
 33 74  1  0  0  0  0
 34 75  1  0  0  0  0
 34 80  2  0  0  0  0
 35 52  1  0  0  0  0
 35 76  1  0  0  0  0
 35 81  2  0  0  0  0
 36 67  1  0  0  0  0
 36 72  1  0  0  0  0
 36 82  2  0  0  0  0
 37 68  1  0  0  0  0
 37 77  1  0  0  0  0
 37 83  2  0  0  0  0
 38 73  1  0  0  0  0
 38 78  1  0  0  0  0
 38 84  2  0  0  0  0
 39 44  1  0  0  0  0
 40 52  1  0  0  0  0
 41 53  1  0  0  0  0
 42 45  1  0  0  0  0
 43 72  1  0  0  0  0
 44 47  1  0  0  0  0
 45 53  1  0  0  0  0
 46 48  1  0  0  0  0
 46 49  1  0  0  0  0
 47 51  1  0  0  0  0
 48 54  1  0  0  0  0
 49 73  1  0  0  0  0
 50 54  1  0  0  0  0
 50 73  1  0  0  0  0
 51 76  1  0  0  0  0
 52 72  1  0  0  0  0
 53 62  1  0  0  0  0
 54 71  1  0  0  0  0
 55 66  1  0  0  0  0
 56 66  1  0  0  0  0
 57 68  1  0  0  0  0
 58 69  1  0  0  0  0
 59 69  1  0  0  0  0
 60 69  1  0  0  0  0
 61 79  1  0  0  0  0
 62 63  1  0  0  0  0
 63 78  1  0  0  0  0
 64 65  1  0  0  0  0
 64 86  1  0  0  0  0
 65 87  1  0  0  0  0
 67 69  1  0  0  0  0
 67 77  1  0  0  0  0
 68 79  1  0  0  0  0
 70 71  1  0  0  0  0
M  CHG  1  79   1
M  ISO  4  38 100  64 101  78 100  86 101
M  END
> <Batch ID>
0145

> <Smiles>
CNC(C)C(=O)NC(C(=O)N1Cc2cc([101O:1][101CH2:1]COc3cc4c(c(C(C)C)c3)CCC(CC[100NH:0][100C:0](=O)N3CCCC(n5nc(-c6ccc(Oc7ccc(F)cc7F)cc6)c(C(N)=O)c5N)C3)C4)ccc2CC1C(=O)NC1CCCc2ccccc21)C(C)(C)C

> <Shape>
0.233

> <Color>
0.188

> <Negative vol penalty>
0.000

$$$$

  -OEChem-04052321283D

 90100  0     1  0  0  0  0  0999 V2000
  -31.6219  -23.7391   22.6801 C   0  0  0  0  0  0  0  0  0  0  0  0
  -31.2556  -22.4398   23.0165 C   0  0  0  0  0  0  0  0  0  0  0  0
  -27.7319  -23.2668   19.8711 C   0  0  0  0  0  0  0  0  0  0  0  0
  -29.9253  -23.8216   19.0236 C   0  0  0  0  0  0  0  0  0  0  0  0
  -31.5622  -24.7494   23.6390 C   0  0  0  0  0  0  0  0  0  0  0  0
  -30.8305  -22.1499   24.3125 C   0  0  0  0  0  0  0  0  0  0  0  0
  -26.7072  -19.2110   24.3926 C   0  0  0  0  0  0  0  0  0  0  0  0
  -27.5533  -24.5899   20.2749 C   0  0  0  0  0  0  0  0  0  0  0  0
  -29.7466  -25.1447   19.4272 C   0  0  0  0  0  0  0  0  0  0  0  0
  -26.8911  -17.8494   24.1561 C   0  0  0  0  0  0  0  0  0  0  0  0
  -26.7458  -27.5441   18.8418 C   0  0  0  0  0  0  0  0  0  0  0  0
  -25.5220  -28.1494   18.5561 C   0  0  0  0  0  0  0  0  0  0  0  0
  -26.7844  -17.4289   26.5291 C   0  0  0  0  0  0  0  0  0  0  0  0
  -25.1485  -28.5079   20.9160 C   0  0  0  0  0  0  0  0  0  0  0  0
  -28.9180  -22.8826   19.2455 C   0  0  0  0  0  0  0  0  0  0  0  0
  -28.7646  -20.9534   17.5835 C   0  0  0  0  0  0  0  0  0  0  0  0
  -31.1269  -24.4736   24.9448 C   0  0  0  0  0  0  0  0  0  0  0  0
  -26.5712  -19.6940   25.7021 C   0  0  0  0  0  0  0  0  0  0  0  0
  -30.7662  -23.1572   25.2902 C   0  0  0  0  0  0  0  0  0  0  0  0
  -26.5963  -18.7968   26.7794 C   0  0  0  0  0  0  0  0  0  0  0  0
  -28.5606  -25.5289   20.0529 C   0  0  0  0  0  0  0  0  0  0  0  0
  -26.9326  -16.9585   25.2246 C   0  0  0  0  0  0  0  0  0  0  0  0
  -27.1709  -27.4206   20.1646 C   0  0  0  0  0  0  0  0  0  0  0  0
  -24.7234  -28.6313   19.5932 C   0  0  0  0  0  0  0  0  0  0  0  0
  -26.3723  -27.9025   21.2016 C   0  0  0  0  0  0  0  0  0  0  0  0
  -29.1034  -21.5158   18.8288 C   0  0  0  0  0  0  0  0  0  0  0  0
  -29.1393  -19.6361   17.6884 C   0  0  0  0  0  0  0  0  0  0  0  0
  -28.1650  -21.5668   16.4347 C   0  0  0  0  0  0  0  0  0  0  0  0
  -28.2218  -21.6972   27.5368 C   0  0  0  0  0  0  0  0  0  0  0  0
  -25.7375  -21.2601   29.5764 C   0  0  0  0  0  0  0  0  0  0  0  0
  -23.1555  -19.2856   30.6160 C   0  0  0  0  0  0  0  0  0  0  0  0
  -29.0849  -14.9429   20.5734 C   0  0  0  0  0  0  0  0  0  0  0  0
  -31.1242  -25.5891   25.9599 C   0  0  0  0  0  0  0  0  0  0  0  0
  -26.3467  -21.1623   25.9387 C   0  0  0  0  0  0  0  0  0  0  0  0
  -26.4349  -19.2620   28.2028 C   0  0  0  0  0  0  0  0  0  0  0  0
  -30.3057  -25.2738   27.2092 C   0  0  0  0  0  0  0  0  0  0  0  0
  -31.9010  -17.2518   21.1662 C   0  0  0  0  0  0  0  0  0  0  0  0
  -30.6316  -23.8746   27.7219 C   0  0  0  0  0  0  0  0  0  0  0  0
  -21.0368  -11.8990   20.0566 C   0  0  0  0  0  0  0  0  0  0  0  0
  -20.3035  -13.1015   19.5314 C   0  0  0  0  0  0  0  0  0  0  0  0
  -31.3607  -18.5381   20.5485 C   0  0  0  0  0  0  0  0  0  0  0  0
  -29.1398  -11.9007   19.6806 C   0  0  0  0  0  0  0  0  0  0  0  0
  -30.0582  -11.3941   20.7512 C   0  0  0  0  0  0  0  0  0  0  0  0
  -30.7939  -16.4115   21.8013 C   0  0  0  0  0  0  0  0  0  0  0  0
  -29.1285  -17.3961   20.2516 C   0  0  0  0  0  0  0  0  0  0  0  0
  -24.4005  -13.8780   22.2115 C   0  0  0  0  0  0  0  0  0  0  0  0
  -24.8430  -13.3311   19.8058 C   0  0  0  0  0  0  0  0  0  0  0  0
  -30.2761  -22.8082   26.6788 C   0  0  1  0  0  0  0  0  0  0  0  0
  -26.7342  -21.6069   27.3457 C   0  0  1  0  0  0  0  0  0  0  0  0
  -21.8066  -13.0937   19.5658 C   0  0  0  0  0  0  0  0  0  0  0  0
  -25.6238  -13.0655   22.6525 C   0  0  1  0  0  0  0  0  0  0  0  0
  -26.6892  -13.0296   21.5289 C   0  0  2  0  0  0  0  0  0  0  0  0
  -30.2208  -18.2307   19.5655 C   0  0  1  0  0  0  0  0  0  0  0  0
  -26.0763  -12.5298   20.2063 C   0  0  1  0  0  0  0  0  0  0  0  0
  -29.0906  -12.5155   21.0627 C   0  0  0  0  0  0  0  0  0  0  0  0
  -21.3257  -19.1760   32.3299 C   0  0  0  0  0  0  0  0  0  0  0  0
  -25.1181  -13.5630   25.0599 C   0  0  0  0  0  0  0  0  0  0  0  0
  -27.7845  -20.5066   31.7099 C   0  0  0  0  0  0  0  0  0  0  0  0
  -25.9178  -19.5146   33.0514 C   0  0  0  0  0  0  0  0  0  0  0  0
  -25.9135  -21.9527   32.5238 C   0  0  0  0  0  0  0  0  0  0  0  0
  -21.0506  -19.2473   28.5358 C   0  0  0  0  0  0  0  0  0  0  0  0
  -25.6469  -10.5519   19.0121 C   0  0  0  0  0  0  0  0  0  0  0  0
  -27.9125  -12.1922   21.9183 C   0  0  0  0  0  0  0  0  0  0  0  0
  -22.5505  -13.9760   20.5443 C   0  0  0  0  0  0  0  0  0  0  0  0
  -26.6157  -15.1082   23.7644 C   0  0  0  0  0  0  0  0  0  1  0  0
  -25.4244  -20.2862   30.6866 C   0  0  1  0  0  0  0  0  0  0  0  0
  -21.7028  -19.6044   30.9203 C   0  0  2  0  0  0  0  0  0  0  0  0
  -26.1681  -13.6565   23.9549 C   0  0  2  0  0  0  0  0  0  0  0  0
  -26.2651  -20.5562   31.9664 C   0  0  0  0  0  0  0  0  0  0  0  0
  -29.6509  -20.6285   19.6635 N   0  0  0  0  0  0  0  0  0  0  0  0
  -29.6590  -19.4951   18.9414 N   0  0  0  0  0  0  0  0  0  0  0  0
  -26.2242  -20.7079   28.3830 N   0  0  0  0  0  0  0  0  0  0  0  0
  -29.6831  -16.1824   20.8639 N   0  0  0  0  0  0  0  0  0  0  0  0
  -29.0714  -18.5963   16.8301 N   0  0  0  0  0  0  0  0  0  0  0  0
  -27.8434  -22.9296   16.4963 N   0  0  0  0  0  0  0  0  0  0  0  0
  -28.8489  -22.5687   26.6669 N   0  0  0  0  0  0  0  0  0  0  0  0
  -23.9819  -20.3538   30.8940 N   0  0  0  0  0  0  0  0  0  0  0  0
  -29.6042  -13.8459   21.2515 N   0  0  0  0  0  0  0  0  0  0  0  0
  -23.8398  -13.3061   20.9342 N   0  3  2  0  0  0  0  0  0  0  0  0
  -20.8060  -18.9016   29.9597 N   0  3  0  0  0  0  0  0  0  0  0  0
  -27.9067  -20.9217   15.3903 O   0  0  0  0  0  0  0  0  0  0  0  0
  -28.7606  -21.0270   28.4099 O   0  0  0  0  0  0  0  0  0  0  0  0
  -25.5503  -22.4656   29.7587 O   0  0  0  0  0  0  0  0  0  0  0  0
  -23.5210  -18.1965   30.1792 O   0  0  0  0  0  0  0  0  0  0  0  0
  -28.1516  -14.8210   19.7722 O   0  0  0  0  0  0  0  0  0  0  0  0
  -28.3865  -26.8202   20.4465 O   0  0  0  0  0  0  0  0  0  0  0  0
  -27.1126  -15.6290   24.9966 O   0  0  0  0  0  0  0  0  0  1  0  0
  -25.6974  -11.1567   20.2947 O   0  0  0  0  0  0  0  0  0  0  0  0
  -23.5489  -29.2139   19.3186 F   0  0  0  0  0  0  0  0  0  0  0  0
  -26.7759  -27.7878   22.4743 F   0  0  0  0  0  0  0  0  0  0  0  0
  1  2  1  0  0  0  0
  1  5  2  0  0  0  0
  2  6  2  0  0  0  0
  3  8  2  0  0  0  0
  3 15  1  0  0  0  0
  4  9  1  0  0  0  0
  4 15  2  0  0  0  0
  5 17  1  0  0  0  0
  6 19  1  0  0  0  0
  7 10  2  0  0  0  0
  7 18  1  0  0  0  0
  8 21  1  0  0  0  0
  9 21  2  0  0  0  0
 10 22  1  0  0  0  0
 11 12  2  0  0  0  0
 11 23  1  0  0  0  0
 12 24  1  0  0  0  0
 13 20  1  0  0  0  0
 13 22  2  0  0  0  0
 14 24  2  0  0  0  0
 14 25  1  0  0  0  0
 15 26  1  0  0  0  0
 16 26  1  0  0  0  0
 16 27  2  0  0  0  0
 16 28  1  0  0  0  0
 17 19  2  0  0  0  0
 17 33  1  0  0  0  0
 18 20  2  0  0  0  0
 18 34  1  0  0  0  0
 19 48  1  0  0  0  0
 20 35  1  0  0  0  0
 21 86  1  0  0  0  0
 22 87  1  0  0  0  0
 23 25  2  0  0  0  0
 23 86  1  0  0  0  0
 24 89  1  0  0  0  0
 25 90  1  0  0  0  0
 26 70  2  0  0  0  0
 27 71  1  0  0  0  0
 27 74  1  0  0  0  0
 28 75  1  0  0  0  0
 28 81  2  0  0  0  0
 29 49  1  0  0  0  0
 29 76  1  0  0  0  0
 29 82  2  0  0  0  0
 30 66  1  0  0  0  0
 30 72  1  0  0  0  0
 30 83  2  0  0  0  0
 31 67  1  0  0  0  0
 31 77  1  0  0  0  0
 31 84  2  0  0  0  0
 32 73  1  0  0  0  0
 32 78  1  0  0  0  0
 32 85  2  0  0  0  0
 33 36  1  0  0  0  0
 34 49  1  0  0  0  0
 35 72  1  0  0  0  0
 36 38  1  0  0  0  0
 37 41  1  0  0  0  0
 37 44  1  0  0  0  0
 38 48  1  0  0  0  0
 39 40  1  0  0  0  0
 39 50  1  0  0  0  0
 40 50  1  0  0  0  0
 41 53  1  0  0  0  0
 42 43  1  0  0  0  0
 42 55  1  0  0  0  0
 43 55  1  0  0  0  0
 44 73  1  0  0  0  0
 45 53  1  0  0  0  0
 45 73  1  0  0  0  0
 46 51  1  0  0  0  0
 46 79  1  0  0  0  0
 47 54  1  0  0  0  0
 47 79  1  0  0  0  0
 48 76  1  0  0  0  0
 49 72  1  0  0  0  0
 50 64  1  0  0  0  0
 51 52  1  0  0  0  0
 51 68  1  0  0  0  0
 52 54  1  0  0  0  0
 52 63  1  0  0  0  0
 53 71  1  0  0  0  0
 54 88  1  0  0  0  0
 55 63  1  0  0  0  0
 55 78  1  0  0  0  0
 56 67  1  0  0  0  0
 57 68  1  0  0  0  0
 58 69  1  0  0  0  0
 59 69  1  0  0  0  0
 60 69  1  0  0  0  0
 61 80  1  0  0  0  0
 62 88  1  0  0  0  0
 64 79  1  0  0  0  0
 65 68  1  0  0  0  0
 65 87  1  0  0  0  0
 66 69  1  0  0  0  0
 66 77  1  0  0  0  0
 67 80  1  0  0  0  0
 70 71  1  0  0  0  0
M  CHG  2  79   1  80   1
M  ISO  4  32 100  65 101  78 100  87 101
M  END
> <Batch ID>
0145

> <Smiles>
CNC(C)C(=O)NC(C(=O)N1Cc2cc([101O:1][101CH2:1]C(C)C3CN(CC4CC4)CC(OC)C3CC3([100NH:0][100C:0](=O)N4CCCC(n5nc(-c6ccc(Oc7ccc(F)cc7F)cc6)c(C(N)=O)c5N)C4)CC3)ccc2CC1C(=O)NC1CCCc2ccccc21)C(C)(C)C

> <Shape>
0.169

> <Color>
0.069

> <Negative vol penalty>
0.000

$$$$

  -OEChem-04052321283D

 85 95  0     1  0  0  0  0  0999 V2000
  -17.0848  -29.9826   24.2981 C   0  0  0  0  0  0  0  0  0  0  0  0
  -17.6871  -28.7349   24.4237 C   0  0  0  0  0  0  0  0  0  0  0  0
  -29.3451  -17.4373   20.6795 C   0  0  0  0  0  0  0  0  0  0  0  0
  -27.4120  -17.3869   19.2311 C   0  0  0  0  0  0  0  0  0  0  0  0
  -17.4272  -30.8168   23.2347 C   0  0  0  0  0  0  0  0  0  0  0  0
  -18.6315  -28.3202   23.4853 C   0  0  0  0  0  0  0  0  0  0  0  0
  -23.5834  -24.8696   24.5235 C   0  0  0  0  0  0  0  0  0  0  0  0
  -29.3317  -18.8317   20.6489 C   0  0  0  0  0  0  0  0  0  0  0  0
  -27.3986  -18.7814   19.2005 C   0  0  0  0  0  0  0  0  0  0  0  0
  -23.8305  -23.5081   24.3529 C   0  0  0  0  0  0  0  0  0  0  0  0
  -30.0234  -22.4017   20.6610 C   0  0  0  0  0  0  0  0  0  0  0  0
  -31.2389  -23.0595   20.4728 C   0  0  0  0  0  0  0  0  0  0  0  0
  -24.8230  -23.9638   22.2020 C   0  0  0  0  0  0  0  0  0  0  0  0
  -31.5120  -21.9464   18.3460 C   0  0  0  0  0  0  0  0  0  0  0  0
  -28.3853  -16.7148   19.9705 C   0  0  0  0  0  0  0  0  0  0  0  0
  -29.4387  -14.4249   19.5780 C   0  0  0  0  0  0  0  0  0  0  0  0
  -18.3834  -30.4161   22.2882 C   0  0  0  0  0  0  0  0  0  0  0  0
  -23.9450  -25.7887   23.5281 C   0  0  0  0  0  0  0  0  0  0  0  0
  -18.9861  -29.1493   22.4076 C   0  0  0  0  0  0  0  0  0  0  0  0
  -24.5817  -25.3366   22.3634 C   0  0  0  0  0  0  0  0  0  0  0  0
  -28.3584  -19.5038   19.9095 C   0  0  0  0  0  0  0  0  0  0  0  0
  -24.4477  -23.0547   23.1908 C   0  0  0  0  0  0  0  0  0  0  0  0
  -29.5522  -21.5162   19.6917 C   0  0  0  0  0  0  0  0  0  0  0  0
  -31.9832  -22.8319   19.3153 C   0  0  0  0  0  0  0  0  0  0  0  0
  -30.2965  -21.2885   18.5342 C   0  0  0  0  0  0  0  0  0  0  0  0
  -28.3989  -15.2744   20.0012 C   0  0  0  0  0  0  0  0  0  0  0  0
  -28.9641  -13.1577   19.8133 C   0  0  0  0  0  0  0  0  0  0  0  0
  -30.7191  -14.7520   19.0219 C   0  0  0  0  0  0  0  0  0  0  0  0
  -22.3606  -27.8320   21.6792 C   0  0  0  0  0  0  0  0  0  0  0  0
  -25.3456  -28.7378   20.7896 C   0  0  0  0  0  0  0  0  0  0  0  0
  -28.6470  -27.9302   20.4809 C   0  0  0  0  0  0  0  0  0  0  0  0
  -24.1385  -14.4092   22.3979 C   0  0  0  0  0  0  0  0  0  0  0  0
  -18.6863  -31.3327   21.1295 C   0  0  0  0  0  0  0  0  0  0  0  0
  -23.6958  -27.2570   23.7389 C   0  0  0  0  0  0  0  0  0  0  0  0
  -25.0079  -26.2848   21.2736 C   0  0  0  0  0  0  0  0  0  0  0  0
  -19.9711  -30.9728   20.3879 C   0  0  0  0  0  0  0  0  0  0  0  0
  -24.4468  -11.5672   19.9293 C   0  0  0  0  0  0  0  0  0  0  0  0
  -25.7830  -14.8285   25.7346 C   0  0  0  0  0  0  0  0  0  0  0  0
  -20.0277  -29.4731   20.1150 C   0  0  0  0  0  0  0  0  0  0  0  0
  -28.2852  -18.9796   23.9191 C   0  0  0  0  0  0  0  0  0  0  0  0
  -28.2796  -20.4643   23.6831 C   0  0  0  0  0  0  0  0  0  0  0  0
  -23.5438  -18.9704   24.2603 C   0  0  0  0  0  0  0  0  0  0  0  0
  -25.9267  -11.6918   19.5979 C   0  0  0  0  0  0  0  0  0  0  0  0
  -23.5884  -20.4193   24.7233 C   0  0  0  0  0  0  0  0  0  0  0  0
  -24.6510  -15.8424   25.7034 C   0  0  0  0  0  0  0  0  0  0  0  0
  -23.9309  -12.8761   20.5019 C   0  0  0  0  0  0  0  0  0  0  0  0
  -25.5321  -13.9649   24.5059 C   0  0  0  0  0  0  0  0  0  0  0  0
  -25.9149  -12.6334   22.0127 C   0  0  0  0  0  0  0  0  0  0  0  0
  -20.0332  -28.6740   21.4238 C   0  0  1  0  0  0  0  0  0  0  0  0
  -23.6412  -28.0471   22.4351 C   0  0  1  0  0  0  0  0  0  0  0  0
  -27.1620  -19.8221   24.4572 C   0  0  0  0  0  0  0  0  0  0  0  0
  -25.7871  -19.7229   23.8588 C   0  0  1  0  0  0  0  0  0  0  0  0
  -24.9952  -18.5211   24.4042 C   0  0  2  0  0  0  0  0  0  0  0  0
  -26.7550  -12.2246   20.7817 C   0  0  2  0  0  0  0  0  0  0  0  0
  -24.9226  -20.9540   24.1997 C   0  0  1  0  0  0  0  0  0  1  0  0
  -24.4196  -16.0818   24.2128 C   0  0  1  0  0  0  0  0  0  0  0  0
  -30.8371  -28.8625   19.6858 C   0  0  0  0  0  0  0  0  0  0  0  0
  -25.0377  -17.3951   22.1607 C   0  0  0  0  0  0  0  0  0  0  0  0
  -24.4858  -28.2846   17.8974 C   0  0  0  0  0  0  0  0  0  0  0  0
  -26.9042  -28.2977   17.2496 C   0  0  0  0  0  0  0  0  0  0  0  0
  -25.8755  -30.3313   18.2641 C   0  0  0  0  0  0  0  0  0  0  0  0
  -29.8558  -27.6972   23.1722 C   0  0  0  0  0  0  0  0  0  0  0  0
  -26.3176  -28.3098   19.7167 C   0  0  1  0  0  0  0  0  0  0  0  0
  -29.9080  -28.6776   20.8756 C   0  0  2  0  0  0  0  0  0  0  0  0
  -25.2779  -17.2167   23.6595 C   0  0  1  0  0  0  0  0  0  0  0  0
  -25.8861  -28.7875   18.3014 C   0  0  0  0  0  0  0  0  0  0  0  0
  -27.3433  -14.6034   20.4697 N   0  0  0  0  0  0  0  0  0  0  0  0
  -27.7173  -13.3189   20.3423 N   0  0  0  0  0  0  0  0  0  0  0  0
  -24.7367  -27.7101   21.5237 N   0  0  0  0  0  0  0  0  0  0  0  0
  -24.6442  -13.2996   21.7073 N   0  0  0  0  0  0  0  0  0  0  0  0
  -24.7768  -14.8088   23.5748 N   0  0  0  0  0  0  0  0  0  0  0  0
  -29.4957  -11.9324   19.6172 N   0  0  0  0  0  0  0  0  0  0  0  0
  -30.8313  -14.8757   17.6303 N   0  0  0  0  0  0  0  0  0  0  0  0
  -21.3475  -28.7043   22.0289 N   0  0  0  0  0  0  0  0  0  0  0  0
  -27.6283  -28.7934   20.1368 N   0  0  0  0  0  0  0  0  0  0  0  0
  -30.6434  -27.9298   21.9343 N   0  3  0  0  0  0  0  0  0  0  0  0
  -31.7373  -14.9133   19.7366 O   0  0  0  0  0  0  0  0  0  0  0  0
  -22.2968  -26.9415   20.8397 O   0  0  0  0  0  0  0  0  0  0  0  0
  -25.1399  -29.9399   20.9745 O   0  0  0  0  0  0  0  0  0  0  0  0
  -28.5743  -26.7034   20.4745 O   0  0  0  0  0  0  0  0  0  0  0  0
  -23.1263  -14.9965   21.9898 O   0  0  0  0  0  0  0  0  0  0  0  0
  -28.3449  -20.8645   19.8796 O   0  0  0  0  0  0  0  0  0  0  0  0
  -24.6910  -21.7177   23.0205 O   0  0  0  0  0  0  0  0  0  1  0  0
  -33.1497  -23.4648   19.1340 F   0  0  0  0  0  0  0  0  0  0  0  0
  -29.8484  -20.4398   17.5989 F   0  0  0  0  0  0  0  0  0  0  0  0
  1  2  1  0  0  0  0
  1  5  2  0  0  0  0
  2  6  2  0  0  0  0
  3  8  2  0  0  0  0
  3 15  1  0  0  0  0
  4  9  1  0  0  0  0
  4 15  2  0  0  0  0
  5 17  1  0  0  0  0
  6 19  1  0  0  0  0
  7 10  2  0  0  0  0
  7 18  1  0  0  0  0
  8 21  1  0  0  0  0
  9 21  2  0  0  0  0
 10 22  1  0  0  0  0
 11 12  2  0  0  0  0
 11 23  1  0  0  0  0
 12 24  1  0  0  0  0
 13 20  1  0  0  0  0
 13 22  2  0  0  0  0
 14 24  2  0  0  0  0
 14 25  1  0  0  0  0
 15 26  1  0  0  0  0
 16 26  1  0  0  0  0
 16 27  2  0  0  0  0
 16 28  1  0  0  0  0
 17 19  2  0  0  0  0
 17 33  1  0  0  0  0
 18 20  2  0  0  0  0
 18 34  1  0  0  0  0
 19 49  1  0  0  0  0
 20 35  1  0  0  0  0
 21 82  1  0  0  0  0
 22 83  1  0  0  0  0
 23 25  2  0  0  0  0
 23 82  1  0  0  0  0
 24 84  1  0  0  0  0
 25 85  1  0  0  0  0
 26 67  2  0  0  0  0
 27 68  1  0  0  0  0
 27 72  1  0  0  0  0
 28 73  1  0  0  0  0
 28 77  2  0  0  0  0
 29 50  1  0  0  0  0
 29 74  1  0  0  0  0
 29 78  2  0  0  0  0
 30 63  1  0  0  0  0
 30 69  1  0  0  0  0
 30 79  2  0  0  0  0
 31 64  1  0  0  0  0
 31 75  1  0  0  0  0
 31 80  2  0  0  0  0
 32 70  1  0  0  0  0
 32 71  1  0  0  0  0
 32 81  2  0  0  0  0
 33 36  1  0  0  0  0
 34 50  1  0  0  0  0
 35 69  1  0  0  0  0
 36 39  1  0  0  0  0
 37 43  1  0  0  0  0
 37 46  1  0  0  0  0
 38 45  1  0  0  0  0
 38 47  1  0  0  0  0
 39 49  1  0  0  0  0
 40 41  1  0  0  0  0
 40 51  1  0  0  0  0
 41 51  1  0  0  0  0
 42 44  1  0  0  0  0
 42 53  1  0  0  0  0
 43 54  1  0  0  0  0
 44 55  1  0  0  0  0
 45 56  1  0  0  0  0
 46 70  1  0  0  0  0
 47 71  1  0  0  0  0
 48 54  1  0  0  0  0
 48 70  1  0  0  0  0
 49 74  1  0  0  0  0
 50 69  1  0  0  0  0
 51 52  1  0  0  0  0
 52 53  1  0  0  0  0
 52 55  1  0  0  0  0
 53 65  1  0  0  0  0
 54 68  1  0  0  0  0
 55 83  1  0  0  0  0
 56 65  1  0  0  0  0
 56 71  1  0  0  0  0
 57 64  1  0  0  0  0
 58 65  1  0  0  0  0
 59 66  1  0  0  0  0
 60 66  1  0  0  0  0
 61 66  1  0  0  0  0
 62 76  1  0  0  0  0
 63 66  1  0  0  0  0
 63 75  1  0  0  0  0
 64 76  1  0  0  0  0
 67 68  1  0  0  0  0
M  CHG  1  76   1
M  ISO  4  32 100  55 101  71 100  83 101
M  END
> <Batch ID>
0145

> <Smiles>
CNC(C)C(=O)NC(C(=O)N1Cc2cc([101O:1][101CH:1]3CCC(C(C)C4CCC[100N:0]4[100C:0](=O)N4CCCC(n5nc(-c6ccc(Oc7ccc(F)cc7F)cc6)c(C(N)=O)c5N)C4)C3C3CC3)ccc2CC1C(=O)NC1CCCc2ccccc21)C(C)(C)C

> <Shape>
0.214

> <Color>
0.090

> <Negative vol penalty>
0.000

$$$$

  -OEChem-04052321283D

 87 97  0     1  0  0  0  0  0999 V2000
  -17.1611  -27.4306   24.2060 C   0  0  0  0  0  0  0  0  0  0  0  0
  -18.0088  -26.7821   23.3136 C   0  0  0  0  0  0  0  0  0  0  0  0
  -23.0050  -10.3429   20.8735 C   0  0  0  0  0  0  0  0  0  0  0  0
  -24.6439   -8.9517   21.9760 C   0  0  0  0  0  0  0  0  0  0  0  0
  -17.2181  -28.8174   24.3373 C   0  0  0  0  0  0  0  0  0  0  0  0
  -18.9133  -27.5203   22.5512 C   0  0  0  0  0  0  0  0  0  0  0  0
  -23.5258  -25.4324   22.4487 C   0  0  0  0  0  0  0  0  0  0  0  0
  -22.1219   -9.2644   20.8252 C   0  0  0  0  0  0  0  0  0  0  0  0
  -23.7608   -7.8731   21.9278 C   0  0  0  0  0  0  0  0  0  0  0  0
  -23.7123  -24.3416   21.6006 C   0  0  0  0  0  0  0  0  0  0  0  0
  -21.0467   -6.8002   23.6316 C   0  0  0  0  0  0  0  0  0  0  0  0
  -20.9037   -6.0296   24.7854 C   0  0  0  0  0  0  0  0  0  0  0  0
  -28.5049  -22.5920   15.8877 C   0  0  0  0  0  0  0  0  0  0  0  0
  -24.7375  -25.7930   19.9692 C   0  0  0  0  0  0  0  0  0  0  0  0
  -27.8445  -20.4560   17.5562 C   0  0  0  0  0  0  0  0  0  0  0  0
  -21.6592   -4.0791   23.5763 C   0  0  0  0  0  0  0  0  0  0  0  0
  -24.2661  -10.1866   21.4488 C   0  0  0  0  0  0  0  0  0  0  0  0
  -25.2995  -12.2556   22.5254 C   0  0  0  0  0  0  0  0  0  0  0  0
  -18.1305  -29.5721   23.5831 C   0  0  0  0  0  0  0  0  0  0  0  0
  -23.9347  -26.7156   22.0582 C   0  0  0  0  0  0  0  0  0  0  0  0
  -18.9817  -28.9187   22.6716 C   0  0  0  0  0  0  0  0  0  0  0  0
  -28.8513  -21.2905   15.5247 C   0  0  0  0  0  0  0  0  0  0  0  0
  -24.5575  -26.8980   20.8152 C   0  0  0  0  0  0  0  0  0  0  0  0
  -28.5211  -20.2225   16.3589 C   0  0  0  0  0  0  0  0  0  0  0  0
  -27.8283  -22.8255   17.0849 C   0  0  0  0  0  0  0  0  0  0  0  0
  -22.4997   -8.0295   21.3524 C   0  0  0  0  0  0  0  0  0  0  0  0
  -24.3156  -24.5223   20.3595 C   0  0  0  0  0  0  0  0  0  0  0  0
  -21.4959   -6.2103   22.4501 C   0  0  0  0  0  0  0  0  0  0  0  0
  -27.4981  -21.7575   17.9192 C   0  0  0  0  0  0  0  0  0  0  0  0
  -21.2100   -4.6690   24.7578 C   0  0  0  0  0  0  0  0  0  0  0  0
  -21.8022   -4.8497   22.4225 C   0  0  0  0  0  0  0  0  0  0  0  0
  -25.1790  -11.3003   21.4985 C   0  0  0  0  0  0  0  0  0  0  0  0
  -26.2999  -13.0943   22.0985 C   0  0  0  0  0  0  0  0  0  0  0  0
  -24.5722  -12.3743   23.7553 C   0  0  0  0  0  0  0  0  0  0  0  0
  -22.4554  -29.4819   21.5452 C   0  0  0  0  0  0  0  0  0  0  0  0
  -25.4837  -30.5896   21.1920 C   0  0  0  0  0  0  0  0  0  0  0  0
  -28.7472  -29.9169   20.4545 C   0  0  0  0  0  0  0  0  0  0  0  0
  -28.4653  -16.1699   18.0730 C   0  0  0  0  0  0  0  0  0  0  0  0
  -18.1226  -31.0736   23.7249 C   0  0  0  0  0  0  0  0  0  0  0  0
  -23.7506  -27.8774   22.9957 C   0  0  0  0  0  0  0  0  0  0  0  0
  -25.0327  -28.2518   20.3574 C   0  0  0  0  0  0  0  0  0  0  0  0
  -19.3686  -31.7458   23.1539 C   0  0  0  0  0  0  0  0  0  0  0  0
  -29.5797  -12.6597   18.2956 C   0  0  0  0  0  0  0  0  0  0  0  0
  -28.9720  -21.5840   12.9608 C   0  0  0  0  0  0  0  0  0  0  0  0
  -28.9953  -20.1117   13.2295 C   0  0  0  0  0  0  0  0  0  0  0  0
  -19.6928  -31.1843   21.7732 C   0  0  0  0  0  0  0  0  0  0  0  0
  -28.5012  -12.0662   19.1971 C   0  0  0  0  0  0  0  0  0  0  0  0
  -30.3142  -18.4921   15.6785 C   0  0  0  0  0  0  0  0  0  0  0  0
  -29.0286  -13.7611   17.3909 C   0  0  0  0  0  0  0  0  0  0  0  0
  -27.2405  -14.2480   19.0370 C   0  0  0  0  0  0  0  0  0  0  0  0
  -29.5759  -21.0659   14.2387 C   0  0  0  0  0  0  0  0  0  0  0  0
  -28.8802  -18.8205   15.9918 C   0  0  1  0  0  0  0  0  0  0  0  0
  -19.9936  -29.6824   21.8451 C   0  0  1  0  0  0  0  0  0  0  0  0
  -23.7398  -29.2255   22.2816 C   0  0  1  0  0  0  0  0  0  0  0  0
  -27.7864  -13.1722   19.9884 C   0  0  1  0  0  0  0  0  0  0  0  0
  -29.7034  -18.0017   16.9578 C   0  0  1  0  0  0  0  0  0  0  0  0
  -27.4650  -24.2250   17.4577 C   0  0  0  0  0  0  0  0  0  0  0  0
  -30.9819  -31.0321   20.2102 C   0  0  0  0  0  0  0  0  0  0  0  0
  -24.6222  -31.7189   18.4916 C   0  0  0  0  0  0  0  0  0  0  0  0
  -27.0427  -31.9608   17.8990 C   0  0  0  0  0  0  0  0  0  0  0  0
  -26.1005  -33.2283   19.8299 C   0  0  0  0  0  0  0  0  0  0  0  0
  -29.9275  -28.2872   22.6247 C   0  0  0  0  0  0  0  0  0  0  0  0
  -24.6890  -22.1839   20.1400 C   0  0  0  0  0  0  0  0  0  1  0  0
  -25.5702  -21.3336   19.2455 C   0  0  0  0  0  0  0  0  0  0  0  0
  -26.4420  -30.7315   20.0342 C   0  0  1  0  0  0  0  0  0  0  0  0
  -30.0382  -30.3028   21.1537 C   0  0  2  0  0  0  0  0  0  0  0  0
  -26.0412  -31.8846   19.0712 C   0  0  0  0  0  0  0  0  0  0  0  0
  -26.0345  -11.5116   20.4947 N   0  0  0  0  0  0  0  0  0  0  0  0
  -26.7019  -12.6094   20.8888 N   0  0  0  0  0  0  0  0  0  0  0  0
  -24.8246  -29.3575   21.3069 N   0  0  0  0  0  0  0  0  0  0  0  0
  -28.2933  -14.7766   18.1609 N   0  0  0  0  0  0  0  0  0  0  0  0
  -26.8660  -14.1920   22.6435 N   0  0  0  0  0  0  0  0  0  0  0  0
  -23.5778  -11.4278   24.0374 N   0  0  0  0  0  0  0  0  0  0  0  0
  -21.3317  -29.4584   22.3490 N   0  0  0  0  0  0  0  0  0  0  0  0
  -27.7706  -30.8762   20.6192 N   0  0  0  0  0  0  0  0  0  0  0  0
  -29.4210  -16.6061   17.1624 N   0  0  0  0  0  0  0  0  0  0  0  0
  -30.7325  -29.0881   21.6668 N   0  3  0  0  0  0  0  0  0  0  0  0
  -24.7861  -13.3020   24.5720 O   0  0  0  0  0  0  0  0  0  0  0  0
  -22.4822  -29.6875   20.3374 O   0  0  0  0  0  0  0  0  0  0  0  0
  -25.3312  -31.5346   21.9701 O   0  0  0  0  0  0  0  0  0  0  0  0
  -28.6192  -28.8709   19.8220 O   0  0  0  0  0  0  0  0  0  0  0  0
  -27.8116  -16.9697   18.7518 O   0  0  0  0  0  0  0  0  0  0  0  0
  -21.6381   -6.9769   21.3057 O   0  0  0  0  0  0  0  0  0  0  0  0
  -24.4982  -23.4595   19.5294 O   0  0  0  0  0  0  0  0  0  1  0  0
  -26.8342  -21.9692   19.0988 O   0  0  0  0  0  0  0  0  0  0  0  0
  -21.0740   -3.9294   25.8663 F   0  0  0  0  0  0  0  0  0  0  0  0
  -22.2354   -4.2777   21.2907 F   0  0  0  0  0  0  0  0  0  0  0  0
  1  2  1  0  0  0  0
  1  5  2  0  0  0  0
  2  6  2  0  0  0  0
  3  8  2  0  0  0  0
  3 17  1  0  0  0  0
  4  9  1  0  0  0  0
  4 17  2  0  0  0  0
  5 19  1  0  0  0  0
  6 21  1  0  0  0  0
  7 10  2  0  0  0  0
  7 20  1  0  0  0  0
  8 26  1  0  0  0  0
  9 26  2  0  0  0  0
 10 27  1  0  0  0  0
 11 12  2  0  0  0  0
 11 28  1  0  0  0  0
 12 30  1  0  0  0  0
 13 22  2  0  0  0  0
 13 25  1  0  0  0  0
 14 23  1  0  0  0  0
 14 27  2  0  0  0  0
 15 24  2  0  0  0  0
 15 29  1  0  0  0  0
 16 30  2  0  0  0  0
 16 31  1  0  0  0  0
 17 32  1  0  0  0  0
 18 32  1  0  0  0  0
 18 33  2  0  0  0  0
 18 34  1  0  0  0  0
 19 21  2  0  0  0  0
 19 39  1  0  0  0  0
 20 23  2  0  0  0  0
 20 40  1  0  0  0  0
 21 53  1  0  0  0  0
 22 24  1  0  0  0  0
 22 51  1  0  0  0  0
 23 41  1  0  0  0  0
 24 52  1  0  0  0  0
 25 29  2  0  0  0  0
 25 57  1  0  0  0  0
 26 83  1  0  0  0  0
 27 84  1  0  0  0  0
 28 31  2  0  0  0  0
 28 83  1  0  0  0  0
 29 85  1  0  0  0  0
 30 86  1  0  0  0  0
 31 87  1  0  0  0  0
 32 68  2  0  0  0  0
 33 69  1  0  0  0  0
 33 72  1  0  0  0  0
 34 73  1  0  0  0  0
 34 78  2  0  0  0  0
 35 54  1  0  0  0  0
 35 74  1  0  0  0  0
 35 79  2  0  0  0  0
 36 65  1  0  0  0  0
 36 70  1  0  0  0  0
 36 80  2  0  0  0  0
 37 66  1  0  0  0  0
 37 75  1  0  0  0  0
 37 81  2  0  0  0  0
 38 71  1  0  0  0  0
 38 76  1  0  0  0  0
 38 82  2  0  0  0  0
 39 42  1  0  0  0  0
 40 54  1  0  0  0  0
 41 70  1  0  0  0  0
 42 46  1  0  0  0  0
 43 47  1  0  0  0  0
 43 49  1  0  0  0  0
 44 45  1  0  0  0  0
 44 51  1  0  0  0  0
 45 51  1  0  0  0  0
 46 53  1  0  0  0  0
 47 55  1  0  0  0  0
 48 52  1  0  0  0  0
 48 56  1  0  0  0  0
 49 71  1  0  0  0  0
 50 55  1  0  0  0  0
 50 71  1  0  0  0  0
 52 56  1  0  0  0  0
 53 74  1  0  0  0  0
 54 70  1  0  0  0  0
 55 69  1  0  0  0  0
 56 76  1  0  0  0  0
 58 66  1  0  0  0  0
 59 67  1  0  0  0  0
 60 67  1  0  0  0  0
 61 67  1  0  0  0  0
 62 77  1  0  0  0  0
 63 64  1  0  0  0  0
 63 84  1  0  0  0  0
 64 85  1  0  0  0  0
 65 67  1  0  0  0  0
 65 75  1  0  0  0  0
 66 77  1  0  0  0  0
 68 69  1  0  0  0  0
M  CHG  1  77   1
M  ISO  4  38 100  63 101  76 100  84 101
M  END
> <Batch ID>
0145

> <Smiles>
CNC(C)C(=O)NC(C(=O)N1Cc2cc([101O:1][101CH2:1]COc3cc(C4CC4[100NH:0][100C:0](=O)N4CCCC(n5nc(-c6ccc(Oc7ccc(F)cc7F)cc6)c(C(N)=O)c5N)C4)c(C4CC4)cc3C)ccc2CC1C(=O)NC1CCCc2ccccc21)C(C)(C)C

> <Shape>
0.253

> <Color>
0.111

> <Negative vol penalty>
0.000

$$$$

  -OEChem-04052321283D

 89 97  0     1  0  0  0  0  0999 V2000
  -24.9064  -18.7896   25.9780 C   0  0  0  0  0  0  0  0  0  0  0  0
  -25.5133  -19.6121   25.0343 C   0  0  0  0  0  0  0  0  0  0  0  0
  -23.4050  -10.0301   21.9108 C   0  0  0  0  0  0  0  0  0  0  0  0
  -24.3058  -11.2145   23.8141 C   0  0  0  0  0  0  0  0  0  0  0  0
  -23.5256  -18.8442   26.1636 C   0  0  0  0  0  0  0  0  0  0  0  0
  -24.7395  -20.4889   24.2748 C   0  0  0  0  0  0  0  0  0  0  0  0
  -26.7943  -25.1056   23.9446 C   0  0  0  0  0  0  0  0  0  0  0  0
  -22.7822   -9.1241   22.7692 C   0  0  0  0  0  0  0  0  0  0  0  0
  -23.6829  -10.3086   24.6726 C   0  0  0  0  0  0  0  0  0  0  0  0
  -27.8488  -25.2706   23.0476 C   0  0  0  0  0  0  0  0  0  0  0  0
  -30.1607  -21.1227   18.7080 C   0  0  0  0  0  0  0  0  0  0  0  0
  -30.4294  -19.7937   19.0352 C   0  0  0  0  0  0  0  0  0  0  0  0
  -20.0132   -9.0292   24.7074 C   0  0  0  0  0  0  0  0  0  0  0  0
  -18.6871   -8.6892   24.4399 C   0  0  0  0  0  0  0  0  0  0  0  0
  -26.3266  -26.2376   21.4454 C   0  0  0  0  0  0  0  0  0  0  0  0
  -19.3293   -6.3724   24.2009 C   0  0  0  0  0  0  0  0  0  0  0  0
  -24.1668  -11.0753   22.4332 C   0  0  0  0  0  0  0  0  0  0  0  0
  -24.2783  -13.2156   21.0497 C   0  0  0  0  0  0  0  0  0  0  0  0
  -22.7358  -19.7291   25.4128 C   0  0  0  0  0  0  0  0  0  0  0  0
  -25.4939  -25.4961   23.5940 C   0  0  0  0  0  0  0  0  0  0  0  0
  -23.3467  -20.5545   24.4495 C   0  0  0  0  0  0  0  0  0  0  0  0
  -25.2578  -26.0789   22.3407 C   0  0  0  0  0  0  0  0  0  0  0  0
  -28.3846  -21.1669   20.3452 C   0  0  0  0  0  0  0  0  0  0  0  0
  -28.6532  -19.8378   20.6724 C   0  0  0  0  0  0  0  0  0  0  0  0
  -22.9211   -9.2634   24.1501 C   0  0  0  0  0  0  0  0  0  0  0  0
  -27.6145  -25.8340   21.7967 C   0  0  0  0  0  0  0  0  0  0  0  0
  -29.1384  -21.8094   19.3630 C   0  0  0  0  0  0  0  0  0  0  0  0
  -29.6756  -19.1512   20.0174 C   0  0  0  0  0  0  0  0  0  0  0  0
  -20.9974   -8.0407   24.7216 C   0  0  0  0  0  0  0  0  0  0  0  0
  -18.3451   -7.3609   24.1866 C   0  0  0  0  0  0  0  0  0  0  0  0
  -20.6554   -6.7124   24.4683 C   0  0  0  0  0  0  0  0  0  0  0  0
  -24.8109  -12.0111   21.5469 C   0  0  0  0  0  0  0  0  0  0  0  0
  -25.2754  -13.7310   20.2581 C   0  0  0  0  0  0  0  0  0  0  0  0
  -22.9969  -13.8150   21.2826 C   0  0  0  0  0  0  0  0  0  0  0  0
  -22.7179  -23.9887   23.2397 C   0  0  0  0  0  0  0  0  0  0  0  0
  -21.5790  -26.9993   22.8380 C   0  0  0  0  0  0  0  0  0  0  0  0
  -22.2020  -30.2412   21.9728 C   0  0  0  0  0  0  0  0  0  0  0  0
  -31.0465  -14.1291   20.0319 C   0  0  0  0  0  0  0  0  0  0  0  0
  -21.2413  -19.7187   25.6155 C   0  0  0  0  0  0  0  0  0  0  0  0
  -24.3720  -25.3360   24.5831 C   0  0  0  0  0  0  0  0  0  0  0  0
  -23.8838  -26.5333   21.9236 C   0  0  0  0  0  0  0  0  0  0  0  0
  -20.5392  -20.9431   25.0339 C   0  0  0  0  0  0  0  0  0  0  0  0
  -29.2390  -11.8490   17.9798 C   0  0  0  0  0  0  0  0  0  0  0  0
  -21.0425  -21.2266   23.6221 C   0  0  0  0  0  0  0  0  0  0  0  0
  -27.8634  -11.7703   18.6443 C   0  0  0  0  0  0  0  0  0  0  0  0
  -30.3574  -11.9796   19.0115 C   0  0  0  0  0  0  0  0  0  0  0  0
  -28.8144  -13.0100   20.6336 C   0  0  0  0  0  0  0  0  0  0  0  0
  -22.5444  -21.5365   23.6237 C   0  0  1  0  0  0  0  0  0  0  0  0
  -22.9963  -25.2966   23.9249 C   0  0  1  0  0  0  0  0  0  0  0  0
  -27.6500  -12.9338   19.6313 C   0  0  2  0  0  0  0  0  0  0  0  0
  -25.9090  -21.5209   20.5258 C   0  0  0  0  0  0  0  0  0  0  0  0
  -28.7080  -18.7020   22.9220 C   0  0  0  0  0  0  0  0  0  0  0  0
  -27.0705  -17.9385   21.1640 C   0  0  0  0  0  0  0  0  0  0  0  0
  -21.0646  -32.4620   21.7048 C   0  0  0  0  0  0  0  0  0  0  0  0
  -20.3466  -26.0486   20.2136 C   0  0  0  0  0  0  0  0  0  0  0  0
  -20.0667  -28.4482   19.5564 C   0  0  0  0  0  0  0  0  0  0  0  0
  -18.8838  -27.5609   21.5655 C   0  0  0  0  0  0  0  0  0  0  0  0
  -23.9110  -31.4964   24.0376 C   0  0  0  0  0  0  0  0  0  0  0  0
  -27.2900  -21.9098   21.0427 C   0  0  0  0  0  0  0  0  0  0  0  0
  -29.5240  -25.4210   18.7479 C   0  0  0  0  0  0  0  0  0  0  0  0
  -31.5907  -16.2885   21.1273 C   0  0  0  0  0  0  0  0  0  0  0  0
  -28.3244  -25.9340   19.5291 C   0  0  0  0  0  0  0  0  0  1  0  0
  -29.9547  -24.0378   19.2103 C   0  0  0  0  0  0  0  0  0  0  0  0
  -31.3029  -17.4228   20.1600 C   0  0  0  0  0  0  0  0  0  0  0  0
  -27.8485  -19.1423   21.7239 C   0  0  0  0  0  0  0  0  0  0  0  0
  -21.3847  -27.9202   21.6577 C   0  0  1  0  0  0  0  0  0  0  0  0
  -21.8370  -31.5516   22.6468 C   0  0  2  0  0  0  0  0  0  0  0  0
  -20.1961  -27.4842   20.7551 C   0  0  0  0  0  0  0  0  0  0  0  0
  -26.0501  -11.7752   21.1079 N   0  0  0  0  0  0  0  0  0  0  0  0
  -26.3045  -12.8385   20.3264 N   0  0  0  0  0  0  0  0  0  0  0  0
  -22.8186  -26.3498   22.9232 N   0  0  0  0  0  0  0  0  0  0  0  0
  -30.0953  -13.1021   19.9155 N   0  0  0  0  0  0  0  0  0  0  0  0
  -25.3636  -14.8561   19.5172 N   0  0  0  0  0  0  0  0  0  0  0  0
  -22.0918  -13.1520   22.1225 N   0  0  0  0  0  0  0  0  0  0  0  0
  -22.7805  -22.8907   24.0763 N   0  0  0  0  0  0  0  0  0  0  0  0
  -21.2560  -29.2657   22.2066 N   0  0  0  0  0  0  0  0  0  0  0  0
  -30.7168  -15.1581   20.9055 N   0  0  0  0  0  0  0  0  0  0  0  0
  -23.0673  -32.2673   23.0884 N   0  3  0  0  0  0  0  0  0  0  0  0
  -22.6581  -14.8982   20.7482 O   0  0  0  0  0  0  0  0  0  0  0  0
  -22.4636  -23.9767   22.0410 O   0  0  0  0  0  0  0  0  0  0  0  0
  -20.6671  -26.8668   23.6581 O   0  0  0  0  0  0  0  0  0  0  0  0
  -23.2224  -30.0984   21.3028 O   0  0  0  0  0  0  0  0  0  0  0  0
  -32.1083  -14.1316   19.3999 O   0  0  0  0  0  0  0  0  0  0  0  0
  -22.3133   -8.3797   24.9881 O   0  0  0  0  0  0  0  0  0  0  0  0
  -28.6419  -25.9955   20.9190 O   0  0  0  0  0  0  0  0  0  1  0  0
  -28.8893  -23.1150   19.0285 O   0  0  0  0  0  0  0  0  0  0  0  0
  -29.9527  -17.8525   20.3221 O   0  0  0  0  0  0  0  0  0  0  0  0
  -17.0714   -7.0344   23.9313 F   0  0  0  0  0  0  0  0  0  0  0  0
  -21.5962   -5.7582   24.4818 F   0  0  0  0  0  0  0  0  0  0  0  0
  1  2  1  0  0  0  0
  1  5  2  0  0  0  0
  2  6  2  0  0  0  0
  3  8  2  0  0  0  0
  3 17  1  0  0  0  0
  4  9  1  0  0  0  0
  4 17  2  0  0  0  0
  5 19  1  0  0  0  0
  6 21  1  0  0  0  0
  7 10  2  0  0  0  0
  7 20  1  0  0  0  0
  8 25  1  0  0  0  0
  9 25  2  0  0  0  0
 10 26  1  0  0  0  0
 11 12  1  0  0  0  0
 11 27  2  0  0  0  0
 12 28  2  0  0  0  0
 13 14  2  0  0  0  0
 13 29  1  0  0  0  0
 14 30  1  0  0  0  0
 15 22  1  0  0  0  0
 15 26  2  0  0  0  0
 16 30  2  0  0  0  0
 16 31  1  0  0  0  0
 17 32  1  0  0  0  0
 18 32  1  0  0  0  0
 18 33  2  0  0  0  0
 18 34  1  0  0  0  0
 19 21  2  0  0  0  0
 19 39  1  0  0  0  0
 20 22  2  0  0  0  0
 20 40  1  0  0  0  0
 21 48  1  0  0  0  0
 22 41  1  0  0  0  0
 23 24  2  0  0  0  0
 23 27  1  0  0  0  0
 23 59  1  0  0  0  0
 24 28  1  0  0  0  0
 24 65  1  0  0  0  0
 25 84  1  0  0  0  0
 26 85  1  0  0  0  0
 27 86  1  0  0  0  0
 28 87  1  0  0  0  0
 29 31  2  0  0  0  0
 29 84  1  0  0  0  0
 30 88  1  0  0  0  0
 31 89  1  0  0  0  0
 32 69  2  0  0  0  0
 33 70  1  0  0  0  0
 33 73  1  0  0  0  0
 34 74  1  0  0  0  0
 34 79  2  0  0  0  0
 35 49  1  0  0  0  0
 35 75  1  0  0  0  0
 35 80  2  0  0  0  0
 36 66  1  0  0  0  0
 36 71  1  0  0  0  0
 36 81  2  0  0  0  0
 37 67  1  0  0  0  0
 37 76  1  0  0  0  0
 37 82  2  0  0  0  0
 38 72  1  0  0  0  0
 38 77  1  0  0  0  0
 38 83  2  0  0  0  0
 39 42  1  0  0  0  0
 40 49  1  0  0  0  0
 41 71  1  0  0  0  0
 42 44  1  0  0  0  0
 43 45  1  0  0  0  0
 43 46  1  0  0  0  0
 44 48  1  0  0  0  0
 45 50  1  0  0  0  0
 46 72  1  0  0  0  0
 47 50  1  0  0  0  0
 47 72  1  0  0  0  0
 48 75  1  0  0  0  0
 49 71  1  0  0  0  0
 50 70  1  0  0  0  0
 51 59  1  0  0  0  0
 52 65  1  0  0  0  0
 53 65  1  0  0  0  0
 54 67  1  0  0  0  0
 55 68  1  0  0  0  0
 56 68  1  0  0  0  0
 57 68  1  0  0  0  0
 58 78  1  0  0  0  0
 60 62  1  0  0  0  0
 60 63  1  0  0  0  0
 61 64  1  0  0  0  0
 61 77  1  0  0  0  0
 62 85  1  0  0  0  0
 63 86  1  0  0  0  0
 64 87  1  0  0  0  0
 66 68  1  0  0  0  0
 66 76  1  0  0  0  0
 67 78  1  0  0  0  0
 69 70  1  0  0  0  0
M  CHG  1  78   1
M  ISO  4  38 100  62 101  77 100  85 101
M  END
> <Batch ID>
0145

> <Smiles>
CCc1c(OCC[101CH2:1][101O:1]c2ccc3c(c2)CN(C(=O)C(NC(=O)C(C)NC)C(C)(C)C)C(C(=O)NC2CCCc4ccccc42)C3)ccc(OCC[100NH:0][100C:0](=O)N2CCCC(n3nc(-c4ccc(Oc5ccc(F)cc5F)cc4)c(C(N)=O)c3N)C2)c1C(C)C

> <Shape>
0.270

> <Color>
0.167

> <Negative vol penalty>
0.000

$$$$

  -OEChem-04052321283D

 87 96  0     1  0  0  0  0  0999 V2000
  -37.2626  -13.0108   23.7727 C   0  0  0  0  0  0  0  0  0  0  0  0
  -36.6807  -14.2411   23.4845 C   0  0  0  0  0  0  0  0  0  0  0  0
  -16.8113  -31.1717   17.8427 C   0  0  0  0  0  0  0  0  0  0  0  0
  -15.9822  -32.4419   19.7232 C   0  0  0  0  0  0  0  0  0  0  0  0
  -36.7998  -11.8570   23.1414 C   0  0  0  0  0  0  0  0  0  0  0  0
  -35.6361  -14.3184   22.5639 C   0  0  0  0  0  0  0  0  0  0  0  0
  -30.8406  -18.1230   22.7484 C   0  0  0  0  0  0  0  0  0  0  0  0
  -15.5179  -31.0911   17.3269 C   0  0  0  0  0  0  0  0  0  0  0  0
  -14.6887  -32.3613   19.2074 C   0  0  0  0  0  0  0  0  0  0  0  0
  -30.5780  -19.3329   22.1074 C   0  0  0  0  0  0  0  0  0  0  0  0
  -12.8684  -33.8857   16.8025 C   0  0  0  0  0  0  0  0  0  0  0  0
  -12.0999  -35.0497   16.7994 C   0  0  0  0  0  0  0  0  0  0  0  0
  -29.3461  -18.1544   20.4007 C   0  0  0  0  0  0  0  0  0  0  0  0
  -27.4644  -24.8985   19.3148 C   0  0  0  0  0  0  0  0  0  0  0  0
  -10.4540  -33.9667   18.1978 C   0  0  0  0  0  0  0  0  0  0  0  0
  -29.4502  -25.1250   18.2779 C   0  0  0  0  0  0  0  0  0  0  0  0
  -17.0434  -31.8471   19.0410 C   0  0  0  0  0  0  0  0  0  0  0  0
  -19.3355  -32.9316   19.3202 C   0  0  0  0  0  0  0  0  0  0  0  0
  -35.7426  -11.9189   22.2199 C   0  0  0  0  0  0  0  0  0  0  0  0
  -30.3664  -16.9166   22.2136 C   0  0  0  0  0  0  0  0  0  0  0  0
  -35.1596  -13.1645   21.9187 C   0  0  0  0  0  0  0  0  0  0  0  0
  -29.6018  -16.9308   21.0383 C   0  0  0  0  0  0  0  0  0  0  0  0
  -14.4566  -31.6858   18.0092 C   0  0  0  0  0  0  0  0  0  0  0  0
  -29.8331  -19.3485   20.9318 C   0  0  0  0  0  0  0  0  0  0  0  0
  -12.4298  -32.7621   17.5032 C   0  0  0  0  0  0  0  0  0  0  0  0
  -28.6067  -24.1997   18.8521 C   0  0  0  0  0  0  0  0  0  0  0  0
  -10.8927  -35.0902   17.4971 C   0  0  0  0  0  0  0  0  0  0  0  0
  -11.2226  -32.8027   18.2009 C   0  0  0  0  0  0  0  0  0  0  0  0
  -18.3793  -31.9303   19.5746 C   0  0  0  0  0  0  0  0  0  0  0  0
  -27.6446  -26.2294   19.0091 C   0  0  0  0  0  0  0  0  0  0  0  0
  -20.4311  -32.5556   20.0583 C   0  0  0  0  0  0  0  0  0  0  0  0
  -19.2418  -34.0974   18.4909 C   0  0  0  0  0  0  0  0  0  0  0  0
  -31.7263  -14.2644   21.1090 C   0  0  0  0  0  0  0  0  0  0  0  0
  -28.6578  -13.2257   20.9424 C   0  0  0  0  0  0  0  0  0  0  0  0
  -25.3441  -14.0057   20.7024 C   0  0  0  0  0  0  0  0  0  0  0  0
  -23.9717  -28.8271   21.9509 C   0  0  0  0  0  0  0  0  0  0  0  0
  -35.3081  -10.6514   21.5275 C   0  0  0  0  0  0  0  0  0  0  0  0
  -30.6356  -15.6225   22.9315 C   0  0  0  0  0  0  0  0  0  0  0  0
  -29.0526  -15.6652   20.4341 C   0  0  0  0  0  0  0  0  0  0  0  0
  -33.9477  -10.7662   20.8445 C   0  0  0  0  0  0  0  0  0  0  0  0
  -20.9535  -29.0175   23.6249 C   0  0  0  0  0  0  0  0  0  0  0  0
  -33.8629  -12.0578   20.0374 C   0  0  0  0  0  0  0  0  0  0  0  0
  -20.0827  -29.8756   22.7076 C   0  0  0  0  0  0  0  0  0  0  0  0
  -25.2515  -27.0366   19.2171 C   0  0  0  0  0  0  0  0  0  0  0  0
  -27.0741  -28.1128   20.6061 C   0  0  0  0  0  0  0  0  0  0  0  0
  -21.7922  -28.0336   22.8175 C   0  0  0  0  0  0  0  0  0  0  0  0
  -24.3465  -28.2353   19.5157 C   0  0  0  0  0  0  0  0  0  0  0  0
  -26.1391  -29.2939   20.8494 C   0  0  0  0  0  0  0  0  0  0  0  0
  -21.7982  -29.5441   20.8589 C   0  0  0  0  0  0  0  0  0  0  0  0
  -34.0079  -13.2857   20.9445 C   0  0  1  0  0  0  0  0  0  0  0  0
  -26.7414  -27.4196   19.2725 C   0  0  0  0  0  0  0  0  0  0  0  0
  -30.5398  -14.4026   22.0205 C   0  0  1  0  0  0  0  0  0  0  0  0
  -20.9318  -30.5646   21.6246 C   0  0  1  0  0  0  0  0  0  0  0  0
  -23.0761  -12.9425   20.5492 C   0  0  0  0  0  0  0  0  0  0  0  0
  -29.6100  -27.5730   16.3699 C   0  0  0  0  0  0  0  0  0  0  0  0
  -30.7369  -27.9347   18.6072 C   0  0  0  0  0  0  0  0  0  0  0  0
  -29.1831  -12.5323   18.0178 C   0  0  0  0  0  0  0  0  0  0  0  0
  -26.7066  -12.3863   17.6800 C   0  0  0  0  0  0  0  0  0  0  0  0
  -27.8408  -10.8324   19.2681 C   0  0  0  0  0  0  0  0  0  0  0  0
  -24.4504  -15.2761   23.2216 C   0  0  0  0  0  0  0  0  0  0  0  0
  -28.3598  -20.6181   19.5630 C   0  0  0  0  0  0  0  0  0  1  0  0
  -27.8730  -22.0542   19.5691 C   0  0  0  0  0  0  0  0  0  0  0  0
  -27.5706  -13.2666   19.8958 C   0  0  1  0  0  0  0  0  0  0  0  0
  -24.1350  -13.5153   21.4784 C   0  0  2  0  0  0  0  0  0  0  0  0
  -29.4311  -27.5884   17.8893 C   0  0  0  0  0  0  0  0  0  0  0  0
  -27.8371  -12.2782   18.7255 C   0  0  0  0  0  0  0  0  0  0  0  0
  -18.8280  -30.9888   20.4090 N   0  0  0  0  0  0  0  0  0  0  0  0
  -28.8550  -26.3553   18.3788 N   0  0  0  0  0  0  0  0  0  0  0  0
  -20.0783  -31.3969   20.6853 N   0  0  0  0  0  0  0  0  0  0  0  0
  -29.3481  -14.4247   21.1698 N   0  0  0  0  0  0  0  0  0  0  0  0
  -22.5807  -28.7257   21.7982 N   0  0  0  0  0  0  0  0  0  0  0  0
  -24.7381  -28.8799   20.7769 N   0  0  0  0  0  0  0  0  0  0  0  0
  -21.6522  -33.1064   20.2256 N   0  0  0  0  0  0  0  0  0  0  0  0
  -18.0439  -34.3332   17.8025 N   0  0  0  0  0  0  0  0  0  0  0  0
  -32.7711  -13.5408   21.6514 N   0  0  0  0  0  0  0  0  0  0  0  0
  -26.3155  -13.0323   20.6016 N   0  0  0  0  0  0  0  0  0  0  0  0
  -23.5264  -14.6349   22.2510 N   0  3  0  0  0  0  0  0  0  0  0  0
  -20.1978  -34.8974   18.3511 O   0  0  0  0  0  0  0  0  0  0  0  0
  -31.6955  -14.7750   19.9954 O   0  0  0  0  0  0  0  0  0  0  0  0
  -28.8813  -12.1707   21.5413 O   0  0  0  0  0  0  0  0  0  0  0  0
  -25.4177  -15.1377   20.2294 O   0  0  0  0  0  0  0  0  0  0  0  0
  -24.4985  -28.8689   23.0698 O   0  0  0  0  0  0  0  0  0  0  0  0
  -13.1943  -31.6075   17.5060 O   0  0  0  0  0  0  0  0  0  0  0  0
  -29.5741  -20.5361   20.2995 O   0  0  0  0  0  0  0  0  0  1  0  0
  -28.8588  -22.8865   18.9375 O   0  0  0  0  0  0  0  0  0  0  0  0
  -10.1555  -36.2085   17.4953 F   0  0  0  0  0  0  0  0  0  0  0  0
  -10.7966  -31.7268   18.8768 F   0  0  0  0  0  0  0  0  0  0  0  0
  1  2  1  0  0  0  0
  1  5  2  0  0  0  0
  2  6  2  0  0  0  0
  3  8  2  0  0  0  0
  3 17  1  0  0  0  0
  4  9  1  0  0  0  0
  4 17  2  0  0  0  0
  5 19  1  0  0  0  0
  6 21  1  0  0  0  0
  7 10  2  0  0  0  0
  7 20  1  0  0  0  0
  8 23  1  0  0  0  0
  9 23  2  0  0  0  0
 10 24  1  0  0  0  0
 11 12  2  0  0  0  0
 11 25  1  0  0  0  0
 12 27  1  0  0  0  0
 13 22  1  0  0  0  0
 13 24  2  0  0  0  0
 14 26  1  0  0  0  0
 14 30  2  0  0  0  0
 15 27  2  0  0  0  0
 15 28  1  0  0  0  0
 16 26  2  0  0  0  0
 16 68  1  0  0  0  0
 17 29  1  0  0  0  0
 18 29  1  0  0  0  0
 18 31  2  0  0  0  0
 18 32  1  0  0  0  0
 19 21  2  0  0  0  0
 19 37  1  0  0  0  0
 20 22  2  0  0  0  0
 20 38  1  0  0  0  0
 21 50  1  0  0  0  0
 22 39  1  0  0  0  0
 23 83  1  0  0  0  0
 24 84  1  0  0  0  0
 25 28  2  0  0  0  0
 25 83  1  0  0  0  0
 26 85  1  0  0  0  0
 27 86  1  0  0  0  0
 28 87  1  0  0  0  0
 29 67  2  0  0  0  0
 30 51  1  0  0  0  0
 30 68  1  0  0  0  0
 31 69  1  0  0  0  0
 31 73  1  0  0  0  0
 32 74  1  0  0  0  0
 32 78  2  0  0  0  0
 33 52  1  0  0  0  0
 33 75  1  0  0  0  0
 33 79  2  0  0  0  0
 34 63  1  0  0  0  0
 34 70  1  0  0  0  0
 34 80  2  0  0  0  0
 35 64  1  0  0  0  0
 35 76  1  0  0  0  0
 35 81  2  0  0  0  0
 36 71  1  0  0  0  0
 36 72  1  0  0  0  0
 36 82  2  0  0  0  0
 37 40  1  0  0  0  0
 38 52  1  0  0  0  0
 39 70  1  0  0  0  0
 40 42  1  0  0  0  0
 41 43  1  0  0  0  0
 41 46  1  0  0  0  0
 42 50  1  0  0  0  0
 43 53  1  0  0  0  0
 44 47  1  0  0  0  0
 44 51  1  0  0  0  0
 45 48  1  0  0  0  0
 45 51  1  0  0  0  0
 46 71  1  0  0  0  0
 47 72  1  0  0  0  0
 48 72  1  0  0  0  0
 49 53  1  0  0  0  0
 49 71  1  0  0  0  0
 50 75  1  0  0  0  0
 52 70  1  0  0  0  0
 53 69  1  0  0  0  0
 54 64  1  0  0  0  0
 55 65  1  0  0  0  0
 56 65  1  0  0  0  0
 57 66  1  0  0  0  0
 58 66  1  0  0  0  0
 59 66  1  0  0  0  0
 60 77  1  0  0  0  0
 61 62  1  0  0  0  0
 61 84  1  0  0  0  0
 62 85  1  0  0  0  0
 63 66  1  0  0  0  0
 63 76  1  0  0  0  0
 64 77  1  0  0  0  0
 65 68  1  0  0  0  0
 67 69  1  0  0  0  0
M  CHG  1  77   1
M  ISO  4  36 100  61 101  72 100  84 101
M  END
> <Batch ID>
0145

> <Smiles>
CNC(C)C(=O)NC(C(=O)N1Cc2cc([101O:1][101CH2:1]COc3cc(C4CC[100N:0]([100C:0](=O)N5CCCC(n6nc(-c7ccc(Oc8ccc(F)cc8F)cc7)c(C(N)=O)c6N)C5)CC4)n(C(C)C)c3)ccc2CC1C(=O)NC1CCCc2ccccc21)C(C)(C)C

> <Shape>
0.230

> <Color>
0.097

> <Negative vol penalty>
0.000

$$$$

  -OEChem-04052321283D

 86 95  0     1  0  0  0  0  0999 V2000
  -17.7095  -29.1527   24.5289 C   0  0  0  0  0  0  0  0  0  0  0  0
  -18.1560  -27.8833   24.8816 C   0  0  0  0  0  0  0  0  0  0  0  0
  -23.9396   -9.7953   22.0582 C   0  0  0  0  0  0  0  0  0  0  0  0
  -24.3833  -11.2363   23.9460 C   0  0  0  0  0  0  0  0  0  0  0  0
  -18.2285  -29.7840   23.3992 C   0  0  0  0  0  0  0  0  0  0  0  0
  -19.1210  -27.2438   24.1043 C   0  0  0  0  0  0  0  0  0  0  0  0
  -23.5543  -23.5076   26.0774 C   0  0  0  0  0  0  0  0  0  0  0  0
  -23.4635   -8.8095   22.9225 C   0  0  0  0  0  0  0  0  0  0  0  0
  -23.9071  -10.2505   24.8103 C   0  0  0  0  0  0  0  0  0  0  0  0
  -23.6602  -22.1181   26.1195 C   0  0  0  0  0  0  0  0  0  0  0  0
  -20.6286   -8.1694   24.6507 C   0  0  0  0  0  0  0  0  0  0  0  0
  -19.4408   -7.5242   24.3066 C   0  0  0  0  0  0  0  0  0  0  0  0
  -24.8688  -22.1530   24.0321 C   0  0  0  0  0  0  0  0  0  0  0  0
  -25.7005  -18.4293   23.9852 C   0  0  0  0  0  0  0  0  0  0  0  0
  -20.6040   -5.4071   24.2610 C   0  0  0  0  0  0  0  0  0  0  0  0
  -24.3996  -11.0087   22.5699 C   0  0  0  0  0  0  0  0  0  0  0  0
  -24.1483  -13.0553   21.0679 C   0  0  0  0  0  0  0  0  0  0  0  0
  -19.2074  -29.1560   22.6131 C   0  0  0  0  0  0  0  0  0  0  0  0
  -24.0962  -24.2306   25.0050 C   0  0  0  0  0  0  0  0  0  0  0  0
  -19.6526  -27.8668   22.9623 C   0  0  0  0  0  0  0  0  0  0  0  0
  -24.7707  -23.5518   23.9800 C   0  0  0  0  0  0  0  0  0  0  0  0
  -26.9476  -17.8852   23.6988 C   0  0  0  0  0  0  0  0  0  0  0  0
  -28.0897  -18.4445   24.2612 C   0  0  0  0  0  0  0  0  0  0  0  0
  -23.4472   -9.0371   24.2986 C   0  0  0  0  0  0  0  0  0  0  0  0
  -24.3150  -21.4403   25.0954 C   0  0  0  0  0  0  0  0  0  0  0  0
  -21.8042   -7.4335   24.7999 C   0  0  0  0  0  0  0  0  0  0  0  0
  -19.4285   -6.1431   24.1118 C   0  0  0  0  0  0  0  0  0  0  0  0
  -21.7919   -6.0524   24.6050 C   0  0  0  0  0  0  0  0  0  0  0  0
  -24.8921  -12.0272   21.6776 C   0  0  0  0  0  0  0  0  0  0  0  0
  -27.9321  -19.5385   25.0967 C   0  0  0  0  0  0  0  0  0  0  0  0
  -25.6497  -19.5240   24.8330 C   0  0  0  0  0  0  0  0  0  1  0  0
  -25.0695  -13.7497   20.3225 C   0  0  0  0  0  0  0  0  0  0  0  0
  -22.7499  -13.3557   21.1667 C   0  0  0  0  0  0  0  0  0  0  0  0
  -22.9061  -26.1283   22.7497 C   0  0  0  0  0  0  0  0  0  0  0  0
  -26.0362  -26.5929   22.0362 C   0  0  0  0  0  0  0  0  0  0  0  0
  -29.2404  -25.4248   22.1604 C   0  0  0  0  0  0  0  0  0  0  0  0
  -31.0008  -14.4325   20.7752 C   0  0  0  0  0  0  0  0  0  0  0  0
  -19.7042  -29.8584   21.3744 C   0  0  0  0  0  0  0  0  0  0  0  0
  -23.9968  -25.7313   24.9878 C   0  0  0  0  0  0  0  0  0  0  0  0
  -25.3875  -24.2831   22.8168 C   0  0  0  0  0  0  0  0  0  0  0  0
  -20.9965  -29.2679   20.8163 C   0  0  0  0  0  0  0  0  0  0  0  0
  -29.1992  -13.1622   17.9792 C   0  0  0  0  0  0  0  0  0  0  0  0
  -20.9067  -27.7462   20.7581 C   0  0  0  0  0  0  0  0  0  0  0  0
  -29.0605  -21.6211   26.1279 C   0  0  0  0  0  0  0  0  0  0  0  0
  -29.8929  -21.2156   24.9519 C   0  0  0  0  0  0  0  0  0  0  0  0
  -27.8240  -12.8200   18.5550 C   0  0  0  0  0  0  0  0  0  0  0  0
  -30.3174  -12.8710   18.9776 C   0  0  0  0  0  0  0  0  0  0  0  0
  -28.7720  -13.1602   20.8754 C   0  0  0  0  0  0  0  0  0  0  0  0
  -20.7163  -27.1509   22.1584 C   0  0  1  0  0  0  0  0  0  0  0  0
  -29.1309  -20.1734   25.7245 C   0  0  0  0  0  0  0  0  0  0  0  0
  -24.1372  -26.3235   23.5888 C   0  0  1  0  0  0  0  0  0  0  0  0
  -27.6076  -13.4893   19.9256 C   0  0  2  0  0  0  0  0  0  0  0  0
  -27.0335  -16.7048   22.7885 C   0  0  0  0  0  0  0  0  0  0  0  0
  -31.5784  -26.0083   21.4599 C   0  0  0  0  0  0  0  0  0  0  0  0
  -25.3687  -25.8088   19.1640 C   0  0  0  0  0  0  0  0  0  0  0  0
  -27.8179  -25.4865   18.7565 C   0  0  0  0  0  0  0  0  0  0  0  0
  -26.9446  -27.7387   19.3791 C   0  0  0  0  0  0  0  0  0  0  0  0
  -30.1929  -25.4694   24.9621 C   0  0  0  0  0  0  0  0  0  0  0  0
  -29.4395  -17.8790   23.9696 C   0  0  0  0  0  0  0  0  0  0  0  0
  -31.2581  -17.4138   22.2208 C   0  0  0  0  0  0  0  0  0  0  0  0
  -31.5392  -15.9727   22.6451 C   0  0  0  0  0  0  0  0  0  0  0  0
  -27.0379  -25.9180   21.1307 C   0  0  1  0  0  0  0  0  0  0  0  0
  -30.5410  -26.0929   22.5686 C   0  0  2  0  0  0  0  0  0  0  0  0
  -29.8200  -17.8999   22.4731 C   0  0  2  0  0  0  0  0  0  0  0  0
  -26.7791  -26.2238   19.6284 C   0  0  0  0  0  0  0  0  0  0  0  0
  -26.1859  -12.0616   21.3479 N   0  0  0  0  0  0  0  0  0  0  0  0
  -26.7373  -20.0946   25.3982 N   0  0  0  0  0  0  0  0  0  0  0  0
  -26.2624  -13.1197   20.5229 N   0  0  0  0  0  0  0  0  0  0  0  0
  -25.2584  -25.7495   22.8420 N   0  0  0  0  0  0  0  0  0  0  0  0
  -30.0524  -13.5359   20.2557 N   0  0  0  0  0  0  0  0  0  0  0  0
  -24.9673  -14.8316   19.5216 N   0  0  0  0  0  0  0  0  0  0  0  0
  -21.9470  -12.5409   21.9764 N   0  0  0  0  0  0  0  0  0  0  0  0
  -21.9722  -27.1387   22.8774 N   0  0  0  0  0  0  0  0  0  0  0  0
  -28.3562  -26.3252   21.6049 N   0  0  0  0  0  0  0  0  0  0  0  0
  -30.6684  -15.0239   21.9878 N   0  0  0  0  0  0  0  0  0  0  0  0
  -29.6851  -19.3066   21.9865 N   0  3  0  0  0  0  0  0  0  0  0  0
  -31.0995  -25.4388   23.7857 N   0  3  0  0  0  0  0  0  0  0  0  0
  -22.2247  -14.3084   20.5420 O   0  0  0  0  0  0  0  0  0  0  0  0
  -22.8113  -25.1353   22.0379 O   0  0  0  0  0  0  0  0  0  0  0  0
  -25.9521  -27.8236   22.0340 O   0  0  0  0  0  0  0  0  0  0  0  0
  -29.0314  -24.2236   22.3152 O   0  0  0  0  0  0  0  0  0  0  0  0
  -32.0625  -14.6911   20.1982 O   0  0  0  0  0  0  0  0  0  0  0  0
  -22.9825   -8.0754   25.1423 O   0  0  0  0  0  0  0  0  0  0  0  0
  -24.4193  -20.0840   25.1337 O   0  0  0  0  0  0  0  0  0  1  0  0
  -18.2875   -5.5234   23.7829 F   0  0  0  0  0  0  0  0  0  0  0  0
  -22.9178   -5.3399   24.7481 F   0  0  0  0  0  0  0  0  0  0  0  0
  1  2  1  0  0  0  0
  1  5  2  0  0  0  0
  2  6  2  0  0  0  0
  3  8  2  0  0  0  0
  3 16  1  0  0  0  0
  4  9  1  0  0  0  0
  4 16  2  0  0  0  0
  5 18  1  0  0  0  0
  6 20  1  0  0  0  0
  7 10  2  0  0  0  0
  7 19  1  0  0  0  0
  8 24  1  0  0  0  0
  9 24  2  0  0  0  0
 10 25  1  0  0  0  0
 11 12  2  0  0  0  0
 11 26  1  0  0  0  0
 12 27  1  0  0  0  0
 13 21  1  0  0  0  0
 13 25  2  0  0  0  0
 14 22  2  0  0  0  0
 14 31  1  0  0  0  0
 15 27  2  0  0  0  0
 15 28  1  0  0  0  0
 16 29  1  0  0  0  0
 17 29  1  0  0  0  0
 17 32  2  0  0  0  0
 17 33  1  0  0  0  0
 18 20  2  0  0  0  0
 18 38  1  0  0  0  0
 19 21  2  0  0  0  0
 19 39  1  0  0  0  0
 20 49  1  0  0  0  0
 21 40  1  0  0  0  0
 22 23  1  0  0  0  0
 22 53  1  0  0  0  0
 23 30  2  0  0  0  0
 23 59  1  0  0  0  0
 24 83  1  0  0  0  0
 25 84  1  0  0  0  0
 26 28  2  0  0  0  0
 26 83  1  0  0  0  0
 27 85  1  0  0  0  0
 28 86  1  0  0  0  0
 29 66  2  0  0  0  0
 30 50  1  0  0  0  0
 30 67  1  0  0  0  0
 31 67  2  0  0  0  0
 31 84  1  0  0  0  0
 32 68  1  0  0  0  0
 32 71  1  0  0  0  0
 33 72  1  0  0  0  0
 33 78  2  0  0  0  0
 34 51  1  0  0  0  0
 34 73  1  0  0  0  0
 34 79  2  0  0  0  0
 35 62  1  0  0  0  0
 35 69  1  0  0  0  0
 35 80  2  0  0  0  0
 36 63  1  0  0  0  0
 36 74  1  0  0  0  0
 36 81  2  0  0  0  0
 37 70  1  0  0  0  0
 37 75  1  0  0  0  0
 37 82  2  0  0  0  0
 38 41  1  0  0  0  0
 39 51  1  0  0  0  0
 40 69  1  0  0  0  0
 41 43  1  0  0  0  0
 42 46  1  0  0  0  0
 42 47  1  0  0  0  0
 43 49  1  0  0  0  0
 44 45  1  0  0  0  0
 44 50  1  0  0  0  0
 45 50  1  0  0  0  0
 46 52  1  0  0  0  0
 47 70  1  0  0  0  0
 48 52  1  0  0  0  0
 48 70  1  0  0  0  0
 49 73  1  0  0  0  0
 51 69  1  0  0  0  0
 52 68  1  0  0  0  0
 54 63  1  0  0  0  0
 55 65  1  0  0  0  0
 56 65  1  0  0  0  0
 57 65  1  0  0  0  0
 58 77  1  0  0  0  0
 59 64  1  0  0  0  0
 60 61  1  0  0  0  0
 60 64  1  0  0  0  0
 61 75  1  0  0  0  0
 62 65  1  0  0  0  0
 62 74  1  0  0  0  0
 63 77  1  0  0  0  0
 64 76  1  0  0  0  0
 66 68  1  0  0  0  0
M  CHG  2  76   1  77   1
M  ISO  4  31 101  37 100  75 100  84 101
M  END
> <Batch ID>
0145

> <Smiles>
CNC(C)C(=O)NC(C(=O)N1Cc2cc([101O:1][101c:1]3cc(C)c(CC(N)CC[100NH:0][100C:0](=O)N4CCCC(n5nc(-c6ccc(Oc7ccc(F)cc7F)cc6)c(C(N)=O)c5N)C4)c(C4CC4)n3)ccc2CC1C(=O)NC1CCCc2ccccc21)C(C)(C)C

> <Shape>
0.221

> <Color>
0.117

> <Negative vol penalty>
0.000

$$$$

  -OEChem-04052321283D

 86 94  0     1  0  0  0  0  0999 V2000
  -22.2920  -11.9446   18.8044 C   0  0  0  0  0  0  0  0  0  0  0  0
  -22.0778  -13.3116   18.9482 C   0  0  0  0  0  0  0  0  0  0  0  0
  -29.4775  -29.2589   20.4098 C   0  0  0  0  0  0  0  0  0  0  0  0
  -28.6669  -27.7355   22.1007 C   0  0  0  0  0  0  0  0  0  0  0  0
  -23.4304  -11.3568   19.3543 C   0  0  0  0  0  0  0  0  0  0  0  0
  -23.0014  -14.0916   19.6432 C   0  0  0  0  0  0  0  0  0  0  0  0
  -24.0691  -18.4279   17.2554 C   0  0  0  0  0  0  0  0  0  0  0  0
  -30.6907  -29.3678   21.0894 C   0  0  0  0  0  0  0  0  0  0  0  0
  -29.8802  -27.8442   22.7803 C   0  0  0  0  0  0  0  0  0  0  0  0
  -23.1344  -19.4574   17.3566 C   0  0  0  0  0  0  0  0  0  0  0  0
  -33.0059  -26.5883   22.5102 C   0  0  0  0  0  0  0  0  0  0  0  0
  -33.5917  -25.4127   22.9796 C   0  0  0  0  0  0  0  0  0  0  0  0
  -24.4769  -20.4997   19.0685 C   0  0  0  0  0  0  0  0  0  0  0  0
  -33.4820  -26.2602   25.2394 C   0  0  0  0  0  0  0  0  0  0  0  0
  -28.4656  -28.4428   20.9155 C   0  0  0  0  0  0  0  0  0  0  0  0
  -26.8779  -27.3978   19.2141 C   0  0  0  0  0  0  0  0  0  0  0  0
  -24.3734  -12.1316   20.0480 C   0  0  0  0  0  0  0  0  0  0  0  0
  -25.2112  -18.4209   18.0690 C   0  0  0  0  0  0  0  0  0  0  0  0
  -24.1529  -13.5134   20.2041 C   0  0  0  0  0  0  0  0  0  0  0  0
  -25.4259  -19.4703   18.9738 C   0  0  0  0  0  0  0  0  0  0  0  0
  -30.8921  -28.6604   22.2746 C   0  0  0  0  0  0  0  0  0  0  0  0
  -23.3368  -20.4920   18.2653 C   0  0  0  0  0  0  0  0  0  0  0  0
  -32.6582  -27.5999   23.4054 C   0  0  0  0  0  0  0  0  0  0  0  0
  -33.8298  -25.2486   24.3441 C   0  0  0  0  0  0  0  0  0  0  0  0
  -32.8962  -27.4359   24.7700 C   0  0  0  0  0  0  0  0  0  0  0  0
  -27.2119  -28.3304   20.2142 C   0  0  0  0  0  0  0  0  0  0  0  0
  -25.5837  -27.7076   18.8740 C   0  0  0  0  0  0  0  0  0  0  0  0
  -27.6670  -26.3454   18.6435 C   0  0  0  0  0  0  0  0  0  0  0  0
  -26.3642  -16.4721   20.2998 C   0  0  0  0  0  0  0  0  0  0  0  0
  -28.9175  -18.4687   20.1711 C   0  0  0  0  0  0  0  0  0  0  0  0
  -30.1396  -21.5641   19.4149 C   0  0  0  0  0  0  0  0  0  0  0  0
  -21.1299  -30.4144   21.8215 C   0  0  0  0  0  0  0  0  0  0  0  0
  -25.5649  -11.4437   20.6657 C   0  0  0  0  0  0  0  0  0  0  0  0
  -26.2233  -17.3171   17.9287 C   0  0  0  0  0  0  0  0  0  0  0  0
  -26.6458  -19.5200   19.8557 C   0  0  0  0  0  0  0  0  0  0  0  0
  -26.6830  -12.4033   21.0649 C   0  0  0  0  0  0  0  0  0  0  0  0
  -22.5375  -31.3928   18.7009 C   0  0  0  0  0  0  0  0  0  0  0  0
  -26.1138  -13.6040   21.8141 C   0  0  0  0  0  0  0  0  0  0  0  0
  -23.8650  -30.6348   18.6447 C   0  0  0  0  0  0  0  0  0  0  0  0
  -19.0768  -26.6721   20.0090 C   0  0  0  0  0  0  0  0  0  0  0  0
  -20.0082  -24.5578   20.8194 C   0  0  0  0  0  0  0  0  0  0  0  0
  -22.2106  -31.8539   20.1196 C   0  0  0  0  0  0  0  0  0  0  0  0
  -23.5590  -30.0290   21.0815 C   0  0  0  0  0  0  0  0  0  0  0  0
  -25.1442  -14.3971   20.9297 C   0  0  1  0  0  0  0  0  0  0  0  0
  -27.0931  -17.1426   19.1699 C   0  0  1  0  0  0  0  0  0  0  0  0
  -19.2804  -25.8254   21.2809 C   0  0  1  0  0  0  0  0  0  0  0  0
  -19.5796  -25.8103   18.8395 C   0  0  1  0  0  0  0  0  0  0  0  0
  -23.9043  -29.4953   19.6807 C   0  0  2  0  0  0  0  0  0  0  0  0
  -19.5079  -24.3913   19.3949 C   0  0  1  0  0  0  0  0  0  0  0  0
  -32.2583  -22.9084   19.4516 C   0  0  0  0  0  0  0  0  0  0  0  0
  -20.2555  -25.6364   23.5777 C   0  0  0  0  0  0  0  0  0  0  0  0
  -17.3159  -25.6243   17.7695 C   0  0  0  0  0  0  0  0  0  0  0  0
  -18.8805  -27.4651   17.0857 C   0  0  0  0  0  0  0  0  0  0  0  0
  -28.6511  -18.8017   23.1924 C   0  0  0  0  0  0  0  0  0  0  0  0
  -30.1205  -20.8222   23.0292 C   0  0  0  0  0  0  0  0  0  0  0  0
  -31.0029  -18.5839   22.3702 C   0  0  0  0  0  0  0  0  0  0  0  0
  -30.0812  -21.9521   16.4815 C   0  0  0  0  0  0  0  0  0  0  0  0
  -19.2923  -27.8398   22.8487 C   0  0  0  0  0  0  0  0  0  0  0  0
  -20.1821  -28.8798   23.5262 C   0  0  0  0  0  0  0  0  0  0  0  0
  -20.1489  -22.0211   18.9364 C   0  0  0  0  0  0  0  0  0  0  0  0
  -21.0664  -21.1744   18.0766 C   0  0  0  0  0  0  0  0  0  1  0  0
  -29.3179  -19.7394   20.8811 C   0  0  1  0  0  0  0  0  0  0  0  0
  -31.3611  -21.9996   18.6258 C   0  0  2  0  0  0  0  0  0  0  0  0
  -20.0289  -26.5657   22.3781 C   0  0  2  0  0  0  0  0  0  0  0  0
  -18.7799  -26.0156   17.5626 C   0  0  0  0  0  0  0  0  0  0  0  0
  -29.7490  -19.4852   22.3531 C   0  0  0  0  0  0  0  0  0  0  0  0
  -26.2107  -29.1700   20.4914 N   0  0  0  0  0  0  0  0  0  0  0  0
  -25.2349  -28.7660   19.6603 N   0  0  0  0  0  0  0  0  0  0  0  0
  -27.6032  -18.4145   19.6859 N   0  0  0  0  0  0  0  0  0  0  0  0
  -22.2634  -30.7257   21.0525 N   0  0  0  0  0  0  0  0  0  0  0  0
  -24.7215  -27.1752   17.9821 N   0  0  0  0  0  0  0  0  0  0  0  0
  -28.9769  -26.1653   19.1081 N   0  0  0  0  0  0  0  0  0  0  0  0
  -25.8751  -15.2179   19.9881 N   0  0  0  0  0  0  0  0  0  0  0  0
  -30.3478  -20.3610   20.0557 N   0  0  0  0  0  0  0  0  0  0  0  0
  -21.2628  -29.3266   22.6757 N   0  0  0  0  0  0  0  0  0  0  0  0
  -20.3763  -23.4560   18.6302 N   0  3  0  0  0  0  0  0  0  0  0  0
  -30.9488  -22.7362   17.3976 N   0  3  0  0  0  0  0  0  0  0  0  0
  -27.2291  -25.5976   17.7365 O   0  0  0  0  0  0  0  0  0  0  0  0
  -26.2551  -17.0492   21.3753 O   0  0  0  0  0  0  0  0  0  0  0  0
  -29.7428  -17.5606   20.0452 O   0  0  0  0  0  0  0  0  0  0  0  0
  -29.1056  -22.2268   19.4615 O   0  0  0  0  0  0  0  0  0  0  0  0
  -20.0758  -31.0550   21.7481 O   0  0  0  0  0  0  0  0  0  0  0  0
  -32.0759  -28.7662   22.9379 O   0  0  0  0  0  0  0  0  0  0  0  0
  -22.4257  -21.4977   18.3666 O   0  0  0  0  0  0  0  0  0  1  0  0
  -34.3909  -24.1190   24.7949 F   0  0  0  0  0  0  0  0  0  0  0  0
  -32.5632  -28.4038   25.6349 F   0  0  0  0  0  0  0  0  0  0  0  0
  1  2  1  0  0  0  0
  1  5  2  0  0  0  0
  2  6  2  0  0  0  0
  3  8  2  0  0  0  0
  3 15  1  0  0  0  0
  4  9  1  0  0  0  0
  4 15  2  0  0  0  0
  5 17  1  0  0  0  0
  6 19  1  0  0  0  0
  7 10  2  0  0  0  0
  7 18  1  0  0  0  0
  8 21  1  0  0  0  0
  9 21  2  0  0  0  0
 10 22  1  0  0  0  0
 11 12  2  0  0  0  0
 11 23  1  0  0  0  0
 12 24  1  0  0  0  0
 13 20  1  0  0  0  0
 13 22  2  0  0  0  0
 14 24  2  0  0  0  0
 14 25  1  0  0  0  0
 15 26  1  0  0  0  0
 16 26  1  0  0  0  0
 16 27  2  0  0  0  0
 16 28  1  0  0  0  0
 17 19  2  0  0  0  0
 17 33  1  0  0  0  0
 18 20  2  0  0  0  0
 18 34  1  0  0  0  0
 19 44  1  0  0  0  0
 20 35  1  0  0  0  0
 21 83  1  0  0  0  0
 22 84  1  0  0  0  0
 23 25  2  0  0  0  0
 23 83  1  0  0  0  0
 24 85  1  0  0  0  0
 25 86  1  0  0  0  0
 26 67  2  0  0  0  0
 27 68  1  0  0  0  0
 27 71  1  0  0  0  0
 28 72  1  0  0  0  0
 28 78  2  0  0  0  0
 29 45  1  0  0  0  0
 29 73  1  0  0  0  0
 29 79  2  0  0  0  0
 30 62  1  0  0  0  0
 30 69  1  0  0  0  0
 30 80  2  0  0  0  0
 31 63  1  0  0  0  0
 31 74  1  0  0  0  0
 31 81  2  0  0  0  0
 32 70  1  0  0  0  0
 32 75  1  0  0  0  0
 32 82  2  0  0  0  0
 33 36  1  0  0  0  0
 34 45  1  0  0  0  0
 35 69  1  0  0  0  0
 36 38  1  0  0  0  0
 37 39  1  0  0  0  0
 37 42  1  0  0  0  0
 38 44  1  0  0  0  0
 39 48  1  0  0  0  0
 40 46  1  0  0  0  0
 40 47  1  0  0  0  0
 41 46  1  0  0  0  0
 41 49  1  0  0  0  0
 42 70  1  0  0  0  0
 43 48  1  0  0  0  0
 43 70  1  0  0  0  0
 44 73  1  0  0  0  0
 45 69  1  0  0  0  0
 46 64  1  0  0  0  0
 47 49  1  0  0  0  0
 47 65  1  0  0  0  0
 48 68  1  0  0  0  0
 49 76  1  0  0  0  0
 50 63  1  0  0  0  0
 51 64  1  0  0  0  0
 52 65  1  0  0  0  0
 53 65  1  0  0  0  0
 54 66  1  0  0  0  0
 55 66  1  0  0  0  0
 56 66  1  0  0  0  0
 57 77  1  0  0  0  0
 58 59  1  0  0  0  0
 58 64  1  0  0  0  0
 59 75  1  0  0  0  0
 60 61  1  0  0  0  0
 60 76  1  0  0  0  0
 61 84  1  0  0  0  0
 62 66  1  0  0  0  0
 62 74  1  0  0  0  0
 63 77  1  0  0  0  0
 67 68  1  0  0  0  0
M  CHG  2  76   1  77   1
M  ISO  4  32 100  61 101  75 100  84 101
M  END
> <Batch ID>
0145

> <Smiles>
CNC(C)C(=O)NC(C(=O)N1Cc2cc([101O:1][101CH2:1]CNC3CC(C(C)CC[100NH:0][100C:0](=O)N4CCCC(n5nc(-c6ccc(Oc7ccc(F)cc7F)cc6)c(C(N)=O)c5N)C4)CC3C(C)C)ccc2CC1C(=O)NC1CCCc2ccccc21)C(C)(C)C

> <Shape>
0.215

> <Color>
0.082

> <Negative vol penalty>
0.000

$$$$

  -OEChem-04052321283D

 88 98  0     1  0  0  0  0  0999 V2000
  -17.0492  -31.3380   23.4899 C   0  0  0  0  0  0  0  0  0  0  0  0
  -18.4110  -31.2646   23.2152 C   0  0  0  0  0  0  0  0  0  0  0  0
  -26.6199  -12.8854   18.8347 C   0  0  0  0  0  0  0  0  0  0  0  0
  -26.4664  -12.7789   21.2435 C   0  0  0  0  0  0  0  0  0  0  0  0
  -16.3179  -30.1699   23.7012 C   0  0  0  0  0  0  0  0  0  0  0  0
  -19.0426  -30.0230   23.1527 C   0  0  0  0  0  0  0  0  0  0  0  0
  -22.1513  -29.6227   19.1752 C   0  0  0  0  0  0  0  0  0  0  0  0
  -25.3987  -12.2201   18.7275 C   0  0  0  0  0  0  0  0  0  0  0  0
  -25.2451  -12.1136   21.1362 C   0  0  0  0  0  0  0  0  0  0  0  0
  -23.3960  -30.2428   19.2749 C   0  0  0  0  0  0  0  0  0  0  0  0
  -24.1659   -8.9773   20.4803 C   0  0  0  0  0  0  0  0  0  0  0  0
  -23.9620   -7.8620   21.2927 C   0  0  0  0  0  0  0  0  0  0  0  0
  -28.2748  -28.3038   21.6717 C   0  0  0  0  0  0  0  0  0  0  0  0
  -28.6678  -27.8952   19.3232 C   0  0  0  0  0  0  0  0  0  0  0  0
  -24.4051  -28.1177   19.8084 C   0  0  0  0  0  0  0  0  0  0  0  0
  -22.0585   -8.9496   22.3081 C   0  0  0  0  0  0  0  0  0  0  0  0
  -27.1538  -13.1648   20.0928 C   0  0  0  0  0  0  0  0  0  0  0  0
  -29.6610  -13.4283   19.7027 C   0  0  0  0  0  0  0  0  0  0  0  0
  -16.9389  -28.9128   23.6317 C   0  0  0  0  0  0  0  0  0  0  0  0
  -22.0221  -28.2450   19.4023 C   0  0  0  0  0  0  0  0  0  0  0  0
  -18.3192  -28.8370   23.3646 C   0  0  0  0  0  0  0  0  0  0  0  0
  -29.0194  -27.6995   20.6588 C   0  0  0  0  0  0  0  0  0  0  0  0
  -23.1581  -27.4821   19.7084 C   0  0  0  0  0  0  0  0  0  0  0  0
  -27.1787  -29.1037   21.3491 C   0  0  0  0  0  0  0  0  0  0  0  0
  -27.5716  -28.6951   19.0006 C   0  0  0  0  0  0  0  0  0  0  0  0
  -24.7113  -11.8342   19.8782 C   0  0  0  0  0  0  0  0  0  0  0  0
  -24.5227  -29.4908   19.5944 C   0  0  0  0  0  0  0  0  0  0  0  0
  -23.3162  -10.0789   20.5817 C   0  0  0  0  0  0  0  0  0  0  0  0
  -26.8271  -29.2994   20.0135 C   0  0  0  0  0  0  0  0  0  1  0  0
  -22.9083   -7.8481   22.2066 C   0  0  0  0  0  0  0  0  0  0  0  0
  -22.2625  -10.0650   21.4956 C   0  0  0  0  0  0  0  0  0  0  0  0
  -28.4155  -13.8516   20.2042 C   0  0  0  0  0  0  0  0  0  0  0  0
  -30.5344  -14.4233   20.0682 C   0  0  0  0  0  0  0  0  0  0  0  0
  -29.9982  -12.2419   18.9717 C   0  0  0  0  0  0  0  0  0  0  0  0
  -20.4483  -26.4564   21.5065 C   0  0  0  0  0  0  0  0  0  0  0  0
  -21.5337  -24.0198   19.6606 C   0  0  0  0  0  0  0  0  0  0  0  0
  -24.6070  -23.1570   17.9791 C   0  0  0  0  0  0  0  0  0  0  0  0
  -29.4511  -20.1986   21.3820 C   0  0  0  0  0  0  0  0  0  0  0  0
  -16.1167  -27.6804   23.9140 C   0  0  0  0  0  0  0  0  0  0  0  0
  -20.6768  -27.5866   19.2646 C   0  0  0  0  0  0  0  0  0  0  0  0
  -23.0763  -25.9964   19.9417 C   0  0  0  0  0  0  0  0  0  0  0  0
  -16.7849  -26.3852   23.4600 C   0  0  0  0  0  0  0  0  0  0  0  0
  -30.0048  -17.2778   23.8195 C   0  0  0  0  0  0  0  0  0  0  0  0
  -18.2457  -26.3560   23.8983 C   0  0  0  0  0  0  0  0  0  0  0  0
  -29.0885  -25.0305   22.3430 C   0  0  0  0  0  0  0  0  0  0  0  0
  -31.2549  -24.5774   21.1178 C   0  0  0  0  0  0  0  0  0  0  0  0
  -30.7882  -16.4538   22.8020 C   0  0  0  0  0  0  0  0  0  0  0  0
  -29.2782  -23.5999   22.8585 C   0  0  0  0  0  0  0  0  0  0  0  0
  -31.0250  -23.0627   21.1138 C   0  0  0  0  0  0  0  0  0  0  0  0
  -29.9424  -18.7440   23.4027 C   0  0  0  0  0  0  0  0  0  0  0  0
  -29.1897  -17.7338   21.2497 C   0  0  0  0  0  0  0  0  0  0  0  0
  -31.3400  -27.4593   21.7706 C   0  0  0  0  0  0  0  0  0  0  0  0
  -19.0351  -27.5075   23.2640 C   0  0  1  0  0  0  0  0  0  0  0  0
  -20.5776  -26.2659   20.0217 C   0  0  1  0  0  0  0  0  0  0  0  0
  -29.9410  -25.3633   21.1048 C   0  0  0  0  0  0  0  0  0  0  0  0
  -30.2730  -16.6462   21.3589 C   0  0  2  0  0  0  0  0  0  0  0  0
  -29.6870  -22.6457   21.7389 C   0  0  0  0  0  0  0  0  0  0  0  0
  -30.1904  -26.8450   21.0034 C   0  0  1  0  0  0  0  0  0  0  0  0
  -26.3939  -29.7420   22.4475 C   0  0  0  0  0  0  0  0  0  0  0  0
  -27.2109  -28.8929   17.5649 C   0  0  0  0  0  0  0  0  0  0  0  0
  -25.0129  -21.7431   15.9460 C   0  0  0  0  0  0  0  0  0  0  0  0
  -21.9701  -21.7664   21.6711 C   0  0  0  0  0  0  0  0  0  0  0  0
  -23.8185  -20.9165   20.2118 C   0  0  0  0  0  0  0  0  0  0  0  0
  -21.4832  -21.0044   19.3394 C   0  0  0  0  0  0  0  0  0  0  0  0
  -26.0654  -25.3385   16.6106 C   0  0  0  0  0  0  0  0  0  0  0  0
  -22.7724  -23.1571   19.6491 C   0  0  1  0  0  0  0  0  0  0  0  0
  -24.8546  -23.1577   16.4814 C   0  0  2  0  0  0  0  0  0  0  0  0
  -22.5116  -21.7378   20.2278 C   0  0  0  0  0  0  0  0  0  0  0  0
  -28.4872  -15.0240   20.8400 N   0  0  0  0  0  0  0  0  0  0  0  0
  -29.7882  -15.3459   20.7406 N   0  0  0  0  0  0  0  0  0  0  0  0
  -21.7376  -25.3998   19.8017 N   0  0  0  0  0  0  0  0  0  0  0  0
  -29.5542  -18.9371   21.9997 N   0  0  0  0  0  0  0  0  0  0  0  0
  -31.8603  -14.5902   19.8770 N   0  0  0  0  0  0  0  0  0  0  0  0
  -30.3819  -11.1011   19.6897 N   0  0  0  0  0  0  0  0  0  0  0  0
  -19.3498  -27.2048   21.8842 N   0  0  0  0  0  0  0  0  0  0  0  0
  -23.2600  -23.1614   18.2741 N   0  0  0  0  0  0  0  0  0  0  0  0
  -29.7454  -21.2801   22.2084 N   0  0  0  0  0  0  0  0  0  0  0  0
  -26.0929  -23.9227   16.1614 N   0  3  0  0  0  0  0  0  0  0  0  0
  -29.9762  -12.1997   17.7182 O   0  0  0  0  0  0  0  0  0  0  0  0
  -21.2826  -25.9598   22.2543 O   0  0  0  0  0  0  0  0  0  0  0  0
  -20.4263  -23.4895   19.5415 O   0  0  0  0  0  0  0  0  0  0  0  0
  -25.5174  -23.1492   18.8047 O   0  0  0  0  0  0  0  0  0  0  0  0
  -29.1234  -20.3470   20.2008 O   0  0  0  0  0  0  0  0  0  0  0  0
  -31.4359  -27.1778   20.3714 O   0  0  0  0  0  0  0  0  0  0  0  0
  -23.5195  -11.1851   19.7739 O   0  0  0  0  0  0  0  0  0  0  0  0
  -25.7387  -30.0936   19.6931 O   0  0  0  0  0  0  0  0  0  1  0  0
  -22.7117   -6.7764   22.9856 F   0  0  0  0  0  0  0  0  0  0  0  0
  -21.4421  -11.1198   21.5968 F   0  0  0  0  0  0  0  0  0  0  0  0
  1  2  1  0  0  0  0
  1  5  2  0  0  0  0
  2  6  2  0  0  0  0
  3  8  2  0  0  0  0
  3 17  1  0  0  0  0
  4  9  1  0  0  0  0
  4 17  2  0  0  0  0
  5 19  1  0  0  0  0
  6 21  1  0  0  0  0
  7 10  2  0  0  0  0
  7 20  1  0  0  0  0
  8 26  1  0  0  0  0
  9 26  2  0  0  0  0
 10 27  1  0  0  0  0
 11 12  2  0  0  0  0
 11 28  1  0  0  0  0
 12 30  1  0  0  0  0
 13 22  1  0  0  0  0
 13 24  2  0  0  0  0
 14 22  2  0  0  0  0
 14 25  1  0  0  0  0
 15 23  1  0  0  0  0
 15 27  2  0  0  0  0
 16 30  2  0  0  0  0
 16 31  1  0  0  0  0
 17 32  1  0  0  0  0
 18 32  1  0  0  0  0
 18 33  2  0  0  0  0
 18 34  1  0  0  0  0
 19 21  2  0  0  0  0
 19 39  1  0  0  0  0
 20 23  2  0  0  0  0
 20 40  1  0  0  0  0
 21 53  1  0  0  0  0
 22 58  1  0  0  0  0
 23 41  1  0  0  0  0
 24 29  1  0  0  0  0
 24 59  1  0  0  0  0
 25 29  2  0  0  0  0
 25 60  1  0  0  0  0
 26 85  1  0  0  0  0
 27 86  1  0  0  0  0
 28 31  2  0  0  0  0
 28 85  1  0  0  0  0
 29 86  1  0  0  0  0
 30 87  1  0  0  0  0
 31 88  1  0  0  0  0
 32 69  2  0  0  0  0
 33 70  1  0  0  0  0
 33 73  1  0  0  0  0
 34 74  1  0  0  0  0
 34 79  2  0  0  0  0
 35 54  1  0  0  0  0
 35 75  1  0  0  0  0
 35 80  2  0  0  0  0
 36 66  1  0  0  0  0
 36 71  1  0  0  0  0
 36 81  2  0  0  0  0
 37 67  1  0  0  0  0
 37 76  1  0  0  0  0
 37 82  2  0  0  0  0
 38 72  1  0  0  0  0
 38 77  1  0  0  0  0
 38 83  2  0  0  0  0
 39 42  1  0  0  0  0
 40 54  1  0  0  0  0
 41 71  1  0  0  0  0
 42 44  1  0  0  0  0
 43 47  1  0  0  0  0
 43 50  1  0  0  0  0
 44 53  1  0  0  0  0
 45 48  1  0  0  0  0
 45 55  1  0  0  0  0
 46 49  1  0  0  0  0
 46 55  1  0  0  0  0
 47 56  1  0  0  0  0
 48 57  1  0  0  0  0
 49 57  1  0  0  0  0
 50 72  1  0  0  0  0
 51 56  1  0  0  0  0
 51 72  1  0  0  0  0
 52 58  1  0  0  0  0
 52 84  1  0  0  0  0
 53 75  1  0  0  0  0
 54 71  1  0  0  0  0
 55 58  1  0  0  0  0
 56 70  1  0  0  0  0
 57 77  1  0  0  0  0
 58 84  1  0  0  0  0
 61 67  1  0  0  0  0
 62 68  1  0  0  0  0
 63 68  1  0  0  0  0
 64 68  1  0  0  0  0
 65 78  1  0  0  0  0
 66 68  1  0  0  0  0
 66 76  1  0  0  0  0
 67 78  1  0  0  0  0
 69 70  1  0  0  0  0
M  CHG  1  78   1
M  ISO  4  29 101  38 100  77 100  86 101
M  END
> <Batch ID>
0145

> <Smiles>
CNC(C)C(=O)NC(C(=O)N1Cc2cc([101O:1][101c:1]3c(C)cc(C4(C5CCC([100NH:0][100C:0](=O)N6CCCC(n7nc(-c8ccc(Oc9ccc(F)cc9F)cc8)c(C(N)=O)c7N)C6)CC5)CO4)cc3C)ccc2CC1C(=O)NC1CCCc2ccccc21)C(C)(C)C

> <Shape>
0.307

> <Color>
0.074

> <Negative vol penalty>
0.000

$$$$

  -OEChem-04052321283D

 81 89  0     1  0  0  0  0  0999 V2000
  -32.3307  -27.2959   21.4098 C   0  0  0  0  0  0  0  0  0  0  0  0
  -31.3468  -26.3144   21.3471 C   0  0  0  0  0  0  0  0  0  0  0  0
  -23.0295   -9.9078   19.9691 C   0  0  0  0  0  0  0  0  0  0  0  0
  -23.7874   -9.9296   22.2630 C   0  0  0  0  0  0  0  0  0  0  0  0
  -32.1358  -28.4271   22.2013 C   0  0  0  0  0  0  0  0  0  0  0  0
  -30.1678  -26.4630   22.0767 C   0  0  0  0  0  0  0  0  0  0  0  0
  -26.0479  -25.3096   19.3672 C   0  0  0  0  0  0  0  0  0  0  0  0
  -22.2560   -8.7781   20.2354 C   0  0  0  0  0  0  0  0  0  0  0  0
  -23.0139   -8.7999   22.5294 C   0  0  0  0  0  0  0  0  0  0  0  0
  -25.7598  -23.9569   19.1910 C   0  0  0  0  0  0  0  0  0  0  0  0
  -19.2870   -8.0794   21.6949 C   0  0  0  0  0  0  0  0  0  0  0  0
  -17.9798   -8.0595   21.2088 C   0  0  0  0  0  0  0  0  0  0  0  0
  -24.1143  -24.0844   20.9503 C   0  0  0  0  0  0  0  0  0  0  0  0
  -18.4904   -6.0831   19.9165 C   0  0  0  0  0  0  0  0  0  0  0  0
  -23.7953  -10.4836   20.9829 C   0  0  0  0  0  0  0  0  0  0  0  0
  -24.2020  -12.9970   20.8255 C   0  0  0  0  0  0  0  0  0  0  0  0
  -30.9497  -28.5942   22.9334 C   0  0  0  0  0  0  0  0  0  0  0  0
  -25.3779  -26.0585   20.3454 C   0  0  0  0  0  0  0  0  0  0  0  0
  -29.9574  -27.5968   22.8798 C   0  0  0  0  0  0  0  0  0  0  0  0
  -24.3938  -25.4470   21.1352 C   0  0  0  0  0  0  0  0  0  0  0  0
  -22.2482   -8.2241   21.5155 C   0  0  0  0  0  0  0  0  0  0  0  0
  -24.7950  -23.3434   19.9846 C   0  0  0  0  0  0  0  0  0  0  0  0
  -20.1960   -7.1012   21.2917 C   0  0  0  0  0  0  0  0  0  0  0  0
  -17.5815   -7.0614   20.3196 C   0  0  0  0  0  0  0  0  0  0  0  0
  -19.7977   -6.1030   20.4025 C   0  0  0  0  0  0  0  0  0  0  0  0
  -24.5949  -11.6503   20.7083 C   0  0  0  0  0  0  0  0  0  0  0  0
  -25.3134  -13.7127   20.4524 C   0  0  0  0  0  0  0  0  0  0  0  0
  -25.1497  -19.7424   19.2721 C   0  0  0  0  0  0  0  0  0  0  0  0
  -22.9449  -13.5516   21.2352 C   0  0  0  0  0  0  0  0  0  0  0  0
  -26.2635  -27.6428   22.9548 C   0  0  0  0  0  0  0  0  0  0  0  0
  -23.1511  -28.5563   22.9836 C   0  0  0  0  0  0  0  0  0  0  0  0
  -19.9328  -27.9084   22.0510 C   0  0  0  0  0  0  0  0  0  0  0  0
  -30.8214  -14.5931   20.6321 C   0  0  0  0  0  0  0  0  0  0  0  0
  -30.8044  -29.8114   23.8120 C   0  0  0  0  0  0  0  0  0  0  0  0
  -25.6812  -27.5231   20.5048 C   0  0  0  0  0  0  0  0  0  0  0  0
  -23.6317  -26.2116   22.1855 C   0  0  0  0  0  0  0  0  0  0  0  0
  -26.1978  -18.8272   19.8600 C   0  0  0  0  0  0  0  0  0  0  0  0
  -29.3685  -30.0711   24.2602 C   0  0  0  0  0  0  0  0  0  0  0  0
  -29.6248  -12.2031   18.2799 C   0  0  0  0  0  0  0  0  0  0  0  0
  -28.7222  -28.7811   24.7552 C   0  0  0  0  0  0  0  0  0  0  0  0
  -28.1799  -11.9530   18.7154 C   0  0  0  0  0  0  0  0  0  0  0  0
  -26.6882  -21.1334   20.3840 C   0  0  0  0  0  0  0  0  0  0  0  0
  -30.5463  -12.4182   19.4784 C   0  0  0  0  0  0  0  0  0  0  0  0
  -28.6629  -13.2187   20.8517 C   0  0  0  0  0  0  0  0  0  0  0  0
  -28.6545  -27.7337   23.6372 C   0  0  1  0  0  0  0  0  0  0  0  0
  -25.5547  -21.1998   19.3644 C   0  0  2  0  0  0  0  0  0  1  0  0
  -25.3028  -28.0654   21.8796 C   0  0  1  0  0  0  0  0  0  0  0  0
  -27.6855  -13.0516   19.6756 C   0  0  2  0  0  0  0  0  0  0  0  0
  -27.3509  -19.7998   20.0733 C   0  0  1  0  0  0  0  0  0  0  0  0
  -17.6022  -28.8163   22.2543 C   0  0  0  0  0  0  0  0  0  0  0  0
  -23.0115  -27.5475   25.8598 C   0  0  0  0  0  0  0  0  0  0  0  0
  -20.5147  -27.5924   25.6808 C   0  0  0  0  0  0  0  0  0  0  0  0
  -21.8179  -29.7072   25.4527 C   0  0  0  0  0  0  0  0  0  0  0  0
  -19.6775  -28.2285   19.1199 C   0  0  0  0  0  0  0  0  0  0  0  0
  -29.9891  -17.9247   22.0822 C   0  0  0  0  0  0  0  0  0  0  0  0
  -30.9416  -16.7595   21.8367 C   0  0  0  0  0  0  0  0  0  0  0  0
  -29.1473  -18.2505   20.8551 C   0  0  0  0  0  0  0  0  0  0  0  0
  -21.8806  -28.0050   23.5844 C   0  0  1  0  0  0  0  0  0  0  0  0
  -18.8712  -28.7887   21.4167 C   0  0  2  0  0  0  0  0  0  0  0  0
  -21.8217  -28.1979   25.1260 C   0  0  0  0  0  0  0  0  0  0  0  0
  -25.8573  -11.5157   20.2930 N   0  0  0  0  0  0  0  0  0  0  0  0
  -26.2672  -12.7871   20.1460 N   0  0  0  0  0  0  0  0  0  0  0  0
  -23.9687  -27.6396   22.3076 N   0  0  0  0  0  0  0  0  0  0  0  0
  -30.0217  -13.4737   20.3483 N   0  0  0  0  0  0  0  0  0  0  0  0
  -25.5581  -15.0370   20.3597 N   0  0  0  0  0  0  0  0  0  0  0  0
  -21.9097  -12.6739   21.5848 N   0  0  0  0  0  0  0  0  0  0  0  0
  -27.5692  -28.0342   22.7282 N   0  0  0  0  0  0  0  0  0  0  0  0
  -20.7807  -28.6338   22.8611 N   0  0  0  0  0  0  0  0  0  0  0  0
  -30.2457  -15.5495   21.4594 N   0  0  0  0  0  0  0  0  0  0  0  0
  -28.2111  -19.3637   21.1884 N   0  3  0  0  0  0  0  0  0  0  0  0
  -18.5260  -28.2859   20.0569 N   0  3  0  0  0  0  0  0  0  0  0  0
  -24.0873  -19.3513   18.8059 O   0  0  0  0  0  0  0  0  0  0  0  0
  -22.7404  -14.7886   21.2738 O   0  0  0  0  0  0  0  0  0  0  0  0
  -25.8504  -27.0099   23.9195 O   0  0  0  0  0  0  0  0  0  0  0  0
  -23.4050  -29.7574   23.1033 O   0  0  0  0  0  0  0  0  0  0  0  0
  -20.0006  -26.6976   21.8511 O   0  0  0  0  0  0  0  0  0  0  0  0
  -31.9619  -14.7324   20.1772 O   0  0  0  0  0  0  0  0  0  0  0  0
  -21.4933   -7.1218   21.7758 O   0  0  0  0  0  0  0  0  0  0  0  0
  -24.5123  -22.0231   19.8151 O   0  0  0  0  0  0  0  0  0  1  0  0
  -16.3256   -7.0415   19.8541 F   0  0  0  0  0  0  0  0  0  0  0  0
  -20.6661   -5.1599   20.0125 F   0  0  0  0  0  0  0  0  0  0  0  0
  1  2  1  0  0  0  0
  1  5  2  0  0  0  0
  2  6  2  0  0  0  0
  3  8  2  0  0  0  0
  3 15  1  0  0  0  0
  4  9  1  0  0  0  0
  4 15  2  0  0  0  0
  5 17  1  0  0  0  0
  6 19  1  0  0  0  0
  7 10  2  0  0  0  0
  7 18  1  0  0  0  0
  8 21  1  0  0  0  0
  9 21  2  0  0  0  0
 10 22  1  0  0  0  0
 11 12  2  0  0  0  0
 11 23  1  0  0  0  0
 12 24  1  0  0  0  0
 13 20  1  0  0  0  0
 13 22  2  0  0  0  0
 14 24  2  0  0  0  0
 14 25  1  0  0  0  0
 15 26  1  0  0  0  0
 16 26  1  0  0  0  0
 16 27  2  0  0  0  0
 16 29  1  0  0  0  0
 17 19  2  0  0  0  0
 17 34  1  0  0  0  0
 18 20  2  0  0  0  0
 18 35  1  0  0  0  0
 19 45  1  0  0  0  0
 20 36  1  0  0  0  0
 21 78  1  0  0  0  0
 22 79  1  0  0  0  0
 23 25  2  0  0  0  0
 23 78  1  0  0  0  0
 24 80  1  0  0  0  0
 25 81  1  0  0  0  0
 26 61  2  0  0  0  0
 27 62  1  0  0  0  0
 27 65  1  0  0  0  0
 28 37  1  0  0  0  0
 28 46  1  0  0  0  0
 28 72  2  0  0  0  0
 29 66  1  0  0  0  0
 29 73  2  0  0  0  0
 30 47  1  0  0  0  0
 30 67  1  0  0  0  0
 30 74  2  0  0  0  0
 31 58  1  0  0  0  0
 31 63  1  0  0  0  0
 31 75  2  0  0  0  0
 32 59  1  0  0  0  0
 32 68  1  0  0  0  0
 32 76  2  0  0  0  0
 33 64  1  0  0  0  0
 33 69  1  0  0  0  0
 33 77  2  0  0  0  0
 34 38  1  0  0  0  0
 35 47  1  0  0  0  0
 36 63  1  0  0  0  0
 37 49  1  0  0  0  0
 38 40  1  0  0  0  0
 39 41  1  0  0  0  0
 39 43  1  0  0  0  0
 40 45  1  0  0  0  0
 41 48  1  0  0  0  0
 42 46  1  0  0  0  0
 42 49  1  0  0  0  0
 43 64  1  0  0  0  0
 44 48  1  0  0  0  0
 44 64  1  0  0  0  0
 45 67  1  0  0  0  0
 46 79  1  0  0  0  0
 47 63  1  0  0  0  0
 48 62  1  0  0  0  0
 49 70  1  0  0  0  0
 50 59  1  0  0  0  0
 51 60  1  0  0  0  0
 52 60  1  0  0  0  0
 53 60  1  0  0  0  0
 54 71  1  0  0  0  0
 55 56  1  0  0  0  0
 55 57  1  0  0  0  0
 56 69  1  0  0  0  0
 57 70  1  0  0  0  0
 58 60  1  0  0  0  0
 58 68  1  0  0  0  0
 59 71  1  0  0  0  0
 61 62  1  0  0  0  0
M  CHG  2  70   1  71   1
M  ISO  4  33 100  46 101  69 100  79 101
M  END
> <Batch ID>
0145

> <Smiles>
CNC(C)C(=O)NC(C(=O)N1Cc2cc([101O:1][101CH:1]3CC(NCCC[100NH:0][100C:0](=O)N4CCCC(n5nc(-c6ccc(Oc7ccc(F)cc7F)cc6)c(C(N)=O)c5N)C4)CC3=O)ccc2CC1C(=O)NC1CCCc2ccccc21)C(C)(C)C

> <Shape>
0.255

> <Color>
0.203

> <Negative vol penalty>
0.000

$$$$

  -OEChem-04052321283D

 86 95  0     1  0  0  0  0  0999 V2000
  -20.7584   -8.3145   18.5672 C   0  0  0  0  0  0  0  0  0  0  0  0
  -20.5788   -9.6914   18.4820 C   0  0  0  0  0  0  0  0  0  0  0  0
  -28.6316  -28.3223   20.8402 C   0  0  0  0  0  0  0  0  0  0  0  0
  -27.1428  -26.9667   19.5050 C   0  0  0  0  0  0  0  0  0  0  0  0
  -21.6733   -7.7871   19.4776 C   0  0  0  0  0  0  0  0  0  0  0  0
  -21.3132  -10.5417   19.3080 C   0  0  0  0  0  0  0  0  0  0  0  0
  -23.4223  -16.1181   17.9076 C   0  0  0  0  0  0  0  0  0  0  0  0
  -29.6911  -27.4731   20.5212 C   0  0  0  0  0  0  0  0  0  0  0  0
  -28.2024  -26.1174   19.1859 C   0  0  0  0  0  0  0  0  0  0  0  0
  -22.9407  -17.3982   18.1779 C   0  0  0  0  0  0  0  0  0  0  0  0
  -29.9038  -23.5946   20.6594 C   0  0  0  0  0  0  0  0  0  0  0  0
  -29.6766  -22.2202   20.7300 C   0  0  0  0  0  0  0  0  0  0  0  0
  -24.3911  -17.5314   20.1008 C   0  0  0  0  0  0  0  0  0  0  0  0
  -30.2106  -22.0113   18.3830 C   0  0  0  0  0  0  0  0  0  0  0  0
  -27.3574  -28.0691   20.3322 C   0  0  0  0  0  0  0  0  0  0  0  0
  -25.8497  -30.0924   19.9573 C   0  0  0  0  0  0  0  0  0  0  0  0
  -22.4263   -8.6317   20.3084 C   0  0  0  0  0  0  0  0  0  0  0  0
  -24.3856  -15.5297   18.7396 C   0  0  0  0  0  0  0  0  0  0  0  0
  -22.2380  -10.0249   20.2313 C   0  0  0  0  0  0  0  0  0  0  0  0
  -24.8852  -16.2447   19.8374 C   0  0  0  0  0  0  0  0  0  0  0  0
  -29.4765  -26.3707   19.6940 C   0  0  0  0  0  0  0  0  0  0  0  0
  -23.4230  -18.1040   19.2762 C   0  0  0  0  0  0  0  0  0  0  0  0
  -30.2843  -24.1774   19.4505 C   0  0  0  0  0  0  0  0  0  0  0  0
  -29.8301  -21.4286   19.5918 C   0  0  0  0  0  0  0  0  0  0  0  0
  -30.4378  -23.3858   18.3124 C   0  0  0  0  0  0  0  0  0  0  0  0
  -26.2624  -28.9456   20.6619 C   0  0  0  0  0  0  0  0  0  0  0  0
  -24.7763  -30.5663   20.6714 C   0  0  0  0  0  0  0  0  0  0  0  0
  -26.3883  -30.6770   18.7641 C   0  0  0  0  0  0  0  0  0  0  0  0
  -24.4778  -12.9424   20.5839 C   0  0  0  0  0  0  0  0  0  0  0  0
  -27.5945  -13.7741   20.9256 C   0  0  0  0  0  0  0  0  0  0  0  0
  -29.9669  -16.2252   20.8242 C   0  0  0  0  0  0  0  0  0  0  0  0
  -21.0560  -27.6076   24.4754 C   0  0  0  0  0  0  0  0  0  0  0  0
  -23.3689   -8.0129   21.3099 C   0  0  0  0  0  0  0  0  0  0  0  0
  -24.9144  -14.1585   18.4191 C   0  0  0  0  0  0  0  0  0  0  0  0
  -25.9345  -15.6658   20.7498 C   0  0  0  0  0  0  0  0  0  0  0  0
  -24.3795   -9.0010   21.8865 C   0  0  0  0  0  0  0  0  0  0  0  0
  -22.9701  -30.6816   25.1011 C   0  0  0  0  0  0  0  0  0  0  0  0
  -23.6852  -10.2948   22.2997 C   0  0  0  0  0  0  0  0  0  0  0  0
  -23.6718  -22.3323   21.6694 C   0  0  0  0  0  0  0  0  0  0  0  0
  -21.3982  -21.2675   21.3480 C   0  0  0  0  0  0  0  0  0  0  0  0
  -24.0280  -30.6520   23.9974 C   0  0  0  0  0  0  0  0  0  0  0  0
  -23.0071  -23.6976   21.8451 C   0  0  0  0  0  0  0  0  0  0  0  0
  -20.7343  -22.6331   21.5240 C   0  0  0  0  0  0  0  0  0  0  0  0
  -18.4258  -26.6798   22.0262 C   0  0  0  0  0  0  0  0  0  0  0  0
  -22.5454  -29.2769   25.5227 C   0  0  0  0  0  0  0  0  0  0  0  0
  -23.1651  -28.3840   23.3083 C   0  0  0  0  0  0  0  0  0  0  0  0
  -20.1155  -28.3502   22.2279 C   0  0  0  0  0  0  0  0  0  0  0  0
  -23.0339  -10.9811   21.0929 C   0  0  1  0  0  0  0  0  0  0  0  0
  -25.5194  -13.4535   19.6292 C   0  0  1  0  0  0  0  0  0  0  0  0
  -22.8245  -21.3974   20.7942 C   0  0  0  0  0  0  0  0  0  0  0  0
  -23.5697  -29.7799   22.8140 C   0  0  2  0  0  0  0  0  0  0  0  0
  -21.5916  -23.5467   22.3955 C   0  0  0  0  0  0  0  0  0  0  0  0
  -18.6688  -28.1659   21.7914 C   0  0  2  0  0  0  0  0  0  0  0  0
  -19.2211  -26.3859   23.3045 C   0  0  1  0  0  0  0  0  0  0  0  0
  -32.4202  -16.6085   21.1878 C   0  0  0  0  0  0  0  0  0  0  0  0
  -27.1603  -13.6748   23.9442 C   0  0  0  0  0  0  0  0  0  0  0  0
  -29.2924  -14.9572   24.2229 C   0  0  0  0  0  0  0  0  0  0  0  0
  -29.3274  -12.6964   23.1693 C   0  0  0  0  0  0  0  0  0  0  0  0
  -30.3654  -17.0894   18.0219 C   0  0  0  0  0  0  0  0  0  0  0  0
  -17.6854  -30.2734   22.1292 C   0  0  0  0  0  0  0  0  0  0  0  0
  -23.4841  -20.0245   20.6776 C   0  0  0  0  0  0  0  0  0  1  0  0
  -19.7572  -24.9601   23.3233 C   0  0  0  0  0  0  0  0  0  0  0  0
  -28.3688  -14.6494   21.8813 C   0  0  1  0  0  0  0  0  0  0  0  0
  -31.3375  -16.2742   20.1734 C   0  0  2  0  0  0  0  0  0  0  0  0
  -28.5161  -14.0049   23.2885 C   0  0  0  0  0  0  0  0  0  0  0  0
  -25.5125  -28.7056   21.7408 N   0  0  0  0  0  0  0  0  0  0  0  0
  -24.6178  -29.7082   21.7196 N   0  0  0  0  0  0  0  0  0  0  0  0
  -26.4154  -14.3195   20.3983 N   0  0  0  0  0  0  0  0  0  0  0  0
  -22.1495  -28.4764   24.3639 N   0  0  0  0  0  0  0  0  0  0  0  0
  -20.2881  -27.3935   23.3267 N   0  0  0  0  0  0  0  0  0  0  0  0
  -23.9622  -31.6292   20.4987 N   0  0  0  0  0  0  0  0  0  0  0  0
  -27.4926  -30.0621   18.1585 N   0  0  0  0  0  0  0  0  0  0  0  0
  -24.0331  -11.6652   20.3004 N   0  0  0  0  0  0  0  0  0  0  0  0
  -29.6372  -14.9478   21.2250 N   0  0  0  0  0  0  0  0  0  0  0  0
  -20.9542  -24.8886   22.4589 N   0  3  0  0  0  0  0  0  0  0  0  0
  -31.3644  -17.3072   19.0996 N   0  3  0  0  0  0  0  0  0  0  0  0
  -25.9149  -31.7232   18.2593 O   0  0  0  0  0  0  0  0  0  0  0  0
  -24.1061  -13.6536   21.5100 O   0  0  0  0  0  0  0  0  0  0  0  0
  -28.0239  -12.6506   20.6514 O   0  0  0  0  0  0  0  0  0  0  0  0
  -29.2611  -17.2213   20.9665 O   0  0  0  0  0  0  0  0  0  0  0  0
  -20.7609  -27.0772   25.5541 O   0  0  0  0  0  0  0  0  0  0  0  0
  -30.5102  -25.5420   19.3822 O   0  0  0  0  0  0  0  0  0  0  0  0
  -22.9498  -19.3649   19.5451 O   0  0  0  0  0  0  0  0  0  1  0  0
  -17.8230  -28.9487   22.6244 O   0  0  0  0  0  0  0  0  0  0  0  0
  -29.6134  -20.1085   19.6602 F   0  0  0  0  0  0  0  0  0  0  0  0
  -30.8043  -23.9398   17.1485 F   0  0  0  0  0  0  0  0  0  0  0  0
  1  2  1  0  0  0  0
  1  5  2  0  0  0  0
  2  6  2  0  0  0  0
  3  8  2  0  0  0  0
  3 15  1  0  0  0  0
  4  9  1  0  0  0  0
  4 15  2  0  0  0  0
  5 17  1  0  0  0  0
  6 19  1  0  0  0  0
  7 10  2  0  0  0  0
  7 18  1  0  0  0  0
  8 21  1  0  0  0  0
  9 21  2  0  0  0  0
 10 22  1  0  0  0  0
 11 12  2  0  0  0  0
 11 23  1  0  0  0  0
 12 24  1  0  0  0  0
 13 20  1  0  0  0  0
 13 22  2  0  0  0  0
 14 24  2  0  0  0  0
 14 25  1  0  0  0  0
 15 26  1  0  0  0  0
 16 26  1  0  0  0  0
 16 27  2  0  0  0  0
 16 28  1  0  0  0  0
 17 19  2  0  0  0  0
 17 33  1  0  0  0  0
 18 20  2  0  0  0  0
 18 34  1  0  0  0  0
 19 48  1  0  0  0  0
 20 35  1  0  0  0  0
 21 82  1  0  0  0  0
 22 83  1  0  0  0  0
 23 25  2  0  0  0  0
 23 82  1  0  0  0  0
 24 85  1  0  0  0  0
 25 86  1  0  0  0  0
 26 66  2  0  0  0  0
 27 67  1  0  0  0  0
 27 71  1  0  0  0  0
 28 72  1  0  0  0  0
 28 77  2  0  0  0  0
 29 49  1  0  0  0  0
 29 73  1  0  0  0  0
 29 78  2  0  0  0  0
 30 63  1  0  0  0  0
 30 68  1  0  0  0  0
 30 79  2  0  0  0  0
 31 64  1  0  0  0  0
 31 74  1  0  0  0  0
 31 80  2  0  0  0  0
 32 69  1  0  0  0  0
 32 70  1  0  0  0  0
 32 81  2  0  0  0  0
 33 36  1  0  0  0  0
 34 49  1  0  0  0  0
 35 68  1  0  0  0  0
 36 38  1  0  0  0  0
 37 41  1  0  0  0  0
 37 45  1  0  0  0  0
 38 48  1  0  0  0  0
 39 42  1  0  0  0  0
 39 50  1  0  0  0  0
 40 43  1  0  0  0  0
 40 50  1  0  0  0  0
 41 51  1  0  0  0  0
 42 52  1  0  0  0  0
 43 52  1  0  0  0  0
 44 53  1  0  0  0  0
 44 54  1  0  0  0  0
 45 69  1  0  0  0  0
 46 51  1  0  0  0  0
 46 69  1  0  0  0  0
 47 53  1  0  0  0  0
 47 70  1  0  0  0  0
 48 73  1  0  0  0  0
 49 68  1  0  0  0  0
 50 61  1  0  0  0  0
 51 67  1  0  0  0  0
 52 75  1  0  0  0  0
 53 84  1  0  0  0  0
 54 62  1  0  0  0  0
 54 70  1  0  0  0  0
 55 64  1  0  0  0  0
 56 65  1  0  0  0  0
 57 65  1  0  0  0  0
 58 65  1  0  0  0  0
 59 76  1  0  0  0  0
 60 84  1  0  0  0  0
 61 83  1  0  0  0  0
 62 75  1  0  0  0  0
 63 65  1  0  0  0  0
 63 74  1  0  0  0  0
 64 76  1  0  0  0  0
 66 67  1  0  0  0  0
M  CHG  2  75   1  76   1
M  ISO  4  32 100  61 101  70 100  83 101
M  END
> <Batch ID>
0145

> <Smiles>
CNC(C)C(=O)NC(C(=O)N1Cc2cc([101O:1][101CH2:1]C3CCC(NCC4CC(OC)C[100N:0]4[100C:0](=O)N4CCCC(n5nc(-c6ccc(Oc7ccc(F)cc7F)cc6)c(C(N)=O)c5N)C4)CC3)ccc2CC1C(=O)NC1CCCc2ccccc21)C(C)(C)C

> <Shape>
0.303

> <Color>
0.064

> <Negative vol penalty>
0.000

$$$$

  -OEChem-04052321283D

 87 97  0     1  0  0  0  0  0999 V2000
  -27.6181  -37.9407   22.0148 C   0  0  0  0  0  0  0  0  0  0  0  0
  -28.0759  -36.8854   21.2323 C   0  0  0  0  0  0  0  0  0  0  0  0
  -23.5253   -9.9828   22.1485 C   0  0  0  0  0  0  0  0  0  0  0  0
  -24.2404   -8.6970   20.2321 C   0  0  0  0  0  0  0  0  0  0  0  0
  -26.9350  -37.6813   23.2022 C   0  0  0  0  0  0  0  0  0  0  0  0
  -27.8517  -35.5701   21.6374 C   0  0  0  0  0  0  0  0  0  0  0  0
  -26.6160  -29.0393   18.9657 C   0  0  0  0  0  0  0  0  0  0  0  0
  -22.2409   -9.4531   22.0246 C   0  0  0  0  0  0  0  0  0  0  0  0
  -22.9560   -8.1673   20.1082 C   0  0  0  0  0  0  0  0  0  0  0  0
  -27.0963  -27.7331   19.0486 C   0  0  0  0  0  0  0  0  0  0  0  0
  -19.9579   -6.2007   19.5064 C   0  0  0  0  0  0  0  0  0  0  0  0
  -19.8401   -4.8293   19.2810 C   0  0  0  0  0  0  0  0  0  0  0  0
  -29.3527  -23.4627   20.4191 C   0  0  0  0  0  0  0  0  0  0  0  0
  -25.8351  -27.4047   21.0787 C   0  0  0  0  0  0  0  0  0  0  0  0
  -27.8788  -22.7590   18.6387 C   0  0  0  0  0  0  0  0  0  0  0  0
  -20.9816   -4.3889   21.3643 C   0  0  0  0  0  0  0  0  0  0  0  0
  -24.5250   -9.6048   21.2522 C   0  0  0  0  0  0  0  0  0  0  0  0
  -26.9200   -9.6260   22.1305 C   0  0  0  0  0  0  0  0  0  0  0  0
  -26.6939  -36.3621   23.6172 C   0  0  0  0  0  0  0  0  0  0  0  0
  -25.7488  -29.5424   19.9461 C   0  0  0  0  0  0  0  0  0  0  0  0
  -27.1659  -35.2928   22.8322 C   0  0  0  0  0  0  0  0  0  0  0  0
  -29.7048  -22.1335   20.6530 C   0  0  0  0  0  0  0  0  0  0  0  0
  -25.3433  -28.7169   21.0045 C   0  0  0  0  0  0  0  0  0  0  0  0
  -29.1440  -21.1170   19.8798 C   0  0  0  0  0  0  0  0  0  0  0  0
  -28.4396  -23.7755   19.4120 C   0  0  0  0  0  0  0  0  0  0  0  0
  -21.9562   -8.5454   21.0045 C   0  0  0  0  0  0  0  0  0  0  0  0
  -26.7081  -26.9165   20.1068 C   0  0  0  0  0  0  0  0  0  0  0  0
  -20.5876   -6.6663   20.6607 C   0  0  0  0  0  0  0  0  0  0  0  0
  -28.2310  -21.4297   18.8726 C   0  0  0  0  0  0  0  0  0  0  0  0
  -20.3519   -3.9234   20.2099 C   0  0  0  0  0  0  0  0  0  0  0  0
  -21.0994   -5.7604   21.5897 C   0  0  0  0  0  0  0  0  0  0  0  0
  -25.8519  -10.1520   21.3793 C   0  0  0  0  0  0  0  0  0  0  0  0
  -27.9525  -10.5077   21.9232 C   0  0  0  0  0  0  0  0  0  0  0  0
  -26.9740   -8.4459   22.9430 C   0  0  0  0  0  0  0  0  0  0  0  0
  -25.8851  -31.9146   22.0575 C   0  0  0  0  0  0  0  0  0  0  0  0
  -22.8000  -31.0789   22.6110 C   0  0  0  0  0  0  0  0  0  0  0  0
  -20.3814  -28.6748   22.4796 C   0  0  0  0  0  0  0  0  0  0  0  0
  -27.8398  -16.2865   20.4769 C   0  0  0  0  0  0  0  0  0  0  0  0
  -25.9924  -36.1315   24.9323 C   0  0  0  0  0  0  0  0  0  0  0  0
  -25.2185  -30.9450   19.8278 C   0  0  0  0  0  0  0  0  0  0  0  0
  -24.3982  -29.2026   22.0719 C   0  0  0  0  0  0  0  0  0  0  0  0
  -25.4679  -34.7079   25.1014 C   0  0  0  0  0  0  0  0  0  0  0  0
  -29.6635  -13.6006   18.7238 C   0  0  0  0  0  0  0  0  0  0  0  0
  -32.0329  -22.4951   21.7128 C   0  0  0  0  0  0  0  0  0  0  0  0
  -31.9217  -21.0356   21.4002 C   0  0  0  0  0  0  0  0  0  0  0  0
  -26.5357  -33.6946   24.7015 C   0  0  0  0  0  0  0  0  0  0  0  0
  -28.9392  -12.3640   19.2475 C   0  0  0  0  0  0  0  0  0  0  0  0
  -29.3564  -19.1237   21.5091 C   0  0  0  0  0  0  0  0  0  0  0  0
  -28.7249  -14.7983   18.5829 C   0  0  0  0  0  0  0  0  0  0  0  0
  -27.2576  -13.8843   20.3593 C   0  0  0  0  0  0  0  0  0  0  0  0
  -30.6854  -21.8252   21.7368 C   0  0  0  0  0  0  0  0  0  0  0  0
  -29.5164  -19.6896   20.1259 C   0  0  1  0  0  0  0  0  0  0  0  0
  -26.9206  -33.8523   23.2255 C   0  0  1  0  0  0  0  0  0  0  0  0
  -24.7467  -31.5197   21.1599 C   0  0  1  0  0  0  0  0  0  0  0  0
  -28.1958  -12.6832   20.5536 C   0  0  1  0  0  0  0  0  0  0  0  0
  -28.4216  -18.6927   20.4179 C   0  0  1  0  0  0  0  0  0  0  0  0
  -27.9140  -19.1131   16.1362 C   0  0  0  0  0  0  0  0  0  0  0  0
  -17.9675  -28.2764   23.0379 C   0  0  0  0  0  0  0  0  0  0  0  0
  -23.5245  -30.8456   25.5658 C   0  0  0  0  0  0  0  0  0  0  0  0
  -21.4044  -29.5598   25.9124 C   0  0  0  0  0  0  0  0  0  0  0  0
  -21.3124  -31.9219   25.1159 C   0  0  0  0  0  0  0  0  0  0  0  0
  -19.6984  -28.1240   19.6531 C   0  0  0  0  0  0  0  0  0  0  0  0
  -28.0612  -25.2053   19.1597 C   0  0  0  0  0  0  0  0  0  1  0  0
  -27.9035  -20.5176   16.7009 C   0  0  0  0  0  0  0  0  0  0  0  0
  -22.1043  -30.1119   23.5383 C   0  0  1  0  0  0  0  0  0  0  0  0
  -18.9539  -28.7092   21.9644 C   0  0  2  0  0  0  0  0  0  0  0  0
  -22.1057  -30.6010   25.0142 C   0  0  0  0  0  0  0  0  0  0  0  0
  -26.1759  -11.2804   20.7425 N   0  0  0  0  0  0  0  0  0  0  0  0
  -27.4592  -11.4708   21.0931 N   0  0  0  0  0  0  0  0  0  0  0  0
  -23.9121  -30.5834   21.9155 N   0  0  0  0  0  0  0  0  0  0  0  0
  -27.9757  -15.0477   19.8245 N   0  0  0  0  0  0  0  0  0  0  0  0
  -29.2252  -10.5453   22.3720 N   0  0  0  0  0  0  0  0  0  0  0  0
  -25.8231   -7.6528   23.0466 N   0  0  0  0  0  0  0  0  0  0  0  0
  -25.9116  -33.2595   22.3740 N   0  0  0  0  0  0  0  0  0  0  0  0
  -20.7731  -29.8981   22.9810 N   0  0  0  0  0  0  0  0  0  0  0  0
  -28.4766  -17.3635   19.8707 N   0  0  0  0  0  0  0  0  0  0  0  0
  -18.8036  -27.7993   20.7937 N   0  3  0  0  0  0  0  0  0  0  0  0
  -28.0072   -8.1136   23.5720 O   0  0  0  0  0  0  0  0  0  0  0  0
  -26.6797  -31.0621   22.4362 O   0  0  0  0  0  0  0  0  0  0  0  0
  -22.3683  -32.2293   22.5022 O   0  0  0  0  0  0  0  0  0  0  0  0
  -21.0781  -27.6629   22.4445 O   0  0  0  0  0  0  0  0  0  0  0  0
  -27.1934  -16.4262   21.5210 O   0  0  0  0  0  0  0  0  0  0  0  0
  -20.7030   -8.0282   20.8834 O   0  0  0  0  0  0  0  0  0  0  0  0
  -27.1760  -25.6414   20.1905 O   0  0  0  0  0  0  0  0  0  1  0  0
  -27.6717  -20.4515   18.1064 O   0  0  0  0  0  0  0  0  0  0  0  0
  -20.2374   -2.6064   19.9941 F   0  0  0  0  0  0  0  0  0  0  0  0
  -21.7043   -6.2017   22.7010 F   0  0  0  0  0  0  0  0  0  0  0  0
  1  2  1  0  0  0  0
  1  5  2  0  0  0  0
  2  6  2  0  0  0  0
  3  8  2  0  0  0  0
  3 17  1  0  0  0  0
  4  9  1  0  0  0  0
  4 17  2  0  0  0  0
  5 19  1  0  0  0  0
  6 21  1  0  0  0  0
  7 10  2  0  0  0  0
  7 20  1  0  0  0  0
  8 26  1  0  0  0  0
  9 26  2  0  0  0  0
 10 27  1  0  0  0  0
 11 12  2  0  0  0  0
 11 28  1  0  0  0  0
 12 30  1  0  0  0  0
 13 22  2  0  0  0  0
 13 25  1  0  0  0  0
 14 23  1  0  0  0  0
 14 27  2  0  0  0  0
 15 25  2  0  0  0  0
 15 29  1  0  0  0  0
 16 30  2  0  0  0  0
 16 31  1  0  0  0  0
 17 32  1  0  0  0  0
 18 32  1  0  0  0  0
 18 33  2  0  0  0  0
 18 34  1  0  0  0  0
 19 21  2  0  0  0  0
 19 39  1  0  0  0  0
 20 23  2  0  0  0  0
 20 40  1  0  0  0  0
 21 53  1  0  0  0  0
 22 24  1  0  0  0  0
 22 51  1  0  0  0  0
 23 41  1  0  0  0  0
 24 29  2  0  0  0  0
 24 52  1  0  0  0  0
 25 63  1  0  0  0  0
 26 83  1  0  0  0  0
 27 84  1  0  0  0  0
 28 31  2  0  0  0  0
 28 83  1  0  0  0  0
 29 85  1  0  0  0  0
 30 86  1  0  0  0  0
 31 87  1  0  0  0  0
 32 68  2  0  0  0  0
 33 69  1  0  0  0  0
 33 72  1  0  0  0  0
 34 73  1  0  0  0  0
 34 78  2  0  0  0  0
 35 54  1  0  0  0  0
 35 74  1  0  0  0  0
 35 79  2  0  0  0  0
 36 65  1  0  0  0  0
 36 70  1  0  0  0  0
 36 80  2  0  0  0  0
 37 66  1  0  0  0  0
 37 75  1  0  0  0  0
 37 81  2  0  0  0  0
 38 71  1  0  0  0  0
 38 76  1  0  0  0  0
 38 82  2  0  0  0  0
 39 42  1  0  0  0  0
 40 54  1  0  0  0  0
 41 70  1  0  0  0  0
 42 46  1  0  0  0  0
 43 47  1  0  0  0  0
 43 49  1  0  0  0  0
 44 45  1  0  0  0  0
 44 51  1  0  0  0  0
 45 51  1  0  0  0  0
 46 53  1  0  0  0  0
 47 55  1  0  0  0  0
 48 52  1  0  0  0  0
 48 56  1  0  0  0  0
 49 71  1  0  0  0  0
 50 55  1  0  0  0  0
 50 71  1  0  0  0  0
 52 56  1  0  0  0  0
 53 74  1  0  0  0  0
 54 70  1  0  0  0  0
 55 69  1  0  0  0  0
 56 76  1  0  0  0  0
 57 64  1  0  0  0  0
 58 66  1  0  0  0  0
 59 67  1  0  0  0  0
 60 67  1  0  0  0  0
 61 67  1  0  0  0  0
 62 77  1  0  0  0  0
 63 84  1  0  0  0  0
 64 85  1  0  0  0  0
 65 67  1  0  0  0  0
 65 75  1  0  0  0  0
 66 77  1  0  0  0  0
 68 69  1  0  0  0  0
M  CHG  1  77   1
M  ISO  4  38 100  63 101  76 100  84 101
M  END
> <Batch ID>
0145

> <Smiles>
CCOc1cc([101CH2:1][101O:1]c2ccc3c(c2)CN(C(=O)C(NC(=O)C(C)NC)C(C)(C)C)C(C(=O)NC2CCCc4ccccc42)C3)cc(C2CC2)c1C1CC1[100NH:0][100C:0](=O)N1CCCC(n2nc(-c3ccc(Oc4ccc(F)cc4F)cc3)c(C(N)=O)c2N)C1

> <Shape>
0.307

> <Color>
0.090

> <Negative vol penalty>
0.000

$$$$

  -OEChem-04052321283D

 91101  0     1  0  0  0  0  0999 V2000
  -27.8583  -34.8547   21.8599 C   0  0  0  0  0  0  0  0  0  0  0  0
  -28.0672  -33.4793   21.8648 C   0  0  0  0  0  0  0  0  0  0  0  0
  -23.1481  -10.6314   21.3074 C   0  0  0  0  0  0  0  0  0  0  0  0
  -24.3170   -8.5175   21.2600 C   0  0  0  0  0  0  0  0  0  0  0  0
  -26.6585  -35.3781   22.3400 C   0  0  0  0  0  0  0  0  0  0  0  0
  -27.0769  -32.6265   22.3510 C   0  0  0  0  0  0  0  0  0  0  0  0
  -26.3326  -28.6088   19.3596 C   0  0  0  0  0  0  0  0  0  0  0  0
  -21.9583   -9.9808   20.9809 C   0  0  0  0  0  0  0  0  0  0  0  0
  -23.1272   -7.8669   20.9335 C   0  0  0  0  0  0  0  0  0  0  0  0
  -27.2589  -27.5704   19.4459 C   0  0  0  0  0  0  0  0  0  0  0  0
  -20.3497   -6.8044   22.5388 C   0  0  0  0  0  0  0  0  0  0  0  0
  -20.0496   -5.6250   23.2205 C   0  0  0  0  0  0  0  0  0  0  0  0
  -30.3721  -20.6987   19.4381 C   0  0  0  0  0  0  0  0  0  0  0  0
  -30.1683  -23.0948   19.6711 C   0  0  0  0  0  0  0  0  0  0  0  0
  -25.7376  -26.3384   20.8554 C   0  0  0  0  0  0  0  0  0  0  0  0
  -20.0266   -4.4205   21.1263 C   0  0  0  0  0  0  0  0  0  0  0  0
  -24.3275   -9.8998   21.4469 C   0  0  0  0  0  0  0  0  0  0  0  0
  -26.0632  -10.8221   23.0730 C   0  0  0  0  0  0  0  0  0  0  0  0
  -25.6491  -34.5307   22.8233 C   0  0  0  0  0  0  0  0  0  0  0  0
  -25.1042  -28.5243   20.0306 C   0  0  0  0  0  0  0  0  0  0  0  0
  -25.8630  -33.1392   22.8393 C   0  0  0  0  0  0  0  0  0  0  0  0
  -29.8425  -20.5292   20.7173 C   0  0  0  0  0  0  0  0  0  0  0  0
  -29.6386  -22.9253   20.9503 C   0  0  0  0  0  0  0  0  0  0  0  0
  -24.7963  -27.3759   20.7740 C   0  0  0  0  0  0  0  0  0  0  0  0
  -30.5351  -21.9815   18.9150 C   0  0  0  0  0  0  0  0  0  0  0  0
  -29.4756  -21.6425   21.4734 C   0  0  0  0  0  0  0  0  0  0  0  0
  -21.9478   -8.5986   20.7940 C   0  0  0  0  0  0  0  0  0  0  0  0
  -26.9627  -26.4362   20.1962 C   0  0  0  0  0  0  0  0  0  0  0  0
  -20.4882   -6.7918   21.1509 C   0  0  0  0  0  0  0  0  0  0  0  0
  -19.8881   -4.4331   22.5143 C   0  0  0  0  0  0  0  0  0  0  0  0
  -20.3266   -5.5998   20.4446 C   0  0  0  0  0  0  0  0  0  0  0  0
  -25.5570  -10.5714   21.7836 C   0  0  0  0  0  0  0  0  0  0  0  0
  -27.2482  -11.4813   22.8546 C   0  0  0  0  0  0  0  0  0  0  0  0
  -25.5116  -10.4888   24.3538 C   0  0  0  0  0  0  0  0  0  0  0  0
  -23.6831  -30.1999   22.3278 C   0  0  0  0  0  0  0  0  0  0  0  0
  -21.1806  -28.2440   21.6691 C   0  0  0  0  0  0  0  0  0  0  0  0
  -20.0830  -25.2655   20.4158 C   0  0  0  0  0  0  0  0  0  0  0  0
  -30.3412  -15.1957   20.2742 C   0  0  0  0  0  0  0  0  0  0  0  0
  -24.3878  -35.1459   23.3759 C   0  0  0  0  0  0  0  0  0  0  0  0
  -24.1047  -29.6414   19.9057 C   0  0  0  0  0  0  0  0  0  0  0  0
  -23.4832  -27.2274   21.4966 C   0  0  0  0  0  0  0  0  0  0  0  0
  -23.2401  -34.1506   23.5267 C   0  0  0  0  0  0  0  0  0  0  0  0
  -29.8951  -12.1975   18.6128 C   0  0  0  0  0  0  0  0  0  0  0  0
  -23.7302  -32.8671   24.1895 C   0  0  0  0  0  0  0  0  0  0  0  0
  -28.7685  -11.5160   19.3892 C   0  0  0  0  0  0  0  0  0  0  0  0
  -30.3386  -25.1475   22.0522 C   0  0  0  0  0  0  0  0  0  0  0  0
  -29.8092  -24.2695   23.1425 C   0  0  0  0  0  0  0  0  0  0  0  0
  -28.6931  -18.2910   20.4155 C   0  0  0  0  0  0  0  0  0  0  0  0
  -31.0259  -18.3927   21.3938 C   0  0  0  0  0  0  0  0  0  0  0  0
  -29.6201  -13.6876   18.4476 C   0  0  0  0  0  0  0  0  0  0  0  0
  -28.5555  -16.8621   20.9487 C   0  0  0  0  0  0  0  0  0  0  0  0
  -30.8242  -16.9764   21.9247 C   0  0  0  0  0  0  0  0  0  0  0  0
  -28.2813  -13.7384   20.5267 C   0  0  0  0  0  0  0  0  0  0  0  0
  -29.6768  -19.1219   21.2590 C   0  0  0  0  0  0  0  0  0  0  0  0
  -24.8028  -32.1801   23.3357 C   0  0  1  0  0  0  0  0  0  0  0  0
  -23.0959  -29.6713   21.0497 C   0  0  1  0  0  0  0  0  0  0  0  0
  -28.5119  -12.2271   20.7296 C   0  0  1  0  0  0  0  0  0  0  0  0
  -29.2543  -24.1353   21.7377 C   0  0  0  0  0  0  0  0  0  0  0  0
  -31.1009  -22.1627   17.5471 C   0  0  0  0  0  0  0  0  0  0  0  0
  -17.9869  -23.9357   20.0476 C   0  0  0  0  0  0  0  0  0  0  0  0
  -27.3860  -21.6022   24.6005 C   0  0  0  0  0  0  0  0  0  0  0  0
  -26.6088  -21.2694   22.2276 C   0  0  0  0  0  0  0  0  0  0  0  0
  -21.0995  -27.5539   24.6402 C   0  0  0  0  0  0  0  0  0  0  0  0
  -19.6777  -25.5735   24.0701 C   0  0  0  0  0  0  0  0  0  0  0  0
  -18.8564  -27.8780   23.5829 C   0  0  0  0  0  0  0  0  0  0  0  0
  -20.4834  -25.2279   17.4837 C   0  0  0  0  0  0  0  0  0  0  0  0
  -27.8666  -24.6463   21.4749 C   0  0  0  0  0  0  0  0  0  1  0  0
  -20.7128  -26.8998   22.1726 C   0  0  1  0  0  0  0  0  0  0  0  0
  -18.9649  -24.9321   19.4446 C   0  0  2  0  0  0  0  0  0  0  0  0
  -27.6368  -21.9285   23.1355 C   0  0  0  0  0  0  0  0  0  0  0  0
  -20.1122  -26.9797   23.6045 C   0  0  0  0  0  0  0  0  0  0  0  0
  -26.3551  -11.0338   20.8175 N   0  0  0  0  0  0  0  0  0  0  0  0
  -27.3747  -11.5818   21.5003 N   0  0  0  0  0  0  0  0  0  0  0  0
  -22.5416  -28.3495   21.3491 N   0  0  0  0  0  0  0  0  0  0  0  0
  -29.3780  -14.3256   19.7414 N   0  0  0  0  0  0  0  0  0  0  0  0
  -29.8756  -16.2335   21.0955 N   0  0  0  0  0  0  0  0  0  0  0  0
  -28.1838  -11.9791   23.6907 N   0  0  0  0  0  0  0  0  0  0  0  0
  -24.2857   -9.8108   24.3974 N   0  0  0  0  0  0  0  0  0  0  0  0
  -28.9386  -21.4688   22.7701 N   0  0  0  0  0  0  0  0  0  0  0  0
  -24.1932  -31.4800   22.2254 N   0  0  0  0  0  0  0  0  0  0  0  0
  -19.7910  -26.3850   21.1659 N   0  0  0  0  0  0  0  0  0  0  0  0
  -19.5231  -24.3445   18.1940 N   0  3  0  0  0  0  0  0  0  0  0  0
  -26.0807  -10.7981   25.4281 O   0  0  0  0  0  0  0  0  0  0  0  0
  -23.6728  -29.4988   23.3328 O   0  0  0  0  0  0  0  0  0  0  0  0
  -20.3669  -29.1643   21.5569 O   0  0  0  0  0  0  0  0  0  0  0  0
  -21.1108  -24.5974   20.5030 O   0  0  0  0  0  0  0  0  0  0  0  0
  -31.5462  -15.0538   20.0315 O   0  0  0  0  0  0  0  0  0  0  0  0
  -20.7869   -7.9633   20.4756 O   0  0  0  0  0  0  0  0  0  0  0  0
  -27.8733  -25.4127   20.2834 O   0  0  0  0  0  0  0  0  0  1  0  0
  -19.6014   -3.3003   23.1691 F   0  0  0  0  0  0  0  0  0  0  0  0
  -20.4596   -5.5813   19.1113 F   0  0  0  0  0  0  0  0  0  0  0  0
  1  2  1  0  0  0  0
  1  5  2  0  0  0  0
  2  6  2  0  0  0  0
  3  8  2  0  0  0  0
  3 17  1  0  0  0  0
  4  9  1  0  0  0  0
  4 17  2  0  0  0  0
  5 19  1  0  0  0  0
  6 21  1  0  0  0  0
  7 10  2  0  0  0  0
  7 20  1  0  0  0  0
  8 27  1  0  0  0  0
  9 27  2  0  0  0  0
 10 28  1  0  0  0  0
 11 12  2  0  0  0  0
 11 29  1  0  0  0  0
 12 30  1  0  0  0  0
 13 22  2  0  0  0  0
 13 25  1  0  0  0  0
 14 23  1  0  0  0  0
 14 25  2  0  0  0  0
 15 24  1  0  0  0  0
 15 28  2  0  0  0  0
 16 30  2  0  0  0  0
 16 31  1  0  0  0  0
 17 32  1  0  0  0  0
 18 32  1  0  0  0  0
 18 33  2  0  0  0  0
 18 34  1  0  0  0  0
 19 21  2  0  0  0  0
 19 39  1  0  0  0  0
 20 24  2  0  0  0  0
 20 40  1  0  0  0  0
 21 55  1  0  0  0  0
 22 26  1  0  0  0  0
 22 54  1  0  0  0  0
 23 26  2  0  0  0  0
 23 58  1  0  0  0  0
 24 41  1  0  0  0  0
 25 59  1  0  0  0  0
 26 79  1  0  0  0  0
 27 88  1  0  0  0  0
 28 89  1  0  0  0  0
 29 31  2  0  0  0  0
 29 88  1  0  0  0  0
 30 90  1  0  0  0  0
 31 91  1  0  0  0  0
 32 72  2  0  0  0  0
 33 73  1  0  0  0  0
 33 77  1  0  0  0  0
 34 78  1  0  0  0  0
 34 83  2  0  0  0  0
 35 56  1  0  0  0  0
 35 80  1  0  0  0  0
 35 84  2  0  0  0  0
 36 68  1  0  0  0  0
 36 74  1  0  0  0  0
 36 85  2  0  0  0  0
 37 69  1  0  0  0  0
 37 81  1  0  0  0  0
 37 86  2  0  0  0  0
 38 75  1  0  0  0  0
 38 76  1  0  0  0  0
 38 87  2  0  0  0  0
 39 42  1  0  0  0  0
 40 56  1  0  0  0  0
 41 74  1  0  0  0  0
 42 44  1  0  0  0  0
 43 45  1  0  0  0  0
 43 50  1  0  0  0  0
 44 55  1  0  0  0  0
 45 57  1  0  0  0  0
 46 47  1  0  0  0  0
 46 58  1  0  0  0  0
 47 58  1  0  0  0  0
 48 51  1  0  0  0  0
 48 54  1  0  0  0  0
 49 52  1  0  0  0  0
 49 54  1  0  0  0  0
 50 75  1  0  0  0  0
 51 76  1  0  0  0  0
 52 76  1  0  0  0  0
 53 57  1  0  0  0  0
 53 75  1  0  0  0  0
 55 80  1  0  0  0  0
 56 74  1  0  0  0  0
 57 73  1  0  0  0  0
 58 67  1  0  0  0  0
 60 69  1  0  0  0  0
 61 70  1  0  0  0  0
 62 70  1  0  0  0  0
 63 71  1  0  0  0  0
 64 71  1  0  0  0  0
 65 71  1  0  0  0  0
 66 82  1  0  0  0  0
 67 89  1  0  0  0  0
 68 71  1  0  0  0  0
 68 81  1  0  0  0  0
 69 82  1  0  0  0  0
 70 79  1  0  0  0  0
 72 73  1  0  0  0  0
M  CHG  1  82   1
M  ISO  4  38 100  67 101  76 100  89 101
M  END
> <Batch ID>
0145

> <Smiles>
CNC(C)C(=O)NC(C(=O)N1Cc2cc([101O:1][101CH2:1]C3(c4cc(C)cc(C5CC[100N:0]([100C:0](=O)N6CCCC(n7nc(-c8ccc(Oc9ccc(F)cc9F)cc8)c(C(N)=O)c7N)C6)CC5)c4NC(C)C)CC3)ccc2CC1C(=O)NC1CCCc2ccccc21)C(C)(C)C

> <Shape>
0.314

> <Color>
0.091

> <Negative vol penalty>
0.000

$$$$

  -OEChem-04052321283D

 94104  0     1  0  0  0  0  0999 V2000
  -27.0536  -27.8178   14.6369 C   0  0  0  0  0  0  0  0  0  0  0  0
  -26.3599  -27.1935   15.6687 C   0  0  0  0  0  0  0  0  0  0  0  0
  -30.4620  -19.9340   20.6830 C   0  0  0  0  0  0  0  0  0  0  0  0
  -28.3324  -19.2408   19.7768 C   0  0  0  0  0  0  0  0  0  0  0  0
  -27.9550  -28.8420   14.9242 C   0  0  0  0  0  0  0  0  0  0  0  0
  -26.5681  -27.5923   16.9885 C   0  0  0  0  0  0  0  0  0  0  0  0
  -22.2417  -28.0914   19.5726 C   0  0  0  0  0  0  0  0  0  0  0  0
  -22.1588  -19.0650   20.6754 C   0  0  0  0  0  0  0  0  0  0  0  0
  -30.3997  -21.1076   19.9319 C   0  0  0  0  0  0  0  0  0  0  0  0
  -28.2700  -20.4145   19.0256 C   0  0  0  0  0  0  0  0  0  0  0  0
  -21.6343  -26.9225   20.0292 C   0  0  0  0  0  0  0  0  0  0  0  0
  -22.3860  -17.7648   20.2244 C   0  0  0  0  0  0  0  0  0  0  0  0
  -28.8393  -24.1018   20.1141 C   0  0  0  0  0  0  0  0  0  0  0  0
  -29.1674  -25.2979   20.7521 C   0  0  0  0  0  0  0  0  0  0  0  0
  -22.5583  -27.3069   22.2241 C   0  0  0  0  0  0  0  0  0  0  0  0
  -21.9878  -16.9221   22.4534 C   0  0  0  0  0  0  0  0  0  0  0  0
  -23.3955  -21.9288   21.4764 C   0  0  0  0  0  0  0  0  0  0  0  0
  -30.9570  -25.6519   19.1680 C   0  0  0  0  0  0  0  0  0  0  0  0
  -29.4284  -19.0005   20.6054 C   0  0  0  0  0  0  0  0  0  0  0  0
  -29.5682  -17.6775   22.7821 C   0  0  0  0  0  0  0  0  0  0  0  0
  -28.1671  -29.2601   16.2474 C   0  0  0  0  0  0  0  0  0  0  0  0
  -23.0222  -28.8724   20.4370 C   0  0  0  0  0  0  0  0  0  0  0  0
  -27.4742  -28.6222   17.2939 C   0  0  0  0  0  0  0  0  0  0  0  0
  -23.1724  -28.4866   21.7767 C   0  0  0  0  0  0  0  0  0  0  0  0
  -21.7607  -18.2223   22.9044 C   0  0  0  0  0  0  0  0  0  0  0  0
  -21.3589  -23.0175   22.1485 C   0  0  0  0  0  0  0  0  0  0  0  0
  -21.8462  -19.2938   22.0154 C   0  0  0  0  0  0  0  0  0  0  0  0
  -22.1207  -21.8605   22.0274 C   0  0  0  0  0  0  0  0  0  0  0  0
  -29.3037  -21.3479   19.1032 C   0  0  0  0  0  0  0  0  0  0  0  0
  -21.7949  -26.5286   21.3544 C   0  0  0  0  0  0  0  0  0  0  0  0
  -22.3005  -16.6933   21.1133 C   0  0  0  0  0  0  0  0  0  0  0  0
  -29.5700  -23.6806   19.0031 C   0  0  0  0  0  0  0  0  0  0  0  0
  -30.2263  -26.0730   20.2791 C   0  0  0  0  0  0  0  0  0  0  0  0
  -30.6288  -24.4556   18.5300 C   0  0  0  0  0  0  0  0  0  0  0  0
  -29.4925  -17.7877   21.3807 C   0  0  0  0  0  0  0  0  0  0  0  0
  -23.8588  -23.1682   21.0652 C   0  0  0  0  0  0  0  0  0  0  0  0
  -21.9133  -24.2082   21.7072 C   0  0  0  0  0  0  0  0  0  1  0  0
  -29.6066  -16.3251   23.0187 C   0  0  0  0  0  0  0  0  0  0  0  0
  -29.6009  -18.7058   23.7808 C   0  0  0  0  0  0  0  0  0  0  0  0
  -26.0723  -29.7636   20.5165 C   0  0  0  0  0  0  0  0  0  0  0  0
  -25.0784  -31.5565   23.0304 C   0  0  0  0  0  0  0  0  0  0  0  0
  -22.8058  -32.0310   25.5318 C   0  0  0  0  0  0  0  0  0  0  0  0
  -27.7121  -11.5880   20.1234 C   0  0  0  0  0  0  0  0  0  0  0  0
  -29.1866  -30.3393   16.5130 C   0  0  0  0  0  0  0  0  0  0  0  0
  -23.6488  -30.1447   19.9359 C   0  0  0  0  0  0  0  0  0  0  0  0
  -23.9836  -29.3007   22.7502 C   0  0  0  0  0  0  0  0  0  0  0  0
  -29.0714  -30.9569   17.9043 C   0  0  0  0  0  0  0  0  0  0  0  0
  -30.9903  -12.2040   21.0334 C   0  0  0  0  0  0  0  0  0  0  0  0
  -28.9280  -29.8671   18.9619 C   0  0  0  0  0  0  0  0  0  0  0  0
  -30.9997  -13.6955   21.3681 C   0  0  0  0  0  0  0  0  0  0  0  0
  -24.5272  -12.4528   21.8072 C   0  0  0  0  0  0  0  0  0  0  0  0
  -25.0010  -14.1682   20.0235 C   0  0  0  0  0  0  0  0  0  0  0  0
  -30.1434  -11.9275   19.7963 C   0  0  0  0  0  0  0  0  0  0  0  0
  -25.4401  -11.4703   21.0787 C   0  0  0  0  0  0  0  0  0  0  0  0
  -25.8998  -13.1524   19.3262 C   0  0  0  0  0  0  0  0  0  0  0  0
  -28.7293  -13.9068   20.2416 C   0  0  0  0  0  0  0  0  0  0  0  0
  -27.6544  -29.0434   18.7362 C   0  0  1  0  0  0  0  0  0  0  0  0
  -24.8445  -30.5913   20.7714 C   0  0  1  0  0  0  0  0  0  0  0  0
  -23.9063  -13.4722   20.8434 C   0  0  0  0  0  0  0  0  0  0  0  0
  -29.5667  -14.2431   21.4919 C   0  0  2  0  0  0  0  0  0  0  0  0
  -21.4268  -18.4383   24.3446 C   0  0  0  0  0  0  0  0  0  0  0  0
  -19.9876  -22.9848   22.7355 C   0  0  0  0  0  0  0  0  0  0  0  0
  -25.2223  -23.2788   20.4689 C   0  0  0  0  0  0  0  0  0  0  0  0
  -22.2775  -33.5614   27.4491 C   0  0  0  0  0  0  0  0  0  0  0  0
  -27.3079  -30.2698   24.6687 C   0  0  0  0  0  0  0  0  0  0  0  0
  -26.1611  -31.0844   26.7398 C   0  0  0  0  0  0  0  0  0  0  0  0
  -27.0082  -32.7218   25.0593 C   0  0  0  0  0  0  0  0  0  0  0  0
  -20.1985  -32.7925   24.3568 C   0  0  0  0  0  0  0  0  0  0  0  0
  -23.0628  -14.4942   21.6018 C   0  0  0  0  0  0  0  0  0  0  0  0
  -24.9622  -31.3381   24.5197 C   0  0  1  0  0  0  0  0  0  0  0  0
  -22.0403  -33.2641   25.9767 C   0  0  2  0  0  0  0  0  0  0  0  0
  -26.3461  -31.3369   25.2283 C   0  0  0  0  0  0  0  0  0  0  0  0
  -29.4833  -16.5999   20.7699 N   0  0  0  0  0  0  0  0  0  0  0  0
  -23.1480  -24.3137   21.1667 N   0  0  0  0  0  0  0  0  0  0  0  0
  -29.5539  -15.7306   21.7923 N   0  0  0  0  0  0  0  0  0  0  0  0
  -24.5816  -30.5332   22.2107 N   0  0  0  0  0  0  0  0  0  0  0  0
  -28.7924  -12.4666   19.9514 N   0  0  0  0  0  0  0  0  0  0  0  0
  -26.4409  -12.1671   20.2719 N   0  0  0  0  0  0  0  0  0  0  0  0
  -29.6800  -15.5984   24.1539 N   0  0  0  0  0  0  0  0  0  0  0  0
  -28.3860  -19.1613   24.3107 N   0  0  0  0  0  0  0  0  0  0  0  0
  -21.6193  -20.6167   22.4540 N   0  0  0  0  0  0  0  0  0  0  0  0
  -26.4928  -29.7714   19.2002 N   0  0  0  0  0  0  0  0  0  0  0  0
  -24.0402  -32.3566   25.0108 N   0  0  0  0  0  0  0  0  0  0  0  0
  -20.5778  -33.0698   25.7661 N   0  3  0  0  0  0  0  0  0  0  0  0
  -30.6747  -19.2174   24.1791 O   0  0  0  0  0  0  0  0  0  0  0  0
  -26.6001  -29.1635   21.4455 O   0  0  0  0  0  0  0  0  0  0  0  0
  -25.5846  -32.5998   22.6099 O   0  0  0  0  0  0  0  0  0  0  0  0
  -22.3554  -30.8925   25.6394 O   0  0  0  0  0  0  0  0  0  0  0  0
  -27.8711  -10.3611   20.1477 O   0  0  0  0  0  0  0  0  0  0  0  0
  -29.2424  -22.4932   18.3703 O   0  0  0  0  0  0  0  0  0  0  0  0
  -21.1952  -25.3714   21.8089 O   0  0  0  0  0  0  0  0  0  1  0  0
  -22.5248  -15.4134   20.6694 O   0  0  0  0  0  0  0  0  0  0  0  0
  -30.5403  -27.2224   20.8909 F   0  0  0  0  0  0  0  0  0  0  0  0
  -31.3336  -24.0568   17.4623 F   0  0  0  0  0  0  0  0  0  0  0  0
  1  2  1  0  0  0  0
  1  5  2  0  0  0  0
  2  6  2  0  0  0  0
  3  9  2  0  0  0  0
  3 19  1  0  0  0  0
  4 10  1  0  0  0  0
  4 19  2  0  0  0  0
  5 21  1  0  0  0  0
  6 23  1  0  0  0  0
  7 11  2  0  0  0  0
  7 22  1  0  0  0  0
  8 12  2  0  0  0  0
  8 27  1  0  0  0  0
  9 29  1  0  0  0  0
 10 29  2  0  0  0  0
 11 30  1  0  0  0  0
 12 31  1  0  0  0  0
 13 14  2  0  0  0  0
 13 32  1  0  0  0  0
 14 33  1  0  0  0  0
 15 24  1  0  0  0  0
 15 30  2  0  0  0  0
 16 25  1  0  0  0  0
 16 31  2  0  0  0  0
 17 28  2  0  0  0  0
 17 36  1  0  0  0  0
 18 33  2  0  0  0  0
 18 34  1  0  0  0  0
 19 35  1  0  0  0  0
 20 35  1  0  0  0  0
 20 38  2  0  0  0  0
 20 39  1  0  0  0  0
 21 23  2  0  0  0  0
 21 44  1  0  0  0  0
 22 24  2  0  0  0  0
 22 45  1  0  0  0  0
 23 57  1  0  0  0  0
 24 46  1  0  0  0  0
 25 27  2  0  0  0  0
 25 61  1  0  0  0  0
 26 28  1  0  0  0  0
 26 37  2  0  0  0  0
 26 62  1  0  0  0  0
 27 81  1  0  0  0  0
 28 81  1  0  0  0  0
 29 90  1  0  0  0  0
 30 91  1  0  0  0  0
 31 92  1  0  0  0  0
 32 34  2  0  0  0  0
 32 90  1  0  0  0  0
 33 93  1  0  0  0  0
 34 94  1  0  0  0  0
 35 73  2  0  0  0  0
 36 63  1  0  0  0  0
 36 74  2  0  0  0  0
 37 74  1  0  0  0  0
 37 91  1  0  0  0  0
 38 75  1  0  0  0  0
 38 79  1  0  0  0  0
 39 80  1  0  0  0  0
 39 85  2  0  0  0  0
 40 58  1  0  0  0  0
 40 82  1  0  0  0  0
 40 86  2  0  0  0  0
 41 70  1  0  0  0  0
 41 76  1  0  0  0  0
 41 87  2  0  0  0  0
 42 71  1  0  0  0  0
 42 83  1  0  0  0  0
 42 88  2  0  0  0  0
 43 77  1  0  0  0  0
 43 78  1  0  0  0  0
 43 89  2  0  0  0  0
 44 47  1  0  0  0  0
 45 58  1  0  0  0  0
 46 76  1  0  0  0  0
 47 49  1  0  0  0  0
 48 50  1  0  0  0  0
 48 53  1  0  0  0  0
 49 57  1  0  0  0  0
 50 60  1  0  0  0  0
 51 54  1  0  0  0  0
 51 59  1  0  0  0  0
 52 55  1  0  0  0  0
 52 59  1  0  0  0  0
 53 77  1  0  0  0  0
 54 78  1  0  0  0  0
 55 78  1  0  0  0  0
 56 60  1  0  0  0  0
 56 77  1  0  0  0  0
 57 82  1  0  0  0  0
 58 76  1  0  0  0  0
 59 69  1  0  0  0  0
 60 75  1  0  0  0  0
 64 71  1  0  0  0  0
 65 72  1  0  0  0  0
 66 72  1  0  0  0  0
 67 72  1  0  0  0  0
 68 84  1  0  0  0  0
 69 92  1  0  0  0  0
 70 72  1  0  0  0  0
 70 83  1  0  0  0  0
 71 84  1  0  0  0  0
 73 75  1  0  0  0  0
M  CHG  1  84   1
M  ISO  4  37 101  43 100  78 100  91 101
M  END
> <Batch ID>
0145

> <Smiles>
CNC(C)C(=O)NC(C(=O)N1Cc2cc([101O:1][101c:1]3nc(C)cc(Nc4ccc(OCC5CC[100N:0]([100C:0](=O)N6CCCC(n7nc(-c8ccc(Oc9ccc(F)cc9F)cc8)c(C(N)=O)c7N)C6)CC5)cc4C)c3C)ccc2CC1C(=O)NC1CCCc2ccccc21)C(C)(C)C

> <Shape>
0.282

> <Color>
0.066

> <Negative vol penalty>
0.000

$$$$

  -OEChem-04052321283D

 87 96  0     1  0  0  0  0  0999 V2000
  -26.2411  -38.4927   21.9228 C   0  0  0  0  0  0  0  0  0  0  0  0
  -27.1927  -37.5642   21.5131 C   0  0  0  0  0  0  0  0  0  0  0  0
  -23.4684   -9.7259   19.9093 C   0  0  0  0  0  0  0  0  0  0  0  0
  -24.0145   -9.9149   22.2552 C   0  0  0  0  0  0  0  0  0  0  0  0
  -25.4157  -38.2097   23.0103 C   0  0  0  0  0  0  0  0  0  0  0  0
  -27.3202  -36.3526   22.1914 C   0  0  0  0  0  0  0  0  0  0  0  0
  -26.9144  -29.0368   19.4818 C   0  0  0  0  0  0  0  0  0  0  0  0
  -22.8803   -8.4835   20.1463 C   0  0  0  0  0  0  0  0  0  0  0  0
  -23.4263   -8.6725   22.4922 C   0  0  0  0  0  0  0  0  0  0  0  0
  -26.7066  -27.6982   19.1487 C   0  0  0  0  0  0  0  0  0  0  0  0
  -20.3073   -7.4245   22.8597 C   0  0  0  0  0  0  0  0  0  0  0  0
  -19.4640   -7.3086   23.9647 C   0  0  0  0  0  0  0  0  0  0  0  0
  -26.0166  -27.2294   21.4185 C   0  0  0  0  0  0  0  0  0  0  0  0
  -20.9032   -5.5994   24.8837 C   0  0  0  0  0  0  0  0  0  0  0  0
  -24.0356  -10.4415   20.9637 C   0  0  0  0  0  0  0  0  0  0  0  0
  -24.0174  -12.9847   20.7640 C   0  0  0  0  0  0  0  0  0  0  0  0
  -25.5266  -36.9899   23.6962 C   0  0  0  0  0  0  0  0  0  0  0  0
  -26.6591  -29.4806   20.7823 C   0  0  0  0  0  0  0  0  0  0  0  0
  -26.4964  -36.0536   23.2899 C   0  0  0  0  0  0  0  0  0  0  0  0
  -26.2110  -28.5717   21.7549 C   0  0  0  0  0  0  0  0  0  0  0  0
  -22.8592   -7.9568   21.4377 C   0  0  0  0  0  0  0  0  0  0  0  0
  -26.2590  -26.7967   20.1148 C   0  0  0  0  0  0  0  0  0  0  0  0
  -21.4485   -6.6278   22.7666 C   0  0  0  0  0  0  0  0  0  0  0  0
  -19.7620   -6.3961   24.9767 C   0  0  0  0  0  0  0  0  0  0  0  0
  -21.7465   -5.7153   23.7787 C   0  0  0  0  0  0  0  0  0  0  0  0
  -24.6438  -11.7247   20.7195 C   0  0  0  0  0  0  0  0  0  0  0  0
  -25.0172  -13.8761   20.4603 C   0  0  0  0  0  0  0  0  0  0  0  0
  -22.6537  -13.3193   21.0540 C   0  0  0  0  0  0  0  0  0  0  0  0
  -26.6163  -32.3620   23.1847 C   0  0  0  0  0  0  0  0  0  0  0  0
  -24.1061  -30.6921   23.7512 C   0  0  0  0  0  0  0  0  0  0  0  0
  -21.2544  -28.8202   23.7755 C   0  0  0  0  0  0  0  0  0  0  0  0
  -30.2575  -15.7005   21.0570 C   0  0  0  0  0  0  0  0  0  0  0  0
  -24.6443  -36.7487   24.8954 C   0  0  0  0  0  0  0  0  0  0  0  0
  -26.9278  -30.9005   21.2014 C   0  0  0  0  0  0  0  0  0  0  0  0
  -25.9826  -29.0867   23.1498 C   0  0  0  0  0  0  0  0  0  0  0  0
  -24.5896  -35.2854   25.3267 C   0  0  0  0  0  0  0  0  0  0  0  0
  -29.6917  -13.1025   18.6891 C   0  0  0  0  0  0  0  0  0  0  0  0
  -25.9928  -34.6889   25.3708 C   0  0  0  0  0  0  0  0  0  0  0  0
  -29.9835  -20.3132   21.5436 C   0  0  0  0  0  0  0  0  0  0  0  0
  -29.7166  -19.6678   23.9726 C   0  0  0  0  0  0  0  0  0  0  0  0
  -26.2179  -22.0386   21.2526 C   0  0  0  0  0  0  0  0  0  0  0  0
  -27.9742  -23.4991   22.3382 C   0  0  0  0  0  0  0  0  0  0  0  0
  -28.2795  -12.6126   19.0141 C   0  0  0  0  0  0  0  0  0  0  0  0
  -29.5665  -18.9041   21.1212 C   0  0  0  0  0  0  0  0  0  0  0  0
  -29.3000  -18.2573   23.5545 C   0  0  0  0  0  0  0  0  0  0  0  0
  -25.9302  -23.1433   20.2404 C   0  0  0  0  0  0  0  0  0  0  0  0
  -27.6812  -24.6000   21.3232 C   0  0  0  0  0  0  0  0  0  0  0  0
  -30.4579  -13.4930   19.9511 C   0  0  0  0  0  0  0  0  0  0  0  0
  -28.3558  -13.9764   21.1431 C   0  0  0  0  0  0  0  0  0  0  0  0
  -26.6483  -34.7178   23.9848 C   0  0  1  0  0  0  0  0  0  0  0  0
  -25.9219  -31.4229   22.2427 C   0  0  1  0  0  0  0  0  0  0  0  0
  -29.4096  -20.7286   22.9058 C   0  0  0  0  0  0  0  0  0  0  0  0
  -27.6615  -22.1079   21.7697 C   0  0  0  0  0  0  0  0  0  0  0  0
  -27.5246  -13.6239   19.8976 C   0  0  2  0  0  0  0  0  0  0  0  0
  -29.9021  -17.8737   22.2016 C   0  0  0  0  0  0  0  0  0  0  0  0
  -26.2455  -24.5247   20.8079 C   0  0  0  0  0  0  0  0  0  1  0  0
  -19.0500  -28.6040   24.9552 C   0  0  0  0  0  0  0  0  0  0  0  0
  -28.2536  -22.2923   25.0331 C   0  0  0  0  0  0  0  0  0  0  0  0
  -25.5142  -29.4261   26.1425 C   0  0  0  0  0  0  0  0  0  0  0  0
  -23.3249  -28.4055   26.8012 C   0  0  0  0  0  0  0  0  0  0  0  0
  -23.5709  -30.8868   26.7291 C   0  0  0  0  0  0  0  0  0  0  0  0
  -19.7395  -29.3061   21.2799 C   0  0  0  0  0  0  0  0  0  0  0  0
  -23.4786  -29.5870   24.5625 C   0  0  1  0  0  0  0  0  0  0  0  0
  -19.7890  -29.2165   23.7755 C   0  0  2  0  0  0  0  0  0  0  0  0
  -27.9103  -21.0276   22.8207 C   0  0  2  0  0  0  0  0  0  0  0  0
  -27.3163  -21.4361   24.1880 C   0  0  1  0  0  0  0  0  0  0  0  0
  -23.9832  -29.5715   26.0331 C   0  0  0  0  0  0  0  0  0  0  0  0
  -25.9410  -11.8044   20.4116 N   0  0  0  0  0  0  0  0  0  0  0  0
  -26.1379  -13.1251   20.2598 N   0  0  0  0  0  0  0  0  0  0  0  0
  -25.3084  -30.3934   23.0987 N   0  0  0  0  0  0  0  0  0  0  0  0
  -29.6884  -14.4552   20.7435 N   0  0  0  0  0  0  0  0  0  0  0  0
  -25.0382  -15.2212   20.3478 N   0  0  0  0  0  0  0  0  0  0  0  0
  -21.7584  -12.2811   21.3453 N   0  0  0  0  0  0  0  0  0  0  0  0
  -26.1249  -33.6532   23.1559 N   0  0  0  0  0  0  0  0  0  0  0  0
  -22.0352  -29.7508   24.4278 N   0  0  0  0  0  0  0  0  0  0  0  0
  -29.4584  -16.5556   21.8060 N   0  0  0  0  0  0  0  0  0  0  0  0
  -19.1290  -28.7606   22.5195 N   0  3  0  0  0  0  0  0  0  0  0  0
  -22.2376  -14.5026   21.0387 O   0  0  0  0  0  0  0  0  0  0  0  0
  -27.5300  -31.9466   23.8877 O   0  0  0  0  0  0  0  0  0  0  0  0
  -23.5506  -31.7931   23.7003 O   0  0  0  0  0  0  0  0  0  0  0  0
  -21.6648  -27.7864   23.2526 O   0  0  0  0  0  0  0  0  0  0  0  0
  -31.3916  -16.0282   20.6917 O   0  0  0  0  0  0  0  0  0  0  0  0
  -27.0211  -20.2492   24.9267 O   0  0  0  0  0  0  0  0  0  0  0  0
  -22.2851   -6.7446   21.6693 O   0  0  0  0  0  0  0  0  0  0  0  0
  -26.0538  -25.4922   19.7817 O   0  0  0  0  0  0  0  0  0  1  0  0
  -18.9529   -6.2860   26.0385 F   0  0  0  0  0  0  0  0  0  0  0  0
  -22.8420   -4.9481   23.6954 F   0  0  0  0  0  0  0  0  0  0  0  0
  1  2  1  0  0  0  0
  1  5  2  0  0  0  0
  2  6  2  0  0  0  0
  3  8  2  0  0  0  0
  3 15  1  0  0  0  0
  4  9  1  0  0  0  0
  4 15  2  0  0  0  0
  5 17  1  0  0  0  0
  6 19  1  0  0  0  0
  7 10  2  0  0  0  0
  7 18  1  0  0  0  0
  8 21  1  0  0  0  0
  9 21  2  0  0  0  0
 10 22  1  0  0  0  0
 11 12  2  0  0  0  0
 11 23  1  0  0  0  0
 12 24  1  0  0  0  0
 13 20  1  0  0  0  0
 13 22  2  0  0  0  0
 14 24  2  0  0  0  0
 14 25  1  0  0  0  0
 15 26  1  0  0  0  0
 16 26  1  0  0  0  0
 16 27  2  0  0  0  0
 16 28  1  0  0  0  0
 17 19  2  0  0  0  0
 17 33  1  0  0  0  0
 18 20  2  0  0  0  0
 18 34  1  0  0  0  0
 19 50  1  0  0  0  0
 20 35  1  0  0  0  0
 21 84  1  0  0  0  0
 22 85  1  0  0  0  0
 23 25  2  0  0  0  0
 23 84  1  0  0  0  0
 24 86  1  0  0  0  0
 25 87  1  0  0  0  0
 26 68  2  0  0  0  0
 27 69  1  0  0  0  0
 27 72  1  0  0  0  0
 28 73  1  0  0  0  0
 28 78  2  0  0  0  0
 29 51  1  0  0  0  0
 29 74  1  0  0  0  0
 29 79  2  0  0  0  0
 30 63  1  0  0  0  0
 30 70  1  0  0  0  0
 30 80  2  0  0  0  0
 31 64  1  0  0  0  0
 31 75  1  0  0  0  0
 31 81  2  0  0  0  0
 32 71  1  0  0  0  0
 32 76  1  0  0  0  0
 32 82  2  0  0  0  0
 33 36  1  0  0  0  0
 34 51  1  0  0  0  0
 35 70  1  0  0  0  0
 36 38  1  0  0  0  0
 37 43  1  0  0  0  0
 37 48  1  0  0  0  0
 38 50  1  0  0  0  0
 39 44  1  0  0  0  0
 39 52  1  0  0  0  0
 40 45  1  0  0  0  0
 40 52  1  0  0  0  0
 41 46  1  0  0  0  0
 41 53  1  0  0  0  0
 42 47  1  0  0  0  0
 42 53  1  0  0  0  0
 43 54  1  0  0  0  0
 44 55  1  0  0  0  0
 45 55  1  0  0  0  0
 46 56  1  0  0  0  0
 47 56  1  0  0  0  0
 48 71  1  0  0  0  0
 49 54  1  0  0  0  0
 49 71  1  0  0  0  0
 50 74  1  0  0  0  0
 51 70  1  0  0  0  0
 52 65  1  0  0  0  0
 53 65  1  0  0  0  0
 54 69  1  0  0  0  0
 55 76  1  0  0  0  0
 56 85  1  0  0  0  0
 57 64  1  0  0  0  0
 58 66  1  0  0  0  0
 59 67  1  0  0  0  0
 60 67  1  0  0  0  0
 61 67  1  0  0  0  0
 62 77  1  0  0  0  0
 63 67  1  0  0  0  0
 63 75  1  0  0  0  0
 64 77  1  0  0  0  0
 65 66  1  0  0  0  0
 66 83  1  0  0  0  0
 68 69  1  0  0  0  0
M  CHG  1  77   1
M  ISO  4  32 100  56 101  76 100  85 101
M  END
> <Batch ID>
0145

> <Smiles>
CNC(C)C(=O)NC(C(=O)N1Cc2cc([101O:1][101CH:1]3CCC(C(C(C)O)C4CCC([100NH:0][100C:0](=O)N5CCCC(n6nc(-c7ccc(Oc8ccc(F)cc8F)cc7)c(C(N)=O)c6N)C5)CC4)CC3)ccc2CC1C(=O)NC1CCCc2ccccc21)C(C)(C)C

> <Shape>
0.357

> <Color>
0.190

> <Negative vol penalty>
0.000

$$$$

  -OEChem-04052321283D

 92101  0     1  0  0  0  0  0999 V2000
  -27.3269  -37.4960   23.0047 C   0  0  0  0  0  0  0  0  0  0  0  0
  -27.8857  -36.3543   22.4394 C   0  0  0  0  0  0  0  0  0  0  0  0
  -24.1375   -8.7359   20.7710 C   0  0  0  0  0  0  0  0  0  0  0  0
  -22.8402  -10.7725   20.8508 C   0  0  0  0  0  0  0  0  0  0  0  0
  -26.3294  -37.3771   23.9716 C   0  0  0  0  0  0  0  0  0  0  0  0
  -27.4480  -35.0928   22.8414 C   0  0  0  0  0  0  0  0  0  0  0  0
  -26.9582  -30.0821   19.3546 C   0  0  0  0  0  0  0  0  0  0  0  0
  -23.1774   -8.0937   21.5529 C   0  0  0  0  0  0  0  0  0  0  0  0
  -21.8800  -10.1303   21.6327 C   0  0  0  0  0  0  0  0  0  0  0  0
  -27.7903  -28.9775   19.1775 C   0  0  0  0  0  0  0  0  0  0  0  0
  -20.1286   -6.7006   21.1087 C   0  0  0  0  0  0  0  0  0  0  0  0
  -19.7238   -5.4238   20.7193 C   0  0  0  0  0  0  0  0  0  0  0  0
  -26.4980  -27.7509   20.8037 C   0  0  0  0  0  0  0  0  0  0  0  0
  -27.7963  -21.2360   16.4320 C   0  0  0  0  0  0  0  0  0  0  0  0
  -28.2436  -20.4545   21.1922 C   0  0  0  0  0  0  0  0  0  0  0  0
  -20.4833   -4.5379   22.8349 C   0  0  0  0  0  0  0  0  0  0  0  0
  -28.0205  -20.8244   18.8135 C   0  0  0  0  0  0  0  0  0  0  0  0
  -23.9689  -10.0753   20.4200 C   0  0  0  0  0  0  0  0  0  0  0  0
  -24.9989  -10.8191   18.2078 C   0  0  0  0  0  0  0  0  0  0  0  0
  -25.8725  -36.1137   24.3787 C   0  0  0  0  0  0  0  0  0  0  0  0
  -25.8946  -30.0329   20.2671 C   0  0  0  0  0  0  0  0  0  0  0  0
  -26.4445  -34.9569   23.8156 C   0  0  0  0  0  0  0  0  0  0  0  0
  -25.6523  -28.8553   20.9886 C   0  0  0  0  0  0  0  0  0  0  0  0
  -27.9077  -20.3466   17.4968 C   0  0  0  0  0  0  0  0  0  0  0  0
  -28.1340  -19.9514   19.9039 C   0  0  0  0  0  0  0  0  0  0  0  0
  -28.0218  -22.2114   19.0704 C   0  0  0  0  0  0  0  0  0  0  0  0
  -22.0486   -8.7908   21.9837 C   0  0  0  0  0  0  0  0  0  0  0  0
  -27.5621  -27.8127   19.9042 C   0  0  0  0  0  0  0  0  0  0  0  0
  -20.7108   -6.8961   22.3611 C   0  0  0  0  0  0  0  0  0  0  0  0
  -27.7971  -22.6035   16.6777 C   0  0  0  0  0  0  0  0  0  0  0  0
  -27.9092  -23.0782   17.9868 C   0  0  0  0  0  0  0  0  0  0  0  0
  -19.9012   -4.3425   21.5824 C   0  0  0  0  0  0  0  0  0  0  0  0
  -20.8882   -5.8148   23.2242 C   0  0  0  0  0  0  0  0  0  0  0  0
  -24.9606  -10.7395   19.6128 C   0  0  0  0  0  0  0  0  0  0  0  0
  -28.2356  -21.8262   21.3444 C   0  0  0  0  0  0  0  0  0  0  0  0
  -26.1291  -11.5507   17.9360 C   0  0  0  0  0  0  0  0  0  0  0  0
  -24.0936  -10.2801   17.2354 C   0  0  0  0  0  0  0  0  0  0  0  0
  -25.1330  -31.6227   22.9121 C   0  0  0  0  0  0  0  0  0  0  0  0
  -22.3909  -29.9042   22.6889 C   0  0  0  0  0  0  0  0  0  0  0  0
  -20.8061  -27.1156   21.5231 C   0  0  0  0  0  0  0  0  0  0  0  0
  -29.2246  -15.5938   21.0859 C   0  0  0  0  0  0  0  0  0  0  0  0
  -24.8255  -36.0346   25.4613 C   0  0  0  0  0  0  0  0  0  0  0  0
  -24.9899  -31.2239   20.4269 C   0  0  0  0  0  0  0  0  0  0  0  0
  -24.5116  -28.7444   21.9658 C   0  0  0  0  0  0  0  0  0  0  0  0
  -24.1541  -34.6672   25.5606 C   0  0  0  0  0  0  0  0  0  0  0  0
  -30.4586  -12.5508   19.7097 C   0  0  0  0  0  0  0  0  0  0  0  0
  -25.1985  -33.5560   25.5275 C   0  0  0  0  0  0  0  0  0  0  0  0
  -29.1929  -11.7487   19.4020 C   0  0  0  0  0  0  0  0  0  0  0  0
  -30.3106  -13.3694   20.9903 C   0  0  0  0  0  0  0  0  0  0  0  0
  -27.8620  -13.4473   20.7219 C   0  0  0  0  0  0  0  0  0  0  0  0
  -25.9788  -33.5713   24.2076 C   0  0  1  0  0  0  0  0  0  0  0  0
  -24.2488  -31.2366   21.7603 C   0  0  1  0  0  0  0  0  0  0  0  0
  -27.9429  -12.6490   19.4095 C   0  0  2  0  0  0  0  0  0  0  0  0
  -28.3517  -22.4123   22.7119 C   0  0  0  0  0  0  0  0  0  0  0  0
  -28.1102  -17.2206   15.2401 C   0  0  0  0  0  0  0  0  0  0  0  0
  -18.5740  -25.9688   21.5337 C   0  0  0  0  0  0  0  0  0  0  0  0
  -22.8743  -28.9950   25.5612 C   0  0  0  0  0  0  0  0  0  0  0  0
  -21.2015  -27.1694   25.1911 C   0  0  0  0  0  0  0  0  0  0  0  0
  -20.4956  -29.5566   25.0310 C   0  0  0  0  0  0  0  0  0  0  0  0
  -20.5800  -27.2755   18.5765 C   0  0  0  0  0  0  0  0  0  0  0  0
  -26.3713  -23.8642   15.2516 C   0  0  0  0  0  0  0  0  0  0  0  0
  -27.8976  -18.8971   17.1227 C   0  0  0  0  0  0  0  0  0  0  0  0
  -28.1473  -18.4587   19.7957 C   0  0  0  0  0  0  0  0  0  0  0  0
  -28.0879  -18.6943   15.6139 C   0  0  0  0  0  0  0  0  0  0  0  0
  -27.9954  -17.7490   21.1441 C   0  0  0  0  0  0  0  0  0  0  0  0
  -28.9672  -26.5640   18.4474 C   0  0  0  0  0  0  0  0  0  1  0  0
  -29.1711  -25.0840   18.1871 C   0  0  0  0  0  0  0  0  0  0  0  0
  -21.9261  -28.5616   23.1992 C   0  0  1  0  0  0  0  0  0  0  0  0
  -19.4855  -26.9373   20.7961 C   0  0  2  0  0  0  0  0  0  0  0  0
  -21.6471  -28.5731   24.7287 C   0  0  0  0  0  0  0  0  0  0  0  0
  -28.1281  -22.7026   20.3196 N   0  0  0  0  0  0  0  0  0  0  0  0
  -25.9852  -11.3700   20.1931 N   0  0  0  0  0  0  0  0  0  0  0  0
  -26.6779  -11.8527   19.1475 N   0  0  0  0  0  0  0  0  0  0  0  0
  -23.6588  -29.9379   22.0915 N   0  0  0  0  0  0  0  0  0  0  0  0
  -29.1071  -14.2025   20.9326 N   0  0  0  0  0  0  0  0  0  0  0  0
  -26.6971  -11.9586   16.7813 N   0  0  0  0  0  0  0  0  0  0  0  0
  -22.9830   -9.5540   17.6867 N   0  0  0  0  0  0  0  0  0  0  0  0
  -25.1893  -32.9833   23.1468 N   0  0  0  0  0  0  0  0  0  0  0  0
  -20.7738  -28.1918   22.3844 N   0  0  0  0  0  0  0  0  0  0  0  0
  -28.0360  -16.3097   21.0117 N   0  0  0  0  0  0  0  0  0  0  0  0
  -19.7179  -26.4099   19.4217 N   0  3  0  0  0  0  0  0  0  0  0  0
  -24.2735  -10.4236   16.0023 O   0  0  0  0  0  0  0  0  0  0  0  0
  -25.7195  -30.7506   23.5423 O   0  0  0  0  0  0  0  0  0  0  0  0
  -21.6530  -30.8853   22.8094 O   0  0  0  0  0  0  0  0  0  0  0  0
  -21.7689  -26.3720   21.3475 O   0  0  0  0  0  0  0  0  0  0  0  0
  -30.3091  -16.1568   21.2698 O   0  0  0  0  0  0  0  0  0  0  0  0
  -21.1114   -8.1644   22.7465 O   0  0  0  0  0  0  0  0  0  0  0  0
  -27.6882  -23.4713   15.6329 O   0  0  0  0  0  0  0  0  0  0  0  0
  -28.3732  -26.7333   19.7338 O   0  0  0  0  0  0  0  0  0  1  0  0
  -27.9073  -24.4313   18.2019 O   0  0  0  0  0  0  0  0  0  0  0  0
  -19.5110   -3.1167   21.2090 F   0  0  0  0  0  0  0  0  0  0  0  0
  -21.4458   -5.9965   24.4291 F   0  0  0  0  0  0  0  0  0  0  0  0
  1  2  1  0  0  0  0
  1  5  2  0  0  0  0
  2  6  2  0  0  0  0
  3  8  2  0  0  0  0
  3 18  1  0  0  0  0
  4  9  1  0  0  0  0
  4 18  2  0  0  0  0
  5 20  1  0  0  0  0
  6 22  1  0  0  0  0
  7 10  2  0  0  0  0
  7 21  1  0  0  0  0
  8 27  1  0  0  0  0
  9 27  2  0  0  0  0
 10 28  1  0  0  0  0
 11 12  2  0  0  0  0
 11 29  1  0  0  0  0
 12 32  1  0  0  0  0
 13 23  1  0  0  0  0
 13 28  2  0  0  0  0
 14 24  1  0  0  0  0
 14 30  2  0  0  0  0
 15 25  2  0  0  0  0
 15 35  1  0  0  0  0
 16 32  2  0  0  0  0
 16 33  1  0  0  0  0
 17 24  2  0  0  0  0
 17 25  1  0  0  0  0
 17 26  1  0  0  0  0
 18 34  1  0  0  0  0
 19 34  1  0  0  0  0
 19 36  2  0  0  0  0
 19 37  1  0  0  0  0
 20 22  2  0  0  0  0
 20 42  1  0  0  0  0
 21 23  2  0  0  0  0
 21 43  1  0  0  0  0
 22 51  1  0  0  0  0
 23 44  1  0  0  0  0
 24 62  1  0  0  0  0
 25 63  1  0  0  0  0
 26 31  2  0  0  0  0
 26 71  1  0  0  0  0
 27 87  1  0  0  0  0
 28 89  1  0  0  0  0
 29 33  2  0  0  0  0
 29 87  1  0  0  0  0
 30 31  1  0  0  0  0
 30 88  1  0  0  0  0
 31 90  1  0  0  0  0
 32 91  1  0  0  0  0
 33 92  1  0  0  0  0
 34 72  2  0  0  0  0
 35 54  1  0  0  0  0
 35 71  2  0  0  0  0
 36 73  1  0  0  0  0
 36 76  1  0  0  0  0
 37 77  1  0  0  0  0
 37 82  2  0  0  0  0
 38 52  1  0  0  0  0
 38 78  1  0  0  0  0
 38 83  2  0  0  0  0
 39 68  1  0  0  0  0
 39 74  1  0  0  0  0
 39 84  2  0  0  0  0
 40 69  1  0  0  0  0
 40 79  1  0  0  0  0
 40 85  2  0  0  0  0
 41 75  1  0  0  0  0
 41 80  1  0  0  0  0
 41 86  2  0  0  0  0
 42 45  1  0  0  0  0
 43 52  1  0  0  0  0
 44 74  1  0  0  0  0
 45 47  1  0  0  0  0
 46 48  1  0  0  0  0
 46 49  1  0  0  0  0
 47 51  1  0  0  0  0
 48 53  1  0  0  0  0
 49 75  1  0  0  0  0
 50 53  1  0  0  0  0
 50 75  1  0  0  0  0
 51 78  1  0  0  0  0
 52 74  1  0  0  0  0
 53 73  1  0  0  0  0
 55 64  1  0  0  0  0
 56 69  1  0  0  0  0
 57 70  1  0  0  0  0
 58 70  1  0  0  0  0
 59 70  1  0  0  0  0
 60 81  1  0  0  0  0
 61 88  1  0  0  0  0
 62 64  1  0  0  0  0
 63 65  1  0  0  0  0
 65 80  1  0  0  0  0
 66 67  1  0  0  0  0
 66 89  1  0  0  0  0
 67 90  1  0  0  0  0
 68 70  1  0  0  0  0
 68 79  1  0  0  0  0
 69 81  1  0  0  0  0
 72 73  1  0  0  0  0
M  CHG  1  81   1
M  ISO  4  41 100  66 101  80 100  89 101
M  END
> <Batch ID>
0145

> <Smiles>
CCCc1cc(OC)c(OC[101CH2:1][101O:1]c2ccc3c(c2)CN(C(=O)C(NC(=O)C(C)NC)C(C)(C)C)C(C(=O)NC2CCCc4ccccc42)C3)c2nc(C)cc(CC[100NH:0][100C:0](=O)N3CCCC(n4nc(-c5ccc(Oc6ccc(F)cc6F)cc5)c(C(N)=O)c4N)C3)c12

> <Shape>
0.350

> <Color>
0.094

> <Negative vol penalty>
0.000

$$$$

  -OEChem-04052321283D

 85 93  0     1  0  0  0  0  0999 V2000
  -16.6897  -27.0460   21.8055 C   0  0  0  0  0  0  0  0  0  0  0  0
  -17.8593  -27.0584   21.0522 C   0  0  0  0  0  0  0  0  0  0  0  0
  -27.0189  -12.3633   21.6697 C   0  0  0  0  0  0  0  0  0  0  0  0
  -26.2940  -13.9222   19.9722 C   0  0  0  0  0  0  0  0  0  0  0  0
  -16.6185  -27.7742   22.9923 C   0  0  0  0  0  0  0  0  0  0  0  0
  -18.9580  -27.8000   21.4848 C   0  0  0  0  0  0  0  0  0  0  0  0
  -23.3086  -25.2389   21.0876 C   0  0  0  0  0  0  0  0  0  0  0  0
  -26.2331  -11.3671   21.0904 C   0  0  0  0  0  0  0  0  0  0  0  0
  -25.5082  -12.9259   19.3928 C   0  0  0  0  0  0  0  0  0  0  0  0
  -23.8795  -25.1465   19.8191 C   0  0  0  0  0  0  0  0  0  0  0  0
  -22.9708  -10.4844   21.0373 C   0  0  0  0  0  0  0  0  0  0  0  0
  -22.1949   -9.6959   21.8869 C   0  0  0  0  0  0  0  0  0  0  0  0
  -25.4074  -26.9258   20.3837 C   0  0  0  0  0  0  0  0  0  0  0  0
  -27.4276  -23.0762   19.5083 C   0  0  0  0  0  0  0  0  0  0  0  0
  -23.3596   -7.7231   21.1197 C   0  0  0  0  0  0  0  0  0  0  0  0
  -30.1424  -22.8052   19.4589 C   0  0  0  0  0  0  0  0  0  0  0  0
  -27.0493  -13.6409   21.1106 C   0  0  0  0  0  0  0  0  0  0  0  0
  -29.2030  -14.9739   21.4139 C   0  0  0  0  0  0  0  0  0  0  0  0
  -17.7202  -28.5174   23.4446 C   0  0  0  0  0  0  0  0  0  0  0  0
  -23.7764  -26.1844   22.0115 C   0  0  0  0  0  0  0  0  0  0  0  0
  -18.9011  -28.5400   22.6781 C   0  0  0  0  0  0  0  0  0  0  0  0
  -24.8424  -27.0264   21.6643 C   0  0  0  0  0  0  0  0  0  0  0  0
  -28.1266  -23.4203   18.3566 C   0  0  0  0  0  0  0  0  0  0  0  0
  -29.5101  -23.2851   18.3233 C   0  0  0  0  0  0  0  0  0  0  0  0
  -25.4777  -11.6483   19.9520 C   0  0  0  0  0  0  0  0  0  0  0  0
  -24.9272  -25.9919   19.4659 C   0  0  0  0  0  0  0  0  0  0  0  0
  -23.9410   -9.8922   20.2287 C   0  0  0  0  0  0  0  0  0  0  0  0
  -22.3893   -8.3153   21.9282 C   0  0  0  0  0  0  0  0  0  0  0  0
  -24.1354   -8.5115   20.2700 C   0  0  0  0  0  0  0  0  0  0  0  0
  -27.8604  -14.6706   21.7089 C   0  0  0  0  0  0  0  0  0  0  0  0
  -28.1531  -22.6055   20.5908 C   0  0  0  0  0  0  0  0  0  0  0  0
  -29.5088  -16.0232   22.2458 C   0  0  0  0  0  0  0  0  0  0  0  0
  -30.0942  -14.3620   20.4720 C   0  0  0  0  0  0  0  0  0  0  0  0
  -22.4989  -28.6810   23.5077 C   0  0  0  0  0  0  0  0  0  0  0  0
  -25.3478  -28.7149   25.0587 C   0  0  0  0  0  0  0  0  0  0  0  0
  -28.6572  -27.8814   25.0576 C   0  0  0  0  0  0  0  0  0  0  0  0
  -26.1938  -20.2355   24.8971 C   0  0  0  0  0  0  0  0  0  0  0  0
  -17.5799  -29.3268   24.7095 C   0  0  0  0  0  0  0  0  0  0  0  0
  -23.1675  -26.2533   23.3852 C   0  0  0  0  0  0  0  0  0  0  0  0
  -25.3947  -28.0448   22.6268 C   0  0  0  0  0  0  0  0  0  0  0  0
  -18.9150  -29.7859   25.2900 C   0  0  0  0  0  0  0  0  0  0  0  0
  -28.3411  -17.8989   26.4912 C   0  0  0  0  0  0  0  0  0  0  0  0
  -19.8025  -30.3665   24.1936 C   0  0  0  0  0  0  0  0  0  0  0  0
  -28.5876  -16.8355   25.4196 C   0  0  0  0  0  0  0  0  0  0  0  0
  -26.9122  -18.4350   26.4360 C   0  0  0  0  0  0  0  0  0  0  0  0
  -26.7330  -17.8710   24.0452 C   0  0  0  0  0  0  0  0  0  0  0  0
  -20.1225  -29.3124   23.1269 C   0  0  1  0  0  0  0  0  0  0  0  0
  -23.3817  -27.6013   24.0668 C   0  0  1  0  0  0  0  0  0  0  0  0
  -28.1767  -17.3401   24.0230 C   0  0  2  0  0  0  0  0  0  0  0  0
  -30.3077  -23.6387   17.1164 C   0  0  0  0  0  0  0  0  0  0  0  0
  -30.7378  -28.0752   26.4471 C   0  0  0  0  0  0  0  0  0  0  0  0
  -23.9804  -22.1250   23.3648 C   0  0  0  0  0  0  0  0  0  0  0  0
  -25.6086  -31.6467   24.2548 C   0  0  0  0  0  0  0  0  0  0  0  0
  -28.0446  -31.5119   24.8170 C   0  0  0  0  0  0  0  0  0  0  0  0
  -26.3338  -31.1378   26.5935 C   0  0  0  0  0  0  0  0  0  0  0  0
  -28.9285  -24.9420   25.2700 C   0  0  0  0  0  0  0  0  0  0  0  0
  -27.3672  -23.9356   17.1603 C   0  0  0  0  0  0  0  0  0  0  0  0
  -27.4758  -25.4497   16.9673 C   0  0  0  0  0  0  0  0  0  0  0  0
  -26.0081  -22.3785   21.8449 C   0  0  0  0  0  0  0  0  0  0  0  0
  -26.8656  -26.2496   18.1123 C   0  0  0  0  0  0  0  0  0  1  0  0
  -26.6868  -29.3701   24.8207 C   0  0  1  0  0  0  0  0  0  0  0  0
  -29.5289  -27.2171   26.1079 C   0  0  2  0  0  0  0  0  0  0  0  0
  -25.4931  -21.9791   23.2306 C   0  0  2  0  0  0  0  0  0  0  0  0
  -26.6570  -30.8989   25.1024 C   0  0  0  0  0  0  0  0  0  0  0  0
  -29.4972  -22.4607   20.5959 N   0  0  0  0  0  0  0  0  0  0  0  0
  -27.3485  -15.4630   22.6545 N   0  0  0  0  0  0  0  0  0  0  0  0
  -28.3749  -16.2746   22.9609 N   0  0  0  0  0  0  0  0  0  0  0  0
  -24.7618  -28.0779   23.9556 N   0  0  0  0  0  0  0  0  0  0  0  0
  -26.5903  -18.9021   25.0852 N   0  0  0  0  0  0  0  0  0  0  0  0
  -30.6342  -16.7461   22.4280 N   0  0  0  0  0  0  0  0  0  0  0  0
  -29.6179  -13.2957   19.6971 N   0  0  0  0  0  0  0  0  0  0  0  0
  -27.4269  -22.2590   21.7573 N   0  0  0  0  0  0  0  0  0  0  0  0
  -21.1476  -28.4079   23.6018 N   0  0  0  0  0  0  0  0  0  0  0  0
  -27.6516  -28.6322   25.6289 N   0  0  0  0  0  0  0  0  0  0  0  0
  -25.9134  -20.6083   23.5867 N   0  0  0  0  0  0  0  0  0  0  0  0
  -30.0132  -25.8953   25.6186 N   0  3  0  0  0  0  0  0  0  0  0  0
  -31.2827  -14.7387   20.3336 O   0  0  0  0  0  0  0  0  0  0  0  0
  -23.0062  -29.6881   23.0280 O   0  0  0  0  0  0  0  0  0  0  0  0
  -24.8437  -28.7603   26.1836 O   0  0  0  0  0  0  0  0  0  0  0  0
  -28.8512  -27.7506   23.8510 O   0  0  0  0  0  0  0  0  0  0  0  0
  -26.1015  -21.0452   25.8262 O   0  0  0  0  0  0  0  0  0  0  0  0
  -24.7110  -10.6764   19.3863 O   0  0  0  0  0  0  0  0  0  0  0  0
  -25.4858  -25.9043   18.2281 O   0  0  0  0  0  0  0  0  0  1  0  0
  -21.6452   -7.5585   22.7454 F   0  0  0  0  0  0  0  0  0  0  0  0
  -25.0668   -7.9371   19.4965 F   0  0  0  0  0  0  0  0  0  0  0  0
  1  2  1  0  0  0  0
  1  5  2  0  0  0  0
  2  6  2  0  0  0  0
  3  8  2  0  0  0  0
  3 17  1  0  0  0  0
  4  9  1  0  0  0  0
  4 17  2  0  0  0  0
  5 19  1  0  0  0  0
  6 21  1  0  0  0  0
  7 10  2  0  0  0  0
  7 20  1  0  0  0  0
  8 25  1  0  0  0  0
  9 25  2  0  0  0  0
 10 26  1  0  0  0  0
 11 12  2  0  0  0  0
 11 27  1  0  0  0  0
 12 28  1  0  0  0  0
 13 22  1  0  0  0  0
 13 26  2  0  0  0  0
 14 23  1  0  0  0  0
 14 31  2  0  0  0  0
 15 28  2  0  0  0  0
 15 29  1  0  0  0  0
 16 24  1  0  0  0  0
 16 65  2  0  0  0  0
 17 30  1  0  0  0  0
 18 30  1  0  0  0  0
 18 32  2  0  0  0  0
 18 33  1  0  0  0  0
 19 21  2  0  0  0  0
 19 38  1  0  0  0  0
 20 22  2  0  0  0  0
 20 39  1  0  0  0  0
 21 47  1  0  0  0  0
 22 40  1  0  0  0  0
 23 24  2  0  0  0  0
 23 57  1  0  0  0  0
 24 50  1  0  0  0  0
 25 82  1  0  0  0  0
 26 83  1  0  0  0  0
 27 29  2  0  0  0  0
 27 82  1  0  0  0  0
 28 84  1  0  0  0  0
 29 85  1  0  0  0  0
 30 66  2  0  0  0  0
 31 65  1  0  0  0  0
 31 72  1  0  0  0  0
 32 67  1  0  0  0  0
 32 70  1  0  0  0  0
 33 71  1  0  0  0  0
 33 77  2  0  0  0  0
 34 48  1  0  0  0  0
 34 73  1  0  0  0  0
 34 78  2  0  0  0  0
 35 61  1  0  0  0  0
 35 68  1  0  0  0  0
 35 79  2  0  0  0  0
 36 62  1  0  0  0  0
 36 74  1  0  0  0  0
 36 80  2  0  0  0  0
 37 69  1  0  0  0  0
 37 75  1  0  0  0  0
 37 81  2  0  0  0  0
 38 41  1  0  0  0  0
 39 48  1  0  0  0  0
 40 68  1  0  0  0  0
 41 43  1  0  0  0  0
 42 44  1  0  0  0  0
 42 45  1  0  0  0  0
 43 47  1  0  0  0  0
 44 49  1  0  0  0  0
 45 69  1  0  0  0  0
 46 49  1  0  0  0  0
 46 69  1  0  0  0  0
 47 73  1  0  0  0  0
 48 68  1  0  0  0  0
 49 67  1  0  0  0  0
 51 62  1  0  0  0  0
 52 63  1  0  0  0  0
 53 64  1  0  0  0  0
 54 64  1  0  0  0  0
 55 64  1  0  0  0  0
 56 76  1  0  0  0  0
 57 58  1  0  0  0  0
 58 60  1  0  0  0  0
 59 63  1  0  0  0  0
 59 72  1  0  0  0  0
 60 83  1  0  0  0  0
 61 64  1  0  0  0  0
 61 74  1  0  0  0  0
 62 76  1  0  0  0  0
 63 75  1  0  0  0  0
 66 67  1  0  0  0  0
M  CHG  1  76   1
M  ISO  4  37 100  60 101  75 100  83 101
M  END
> <Batch ID>
0145

> <Smiles>
CNC(C)C(=O)NC(C(=O)N1Cc2cc([101O:1][101CH2:1]CCc3cc(NCC(C)[100NH:0][100C:0](=O)N4CCCC(n5nc(-c6ccc(Oc7ccc(F)cc7F)cc6)c(C(N)=O)c5N)C4)ncc3C)ccc2CC1C(=O)NC1CCCc2ccccc21)C(C)(C)C

> <Shape>
0.249

> <Color>
0.075

> <Negative vol penalty>
0.000

$$$$

  -OEChem-04052321283D

 85 94  0     1  0  0  0  0  0999 V2000
  -20.2998  -24.0128   21.9876 C   0  0  0  0  0  0  0  0  0  0  0  0
  -21.6892  -23.9905   22.0551 C   0  0  0  0  0  0  0  0  0  0  0  0
  -26.0049  -13.3516   19.4185 C   0  0  0  0  0  0  0  0  0  0  0  0
  -24.8700  -13.4732   21.5479 C   0  0  0  0  0  0  0  0  0  0  0  0
  -19.6413  -25.1724   21.5807 C   0  0  0  0  0  0  0  0  0  0  0  0
  -22.4209  -25.1276   21.7146 C   0  0  0  0  0  0  0  0  0  0  0  0
  -27.6681  -27.0222   24.2412 C   0  0  0  0  0  0  0  0  0  0  0  0
  -27.9116  -24.2565   19.3850 C   0  0  0  0  0  0  0  0  0  0  0  0
  -25.2167  -12.2578   19.0608 C   0  0  0  0  0  0  0  0  0  0  0  0
  -24.0818  -12.3794   21.1902 C   0  0  0  0  0  0  0  0  0  0  0  0
  -28.9994  -26.8904   23.8488 C   0  0  0  0  0  0  0  0  0  0  0  0
  -28.7772  -25.3523   19.3611 C   0  0  0  0  0  0  0  0  0  0  0  0
  -24.4043   -9.0169   21.0467 C   0  0  0  0  0  0  0  0  0  0  0  0
  -24.2216   -8.0117   21.9962 C   0  0  0  0  0  0  0  0  0  0  0  0
  -30.6434  -23.9479   20.0356 C   0  0  0  0  0  0  0  0  0  0  0  0
  -28.9103  -29.0768   22.8334 C   0  0  0  0  0  0  0  0  0  0  0  0
  -21.8357   -8.3871   21.9346 C   0  0  0  0  0  0  0  0  0  0  0  0
  -25.8316  -13.9593   20.6621 C   0  0  0  0  0  0  0  0  0  0  0  0
  -28.0489  -15.1259   21.1420 C   0  0  0  0  0  0  0  0  0  0  0  0
  -20.3649  -26.3272   21.2442 C   0  0  0  0  0  0  0  0  0  0  0  0
  -26.9434  -28.1797   23.9226 C   0  0  0  0  0  0  0  0  0  0  0  0
  -21.7715  -26.3033   21.3014 C   0  0  0  0  0  0  0  0  0  0  0  0
  -28.4201  -23.0163   19.7453 C   0  0  0  0  0  0  0  0  0  0  0  0
  -29.7754  -22.8684   20.0686 C   0  0  0  0  0  0  0  0  0  0  0  0
  -27.5707  -29.2219   23.2251 C   0  0  0  0  0  0  0  0  0  0  0  0
  -24.2551  -11.7717   19.9467 C   0  0  0  0  0  0  0  0  0  0  0  0
  -29.6198  -27.9165   23.1423 C   0  0  0  0  0  0  0  0  0  0  0  0
  -30.1335  -25.1990   19.6845 C   0  0  0  0  0  0  0  0  0  0  0  0
  -23.3027   -9.7073   20.5411 C   0  0  0  0  0  0  0  0  0  0  0  0
  -22.9373   -7.6967   22.4402 C   0  0  0  0  0  0  0  0  0  0  0  0
  -22.0184   -9.3924   20.9851 C   0  0  0  0  0  0  0  0  0  0  0  0
  -26.6459  -15.0889   21.0323 C   0  0  0  0  0  0  0  0  0  0  0  0
  -28.3299  -16.4164   21.5189 C   0  0  0  0  0  0  0  0  0  0  0  0
  -29.0120  -14.0866   20.9228 C   0  0  0  0  0  0  0  0  0  0  0  0
  -26.3927  -21.8094   20.5649 C   0  0  0  0  0  0  0  0  0  0  0  0
  -24.3482  -28.7967   22.1941 C   0  0  0  0  0  0  0  0  0  0  0  0
  -24.7382  -31.7868   23.3897 C   0  0  0  0  0  0  0  0  0  0  0  0
  -26.8397  -34.1240   24.7194 C   0  0  0  0  0  0  0  0  0  0  0  0
  -19.6111  -27.5423   20.7645 C   0  0  0  0  0  0  0  0  0  0  0  0
  -25.5160  -28.3176   24.3764 C   0  0  0  0  0  0  0  0  0  0  0  0
  -30.1075  -21.4422   20.3695 C   0  0  0  0  0  0  0  0  0  0  0  0
  -26.8427  -30.4934   22.8761 C   0  0  0  0  0  0  0  0  0  0  0  0
  -20.4440  -28.8214   20.7805 C   0  0  0  0  0  0  0  0  0  0  0  0
  -28.7133  -20.8561   20.6413 C   0  0  0  0  0  0  0  0  0  0  0  0
  -25.7783  -20.0715   23.6377 C   0  0  0  0  0  0  0  0  0  0  0  0
  -21.8166  -28.5724   20.1636 C   0  0  0  0  0  0  0  0  0  0  0  0
  -26.0445  -18.6092   23.2826 C   0  0  0  0  0  0  0  0  0  0  0  0
  -25.1560  -20.8261   22.4670 C   0  0  0  0  0  0  0  0  0  0  0  0
  -26.2175  -19.2872   20.8463 C   0  0  0  0  0  0  0  0  0  0  0  0
  -22.5993  -27.5244   20.9639 C   0  0  1  0  0  0  0  0  0  0  0  0
  -24.7211  -29.3244   23.5506 C   0  0  1  0  0  0  0  0  0  0  0  0
  -26.8743  -18.4963   21.9914 C   0  0  2  0  0  0  0  0  0  0  0  0
  -27.6996  -21.6934   19.8215 C   0  0  2  0  0  0  0  0  0  0  0  0
  -26.6245  -22.0316   17.5739 C   0  0  0  0  0  0  0  0  0  0  0  0
  -26.8769  -36.4874   25.5621 C   0  0  0  0  0  0  0  0  0  0  0  0
  -24.6669  -32.8100   20.5161 C   0  0  0  0  0  0  0  0  0  0  0  0
  -25.6398  -34.9671   21.3337 C   0  0  0  0  0  0  0  0  0  0  0  0
  -23.4074  -34.2168   22.1559 C   0  0  0  0  0  0  0  0  0  0  0  0
  -27.6711  -33.2679   27.4277 C   0  0  0  0  0  0  0  0  0  0  0  0
  -27.4639  -21.1044   18.4306 C   0  0  0  0  0  0  0  0  0  0  0  0
  -32.4530  -27.7113   20.8967 C   0  0  0  0  0  0  0  0  0  0  0  0
  -31.3105  -28.4630   21.5615 C   0  0  0  0  0  0  0  0  0  1  0  0
  -32.0668  -26.2827   20.5470 C   0  0  0  0  0  0  0  0  0  0  0  0
  -25.4879  -33.0228   22.9547 C   0  0  1  0  0  0  0  0  0  0  0  0
  -26.7062  -35.0230   25.9353 C   0  0  2  0  0  0  0  0  0  0  0  0
  -24.8139  -33.7295   21.7448 C   0  0  0  0  0  0  0  0  0  0  0  0
  -26.0753  -16.2626   21.3167 N   0  0  0  0  0  0  0  0  0  0  0  0
  -27.1251  -17.0492   21.6088 N   0  0  0  0  0  0  0  0  0  0  0  0
  -25.9621  -20.6756   21.2542 N   0  0  0  0  0  0  0  0  0  0  0  0
  -25.4468  -30.5781   23.3363 N   0  0  0  0  0  0  0  0  0  0  0  0
  -29.4876  -17.0603   21.7788 N   0  0  0  0  0  0  0  0  0  0  0  0
  -29.3768  -13.2746   22.0053 N   0  0  0  0  0  0  0  0  0  0  0  0
  -23.1476  -28.1130   22.1669 N   0  0  0  0  0  0  0  0  0  0  0  0
  -25.6156  -33.8616   24.1414 N   0  0  0  0  0  0  0  0  0  0  0  0
  -27.7373  -34.6741   26.9532 N   0  3  0  0  0  0  0  0  0  0  0  0
  -29.5458  -13.8947   19.8040 O   0  0  0  0  0  0  0  0  0  0  0  0
  -25.7760  -22.8776   20.5352 O   0  0  0  0  0  0  0  0  0  0  0  0
  -25.0937  -28.9963   21.2422 O   0  0  0  0  0  0  0  0  0  0  0  0
  -23.5694  -31.8909   23.7700 O   0  0  0  0  0  0  0  0  0  0  0  0
  -27.9219  -33.7001   24.3200 O   0  0  0  0  0  0  0  0  0  0  0  0
  -23.4856  -10.7046   19.5979 O   0  0  0  0  0  0  0  0  0  0  0  0
  -30.9190  -27.7902   22.7575 O   0  0  0  0  0  0  0  0  0  1  0  0
  -30.9664  -26.2870   19.6476 O   0  0  0  0  0  0  0  0  0  0  0  0
  -22.7619   -6.7302   23.3509 F   0  0  0  0  0  0  0  0  0  0  0  0
  -20.9562  -10.0514   20.5022 F   0  0  0  0  0  0  0  0  0  0  0  0
  1  2  1  0  0  0  0
  1  5  2  0  0  0  0
  2  6  2  0  0  0  0
  3  9  2  0  0  0  0
  3 18  1  0  0  0  0
  4 10  1  0  0  0  0
  4 18  2  0  0  0  0
  5 20  1  0  0  0  0
  6 22  1  0  0  0  0
  7 11  2  0  0  0  0
  7 21  1  0  0  0  0
  8 12  2  0  0  0  0
  8 23  1  0  0  0  0
  9 26  1  0  0  0  0
 10 26  2  0  0  0  0
 11 27  1  0  0  0  0
 12 28  1  0  0  0  0
 13 14  2  0  0  0  0
 13 29  1  0  0  0  0
 14 30  1  0  0  0  0
 15 24  1  0  0  0  0
 15 28  2  0  0  0  0
 16 25  1  0  0  0  0
 16 27  2  0  0  0  0
 17 30  2  0  0  0  0
 17 31  1  0  0  0  0
 18 32  1  0  0  0  0
 19 32  1  0  0  0  0
 19 33  2  0  0  0  0
 19 34  1  0  0  0  0
 20 22  2  0  0  0  0
 20 39  1  0  0  0  0
 21 25  2  0  0  0  0
 21 40  1  0  0  0  0
 22 50  1  0  0  0  0
 23 24  2  0  0  0  0
 23 53  1  0  0  0  0
 24 41  1  0  0  0  0
 25 42  1  0  0  0  0
 26 81  1  0  0  0  0
 27 82  1  0  0  0  0
 28 83  1  0  0  0  0
 29 31  2  0  0  0  0
 29 81  1  0  0  0  0
 30 84  1  0  0  0  0
 31 85  1  0  0  0  0
 32 67  2  0  0  0  0
 33 68  1  0  0  0  0
 33 71  1  0  0  0  0
 34 72  1  0  0  0  0
 34 76  2  0  0  0  0
 35 53  1  0  0  0  0
 35 69  1  0  0  0  0
 35 77  2  0  0  0  0
 36 51  1  0  0  0  0
 36 73  1  0  0  0  0
 36 78  2  0  0  0  0
 37 64  1  0  0  0  0
 37 70  1  0  0  0  0
 37 79  2  0  0  0  0
 38 65  1  0  0  0  0
 38 74  1  0  0  0  0
 38 80  2  0  0  0  0
 39 43  1  0  0  0  0
 40 51  1  0  0  0  0
 41 44  1  0  0  0  0
 42 70  1  0  0  0  0
 43 46  1  0  0  0  0
 44 53  1  0  0  0  0
 45 47  1  0  0  0  0
 45 48  1  0  0  0  0
 46 50  1  0  0  0  0
 47 52  1  0  0  0  0
 48 69  1  0  0  0  0
 49 52  1  0  0  0  0
 49 69  1  0  0  0  0
 50 73  1  0  0  0  0
 51 70  1  0  0  0  0
 52 68  1  0  0  0  0
 53 60  1  0  0  0  0
 54 60  1  0  0  0  0
 55 65  1  0  0  0  0
 56 66  1  0  0  0  0
 57 66  1  0  0  0  0
 58 66  1  0  0  0  0
 59 75  1  0  0  0  0
 61 62  1  0  0  0  0
 61 63  1  0  0  0  0
 62 82  1  0  0  0  0
 63 83  1  0  0  0  0
 64 66  1  0  0  0  0
 64 74  1  0  0  0  0
 65 75  1  0  0  0  0
 67 68  1  0  0  0  0
M  CHG  1  75   1
M  ISO  4  35 100  53 100  62 101  82 101
M  END
> <Batch ID>
0145

> <Smiles>
CC[100C:0]1([100C:0](=O)N2CCCC(n3nc(-c4ccc(Oc5ccc(F)cc5F)cc4)c(C(N)=O)c3N)C2)CCc2cc(OCC[101CH2:1][101O:1]c3ccc4c(c3)CN(C(=O)C(NC(=O)C(C)NC)C(C)(C)C)C(C(=O)NC3CCCc5ccccc53)C4)ccc21

> <Shape>
0.275

> <Color>
0.075

> <Negative vol penalty>
0.000

$$$$

  -OEChem-04052321283D

 88 99  0     1  0  0  0  0  0999 V2000
  -22.5830  -30.6277   24.3569 C   0  0  0  0  0  0  0  0  0  0  0  0
  -22.3306  -29.2849   24.0950 C   0  0  0  0  0  0  0  0  0  0  0  0
  -32.6554  -17.4518   18.5612 C   0  0  0  0  0  0  0  0  0  0  0  0
  -30.8059  -16.7618   17.1682 C   0  0  0  0  0  0  0  0  0  0  0  0
  -23.3584  -31.3756   23.4719 C   0  0  0  0  0  0  0  0  0  0  0  0
  -22.8527  -28.6895   22.9472 C   0  0  0  0  0  0  0  0  0  0  0  0
  -24.8014  -22.9136   22.3573 C   0  0  0  0  0  0  0  0  0  0  0  0
  -33.4973  -17.4400   17.4492 C   0  0  0  0  0  0  0  0  0  0  0  0
  -31.6479  -16.7501   16.0561 C   0  0  0  0  0  0  0  0  0  0  0  0
  -24.1969  -21.7677   21.8422 C   0  0  0  0  0  0  0  0  0  0  0  0
  -36.0524  -17.9410   14.9123 C   0  0  0  0  0  0  0  0  0  0  0  0
  -36.9188  -19.0210   14.7435 C   0  0  0  0  0  0  0  0  0  0  0  0
  -25.2791  -22.1574   19.7218 C   0  0  0  0  0  0  0  0  0  0  0  0
  -35.0279  -20.5211   14.6359 C   0  0  0  0  0  0  0  0  0  0  0  0
  -31.3096  -17.1126   18.4207 C   0  0  0  0  0  0  0  0  0  0  0  0
  -29.6760  -18.2061   20.0465 C   0  0  0  0  0  0  0  0  0  0  0  0
  -23.8983  -30.7866   22.3176 C   0  0  0  0  0  0  0  0  0  0  0  0
  -25.6420  -23.6973   21.5539 C   0  0  0  0  0  0  0  0  0  0  0  0
  -23.6349  -29.4305   22.0452 C   0  0  0  0  0  0  0  0  0  0  0  0
  -25.8950  -23.3113   20.2299 C   0  0  0  0  0  0  0  0  0  0  0  0
  -32.9936  -17.0892   16.1967 C   0  0  0  0  0  0  0  0  0  0  0  0
  -24.4334  -21.3910   20.5234 C   0  0  0  0  0  0  0  0  0  0  0  0
  -34.6737  -18.1510   14.9429 C   0  0  0  0  0  0  0  0  0  0  0  0
  -36.4066  -20.3111   14.6053 C   0  0  0  0  0  0  0  0  0  0  0  0
  -34.1615  -19.4411   14.8047 C   0  0  0  0  0  0  0  0  0  0  0  0
  -30.4395  -17.1240   19.5691 C   0  0  0  0  0  0  0  0  0  0  0  0
  -29.0285  -17.7087   21.1509 C   0  0  0  0  0  0  0  0  0  0  0  0
  -29.5621  -19.5414   19.5370 C   0  0  0  0  0  0  0  0  0  0  0  0
  -25.5823  -26.6961   20.5015 C   0  0  0  0  0  0  0  0  0  0  0  0
  -28.5306  -25.9477   19.3745 C   0  0  0  0  0  0  0  0  0  0  0  0
  -30.7180  -23.5317   18.3620 C   0  0  0  0  0  0  0  0  0  0  0  0
  -27.6036  -12.1572   22.5992 C   0  0  0  0  0  0  0  0  0  0  0  0
  -24.6911  -31.6474   21.3662 C   0  0  0  0  0  0  0  0  0  0  0  0
  -26.3076  -24.9158   22.1325 C   0  0  0  0  0  0  0  0  0  0  0  0
  -26.8055  -24.1072   19.3320 C   0  0  0  0  0  0  0  0  0  0  0  0
  -25.5189  -30.8457   20.3651 C   0  0  0  0  0  0  0  0  0  0  0  0
  -29.6075  -14.4564   24.5242 C   0  0  0  0  0  0  0  0  0  0  0  0
  -24.6797  -29.7299   19.7508 C   0  0  0  0  0  0  0  0  0  0  0  0
  -27.9065   -9.3838   20.3497 C   0  0  0  0  0  0  0  0  0  0  0  0
  -26.6760   -8.9639   19.5952 C   0  0  0  0  0  0  0  0  0  0  0  0
  -29.9587  -15.5304   23.4942 C   0  0  0  0  0  0  0  0  0  0  0  0
  -22.8460  -18.4488   21.2217 C   0  0  0  0  0  0  0  0  0  0  0  0
  -24.8054  -18.0810   19.6704 C   0  0  0  0  0  0  0  0  0  0  0  0
  -23.0705  -17.0709   21.8326 C   0  0  0  0  0  0  0  0  0  0  0  0
  -25.0305  -16.7035   20.2820 C   0  0  0  0  0  0  0  0  0  0  0  0
  -29.5531  -13.0643   23.9004 C   0  0  0  0  0  0  0  0  0  0  0  0
  -26.6313  -13.5176   20.7089 C   0  0  0  0  0  0  0  0  0  0  0  0
  -29.0211  -14.0310   21.6950 C   0  0  0  0  0  0  0  0  0  0  0  0
  -24.2043  -28.7426   20.8235 C   0  0  1  0  0  0  0  0  0  0  0  0
  -26.7381  -25.9226   21.0704 C   0  0  1  0  0  0  0  0  0  0  0  0
  -26.9249  -10.4198   19.8763 C   0  0  0  0  0  0  0  0  0  0  0  0
  -25.3231  -13.3149   19.9563 C   0  0  1  0  0  0  0  0  0  0  0  0
  -24.8917  -11.8592   20.2044 C   0  0  2  0  0  0  0  0  0  0  0  0
  -23.7925  -12.3836   21.1770 C   0  0  1  0  0  0  0  0  0  0  0  0
  -29.0240  -15.4531   22.2732 C   0  0  2  0  0  0  0  0  0  0  0  0
  -26.0666  -11.1563   20.8643 C   0  0  2  0  0  0  0  0  0  0  0  0
  -24.1412  -19.0350   20.6628 C   0  0  0  0  0  0  0  0  0  1  0  0
  -23.7354  -16.1170   20.8406 C   0  0  0  0  0  0  0  0  0  0  0  0
  -23.9751  -13.7890   20.5604 C   0  0  1  0  0  0  0  0  0  0  0  0
  -22.4172  -11.7609   21.0232 C   0  0  0  0  0  0  0  0  0  0  0  0
  -32.8865  -22.5260   17.5982 C   0  0  0  0  0  0  0  0  0  0  0  0
  -27.5858  -26.8953   16.6324 C   0  0  0  0  0  0  0  0  0  0  0  0
  -29.5479  -25.7111   15.6244 C   0  0  0  0  0  0  0  0  0  0  0  0
  -29.9143  -27.5853   17.2293 C   0  0  0  0  0  0  0  0  0  0  0  0
  -31.6406  -23.1200   21.1438 C   0  0  0  0  0  0  0  0  0  0  0  0
  -29.0677  -25.3640   18.0901 C   0  0  1  0  0  0  0  0  0  0  0  0
  -32.1746  -23.2821   18.7092 C   0  0  2  0  0  0  0  0  0  0  0  0
  -29.0102  -26.3748   16.9101 C   0  0  0  0  0  0  0  0  0  0  0  0
  -30.2920  -16.0223   20.3098 N   0  0  0  0  0  0  0  0  0  0  0  0
  -29.4283  -16.4096   21.2638 N   0  0  0  0  0  0  0  0  0  0  0  0
  -27.4278  -25.2938   19.9420 N   0  0  0  0  0  0  0  0  0  0  0  0
  -28.6797  -13.0452   22.7272 N   0  0  0  0  0  0  0  0  0  0  0  0
  -26.8094  -12.2713   21.4517 N   0  0  0  0  0  0  0  0  0  0  0  0
  -28.1620  -18.2603   22.0269 N   0  0  0  0  0  0  0  0  0  0  0  0
  -30.2961  -19.8851   18.3935 N   0  0  0  0  0  0  0  0  0  0  0  0
  -25.2788  -27.8492   21.1999 N   0  0  0  0  0  0  0  0  0  0  0  0
  -30.4084  -24.8750   18.3932 N   0  0  0  0  0  0  0  0  0  0  0  0
  -32.2787  -22.4833   19.9629 N   0  3  0  0  0  0  0  0  0  0  0  0
  -28.8438  -20.4090   20.0892 O   0  0  0  0  0  0  0  0  0  0  0  0
  -25.0094  -26.2785   19.5020 O   0  0  0  0  0  0  0  0  0  0  0  0
  -29.0741  -26.9428   19.8603 O   0  0  0  0  0  0  0  0  0  0  0  0
  -29.9341  -22.6259   18.0868 O   0  0  0  0  0  0  0  0  0  0  0  0
  -27.3418  -11.3371   23.4885 O   0  0  0  0  0  0  0  0  0  0  0  0
  -33.8149  -17.0779   15.1113 O   0  0  0  0  0  0  0  0  0  0  0  0
  -23.8403  -20.2661   20.0147 O   0  0  0  0  0  0  0  0  0  1  0  0
  -24.0365  -14.8858   21.4886 O   0  0  0  0  0  0  0  0  0  0  0  0
  -37.2388  -21.3483   14.4447 F   0  0  0  0  0  0  0  0  0  0  0  0
  -32.8380  -19.6492   14.8344 F   0  0  0  0  0  0  0  0  0  0  0  0
  1  2  1  0  0  0  0
  1  5  2  0  0  0  0
  2  6  2  0  0  0  0
  3  8  2  0  0  0  0
  3 15  1  0  0  0  0
  4  9  1  0  0  0  0
  4 15  2  0  0  0  0
  5 17  1  0  0  0  0
  6 19  1  0  0  0  0
  7 10  2  0  0  0  0
  7 18  1  0  0  0  0
  8 21  1  0  0  0  0
  9 21  2  0  0  0  0
 10 22  1  0  0  0  0
 11 12  2  0  0  0  0
 11 23  1  0  0  0  0
 12 24  1  0  0  0  0
 13 20  1  0  0  0  0
 13 22  2  0  0  0  0
 14 24  2  0  0  0  0
 14 25  1  0  0  0  0
 15 26  1  0  0  0  0
 16 26  1  0  0  0  0
 16 27  2  0  0  0  0
 16 28  1  0  0  0  0
 17 19  2  0  0  0  0
 17 33  1  0  0  0  0
 18 20  2  0  0  0  0
 18 34  1  0  0  0  0
 19 49  1  0  0  0  0
 20 35  1  0  0  0  0
 21 84  1  0  0  0  0
 22 85  1  0  0  0  0
 23 25  2  0  0  0  0
 23 84  1  0  0  0  0
 24 87  1  0  0  0  0
 25 88  1  0  0  0  0
 26 69  2  0  0  0  0
 27 70  1  0  0  0  0
 27 74  1  0  0  0  0
 28 75  1  0  0  0  0
 28 79  2  0  0  0  0
 29 50  1  0  0  0  0
 29 76  1  0  0  0  0
 29 80  2  0  0  0  0
 30 66  1  0  0  0  0
 30 71  1  0  0  0  0
 30 81  2  0  0  0  0
 31 67  1  0  0  0  0
 31 77  1  0  0  0  0
 31 82  2  0  0  0  0
 32 72  1  0  0  0  0
 32 73  1  0  0  0  0
 32 83  2  0  0  0  0
 33 36  1  0  0  0  0
 34 50  1  0  0  0  0
 35 71  1  0  0  0  0
 36 38  1  0  0  0  0
 37 41  1  0  0  0  0
 37 46  1  0  0  0  0
 38 49  1  0  0  0  0
 39 40  1  0  0  0  0
 39 51  1  0  0  0  0
 40 51  1  0  0  0  0
 41 55  1  0  0  0  0
 42 44  1  0  0  0  0
 42 57  1  0  0  0  0
 43 45  1  0  0  0  0
 43 57  1  0  0  0  0
 44 58  1  0  0  0  0
 45 58  1  0  0  0  0
 46 72  1  0  0  0  0
 47 52  1  0  0  0  0
 47 73  1  0  0  0  0
 48 55  1  0  0  0  0
 48 72  1  0  0  0  0
 49 76  1  0  0  0  0
 50 71  1  0  0  0  0
 51 56  1  0  0  0  0
 52 53  1  0  0  0  0
 52 59  1  0  0  0  0
 53 54  1  0  0  0  0
 53 56  1  0  0  0  0
 54 59  1  0  0  0  0
 54 60  1  0  0  0  0
 55 70  1  0  0  0  0
 56 73  1  0  0  0  0
 57 85  1  0  0  0  0
 58 86  1  0  0  0  0
 59 86  1  0  0  0  0
 61 67  1  0  0  0  0
 62 68  1  0  0  0  0
 63 68  1  0  0  0  0
 64 68  1  0  0  0  0
 65 78  1  0  0  0  0
 66 68  1  0  0  0  0
 66 77  1  0  0  0  0
 67 78  1  0  0  0  0
 69 70  1  0  0  0  0
M  CHG  1  78   1
M  ISO  4  32 100  57 101  73 100  85 101
M  END
> <Batch ID>
0145

> <Smiles>
CNC(C)C(=O)NC(C(=O)N1Cc2cc([101O:1][101CH:1]3CCC(OC4C(C)C5C4C[100N:0]([100C:0](=O)N4CCCC(n6nc(-c7ccc(Oc8ccc(F)cc8F)cc7)c(C(N)=O)c6N)C4)C5C4CC4)CC3)ccc2CC1C(=O)NC1CCCc2ccccc21)C(C)(C)C

> <Shape>
0.202

> <Color>
0.086

> <Negative vol penalty>
0.000

$$$$

  -OEChem-04052321283D

 90 99  0     1  0  0  0  0  0999 V2000
  -30.4359  -26.7197   16.8017 C   0  0  0  0  0  0  0  0  0  0  0  0
  -29.1710  -26.1428   16.7948 C   0  0  0  0  0  0  0  0  0  0  0  0
  -20.7792  -16.0889   24.4068 C   0  0  0  0  0  0  0  0  0  0  0  0
  -29.0091  -19.8733   20.7813 C   0  0  0  0  0  0  0  0  0  0  0  0
  -27.2238  -19.9589   19.1558 C   0  0  0  0  0  0  0  0  0  0  0  0
  -30.8654  -27.4352   17.9174 C   0  0  0  0  0  0  0  0  0  0  0  0
  -28.3306  -26.2912   17.8987 C   0  0  0  0  0  0  0  0  0  0  0  0
  -22.8247  -23.9392   19.0302 C   0  0  0  0  0  0  0  0  0  0  0  0
  -20.7001  -14.8867   23.7040 C   0  0  0  0  0  0  0  0  0  0  0  0
  -21.3109  -17.2225   23.7921 C   0  0  0  0  0  0  0  0  0  0  0  0
  -29.5256  -21.0667   20.2769 C   0  0  0  0  0  0  0  0  0  0  0  0
  -27.7403  -21.1524   18.6514 C   0  0  0  0  0  0  0  0  0  0  0  0
  -22.2966  -22.8081   19.6511 C   0  0  0  0  0  0  0  0  0  0  0  0
  -31.3793  -22.0561   17.6294 C   0  0  0  0  0  0  0  0  0  0  0  0
  -32.7562  -22.1275   17.4183 C   0  0  0  0  0  0  0  0  0  0  0  0
  -21.9708  -24.0787   21.6755 C   0  0  0  0  0  0  0  0  0  0  0  0
  -21.6845  -15.9516   21.7716 C   0  0  0  0  0  0  0  0  0  0  0  0
  -32.8983  -23.9741   18.9698 C   0  0  0  0  0  0  0  0  0  0  0  0
  -27.8582  -19.3193   20.2207 C   0  0  0  0  0  0  0  0  0  0  0  0
  -26.3779  -17.9377   21.7723 C   0  0  0  0  0  0  0  0  0  0  0  0
  -30.0340  -27.5814   19.0401 C   0  0  0  0  0  0  0  0  0  0  0  0
  -22.9400  -25.1478   19.7320 C   0  0  0  0  0  0  0  0  0  0  0  0
  -28.7367  -27.0299   19.0248 C   0  0  0  0  0  0  0  0  0  0  0  0
  -22.4983  -25.2244   21.0606 C   0  0  0  0  0  0  0  0  0  0  0  0
  -21.1528  -14.8180   22.3864 C   0  0  0  0  0  0  0  0  0  0  0  0
  -28.8912  -21.7063   19.2120 C   0  0  0  0  0  0  0  0  0  0  0  0
  -21.8722  -22.8769   20.9748 C   0  0  0  0  0  0  0  0  0  0  0  0
  -21.7635  -17.1539   22.4745 C   0  0  0  0  0  0  0  0  0  0  0  0
  -30.7618  -22.9437   18.5106 C   0  0  0  0  0  0  0  0  0  0  0  0
  -33.5157  -23.0865   18.0885 C   0  0  0  0  0  0  0  0  0  0  0  0
  -31.5213  -23.9027   19.1808 C   0  0  0  0  0  0  0  0  0  0  0  0
  -27.3244  -18.0862   20.7409 C   0  0  0  0  0  0  0  0  0  0  0  0
  -26.2063  -16.5799   21.8880 C   0  0  0  0  0  0  0  0  0  0  0  0
  -25.7132  -18.9377   22.5558 C   0  0  0  0  0  0  0  0  0  0  0  0
  -25.3608  -27.0182   20.5952 C   0  0  0  0  0  0  0  0  0  0  0  0
  -22.9788  -28.9814   21.5920 C   0  0  0  0  0  0  0  0  0  0  0  0
  -19.7435  -29.3187   22.6244 C   0  0  0  0  0  0  0  0  0  0  0  0
  -25.4888  -11.5507   19.5775 C   0  0  0  0  0  0  0  0  0  0  0  0
  -30.5463  -28.3727   20.2176 C   0  0  0  0  0  0  0  0  0  0  0  0
  -23.4871  -26.3660   19.0397 C   0  0  0  0  0  0  0  0  0  0  0  0
  -22.5818  -26.5035   21.8515 C   0  0  0  0  0  0  0  0  0  0  0  0
  -29.7678  -28.1006   21.5007 C   0  0  0  0  0  0  0  0  0  0  0  0
  -28.8283  -12.7473   19.8821 C   0  0  0  0  0  0  0  0  0  0  0  0
  -28.2739  -28.2128   21.2359 C   0  0  0  0  0  0  0  0  0  0  0  0
  -28.6565  -14.2313   20.2114 C   0  0  0  0  0  0  0  0  0  0  0  0
  -27.7640  -12.2600   18.9014 C   0  0  0  0  0  0  0  0  0  0  0  0
  -26.2017  -14.0174   19.6395 C   0  0  0  0  0  0  0  0  0  0  0  0
  -27.8170  -27.1523   20.2262 C   0  0  1  0  0  0  0  0  0  0  0  0
  -24.0337  -27.4093   20.0093 C   0  0  1  0  0  0  0  0  0  0  0  0
  -23.1045  -10.2335   21.6004 C   0  0  1  0  0  0  0  0  0  0  0  0
  -27.2183  -14.5414   20.6682 C   0  0  2  0  0  0  0  0  0  0  0  0
  -23.1802  -10.9948   20.2989 C   0  0  1  0  0  0  0  0  0  0  0  0
  -22.0633  -11.2698   21.2748 C   0  0  2  0  0  0  0  0  0  0  0  0
  -25.1839   -8.0352   22.2905 C   0  0  0  0  0  0  0  0  0  0  0  0
  -18.0945  -31.0414   23.4059 C   0  0  0  0  0  0  0  0  0  0  0  0
  -22.1408   -8.3820   22.9745 C   0  0  0  0  0  0  0  0  0  0  0  0
  -21.6702   -8.4991   20.5147 C   0  0  0  0  0  0  0  0  0  0  0  0
  -24.3443  -29.0474   24.3198 C   0  0  0  0  0  0  0  0  0  0  0  0
  -22.2204  -29.9577   25.2834 C   0  0  0  0  0  0  0  0  0  0  0  0
  -23.4548  -31.2525   23.5449 C   0  0  0  0  0  0  0  0  0  0  0  0
  -17.9271  -28.7800   20.3507 C   0  0  0  0  0  0  0  0  0  0  0  0
  -21.0686  -13.5324   21.6352 C   0  0  0  0  0  0  0  0  0  0  0  0
  -24.0182   -7.9194   21.3158 C   0  0  0  0  0  0  0  0  0  0  0  0
  -21.8397  -20.5050   21.1445 C   0  0  0  0  0  0  0  0  0  1  0  0
  -21.7798  -19.5256   22.3007 C   0  0  0  0  0  0  0  0  0  0  0  0
  -22.2062  -29.1581   22.8768 C   0  0  1  0  0  0  0  0  0  0  0  0
  -18.6491  -30.2852   22.2087 C   0  0  2  0  0  0  0  0  0  0  0  0
  -22.7448   -8.7877   21.6005 C   0  0  0  0  0  0  0  0  0  0  0  0
  -23.0565  -29.8292   23.9922 C   0  0  0  0  0  0  0  0  0  0  0  0
  -27.7261  -16.9161   20.2373 N   0  0  0  0  0  0  0  0  0  0  0  0
  -27.0287  -16.0194   20.9554 N   0  0  0  0  0  0  0  0  0  0  0  0
  -23.1298  -27.6654   21.1325 N   0  0  0  0  0  0  0  0  0  0  0  0
  -26.4230  -12.5836   19.3943 N   0  0  0  0  0  0  0  0  0  0  0  0
  -25.4338  -15.8226   22.6955 N   0  0  0  0  0  0  0  0  0  0  0  0
  -26.0059  -20.2855   22.3065 N   0  0  0  0  0  0  0  0  0  0  0  0
  -26.4483  -27.4224   19.8446 N   0  0  0  0  0  0  0  0  0  0  0  0
  -20.9942  -29.8910   22.5269 N   0  0  0  0  0  0  0  0  0  0  0  0
  -24.2438  -11.9432   20.0538 N   0  0  0  0  0  0  0  0  0  0  0  0
  -22.0944  -12.5365   22.0513 N   0  3  0  0  0  0  0  0  0  0  0  0
  -17.5285  -29.5497   21.5573 N   0  3  0  0  0  0  0  0  0  0  0  0
  -24.8965  -18.6442   23.4615 O   0  0  0  0  0  0  0  0  0  0  0  0
  -25.3957  -26.3969   21.6509 O   0  0  0  0  0  0  0  0  0  0  0  0
  -23.4255  -29.9751   21.0134 O   0  0  0  0  0  0  0  0  0  0  0  0
  -19.5117  -28.1722   23.0016 O   0  0  0  0  0  0  0  0  0  0  0  0
  -25.7470  -10.3659   19.3398 O   0  0  0  0  0  0  0  0  0  0  0  0
  -29.3948  -22.8710   18.7197 O   0  0  0  0  0  0  0  0  0  0  0  0
  -21.3570  -21.7742   21.5834 O   0  0  0  0  0  0  0  0  0  1  0  0
  -22.2852  -18.2675   21.8705 O   0  0  0  0  0  0  0  0  0  0  0  0
  -34.8382  -23.1539   17.8869 F   0  0  0  0  0  0  0  0  0  0  0  0
  -30.9339  -24.7574   20.0295 F   0  0  0  0  0  0  0  0  0  0  0  0
  1  2  1  0  0  0  0
  1  6  2  0  0  0  0
  2  7  2  0  0  0  0
  3  9  2  0  0  0  0
  3 10  1  0  0  0  0
  4 11  2  0  0  0  0
  4 19  1  0  0  0  0
  5 12  1  0  0  0  0
  5 19  2  0  0  0  0
  6 21  1  0  0  0  0
  7 23  1  0  0  0  0
  8 13  2  0  0  0  0
  8 22  1  0  0  0  0
  9 25  1  0  0  0  0
 10 28  2  0  0  0  0
 11 26  1  0  0  0  0
 12 26  2  0  0  0  0
 13 27  1  0  0  0  0
 14 15  2  0  0  0  0
 14 29  1  0  0  0  0
 15 30  1  0  0  0  0
 16 24  1  0  0  0  0
 16 27  2  0  0  0  0
 17 25  2  0  0  0  0
 17 28  1  0  0  0  0
 18 30  2  0  0  0  0
 18 31  1  0  0  0  0
 19 32  1  0  0  0  0
 20 32  1  0  0  0  0
 20 33  2  0  0  0  0
 20 34  1  0  0  0  0
 21 23  2  0  0  0  0
 21 39  1  0  0  0  0
 22 24  2  0  0  0  0
 22 40  1  0  0  0  0
 23 48  1  0  0  0  0
 24 41  1  0  0  0  0
 25 62  1  0  0  0  0
 26 86  1  0  0  0  0
 27 87  1  0  0  0  0
 28 88  1  0  0  0  0
 29 31  2  0  0  0  0
 29 86  1  0  0  0  0
 30 89  1  0  0  0  0
 31 90  1  0  0  0  0
 32 70  2  0  0  0  0
 33 71  1  0  0  0  0
 33 74  1  0  0  0  0
 34 75  1  0  0  0  0
 34 81  2  0  0  0  0
 35 49  1  0  0  0  0
 35 76  1  0  0  0  0
 35 82  2  0  0  0  0
 36 66  1  0  0  0  0
 36 72  1  0  0  0  0
 36 83  2  0  0  0  0
 37 67  1  0  0  0  0
 37 77  1  0  0  0  0
 37 84  2  0  0  0  0
 38 73  1  0  0  0  0
 38 78  1  0  0  0  0
 38 85  2  0  0  0  0
 39 42  1  0  0  0  0
 40 49  1  0  0  0  0
 41 72  1  0  0  0  0
 42 44  1  0  0  0  0
 43 45  1  0  0  0  0
 43 46  1  0  0  0  0
 44 48  1  0  0  0  0
 45 51  1  0  0  0  0
 46 73  1  0  0  0  0
 47 51  1  0  0  0  0
 47 73  1  0  0  0  0
 48 76  1  0  0  0  0
 49 72  1  0  0  0  0
 50 52  1  0  0  0  0
 50 53  1  0  0  0  0
 50 68  1  0  0  0  0
 51 71  1  0  0  0  0
 52 53  1  0  0  0  0
 52 78  1  0  0  0  0
 53 79  1  0  0  0  0
 54 63  1  0  0  0  0
 55 67  1  0  0  0  0
 56 68  1  0  0  0  0
 57 68  1  0  0  0  0
 58 69  1  0  0  0  0
 59 69  1  0  0  0  0
 60 69  1  0  0  0  0
 61 80  1  0  0  0  0
 62 79  1  0  0  0  0
 63 68  1  0  0  0  0
 64 65  1  0  0  0  0
 64 87  1  0  0  0  0
 65 88  1  0  0  0  0
 66 69  1  0  0  0  0
 66 77  1  0  0  0  0
 67 80  1  0  0  0  0
 70 71  1  0  0  0  0
M  CHG  2  79   1  80   1
M  ISO  4  38 100  64 101  78 100  87 101
M  END
> <Batch ID>
0145

> <Smiles>
CCC(C)(C)C1C(NCc2cccc(OC[101CH2:1][101O:1]c3ccc4c(c3)CN(C(=O)C(NC(=O)C(C)NC)C(C)(C)C)C(C(=O)NC3CCCc5ccccc53)C4)c2)C1[100NH:0][100C:0](=O)N1CCCC(n2nc(-c3ccc(Oc4ccc(F)cc4F)cc3)c(C(N)=O)c2N)C1

> <Shape>
0.258

> <Color>
0.044

> <Negative vol penalty>
0.000

$$$$

  -OEChem-04052321283D

 85 94  0     1  0  0  0  0  0999 V2000
  -25.1958  -33.8201   25.1199 C   0  0  0  0  0  0  0  0  0  0  0  0
  -25.6412  -32.5042   25.0455 C   0  0  0  0  0  0  0  0  0  0  0  0
  -22.9697  -10.0609   19.8821 C   0  0  0  0  0  0  0  0  0  0  0  0
  -23.8703   -9.7680   22.1047 C   0  0  0  0  0  0  0  0  0  0  0  0
  -24.0866  -34.2224   24.3771 C   0  0  0  0  0  0  0  0  0  0  0  0
  -24.9769  -31.5896   24.2290 C   0  0  0  0  0  0  0  0  0  0  0  0
  -28.1615  -28.7518   21.4995 C   0  0  0  0  0  0  0  0  0  0  0  0
  -22.1929   -8.9140   20.0457 C   0  0  0  0  0  0  0  0  0  0  0  0
  -23.0935   -8.6211   22.2683 C   0  0  0  0  0  0  0  0  0  0  0  0
  -28.7948  -27.6964   22.1543 C   0  0  0  0  0  0  0  0  0  0  0  0
  -19.8771   -7.8750   22.9888 C   0  0  0  0  0  0  0  0  0  0  0  0
  -19.1935   -7.7239   24.1952 C   0  0  0  0  0  0  0  0  0  0  0  0
  -30.1540  -18.8779   22.9238 C   0  0  0  0  0  0  0  0  0  0  0  0
  -27.1970  -26.1576   21.2064 C   0  0  0  0  0  0  0  0  0  0  0  0
  -31.4082  -17.4421   20.8926 C   0  0  0  0  0  0  0  0  0  0  0  0
  -20.3921   -5.6689   24.6170 C   0  0  0  0  0  0  0  0  0  0  0  0
  -23.8084  -10.4879   20.9116 C   0  0  0  0  0  0  0  0  0  0  0  0
  -24.2526  -12.9954   21.0630 C   0  0  0  0  0  0  0  0  0  0  0  0
  -23.4143  -33.3147   23.5436 C   0  0  0  0  0  0  0  0  0  0  0  0
  -27.0328  -28.5192   20.7006 C   0  0  0  0  0  0  0  0  0  0  0  0
  -23.8570  -31.9799   23.4753 C   0  0  0  0  0  0  0  0  0  0  0  0
  -31.0272  -19.5437   22.0498 C   0  0  0  0  0  0  0  0  0  0  0  0
  -26.5528  -27.2115   20.5404 C   0  0  0  0  0  0  0  0  0  0  0  0
  -29.9091  -17.5117   22.7812 C   0  0  0  0  0  0  0  0  0  0  0  0
  -30.5373  -16.7940   21.7668 C   0  0  0  0  0  0  0  0  0  0  0  0
  -31.6471  -18.8133   21.0257 C   0  0  0  0  0  0  0  0  0  0  0  0
  -22.2548   -8.1941   21.2388 C   0  0  0  0  0  0  0  0  0  0  0  0
  -28.3108  -26.3994   22.0101 C   0  0  0  0  0  0  0  0  0  0  0  0
  -20.8182   -6.9231   22.5965 C   0  0  0  0  0  0  0  0  0  0  0  0
  -19.4509   -6.6209   25.0093 C   0  0  0  0  0  0  0  0  0  0  0  0
  -21.0757   -5.8201   23.4105 C   0  0  0  0  0  0  0  0  0  0  0  0
  -24.6115  -11.6723   20.7430 C   0  0  0  0  0  0  0  0  0  0  0  0
  -25.3519  -13.7426   20.7169 C   0  0  0  0  0  0  0  0  0  0  0  0
  -23.0345  -13.5036   21.6230 C   0  0  0  0  0  0  0  0  0  0  0  0
  -23.9961  -29.4551   20.7811 C   0  0  0  0  0  0  0  0  0  0  0  0
  -23.8550  -27.9242   17.9247 C   0  0  0  0  0  0  0  0  0  0  0  0
  -25.1442  -25.5439   15.8465 C   0  0  0  0  0  0  0  0  0  0  0  0
  -30.8590  -14.5611   20.6456 C   0  0  0  0  0  0  0  0  0  0  0  0
  -22.1915  -33.7842   22.7959 C   0  0  0  0  0  0  0  0  0  0  0  0
  -26.3772  -29.6648   19.9795 C   0  0  0  0  0  0  0  0  0  0  0  0
  -25.3565  -26.9058   19.6779 C   0  0  0  0  0  0  0  0  0  0  0  0
  -21.7708  -32.8470   21.6668 C   0  0  0  0  0  0  0  0  0  0  0  0
  -29.4946  -12.4875   18.0930 C   0  0  0  0  0  0  0  0  0  0  0  0
  -21.7734  -31.3989   22.1461 C   0  0  0  0  0  0  0  0  0  0  0  0
  -28.0730  -12.1994   18.5812 C   0  0  0  0  0  0  0  0  0  0  0  0
  -32.5590  -21.4107   21.4600 C   0  0  0  0  0  0  0  0  0  0  0  0
  -30.4918  -12.5387   19.2491 C   0  0  0  0  0  0  0  0  0  0  0  0
  -28.7081  -13.1627   20.8297 C   0  0  0  0  0  0  0  0  0  0  0  0
  -32.5523  -20.7819   20.0751 C   0  0  0  0  0  0  0  0  0  0  0  0
  -31.2923  -21.0203   22.2274 C   0  0  1  0  0  0  0  0  0  0  0  0
  -23.1780  -30.9645   22.5819 C   0  0  1  0  0  0  0  0  0  0  0  0
  -24.9260  -29.3820   19.6031 C   0  0  1  0  0  0  0  0  0  0  0  0
  -27.6572  -13.1659   19.7075 C   0  0  2  0  0  0  0  0  0  0  0  0
  -28.9707  -16.8440   23.7336 C   0  0  0  0  0  0  0  0  0  0  0  0
  -24.7930  -24.4967   13.5932 C   0  0  0  0  0  0  0  0  0  0  0  0
  -21.4921  -26.3422   19.0309 C   0  0  0  0  0  0  0  0  0  0  0  0
  -21.7978  -24.7095   17.1576 C   0  0  0  0  0  0  0  0  0  0  0  0
  -21.2298  -27.0866   16.6578 C   0  0  0  0  0  0  0  0  0  0  0  0
  -27.8118  -26.4086   14.9002 C   0  0  0  0  0  0  0  0  0  0  0  0
  -30.0844  -21.8527   21.7858 C   0  0  0  0  0  0  0  0  0  0  0  0
  -30.0984  -23.2402   22.4211 C   0  0  0  0  0  0  0  0  0  0  0  0
  -28.8760  -24.0545   22.0184 C   0  0  0  0  0  0  0  0  0  1  0  0
  -23.5503  -26.5136   17.4817 C   0  0  1  0  0  0  0  0  0  0  0  0
  -25.5131  -25.5847   14.3745 C   0  0  2  0  0  0  0  0  0  0  0  0
  -22.0389  -26.1687   17.5999 C   0  0  0  0  0  0  0  0  0  0  0  0
  -25.8425  -11.5810   20.2327 N   0  0  0  0  0  0  0  0  0  0  0  0
  -26.2666  -12.8562   20.2293 N   0  0  0  0  0  0  0  0  0  0  0  0
  -24.7462  -28.0606   18.9984 N   0  0  0  0  0  0  0  0  0  0  0  0
  -30.0343  -13.4777   20.2757 N   0  0  0  0  0  0  0  0  0  0  0  0
  -25.6156  -15.0648   20.7850 N   0  0  0  0  0  0  0  0  0  0  0  0
  -22.0066  -12.5981   21.9194 N   0  0  0  0  0  0  0  0  0  0  0  0
  -30.3050  -15.4053   21.6074 N   0  0  0  0  0  0  0  0  0  0  0  0
  -23.9997  -30.6773   21.4258 N   0  0  0  0  0  0  0  0  0  0  0  0
  -24.0890  -26.3843   16.1320 N   0  0  0  0  0  0  0  0  0  0  0  0
  -26.9811  -25.3933   14.2029 N   0  3  0  0  0  0  0  0  0  0  0  0
  -22.8565  -14.7264   21.8385 O   0  0  0  0  0  0  0  0  0  0  0  0
  -23.3240  -28.4756   21.0819 O   0  0  0  0  0  0  0  0  0  0  0  0
  -23.3273  -28.8705   17.3350 O   0  0  0  0  0  0  0  0  0  0  0  0
  -25.7309  -24.8345   16.6608 O   0  0  0  0  0  0  0  0  0  0  0  0
  -31.9631  -14.7430   20.1262 O   0  0  0  0  0  0  0  0  0  0  0  0
  -32.5340  -19.3534   20.1305 O   0  0  0  0  0  0  0  0  0  0  0  0
  -21.4967   -7.0750   21.3989 O   0  0  0  0  0  0  0  0  0  0  0  0
  -28.9266  -25.3675   22.6487 O   0  0  0  0  0  0  0  0  0  1  0  0
  -18.7954   -6.4766   26.1685 F   0  0  0  0  0  0  0  0  0  0  0  0
  -21.9795   -4.9029   23.0395 F   0  0  0  0  0  0  0  0  0  0  0  0
  1  2  1  0  0  0  0
  1  5  2  0  0  0  0
  2  6  2  0  0  0  0
  3  8  2  0  0  0  0
  3 17  1  0  0  0  0
  4  9  1  0  0  0  0
  4 17  2  0  0  0  0
  5 19  1  0  0  0  0
  6 21  1  0  0  0  0
  7 10  2  0  0  0  0
  7 20  1  0  0  0  0
  8 27  1  0  0  0  0
  9 27  2  0  0  0  0
 10 28  1  0  0  0  0
 11 12  2  0  0  0  0
 11 29  1  0  0  0  0
 12 30  1  0  0  0  0
 13 22  1  0  0  0  0
 13 24  2  0  0  0  0
 14 23  1  0  0  0  0
 14 28  2  0  0  0  0
 15 25  2  0  0  0  0
 15 26  1  0  0  0  0
 16 30  2  0  0  0  0
 16 31  1  0  0  0  0
 17 32  1  0  0  0  0
 18 32  1  0  0  0  0
 18 33  2  0  0  0  0
 18 34  1  0  0  0  0
 19 21  2  0  0  0  0
 19 39  1  0  0  0  0
 20 23  2  0  0  0  0
 20 40  1  0  0  0  0
 21 51  1  0  0  0  0
 22 26  2  0  0  0  0
 22 50  1  0  0  0  0
 23 41  1  0  0  0  0
 24 25  1  0  0  0  0
 24 54  1  0  0  0  0
 25 72  1  0  0  0  0
 26 81  1  0  0  0  0
 27 82  1  0  0  0  0
 28 83  1  0  0  0  0
 29 31  2  0  0  0  0
 29 82  1  0  0  0  0
 30 84  1  0  0  0  0
 31 85  1  0  0  0  0
 32 66  2  0  0  0  0
 33 67  1  0  0  0  0
 33 70  1  0  0  0  0
 34 71  1  0  0  0  0
 34 76  2  0  0  0  0
 35 52  1  0  0  0  0
 35 73  1  0  0  0  0
 35 77  2  0  0  0  0
 36 63  1  0  0  0  0
 36 68  1  0  0  0  0
 36 78  2  0  0  0  0
 37 64  1  0  0  0  0
 37 74  1  0  0  0  0
 37 79  2  0  0  0  0
 38 69  1  0  0  0  0
 38 72  1  0  0  0  0
 38 80  2  0  0  0  0
 39 42  1  0  0  0  0
 40 52  1  0  0  0  0
 41 68  1  0  0  0  0
 42 44  1  0  0  0  0
 43 45  1  0  0  0  0
 43 47  1  0  0  0  0
 44 51  1  0  0  0  0
 45 53  1  0  0  0  0
 46 49  1  0  0  0  0
 46 50  1  0  0  0  0
 47 69  1  0  0  0  0
 48 53  1  0  0  0  0
 48 69  1  0  0  0  0
 49 81  1  0  0  0  0
 50 60  1  0  0  0  0
 51 73  1  0  0  0  0
 52 68  1  0  0  0  0
 53 67  1  0  0  0  0
 55 64  1  0  0  0  0
 56 65  1  0  0  0  0
 57 65  1  0  0  0  0
 58 65  1  0  0  0  0
 59 75  1  0  0  0  0
 60 61  1  0  0  0  0
 61 62  1  0  0  0  0
 62 83  1  0  0  0  0
 63 65  1  0  0  0  0
 63 74  1  0  0  0  0
 64 75  1  0  0  0  0
 66 67  1  0  0  0  0
M  CHG  1  75   1
M  ISO  4  38 100  62 101  72 100  83 101
M  END
> <Batch ID>
0145

> <Smiles>
CNC(C)C(=O)NC(C(=O)N1Cc2cc([101O:1][101CH2:1]CCC3CCOc4cc([100NH:0][100C:0](=O)N5CCCC(n6nc(-c7ccc(Oc8ccc(F)cc8F)cc7)c(C(N)=O)c6N)C5)c(C)cc43)ccc2CC1C(=O)NC1CCCc2ccccc21)C(C)(C)C

> <Shape>
0.304

> <Color>
0.202

> <Negative vol penalty>
0.000

$$$$

  -OEChem-04052321283D

 89 99  0     1  0  0  0  0  0999 V2000
  -25.4078  -31.3661   20.5174 C   0  0  0  0  0  0  0  0  0  0  0  0
  -25.2420  -30.0152   20.2295 C   0  0  0  0  0  0  0  0  0  0  0  0
  -30.7625  -19.5410   19.3136 C   0  0  0  0  0  0  0  0  0  0  0  0
  -28.4815  -19.7591   20.0795 C   0  0  0  0  0  0  0  0  0  0  0  0
  -24.7548  -31.9295   21.6129 C   0  0  0  0  0  0  0  0  0  0  0  0
  -24.4237  -29.2266   21.0376 C   0  0  0  0  0  0  0  0  0  0  0  0
  -20.8970  -24.5483   19.2540 C   0  0  0  0  0  0  0  0  0  0  0  0
  -30.6572  -20.7641   18.6515 C   0  0  0  0  0  0  0  0  0  0  0  0
  -28.3762  -20.9823   19.4174 C   0  0  0  0  0  0  0  0  0  0  0  0
  -21.0856  -23.1672   19.2827 C   0  0  0  0  0  0  0  0  0  0  0  0
  -27.6232  -24.3343   18.2279 C   0  0  0  0  0  0  0  0  0  0  0  0
  -27.0290  -25.3943   18.9128 C   0  0  0  0  0  0  0  0  0  0  0  0
  -21.2151  -14.5146   18.9140 C   0  0  0  0  0  0  0  0  0  0  0  0
  -19.8725  -23.0509   21.3646 C   0  0  0  0  0  0  0  0  0  0  0  0
  -28.7322  -25.2460   20.6199 C   0  0  0  0  0  0  0  0  0  0  0  0
  -20.0674  -15.2879   18.8462 C   0  0  0  0  0  0  0  0  0  0  0  0
  -29.6747  -19.0384   20.0276 C   0  0  0  0  0  0  0  0  0  0  0  0
  -30.2066  -17.5584   22.0361 C   0  0  0  0  0  0  0  0  0  0  0  0
  -23.9205  -31.1496   22.4292 C   0  0  0  0  0  0  0  0  0  0  0  0
  -20.2029  -25.1935   20.2876 C   0  0  0  0  0  0  0  0  0  0  0  0
  -23.7600  -29.7798   22.1458 C   0  0  0  0  0  0  0  0  0  0  0  0
  -19.6742  -24.4399   21.3453 C   0  0  0  0  0  0  0  0  0  0  0  0
  -22.2477  -16.3201   20.1215 C   0  0  0  0  0  0  0  0  0  0  0  0
  -29.4641  -21.4848   18.7034 C   0  0  0  0  0  0  0  0  0  0  0  0
  -20.5759  -22.4187   20.3396 C   0  0  0  0  0  0  0  0  0  0  0  0
  -28.7718  -23.7302   18.7391 C   0  0  0  0  0  0  0  0  0  0  0  0
  -22.3216  -15.0478   19.5655 C   0  0  0  0  0  0  0  0  0  0  0  0
  -27.5835  -25.8502   20.1088 C   0  0  0  0  0  0  0  0  0  0  0  0
  -29.3264  -24.1860   19.9350 C   0  0  0  0  0  0  0  0  0  0  0  0
  -29.7827  -17.7747   20.7113 C   0  0  0  0  0  0  0  0  0  0  0  0
  -21.0538  -17.0127   19.9995 C   0  0  0  0  0  0  0  0  0  0  0  0
  -30.1315  -16.1972   22.2028 C   0  0  0  0  0  0  0  0  0  0  0  0
  -30.6304  -18.5036   23.0275 C   0  0  0  0  0  0  0  0  0  0  0  0
  -20.9418  -27.4088   22.4441 C   0  0  0  0  0  0  0  0  0  0  0  0
  -17.7759  -27.2397   23.1302 C   0  0  0  0  0  0  0  0  0  0  0  0
  -14.8900  -25.4192   23.0630 C   0  0  0  0  0  0  0  0  0  0  0  0
  -26.7553  -12.1777   19.0480 C   0  0  0  0  0  0  0  0  0  0  0  0
  -23.2730  -31.7925   23.6300 C   0  0  0  0  0  0  0  0  0  0  0  0
  -19.9848  -26.6806   20.2283 C   0  0  0  0  0  0  0  0  0  0  0  0
  -18.9041  -25.0820   22.4692 C   0  0  0  0  0  0  0  0  0  0  0  0
  -22.1271  -30.9719   24.2164 C   0  0  0  0  0  0  0  0  0  0  0  0
  -30.3901  -12.0905   19.7704 C   0  0  0  0  0  0  0  0  0  0  0  0
  -25.0988  -13.5980   22.0867 C   0  0  0  0  0  0  0  0  0  0  0  0
  -23.9380  -18.2573   20.3750 C   0  0  0  0  0  0  0  0  0  0  0  0
  -24.7352  -17.0203   20.1019 C   0  0  0  0  0  0  0  0  0  0  0  0
  -22.5338  -29.5080   24.3523 C   0  0  0  0  0  0  0  0  0  0  0  0
  -30.6888  -13.5449   20.1309 C   0  0  0  0  0  0  0  0  0  0  0  0
  -23.6388  -13.2378   21.8140 C   0  0  0  0  0  0  0  0  0  0  0  0
  -29.2055  -11.9747   18.8159 C   0  0  0  0  0  0  0  0  0  0  0  0
  -26.0421  -12.5980   21.4297 C   0  0  0  0  0  0  0  0  0  0  0  0
  -28.2689  -14.0999   19.6686 C   0  0  0  0  0  0  0  0  0  0  0  0
  -24.3677  -12.0865   19.6771 C   0  0  0  0  0  0  0  0  0  0  0  0
  -23.4188  -16.9176   20.8263 C   0  0  0  0  0  0  0  0  0  0  0  0
  -22.8611  -28.8971   22.9843 C   0  0  1  0  0  0  0  0  0  0  0  0
  -19.7070  -27.2987   21.5951 C   0  0  1  0  0  0  0  0  0  0  0  0
  -29.4281  -14.2460   20.6654 C   0  0  2  0  0  0  0  0  0  0  0  0
  -23.3739  -13.0528   20.3197 C   0  0  2  0  0  0  0  0  0  0  0  0
  -12.4737  -25.5321   23.7308 C   0  0  0  0  0  0  0  0  0  0  0  0
  -18.5598  -26.7572   26.0393 C   0  0  0  0  0  0  0  0  0  0  0  0
  -16.2284  -25.9478   26.4605 C   0  0  0  0  0  0  0  0  0  0  0  0
  -16.6164  -28.2995   25.7246 C   0  0  0  0  0  0  0  0  0  0  0  0
  -13.9820  -25.1232   20.2618 C   0  0  0  0  0  0  0  0  0  0  0  0
  -19.7526  -20.2926   21.0163 C   0  0  0  0  0  0  0  0  0  1  0  0
  -19.6855  -18.9220   20.3708 C   0  0  0  0  0  0  0  0  0  0  0  0
  -16.9278  -26.4151   24.0681 C   0  0  1  0  0  0  0  0  0  0  0  0
  -13.4830  -25.7777   22.6201 C   0  0  2  0  0  0  0  0  0  0  0  0
  -17.0992  -26.8428   25.5531 C   0  0  0  0  0  0  0  0  0  0  0  0
  -19.9578  -16.5276   19.3741 N   0  0  0  0  0  0  0  0  0  0  0  0
  -29.4622  -16.6415   20.0810 N   0  0  0  0  0  0  0  0  0  0  0  0
  -29.6849  -15.7001   21.0139 N   0  0  0  0  0  0  0  0  0  0  0  0
  -18.7228  -26.5397   22.3692 N   0  0  0  0  0  0  0  0  0  0  0  0
  -28.0344  -12.6906   19.3219 N   0  0  0  0  0  0  0  0  0  0  0  0
  -25.7535  -12.4386   19.9984 N   0  0  0  0  0  0  0  0  0  0  0  0
  -30.4047  -15.3888   23.2490 N   0  0  0  0  0  0  0  0  0  0  0  0
  -30.6478  -19.8637   22.6897 N   0  0  0  0  0  0  0  0  0  0  0  0
  -21.6442  -28.5853   22.2658 N   0  0  0  0  0  0  0  0  0  0  0  0
  -15.5590  -26.5119   23.5726 N   0  0  0  0  0  0  0  0  0  0  0  0
  -13.0884  -24.9612   21.4375 N   0  3  0  0  0  0  0  0  0  0  0  0
  -30.9987  -18.1509   24.1736 O   0  0  0  0  0  0  0  0  0  0  0  0
  -21.2347  -26.4946   23.2058 O   0  0  0  0  0  0  0  0  0  0  0  0
  -17.5997  -28.4591   23.0697 O   0  0  0  0  0  0  0  0  0  0  0  0
  -15.3484  -24.2827   22.9700 O   0  0  0  0  0  0  0  0  0  0  0  0
  -26.5213  -11.5305   18.0200 O   0  0  0  0  0  0  0  0  0  0  0  0
  -29.3610  -22.6785   18.0576 O   0  0  0  0  0  0  0  0  0  0  0  0
  -23.4698  -14.3084   19.6491 O   0  0  0  0  0  0  0  0  0  0  0  0
  -20.7604  -21.0614   20.3706 O   0  0  0  0  0  0  0  0  0  1  0  0
  -20.9392  -18.2701   20.5334 O   0  0  0  0  0  0  0  0  0  0  0  0
  -27.0137  -26.8690   20.7655 F   0  0  0  0  0  0  0  0  0  0  0  0
  -30.4305  -23.6104   20.4304 F   0  0  0  0  0  0  0  0  0  0  0  0
  1  2  1  0  0  0  0
  1  5  2  0  0  0  0
  2  6  2  0  0  0  0
  3  8  2  0  0  0  0
  3 17  1  0  0  0  0
  4  9  1  0  0  0  0
  4 17  2  0  0  0  0
  5 19  1  0  0  0  0
  6 21  1  0  0  0  0
  7 10  2  0  0  0  0
  7 20  1  0  0  0  0
  8 24  1  0  0  0  0
  9 24  2  0  0  0  0
 10 25  1  0  0  0  0
 11 12  2  0  0  0  0
 11 26  1  0  0  0  0
 12 28  1  0  0  0  0
 13 16  1  0  0  0  0
 13 27  2  0  0  0  0
 14 22  1  0  0  0  0
 14 25  2  0  0  0  0
 15 28  2  0  0  0  0
 15 29  1  0  0  0  0
 16 68  2  0  0  0  0
 17 30  1  0  0  0  0
 18 30  1  0  0  0  0
 18 32  2  0  0  0  0
 18 33  1  0  0  0  0
 19 21  2  0  0  0  0
 19 38  1  0  0  0  0
 20 22  2  0  0  0  0
 20 39  1  0  0  0  0
 21 54  1  0  0  0  0
 22 40  1  0  0  0  0
 23 27  1  0  0  0  0
 23 31  2  0  0  0  0
 23 53  1  0  0  0  0
 24 84  1  0  0  0  0
 25 86  1  0  0  0  0
 26 29  2  0  0  0  0
 26 84  1  0  0  0  0
 27 85  1  0  0  0  0
 28 88  1  0  0  0  0
 29 89  1  0  0  0  0
 30 69  2  0  0  0  0
 31 68  1  0  0  0  0
 31 87  1  0  0  0  0
 32 70  1  0  0  0  0
 32 74  1  0  0  0  0
 33 75  1  0  0  0  0
 33 79  2  0  0  0  0
 34 55  1  0  0  0  0
 34 76  1  0  0  0  0
 34 80  2  0  0  0  0
 35 65  1  0  0  0  0
 35 71  1  0  0  0  0
 35 81  2  0  0  0  0
 36 66  1  0  0  0  0
 36 77  1  0  0  0  0
 36 82  2  0  0  0  0
 37 72  1  0  0  0  0
 37 73  1  0  0  0  0
 37 83  2  0  0  0  0
 38 41  1  0  0  0  0
 39 55  1  0  0  0  0
 40 71  1  0  0  0  0
 41 46  1  0  0  0  0
 42 47  1  0  0  0  0
 42 49  1  0  0  0  0
 43 48  1  0  0  0  0
 43 50  1  0  0  0  0
 44 45  1  0  0  0  0
 44 53  1  0  0  0  0
 45 53  1  0  0  0  0
 46 54  1  0  0  0  0
 47 56  1  0  0  0  0
 48 57  1  0  0  0  0
 49 72  1  0  0  0  0
 50 73  1  0  0  0  0
 51 56  1  0  0  0  0
 51 72  1  0  0  0  0
 52 57  1  0  0  0  0
 52 73  1  0  0  0  0
 54 76  1  0  0  0  0
 55 71  1  0  0  0  0
 56 70  1  0  0  0  0
 57 85  1  0  0  0  0
 58 66  1  0  0  0  0
 59 67  1  0  0  0  0
 60 67  1  0  0  0  0
 61 67  1  0  0  0  0
 62 78  1  0  0  0  0
 63 64  1  0  0  0  0
 63 86  1  0  0  0  0
 64 87  1  0  0  0  0
 65 67  1  0  0  0  0
 65 77  1  0  0  0  0
 66 78  1  0  0  0  0
 69 70  1  0  0  0  0
M  CHG  1  78   1
M  ISO  4  37 100  63 101  73 100  86 101
M  END
> <Batch ID>
0145

> <Smiles>
CNC(C)C(=O)NC(C(=O)N1Cc2cc([101O:1][101CH2:1]COc3nccc(OC4CCC[100N:0]([100C:0](=O)N5CCCC(n6nc(-c7ccc(Oc8ccc(F)cc8F)cc7)c(C(N)=O)c6N)C5)C4)c3C3CC3)ccc2CC1C(=O)NC1CCCc2ccccc21)C(C)(C)C

> <Shape>
0.274

> <Color>
0.064

> <Negative vol penalty>
0.000

$$$$

  -OEChem-04052321283D

 86 95  0     1  0  0  0  0  0999 V2000
  -35.1051  -28.9519   19.1582 C   0  0  0  0  0  0  0  0  0  0  0  0
  -33.8531  -28.5290   18.7234 C   0  0  0  0  0  0  0  0  0  0  0  0
  -26.5469  -12.4559   21.7230 C   0  0  0  0  0  0  0  0  0  0  0  0
  -25.9207  -13.7355   19.7717 C   0  0  0  0  0  0  0  0  0  0  0  0
  -35.3697  -29.0547   20.5233 C   0  0  0  0  0  0  0  0  0  0  0  0
  -32.8652  -28.2076   19.6535 C   0  0  0  0  0  0  0  0  0  0  0  0
  -23.9092  -22.9566   21.4914 C   0  0  0  0  0  0  0  0  0  0  0  0
  -26.8350  -29.1086   19.0792 C   0  0  0  0  0  0  0  0  0  0  0  0
  -23.3798  -23.7447   20.4696 C   0  0  0  0  0  0  0  0  0  0  0  0
  -25.2907  -11.8497   21.7287 C   0  0  0  0  0  0  0  0  0  0  0  0
  -24.6644  -13.1292   19.7773 C   0  0  0  0  0  0  0  0  0  0  0  0
  -25.7912  -28.2621   18.7079 C   0  0  0  0  0  0  0  0  0  0  0  0
  -23.7135   -9.3711   20.0549 C   0  0  0  0  0  0  0  0  0  0  0  0
  -23.6609   -7.9904   20.2458 C   0  0  0  0  0  0  0  0  0  0  0  0
  -25.3213  -27.8311   21.0345 C   0  0  0  0  0  0  0  0  0  0  0  0
  -22.3236   -8.3159   22.2314 C   0  0  0  0  0  0  0  0  0  0  0  0
  -26.8619  -13.3989   20.7446 C   0  0  0  0  0  0  0  0  0  0  0  0
  -29.3165  -13.5785   20.0735 C   0  0  0  0  0  0  0  0  0  0  0  0
  -34.3814  -28.7436   21.4705 C   0  0  0  0  0  0  0  0  0  0  0  0
  -27.1372  -29.3146   20.4329 C   0  0  0  0  0  0  0  0  0  0  0  0
  -33.1172  -28.3050   21.0325 C   0  0  0  0  0  0  0  0  0  0  0  0
  -25.1295  -22.3058   21.3094 C   0  0  0  0  0  0  0  0  0  0  0  0
  -26.3677  -28.6828   21.4203 C   0  0  0  0  0  0  0  0  0  0  0  0
  -24.0707  -23.8820   19.2656 C   0  0  0  0  0  0  0  0  0  0  0  0
  -25.2909  -23.2311   19.0835 C   0  0  0  0  0  0  0  0  0  0  0  0
  -24.3495  -12.1863   20.7559 C   0  0  0  0  0  0  0  0  0  0  0  0
  -25.0361  -27.6209   19.6856 C   0  0  0  0  0  0  0  0  0  0  0  0
  -23.0712  -10.2243   20.9523 C   0  0  0  0  0  0  0  0  0  0  0  0
  -25.8203  -22.4431   20.1054 C   0  0  0  0  0  0  0  0  0  0  0  0
  -22.9659   -7.4628   21.3340 C   0  0  0  0  0  0  0  0  0  0  0  0
  -22.3762   -9.6967   22.0405 C   0  0  0  0  0  0  0  0  0  0  0  0
  -28.1592  -14.0259   20.7385 C   0  0  0  0  0  0  0  0  0  0  0  0
  -30.2726  -14.5157   20.3801 C   0  0  0  0  0  0  0  0  0  0  0  0
  -29.5099  -12.4195   19.2520 C   0  0  0  0  0  0  0  0  0  0  0  0
  -29.6678  -28.7626   22.2755 C   0  0  0  0  0  0  0  0  0  0  0  0
  -27.9155  -30.3583   24.4903 C   0  0  0  0  0  0  0  0  0  0  0  0
  -24.8386  -31.3462   25.5875 C   0  0  0  0  0  0  0  0  0  0  0  0
  -29.9698  -20.2811   21.9672 C   0  0  0  0  0  0  0  0  0  0  0  0
  -34.7292  -28.8246   22.9358 C   0  0  0  0  0  0  0  0  0  0  0  0
  -28.2491  -30.2517   20.8174 C   0  0  0  0  0  0  0  0  0  0  0  0
  -26.6386  -28.8863   22.8878 C   0  0  0  0  0  0  0  0  0  0  0  0
  -33.5085  -28.8244   23.8524 C   0  0  0  0  0  0  0  0  0  0  0  0
  -31.4989  -17.6353   23.7941 C   0  0  0  0  0  0  0  0  0  0  0  0
  -26.0250  -20.0274   22.1343 C   0  0  0  0  0  0  0  0  0  0  0  0
  -24.8340  -20.3557   22.9792 C   0  0  0  0  0  0  0  0  0  0  0  0
  -32.5276  -27.7334   23.4349 C   0  0  0  0  0  0  0  0  0  0  0  0
  -30.9208  -16.3698   23.1582 C   0  0  0  0  0  0  0  0  0  0  0  0
  -30.4657  -18.7580   23.8568 C   0  0  0  0  0  0  0  0  0  0  0  0
  -29.2466  -17.8169   21.9328 C   0  0  0  0  0  0  0  0  0  0  0  0
  -25.6795  -21.4658   22.4139 C   0  0  0  0  0  0  0  0  0  0  0  0
  -32.0117  -27.9710   22.0105 C   0  0  1  0  0  0  0  0  0  0  0  0
  -28.7976  -29.9861   22.2160 C   0  0  1  0  0  0  0  0  0  0  0  0
  -30.2678  -16.6746   21.7966 C   0  0  2  0  0  0  0  0  0  0  0  0
  -26.0333  -23.3735   17.7930 C   0  0  0  0  0  0  0  0  0  0  0  0
  -23.7219  -32.6076   27.4474 C   0  0  0  0  0  0  0  0  0  0  0  0
  -28.3268  -27.9749   26.3504 C   0  0  0  0  0  0  0  0  0  0  0  0
  -26.4552  -28.8461   27.7668 C   0  0  0  0  0  0  0  0  0  0  0  0
  -28.5219  -30.2085   27.4582 C   0  0  0  0  0  0  0  0  0  0  0  0
  -23.7273  -33.3517   23.7161 C   0  0  0  0  0  0  0  0  0  0  0  0
  -23.4756  -24.7403   18.1759 C   0  0  0  0  0  0  0  0  0  0  0  0
  -29.4127  -21.6784   19.9933 C   0  0  0  0  0  0  0  0  0  0  0  0
  -24.1468  -26.1062   18.0822 C   0  0  0  0  0  0  0  0  0  1  0  0
  -28.1885  -22.5191   20.3091 C   0  0  0  0  0  0  0  0  0  0  0  0
  -26.8990  -29.9654   25.5349 C   0  0  1  0  0  0  0  0  0  0  0  0
  -24.3202  -32.6953   26.0520 C   0  0  2  0  0  0  0  0  0  0  0  0
  -27.5466  -29.2432   26.7500 C   0  0  0  0  0  0  0  0  0  0  0  0
  -28.3596  -15.1590   21.4166 N   0  0  0  0  0  0  0  0  0  0  0  0
  -29.6540  -15.4315   21.1794 N   0  0  0  0  0  0  0  0  0  0  0  0
  -27.7404  -29.8071   23.2131 N   0  0  0  0  0  0  0  0  0  0  0  0
  -29.8857  -18.9983   22.5333 N   0  0  0  0  0  0  0  0  0  0  0  0
  -31.5737  -14.6374   20.0415 N   0  0  0  0  0  0  0  0  0  0  0  0
  -28.4219  -11.5619   19.0397 N   0  0  0  0  0  0  0  0  0  0  0  0
  -31.0008  -29.0066   22.0053 N   0  0  0  0  0  0  0  0  0  0  0  0
  -26.1763  -31.1848   25.8803 N   0  0  0  0  0  0  0  0  0  0  0  0
  -29.4003  -20.4213   20.7075 N   0  0  0  0  0  0  0  0  0  0  0  0
  -23.2695  -33.1950   25.1207 N   0  3  0  0  0  0  0  0  0  0  0  0
  -30.6191  -12.1435   18.7352 O   0  0  0  0  0  0  0  0  0  0  0  0
  -29.1671  -27.6778   22.5479 O   0  0  0  0  0  0  0  0  0  0  0  0
  -28.8271  -31.1317   24.7944 O   0  0  0  0  0  0  0  0  0  0  0  0
  -24.1271  -30.5170   25.0247 O   0  0  0  0  0  0  0  0  0  0  0  0
  -30.5168  -21.2299   22.5396 O   0  0  0  0  0  0  0  0  0  0  0  0
  -23.1237  -11.5948   20.7609 O   0  0  0  0  0  0  0  0  0  0  0  0
  -24.0172  -26.7936   19.3260 O   0  0  0  0  0  0  0  0  0  1  0  0
  -27.0141  -21.8070   19.9281 O   0  0  0  0  0  0  0  0  0  0  0  0
  -22.9142   -6.1368   21.5164 F   0  0  0  0  0  0  0  0  0  0  0  0
  -21.7562  -10.5112   22.9054 F   0  0  0  0  0  0  0  0  0  0  0  0
  1  2  1  0  0  0  0
  1  5  2  0  0  0  0
  2  6  2  0  0  0  0
  3 10  2  0  0  0  0
  3 17  1  0  0  0  0
  4 11  1  0  0  0  0
  4 17  2  0  0  0  0
  5 19  1  0  0  0  0
  6 21  1  0  0  0  0
  7  9  2  0  0  0  0
  7 22  1  0  0  0  0
  8 12  2  0  0  0  0
  8 20  1  0  0  0  0
  9 24  1  0  0  0  0
 10 26  1  0  0  0  0
 11 26  2  0  0  0  0
 12 27  1  0  0  0  0
 13 14  2  0  0  0  0
 13 28  1  0  0  0  0
 14 30  1  0  0  0  0
 15 23  1  0  0  0  0
 15 27  2  0  0  0  0
 16 30  2  0  0  0  0
 16 31  1  0  0  0  0
 17 32  1  0  0  0  0
 18 32  1  0  0  0  0
 18 33  2  0  0  0  0
 18 34  1  0  0  0  0
 19 21  2  0  0  0  0
 19 39  1  0  0  0  0
 20 23  2  0  0  0  0
 20 40  1  0  0  0  0
 21 51  1  0  0  0  0
 22 29  2  0  0  0  0
 22 50  1  0  0  0  0
 23 41  1  0  0  0  0
 24 25  2  0  0  0  0
 24 60  1  0  0  0  0
 25 29  1  0  0  0  0
 25 54  1  0  0  0  0
 26 82  1  0  0  0  0
 27 83  1  0  0  0  0
 28 31  2  0  0  0  0
 28 82  1  0  0  0  0
 29 84  1  0  0  0  0
 30 85  1  0  0  0  0
 31 86  1  0  0  0  0
 32 67  2  0  0  0  0
 33 68  1  0  0  0  0
 33 71  1  0  0  0  0
 34 72  1  0  0  0  0
 34 77  2  0  0  0  0
 35 52  1  0  0  0  0
 35 73  1  0  0  0  0
 35 78  2  0  0  0  0
 36 64  1  0  0  0  0
 36 69  1  0  0  0  0
 36 79  2  0  0  0  0
 37 65  1  0  0  0  0
 37 74  1  0  0  0  0
 37 80  2  0  0  0  0
 38 70  1  0  0  0  0
 38 75  1  0  0  0  0
 38 81  2  0  0  0  0
 39 42  1  0  0  0  0
 40 52  1  0  0  0  0
 41 69  1  0  0  0  0
 42 46  1  0  0  0  0
 43 47  1  0  0  0  0
 43 48  1  0  0  0  0
 44 45  1  0  0  0  0
 44 50  1  0  0  0  0
 45 50  1  0  0  0  0
 46 51  1  0  0  0  0
 47 53  1  0  0  0  0
 48 70  1  0  0  0  0
 49 53  1  0  0  0  0
 49 70  1  0  0  0  0
 51 73  1  0  0  0  0
 52 69  1  0  0  0  0
 53 68  1  0  0  0  0
 55 65  1  0  0  0  0
 56 66  1  0  0  0  0
 57 66  1  0  0  0  0
 58 66  1  0  0  0  0
 59 76  1  0  0  0  0
 60 62  1  0  0  0  0
 61 63  1  0  0  0  0
 61 75  1  0  0  0  0
 62 83  1  0  0  0  0
 63 84  1  0  0  0  0
 64 66  1  0  0  0  0
 64 74  1  0  0  0  0
 65 76  1  0  0  0  0
 67 68  1  0  0  0  0
M  CHG  1  76   1
M  ISO  4  38 100  62 101  75 100  83 101
M  END
> <Batch ID>
0145

> <Smiles>
CNC(C)C(=O)NC(C(=O)N1Cc2cc([101O:1][101CH2:1]Cc3ccc(C4CC4)c(OCC[100NH:0][100C:0](=O)N4CCCC(n5nc(-c6ccc(Oc7ccc(F)cc7F)cc6)c(C(N)=O)c5N)C4)c3C)ccc2CC1C(=O)NC1CCCc2ccccc21)C(C)(C)C

> <Shape>
0.245

> <Color>
0.071

> <Negative vol penalty>
0.000

$$$$

  -OEChem-04052321283D

 83 92  0     1  0  0  0  0  0999 V2000
  -17.3586  -30.0539   24.6445 C   0  0  0  0  0  0  0  0  0  0  0  0
  -18.0628  -28.9019   24.9801 C   0  0  0  0  0  0  0  0  0  0  0  0
  -23.9511  -10.4957   23.1073 C   0  0  0  0  0  0  0  0  0  0  0  0
  -24.0534  -12.6401   24.2156 C   0  0  0  0  0  0  0  0  0  0  0  0
  -17.4692  -30.5883   23.3616 C   0  0  0  0  0  0  0  0  0  0  0  0
  -18.8772  -28.2831   24.0324 C   0  0  0  0  0  0  0  0  0  0  0  0
  -24.1694  -25.3778   25.0608 C   0  0  0  0  0  0  0  0  0  0  0  0
  -23.4366   -9.9199   24.2689 C   0  0  0  0  0  0  0  0  0  0  0  0
  -23.5388  -12.0642   25.3772 C   0  0  0  0  0  0  0  0  0  0  0  0
  -24.4859  -24.0275   25.2036 C   0  0  0  0  0  0  0  0  0  0  0  0
  -20.4548   -9.7476   25.8539 C   0  0  0  0  0  0  0  0  0  0  0  0
  -19.3665   -8.8851   25.7226 C   0  0  0  0  0  0  0  0  0  0  0  0
  -25.0951  -23.9299   22.8715 C   0  0  0  0  0  0  0  0  0  0  0  0
  -29.5842  -19.2207   21.9857 C   0  0  0  0  0  0  0  0  0  0  0  0
  -20.6660   -7.0970   26.6978 C   0  0  0  0  0  0  0  0  0  0  0  0
  -30.1372  -17.8671   23.8615 C   0  0  0  0  0  0  0  0  0  0  0  0
  -24.2595  -11.8559   23.0807 C   0  0  0  0  0  0  0  0  0  0  0  0
  -24.0638  -13.0318   20.8254 C   0  0  0  0  0  0  0  0  0  0  0  0
  -18.2930  -29.9812   22.4006 C   0  0  0  0  0  0  0  0  0  0  0  0
  -24.3033  -26.0127   23.8176 C   0  0  0  0  0  0  0  0  0  0  0  0
  -18.9980  -28.8092   22.7349 C   0  0  0  0  0  0  0  0  0  0  0  0
  -24.7821  -25.2890   22.7162 C   0  0  0  0  0  0  0  0  0  0  0  0
  -30.2250  -18.0982   22.4982 C   0  0  0  0  0  0  0  0  0  0  0  0
  -28.8851  -20.0659   22.8402 C   0  0  0  0  0  0  0  0  0  0  0  0
  -23.2304  -10.7041   25.4038 C   0  0  0  0  0  0  0  0  0  0  0  0
  -24.9460  -23.3027   24.1082 C   0  0  0  0  0  0  0  0  0  0  0  0
  -21.6488   -9.2848   26.4070 C   0  0  0  0  0  0  0  0  0  0  0  0
  -19.4721   -7.5598   26.1446 C   0  0  0  0  0  0  0  0  0  0  0  0
  -21.7544   -7.9595   26.8290 C   0  0  0  0  0  0  0  0  0  0  0  0
  -24.7916  -12.4512   21.8813 C   0  0  0  0  0  0  0  0  0  0  0  0
  -28.8570  -19.7467   24.1882 C   0  0  0  0  0  0  0  0  0  0  0  0
  -25.0232  -13.4474   19.9348 C   0  0  0  0  0  0  0  0  0  0  0  0
  -22.6471  -13.1823   20.6641 C   0  0  0  0  0  0  0  0  0  0  0  0
  -22.3050  -27.4482   21.8053 C   0  0  0  0  0  0  0  0  0  0  0  0
  -25.0406  -28.1767   20.2216 C   0  0  0  0  0  0  0  0  0  0  0  0
  -28.3038  -27.4155   19.5739 C   0  0  0  0  0  0  0  0  0  0  0  0
  -30.7894  -14.9370   20.5537 C   0  0  0  0  0  0  0  0  0  0  0  0
  -18.3438  -30.5688   21.0125 C   0  0  0  0  0  0  0  0  0  0  0  0
  -23.9832  -27.4765   23.6864 C   0  0  0  0  0  0  0  0  0  0  0  0
  -24.9628  -25.9289   21.3647 C   0  0  0  0  0  0  0  0  0  0  0  0
  -19.5202  -30.0649   20.1804 C   0  0  0  0  0  0  0  0  0  0  0  0
  -29.4472  -12.4056   18.4402 C   0  0  0  0  0  0  0  0  0  0  0  0
  -19.6432  -28.5486   20.2933 C   0  0  0  0  0  0  0  0  0  0  0  0
  -28.0362  -12.1826   18.9872 C   0  0  0  0  0  0  0  0  0  0  0  0
  -27.6142  -20.0374   26.4366 C   0  0  0  0  0  0  0  0  0  0  0  0
  -30.4466  -12.6948   19.5580 C   0  0  0  0  0  0  0  0  0  0  0  0
  -28.6567  -13.5784   21.0034 C   0  0  0  0  0  0  0  0  0  0  0  0
  -19.9110  -28.1232   21.7420 C   0  0  1  0  0  0  0  0  0  0  0  0
  -28.1233  -20.6197   25.1358 C   0  0  2  0  0  0  0  0  0  0  0  0
  -23.6685  -27.8932   22.2530 C   0  0  1  0  0  0  0  0  0  0  0  0
  -26.6414  -20.3941   25.3524 C   0  0  2  0  0  0  0  0  0  0  0  0
  -27.6029  -13.3385   19.9088 C   0  0  2  0  0  0  0  0  0  0  0  0
  -28.1984  -21.2704   22.2943 C   0  0  0  0  0  0  0  0  0  0  0  0
  -30.2690  -28.1705   18.2082 C   0  0  0  0  0  0  0  0  0  0  0  0
  -23.7762  -26.9519   17.7294 C   0  0  0  0  0  0  0  0  0  0  0  0
  -26.0566  -26.8663   16.6995 C   0  0  0  0  0  0  0  0  0  0  0  0
  -25.0525  -29.0636   17.3213 C   0  0  0  0  0  0  0  0  0  0  0  0
  -29.9308  -27.9360   21.9907 C   0  0  0  0  0  0  0  0  0  0  0  0
  -30.9811  -17.1740   21.6111 C   0  0  0  0  0  0  0  0  0  0  0  0
  -25.7245  -21.5562   25.5223 C   0  0  0  0  0  0  0  0  0  1  0  0
  -25.8622  -27.5104   19.1445 C   0  0  1  0  0  0  0  0  0  0  0  0
  -29.5527  -28.2779   19.5455 C   0  0  2  0  0  0  0  0  0  0  0  0
  -25.1818  -27.5852   17.7486 C   0  0  0  0  0  0  0  0  0  0  0  0
  -29.4673  -18.6653   24.7228 N   0  0  0  0  0  0  0  0  0  0  0  0
  -26.1116  -12.4921   21.6814 N   0  0  0  0  0  0  0  0  0  0  0  0
  -26.2208  -13.1034   20.4895 N   0  0  0  0  0  0  0  0  0  0  0  0
  -24.6304  -27.3609   21.2856 N   0  0  0  0  0  0  0  0  0  0  0  0
  -29.9773  -13.8021   20.3944 N   0  0  0  0  0  0  0  0  0  0  0  0
  -24.9509  -14.0697   18.7390 N   0  0  0  0  0  0  0  0  0  0  0  0
  -21.8046  -12.6993   21.6747 N   0  0  0  0  0  0  0  0  0  0  0  0
  -21.2977  -28.3511   22.0876 N   0  0  0  0  0  0  0  0  0  0  0  0
  -27.1835  -28.1266   19.1991 N   0  0  0  0  0  0  0  0  0  0  0  0
  -30.2667  -15.9428   21.3573 N   0  0  0  0  0  0  0  0  0  0  0  0
  -30.4968  -27.8578   20.6194 N   0  3  0  0  0  0  0  0  0  0  0  0
  -22.1425  -13.7141   19.6462 O   0  0  0  0  0  0  0  0  0  0  0  0
  -22.1765  -26.3666   21.2438 O   0  0  0  0  0  0  0  0  0  0  0  0
  -24.7788  -29.3783   20.1261 O   0  0  0  0  0  0  0  0  0  0  0  0
  -28.3209  -26.2287   19.8929 O   0  0  0  0  0  0  0  0  0  0  0  0
  -31.8959  -15.0482   20.0149 O   0  0  0  0  0  0  0  0  0  0  0  0
  -22.7281  -10.1426   26.5374 O   0  0  0  0  0  0  0  0  0  0  0  0
  -25.2550  -21.9844   24.2446 O   0  0  0  0  0  0  0  0  0  1  0  0
  -18.4264   -6.7321   26.0199 F   0  0  0  0  0  0  0  0  0  0  0  0
  -22.8984   -7.5095   27.3623 F   0  0  0  0  0  0  0  0  0  0  0  0
  1  2  1  0  0  0  0
  1  5  2  0  0  0  0
  2  6  2  0  0  0  0
  3  8  2  0  0  0  0
  3 17  1  0  0  0  0
  4  9  1  0  0  0  0
  4 17  2  0  0  0  0
  5 19  1  0  0  0  0
  6 21  1  0  0  0  0
  7 10  2  0  0  0  0
  7 20  1  0  0  0  0
  8 25  1  0  0  0  0
  9 25  2  0  0  0  0
 10 26  1  0  0  0  0
 11 12  2  0  0  0  0
 11 27  1  0  0  0  0
 12 28  1  0  0  0  0
 13 22  1  0  0  0  0
 13 26  2  0  0  0  0
 14 23  2  0  0  0  0
 14 24  1  0  0  0  0
 15 28  2  0  0  0  0
 15 29  1  0  0  0  0
 16 23  1  0  0  0  0
 16 64  2  0  0  0  0
 17 30  1  0  0  0  0
 18 30  1  0  0  0  0
 18 32  2  0  0  0  0
 18 33  1  0  0  0  0
 19 21  2  0  0  0  0
 19 38  1  0  0  0  0
 20 22  2  0  0  0  0
 20 39  1  0  0  0  0
 21 48  1  0  0  0  0
 22 40  1  0  0  0  0
 23 59  1  0  0  0  0
 24 31  2  0  0  0  0
 24 53  1  0  0  0  0
 25 80  1  0  0  0  0
 26 81  1  0  0  0  0
 27 29  2  0  0  0  0
 27 80  1  0  0  0  0
 28 82  1  0  0  0  0
 29 83  1  0  0  0  0
 30 65  2  0  0  0  0
 31 49  1  0  0  0  0
 31 64  1  0  0  0  0
 32 66  1  0  0  0  0
 32 69  1  0  0  0  0
 33 70  1  0  0  0  0
 33 75  2  0  0  0  0
 34 50  1  0  0  0  0
 34 71  1  0  0  0  0
 34 76  2  0  0  0  0
 35 61  1  0  0  0  0
 35 67  1  0  0  0  0
 35 77  2  0  0  0  0
 36 62  1  0  0  0  0
 36 72  1  0  0  0  0
 36 78  2  0  0  0  0
 37 68  1  0  0  0  0
 37 73  1  0  0  0  0
 37 79  2  0  0  0  0
 38 41  1  0  0  0  0
 39 50  1  0  0  0  0
 40 67  1  0  0  0  0
 41 43  1  0  0  0  0
 42 44  1  0  0  0  0
 42 46  1  0  0  0  0
 43 48  1  0  0  0  0
 44 52  1  0  0  0  0
 45 49  1  0  0  0  0
 45 51  1  0  0  0  0
 46 68  1  0  0  0  0
 47 52  1  0  0  0  0
 47 68  1  0  0  0  0
 48 71  1  0  0  0  0
 49 51  1  0  0  0  0
 50 67  1  0  0  0  0
 51 60  1  0  0  0  0
 52 66  1  0  0  0  0
 54 62  1  0  0  0  0
 55 63  1  0  0  0  0
 56 63  1  0  0  0  0
 57 63  1  0  0  0  0
 58 74  1  0  0  0  0
 59 73  1  0  0  0  0
 60 81  1  0  0  0  0
 61 63  1  0  0  0  0
 61 72  1  0  0  0  0
 62 74  1  0  0  0  0
 65 66  1  0  0  0  0
M  CHG  1  74   1
M  ISO  4  37 100  60 101  73 100  81 101
M  END
> <Batch ID>
0145

> <Smiles>
CNC(C)C(=O)NC(C(=O)N1Cc2cc([101O:1][101CH2:1]C3CC3c3ncc(C[100NH:0][100C:0](=O)N4CCCC(n5nc(-c6ccc(Oc7ccc(F)cc7F)cc6)c(C(N)=O)c5N)C4)cc3C)ccc2CC1C(=O)NC1CCCc2ccccc21)C(C)(C)C

> <Shape>
0.213

> <Color>
0.117

> <Negative vol penalty>
0.000

$$$$

  -OEChem-04052321283D

 86 94  0     1  0  0  0  0  0999 V2000
  -23.2734  -33.0245   14.7803 C   0  0  0  0  0  0  0  0  0  0  0  0
  -23.5464  -31.6667   14.9114 C   0  0  0  0  0  0  0  0  0  0  0  0
  -23.0876   -9.8709   19.8757 C   0  0  0  0  0  0  0  0  0  0  0  0
  -23.9701   -9.6887   22.1174 C   0  0  0  0  0  0  0  0  0  0  0  0
  -24.1840  -33.9667   15.2566 C   0  0  0  0  0  0  0  0  0  0  0  0
  -24.7309  -31.2502   15.5180 C   0  0  0  0  0  0  0  0  0  0  0  0
  -24.0021  -27.4780   18.8170 C   0  0  0  0  0  0  0  0  0  0  0  0
  -26.4897  -20.9174   18.5443 C   0  0  0  0  0  0  0  0  0  0  0  0
  -22.3935   -8.6738   20.0516 C   0  0  0  0  0  0  0  0  0  0  0  0
  -23.2759   -8.4916   22.2934 C   0  0  0  0  0  0  0  0  0  0  0  0
  -23.8292  -26.1978   18.2924 C   0  0  0  0  0  0  0  0  0  0  0  0
  -25.9649  -21.9891   17.8221 C   0  0  0  0  0  0  0  0  0  0  0  0
  -20.1107   -7.5275   22.9807 C   0  0  0  0  0  0  0  0  0  0  0  0
  -19.4199   -7.3509   24.1794 C   0  0  0  0  0  0  0  0  0  0  0  0
  -26.1350  -25.6902   18.7870 C   0  0  0  0  0  0  0  0  0  0  0  0
  -25.0621  -22.9206   19.8601 C   0  0  0  0  0  0  0  0  0  0  0  0
  -20.7573   -5.3976   24.6624 C   0  0  0  0  0  0  0  0  0  0  0  0
  -23.8759  -10.3783   20.9086 C   0  0  0  0  0  0  0  0  0  0  0  0
  -24.1344  -12.9140   21.0139 C   0  0  0  0  0  0  0  0  0  0  0  0
  -25.3758  -33.5615   15.8781 C   0  0  0  0  0  0  0  0  0  0  0  0
  -25.2478  -27.8782   19.3214 C   0  0  0  0  0  0  0  0  0  0  0  0
  -25.6590  -32.1879   16.0019 C   0  0  0  0  0  0  0  0  0  0  0  0
  -26.3205  -26.9751   19.3197 C   0  0  0  0  0  0  0  0  0  0  0  0
  -26.3007  -20.8473   19.9245 C   0  0  0  0  0  0  0  0  0  0  0  0
  -25.5869  -21.8488   20.5824 C   0  0  0  0  0  0  0  0  0  0  0  0
  -22.4877   -7.9842   21.2605 C   0  0  0  0  0  0  0  0  0  0  0  0
  -24.8965  -25.3047   18.2747 C   0  0  0  0  0  0  0  0  0  0  0  0
  -25.2511  -22.9907   18.4800 C   0  0  0  0  0  0  0  0  0  1  0  0
  -21.1248   -6.6391   22.6227 C   0  0  0  0  0  0  0  0  0  0  0  0
  -19.7431   -6.2860   25.0203 C   0  0  0  0  0  0  0  0  0  0  0  0
  -21.4481   -5.5742   23.4636 C   0  0  0  0  0  0  0  0  0  0  0  0
  -24.5936  -11.6145   20.7273 C   0  0  0  0  0  0  0  0  0  0  0  0
  -25.1821  -13.7323   20.6689 C   0  0  0  0  0  0  0  0  0  0  0  0
  -22.8734  -13.3430   21.5447 C   0  0  0  0  0  0  0  0  0  0  0  0
  -27.3535  -30.1361   18.5655 C   0  0  0  0  0  0  0  0  0  0  0  0
  -28.8424  -29.1015   21.2553 C   0  0  0  0  0  0  0  0  0  0  0  0
  -29.3561  -26.5775   23.4941 C   0  0  0  0  0  0  0  0  0  0  0  0
  -30.6347  -14.9215   20.6739 C   0  0  0  0  0  0  0  0  0  0  0  0
  -26.3515  -34.6170   16.3349 C   0  0  0  0  0  0  0  0  0  0  0  0
  -25.4109  -29.2535   19.9083 C   0  0  0  0  0  0  0  0  0  0  0  0
  -27.6727  -27.3489   19.8677 C   0  0  0  0  0  0  0  0  0  0  0  0
  -27.4095  -34.0910   17.3014 C   0  0  0  0  0  0  0  0  0  0  0  0
  -29.4420  -12.7337   18.1307 C   0  0  0  0  0  0  0  0  0  0  0  0
  -27.9994  -32.7819   16.7865 C   0  0  0  0  0  0  0  0  0  0  0  0
  -28.0397  -12.3501   18.6063 C   0  0  0  0  0  0  0  0  0  0  0  0
  -30.4158  -12.8727   19.2988 C   0  0  0  0  0  0  0  0  0  0  0  0
  -28.5707  -13.4026   20.8444 C   0  0  0  0  0  0  0  0  0  0  0  0
  -26.9215  -31.6967   16.6763 C   0  0  1  0  0  0  0  0  0  0  0  0
  -26.8607  -29.7279   19.9250 C   0  0  1  0  0  0  0  0  0  0  0  0
  -27.5399  -13.3054   19.7067 C   0  0  2  0  0  0  0  0  0  0  0  0
  -30.6567  -26.0159   25.5654 C   0  0  0  0  0  0  0  0  0  0  0  0
  -24.5476  -23.0236   22.5536 C   0  0  0  0  0  0  0  0  0  0  0  0
  -26.7282  -21.7965   22.8277 C   0  0  0  0  0  0  0  0  0  0  0  0
  -24.5987  -20.5379   22.5776 C   0  0  0  0  0  0  0  0  0  0  0  0
  -31.3638  -28.7487   19.5735 C   0  0  0  0  0  0  0  0  0  0  0  0
  -32.3056  -27.3302   21.4091 C   0  0  0  0  0  0  0  0  0  0  0  0
  -31.7520  -29.7234   21.8437 C   0  0  0  0  0  0  0  0  0  0  0  0
  -26.8869  -26.1438   25.0670 C   0  0  0  0  0  0  0  0  0  0  0  0
  -26.8716  -19.6903   20.6766 C   0  0  0  0  0  0  0  0  0  0  0  0
  -30.7025  -16.9471   22.1062 C   0  0  0  0  0  0  0  0  0  0  0  0
  -28.3891  -19.5530   20.5537 C   0  0  0  0  0  0  0  0  0  0  0  0
  -30.3346  -18.1645   21.2788 C   0  0  0  0  0  0  0  0  0  0  0  0
  -29.8786  -28.0485   21.5660 C   0  0  1  0  0  0  0  0  0  0  0  0
  -29.3490  -26.5605   25.0120 C   0  0  2  0  0  0  0  0  0  0  0  0
  -25.3712  -21.7951   22.0593 C   0  0  0  0  0  0  0  0  0  0  0  0
  -31.3001  -28.4560   21.0859 C   0  0  0  0  0  0  0  0  0  0  0  0
  -25.8363  -11.6030   20.2377 N   0  0  0  0  0  0  0  0  0  0  0  0
  -26.1667  -12.9054   20.2140 N   0  0  0  0  0  0  0  0  0  0  0  0
  -27.7838  -28.7071   20.4250 N   0  0  0  0  0  0  0  0  0  0  0  0
  -29.8832  -13.7932   20.3063 N   0  0  0  0  0  0  0  0  0  0  0  0
  -25.3479  -15.0713   20.7132 N   0  0  0  0  0  0  0  0  0  0  0  0
  -21.9092  -12.3711   21.8445 N   0  0  0  0  0  0  0  0  0  0  0  0
  -26.6189  -31.1507   17.9820 N   0  0  0  0  0  0  0  0  0  0  0  0
  -29.7826  -27.7916   22.9989 N   0  0  0  0  0  0  0  0  0  0  0  0
  -30.0543  -15.7453   21.6306 N   0  0  0  0  0  0  0  0  0  0  0  0
  -28.2346  -25.7085   25.5153 N   0  3  0  0  0  0  0  0  0  0  0  0
  -28.8711  -18.4164   21.3768 N   0  3  0  0  0  0  0  0  0  0  0  0
  -22.6036  -14.5537   21.7317 O   0  0  0  0  0  0  0  0  0  0  0  0
  -28.3290  -29.5734   18.0824 O   0  0  0  0  0  0  0  0  0  0  0  0
  -28.9640  -30.2304   21.7375 O   0  0  0  0  0  0  0  0  0  0  0  0
  -29.0206  -25.6092   22.8155 O   0  0  0  0  0  0  0  0  0  0  0  0
  -31.7386  -15.1788   20.1818 O   0  0  0  0  0  0  0  0  0  0  0  0
  -21.8103   -6.8163   21.4325 O   0  0  0  0  0  0  0  0  0  0  0  0
  -24.7306  -24.0549   17.7627 O   0  0  0  0  0  0  0  0  0  1  0  0
  -19.0807   -6.1174   26.1722 F   0  0  0  0  0  0  0  0  0  0  0  0
  -22.4222   -4.7182   23.1256 F   0  0  0  0  0  0  0  0  0  0  0  0
  1  2  1  0  0  0  0
  1  5  2  0  0  0  0
  2  6  2  0  0  0  0
  3  9  2  0  0  0  0
  3 18  1  0  0  0  0
  4 10  1  0  0  0  0
  4 18  2  0  0  0  0
  5 20  1  0  0  0  0
  6 22  1  0  0  0  0
  7 11  2  0  0  0  0
  7 21  1  0  0  0  0
  8 12  2  0  0  0  0
  8 24  1  0  0  0  0
  9 26  1  0  0  0  0
 10 26  2  0  0  0  0
 11 27  1  0  0  0  0
 12 28  1  0  0  0  0
 13 14  2  0  0  0  0
 13 29  1  0  0  0  0
 14 30  1  0  0  0  0
 15 23  1  0  0  0  0
 15 27  2  0  0  0  0
 16 25  1  0  0  0  0
 16 28  2  0  0  0  0
 17 30  2  0  0  0  0
 17 31  1  0  0  0  0
 18 32  1  0  0  0  0
 19 32  1  0  0  0  0
 19 33  2  0  0  0  0
 19 34  1  0  0  0  0
 20 22  2  0  0  0  0
 20 39  1  0  0  0  0
 21 23  2  0  0  0  0
 21 40  1  0  0  0  0
 22 48  1  0  0  0  0
 23 41  1  0  0  0  0
 24 25  2  0  0  0  0
 24 59  1  0  0  0  0
 25 65  1  0  0  0  0
 26 83  1  0  0  0  0
 27 84  1  0  0  0  0
 28 84  1  0  0  0  0
 29 31  2  0  0  0  0
 29 83  1  0  0  0  0
 30 85  1  0  0  0  0
 31 86  1  0  0  0  0
 32 67  2  0  0  0  0
 33 68  1  0  0  0  0
 33 71  1  0  0  0  0
 34 72  1  0  0  0  0
 34 78  2  0  0  0  0
 35 49  1  0  0  0  0
 35 73  1  0  0  0  0
 35 79  2  0  0  0  0
 36 63  1  0  0  0  0
 36 69  1  0  0  0  0
 36 80  2  0  0  0  0
 37 64  1  0  0  0  0
 37 74  1  0  0  0  0
 37 81  2  0  0  0  0
 38 70  1  0  0  0  0
 38 75  1  0  0  0  0
 38 82  2  0  0  0  0
 39 42  1  0  0  0  0
 40 49  1  0  0  0  0
 41 69  1  0  0  0  0
 42 44  1  0  0  0  0
 43 45  1  0  0  0  0
 43 46  1  0  0  0  0
 44 48  1  0  0  0  0
 45 50  1  0  0  0  0
 46 70  1  0  0  0  0
 47 50  1  0  0  0  0
 47 70  1  0  0  0  0
 48 73  1  0  0  0  0
 49 69  1  0  0  0  0
 50 68  1  0  0  0  0
 51 64  1  0  0  0  0
 52 65  1  0  0  0  0
 53 65  1  0  0  0  0
 54 65  1  0  0  0  0
 55 66  1  0  0  0  0
 56 66  1  0  0  0  0
 57 66  1  0  0  0  0
 58 76  1  0  0  0  0
 59 61  1  0  0  0  0
 60 62  1  0  0  0  0
 60 75  1  0  0  0  0
 61 77  1  0  0  0  0
 62 77  1  0  0  0  0
 63 66  1  0  0  0  0
 63 74  1  0  0  0  0
 64 76  1  0  0  0  0
 67 68  1  0  0  0  0
M  CHG  2  76   1  77   1
M  ISO  4  28 101  38 100  75 100  84 101
M  END
> <Batch ID>
0145

> <Smiles>
CNC(C)C(=O)NC(C(=O)N1Cc2cc([101O:1][101c:1]3ccc(CCNCC[100NH:0][100C:0](=O)N4CCCC(n5nc(-c6ccc(Oc7ccc(F)cc7F)cc6)c(C(N)=O)c5N)C4)c(C(C)(C)C)c3)ccc2CC1C(=O)NC1CCCc2ccccc21)C(C)(C)C

> <Shape>
0.254

> <Color>
0.190

> <Negative vol penalty>
0.000

$$$$

  -OEChem-04052321283D

 85 93  0     1  0  0  0  0  0999 V2000
  -23.1073  -23.6758   22.9920 C   0  0  0  0  0  0  0  0  0  0  0  0
  -24.1110  -23.0534   23.7271 C   0  0  0  0  0  0  0  0  0  0  0  0
  -23.0748   -9.8677   19.9430 C   0  0  0  0  0  0  0  0  0  0  0  0
  -23.8377   -9.8767   22.2354 C   0  0  0  0  0  0  0  0  0  0  0  0
  -23.4401  -24.4945   21.9137 C   0  0  0  0  0  0  0  0  0  0  0  0
  -25.4483  -23.2484   23.3836 C   0  0  0  0  0  0  0  0  0  0  0  0
  -28.3805  -24.1354   27.4161 C   0  0  0  0  0  0  0  0  0  0  0  0
  -22.3321   -8.7142   20.1947 C   0  0  0  0  0  0  0  0  0  0  0  0
  -23.0950   -8.7232   22.4871 C   0  0  0  0  0  0  0  0  0  0  0  0
  -28.7474  -23.0358   28.1907 C   0  0  0  0  0  0  0  0  0  0  0  0
  -19.8682   -7.9233   23.0944 C   0  0  0  0  0  0  0  0  0  0  0  0
  -19.1128   -7.8836   24.2663 C   0  0  0  0  0  0  0  0  0  0  0  0
  -30.8982  -22.9920   27.0991 C   0  0  0  0  0  0  0  0  0  0  0  0
  -28.7090  -18.1432   24.7790 C   0  0  0  0  0  0  0  0  0  0  0  0
  -20.3566   -5.9476   25.0023 C   0  0  0  0  0  0  0  0  0  0  0  0
  -23.8276  -10.4490   20.9634 C   0  0  0  0  0  0  0  0  0  0  0  0
  -24.1674  -12.9743   20.8413 C   0  0  0  0  0  0  0  0  0  0  0  0
  -24.7826  -24.7074   21.5627 C   0  0  0  0  0  0  0  0  0  0  0  0
  -29.2672  -24.6656   26.4678 C   0  0  0  0  0  0  0  0  0  0  0  0
  -25.7994  -24.0697   22.2987 C   0  0  0  0  0  0  0  0  0  0  0  0
  -30.5411  -24.0999   26.3155 C   0  0  0  0  0  0  0  0  0  0  0  0
  -29.0741  -17.7273   23.5034 C   0  0  0  0  0  0  0  0  0  0  0  0
  -30.3879  -17.3486   23.2512 C   0  0  0  0  0  0  0  0  0  0  0  0
  -22.3422   -8.1419   21.4667 C   0  0  0  0  0  0  0  0  0  0  0  0
  -30.0053  -22.4621   28.0303 C   0  0  0  0  0  0  0  0  0  0  0  0
  -20.8678   -6.9752   22.8764 C   0  0  0  0  0  0  0  0  0  0  0  0
  -19.3570   -6.8957   25.2203 C   0  0  0  0  0  0  0  0  0  0  0  0
  -21.1120   -5.9873   23.8304 C   0  0  0  0  0  0  0  0  0  0  0  0
  -24.5955  -11.6403   20.7038 C   0  0  0  0  0  0  0  0  0  0  0  0
  -31.2914  -17.4032   24.3002 C   0  0  0  0  0  0  0  0  0  0  0  0
  -29.6876  -18.1621   25.7597 C   0  0  0  0  0  0  0  0  0  0  0  0
  -25.2585  -13.7244   20.4761 C   0  0  0  0  0  0  0  0  0  0  0  0
  -22.8971  -13.4894   21.2615 C   0  0  0  0  0  0  0  0  0  0  0  0
  -29.2225  -25.0252   23.3099 C   0  0  0  0  0  0  0  0  0  0  0  0
  -31.9860  -26.6373   23.8452 C   0  0  0  0  0  0  0  0  0  0  0  0
  -34.6837  -27.1715   25.8661 C   0  0  0  0  0  0  0  0  0  0  0  0
  -30.7417  -14.7476   20.6566 C   0  0  0  0  0  0  0  0  0  0  0  0
  -25.0915  -25.5632   20.3598 C   0  0  0  0  0  0  0  0  0  0  0  0
  -28.8662  -25.8686   25.6589 C   0  0  0  0  0  0  0  0  0  0  0  0
  -31.5373  -24.6442   25.3257 C   0  0  0  0  0  0  0  0  0  0  0  0
  -26.5475  -26.0170   20.2929 C   0  0  0  0  0  0  0  0  0  0  0  0
  -29.6028  -12.3607   18.2729 C   0  0  0  0  0  0  0  0  0  0  0  0
  -27.4850  -24.8451   20.5657 C   0  0  0  0  0  0  0  0  0  0  0  0
  -28.1662  -12.0662   18.7079 C   0  0  0  0  0  0  0  0  0  0  0  0
  -30.5214  -12.5830   19.4724 C   0  0  0  0  0  0  0  0  0  0  0  0
  -28.6209  -13.3136   20.8610 C   0  0  0  0  0  0  0  0  0  0  0  0
  -27.2626  -24.2765   21.9724 C   0  0  1  0  0  0  0  0  0  0  0  0
  -29.6568  -26.0067   24.3614 C   0  0  1  0  0  0  0  0  0  0  0  0
  -27.6453  -13.1375   19.6848 C   0  0  2  0  0  0  0  0  0  0  0  0
  -28.0413  -17.6958   22.4257 C   0  0  0  0  0  0  0  0  0  0  0  0
  -32.7169  -17.0094   24.0899 C   0  0  0  0  0  0  0  0  0  0  0  0
  -30.6021  -17.9768   20.8178 C   0  0  0  0  0  0  0  0  0  0  0  0
  -36.7926  -28.5228   26.0202 C   0  0  0  0  0  0  0  0  0  0  0  0
  -33.3040  -24.8105   21.7871 C   0  0  0  0  0  0  0  0  0  0  0  0
  -35.5310  -25.5444   22.6648 C   0  0  0  0  0  0  0  0  0  0  0  0
  -33.9857  -27.2122   21.6386 C   0  0  0  0  0  0  0  0  0  0  0  0
  -33.7939  -28.4901   28.3618 C   0  0  0  0  0  0  0  0  0  0  0  0
  -29.8613  -19.0905   29.3204 C   0  0  0  0  0  0  0  0  0  0  0  0
  -29.3229  -20.5076   29.2008 C   0  0  0  0  0  0  0  0  0  1  0  0
  -30.3926  -18.5700   27.9941 C   0  0  0  0  0  0  0  0  0  0  0  0
  -30.8076  -16.8991   21.8920 C   0  0  2  0  0  0  0  0  0  0  0  0
  -33.4462  -26.2612   23.9182 C   0  0  1  0  0  0  0  0  0  0  0  0
  -35.3175  -28.4504   26.3829 C   0  0  2  0  0  0  0  0  0  0  0  0
  -34.0475  -25.9454   22.5195 C   0  0  0  0  0  0  0  0  0  0  0  0
  -25.8599  -11.5451   20.2840 N   0  0  0  0  0  0  0  0  0  0  0  0
  -30.9740  -17.8017   25.5525 N   0  0  0  0  0  0  0  0  0  0  0  0
  -26.2356  -12.8289   20.1543 N   0  0  0  0  0  0  0  0  0  0  0  0
  -31.0960  -25.8176   24.5537 N   0  0  0  0  0  0  0  0  0  0  0  0
  -29.9712  -13.6117   20.3584 N   0  0  0  0  0  0  0  0  0  0  0  0
  -25.4678  -15.0559   20.4019 N   0  0  0  0  0  0  0  0  0  0  0  0
  -21.8863  -12.5797   21.6007 N   0  0  0  0  0  0  0  0  0  0  0  0
  -27.8881  -25.1240   22.9648 N   0  0  0  0  0  0  0  0  0  0  0  0
  -34.1135  -27.3501   24.6234 N   0  0  0  0  0  0  0  0  0  0  0  0
  -30.1430  -15.6766   21.4988 N   0  0  0  0  0  0  0  0  0  0  0  0
  -35.1939  -28.5271   27.8661 N   0  3  0  0  0  0  0  0  0  0  0  0
  -22.6600  -14.7199   21.3184 O   0  0  0  0  0  0  0  0  0  0  0  0
  -30.0381  -24.2375   22.8450 O   0  0  0  0  0  0  0  0  0  0  0  0
  -31.6483  -27.6262   23.1898 O   0  0  0  0  0  0  0  0  0  0  0  0
  -34.6966  -26.1184   26.4996 O   0  0  0  0  0  0  0  0  0  0  0  0
  -31.8770  -14.9237   20.2014 O   0  0  0  0  0  0  0  0  0  0  0  0
  -21.6174   -7.0164   21.7127 O   0  0  0  0  0  0  0  0  0  0  0  0
  -30.3657  -21.3884   28.7847 O   0  0  0  0  0  0  0  0  0  1  0  0
  -29.3529  -18.5687   27.0251 O   0  0  0  0  0  0  0  0  0  0  0  0
  -18.6326   -6.8586   26.3463 F   0  0  0  0  0  0  0  0  0  0  0  0
  -22.0717   -5.0744   23.6271 F   0  0  0  0  0  0  0  0  0  0  0  0
  1  2  1  0  0  0  0
  1  5  2  0  0  0  0
  2  6  2  0  0  0  0
  3  8  2  0  0  0  0
  3 16  1  0  0  0  0
  4  9  1  0  0  0  0
  4 16  2  0  0  0  0
  5 18  1  0  0  0  0
  6 20  1  0  0  0  0
  7 10  2  0  0  0  0
  7 19  1  0  0  0  0
  8 24  1  0  0  0  0
  9 24  2  0  0  0  0
 10 25  1  0  0  0  0
 11 12  2  0  0  0  0
 11 26  1  0  0  0  0
 12 27  1  0  0  0  0
 13 21  1  0  0  0  0
 13 25  2  0  0  0  0
 14 22  2  0  0  0  0
 14 31  1  0  0  0  0
 15 27  2  0  0  0  0
 15 28  1  0  0  0  0
 16 29  1  0  0  0  0
 17 29  1  0  0  0  0
 17 32  2  0  0  0  0
 17 33  1  0  0  0  0
 18 20  2  0  0  0  0
 18 38  1  0  0  0  0
 19 21  2  0  0  0  0
 19 39  1  0  0  0  0
 20 47  1  0  0  0  0
 21 40  1  0  0  0  0
 22 23  1  0  0  0  0
 22 50  1  0  0  0  0
 23 30  2  0  0  0  0
 23 61  1  0  0  0  0
 24 81  1  0  0  0  0
 25 82  1  0  0  0  0
 26 28  2  0  0  0  0
 26 81  1  0  0  0  0
 27 84  1  0  0  0  0
 28 85  1  0  0  0  0
 29 65  2  0  0  0  0
 30 51  1  0  0  0  0
 30 66  1  0  0  0  0
 31 66  2  0  0  0  0
 31 83  1  0  0  0  0
 32 67  1  0  0  0  0
 32 70  1  0  0  0  0
 33 71  1  0  0  0  0
 33 76  2  0  0  0  0
 34 48  1  0  0  0  0
 34 72  1  0  0  0  0
 34 77  2  0  0  0  0
 35 62  1  0  0  0  0
 35 68  1  0  0  0  0
 35 78  2  0  0  0  0
 36 63  1  0  0  0  0
 36 73  1  0  0  0  0
 36 79  2  0  0  0  0
 37 69  1  0  0  0  0
 37 74  1  0  0  0  0
 37 80  2  0  0  0  0
 38 41  1  0  0  0  0
 39 48  1  0  0  0  0
 40 68  1  0  0  0  0
 41 43  1  0  0  0  0
 42 44  1  0  0  0  0
 42 45  1  0  0  0  0
 43 47  1  0  0  0  0
 44 49  1  0  0  0  0
 45 69  1  0  0  0  0
 46 49  1  0  0  0  0
 46 69  1  0  0  0  0
 47 72  1  0  0  0  0
 48 68  1  0  0  0  0
 49 67  1  0  0  0  0
 52 61  1  0  0  0  0
 53 63  1  0  0  0  0
 54 64  1  0  0  0  0
 55 64  1  0  0  0  0
 56 64  1  0  0  0  0
 57 75  1  0  0  0  0
 58 59  1  0  0  0  0
 58 60  1  0  0  0  0
 59 82  1  0  0  0  0
 60 83  1  0  0  0  0
 61 74  1  0  0  0  0
 62 64  1  0  0  0  0
 62 73  1  0  0  0  0
 63 75  1  0  0  0  0
 65 67  1  0  0  0  0
M  CHG  1  75   1
M  ISO  4  37 100  59 101  74 100  82 101
M  END
> <Batch ID>
0145

> <Smiles>
CNC(C)C(=O)NC(C(=O)N1Cc2cc([101O:1][101CH2:1]CCOc3cc(C)c(C(C)[100NH:0][100C:0](=O)N4CCCC(n5nc(-c6ccc(Oc7ccc(F)cc7F)cc6)c(C(N)=O)c5N)C4)c(C)n3)ccc2CC1C(=O)NC1CCCc2ccccc21)C(C)(C)C

> <Shape>
0.180

> <Color>
0.191

> <Negative vol penalty>
0.000

$$$$

  -OEChem-04052321283D

 90100  0     1  0  0  0  0  0999 V2000
  -25.7499  -35.4392   23.1242 C   0  0  0  0  0  0  0  0  0  0  0  0
  -26.3433  -34.1949   22.9368 C   0  0  0  0  0  0  0  0  0  0  0  0
  -24.1683  -12.9475   19.5111 C   0  0  0  0  0  0  0  0  0  0  0  0
  -25.5093  -13.1269   21.5127 C   0  0  0  0  0  0  0  0  0  0  0  0
  -24.4245  -35.5214   23.5488 C   0  0  0  0  0  0  0  0  0  0  0  0
  -25.6117  -33.0320   23.1751 C   0  0  0  0  0  0  0  0  0  0  0  0
  -26.2261  -29.5696   19.5310 C   0  0  0  0  0  0  0  0  0  0  0  0
  -24.8181  -11.7579   19.1822 C   0  0  0  0  0  0  0  0  0  0  0  0
  -26.1592  -11.9372   21.1839 C   0  0  0  0  0  0  0  0  0  0  0  0
  -27.4042  -28.8243   19.5529 C   0  0  0  0  0  0  0  0  0  0  0  0
  -28.6163  -10.9379   19.0874 C   0  0  0  0  0  0  0  0  0  0  0  0
  -30.0050  -10.9020   19.2129 C   0  0  0  0  0  0  0  0  0  0  0  0
  -26.2192  -26.9923   20.5818 C   0  0  0  0  0  0  0  0  0  0  0  0
  -32.1649  -23.2808   24.9694 C   0  0  0  0  0  0  0  0  0  0  0  0
  -29.8139   -9.1013   20.8123 C   0  0  0  0  0  0  0  0  0  0  0  0
  -24.5139  -13.6320   20.6763 C   0  0  0  0  0  0  0  0  0  0  0  0
  -22.6742  -15.0067   21.7868 C   0  0  0  0  0  0  0  0  0  0  0  0
  -23.6733  -34.3588   23.7831 C   0  0  0  0  0  0  0  0  0  0  0  0
  -25.0361  -29.0349   20.0452 C   0  0  0  0  0  0  0  0  0  0  0  0
  -24.2754  -33.0986   23.6046 C   0  0  0  0  0  0  0  0  0  0  0  0
  -25.0267  -27.7318   20.5629 C   0  0  0  0  0  0  0  0  0  0  0  0
  -31.1040  -21.1185   24.7803 C   0  0  0  0  0  0  0  0  0  0  0  0
  -30.2111  -21.6384   23.8433 C   0  0  0  0  0  0  0  0  0  0  0  0
  -32.0809  -21.9397   25.3434 C   0  0  0  0  0  0  0  0  0  0  0  0
  -31.2719  -23.8008   24.0324 C   0  0  0  0  0  0  0  0  0  0  0  0
  -25.8136  -11.2528   20.0186 C   0  0  0  0  0  0  0  0  0  0  0  0
  -27.4015  -27.5366   20.0810 C   0  0  0  0  0  0  0  0  0  0  0  0
  -27.8263  -10.0555   19.8244 C   0  0  0  0  0  0  0  0  0  0  0  0
  -30.2951  -22.9796   23.4693 C   0  0  0  0  0  0  0  0  0  0  0  0
  -30.6038   -9.9837   20.0753 C   0  0  0  0  0  0  0  0  0  0  0  0
  -28.4252   -9.1372   20.6868 C   0  0  0  0  0  0  0  0  0  0  0  0
  -23.8433  -14.8612   21.0162 C   0  0  0  0  0  0  0  0  0  0  0  0
  -22.4493  -16.3614   21.8170 C   0  0  0  0  0  0  0  0  0  0  0  0
  -21.8639  -14.0069   22.4187 C   0  0  0  0  0  0  0  0  0  0  0  0
  -23.0623  -29.8192   22.4101 C   0  0  0  0  0  0  0  0  0  0  0  0
  -21.2677  -27.4081   21.1901 C   0  0  0  0  0  0  0  0  0  0  0  0
  -21.1445  -24.5194   19.3770 C   0  0  0  0  0  0  0  0  0  0  0  0
  -26.0674  -21.0829   21.1720 C   0  0  0  0  0  0  0  0  0  0  0  0
  -22.2585  -34.4979   24.2867 C   0  0  0  0  0  0  0  0  0  0  0  0
  -23.7678  -29.8417   19.9898 C   0  0  0  0  0  0  0  0  0  0  0  0
  -23.7710  -27.1043   21.1087 C   0  0  0  0  0  0  0  0  0  0  0  0
  -21.4371  -33.2178   24.1565 C   0  0  0  0  0  0  0  0  0  0  0  0
  -23.1626  -20.3464   19.3005 C   0  0  0  0  0  0  0  0  0  0  0  0
  -29.7104  -19.1530   25.7122 C   0  0  0  0  0  0  0  0  0  0  0  0
  -30.8692  -19.3403   26.6408 C   0  0  0  0  0  0  0  0  0  0  0  0
  -22.2342  -32.0185   24.6594 C   0  0  0  0  0  0  0  0  0  0  0  0
  -22.9098  -18.8648   19.5655 C   0  0  0  0  0  0  0  0  0  0  0  0
  -29.5091  -20.0514   21.9098 C   0  0  0  0  0  0  0  0  0  0  0  0
  -24.6551  -20.6304   19.1970 C   0  0  0  0  0  0  0  0  0  0  0  0
  -28.1536  -19.6095   21.3749 C   0  0  0  0  0  0  0  0  0  0  0  0
  -27.8597  -21.4894   22.8316 C   0  0  0  0  0  0  0  0  0  0  0  0
  -25.1781  -18.7445   20.7201 C   0  0  0  0  0  0  0  0  0  0  0  0
  -31.0156  -19.6804   25.1831 C   0  0  0  0  0  0  0  0  0  0  0  0
  -29.1482  -20.7551   23.2282 C   0  0  2  0  0  0  0  0  0  0  0  0
  -23.5069  -31.8144   23.8287 C   0  0  1  0  0  0  0  0  0  0  0  0
  -22.7272  -29.3897   21.0098 C   0  0  1  0  0  0  0  0  0  0  0  0
  -23.6775  -18.3989   20.8123 C   0  0  2  0  0  0  0  0  0  0  0  0
  -33.0499  -21.4090   26.3491 C   0  0  0  0  0  0  0  0  0  0  0  0
  -31.3786  -25.2391   23.6452 C   0  0  0  0  0  0  0  0  0  0  0  0
  -19.5423  -22.7585   18.5836 C   0  0  0  0  0  0  0  0  0  0  0  0
  -21.2131  -26.1992   23.9911 C   0  0  0  0  0  0  0  0  0  0  0  0
  -20.4539  -24.0430   22.9701 C   0  0  0  0  0  0  0  0  0  0  0  0
  -19.0373  -26.0858   22.7633 C   0  0  0  0  0  0  0  0  0  0  0  0
  -21.7106  -25.1202   16.5349 C   0  0  0  0  0  0  0  0  0  0  0  0
  -29.8366  -24.8180   20.5836 C   0  0  0  0  0  0  0  0  0  0  0  0
  -28.4775  -25.4959   20.6587 C   0  0  0  0  0  0  0  0  0  1  0  0
  -29.8095  -23.4210   21.1835 C   0  0  0  0  0  0  0  0  0  0  0  0
  -21.1756  -25.9196   21.4247 C   0  0  1  0  0  0  0  0  0  0  0  0
  -20.2278  -24.0748   18.2517 C   0  0  2  0  0  0  0  0  0  0  0  0
  -20.4942  -25.5742   22.7789 C   0  0  0  0  0  0  0  0  0  0  0  0
  -24.3273  -16.0300   20.5878 N   0  0  0  0  0  0  0  0  0  0  0  0
  -23.4580  -16.9229   21.0908 N   0  0  0  0  0  0  0  0  0  0  0  0
  -22.5579  -27.9355   21.0381 N   0  0  0  0  0  0  0  0  0  0  0  0
  -25.3818  -20.1579   20.3768 N   0  0  0  0  0  0  0  0  0  0  0  0
  -27.2329  -20.6583   21.8087 N   0  0  0  0  0  0  0  0  0  0  0  0
  -21.4892  -17.1150   22.3937 N   0  0  0  0  0  0  0  0  0  0  0  0
  -22.2381  -12.6626   22.2876 N   0  0  0  0  0  0  0  0  0  0  0  0
  -23.1896  -31.1865   22.5640 N   0  0  0  0  0  0  0  0  0  0  0  0
  -20.5006  -25.3634   20.2571 N   0  0  0  0  0  0  0  0  0  0  0  0
  -21.0034  -23.8962   16.9917 N   0  3  0  0  0  0  0  0  0  0  0  0
  -20.8291  -14.2957   23.0664 O   0  0  0  0  0  0  0  0  0  0  0  0
  -23.1940  -28.9728   23.2864 O   0  0  0  0  0  0  0  0  0  0  0  0
  -20.2327  -28.0770   21.1364 O   0  0  0  0  0  0  0  0  0  0  0  0
  -22.3136  -24.1516   19.4685 O   0  0  0  0  0  0  0  0  0  0  0  0
  -25.6777  -22.2538   21.2770 O   0  0  0  0  0  0  0  0  0  0  0  0
  -26.4478  -10.0919   19.6981 O   0  0  0  0  0  0  0  0  0  0  0  0
  -28.5585  -26.8020   20.1043 O   0  0  0  0  0  0  0  0  0  1  0  0
  -29.4225  -23.4903   22.5536 O   0  0  0  0  0  0  0  0  0  0  0  0
  -31.9375   -9.9483   20.1945 F   0  0  0  0  0  0  0  0  0  0  0  0
  -27.6716   -8.2862   21.3965 F   0  0  0  0  0  0  0  0  0  0  0  0
  1  2  1  0  0  0  0
  1  5  2  0  0  0  0
  2  6  2  0  0  0  0
  3  8  2  0  0  0  0
  3 16  1  0  0  0  0
  4  9  1  0  0  0  0
  4 16  2  0  0  0  0
  5 18  1  0  0  0  0
  6 20  1  0  0  0  0
  7 10  2  0  0  0  0
  7 19  1  0  0  0  0
  8 26  1  0  0  0  0
  9 26  2  0  0  0  0
 10 27  1  0  0  0  0
 11 12  2  0  0  0  0
 11 28  1  0  0  0  0
 12 30  1  0  0  0  0
 13 21  1  0  0  0  0
 13 27  2  0  0  0  0
 14 24  1  0  0  0  0
 14 25  2  0  0  0  0
 15 30  2  0  0  0  0
 15 31  1  0  0  0  0
 16 32  1  0  0  0  0
 17 32  1  0  0  0  0
 17 33  2  0  0  0  0
 17 34  1  0  0  0  0
 18 20  2  0  0  0  0
 18 39  1  0  0  0  0
 19 21  2  0  0  0  0
 19 40  1  0  0  0  0
 20 55  1  0  0  0  0
 21 41  1  0  0  0  0
 22 23  1  0  0  0  0
 22 24  2  0  0  0  0
 22 53  1  0  0  0  0
 23 29  2  0  0  0  0
 23 54  1  0  0  0  0
 24 58  1  0  0  0  0
 25 29  1  0  0  0  0
 25 59  1  0  0  0  0
 26 86  1  0  0  0  0
 27 87  1  0  0  0  0
 28 31  2  0  0  0  0
 28 86  1  0  0  0  0
 29 88  1  0  0  0  0
 30 89  1  0  0  0  0
 31 90  1  0  0  0  0
 32 71  2  0  0  0  0
 33 72  1  0  0  0  0
 33 76  1  0  0  0  0
 34 77  1  0  0  0  0
 34 81  2  0  0  0  0
 35 56  1  0  0  0  0
 35 78  1  0  0  0  0
 35 82  2  0  0  0  0
 36 68  1  0  0  0  0
 36 73  1  0  0  0  0
 36 83  2  0  0  0  0
 37 69  1  0  0  0  0
 37 79  1  0  0  0  0
 37 84  2  0  0  0  0
 38 74  1  0  0  0  0
 38 75  1  0  0  0  0
 38 85  2  0  0  0  0
 39 42  1  0  0  0  0
 40 56  1  0  0  0  0
 41 73  1  0  0  0  0
 42 46  1  0  0  0  0
 43 47  1  0  0  0  0
 43 49  1  0  0  0  0
 44 45  1  0  0  0  0
 44 53  1  0  0  0  0
 45 53  1  0  0  0  0
 46 55  1  0  0  0  0
 47 57  1  0  0  0  0
 48 50  1  0  0  0  0
 48 54  1  0  0  0  0
 49 74  1  0  0  0  0
 50 75  1  0  0  0  0
 51 54  1  0  0  0  0
 51 75  1  0  0  0  0
 52 57  1  0  0  0  0
 52 74  1  0  0  0  0
 55 78  1  0  0  0  0
 56 73  1  0  0  0  0
 57 72  1  0  0  0  0
 60 69  1  0  0  0  0
 61 70  1  0  0  0  0
 62 70  1  0  0  0  0
 63 70  1  0  0  0  0
 64 80  1  0  0  0  0
 65 66  1  0  0  0  0
 65 67  1  0  0  0  0
 66 87  1  0  0  0  0
 67 88  1  0  0  0  0
 68 70  1  0  0  0  0
 68 79  1  0  0  0  0
 69 80  1  0  0  0  0
 71 72  1  0  0  0  0
M  CHG  1  80   1
M  ISO  4  38 100  66 101  75 100  87 101
M  END
> <Batch ID>
0145

> <Smiles>
CNC(C)C(=O)NC(C(=O)N1Cc2cc([101O:1][101CH2:1]CCOc3c(C)cc(C)c(C4CC4)c3C3CC[100N:0]([100C:0](=O)N4CCCC(n5nc(-c6ccc(Oc7ccc(F)cc7F)cc6)c(C(N)=O)c5N)C4)C3)ccc2CC1C(=O)NC1CCCc2ccccc21)C(C)(C)C

> <Shape>
0.197

> <Color>
0.096

> <Negative vol penalty>
0.000

$$$$

  -OEChem-04052321283D

 86 94  0     1  0  0  0  0  0999 V2000
  -25.9139  -31.9494   21.1308 C   0  0  0  0  0  0  0  0  0  0  0  0
  -26.6243  -30.8946   20.5668 C   0  0  0  0  0  0  0  0  0  0  0  0
  -23.1070   -9.8300   19.9074 C   0  0  0  0  0  0  0  0  0  0  0  0
  -23.8995   -9.7927   22.1895 C   0  0  0  0  0  0  0  0  0  0  0  0
  -26.3990  -32.5825   22.2744 C   0  0  0  0  0  0  0  0  0  0  0  0
  -27.8209  -30.4729   21.1455 C   0  0  0  0  0  0  0  0  0  0  0  0
  -28.1432  -25.4306   21.4861 C   0  0  0  0  0  0  0  0  0  0  0  0
  -22.4105   -8.6422   20.1299 C   0  0  0  0  0  0  0  0  0  0  0  0
  -23.2028   -8.6049   22.4120 C   0  0  0  0  0  0  0  0  0  0  0  0
  -28.4682  -24.7334   20.3233 C   0  0  0  0  0  0  0  0  0  0  0  0
  -20.0158   -7.6669   23.0314 C   0  0  0  0  0  0  0  0  0  0  0  0
  -19.2780   -7.5612   24.2104 C   0  0  0  0  0  0  0  0  0  0  0  0
  -30.7544  -24.5601   21.0735 C   0  0  0  0  0  0  0  0  0  0  0  0
  -31.5190  -17.6985   22.3433 C   0  0  0  0  0  0  0  0  0  0  0  0
  -31.3586  -19.8571   21.2701 C   0  0  0  0  0  0  0  0  0  0  0  0
  -20.6015   -5.6496   24.8672 C   0  0  0  0  0  0  0  0  0  0  0  0
  -23.8516  -10.4052   20.9372 C   0  0  0  0  0  0  0  0  0  0  0  0
  -24.0972  -12.9440   20.8944 C   0  0  0  0  0  0  0  0  0  0  0  0
  -27.5972  -32.1620   22.8730 C   0  0  0  0  0  0  0  0  0  0  0  0
  -29.1254  -25.7078   22.4478 C   0  0  0  0  0  0  0  0  0  0  0  0
  -28.3231  -31.1018   22.2974 C   0  0  0  0  0  0  0  0  0  0  0  0
  -30.4387  -25.2588   22.2487 C   0  0  0  0  0  0  0  0  0  0  0  0
  -30.4441  -17.2400   21.5817 C   0  0  0  0  0  0  0  0  0  0  0  0
  -29.8265  -18.0900   20.6643 C   0  0  0  0  0  0  0  0  0  0  0  0
  -22.4583   -8.0297   21.3821 C   0  0  0  0  0  0  0  0  0  0  0  0
  -29.7746  -24.3005   20.1155 C   0  0  0  0  0  0  0  0  0  0  0  0
  -21.0464   -6.7640   22.7702 C   0  0  0  0  0  0  0  0  0  0  0  0
  -31.9762  -19.0071   22.1875 C   0  0  0  0  0  0  0  0  0  0  0  0
  -30.2837  -19.3986   20.5085 C   0  0  0  0  0  0  0  0  0  0  0  0
  -19.5709   -6.5526   25.1283 C   0  0  0  0  0  0  0  0  0  0  0  0
  -21.3393   -5.7553   23.6881 C   0  0  0  0  0  0  0  0  0  0  0  0
  -24.5719  -11.6319   20.7079 C   0  0  0  0  0  0  0  0  0  0  0  0
  -25.1552  -13.7454   20.5410 C   0  0  0  0  0  0  0  0  0  0  0  0
  -22.8146  -13.3979   21.3467 C   0  0  0  0  0  0  0  0  0  0  0  0
  -30.3848  -28.3589   23.6682 C   0  0  0  0  0  0  0  0  0  0  0  0
  -30.6240  -14.8957   20.7834 C   0  0  0  0  0  0  0  0  0  0  0  0
  -31.8934  -26.2698   25.6385 C   0  0  0  0  0  0  0  0  0  0  0  0
  -33.0423  -23.1002   26.1679 C   0  0  0  0  0  0  0  0  0  0  0  0
  -28.1059  -32.9080   24.0811 C   0  0  0  0  0  0  0  0  0  0  0  0
  -28.7528  -26.4377   23.7092 C   0  0  0  0  0  0  0  0  0  0  0  0
  -31.5256  -25.5132   23.2599 C   0  0  0  0  0  0  0  0  0  0  0  0
  -29.1899  -32.1562   24.8493 C   0  0  0  0  0  0  0  0  0  0  0  0
  -29.5095  -12.6372   18.2345 C   0  0  0  0  0  0  0  0  0  0  0  0
  -30.2371  -31.6011   23.8890 C   0  0  0  0  0  0  0  0  0  0  0  0
  -28.0982  -12.2588   18.6821 C   0  0  0  0  0  0  0  0  0  0  0  0
  -30.4392  -12.8362   19.4274 C   0  0  0  0  0  0  0  0  0  0  0  0
  -28.5303  -13.4536   20.8755 C   0  0  0  0  0  0  0  0  0  0  0  0
  -29.6124  -30.5994   22.9103 C   0  0  1  0  0  0  0  0  0  0  0  0
  -29.9436  -27.1129   24.3826 C   0  0  1  0  0  0  0  0  0  0  0  0
  -27.5512  -13.2733   19.7020 C   0  0  2  0  0  0  0  0  0  0  0  0
  -28.6743  -17.6036   19.8446 C   0  0  0  0  0  0  0  0  0  0  0  0
  -35.2599  -20.3152   22.8910 C   0  0  0  0  0  0  0  0  0  0  0  0
  -30.1944  -15.3055   23.1903 C   0  0  0  0  0  0  0  0  0  0  0  0
  -34.2671  -21.7052   27.8564 C   0  0  0  0  0  0  0  0  0  0  0  0
  -34.5211  -27.5828   24.8135 C   0  0  0  0  0  0  0  0  0  0  0  0
  -35.7261  -25.5970   25.7477 C   0  0  0  0  0  0  0  0  0  0  0  0
  -34.3472  -27.0361   27.2477 C   0  0  0  0  0  0  0  0  0  0  0  0
  -30.7433  -21.2646   26.4909 C   0  0  0  0  0  0  0  0  0  0  0  0
  -29.6883  -21.6478   17.6524 C   0  0  0  0  0  0  0  0  0  0  0  0
  -33.8552  -20.4564   22.3443 C   0  0  0  0  0  0  0  0  0  0  0  0
  -29.0685  -22.8245   18.3897 C   0  0  0  0  0  0  0  0  0  1  0  0
  -30.5140  -20.7678   18.5777 C   0  0  0  0  0  0  0  0  0  0  0  0
  -29.9731  -15.8348   21.7675 C   0  0  1  0  0  0  0  0  0  0  0  0
  -33.1964  -25.5088   25.5940 C   0  0  1  0  0  0  0  0  0  0  0  0
  -32.9066  -22.1649   27.3559 C   0  0  2  0  0  0  0  0  0  0  0  0
  -34.4279  -26.4279   25.8306 C   0  0  0  0  0  0  0  0  0  0  0  0
  -25.8332  -11.5973   20.2699 N   0  0  0  0  0  0  0  0  0  0  0  0
  -26.1600  -12.8976   20.1781 N   0  0  0  0  0  0  0  0  0  0  0  0
  -31.1130  -26.2364   24.4741 N   0  0  0  0  0  0  0  0  0  0  0  0
  -29.8737  -13.7897   20.3837 N   0  0  0  0  0  0  0  0  0  0  0  0
  -25.3147  -15.0855   20.5083 N   0  0  0  0  0  0  0  0  0  0  0  0
  -21.8423  -12.4409   21.6679 N   0  0  0  0  0  0  0  0  0  0  0  0
  -29.4011  -29.3233   23.5594 N   0  0  0  0  0  0  0  0  0  0  0  0
  -33.0676  -24.4222   26.5590 N   0  0  0  0  0  0  0  0  0  0  0  0
  -32.1130  -20.9610   26.9793 N   0  3  0  0  0  0  0  0  0  0  0  0
  -22.5334  -14.6163   21.4470 O   0  0  0  0  0  0  0  0  0  0  0  0
  -31.5331  -28.4400   23.2481 O   0  0  0  0  0  0  0  0  0  0  0  0
  -31.7641  -15.1411   20.3809 O   0  0  0  0  0  0  0  0  0  0  0  0
  -31.5761  -26.8659   26.6708 O   0  0  0  0  0  0  0  0  0  0  0  0
  -33.1218  -22.6981   25.0092 O   0  0  0  0  0  0  0  0  0  0  0  0
  -21.7785   -6.8707   21.5996 O   0  0  0  0  0  0  0  0  0  0  0  0
  -30.0947  -23.6204   18.9812 O   0  0  0  0  0  0  0  0  0  1  0  0
  -33.0257  -19.4542   22.9301 O   0  0  0  0  0  0  0  0  0  0  0  0
  -29.6895  -20.2483   19.6121 O   0  0  0  0  0  0  0  0  0  0  0  0
  -18.8633   -6.4521   26.2612 F   0  0  0  0  0  0  0  0  0  0  0  0
  -22.3290   -4.8856   23.4433 F   0  0  0  0  0  0  0  0  0  0  0  0
  1  2  1  0  0  0  0
  1  5  2  0  0  0  0
  2  6  2  0  0  0  0
  3  8  2  0  0  0  0
  3 17  1  0  0  0  0
  4  9  1  0  0  0  0
  4 17  2  0  0  0  0
  5 19  1  0  0  0  0
  6 21  1  0  0  0  0
  7 10  2  0  0  0  0
  7 20  1  0  0  0  0
  8 25  1  0  0  0  0
  9 25  2  0  0  0  0
 10 26  1  0  0  0  0
 11 12  2  0  0  0  0
 11 27  1  0  0  0  0
 12 30  1  0  0  0  0
 13 22  1  0  0  0  0
 13 26  2  0  0  0  0
 14 23  1  0  0  0  0
 14 28  2  0  0  0  0
 15 28  1  0  0  0  0
 15 29  2  0  0  0  0
 16 30  2  0  0  0  0
 16 31  1  0  0  0  0
 17 32  1  0  0  0  0
 18 32  1  0  0  0  0
 18 33  2  0  0  0  0
 18 34  1  0  0  0  0
 19 21  2  0  0  0  0
 19 39  1  0  0  0  0
 20 22  2  0  0  0  0
 20 40  1  0  0  0  0
 21 48  1  0  0  0  0
 22 41  1  0  0  0  0
 23 24  2  0  0  0  0
 23 63  1  0  0  0  0
 24 29  1  0  0  0  0
 24 51  1  0  0  0  0
 25 81  1  0  0  0  0
 26 82  1  0  0  0  0
 27 31  2  0  0  0  0
 27 81  1  0  0  0  0
 28 83  1  0  0  0  0
 29 84  1  0  0  0  0
 30 85  1  0  0  0  0
 31 86  1  0  0  0  0
 32 67  2  0  0  0  0
 33 68  1  0  0  0  0
 33 71  1  0  0  0  0
 34 72  1  0  0  0  0
 34 76  2  0  0  0  0
 35 49  1  0  0  0  0
 35 73  1  0  0  0  0
 35 77  2  0  0  0  0
 36 63  1  0  0  0  0
 36 70  1  0  0  0  0
 36 78  2  0  0  0  0
 37 64  1  0  0  0  0
 37 69  1  0  0  0  0
 37 79  2  0  0  0  0
 38 65  1  0  0  0  0
 38 74  1  0  0  0  0
 38 80  2  0  0  0  0
 39 42  1  0  0  0  0
 40 49  1  0  0  0  0
 41 69  1  0  0  0  0
 42 44  1  0  0  0  0
 43 45  1  0  0  0  0
 43 46  1  0  0  0  0
 44 48  1  0  0  0  0
 45 50  1  0  0  0  0
 46 70  1  0  0  0  0
 47 50  1  0  0  0  0
 47 70  1  0  0  0  0
 48 73  1  0  0  0  0
 49 69  1  0  0  0  0
 50 68  1  0  0  0  0
 52 60  1  0  0  0  0
 53 63  1  0  0  0  0
 54 65  1  0  0  0  0
 55 66  1  0  0  0  0
 56 66  1  0  0  0  0
 57 66  1  0  0  0  0
 58 75  1  0  0  0  0
 59 61  1  0  0  0  0
 59 62  1  0  0  0  0
 60 83  1  0  0  0  0
 61 82  1  0  0  0  0
 62 84  1  0  0  0  0
 64 66  1  0  0  0  0
 64 74  1  0  0  0  0
 65 75  1  0  0  0  0
 67 68  1  0  0  0  0
M  CHG  1  75   1
M  ISO  4  36 100  61 101  63 100  82 101
M  END
> <Batch ID>
0145

> <Smiles>
CCOc1cc(OCC[101CH2:1][101O:1]c2ccc3c(c2)CN(C(=O)C(NC(=O)C(C)NC)C(C)(C)C)C(C(=O)NC2CCCc4ccccc42)C3)c(C)c([100CH:0](C)[100C:0](=O)N2CCCC(n3nc(-c4ccc(Oc5ccc(F)cc5F)cc4)c(C(N)=O)c3N)C2)c1

> <Shape>
0.264

> <Color>
0.209

> <Negative vol penalty>
0.000

$$$$

  -OEChem-04052321283D

 88 97  0     1  0  0  0  0  0999 V2000
  -23.1532  -20.2056   19.2632 C   0  0  0  0  0  0  0  0  0  0  0  0
  -23.0406  -21.5221   19.6984 C   0  0  0  0  0  0  0  0  0  0  0  0
  -24.3252  -14.4058   20.7313 C   0  0  0  0  0  0  0  0  0  0  0  0
  -23.9038  -12.9105   22.5816 C   0  0  0  0  0  0  0  0  0  0  0  0
  -24.3661  -19.5306   19.3943 C   0  0  0  0  0  0  0  0  0  0  0  0
  -24.1406  -22.1641   20.2661 C   0  0  0  0  0  0  0  0  0  0  0  0
  -24.7682  -26.8691   18.5012 C   0  0  0  0  0  0  0  0  0  0  0  0
  -25.2752  -13.5166   20.2290 C   0  0  0  0  0  0  0  0  0  0  0  0
  -24.8539  -12.0213   22.0793 C   0  0  0  0  0  0  0  0  0  0  0  0
  -23.9332  -27.8593   19.0171 C   0  0  0  0  0  0  0  0  0  0  0  0
  -28.4873  -12.6810   20.8682 C   0  0  0  0  0  0  0  0  0  0  0  0
  -29.7022  -13.2097   20.4324 C   0  0  0  0  0  0  0  0  0  0  0  0
  -25.7023  -28.5736   20.4933 C   0  0  0  0  0  0  0  0  0  0  0  0
  -22.7310  -27.7412   23.7400 C   0  0  0  0  0  0  0  0  0  0  0  0
  -29.2877  -12.3369   18.2180 C   0  0  0  0  0  0  0  0  0  0  0  0
  -21.1254  -26.1694   23.5956 C   0  0  0  0  0  0  0  0  0  0  0  0
  -23.6395  -14.1028   21.9077 C   0  0  0  0  0  0  0  0  0  0  0  0
  -21.2813  -15.0486   22.1362 C   0  0  0  0  0  0  0  0  0  0  0  0
  -25.4842  -20.1677   19.9550 C   0  0  0  0  0  0  0  0  0  0  0  0
  -26.0751  -26.7164   18.9860 C   0  0  0  0  0  0  0  0  0  0  0  0
  -25.3692  -21.4966   20.4061 C   0  0  0  0  0  0  0  0  0  0  0  0
  -26.5527  -27.5823   19.9801 C   0  0  0  0  0  0  0  0  0  0  0  0
  -22.3841  -26.4152   24.0981 C   0  0  0  0  0  0  0  0  0  0  0  0
  -25.5396  -12.3243   20.9030 C   0  0  0  0  0  0  0  0  0  0  0  0
  -24.3993  -28.7098   20.0153 C   0  0  0  0  0  0  0  0  0  0  0  0
  -27.6726  -11.9800   19.9790 C   0  0  0  0  0  0  0  0  0  0  0  0
  -30.1024  -13.0377   19.1073 C   0  0  0  0  0  0  0  0  0  0  0  0
  -28.0728  -11.8080   18.6539 C   0  0  0  0  0  0  0  0  0  0  0  0
  -22.6584  -15.0212   22.4273 C   0  0  0  0  0  0  0  0  0  0  0  0
  -21.6737  -28.2655   23.0298 C   0  0  0  0  0  0  0  0  0  0  0  0
  -20.7949  -16.0990   22.8754 C   0  0  0  0  0  0  0  0  0  0  0  0
  -20.5108  -14.2003   21.2746 C   0  0  0  0  0  0  0  0  0  0  0  0
  -27.6607  -24.3945   20.4688 C   0  0  0  0  0  0  0  0  0  0  0  0
  -30.1858  -26.3893   20.0600 C   0  0  0  0  0  0  0  0  0  0  0  0
  -31.3142  -29.5751   19.5863 C   0  0  0  0  0  0  0  0  0  0  0  0
  -23.5497  -20.9833   24.8885 C   0  0  0  0  0  0  0  0  0  0  0  0
  -26.7611  -19.3820   20.1193 C   0  0  0  0  0  0  0  0  0  0  0  0
  -26.9721  -25.6606   18.4003 C   0  0  0  0  0  0  0  0  0  0  0  0
  -27.9544  -27.4731   20.5204 C   0  0  0  0  0  0  0  0  0  0  0  0
  -27.9835  -20.2556   20.3888 C   0  0  0  0  0  0  0  0  0  0  0  0
  -21.5979  -18.5644   26.8764 C   0  0  0  0  0  0  0  0  0  0  0  0
  -27.6705  -21.2960   21.4594 C   0  0  0  0  0  0  0  0  0  0  0  0
  -16.9538  -28.1071   22.8536 C   0  0  0  0  0  0  0  0  0  0  0  0
  -17.5489  -27.5484   24.1160 C   0  0  0  0  0  0  0  0  0  0  0  0
  -21.5764  -17.3623   25.9370 C   0  0  0  0  0  0  0  0  0  0  0  0
  -22.8996  -19.3569   26.7639 C   0  0  0  0  0  0  0  0  0  0  0  0
  -23.1973  -18.5773   24.4299 C   0  0  0  0  0  0  0  0  0  0  0  0
  -26.5468  -22.2351   21.0044 C   0  0  1  0  0  0  0  0  0  0  0  0
  -28.1144  -25.2639   19.3304 C   0  0  1  0  0  0  0  0  0  0  0  0
  -18.4299  -28.2355   23.1097 C   0  0  0  0  0  0  0  0  0  0  0  0
  -21.8759  -17.7961   24.4939 C   0  0  1  0  0  0  0  0  0  0  0  0
  -33.4317  -30.8968   19.3277 C   0  0  0  0  0  0  0  0  0  0  0  0
  -30.6923  -26.1602   23.0602 C   0  0  0  0  0  0  0  0  0  0  0  0
  -32.1610  -28.1812   22.8959 C   0  0  0  0  0  0  0  0  0  0  0  0
  -32.7548  -26.1052   21.6468 C   0  0  0  0  0  0  0  0  0  0  0  0
  -21.9401  -31.7858   21.7688 C   0  0  0  0  0  0  0  0  0  0  0  0
  -22.7392  -30.9154   23.9855 C   0  0  0  0  0  0  0  0  0  0  0  0
  -30.5461  -30.4956   16.8804 C   0  0  0  0  0  0  0  0  0  0  0  0
  -19.4223  -27.4316   22.2873 C   0  0  0  0  0  0  0  0  0  0  0  0
  -22.7467  -24.1826   25.1516 C   0  0  0  0  0  0  0  0  0  0  0  0
  -23.9660  -23.3451   25.5057 C   0  0  0  0  0  0  0  0  0  0  0  0
  -23.7967  -30.0570   21.8802 C   0  0  0  0  0  0  0  0  0  1  0  0
  -30.8043  -27.5091   20.8616 C   0  0  1  0  0  0  0  0  0  0  0  0
  -32.3192  -30.1523   18.6059 C   0  0  2  0  0  0  0  0  0  0  0  0
  -31.5760  -26.9900   22.1075 C   0  0  0  0  0  0  0  0  0  0  0  0
  -22.4917  -30.5656   22.5137 C   0  0  0  0  0  0  0  0  0  0  0  0
  -23.0233  -15.9783   23.2846 N   0  0  0  0  0  0  0  0  0  0  0  0
  -20.7033  -27.3013   22.9484 N   0  0  0  0  0  0  0  0  0  0  0  0
  -21.8684  -16.6170   23.5383 N   0  0  0  0  0  0  0  0  0  0  0  0
  -28.7910  -26.4209   19.9200 N   0  0  0  0  0  0  0  0  0  0  0  0
  -23.2007  -19.7075   25.3670 N   0  0  0  0  0  0  0  0  0  0  0  0
  -19.5579  -16.6209   23.0165 N   0  0  0  0  0  0  0  0  0  0  0  0
  -21.1682  -13.1691   20.5900 N   0  0  0  0  0  0  0  0  0  0  0  0
  -23.1420  -25.5484   24.8010 N   0  0  0  0  0  0  0  0  0  0  0  0
  -21.4961  -29.5077   22.4550 N   0  0  0  0  0  0  0  0  0  0  0  0
  -27.0558  -23.2174   20.0714 N   0  0  0  0  0  0  0  0  0  0  0  0
  -31.6228  -28.2754   19.9282 N   0  0  0  0  0  0  0  0  0  0  0  0
  -23.6159  -21.9913   25.8438 N   0  0  0  0  0  0  0  0  0  0  0  0
  -31.6471  -31.1008   17.6733 N   0  3  0  0  0  0  0  0  0  0  0  0
  -19.2787  -14.3625   21.1038 O   0  0  0  0  0  0  0  0  0  0  0  0
  -27.8469  -24.7637   21.6224 O   0  0  0  0  0  0  0  0  0  0  0  0
  -30.9140  -25.5226   19.5700 O   0  0  0  0  0  0  0  0  0  0  0  0
  -30.3538  -30.2144   20.0096 O   0  0  0  0  0  0  0  0  0  0  0  0
  -23.7910  -21.2091   23.6975 O   0  0  0  0  0  0  0  0  0  0  0  0
  -26.4664  -11.4563   20.4130 O   0  0  0  0  0  0  0  0  0  0  0  0
  -23.5861  -29.6767   20.5210 O   0  0  0  0  0  0  0  0  0  1  0  0
  -31.2684  -13.5469   18.6885 F   0  0  0  0  0  0  0  0  0  0  0  0
  -27.2939  -11.1366   17.7947 F   0  0  0  0  0  0  0  0  0  0  0  0
  1  2  1  0  0  0  0
  1  5  2  0  0  0  0
  2  6  2  0  0  0  0
  3  8  2  0  0  0  0
  3 17  1  0  0  0  0
  4  9  1  0  0  0  0
  4 17  2  0  0  0  0
  5 19  1  0  0  0  0
  6 21  1  0  0  0  0
  7 10  2  0  0  0  0
  7 20  1  0  0  0  0
  8 24  1  0  0  0  0
  9 24  2  0  0  0  0
 10 25  1  0  0  0  0
 11 12  2  0  0  0  0
 11 26  1  0  0  0  0
 12 27  1  0  0  0  0
 13 22  1  0  0  0  0
 13 25  2  0  0  0  0
 14 23  1  0  0  0  0
 14 30  2  0  0  0  0
 15 27  2  0  0  0  0
 15 28  1  0  0  0  0
 16 23  2  0  0  0  0
 16 68  1  0  0  0  0
 17 29  1  0  0  0  0
 18 29  1  0  0  0  0
 18 31  2  0  0  0  0
 18 32  1  0  0  0  0
 19 21  2  0  0  0  0
 19 37  1  0  0  0  0
 20 22  2  0  0  0  0
 20 38  1  0  0  0  0
 21 48  1  0  0  0  0
 22 39  1  0  0  0  0
 23 74  1  0  0  0  0
 24 85  1  0  0  0  0
 25 86  1  0  0  0  0
 26 28  2  0  0  0  0
 26 85  1  0  0  0  0
 27 87  1  0  0  0  0
 28 88  1  0  0  0  0
 29 67  2  0  0  0  0
 30 68  1  0  0  0  0
 30 75  1  0  0  0  0
 31 69  1  0  0  0  0
 31 72  1  0  0  0  0
 32 73  1  0  0  0  0
 32 80  2  0  0  0  0
 33 49  1  0  0  0  0
 33 76  1  0  0  0  0
 33 81  2  0  0  0  0
 34 63  1  0  0  0  0
 34 70  1  0  0  0  0
 34 82  2  0  0  0  0
 35 64  1  0  0  0  0
 35 77  1  0  0  0  0
 35 83  2  0  0  0  0
 36 71  1  0  0  0  0
 36 78  1  0  0  0  0
 36 84  2  0  0  0  0
 37 40  1  0  0  0  0
 38 49  1  0  0  0  0
 39 70  1  0  0  0  0
 40 42  1  0  0  0  0
 41 45  1  0  0  0  0
 41 46  1  0  0  0  0
 42 48  1  0  0  0  0
 43 44  1  0  0  0  0
 43 50  1  0  0  0  0
 44 50  1  0  0  0  0
 45 51  1  0  0  0  0
 46 71  1  0  0  0  0
 47 51  1  0  0  0  0
 47 71  1  0  0  0  0
 48 76  1  0  0  0  0
 49 70  1  0  0  0  0
 50 59  1  0  0  0  0
 51 69  1  0  0  0  0
 52 64  1  0  0  0  0
 53 65  1  0  0  0  0
 54 65  1  0  0  0  0
 55 65  1  0  0  0  0
 56 66  1  0  0  0  0
 57 66  1  0  0  0  0
 58 79  1  0  0  0  0
 59 68  1  0  0  0  0
 60 61  1  0  0  0  0
 60 74  1  0  0  0  0
 61 78  1  0  0  0  0
 62 66  1  0  0  0  0
 62 86  1  0  0  0  0
 63 65  1  0  0  0  0
 63 77  1  0  0  0  0
 64 79  1  0  0  0  0
 66 75  1  0  0  0  0
 67 69  1  0  0  0  0
M  CHG  1  79   1
M  ISO  4  36 100  62 101  78 100  86 101
M  END
> <Batch ID>
0145

> <Smiles>
CNC(C)C(=O)NC(C(=O)N1Cc2cc([101O:1][101CH2:1]C(C)(C)Nc3cc(NCC[100NH:0][100C:0](=O)N4CCCC(n5nc(-c6ccc(Oc7ccc(F)cc7F)cc6)c(C(N)=O)c5N)C4)cn3CC3CC3)ccc2CC1C(=O)NC1CCCc2ccccc21)C(C)(C)C

> <Shape>
0.238

> <Color>
0.077

> <Negative vol penalty>
0.000

$$$$

  -OEChem-04052321283D

 85 94  0     1  0  0  0  0  0999 V2000
  -20.8575  -29.8294   14.7027 C   0  0  0  0  0  0  0  0  0  0  0  0
  -22.1073  -29.4451   15.1777 C   0  0  0  0  0  0  0  0  0  0  0  0
  -24.6310   -8.8655   21.5603 C   0  0  0  0  0  0  0  0  0  0  0  0
  -22.8232  -10.4501   21.3199 C   0  0  0  0  0  0  0  0  0  0  0  0
  -20.2711  -31.0083   15.1612 C   0  0  0  0  0  0  0  0  0  0  0  0
  -22.7720  -30.2402   16.1108 C   0  0  0  0  0  0  0  0  0  0  0  0
  -24.7902  -27.5320   19.8841 C   0  0  0  0  0  0  0  0  0  0  0  0
  -23.8286   -8.0748   22.3828 C   0  0  0  0  0  0  0  0  0  0  0  0
  -22.0207   -9.6594   22.1423 C   0  0  0  0  0  0  0  0  0  0  0  0
  -25.9824  -26.8597   19.6184 C   0  0  0  0  0  0  0  0  0  0  0  0
  -22.1360   -5.4574   24.2534 C   0  0  0  0  0  0  0  0  0  0  0  0
  -22.1291   -4.0817   24.0239 C   0  0  0  0  0  0  0  0  0  0  0  0
  -27.2127  -28.6195   20.7178 C   0  0  0  0  0  0  0  0  0  0  0  0
  -21.3143   -4.4600   21.7811 C   0  0  0  0  0  0  0  0  0  0  0  0
  -24.1283  -10.0532   21.0288 C   0  0  0  0  0  0  0  0  0  0  0  0
  -25.0755  -10.7939   18.7790 C   0  0  0  0  0  0  0  0  0  0  0  0
  -20.9246  -31.8133   16.1076 C   0  0  0  0  0  0  0  0  0  0  0  0
  -24.8013  -28.7605   20.5601 C   0  0  0  0  0  0  0  0  0  0  0  0
  -22.1944  -31.4316   16.5813 C   0  0  0  0  0  0  0  0  0  0  0  0
  -26.0191  -29.3041   20.9931 C   0  0  0  0  0  0  0  0  0  0  0  0
  -22.5235   -8.4717   22.6738 C   0  0  0  0  0  0  0  0  0  0  0  0
  -27.1941  -27.4048   20.0328 C   0  0  0  0  0  0  0  0  0  0  0  0
  -21.7320   -6.3346   23.2469 C   0  0  0  0  0  0  0  0  0  0  0  0
  -21.7183   -3.5829   22.7877 C   0  0  0  0  0  0  0  0  0  0  0  0
  -21.3211   -5.8358   22.0107 C   0  0  0  0  0  0  0  0  0  0  0  0
  -24.9569  -10.8708   20.1796 C   0  0  0  0  0  0  0  0  0  0  0  0
  -25.9788  -11.7769   18.4564 C   0  0  0  0  0  0  0  0  0  0  0  0
  -24.4270   -9.9127   17.8523 C   0  0  0  0  0  0  0  0  0  0  0  0
  -23.9155  -31.7265   19.8376 C   0  0  0  0  0  0  0  0  0  0  0  0
  -24.6349  -32.2837   22.9512 C   0  0  0  0  0  0  0  0  0  0  0  0
  -26.3817  -31.3553   25.7322 C   0  0  0  0  0  0  0  0  0  0  0  0
  -27.9652  -16.7544   18.8353 C   0  0  0  0  0  0  0  0  0  0  0  0
  -20.2720  -33.1030   16.5380 C   0  0  0  0  0  0  0  0  0  0  0  0
  -23.5045  -29.4601   20.8625 C   0  0  0  0  0  0  0  0  0  0  0  0
  -26.0836  -30.6102   21.7403 C   0  0  0  0  0  0  0  0  0  0  0  0
  -20.8760  -33.6971   17.8079 C   0  0  0  0  0  0  0  0  0  0  0  0
  -29.0077  -14.5673   21.3812 C   0  0  0  0  0  0  0  0  0  0  0  0
  -22.3994  -33.6865   17.7301 C   0  0  0  0  0  0  0  0  0  0  0  0
  -28.0492  -13.3932   21.1844 C   0  0  0  0  0  0  0  0  0  0  0  0
  -27.6952  -20.0499   20.0368 C   0  0  0  0  0  0  0  0  0  0  0  0
  -28.3067  -15.9152   21.2029 C   0  0  0  0  0  0  0  0  0  0  0  0
  -28.4094  -18.7333   20.3524 C   0  0  0  0  0  0  0  0  0  0  0  0
  -29.3363  -18.6648   18.0580 C   0  0  0  0  0  0  0  0  0  0  0  0
  -26.6200  -14.8734   19.7232 C   0  0  0  0  0  0  0  0  0  0  0  0
  -28.7970  -23.7385   20.0348 C   0  0  0  0  0  0  0  0  0  0  0  0
  -30.4777  -23.1400   21.1217 C   0  0  0  0  0  0  0  0  0  0  0  0
  -22.9358  -32.2547   17.6124 C   0  0  1  0  0  0  0  0  0  0  0  0
  -23.6754  -30.9565   21.1053 C   0  0  1  0  0  0  0  0  0  0  0  0
  -28.3932  -20.8649   18.9331 C   0  0  2  0  0  0  0  0  0  0  0  0
  -28.6183  -19.9702   17.6890 C   0  0  1  0  0  0  0  0  0  0  0  0
  -29.6424  -24.4379   21.1202 C   0  0  0  0  0  0  0  0  0  0  0  0
  -27.3082  -13.5044   19.8401 C   0  0  2  0  0  0  0  0  0  0  0  0
  -29.3586  -20.6886   16.5607 C   0  0  0  0  0  0  0  0  0  0  0  0
  -26.7941  -32.0267   28.1147 C   0  0  0  0  0  0  0  0  0  0  0  0
  -31.5362  -25.9714   21.6640 C   0  0  0  0  0  0  0  0  0  0  0  0
  -26.4499  -34.5434   21.9977 C   0  0  0  0  0  0  0  0  0  0  0  0
  -27.5285  -34.5369   24.2570 C   0  0  0  0  0  0  0  0  0  0  0  0
  -25.1031  -35.0768   24.0363 C   0  0  0  0  0  0  0  0  0  0  0  0
  -25.3013  -28.7994   26.7613 C   0  0  0  0  0  0  0  0  0  0  0  0
  -29.6709  -21.5211   19.4702 C   0  0  0  0  0  0  0  0  0  0  0  0
  -29.4270  -26.9330   20.7016 C   0  0  0  0  0  0  0  0  0  1  0  0
  -25.8774  -32.6930   23.7047 C   0  0  1  0  0  0  0  0  0  0  0  0
  -25.9530  -31.1744   27.1772 C   0  0  2  0  0  0  0  0  0  0  0  0
  -30.3567  -25.7102   20.7165 C   0  0  2  0  0  0  0  0  0  0  0  0
  -26.2390  -34.1889   23.4832 C   0  0  0  0  0  0  0  0  0  0  0  0
  -25.7237  -11.8270   20.7103 N   0  0  0  0  0  0  0  0  0  0  0  0
  -26.3329  -12.3599   19.6374 N   0  0  0  0  0  0  0  0  0  0  0  0
  -24.7892  -31.2593   22.0064 N   0  0  0  0  0  0  0  0  0  0  0  0
  -27.5810  -15.9597   19.9257 N   0  0  0  0  0  0  0  0  0  0  0  0
  -28.6299  -17.9558   19.1260 N   0  0  0  0  0  0  0  0  0  0  0  0
  -26.4970  -12.1907   17.2805 N   0  0  0  0  0  0  0  0  0  0  0  0
  -23.5276   -8.9613   18.3527 N   0  0  0  0  0  0  0  0  0  0  0  0
  -22.9077  -31.5970   18.9012 N   0  0  0  0  0  0  0  0  0  0  0  0
  -25.6453  -32.3346   25.0998 N   0  0  0  0  0  0  0  0  0  0  0  0
  -29.2996  -22.4489   20.5551 N   0  3  0  0  0  0  0  0  0  0  0  0
  -26.0944  -29.7480   27.5848 N   0  3  0  0  0  0  0  0  0  0  0  0
  -24.6512   -9.9565   16.6189 O   0  0  0  0  0  0  0  0  0  0  0  0
  -24.9387  -32.3903   19.7186 O   0  0  0  0  0  0  0  0  0  0  0  0
  -23.5654  -32.8470   23.1971 O   0  0  0  0  0  0  0  0  0  0  0  0
  -27.2823  -30.6964   25.2171 O   0  0  0  0  0  0  0  0  0  0  0  0
  -27.7285  -16.4112   17.6703 O   0  0  0  0  0  0  0  0  0  0  0  0
  -21.7401   -7.7002   23.4761 O   0  0  0  0  0  0  0  0  0  0  0  0
  -28.3675  -26.7464   19.7723 O   0  0  0  0  0  0  0  0  0  1  0  0
  -21.7132   -2.2618   22.5668 F   0  0  0  0  0  0  0  0  0  0  0  0
  -20.9330   -6.6736   21.0395 F   0  0  0  0  0  0  0  0  0  0  0  0
  1  2  1  0  0  0  0
  1  5  2  0  0  0  0
  2  6  2  0  0  0  0
  3  8  2  0  0  0  0
  3 15  1  0  0  0  0
  4  9  1  0  0  0  0
  4 15  2  0  0  0  0
  5 17  1  0  0  0  0
  6 19  1  0  0  0  0
  7 10  2  0  0  0  0
  7 18  1  0  0  0  0
  8 21  1  0  0  0  0
  9 21  2  0  0  0  0
 10 22  1  0  0  0  0
 11 12  2  0  0  0  0
 11 23  1  0  0  0  0
 12 24  1  0  0  0  0
 13 20  1  0  0  0  0
 13 22  2  0  0  0  0
 14 24  2  0  0  0  0
 14 25  1  0  0  0  0
 15 26  1  0  0  0  0
 16 26  1  0  0  0  0
 16 27  2  0  0  0  0
 16 28  1  0  0  0  0
 17 19  2  0  0  0  0
 17 33  1  0  0  0  0
 18 20  2  0  0  0  0
 18 34  1  0  0  0  0
 19 47  1  0  0  0  0
 20 35  1  0  0  0  0
 21 82  1  0  0  0  0
 22 83  1  0  0  0  0
 23 25  2  0  0  0  0
 23 82  1  0  0  0  0
 24 84  1  0  0  0  0
 25 85  1  0  0  0  0
 26 66  2  0  0  0  0
 27 67  1  0  0  0  0
 27 71  1  0  0  0  0
 28 72  1  0  0  0  0
 28 77  2  0  0  0  0
 29 48  1  0  0  0  0
 29 73  1  0  0  0  0
 29 78  2  0  0  0  0
 30 62  1  0  0  0  0
 30 68  1  0  0  0  0
 30 79  2  0  0  0  0
 31 63  1  0  0  0  0
 31 74  1  0  0  0  0
 31 80  2  0  0  0  0
 32 69  1  0  0  0  0
 32 70  1  0  0  0  0
 32 81  2  0  0  0  0
 33 36  1  0  0  0  0
 34 48  1  0  0  0  0
 35 68  1  0  0  0  0
 36 38  1  0  0  0  0
 37 39  1  0  0  0  0
 37 41  1  0  0  0  0
 38 47  1  0  0  0  0
 39 52  1  0  0  0  0
 40 42  1  0  0  0  0
 40 49  1  0  0  0  0
 41 69  1  0  0  0  0
 42 70  1  0  0  0  0
 43 50  1  0  0  0  0
 43 70  1  0  0  0  0
 44 52  1  0  0  0  0
 44 69  1  0  0  0  0
 45 51  1  0  0  0  0
 45 75  1  0  0  0  0
 46 51  1  0  0  0  0
 46 75  1  0  0  0  0
 47 73  1  0  0  0  0
 48 68  1  0  0  0  0
 49 50  1  0  0  0  0
 49 60  1  0  0  0  0
 50 53  1  0  0  0  0
 51 64  1  0  0  0  0
 52 67  1  0  0  0  0
 54 63  1  0  0  0  0
 55 64  1  0  0  0  0
 56 65  1  0  0  0  0
 57 65  1  0  0  0  0
 58 65  1  0  0  0  0
 59 76  1  0  0  0  0
 60 75  1  0  0  0  0
 61 64  1  0  0  0  0
 61 83  1  0  0  0  0
 62 65  1  0  0  0  0
 62 74  1  0  0  0  0
 63 76  1  0  0  0  0
 66 67  1  0  0  0  0
M  CHG  2  75   1  76   1
M  ISO  4  32 100  61 101  70 100  83 101
M  END
> <Batch ID>
0145

> <Smiles>
CNC(C)C(=O)NC(C(=O)N1Cc2cc([101O:1][101CH2:1]C(C)C3CN(CC4CC[100N:0]([100C:0](=O)N5CCCC(n6nc(-c7ccc(Oc8ccc(F)cc8F)cc7)c(C(N)=O)c6N)C5)CC4C)C3)ccc2CC1C(=O)NC1CCCc2ccccc21)C(C)(C)C

> <Shape>
0.335

> <Color>
0.109

> <Negative vol penalty>
0.000

$$$$

  -OEChem-04052321283D

 86 95  0     1  0  0  0  0  0999 V2000
  -19.7823  -30.5374   21.9882 C   0  0  0  0  0  0  0  0  0  0  0  0
  -21.1404  -30.2377   21.9550 C   0  0  0  0  0  0  0  0  0  0  0  0
  -26.6002  -12.4132   20.3558 C   0  0  0  0  0  0  0  0  0  0  0  0
  -25.0917  -14.1379   19.5899 C   0  0  0  0  0  0  0  0  0  0  0  0
  -18.8505  -29.5220   22.1994 C   0  0  0  0  0  0  0  0  0  0  0  0
  -21.5676  -28.9225   22.1340 C   0  0  0  0  0  0  0  0  0  0  0  0
  -25.1301  -27.5661   18.8003 C   0  0  0  0  0  0  0  0  0  0  0  0
  -25.5498  -11.7961   21.0351 C   0  0  0  0  0  0  0  0  0  0  0  0
  -24.0412  -13.5208   20.2691 C   0  0  0  0  0  0  0  0  0  0  0  0
  -26.4289  -28.0129   19.0393 C   0  0  0  0  0  0  0  0  0  0  0  0
  -23.1901   -9.5688   22.6740 C   0  0  0  0  0  0  0  0  0  0  0  0
  -23.0667   -8.1844   22.5572 C   0  0  0  0  0  0  0  0  0  0  0  0
  -26.9945  -25.8567   19.9614 C   0  0  0  0  0  0  0  0  0  0  0  0
  -33.2113  -27.3253   19.0490 C   0  0  0  0  0  0  0  0  0  0  0  0
  -32.1997  -25.1445   18.8091 C   0  0  0  0  0  0  0  0  0  0  0  0
  -22.8067   -8.4092   20.1658 C   0  0  0  0  0  0  0  0  0  0  0  0
  -26.3712  -13.5841   19.6333 C   0  0  0  0  0  0  0  0  0  0  0  0
  -27.8637  -13.9899   17.6047 C   0  0  0  0  0  0  0  0  0  0  0  0
  -19.2659  -28.1921   22.3715 C   0  0  0  0  0  0  0  0  0  0  0  0
  -24.7500  -26.2625   19.1506 C   0  0  0  0  0  0  0  0  0  0  0  0
  -20.6406  -27.8885   22.3491 C   0  0  0  0  0  0  0  0  0  0  0  0
  -25.6910  -25.3949   19.7234 C   0  0  0  0  0  0  0  0  0  0  0  0
  -34.4058  -26.7272   19.4501 C   0  0  0  0  0  0  0  0  0  0  0  0
  -34.4973  -25.3377   19.5307 C   0  0  0  0  0  0  0  0  0  0  0  0
  -33.3943  -24.5463   19.2102 C   0  0  0  0  0  0  0  0  0  0  0  0
  -24.2703  -12.3498   20.9917 C   0  0  0  0  0  0  0  0  0  0  0  0
  -27.3606  -27.1591   19.6226 C   0  0  0  0  0  0  0  0  0  0  0  0
  -23.1216  -10.3735   21.5367 C   0  0  0  0  0  0  0  0  0  0  0  0
  -32.1082  -26.5340   18.7285 C   0  0  0  0  0  0  0  0  0  0  0  0
  -22.8751   -7.6045   21.3032 C   0  0  0  0  0  0  0  0  0  0  0  0
  -22.9300   -9.7937   20.2826 C   0  0  0  0  0  0  0  0  0  0  0  0
  -27.4560  -14.2224   18.9319 C   0  0  0  0  0  0  0  0  0  0  0  0
  -28.9274  -14.8387   17.4186 C   0  0  0  0  0  0  0  0  0  0  0  0
  -27.3288  -13.0874   16.6274 C   0  0  0  0  0  0  0  0  0  0  0  0
  -22.6147  -25.0074   21.1429 C   0  0  0  0  0  0  0  0  0  0  0  0
  -23.5596  -22.2196   19.7798 C   0  0  0  0  0  0  0  0  0  0  0  0
  -25.9787  -20.4839   18.1118 C   0  0  0  0  0  0  0  0  0  0  0  0
  -30.3079  -19.9566   20.1723 C   0  0  0  0  0  0  0  0  0  0  0  0
  -18.2245  -27.1358   22.6440 C   0  0  0  0  0  0  0  0  0  0  0  0
  -23.3525  -25.7872   18.8617 C   0  0  0  0  0  0  0  0  0  0  0  0
  -25.3389  -23.9796   20.0993 C   0  0  0  0  0  0  0  0  0  0  0  0
  -18.7373  -25.7109   22.4513 C   0  0  0  0  0  0  0  0  0  0  0  0
  -32.4548  -17.0061   19.8168 C   0  0  0  0  0  0  0  0  0  0  0  0
  -20.0927  -25.5352   23.1286 C   0  0  0  0  0  0  0  0  0  0  0  0
  -31.4341  -15.9303   19.4424 C   0  0  0  0  0  0  0  0  0  0  0  0
  -31.8511  -18.0177   20.7838 C   0  0  0  0  0  0  0  0  0  0  0  0
  -29.5848  -17.6084   19.9146 C   0  0  0  0  0  0  0  0  0  0  0  0
  -32.6576  -20.8213   19.4006 C   0  0  0  0  0  0  0  0  0  0  0  0
  -31.2749  -22.3150   20.0225 C   0  0  0  0  0  0  0  0  0  0  0  0
  -21.1416  -26.4701   22.5144 C   0  0  1  0  0  0  0  0  0  0  0  0
  -22.9318  -24.6056   19.7302 C   0  0  1  0  0  0  0  0  0  0  0  0
  -30.1257  -16.5578   18.9273 C   0  0  2  0  0  0  0  0  0  0  0  0
  -32.3938  -22.2723   18.9769 C   0  0  0  0  0  0  0  0  0  0  0  0
  -35.5716  -27.5977   19.7883 C   0  0  0  0  0  0  0  0  0  0  0  0
  -35.7807  -24.6998   19.9617 C   0  0  0  0  0  0  0  0  0  0  0  0
  -26.4773  -18.2129   17.1678 C   0  0  0  0  0  0  0  0  0  0  0  0
  -24.0941  -21.1697   22.5944 C   0  0  0  0  0  0  0  0  0  0  0  0
  -25.4471  -19.3264   21.5747 C   0  0  0  0  0  0  0  0  0  0  0  0
  -23.0155  -19.5215   21.0535 C   0  0  0  0  0  0  0  0  0  0  0  0
  -26.2367  -21.5547   15.3648 C   0  0  0  0  0  0  0  0  0  0  0  0
  -29.1525  -28.5806   18.9711 C   0  0  0  0  0  0  0  0  0  1  0  0
  -30.6556  -28.4122   18.8628 C   0  0  0  0  0  0  0  0  0  0  0  0
  -24.6323  -21.1976   20.0694 C   0  0  1  0  0  0  0  0  0  0  0  0
  -25.9149  -19.5966   16.8818 C   0  0  2  0  0  0  0  0  0  0  0  0
  -24.3037  -20.3311   21.3178 C   0  0  0  0  0  0  0  0  0  0  0  0
  -28.2000  -15.1464   19.5455 N   0  0  0  0  0  0  0  0  0  0  0  0
  -29.0861  -15.5020   18.5997 N   0  0  0  0  0  0  0  0  0  0  0  0
  -23.9581  -23.5637   19.8027 N   0  0  0  0  0  0  0  0  0  0  0  0
  -30.6207  -18.5961   20.2348 N   0  0  0  0  0  0  0  0  0  0  0  0
  -31.3366  -20.8548   20.0129 N   0  0  0  0  0  0  0  0  0  0  0  0
  -29.7331  -15.0750   16.3615 N   0  0  0  0  0  0  0  0  0  0  0  0
  -26.2345  -12.2879   16.9845 N   0  0  0  0  0  0  0  0  0  0  0  0
  -33.4663  -23.1511   19.2845 N   0  0  0  0  0  0  0  0  0  0  0  0
  -21.6061  -25.9461   21.2479 N   0  0  0  0  0  0  0  0  0  0  0  0
  -24.8091  -20.4320   18.8403 N   0  0  0  0  0  0  0  0  0  0  0  0
  -26.6972  -20.2005   15.7663 N   0  3  0  0  0  0  0  0  0  0  0  0
  -27.8174  -12.9810   15.4769 O   0  0  0  0  0  0  0  0  0  0  0  0
  -23.2380  -24.5021   22.0691 O   0  0  0  0  0  0  0  0  0  0  0  0
  -22.4120  -21.8391   19.5351 O   0  0  0  0  0  0  0  0  0  0  0  0
  -26.9685  -21.1532   18.3998 O   0  0  0  0  0  0  0  0  0  0  0  0
  -29.1383  -20.3597   20.2251 O   0  0  0  0  0  0  0  0  0  0  0  0
  -23.2450  -11.7478   21.6542 O   0  0  0  0  0  0  0  0  0  0  0  0
  -28.6375  -27.5958   19.8592 O   0  0  0  0  0  0  0  0  0  1  0  0
  -30.9429  -27.1177   18.3362 O   0  0  0  0  0  0  0  0  0  0  0  0
  -22.7582   -6.2749   21.1910 F   0  0  0  0  0  0  0  0  0  0  0  0
  -22.8646  -10.5616   19.1863 F   0  0  0  0  0  0  0  0  0  0  0  0
  1  2  1  0  0  0  0
  1  5  2  0  0  0  0
  2  6  2  0  0  0  0
  3  8  2  0  0  0  0
  3 17  1  0  0  0  0
  4  9  1  0  0  0  0
  4 17  2  0  0  0  0
  5 19  1  0  0  0  0
  6 21  1  0  0  0  0
  7 10  2  0  0  0  0
  7 20  1  0  0  0  0
  8 26  1  0  0  0  0
  9 26  2  0  0  0  0
 10 27  1  0  0  0  0
 11 12  2  0  0  0  0
 11 28  1  0  0  0  0
 12 30  1  0  0  0  0
 13 22  1  0  0  0  0
 13 27  2  0  0  0  0
 14 23  2  0  0  0  0
 14 29  1  0  0  0  0
 15 25  1  0  0  0  0
 15 29  2  0  0  0  0
 16 30  2  0  0  0  0
 16 31  1  0  0  0  0
 17 32  1  0  0  0  0
 18 32  1  0  0  0  0
 18 33  2  0  0  0  0
 18 34  1  0  0  0  0
 19 21  2  0  0  0  0
 19 39  1  0  0  0  0
 20 22  2  0  0  0  0
 20 40  1  0  0  0  0
 21 50  1  0  0  0  0
 22 41  1  0  0  0  0
 23 24  1  0  0  0  0
 23 54  1  0  0  0  0
 24 25  2  0  0  0  0
 24 55  1  0  0  0  0
 25 73  1  0  0  0  0
 26 82  1  0  0  0  0
 27 83  1  0  0  0  0
 28 31  2  0  0  0  0
 28 82  1  0  0  0  0
 29 84  1  0  0  0  0
 30 85  1  0  0  0  0
 31 86  1  0  0  0  0
 32 66  2  0  0  0  0
 33 67  1  0  0  0  0
 33 71  1  0  0  0  0
 34 72  1  0  0  0  0
 34 77  2  0  0  0  0
 35 51  1  0  0  0  0
 35 74  1  0  0  0  0
 35 78  2  0  0  0  0
 36 63  1  0  0  0  0
 36 68  1  0  0  0  0
 36 79  2  0  0  0  0
 37 64  1  0  0  0  0
 37 75  1  0  0  0  0
 37 80  2  0  0  0  0
 38 69  1  0  0  0  0
 38 70  1  0  0  0  0
 38 81  2  0  0  0  0
 39 42  1  0  0  0  0
 40 51  1  0  0  0  0
 41 68  1  0  0  0  0
 42 44  1  0  0  0  0
 43 45  1  0  0  0  0
 43 46  1  0  0  0  0
 44 50  1  0  0  0  0
 45 52  1  0  0  0  0
 46 69  1  0  0  0  0
 47 52  1  0  0  0  0
 47 69  1  0  0  0  0
 48 53  1  0  0  0  0
 48 70  1  0  0  0  0
 49 53  1  0  0  0  0
 49 70  1  0  0  0  0
 50 74  1  0  0  0  0
 51 68  1  0  0  0  0
 52 67  1  0  0  0  0
 53 73  1  0  0  0  0
 56 64  1  0  0  0  0
 57 65  1  0  0  0  0
 58 65  1  0  0  0  0
 59 65  1  0  0  0  0
 60 76  1  0  0  0  0
 61 62  1  0  0  0  0
 61 83  1  0  0  0  0
 62 84  1  0  0  0  0
 63 65  1  0  0  0  0
 63 75  1  0  0  0  0
 64 76  1  0  0  0  0
 66 67  1  0  0  0  0
M  CHG  1  76   1
M  ISO  4  38 100  61 101  70 100  83 101
M  END
> <Batch ID>
0145

> <Smiles>
CNC(C)C(=O)NC(C(=O)N1Cc2cc([101O:1][101CH2:1]COc3cc(C)c(C)c(NC4C[100N:0]([100C:0](=O)N5CCCC(n6nc(-c7ccc(Oc8ccc(F)cc8F)cc7)c(C(N)=O)c6N)C5)C4)c3)ccc2CC1C(=O)NC1CCCc2ccccc21)C(C)(C)C

> <Shape>
0.212

> <Color>
0.068

> <Negative vol penalty>
0.000

$$$$

  -OEChem-04052321283D

 89 98  0     1  0  0  0  0  0999 V2000
  -18.4052  -30.9306   25.9926 C   0  0  0  0  0  0  0  0  0  0  0  0
  -19.4917  -30.0990   26.2443 C   0  0  0  0  0  0  0  0  0  0  0  0
  -26.0167  -13.9118   21.0840 C   0  0  0  0  0  0  0  0  0  0  0  0
  -27.9176  -12.9256   19.9655 C   0  0  0  0  0  0  0  0  0  0  0  0
  -17.8564  -30.9906   24.7123 C   0  0  0  0  0  0  0  0  0  0  0  0
  -20.0294  -29.3259   25.2159 C   0  0  0  0  0  0  0  0  0  0  0  0
  -25.0905  -29.4693   25.1202 C   0  0  0  0  0  0  0  0  0  0  0  0
  -25.2088  -12.8692   20.6302 C   0  0  0  0  0  0  0  0  0  0  0  0
  -27.1097  -11.8830   19.5117 C   0  0  0  0  0  0  0  0  0  0  0  0
  -25.7675  -28.6855   26.0536 C   0  0  0  0  0  0  0  0  0  0  0  0
  -24.5966   -9.6493   21.4609 C   0  0  0  0  0  0  0  0  0  0  0  0
  -23.7218   -9.0621   22.3749 C   0  0  0  0  0  0  0  0  0  0  0  0
  -25.7710  -21.2064   19.8718 C   0  0  0  0  0  0  0  0  0  0  0  0
  -27.1185  -21.5760   21.8427 C   0  0  0  0  0  0  0  0  0  0  0  0
  -26.1516  -27.0111   24.3600 C   0  0  0  0  0  0  0  0  0  0  0  0
  -21.8484   -9.6869   20.9831 C   0  0  0  0  0  0  0  0  0  0  0  0
  -27.3711  -13.9400   20.7516 C   0  0  0  0  0  0  0  0  0  0  0  0
  -27.0195  -21.4018   20.4623 C   0  0  0  0  0  0  0  0  0  0  0  0
  -28.9381  -15.0647   22.4212 C   0  0  0  0  0  0  0  0  0  0  0  0
  -18.3938  -30.2251   23.6654 C   0  0  0  0  0  0  0  0  0  0  0  0
  -24.9293  -29.0242   23.8002 C   0  0  0  0  0  0  0  0  0  0  0  0
  -19.4865  -29.3746   23.9206 C   0  0  0  0  0  0  0  0  0  0  0  0
  -25.4744  -27.7923   23.4112 C   0  0  0  0  0  0  0  0  0  0  0  0
  -24.7204  -21.3594   22.0420 C   0  0  0  0  0  0  0  0  0  0  0  0
  -25.7553  -11.8549   19.8440 C   0  0  0  0  0  0  0  0  0  0  0  0
  -26.2956  -27.4549   25.6743 C   0  0  0  0  0  0  0  0  0  0  0  0
  -24.0974  -10.2554   20.3081 C   0  0  0  0  0  0  0  0  0  0  0  0
  -24.6215  -21.1852   20.6616 C   0  0  0  0  0  0  0  0  0  0  0  0
  -25.9689  -21.5548   22.6326 C   0  0  0  0  0  0  0  0  0  0  0  0
  -22.3477   -9.0809   22.1360 C   0  0  0  0  0  0  0  0  0  0  0  0
  -22.7232  -10.2742   20.0692 C   0  0  0  0  0  0  0  0  0  0  0  0
  -28.2061  -15.0170   21.2196 C   0  0  0  0  0  0  0  0  0  0  0  0
  -29.5597  -16.2892   22.3962 C   0  0  0  0  0  0  0  0  0  0  0  0
  -28.2299  -21.4260   19.6309 C   0  0  0  0  0  0  0  0  0  0  0  0
  -29.0465  -14.0892   23.4664 C   0  0  0  0  0  0  0  0  0  0  0  0
  -22.4354  -28.3232   21.9582 C   0  0  0  0  0  0  0  0  0  0  0  0
  -24.7113  -28.0019   19.6692 C   0  0  0  0  0  0  0  0  0  0  0  0
  -27.9805  -27.3973   18.8988 C   0  0  0  0  0  0  0  0  0  0  0  0
  -17.7369  -30.2875   22.3092 C   0  0  0  0  0  0  0  0  0  0  0  0
  -24.2197  -29.8935   22.7987 C   0  0  0  0  0  0  0  0  0  0  0  0
  -25.3462  -27.2782   22.0013 C   0  0  0  0  0  0  0  0  0  0  0  0
  -18.6016  -29.7190   21.1869 C   0  0  0  0  0  0  0  0  0  0  0  0
  -31.2676  -19.5712   19.3601 C   0  0  0  0  0  0  0  0  0  0  0  0
  -19.2025  -28.3799   21.6021 C   0  0  0  0  0  0  0  0  0  0  0  0
  -30.8924  -18.1902   19.9007 C   0  0  0  0  0  0  0  0  0  0  0  0
  -27.1061  -24.6075   27.9362 C   0  0  0  0  0  0  0  0  0  0  0  0
  -30.1129  -20.2082   18.5912 C   0  0  0  0  0  0  0  0  0  0  0  0
  -28.4643  -18.9007   19.8864 C   0  0  0  0  0  0  0  0  0  0  0  0
  -20.1133  -28.5394   22.8254 C   0  0  1  0  0  0  0  0  0  0  0  0
  -23.6680  -29.1097   21.6119 C   0  0  1  0  0  0  0  0  0  0  0  0
  -27.3175  -24.2281   26.4966 C   0  0  2  0  0  0  0  0  0  0  0  0
  -29.5840  -18.2453   20.7115 C   0  0  1  0  0  0  0  0  0  0  0  0
  -26.4254  -25.3893   26.8457 C   0  0  2  0  0  0  0  0  0  1  0  0
  -22.8330  -19.9376   22.8369 C   0  0  0  0  0  0  0  0  0  0  0  0
  -29.5316  -27.1608   16.9404 C   0  0  0  0  0  0  0  0  0  0  0  0
  -23.1096  -23.8591   22.6787 C   0  0  0  0  0  0  0  0  0  0  0  0
  -21.1958  -22.4321   23.3948 C   0  0  0  0  0  0  0  0  0  0  0  0
  -23.5833  -25.2216   19.1146 C   0  0  0  0  0  0  0  0  0  0  0  0
  -25.6931  -24.6888   17.8764 C   0  0  0  0  0  0  0  0  0  0  0  0
  -24.2052  -26.5218   17.0708 C   0  0  0  0  0  0  0  0  0  0  0  0
  -29.6365  -29.6840   19.7862 C   0  0  0  0  0  0  0  0  0  0  0  0
  -23.4028  -20.8241   18.6515 C   0  0  0  0  0  0  0  0  0  0  0  0
  -26.7309  -22.9686   25.9597 C   0  0  0  0  0  0  0  0  0  0  0  0
  -26.6587  -22.9515   24.4296 C   0  0  0  0  0  0  0  0  0  0  0  0
  -23.4882  -21.3368   22.8883 C   0  0  2  0  0  0  0  0  0  0  0  0
  -25.5722  -26.8670   19.1695 C   0  0  1  0  0  0  0  0  0  0  0  0
  -28.9458  -28.1131   17.9713 C   0  0  2  0  0  0  0  0  0  0  0  0
  -22.4646  -22.4726   22.5338 C   0  0  0  0  0  0  0  0  0  0  0  0
  -24.7644  -25.8333   18.3350 C   0  0  0  0  0  0  0  0  0  0  0  0
  -28.3484  -16.1233   20.4850 N   0  0  0  0  0  0  0  0  0  0  0  0
  -29.1769  -16.8777   21.2269 N   0  0  0  0  0  0  0  0  0  0  0  0
  -28.8955  -20.2195   19.4015 N   0  0  0  0  0  0  0  0  0  0  0  0
  -24.6383  -28.1618   21.0602 N   0  0  0  0  0  0  0  0  0  0  0  0
  -30.3909  -16.9091   23.2606 N   0  0  0  0  0  0  0  0  0  0  0  0
  -28.3419  -12.8851   23.3323 N   0  0  0  0  0  0  0  0  0  0  0  0
  -21.3919  -29.0936   22.4346 N   0  0  0  0  0  0  0  0  0  0  0  0
  -26.6804  -27.4826   18.4475 N   0  0  0  0  0  0  0  0  0  0  0  0
  -30.0672  -28.7095   18.7509 N   0  3  0  0  0  0  0  0  0  0  0  0
  -28.5747  -22.5272   19.2049 O   0  0  0  0  0  0  0  0  0  0  0  0
  -29.7343  -14.2865   24.4967 O   0  0  0  0  0  0  0  0  0  0  0  0
  -22.4310  -27.1076   21.8033 O   0  0  0  0  0  0  0  0  0  0  0  0
  -24.1309  -28.7244   18.8552 O   0  0  0  0  0  0  0  0  0  0  0  0
  -28.3439  -26.8171   19.9196 O   0  0  0  0  0  0  0  0  0  0  0  0
  -24.9673  -10.8373   19.4012 O   0  0  0  0  0  0  0  0  0  0  0  0
  -26.9562  -26.6876   26.5836 O   0  0  0  0  0  0  0  0  0  1  0  0
  -23.4102  -20.9934   20.0675 O   0  0  0  0  0  0  0  0  0  0  0  0
  -26.0852  -21.7291   23.9872 O   0  0  0  0  0  0  0  0  0  0  0  0
  -21.5078   -8.5156   23.0131 F   0  0  0  0  0  0  0  0  0  0  0  0
  -22.2378  -10.8539   18.9628 F   0  0  0  0  0  0  0  0  0  0  0  0
  1  2  1  0  0  0  0
  1  5  2  0  0  0  0
  2  6  2  0  0  0  0
  3  8  2  0  0  0  0
  3 17  1  0  0  0  0
  4  9  1  0  0  0  0
  4 17  2  0  0  0  0
  5 20  1  0  0  0  0
  6 22  1  0  0  0  0
  7 10  2  0  0  0  0
  7 21  1  0  0  0  0
  8 25  1  0  0  0  0
  9 25  2  0  0  0  0
 10 26  1  0  0  0  0
 11 12  2  0  0  0  0
 11 27  1  0  0  0  0
 12 30  1  0  0  0  0
 13 18  1  0  0  0  0
 13 28  2  0  0  0  0
 14 18  2  0  0  0  0
 14 29  1  0  0  0  0
 15 23  1  0  0  0  0
 15 26  2  0  0  0  0
 16 30  2  0  0  0  0
 16 31  1  0  0  0  0
 17 32  1  0  0  0  0
 18 34  1  0  0  0  0
 19 32  1  0  0  0  0
 19 33  2  0  0  0  0
 19 35  1  0  0  0  0
 20 22  2  0  0  0  0
 20 39  1  0  0  0  0
 21 23  2  0  0  0  0
 21 40  1  0  0  0  0
 22 49  1  0  0  0  0
 23 41  1  0  0  0  0
 24 28  1  0  0  0  0
 24 29  2  0  0  0  0
 24 65  1  0  0  0  0
 25 84  1  0  0  0  0
 26 85  1  0  0  0  0
 27 31  2  0  0  0  0
 27 84  1  0  0  0  0
 28 86  1  0  0  0  0
 29 87  1  0  0  0  0
 30 88  1  0  0  0  0
 31 89  1  0  0  0  0
 32 70  2  0  0  0  0
 33 71  1  0  0  0  0
 33 74  1  0  0  0  0
 34 72  1  0  0  0  0
 34 79  2  0  0  0  0
 35 75  1  0  0  0  0
 35 80  2  0  0  0  0
 36 50  1  0  0  0  0
 36 76  1  0  0  0  0
 36 81  2  0  0  0  0
 37 66  1  0  0  0  0
 37 73  1  0  0  0  0
 37 82  2  0  0  0  0
 38 67  1  0  0  0  0
 38 77  1  0  0  0  0
 38 83  2  0  0  0  0
 39 42  1  0  0  0  0
 40 50  1  0  0  0  0
 41 73  1  0  0  0  0
 42 44  1  0  0  0  0
 43 45  1  0  0  0  0
 43 47  1  0  0  0  0
 44 49  1  0  0  0  0
 45 52  1  0  0  0  0
 46 51  1  0  0  0  0
 46 53  1  0  0  0  0
 47 72  1  0  0  0  0
 48 52  1  0  0  0  0
 48 72  1  0  0  0  0
 49 76  1  0  0  0  0
 50 73  1  0  0  0  0
 51 53  1  0  0  0  0
 51 63  1  0  0  0  0
 52 71  1  0  0  0  0
 53 85  1  0  0  0  0
 54 65  1  0  0  0  0
 55 67  1  0  0  0  0
 56 68  1  0  0  0  0
 57 68  1  0  0  0  0
 58 69  1  0  0  0  0
 59 69  1  0  0  0  0
 60 69  1  0  0  0  0
 61 78  1  0  0  0  0
 62 86  1  0  0  0  0
 63 64  1  0  0  0  0
 64 87  1  0  0  0  0
 65 68  1  0  0  0  0
 66 69  1  0  0  0  0
 66 77  1  0  0  0  0
 67 78  1  0  0  0  0
 70 71  1  0  0  0  0
M  CHG  1  78   1
M  ISO  4  18 100  34 100  53 101  85 101
M  END
> <Batch ID>
0145

> <Smiles>
CNC(C)C(=O)NC(C(=O)N1Cc2cc([101O:1][101CH:1]3CC3CCOc3c[100c:0]([100C:0](=O)N4CCCC(n5nc(-c6ccc(Oc7ccc(F)cc7F)cc6)c(C(N)=O)c5N)C4)cc(OC)c3C(C)C(C)C)ccc2CC1C(=O)NC1CCCc2ccccc21)C(C)(C)C

> <Shape>
0.235

> <Color>
0.070

> <Negative vol penalty>
0.000

$$$$

  -OEChem-04052321283D

 90100  0     1  0  0  0  0  0999 V2000
  -22.7322  -21.1209   18.4665 C   0  0  0  0  0  0  0  0  0  0  0  0
  -23.9496  -21.6580   18.8726 C   0  0  0  0  0  0  0  0  0  0  0  0
  -23.4302   -9.9389   22.0196 C   0  0  0  0  0  0  0  0  0  0  0  0
  -24.1923  -11.3315   23.8409 C   0  0  0  0  0  0  0  0  0  0  0  0
  -21.8356  -21.9014   17.7379 C   0  0  0  0  0  0  0  0  0  0  0  0
  -24.2715  -22.9757   18.5494 C   0  0  0  0  0  0  0  0  0  0  0  0
  -26.2471  -25.5090   22.4641 C   0  0  0  0  0  0  0  0  0  0  0  0
  -22.8297   -9.0727   22.9332 C   0  0  0  0  0  0  0  0  0  0  0  0
  -23.5918  -10.4653   24.7545 C   0  0  0  0  0  0  0  0  0  0  0  0
  -27.5852  -25.2648   22.7704 C   0  0  0  0  0  0  0  0  0  0  0  0
  -21.4028   -6.3017   24.8065 C   0  0  0  0  0  0  0  0  0  0  0  0
  -21.5847   -4.9315   24.6194 C   0  0  0  0  0  0  0  0  0  0  0  0
  -32.2244  -19.1785   19.2535 C   0  0  0  0  0  0  0  0  0  0  0  0
  -30.2349  -19.7541   20.4973 C   0  0  0  0  0  0  0  0  0  0  0  0
  -28.2119  -27.2904   21.6200 C   0  0  0  0  0  0  0  0  0  0  0  0
  -23.9741   -5.2197   24.8314 C   0  0  0  0  0  0  0  0  0  0  0  0
  -24.1116  -11.0683   22.4734 C   0  0  0  0  0  0  0  0  0  0  0  0
  -24.1503  -13.0873   20.9146 C   0  0  0  0  0  0  0  0  0  0  0  0
  -22.1426  -23.2323   17.4140 C   0  0  0  0  0  0  0  0  0  0  0  0
  -25.8819  -26.6419   21.7227 C   0  0  0  0  0  0  0  0  0  0  0  0
  -23.3787  -23.7743   17.8147 C   0  0  0  0  0  0  0  0  0  0  0  0
  -31.4868  -20.1041   19.9914 C   0  0  0  0  0  0  0  0  0  0  0  0
  -26.8683  -27.5479   21.3077 C   0  0  0  0  0  0  0  0  0  0  0  0
  -31.7102  -17.9028   19.0212 C   0  0  0  0  0  0  0  0  0  0  0  0
  -29.7206  -18.4784   20.2650 C   0  0  0  0  0  0  0  0  0  0  0  0
  -30.4583  -17.5528   19.5270 C   0  0  0  0  0  0  0  0  0  0  0  0
  -22.9104   -9.3359   24.3006 C   0  0  0  0  0  0  0  0  0  0  0  0
  -28.5681  -26.1541   22.3459 C   0  0  0  0  0  0  0  0  0  0  0  0
  -22.5066   -7.1310   25.0060 C   0  0  0  0  0  0  0  0  0  0  0  0
  -22.8703   -4.3905   24.6319 C   0  0  0  0  0  0  0  0  0  0  0  0
  -23.7922   -6.5900   25.0185 C   0  0  0  0  0  0  0  0  0  0  0  0
  -24.7326  -11.9631   21.5302 C   0  0  0  0  0  0  0  0  0  0  0  0
  -25.1442  -13.5932   20.1130 C   0  0  0  0  0  0  0  0  0  0  0  0
  -22.8290  -13.6261   21.0550 C   0  0  0  0  0  0  0  0  0  0  0  0
  -24.4779  -27.1269   18.9125 C   0  0  0  0  0  0  0  0  0  0  0  0
  -24.5754  -30.2340   19.8392 C   0  0  0  0  0  0  0  0  0  0  0  0
  -26.0435  -32.6379   21.7660 C   0  0  0  0  0  0  0  0  0  0  0  0
  -30.6082  -15.0778   19.7361 C   0  0  0  0  0  0  0  0  0  0  0  0
  -21.1617  -24.0222   16.5840 C   0  0  0  0  0  0  0  0  0  0  0  0
  -24.4315  -26.9049   21.4234 C   0  0  0  0  0  0  0  0  0  0  0  0
  -26.5264  -28.7895   20.5266 C   0  0  0  0  0  0  0  0  0  0  0  0
  -21.4190  -25.5267   16.6050 C   0  0  0  0  0  0  0  0  0  0  0  0
  -29.6089  -11.6625   18.7591 C   0  0  0  0  0  0  0  0  0  0  0  0
  -22.9003  -25.8182   16.3866 C   0  0  0  0  0  0  0  0  0  0  0  0
  -28.2309  -11.5144   19.4021 C   0  0  0  0  0  0  0  0  0  0  0  0
  -28.8566  -16.6213   16.9663 C   0  0  0  0  0  0  0  0  0  0  0  0
  -28.8620  -15.1400   17.1993 C   0  0  0  0  0  0  0  0  0  0  0  0
  -31.1162  -22.5361   19.6237 C   0  0  0  0  0  0  0  0  0  0  0  0
  -32.2059  -21.7104   21.7492 C   0  0  0  0  0  0  0  0  0  0  0  0
  -30.5055  -12.6096   19.5511 C   0  0  0  0  0  0  0  0  0  0  0  0
  -28.5233  -13.8037   20.4304 C   0  0  0  0  0  0  0  0  0  0  0  0
  -31.6066  -23.9452   19.9312 C   0  0  0  0  0  0  0  0  0  0  0  0
  -32.6883  -23.1258   22.0402 C   0  0  0  0  0  0  0  0  0  0  0  0
  -32.0377  -21.4712   20.2401 C   0  0  0  0  0  0  0  0  0  0  0  0
  -23.7535  -25.2074   17.5048 C   0  0  1  0  0  0  0  0  0  0  0  0
  -24.2262  -27.8211   20.2211 C   0  0  1  0  0  0  0  0  0  0  0  0
  -27.5815  -12.8901   19.6314 C   0  0  2  0  0  0  0  0  0  0  0  0
  -28.7973  -16.0828   18.3695 C   0  0  0  0  0  0  0  0  0  0  0  0
  -32.5239  -16.9332   18.2265 C   0  0  0  0  0  0  0  0  0  0  0  0
  -28.3766  -18.1326   20.8202 C   0  0  0  0  0  0  0  0  0  0  0  0
  -25.9307  -35.0916   22.2797 C   0  0  0  0  0  0  0  0  0  0  0  0
  -25.9646  -30.8494   17.1932 C   0  0  0  0  0  0  0  0  0  0  0  0
  -26.6629  -33.0539   18.1525 C   0  0  0  0  0  0  0  0  0  0  0  0
  -24.2403  -32.5252   17.8806 C   0  0  0  0  0  0  0  0  0  0  0  0
  -25.4164  -32.1311   24.6136 C   0  0  0  0  0  0  0  0  0  0  0  0
  -32.0904  -25.5331   21.7910 C   0  0  0  0  0  0  0  0  0  0  0  0
  -30.8487  -26.3996   21.7178 C   0  0  0  0  0  0  0  0  0  1  0  0
  -25.5668  -31.3629   19.6920 C   0  0  1  0  0  0  0  0  0  0  0  0
  -25.4523  -33.7025   22.6724 C   0  0  2  0  0  0  0  0  0  0  0  0
  -25.6156  -31.9235   18.2426 C   0  0  0  0  0  0  0  0  0  0  0  0
  -25.9984  -11.7660   21.1519 N   0  0  0  0  0  0  0  0  0  0  0  0
  -26.2195  -12.7730   20.2900 N   0  0  0  0  0  0  0  0  0  0  0  0
  -25.0951  -28.9993   20.2534 N   0  0  0  0  0  0  0  0  0  0  0  0
  -29.8462  -13.8933   19.7938 N   0  0  0  0  0  0  0  0  0  0  0  0
  -25.1945  -14.6551   19.2810 N   0  0  0  0  0  0  0  0  0  0  0  0
  -21.9337  -12.9829   21.9205 N   0  0  0  0  0  0  0  0  0  0  0  0
  -23.6779  -26.0205   18.6997 N   0  0  0  0  0  0  0  0  0  0  0  0
  -25.2121  -32.3522   20.7038 N   0  0  0  0  0  0  0  0  0  0  0  0
  -29.9254  -16.2314   19.2867 N   0  0  0  0  0  0  0  0  0  0  0  0
  -31.7359  -24.1372   21.4305 N   0  3  0  0  0  0  0  0  0  0  0  0
  -25.8444  -33.4532   24.0884 N   0  3  0  0  0  0  0  0  0  0  0  0
  -22.4483  -14.6380   20.4189 O   0  0  0  0  0  0  0  0  0  0  0  0
  -25.3335  -27.5635   18.1517 O   0  0  0  0  0  0  0  0  0  0  0  0
  -23.3828  -30.4418   19.6025 O   0  0  0  0  0  0  0  0  0  0  0  0
  -27.1356  -32.1149   21.9770 O   0  0  0  0  0  0  0  0  0  0  0  0
  -31.8096  -15.0946   20.0289 O   0  0  0  0  0  0  0  0  0  0  0  0
  -22.3243   -8.4910   25.1924 O   0  0  0  0  0  0  0  0  0  0  0  0
  -29.8749  -25.9178   22.6430 O   0  0  0  0  0  0  0  0  0  1  0  0
  -23.0448   -3.0744   24.4538 F   0  0  0  0  0  0  0  0  0  0  0  0
  -24.8563   -7.3815   25.2108 F   0  0  0  0  0  0  0  0  0  0  0  0
  1  2  1  0  0  0  0
  1  5  2  0  0  0  0
  2  6  2  0  0  0  0
  3  8  2  0  0  0  0
  3 17  1  0  0  0  0
  4  9  1  0  0  0  0
  4 17  2  0  0  0  0
  5 19  1  0  0  0  0
  6 21  1  0  0  0  0
  7 10  2  0  0  0  0
  7 20  1  0  0  0  0
  8 27  1  0  0  0  0
  9 27  2  0  0  0  0
 10 28  1  0  0  0  0
 11 12  2  0  0  0  0
 11 29  1  0  0  0  0
 12 30  1  0  0  0  0
 13 22  1  0  0  0  0
 13 24  2  0  0  0  0
 14 22  2  0  0  0  0
 14 25  1  0  0  0  0
 15 23  1  0  0  0  0
 15 28  2  0  0  0  0
 16 30  2  0  0  0  0
 16 31  1  0  0  0  0
 17 32  1  0  0  0  0
 18 32  1  0  0  0  0
 18 33  2  0  0  0  0
 18 34  1  0  0  0  0
 19 21  2  0  0  0  0
 19 39  1  0  0  0  0
 20 23  2  0  0  0  0
 20 40  1  0  0  0  0
 21 55  1  0  0  0  0
 22 54  1  0  0  0  0
 23 41  1  0  0  0  0
 24 26  1  0  0  0  0
 24 59  1  0  0  0  0
 25 26  2  0  0  0  0
 25 60  1  0  0  0  0
 26 79  1  0  0  0  0
 27 87  1  0  0  0  0
 28 88  1  0  0  0  0
 29 31  2  0  0  0  0
 29 87  1  0  0  0  0
 30 89  1  0  0  0  0
 31 90  1  0  0  0  0
 32 71  2  0  0  0  0
 33 72  1  0  0  0  0
 33 75  1  0  0  0  0
 34 76  1  0  0  0  0
 34 82  2  0  0  0  0
 35 56  1  0  0  0  0
 35 77  1  0  0  0  0
 35 83  2  0  0  0  0
 36 68  1  0  0  0  0
 36 73  1  0  0  0  0
 36 84  2  0  0  0  0
 37 69  1  0  0  0  0
 37 78  1  0  0  0  0
 37 85  2  0  0  0  0
 38 74  1  0  0  0  0
 38 79  1  0  0  0  0
 38 86  2  0  0  0  0
 39 42  1  0  0  0  0
 40 56  1  0  0  0  0
 41 73  1  0  0  0  0
 42 44  1  0  0  0  0
 43 45  1  0  0  0  0
 43 50  1  0  0  0  0
 44 55  1  0  0  0  0
 45 57  1  0  0  0  0
 46 47  1  0  0  0  0
 46 58  1  0  0  0  0
 47 58  1  0  0  0  0
 48 52  1  0  0  0  0
 48 54  1  0  0  0  0
 49 53  1  0  0  0  0
 49 54  1  0  0  0  0
 50 74  1  0  0  0  0
 51 57  1  0  0  0  0
 51 74  1  0  0  0  0
 52 80  1  0  0  0  0
 53 80  1  0  0  0  0
 55 77  1  0  0  0  0
 56 73  1  0  0  0  0
 57 72  1  0  0  0  0
 58 79  1  0  0  0  0
 61 69  1  0  0  0  0
 62 70  1  0  0  0  0
 63 70  1  0  0  0  0
 64 70  1  0  0  0  0
 65 81  1  0  0  0  0
 66 67  1  0  0  0  0
 66 80  1  0  0  0  0
 67 88  1  0  0  0  0
 68 70  1  0  0  0  0
 68 78  1  0  0  0  0
 69 81  1  0  0  0  0
 71 72  1  0  0  0  0
M  CHG  2  80   1  81   1
M  ISO  4  38 100  67 101  79 100  88 101
M  END
> <Batch ID>
0145

> <Smiles>
CNC(C)C(=O)NC(C(=O)N1Cc2cc([101O:1][101CH2:1]CN3CCC(c4cc(C)c([100N:0](C5CC5)[100C:0](=O)N5CCCC(n6nc(-c7ccc(Oc8ccc(F)cc8F)cc7)c(C(N)=O)c6N)C5)c(C)c4)CC3)ccc2CC1C(=O)NC1CCCc2ccccc21)C(C)(C)C

> <Shape>
0.238

> <Color>
0.142

> <Negative vol penalty>
0.000

$$$$

  -OEChem-04052321283D

 84 93  0     1  0  0  0  0  0999 V2000
  -30.2942  -34.2963   15.3759 C   0  0  0  0  0  0  0  0  0  0  0  0
  -30.3873  -32.9198   15.5554 C   0  0  0  0  0  0  0  0  0  0  0  0
  -24.4030   -8.7442   21.4770 C   0  0  0  0  0  0  0  0  0  0  0  0
  -24.3271  -10.3013   23.3227 C   0  0  0  0  0  0  0  0  0  0  0  0
  -30.0489  -35.1257   16.4695 C   0  0  0  0  0  0  0  0  0  0  0  0
  -30.2362  -32.3721   16.8288 C   0  0  0  0  0  0  0  0  0  0  0  0
  -27.6718  -26.9932   18.2421 C   0  0  0  0  0  0  0  0  0  0  0  0
  -24.0562   -7.7045   22.3397 C   0  0  0  0  0  0  0  0  0  0  0  0
  -23.9802   -9.2616   24.1855 C   0  0  0  0  0  0  0  0  0  0  0  0
  -28.2146  -25.7393   18.5194 C   0  0  0  0  0  0  0  0  0  0  0  0
  -21.2521   -6.5189   23.8110 C   0  0  0  0  0  0  0  0  0  0  0  0
  -20.2715   -5.6231   23.3852 C   0  0  0  0  0  0  0  0  0  0  0  0
  -28.0885  -26.2138   20.8812 C   0  0  0  0  0  0  0  0  0  0  0  0
  -28.2996  -19.4525   21.6465 C   0  0  0  0  0  0  0  0  0  0  0  0
  -21.8539   -3.8062   23.5632 C   0  0  0  0  0  0  0  0  0  0  0  0
  -30.7970  -18.4814   21.1308 C   0  0  0  0  0  0  0  0  0  0  0  0
  -24.5385  -10.0426   21.9685 C   0  0  0  0  0  0  0  0  0  0  0  0
  -24.0228  -11.9423   20.3458 C   0  0  0  0  0  0  0  0  0  0  0  0
  -29.8851  -34.5870   17.7554 C   0  0  0  0  0  0  0  0  0  0  0  0
  -27.3428  -27.8726   19.2836 C   0  0  0  0  0  0  0  0  0  0  0  0
  -29.9898  -33.1952   17.9408 C   0  0  0  0  0  0  0  0  0  0  0  0
  -27.5392  -27.4773   20.6145 C   0  0  0  0  0  0  0  0  0  0  0  0
  -28.6826  -18.2316   22.1908 C   0  0  0  0  0  0  0  0  0  0  0  0
  -29.9533  -17.7298   21.9328 C   0  0  0  0  0  0  0  0  0  0  0  0
  -23.8448   -7.9632   23.6940 C   0  0  0  0  0  0  0  0  0  0  0  0
  -28.4257  -25.3506   19.8390 C   0  0  0  0  0  0  0  0  0  0  0  0
  -22.5338   -6.0584   24.1128 C   0  0  0  0  0  0  0  0  0  0  0  0
  -20.5723   -4.2667   23.2614 C   0  0  0  0  0  0  0  0  0  0  0  0
  -22.8347   -4.7021   23.9890 C   0  0  0  0  0  0  0  0  0  0  0  0
  -24.8973  -11.1169   21.0778 C   0  0  0  0  0  0  0  0  0  0  0  0
  -29.2174  -20.1271   20.8575 C   0  0  0  0  0  0  0  0  0  0  0  0
  -24.8508  -12.7970   19.6600 C   0  0  0  0  0  0  0  0  0  0  0  0
  -22.5901  -11.9369   20.2908 C   0  0  0  0  0  0  0  0  0  0  0  0
  -28.3142  -30.7677   20.1661 C   0  0  0  0  0  0  0  0  0  0  0  0
  -25.9181  -30.4844   22.3343 C   0  0  0  0  0  0  0  0  0  0  0  0
  -23.8811  -28.4347   24.1500 C   0  0  0  0  0  0  0  0  0  0  0  0
  -30.4202  -14.7553   20.6589 C   0  0  0  0  0  0  0  0  0  0  0  0
  -29.6685  -35.5275   18.9143 C   0  0  0  0  0  0  0  0  0  0  0  0
  -26.7333  -29.2111   18.9687 C   0  0  0  0  0  0  0  0  0  0  0  0
  -27.1840  -28.3763   21.7695 C   0  0  0  0  0  0  0  0  0  0  0  0
  -29.1480  -34.8354   20.1714 C   0  0  0  0  0  0  0  0  0  0  0  0
  -29.2383  -13.0456   17.7681 C   0  0  0  0  0  0  0  0  0  0  0  0
  -26.8584  -16.4163   22.4166 C   0  0  0  0  0  0  0  0  0  0  0  0
  -26.2419  -17.7066   22.8584 C   0  0  0  0  0  0  0  0  0  0  0  0
  -29.9470  -33.5667   20.4519 C   0  0  0  0  0  0  0  0  0  0  0  0
  -27.9128  -12.4319   18.2225 C   0  0  0  0  0  0  0  0  0  0  0  0
  -30.2792  -13.0315   18.8854 C   0  0  0  0  0  0  0  0  0  0  0  0
  -28.5131  -13.0358   20.6044 C   0  0  0  0  0  0  0  0  0  0  0  0
  -27.7185  -17.4797   23.0464 C   0  0  0  0  0  0  0  0  0  0  0  0
  -29.8070  -32.5611   19.3026 C   0  0  1  0  0  0  0  0  0  0  0  0
  -26.9136  -30.2287   20.0908 C   0  0  1  0  0  0  0  0  0  0  0  0
  -27.4142  -13.0784   19.5289 C   0  0  2  0  0  0  0  0  0  0  0  0
  -22.0497  -28.4937   25.8645 C   0  0  0  0  0  0  0  0  0  0  0  0
  -27.9683  -31.1346   24.4985 C   0  0  0  0  0  0  0  0  0  0  0  0
  -26.3501  -30.2593   26.1966 C   0  0  0  0  0  0  0  0  0  0  0  0
  -25.7446  -32.2376   24.8030 C   0  0  0  0  0  0  0  0  0  0  0  0
  -21.9770  -27.0830   22.3317 C   0  0  0  0  0  0  0  0  0  0  0  0
  -30.4173  -16.4292   22.4911 C   0  0  0  0  0  0  0  0  0  0  0  0
  -29.2729  -23.2933   18.9990 C   0  0  0  0  0  0  0  0  0  1  0  0
  -29.8418  -21.9830   19.5079 C   0  0  0  0  0  0  0  0  0  0  0  0
  -25.8063  -29.9446   23.7397 C   0  0  1  0  0  0  0  0  0  0  0  0
  -22.3809  -28.4530   24.3808 C   0  0  2  0  0  0  0  0  0  0  0  0
  -26.4759  -30.8776   24.7879 C   0  0  0  0  0  0  0  0  0  0  0  0
  -30.4605  -19.6713   20.5846 N   0  0  0  0  0  0  0  0  0  0  0  0
  -26.1824  -11.4198   20.8758 N   0  0  0  0  0  0  0  0  0  0  0  0
  -26.1215  -12.4450   20.0090 N   0  0  0  0  0  0  0  0  0  0  0  0
  -26.5967  -29.6776   21.4099 N   0  0  0  0  0  0  0  0  0  0  0  0
  -29.7441  -13.6606   20.0953 N   0  0  0  0  0  0  0  0  0  0  0  0
  -24.6087  -13.8076   18.7984 N   0  0  0  0  0  0  0  0  0  0  0  0
  -21.8955  -10.9920   21.0583 N   0  0  0  0  0  0  0  0  0  0  0  0
  -28.5314  -31.8817   19.3780 N   0  0  0  0  0  0  0  0  0  0  0  0
  -24.3862  -29.7055   23.9734 N   0  0  0  0  0  0  0  0  0  0  0  0
  -29.8423  -15.2962   21.8008 N   0  0  0  0  0  0  0  0  0  0  0  0
  -21.7513  -27.2373   23.7919 N   0  3  0  0  0  0  0  0  0  0  0  0
  -21.9455  -12.7354   19.5694 O   0  0  0  0  0  0  0  0  0  0  0  0
  -29.1364  -30.2146   20.8871 O   0  0  0  0  0  0  0  0  0  0  0  0
  -25.4154  -31.5781   22.0648 O   0  0  0  0  0  0  0  0  0  0  0  0
  -24.5397  -27.3972   24.1321 O   0  0  0  0  0  0  0  0  0  0  0  0
  -31.4589  -15.2198   20.1767 O   0  0  0  0  0  0  0  0  0  0  0  0
  -23.5061   -6.9490   24.5361 O   0  0  0  0  0  0  0  0  0  0  0  0
  -28.9560  -24.1275   20.1125 O   0  0  0  0  0  0  0  0  0  1  0  0
  -28.8636  -21.3319   20.3094 O   0  0  0  0  0  0  0  0  0  0  0  0
  -19.6300   -3.4063   22.8540 F   0  0  0  0  0  0  0  0  0  0  0  0
  -24.0638   -4.2535   24.2786 F   0  0  0  0  0  0  0  0  0  0  0  0
  1  2  1  0  0  0  0
  1  5  2  0  0  0  0
  2  6  2  0  0  0  0
  3  8  2  0  0  0  0
  3 17  1  0  0  0  0
  4  9  1  0  0  0  0
  4 17  2  0  0  0  0
  5 19  1  0  0  0  0
  6 21  1  0  0  0  0
  7 10  2  0  0  0  0
  7 20  1  0  0  0  0
  8 25  1  0  0  0  0
  9 25  2  0  0  0  0
 10 26  1  0  0  0  0
 11 12  2  0  0  0  0
 11 27  1  0  0  0  0
 12 28  1  0  0  0  0
 13 22  1  0  0  0  0
 13 26  2  0  0  0  0
 14 23  2  0  0  0  0
 14 31  1  0  0  0  0
 15 28  2  0  0  0  0
 15 29  1  0  0  0  0
 16 24  2  0  0  0  0
 16 64  1  0  0  0  0
 17 30  1  0  0  0  0
 18 30  1  0  0  0  0
 18 32  2  0  0  0  0
 18 33  1  0  0  0  0
 19 21  2  0  0  0  0
 19 38  1  0  0  0  0
 20 22  2  0  0  0  0
 20 39  1  0  0  0  0
 21 50  1  0  0  0  0
 22 40  1  0  0  0  0
 23 24  1  0  0  0  0
 23 49  1  0  0  0  0
 24 58  1  0  0  0  0
 25 80  1  0  0  0  0
 26 81  1  0  0  0  0
 27 29  2  0  0  0  0
 27 80  1  0  0  0  0
 28 83  1  0  0  0  0
 29 84  1  0  0  0  0
 30 65  2  0  0  0  0
 31 64  2  0  0  0  0
 31 82  1  0  0  0  0
 32 66  1  0  0  0  0
 32 69  1  0  0  0  0
 33 70  1  0  0  0  0
 33 75  2  0  0  0  0
 34 51  1  0  0  0  0
 34 71  1  0  0  0  0
 34 76  2  0  0  0  0
 35 61  1  0  0  0  0
 35 67  1  0  0  0  0
 35 77  2  0  0  0  0
 36 62  1  0  0  0  0
 36 72  1  0  0  0  0
 36 78  2  0  0  0  0
 37 68  1  0  0  0  0
 37 73  1  0  0  0  0
 37 79  2  0  0  0  0
 38 41  1  0  0  0  0
 39 51  1  0  0  0  0
 40 67  1  0  0  0  0
 41 45  1  0  0  0  0
 42 46  1  0  0  0  0
 42 47  1  0  0  0  0
 43 44  1  0  0  0  0
 43 49  1  0  0  0  0
 44 49  1  0  0  0  0
 45 50  1  0  0  0  0
 46 52  1  0  0  0  0
 47 68  1  0  0  0  0
 48 52  1  0  0  0  0
 48 68  1  0  0  0  0
 50 71  1  0  0  0  0
 51 67  1  0  0  0  0
 52 66  1  0  0  0  0
 53 62  1  0  0  0  0
 54 63  1  0  0  0  0
 55 63  1  0  0  0  0
 56 63  1  0  0  0  0
 57 74  1  0  0  0  0
 58 73  1  0  0  0  0
 59 60  1  0  0  0  0
 59 81  1  0  0  0  0
 60 82  1  0  0  0  0
 61 63  1  0  0  0  0
 61 72  1  0  0  0  0
 62 74  1  0  0  0  0
 65 66  1  0  0  0  0
M  CHG  1  74   1
M  ISO  4  37 100  59 101  73 100  81 101
M  END
> <Batch ID>
0145

> <Smiles>
CNC(C)C(=O)NC(C(=O)N1Cc2cc([101O:1][101CH2:1]COc3cc(C4CC4)c(C[100NH:0][100C:0](=O)N4CCCC(n5nc(-c6ccc(Oc7ccc(F)cc7F)cc6)c(C(N)=O)c5N)C4)cn3)ccc2CC1C(=O)NC1CCCc2ccccc21)C(C)(C)C

> <Shape>
0.300

> <Color>
0.107

> <Negative vol penalty>
0.000

$$$$

  -OEChem-04052321283D

 94105  0     1  0  0  0  0  0999 V2000
  -25.4719  -21.5591   40.0702 C   0  0  0  0  0  0  0  0  0  0  0  0
  -26.0245  -20.3130   39.7919 C   0  0  0  0  0  0  0  0  0  0  0  0
  -23.0752   -9.8681   19.9404 C   0  0  0  0  0  0  0  0  0  0  0  0
  -23.8343   -9.8749   22.2340 C   0  0  0  0  0  0  0  0  0  0  0  0
  -24.6719  -22.1933   39.1207 C   0  0  0  0  0  0  0  0  0  0  0  0
  -25.7764  -19.7000   38.5643 C   0  0  0  0  0  0  0  0  0  0  0  0
  -31.1833  -17.9054   34.1556 C   0  0  0  0  0  0  0  0  0  0  0  0
  -22.3312   -8.7149   20.1900 C   0  0  0  0  0  0  0  0  0  0  0  0
  -23.0902   -8.7218   22.4837 C   0  0  0  0  0  0  0  0  0  0  0  0
  -32.1735  -17.3412   33.3511 C   0  0  0  0  0  0  0  0  0  0  0  0
  -19.8618   -7.9241   23.0851 C   0  0  0  0  0  0  0  0  0  0  0  0
  -19.1045   -7.8841   24.2557 C   0  0  0  0  0  0  0  0  0  0  0  0
  -30.4914  -16.6098   31.7752 C   0  0  0  0  0  0  0  0  0  0  0  0
  -20.3455   -5.9466   24.9925 C   0  0  0  0  0  0  0  0  0  0  0  0
  -23.8268  -10.4480   20.9624 C   0  0  0  0  0  0  0  0  0  0  0  0
  -24.1688  -12.9732   20.8426 C   0  0  0  0  0  0  0  0  0  0  0  0
  -24.4217  -21.5921   37.8771 C   0  0  0  0  0  0  0  0  0  0  0  0
  -29.8431  -17.8374   33.7648 C   0  0  0  0  0  0  0  0  0  0  0  0
  -24.9712  -20.3262   37.5978 C   0  0  0  0  0  0  0  0  0  0  0  0
  -29.4963  -17.1841   32.5707 C   0  0  0  0  0  0  0  0  0  0  0  0
  -22.3387   -8.1418   21.4617 C   0  0  0  0  0  0  0  0  0  0  0  0
  -31.8283  -16.6948   32.1639 C   0  0  0  0  0  0  0  0  0  0  0  0
  -20.8610   -6.9752   22.8681 C   0  0  0  0  0  0  0  0  0  0  0  0
  -19.3463   -6.8954   25.2094 C   0  0  0  0  0  0  0  0  0  0  0  0
  -21.1029   -5.9866   23.8218 C   0  0  0  0  0  0  0  0  0  0  0  0
  -24.5960  -11.6389   20.7050 C   0  0  0  0  0  0  0  0  0  0  0  0
  -25.2611  -13.7226   20.4797 C   0  0  0  0  0  0  0  0  0  0  0  0
  -22.8982  -13.4890   21.2611 C   0  0  0  0  0  0  0  0  0  0  0  0
  -26.2784  -18.7115   34.5422 C   0  0  0  0  0  0  0  0  0  0  0  0
  -26.6614  -19.1300   31.5275 C   0  0  0  0  0  0  0  0  0  0  0  0
  -27.6082  -19.8674   28.3342 C   0  0  0  0  0  0  0  0  0  0  0  0
  -30.7376  -14.7517   20.6526 C   0  0  0  0  0  0  0  0  0  0  0  0
  -23.5120  -22.2950   36.9009 C   0  0  0  0  0  0  0  0  0  0  0  0
  -28.7375  -18.3773   34.6307 C   0  0  0  0  0  0  0  0  0  0  0  0
  -28.0387  -17.1049   32.2075 C   0  0  0  0  0  0  0  0  0  0  0  0
  -23.6041  -21.7466   35.4792 C   0  0  0  0  0  0  0  0  0  0  0  0
  -27.6896  -19.3144   19.9627 C   0  0  0  0  0  0  0  0  0  0  0  0
  -29.0243  -19.1642   19.2393 C   0  0  0  0  0  0  0  0  0  0  0  0
  -27.8806  -19.4480   21.4703 C   0  0  0  0  0  0  0  0  0  0  0  0
  -29.6101  -12.3565   18.2853 C   0  0  0  0  0  0  0  0  0  0  0  0
  -23.5581  -20.2219   35.4912 C   0  0  0  0  0  0  0  0  0  0  0  0
  -29.8443  -18.0067   19.8045 C   0  0  0  0  0  0  0  0  0  0  0  0
  -28.6988  -18.2912   22.0393 C   0  0  0  0  0  0  0  0  0  0  0  0
  -35.8756  -15.6286   25.2488 C   0  0  0  0  0  0  0  0  0  0  0  0
  -35.2035  -15.3759   23.9281 C   0  0  0  0  0  0  0  0  0  0  0  0
  -33.4838  -16.8478   27.7527 C   0  0  0  0  0  0  0  0  0  0  0  0
  -32.4329  -14.5593   27.9854 C   0  0  0  0  0  0  0  0  0  0  0  0
  -28.1715  -12.0640   18.7149 C   0  0  0  0  0  0  0  0  0  0  0  0
  -33.6180  -16.9363   29.2699 C   0  0  0  0  0  0  0  0  0  0  0  0
  -32.5694  -14.6544   29.5021 C   0  0  0  0  0  0  0  0  0  0  0  0
  -30.7451  -15.0025   25.5694 C   0  0  0  0  0  0  0  0  0  0  0  0
  -30.5243  -12.5778   19.4885 C   0  0  0  0  0  0  0  0  0  0  0  0
  -28.6215  -13.3088   20.8709 C   0  0  0  0  0  0  0  0  0  0  0  0
  -30.7903  -14.7238   24.0647 C   0  0  0  0  0  0  0  0  0  0  0  0
  -24.7454  -19.6402   36.2679 C   0  0  1  0  0  0  0  0  0  0  0  0
  -27.5688  -18.9659   33.8201 C   0  0  1  0  0  0  0  0  0  0  0  0
  -34.4490  -16.0543   25.0377 C   0  0  0  0  0  0  0  0  0  0  0  0
  -33.5045  -15.3916   27.2676 C   0  0  0  0  0  0  0  0  0  0  0  0
  -30.0461  -18.1423   21.3199 C   0  0  0  0  0  0  0  0  0  0  0  0
  -27.6487  -13.1344   19.6920 C   0  0  2  0  0  0  0  0  0  0  0  0
  -32.5530  -16.1048   29.9800 C   0  0  0  0  0  0  0  0  0  1  0  0
  -31.9679  -15.9108   25.3574 C   0  0  1  0  0  0  0  0  0  0  0  0
  -26.7034  -20.7449   26.1643 C   0  0  0  0  0  0  0  0  0  0  0  0
  -31.9047  -18.2661   23.7833 C   0  0  0  0  0  0  0  0  0  0  0  0
  -25.3171  -16.4422   31.0053 C   0  0  0  0  0  0  0  0  0  0  0  0
  -25.2806  -17.0142   28.5682 C   0  0  0  0  0  0  0  0  0  0  0  0
  -24.0285  -18.4278   30.1981 C   0  0  0  0  0  0  0  0  0  0  0  0
  -29.4536  -22.1810   28.3666 C   0  0  0  0  0  0  0  0  0  0  0  0
  -26.5538  -18.5389   30.1446 C   0  0  1  0  0  0  0  0  0  0  0  0
  -27.3854  -21.0999   27.4764 C   0  0  2  0  0  0  0  0  0  0  0  0
  -33.3145  -15.3249   25.7534 C   0  0  1  0  0  0  0  0  0  0  0  0
  -30.8222  -16.9471   21.8698 C   0  0  1  0  0  0  0  0  0  0  0  0
  -31.0632  -17.0572   23.3875 C   0  0  1  0  0  0  0  0  0  0  0  0
  -25.3195  -17.6055   29.9935 C   0  0  0  0  0  0  0  0  0  0  0  0
  -25.8610  -11.5430   20.2871 N   0  0  0  0  0  0  0  0  0  0  0  0
  -26.2380  -12.8266   20.1590 N   0  0  0  0  0  0  0  0  0  0  0  0
  -27.3834  -18.3947   32.4753 N   0  0  0  0  0  0  0  0  0  0  0  0
  -29.9722  -13.6092   20.3706 N   0  0  0  0  0  0  0  0  0  0  0  0
  -25.4716  -15.0541   20.4068 N   0  0  0  0  0  0  0  0  0  0  0  0
  -21.8861  -12.5799   21.5980 N   0  0  0  0  0  0  0  0  0  0  0  0
  -25.9474  -19.6869   35.4633 N   0  0  0  0  0  0  0  0  0  0  0  0
  -26.5686  -19.6648   29.2170 N   0  0  0  0  0  0  0  0  0  0  0  0
  -30.1441  -15.6907   21.4899 N   0  0  0  0  0  0  0  0  0  0  0  0
  -31.7437  -15.8368   23.8942 N   0  3  2  0  0  0  0  0  0  0  0  0
  -28.6863  -21.7577   27.1670 N   0  3  0  0  0  0  0  0  0  0  0  0
  -22.6619  -14.7197   21.3184 O   0  0  0  0  0  0  0  0  0  0  0  0
  -25.6289  -17.7053   34.2825 O   0  0  0  0  0  0  0  0  0  0  0  0
  -26.1161  -20.2115   31.7652 O   0  0  0  0  0  0  0  0  0  0  0  0
  -28.6031  -19.1535   28.2289 O   0  0  0  0  0  0  0  0  0  0  0  0
  -31.8683  -14.9330   20.1879 O   0  0  0  0  0  0  0  0  0  0  0  0
  -21.6126   -7.0167   21.7057 O   0  0  0  0  0  0  0  0  0  0  0  0
  -32.8004  -16.1501   31.3810 O   0  0  0  0  0  0  0  0  0  1  0  0
  -18.6200   -6.8581   26.3343 F   0  0  0  0  0  0  0  0  0  0  0  0
  -22.0622   -5.0730   23.6195 F   0  0  0  0  0  0  0  0  0  0  0  0
  1  2  1  0  0  0  0
  1  5  2  0  0  0  0
  2  6  2  0  0  0  0
  3  8  2  0  0  0  0
  3 15  1  0  0  0  0
  4  9  1  0  0  0  0
  4 15  2  0  0  0  0
  5 17  1  0  0  0  0
  6 19  1  0  0  0  0
  7 10  2  0  0  0  0
  7 18  1  0  0  0  0
  8 21  1  0  0  0  0
  9 21  2  0  0  0  0
 10 22  1  0  0  0  0
 11 12  2  0  0  0  0
 11 23  1  0  0  0  0
 12 24  1  0  0  0  0
 13 20  1  0  0  0  0
 13 22  2  0  0  0  0
 14 24  2  0  0  0  0
 14 25  1  0  0  0  0
 15 26  1  0  0  0  0
 16 26  1  0  0  0  0
 16 27  2  0  0  0  0
 16 28  1  0  0  0  0
 17 19  2  0  0  0  0
 17 33  1  0  0  0  0
 18 20  2  0  0  0  0
 18 34  1  0  0  0  0
 19 55  1  0  0  0  0
 20 35  1  0  0  0  0
 21 91  1  0  0  0  0
 22 92  1  0  0  0  0
 23 25  2  0  0  0  0
 23 91  1  0  0  0  0
 24 93  1  0  0  0  0
 25 94  1  0  0  0  0
 26 75  2  0  0  0  0
 27 76  1  0  0  0  0
 27 79  1  0  0  0  0
 28 80  1  0  0  0  0
 28 86  2  0  0  0  0
 29 56  1  0  0  0  0
 29 81  1  0  0  0  0
 29 87  2  0  0  0  0
 30 69  1  0  0  0  0
 30 77  1  0  0  0  0
 30 88  2  0  0  0  0
 31 70  1  0  0  0  0
 31 82  1  0  0  0  0
 31 89  2  0  0  0  0
 32 78  1  0  0  0  0
 32 83  1  0  0  0  0
 32 90  2  0  0  0  0
 33 36  1  0  0  0  0
 34 56  1  0  0  0  0
 35 77  1  0  0  0  0
 36 41  1  0  0  0  0
 37 38  1  0  0  0  0
 37 39  1  0  0  0  0
 38 42  1  0  0  0  0
 39 43  1  0  0  0  0
 40 48  1  0  0  0  0
 40 52  1  0  0  0  0
 41 55  1  0  0  0  0
 42 59  1  0  0  0  0
 43 59  1  0  0  0  0
 44 45  1  0  0  0  0
 44 57  1  0  0  0  0
 45 57  1  0  0  0  0
 46 49  1  0  0  0  0
 46 58  1  0  0  0  0
 47 50  1  0  0  0  0
 47 58  1  0  0  0  0
 48 60  1  0  0  0  0
 49 61  1  0  0  0  0
 50 61  1  0  0  0  0
 51 54  1  0  0  0  0
 51 62  1  0  0  0  0
 52 78  1  0  0  0  0
 53 60  1  0  0  0  0
 53 78  1  0  0  0  0
 54 84  1  0  0  0  0
 55 81  1  0  0  0  0
 56 77  1  0  0  0  0
 57 71  1  0  0  0  0
 58 71  1  0  0  0  0
 59 72  1  0  0  0  0
 60 76  1  0  0  0  0
 61 92  1  0  0  0  0
 62 71  1  0  0  0  0
 62 84  1  0  0  0  0
 63 70  1  0  0  0  0
 64 73  1  0  0  0  0
 65 74  1  0  0  0  0
 66 74  1  0  0  0  0
 67 74  1  0  0  0  0
 68 85  1  0  0  0  0
 69 74  1  0  0  0  0
 69 82  1  0  0  0  0
 70 85  1  0  0  0  0
 72 73  1  0  0  0  0
 72 83  1  0  0  0  0
 73 84  1  0  0  0  0
 75 76  1  0  0  0  0
M  CHG  2  84   1  85   1
M  ISO  4  32 100  61 101  83 100  92 101
M  END
> <Batch ID>
0145

> <Smiles>
CNC(C)C(=O)NC(C(=O)N1Cc2cc([101O:1][101CH:1]3CCC(C(C4CC4)C4CCN4C(C)C([100NH:0][100C:0](=O)N4CCCC(n5nc(-c6ccc(Oc7ccc(F)cc7F)cc6)c(C(N)=O)c5N)C4)C4CCCCC4)CC3)ccc2CC1C(=O)NC1CCCc2ccccc21)C(C)(C)C

> <Shape>
0.191

> <Color>
0.184

> <Negative vol penalty>
0.000

$$$$

  -OEChem-04052321283D

 89 98  0     1  0  0  0  0  0999 V2000
  -14.8490  -27.2166   16.5776 C   0  0  0  0  0  0  0  0  0  0  0  0
  -15.3697  -26.0925   17.2107 C   0  0  0  0  0  0  0  0  0  0  0  0
  -23.0769   -9.8650   19.9482 C   0  0  0  0  0  0  0  0  0  0  0  0
  -23.8307   -9.8886   22.2435 C   0  0  0  0  0  0  0  0  0  0  0  0
  -15.4470  -28.4617   16.7672 C   0  0  0  0  0  0  0  0  0  0  0  0
  -16.4894  -26.2128   18.0330 C   0  0  0  0  0  0  0  0  0  0  0  0
  -17.6720  -23.0321   23.1311 C   0  0  0  0  0  0  0  0  0  0  0  0
  -25.6379  -18.1394   23.5189 C   0  0  0  0  0  0  0  0  0  0  0  0
  -22.3329   -8.7134   20.2044 C   0  0  0  0  0  0  0  0  0  0  0  0
  -23.0866   -8.7370   22.4997 C   0  0  0  0  0  0  0  0  0  0  0  0
  -18.4681  -21.9140   23.3756 C   0  0  0  0  0  0  0  0  0  0  0  0
  -24.3050  -18.3779   23.1845 C   0  0  0  0  0  0  0  0  0  0  0  0
  -19.8571   -7.9421   23.0993 C   0  0  0  0  0  0  0  0  0  0  0  0
  -19.0971   -7.9101   24.2684 C   0  0  0  0  0  0  0  0  0  0  0  0
  -20.2698  -23.3573   24.0757 C   0  0  0  0  0  0  0  0  0  0  0  0
  -24.8060  -20.7186   22.8572 C   0  0  0  0  0  0  0  0  0  0  0  0
  -20.3373   -5.9785   25.0219 C   0  0  0  0  0  0  0  0  0  0  0  0
  -23.8259  -10.4526   20.9678 C   0  0  0  0  0  0  0  0  0  0  0  0
  -24.1670  -12.9770   20.8307 C   0  0  0  0  0  0  0  0  0  0  0  0
  -16.5688  -28.5989   17.5999 C   0  0  0  0  0  0  0  0  0  0  0  0
  -18.1734  -24.3238   23.3471 C   0  0  0  0  0  0  0  0  0  0  0  0
  -17.1038  -27.4607   18.2328 C   0  0  0  0  0  0  0  0  0  0  0  0
  -26.5549  -19.1905   23.5226 C   0  0  0  0  0  0  0  0  0  0  0  0
  -19.4771  -24.4901   23.8356 C   0  0  0  0  0  0  0  0  0  0  0  0
  -22.3376   -8.1493   21.4801 C   0  0  0  0  0  0  0  0  0  0  0  0
  -19.7682  -22.0766   23.8452 C   0  0  0  0  0  0  0  0  0  0  0  0
  -23.8890  -19.6675   22.8535 C   0  0  0  0  0  0  0  0  0  0  0  0
  -20.8572   -6.9922   22.8914 C   0  0  0  0  0  0  0  0  0  0  0  0
  -26.1389  -20.4801   23.1917 C   0  0  0  0  0  0  0  0  0  0  0  0
  -19.3371   -6.9284   25.2297 C   0  0  0  0  0  0  0  0  0  0  0  0
  -21.0973   -6.0104   23.8527 C   0  0  0  0  0  0  0  0  0  0  0  0
  -24.5952  -11.6420   20.7036 C   0  0  0  0  0  0  0  0  0  0  0  0
  -25.2598  -13.7244   20.4650 C   0  0  0  0  0  0  0  0  0  0  0  0
  -22.8952  -13.4953   21.2426 C   0  0  0  0  0  0  0  0  0  0  0  0
  -18.7094  -26.8589   21.5059 C   0  0  0  0  0  0  0  0  0  0  0  0
  -19.4053  -28.2811   24.3370 C   0  0  0  0  0  0  0  0  0  0  0  0
  -20.4003  -27.9396   27.5835 C   0  0  0  0  0  0  0  0  0  0  0  0
  -30.7426  -14.7471   20.6608 C   0  0  0  0  0  0  0  0  0  0  0  0
  -17.2094  -29.9574   17.7367 C   0  0  0  0  0  0  0  0  0  0  0  0
  -17.2929  -25.5188   23.1039 C   0  0  0  0  0  0  0  0  0  0  0  0
  -20.0558  -25.8547   24.1030 C   0  0  0  0  0  0  0  0  0  0  0  0
  -18.1670  -30.0628   18.9209 C   0  0  0  0  0  0  0  0  0  0  0  0
  -29.6124  -12.3452   18.2880 C   0  0  0  0  0  0  0  0  0  0  0  0
  -19.0959  -28.8537   18.9656 C   0  0  0  0  0  0  0  0  0  0  0  0
  -28.1739  -12.0539   18.7192 C   0  0  0  0  0  0  0  0  0  0  0  0
  -30.5262  -12.5749   19.4897 C   0  0  0  0  0  0  0  0  0  0  0  0
  -28.6205  -13.3150   20.8660 C   0  0  0  0  0  0  0  0  0  0  0  0
  -28.3663  -18.1411   25.2190 C   0  0  0  0  0  0  0  0  0  0  0  0
  -28.0654  -18.9026   23.9049 C   0  0  1  0  0  0  0  0  0  0  0  0
  -18.3023  -27.5549   19.1520 C   0  0  1  0  0  0  0  0  0  0  0  0
  -18.0809  -26.8039   22.8696 C   0  0  1  0  0  0  0  0  0  0  0  0
  -27.6495  -13.1316   19.6871 C   0  0  2  0  0  0  0  0  0  0  0  0
  -28.8139  -17.7188   23.2290 C   0  0  1  0  0  0  0  0  0  0  0  0
  -20.9151  -29.2854   29.6381 C   0  0  0  0  0  0  0  0  0  0  0  0
  -29.0604  -18.3486   20.8295 C   0  0  0  0  0  0  0  0  0  0  0  0
  -22.0763  -29.1136   23.1194 C   0  0  0  0  0  0  0  0  0  0  0  0
  -22.9032  -29.5912   25.4338 C   0  0  0  0  0  0  0  0  0  0  0  0
  -20.9713  -30.8725   24.5122 C   0  0  0  0  0  0  0  0  0  0  0  0
  -18.2563  -26.6113   29.1321 C   0  0  0  0  0  0  0  0  0  0  0  0
  -26.5150  -22.8020   22.8411 C   0  0  0  0  0  0  0  0  0  0  0  0
  -30.8043  -16.9064   21.8825 C   0  0  0  0  0  0  0  0  0  0  0  0
  -20.3100  -19.8302   23.2828 C   0  0  0  0  0  0  0  0  0  1  0  0
  -21.6066  -19.0589   23.1299 C   0  0  0  0  0  0  0  0  0  0  0  0
  -20.6530  -28.4520   25.1694 C   0  0  1  0  0  0  0  0  0  0  0  0
  -19.8472  -28.5194   28.8729 C   0  0  2  0  0  0  0  0  0  0  0  0
  -29.8095  -18.0501   22.1363 C   0  0  2  0  0  0  0  0  0  0  0  0
  -21.6410  -29.4815   24.5519 C   0  0  0  0  0  0  0  0  0  0  0  0
  -25.8612  -11.5437   20.2894 N   0  0  0  0  0  0  0  0  0  0  0  0
  -26.2379  -12.8265   20.1530 N   0  0  0  0  0  0  0  0  0  0  0  0
  -19.1577  -26.9922   23.8439 N   0  0  0  0  0  0  0  0  0  0  0  0
  -29.9729  -13.6095   20.3669 N   0  0  0  0  0  0  0  0  0  0  0  0
  -25.4699  -15.0554   20.3831 N   0  0  0  0  0  0  0  0  0  0  0  0
  -21.8827  -12.5881   21.5836 N   0  0  0  0  0  0  0  0  0  0  0  0
  -17.8948  -27.4054   20.5326 N   0  0  0  0  0  0  0  0  0  0  0  0
  -20.2027  -28.7890   26.5155 N   0  0  0  0  0  0  0  0  0  0  0  0
  -30.1408  -15.6816   21.4946 N   0  0  0  0  0  0  0  0  0  0  0  0
  -29.4731  -17.4634   24.5272 N   0  3  0  0  0  0  0  0  0  0  0  0
  -19.3299  -27.4313   29.7501 N   0  3  0  0  0  0  0  0  0  0  0  0
  -22.6583  -14.7261   21.2905 O   0  0  0  0  0  0  0  0  0  0  0  0
  -19.8495  -26.4380   21.3486 O   0  0  0  0  0  0  0  0  0  0  0  0
  -18.6733  -29.2539   24.1378 O   0  0  0  0  0  0  0  0  0  0  0  0
  -20.9556  -26.8445   27.5299 O   0  0  0  0  0  0  0  0  0  0  0  0
  -31.8797  -14.9198   20.2090 O   0  0  0  0  0  0  0  0  0  0  0  0
  -21.6115   -7.0257   21.7305 O   0  0  0  0  0  0  0  0  0  0  0  0
  -27.0233  -21.5163   23.1914 O   0  0  0  0  0  0  0  0  0  0  0  0
  -20.5475  -20.9869   24.0841 O   0  0  0  0  0  0  0  0  0  1  0  0
  -22.5797  -19.9015   22.5245 O   0  0  0  0  0  0  0  0  0  0  0  0
  -18.6082   -6.8988   26.3531 F   0  0  0  0  0  0  0  0  0  0  0  0
  -22.0576   -5.0959   23.6592 F   0  0  0  0  0  0  0  0  0  0  0  0
  1  2  1  0  0  0  0
  1  5  2  0  0  0  0
  2  6  2  0  0  0  0
  3  9  2  0  0  0  0
  3 18  1  0  0  0  0
  4 10  1  0  0  0  0
  4 18  2  0  0  0  0
  5 20  1  0  0  0  0
  6 22  1  0  0  0  0
  7 11  2  0  0  0  0
  7 21  1  0  0  0  0
  8 12  2  0  0  0  0
  8 23  1  0  0  0  0
  9 25  1  0  0  0  0
 10 25  2  0  0  0  0
 11 26  1  0  0  0  0
 12 27  1  0  0  0  0
 13 14  2  0  0  0  0
 13 28  1  0  0  0  0
 14 30  1  0  0  0  0
 15 24  1  0  0  0  0
 15 26  2  0  0  0  0
 16 27  2  0  0  0  0
 16 29  1  0  0  0  0
 17 30  2  0  0  0  0
 17 31  1  0  0  0  0
 18 32  1  0  0  0  0
 19 32  1  0  0  0  0
 19 33  2  0  0  0  0
 19 34  1  0  0  0  0
 20 22  2  0  0  0  0
 20 39  1  0  0  0  0
 21 24  2  0  0  0  0
 21 40  1  0  0  0  0
 22 50  1  0  0  0  0
 23 29  2  0  0  0  0
 23 49  1  0  0  0  0
 24 41  1  0  0  0  0
 25 84  1  0  0  0  0
 26 86  1  0  0  0  0
 27 87  1  0  0  0  0
 28 31  2  0  0  0  0
 28 84  1  0  0  0  0
 29 85  1  0  0  0  0
 30 88  1  0  0  0  0
 31 89  1  0  0  0  0
 32 68  2  0  0  0  0
 33 69  1  0  0  0  0
 33 72  1  0  0  0  0
 34 73  1  0  0  0  0
 34 79  2  0  0  0  0
 35 51  1  0  0  0  0
 35 74  1  0  0  0  0
 35 80  2  0  0  0  0
 36 64  1  0  0  0  0
 36 70  1  0  0  0  0
 36 81  2  0  0  0  0
 37 65  1  0  0  0  0
 37 75  1  0  0  0  0
 37 82  2  0  0  0  0
 38 71  1  0  0  0  0
 38 76  1  0  0  0  0
 38 83  2  0  0  0  0
 39 42  1  0  0  0  0
 40 51  1  0  0  0  0
 41 70  1  0  0  0  0
 42 44  1  0  0  0  0
 43 45  1  0  0  0  0
 43 46  1  0  0  0  0
 44 50  1  0  0  0  0
 45 52  1  0  0  0  0
 46 71  1  0  0  0  0
 47 52  1  0  0  0  0
 47 71  1  0  0  0  0
 48 49  1  0  0  0  0
 48 77  1  0  0  0  0
 49 53  1  0  0  0  0
 50 74  1  0  0  0  0
 51 70  1  0  0  0  0
 52 69  1  0  0  0  0
 53 66  1  0  0  0  0
 53 77  1  0  0  0  0
 54 65  1  0  0  0  0
 55 66  1  0  0  0  0
 56 67  1  0  0  0  0
 57 67  1  0  0  0  0
 58 67  1  0  0  0  0
 59 78  1  0  0  0  0
 60 85  1  0  0  0  0
 61 66  1  0  0  0  0
 61 76  1  0  0  0  0
 62 63  1  0  0  0  0
 62 86  1  0  0  0  0
 63 87  1  0  0  0  0
 64 67  1  0  0  0  0
 64 75  1  0  0  0  0
 65 78  1  0  0  0  0
 68 69  1  0  0  0  0
M  CHG  2  77   1  78   1
M  ISO  4  38 100  62 101  76 100  86 101
M  END
> <Batch ID>
0145

> <Smiles>
CNC(C)C(=O)NC(C(=O)N1Cc2cc([101O:1][101CH2:1]COc3ccc(C4CNC4C(C)C[100NH:0][100C:0](=O)N4CCCC(n5nc(-c6ccc(Oc7ccc(F)cc7F)cc6)c(C(N)=O)c5N)C4)c(OC)c3)ccc2CC1C(=O)NC1CCCc2ccccc21)C(C)(C)C

> <Shape>
0.231

> <Color>
0.177

> <Negative vol penalty>
0.000

$$$$

  -OEChem-04052321283D

 85 94  0     1  0  0  0  0  0999 V2000
  -29.5329  -25.7305   16.6180 C   0  0  0  0  0  0  0  0  0  0  0  0
  -28.1589  -25.9386   16.6822 C   0  0  0  0  0  0  0  0  0  0  0  0
  -26.1659  -14.5455   19.0956 C   0  0  0  0  0  0  0  0  0  0  0  0
  -24.7052  -14.7616   21.0078 C   0  0  0  0  0  0  0  0  0  0  0  0
  -30.3208  -25.9303   17.7508 C   0  0  0  0  0  0  0  0  0  0  0  0
  -27.5717  -26.3456   17.8797 C   0  0  0  0  0  0  0  0  0  0  0  0
  -22.7705  -30.0897   18.5399 C   0  0  0  0  0  0  0  0  0  0  0  0
  -26.3061  -13.1825   19.3567 C   0  0  0  0  0  0  0  0  0  0  0  0
  -24.8453  -13.3986   21.2689 C   0  0  0  0  0  0  0  0  0  0  0  0
  -21.4149  -29.8472   18.7577 C   0  0  0  0  0  0  0  0  0  0  0  0
  -24.5303   -9.9057   22.2273 C   0  0  0  0  0  0  0  0  0  0  0  0
  -23.3781   -9.1814   22.5330 C   0  0  0  0  0  0  0  0  0  0  0  0
  -21.7473  -30.1518   21.1275 C   0  0  0  0  0  0  0  0  0  0  0  0
  -21.5150  -25.4508   21.0166 C   0  0  0  0  0  0  0  0  0  0  0  0
  -22.4399   -9.7674   20.3851 C   0  0  0  0  0  0  0  0  0  0  0  0
  -20.1248  -25.8445   22.9058 C   0  0  0  0  0  0  0  0  0  0  0  0
  -25.3655  -15.3351   19.9212 C   0  0  0  0  0  0  0  0  0  0  0  0
  -24.2489  -17.3582   18.8406 C   0  0  0  0  0  0  0  0  0  0  0  0
  -29.7443  -26.3493   18.9602 C   0  0  0  0  0  0  0  0  0  0  0  0
  -23.6282  -30.3547   19.6173 C   0  0  0  0  0  0  0  0  0  0  0  0
  -28.3525  -26.5499   19.0302 C   0  0  0  0  0  0  0  0  0  0  0  0
  -23.1128  -30.3998   20.9205 C   0  0  0  0  0  0  0  0  0  0  0  0
  -22.5382  -25.0849   21.8840 C   0  0  0  0  0  0  0  0  0  0  0  0
  -25.6458  -12.6091   20.4433 C   0  0  0  0  0  0  0  0  0  0  0  0
  -20.9037  -29.8754   20.0518 C   0  0  0  0  0  0  0  0  0  0  0  0
  -24.6373  -10.5610   21.0005 C   0  0  0  0  0  0  0  0  0  0  0  0
  -20.2822  -25.8391   21.5292 C   0  0  0  0  0  0  0  0  0  0  0  0
  -22.3329   -9.1122   21.6119 C   0  0  0  0  0  0  0  0  0  0  0  0
  -23.5921  -10.4918   20.0794 C   0  0  0  0  0  0  0  0  0  0  0  0
  -25.2208  -16.7433   19.6524 C   0  0  0  0  0  0  0  0  0  0  0  0
  -22.2799  -25.1242   23.2447 C   0  0  0  0  0  0  0  0  0  0  0  0
  -24.5397  -18.6987   18.9124 C   0  0  0  0  0  0  0  0  0  0  0  0
  -23.1787  -16.7704   18.0890 C   0  0  0  0  0  0  0  0  0  0  0  0
  -25.8847  -23.1784   21.9845 C   0  0  0  0  0  0  0  0  0  0  0  0
  -26.1891  -28.9302   20.8487 C   0  0  0  0  0  0  0  0  0  0  0  0
  -26.2724  -31.5720   22.7291 C   0  0  0  0  0  0  0  0  0  0  0  0
  -24.5809  -34.1793   24.1388 C   0  0  0  0  0  0  0  0  0  0  0  0
  -30.6302  -26.5066   20.1706 C   0  0  0  0  0  0  0  0  0  0  0  0
  -25.0829  -30.6405   19.3630 C   0  0  0  0  0  0  0  0  0  0  0  0
  -23.9877  -30.6997   22.1093 C   0  0  0  0  0  0  0  0  0  0  0  0
  -29.9810  -27.2999   21.3017 C   0  0  0  0  0  0  0  0  0  0  0  0
  -28.5623  -21.1095   20.7877 C   0  0  0  0  0  0  0  0  0  0  0  0
  -28.5569  -26.8118   21.5472 C   0  0  0  0  0  0  0  0  0  0  0  0
  -27.8554  -19.8275   20.3494 C   0  0  0  0  0  0  0  0  0  0  0  0
  -23.9280  -23.5518   20.3370 C   0  0  0  0  0  0  0  0  0  0  0  0
  -27.8903  -21.7279   22.0096 C   0  0  0  0  0  0  0  0  0  0  0  0
  -25.7194  -20.7108   21.3901 C   0  0  0  0  0  0  0  0  0  0  0  0
  -23.8633  -24.6668   21.3473 C   0  0  2  0  0  0  0  0  0  0  0  0
  -27.6819  -27.0155   20.3044 C   0  0  1  0  0  0  0  0  0  0  0  0
  -24.4171  -23.3129   21.7358 C   0  0  2  0  0  0  0  0  0  0  0  0
  -25.9629  -30.3919   20.5841 C   0  0  1  0  0  0  0  0  0  0  0  0
  -26.3500  -20.0702   20.1411 C   0  0  2  0  0  0  0  0  0  0  0  0
  -24.9095  -36.1498   25.6575 C   0  0  0  0  0  0  0  0  0  0  0  0
  -26.3317  -29.7016   25.1391 C   0  0  0  0  0  0  0  0  0  0  0  0
  -25.7053  -31.6512   26.5797 C   0  0  0  0  0  0  0  0  0  0  0  0
  -27.8549  -31.6774   25.3143 C   0  0  0  0  0  0  0  0  0  0  0  0
  -23.7836  -36.0897   22.0237 C   0  0  0  0  0  0  0  0  0  0  0  0
  -22.9280  -24.8326   25.5143 C   0  0  0  0  0  0  0  0  0  0  0  0
  -17.8042  -28.0189   20.0624 C   0  0  0  0  0  0  0  0  0  0  0  0
  -18.9193  -28.7682   19.3500 C   0  0  0  0  0  0  0  0  0  1  0  0
  -18.3326  -27.1609   21.2013 C   0  0  0  0  0  0  0  0  0  0  0  0
  -25.6761  -31.9547   24.0621 C   0  0  1  0  0  0  0  0  0  0  0  0
  -24.8988  -35.6616   24.2173 C   0  0  2  0  0  0  0  0  0  0  0  0
  -26.3756  -31.2386   25.2518 C   0  0  0  0  0  0  0  0  0  0  0  0
  -21.0953  -25.4958   23.7799 N   0  0  0  0  0  0  0  0  0  0  0  0
  -26.0660  -17.6209   20.1995 N   0  0  0  0  0  0  0  0  0  0  0  0
  -25.6261  -18.8011   19.7306 N   0  0  0  0  0  0  0  0  0  0  0  0
  -26.4573  -21.9183   21.7833 N   0  0  0  0  0  0  0  0  0  0  0  0
  -25.4043  -30.9662   21.8098 N   0  0  0  0  0  0  0  0  0  0  0  0
  -23.9697  -19.7879   18.3547 N   0  0  0  0  0  0  0  0  0  0  0  0
  -23.0224  -15.3781   18.1260 N   0  0  0  0  0  0  0  0  0  0  0  0
  -27.2824  -28.4017   20.1893 N   0  0  0  0  0  0  0  0  0  0  0  0
  -25.7259  -33.4112   24.1286 N   0  0  0  0  0  0  0  0  0  0  0  0
  -23.8845  -36.4497   23.4615 N   0  3  0  0  0  0  0  0  0  0  0  0
  -22.3947  -17.4579   17.3917 O   0  0  0  0  0  0  0  0  0  0  0  0
  -26.4999  -24.1774   22.3478 O   0  0  0  0  0  0  0  0  0  0  0  0
  -25.4289  -28.3269   21.5968 O   0  0  0  0  0  0  0  0  0  0  0  0
  -27.4629  -31.8086   22.5089 O   0  0  0  0  0  0  0  0  0  0  0  0
  -23.4316  -33.7460   24.0951 O   0  0  0  0  0  0  0  0  0  0  0  0
  -25.7821  -11.2790   20.6982 O   0  0  0  0  0  0  0  0  0  0  0  0
  -19.5810  -29.6384   20.2672 O   0  0  0  0  0  0  0  0  0  1  0  0
  -19.2565  -26.2059   20.6973 O   0  0  0  0  0  0  0  0  0  0  0  0
  -23.2617  -24.7690   24.1330 O   0  0  0  0  0  0  0  0  0  0  0  0
  -21.2272   -8.4153   21.9049 F   0  0  0  0  0  0  0  0  0  0  0  0
  -23.6895  -11.1182   18.8988 F   0  0  0  0  0  0  0  0  0  0  0  0
  1  2  1  0  0  0  0
  1  5  2  0  0  0  0
  2  6  2  0  0  0  0
  3  8  2  0  0  0  0
  3 17  1  0  0  0  0
  4  9  1  0  0  0  0
  4 17  2  0  0  0  0
  5 19  1  0  0  0  0
  6 21  1  0  0  0  0
  7 10  2  0  0  0  0
  7 20  1  0  0  0  0
  8 24  1  0  0  0  0
  9 24  2  0  0  0  0
 10 25  1  0  0  0  0
 11 12  2  0  0  0  0
 11 26  1  0  0  0  0
 12 28  1  0  0  0  0
 13 22  1  0  0  0  0
 13 25  2  0  0  0  0
 14 23  1  0  0  0  0
 14 27  2  0  0  0  0
 15 28  2  0  0  0  0
 15 29  1  0  0  0  0
 16 27  1  0  0  0  0
 16 65  2  0  0  0  0
 17 30  1  0  0  0  0
 18 30  1  0  0  0  0
 18 32  2  0  0  0  0
 18 33  1  0  0  0  0
 19 21  2  0  0  0  0
 19 38  1  0  0  0  0
 20 22  2  0  0  0  0
 20 39  1  0  0  0  0
 21 49  1  0  0  0  0
 22 40  1  0  0  0  0
 23 31  2  0  0  0  0
 23 48  1  0  0  0  0
 24 80  1  0  0  0  0
 25 81  1  0  0  0  0
 26 29  2  0  0  0  0
 26 80  1  0  0  0  0
 27 82  1  0  0  0  0
 28 84  1  0  0  0  0
 29 85  1  0  0  0  0
 30 66  2  0  0  0  0
 31 65  1  0  0  0  0
 31 83  1  0  0  0  0
 32 67  1  0  0  0  0
 32 70  1  0  0  0  0
 33 71  1  0  0  0  0
 33 75  2  0  0  0  0
 34 50  1  0  0  0  0
 34 68  1  0  0  0  0
 34 76  2  0  0  0  0
 35 51  1  0  0  0  0
 35 72  1  0  0  0  0
 35 77  2  0  0  0  0
 36 62  1  0  0  0  0
 36 69  1  0  0  0  0
 36 78  2  0  0  0  0
 37 63  1  0  0  0  0
 37 73  1  0  0  0  0
 37 79  2  0  0  0  0
 38 41  1  0  0  0  0
 39 51  1  0  0  0  0
 40 69  1  0  0  0  0
 41 43  1  0  0  0  0
 42 44  1  0  0  0  0
 42 46  1  0  0  0  0
 43 49  1  0  0  0  0
 44 52  1  0  0  0  0
 45 48  1  0  0  0  0
 45 50  1  0  0  0  0
 46 68  1  0  0  0  0
 47 52  1  0  0  0  0
 47 68  1  0  0  0  0
 48 50  1  0  0  0  0
 49 72  1  0  0  0  0
 51 69  1  0  0  0  0
 52 67  1  0  0  0  0
 53 63  1  0  0  0  0
 54 64  1  0  0  0  0
 55 64  1  0  0  0  0
 56 64  1  0  0  0  0
 57 74  1  0  0  0  0
 58 83  1  0  0  0  0
 59 60  1  0  0  0  0
 59 61  1  0  0  0  0
 60 81  1  0  0  0  0
 61 82  1  0  0  0  0
 62 64  1  0  0  0  0
 62 73  1  0  0  0  0
 63 74  1  0  0  0  0
 66 67  1  0  0  0  0
M  CHG  1  74   1
M  ISO  4  34 100  50 100  60 101  81 101
M  END
> <Batch ID>
0145

> <Smiles>
CNC(C)C(=O)NC(C(=O)N1Cc2cc([101O:1][101CH2:1]CCOc3cnc(OC)c(C4C[100CH:0]4[100C:0](=O)N4CCCC(n5nc(-c6ccc(Oc7ccc(F)cc7F)cc6)c(C(N)=O)c5N)C4)c3)ccc2CC1C(=O)NC1CCCc2ccccc21)C(C)(C)C

> <Shape>
0.308

> <Color>
0.077

> <Negative vol penalty>
0.000

$$$$

  -OEChem-04052321283D

 85 94  0     1  0  0  0  0  0999 V2000
  -28.8261  -23.6678   26.2902 C   0  0  0  0  0  0  0  0  0  0  0  0
  -29.3185  -23.3049   25.0407 C   0  0  0  0  0  0  0  0  0  0  0  0
  -23.1293   -9.7721   19.9834 C   0  0  0  0  0  0  0  0  0  0  0  0
  -23.8434   -9.8907   22.2885 C   0  0  0  0  0  0  0  0  0  0  0  0
  -28.0128  -24.7931   26.4178 C   0  0  0  0  0  0  0  0  0  0  0  0
  -28.9970  -24.0666   23.9178 C   0  0  0  0  0  0  0  0  0  0  0  0
  -33.0085  -24.9499   20.9560 C   0  0  0  0  0  0  0  0  0  0  0  0
  -22.4113   -8.6100   20.2656 C   0  0  0  0  0  0  0  0  0  0  0  0
  -23.1253   -8.7287   22.5707 C   0  0  0  0  0  0  0  0  0  0  0  0
  -33.4262  -23.9124   20.1237 C   0  0  0  0  0  0  0  0  0  0  0  0
  -19.4570   -7.7920   21.6925 C   0  0  0  0  0  0  0  0  0  0  0  0
  -18.1617   -7.6911   21.1852 C   0  0  0  0  0  0  0  0  0  0  0  0
  -32.2912  -24.9530   18.2668 C   0  0  0  0  0  0  0  0  0  0  0  0
  -31.3061  -18.6373   19.8564 C   0  0  0  0  0  0  0  0  0  0  0  0
  -18.7984   -5.7130   19.9528 C   0  0  0  0  0  0  0  0  0  0  0  0
  -29.3355  -19.7047   19.6380 C   0  0  0  0  0  0  0  0  0  0  0  0
  -23.8454  -10.4125   20.9949 C   0  0  0  0  0  0  0  0  0  0  0  0
  -24.1229  -12.9392   20.7798 C   0  0  0  0  0  0  0  0  0  0  0  0
  -27.6891  -25.5745   25.2974 C   0  0  0  0  0  0  0  0  0  0  0  0
  -32.2185  -25.9929   20.4515 C   0  0  0  0  0  0  0  0  0  0  0  0
  -28.1775  -25.2026   24.0303 C   0  0  0  0  0  0  0  0  0  0  0  0
  -31.8669  -26.0039   19.0942 C   0  0  0  0  0  0  0  0  0  0  0  0
  -22.4093   -8.0883   21.5593 C   0  0  0  0  0  0  0  0  0  0  0  0
  -33.0652  -23.9123   18.7796 C   0  0  0  0  0  0  0  0  0  0  0  0
  -20.4232   -6.8535   21.3299 C   0  0  0  0  0  0  0  0  0  0  0  0
  -30.6124  -19.6337   19.1263 C   0  0  0  0  0  0  0  0  0  0  0  0
  -17.8323   -6.6516   20.3154 C   0  0  0  0  0  0  0  0  0  0  0  0
  -20.0938   -5.8139   20.4601 C   0  0  0  0  0  0  0  0  0  0  0  0
  -24.5878  -11.6126   20.7038 C   0  0  0  0  0  0  0  0  0  0  0  0
  -30.4319  -18.1295   20.7920 C   0  0  0  0  0  0  0  0  0  0  0  0
  -25.2019  -13.7030   20.4071 C   0  0  0  0  0  0  0  0  0  0  0  0
  -22.8312  -13.4366   21.1538 C   0  0  0  0  0  0  0  0  0  0  0  0
  -29.2956  -27.0867   21.0549 C   0  0  0  0  0  0  0  0  0  0  0  0
  -30.1672  -29.4285   18.9864 C   0  0  0  0  0  0  0  0  0  0  0  0
  -32.1593  -30.4120   16.3959 C   0  0  0  0  0  0  0  0  0  0  0  0
  -30.6521  -14.8771   20.6567 C   0  0  0  0  0  0  0  0  0  0  0  0
  -26.7678  -26.7550   25.4773 C   0  0  0  0  0  0  0  0  0  0  0  0
  -31.7984  -27.1186   21.3564 C   0  0  0  0  0  0  0  0  0  0  0  0
  -31.0371  -27.1110   18.4989 C   0  0  0  0  0  0  0  0  0  0  0  0
  -26.7805  -27.7230   24.2970 C   0  0  0  0  0  0  0  0  0  0  0  0
  -29.6250  -12.3697   18.3469 C   0  0  0  0  0  0  0  0  0  0  0  0
  -26.6765  -26.9603   22.9801 C   0  0  0  0  0  0  0  0  0  0  0  0
  -27.2213  -20.9519   22.1105 C   0  0  0  0  0  0  0  0  0  0  0  0
  -26.4477  -19.9765   22.9531 C   0  0  0  0  0  0  0  0  0  0  0  0
  -28.1876  -12.0545   18.7644 C   0  0  0  0  0  0  0  0  0  0  0  0
  -30.5121  -12.6628   19.5549 C   0  0  0  0  0  0  0  0  0  0  0  0
  -28.5648  -13.3965   20.8752 C   0  0  0  0  0  0  0  0  0  0  0  0
  -27.8713  -26.0177   22.7925 C   0  0  1  0  0  0  0  0  0  0  0  0
  -30.5660  -27.8628   20.8516 C   0  0  1  0  0  0  0  0  0  0  0  0
  -27.8359  -19.6327   22.4888 C   0  0  0  0  0  0  0  0  0  0  0  0
  -27.6190  -13.1490   19.6875 C   0  0  2  0  0  0  0  0  0  0  0  0
  -32.6150  -32.3708   14.8948 C   0  0  0  0  0  0  0  0  0  0  0  0
  -27.6302  -28.8069   17.4092 C   0  0  0  0  0  0  0  0  0  0  0  0
  -28.6001  -30.0779   15.4825 C   0  0  0  0  0  0  0  0  0  0  0  0
  -28.1442  -31.2435   17.6403 C   0  0  0  0  0  0  0  0  0  0  0  0
  -34.9564  -30.6313   17.3378 C   0  0  0  0  0  0  0  0  0  0  0  0
  -30.6368  -17.0761   21.8071 C   0  0  0  0  0  0  0  0  0  0  0  0
  -28.0458  -18.5565   21.4375 C   0  0  0  0  0  0  0  0  0  0  0  0
  -32.7759  -21.0928   16.5261 C   0  0  0  0  0  0  0  0  0  0  0  0
  -32.6182  -22.5653   16.8712 C   0  0  0  0  0  0  0  0  0  1  0  0
  -32.4338  -20.1928   17.7031 C   0  0  0  0  0  0  0  0  0  0  0  0
  -30.0786  -29.6223   17.4919 C   0  0  1  0  0  0  0  0  0  0  0  0
  -32.9945  -31.6621   16.1858 C   0  0  2  0  0  0  0  0  0  0  0  0
  -28.6273  -29.9156   17.0173 C   0  0  0  0  0  0  0  0  0  0  0  0
  -25.8627  -11.5346   20.3134 N   0  0  0  0  0  0  0  0  0  0  0  0
  -29.2371  -18.7856   20.6499 N   0  0  0  0  0  0  0  0  0  0  0  0
  -26.2082  -12.8218   20.1406 N   0  0  0  0  0  0  0  0  0  0  0  0
  -30.6455  -28.1859   19.4256 N   0  0  0  0  0  0  0  0  0  0  0  0
  -29.9173  -13.7104   20.3883 N   0  0  0  0  0  0  0  0  0  0  0  0
  -25.3785  -15.0357   20.2845 N   0  0  0  0  0  0  0  0  0  0  0  0
  -21.8372  -12.5144   21.5084 N   0  0  0  0  0  0  0  0  0  0  0  0
  -29.0403  -26.7606   22.3732 N   0  0  0  0  0  0  0  0  0  0  0  0
  -31.0393  -30.6683   17.1582 N   0  0  0  0  0  0  0  0  0  0  0  0
  -30.0121  -15.8220   21.4494 N   0  0  0  0  0  0  0  0  0  0  0  0
  -34.4420  -31.3134   16.1224 N   0  3  0  0  0  0  0  0  0  0  0  0
  -22.5615  -14.6616   21.1572 O   0  0  0  0  0  0  0  0  0  0  0  0
  -28.5978  -26.8058   20.0875 O   0  0  0  0  0  0  0  0  0  0  0  0
  -29.8313  -30.3485   19.7364 O   0  0  0  0  0  0  0  0  0  0  0  0
  -32.4675  -29.3185   15.9272 O   0  0  0  0  0  0  0  0  0  0  0  0
  -31.7917  -15.0652   20.2177 O   0  0  0  0  0  0  0  0  0  0  0  0
  -21.7086   -6.9545   21.8350 O   0  0  0  0  0  0  0  0  0  0  0  0
  -33.4711  -22.9004   17.9651 O   0  0  0  0  0  0  0  0  0  1  0  0
  -31.0851  -20.4059   18.0973 O   0  0  0  0  0  0  0  0  0  0  0  0
  -16.5879   -6.5540   19.8295 F   0  0  0  0  0  0  0  0  0  0  0  0
  -21.0173   -4.9086   20.1091 F   0  0  0  0  0  0  0  0  0  0  0  0
  1  2  1  0  0  0  0
  1  5  2  0  0  0  0
  2  6  2  0  0  0  0
  3  8  2  0  0  0  0
  3 17  1  0  0  0  0
  4  9  1  0  0  0  0
  4 17  2  0  0  0  0
  5 19  1  0  0  0  0
  6 21  1  0  0  0  0
  7 10  2  0  0  0  0
  7 20  1  0  0  0  0
  8 23  1  0  0  0  0
  9 23  2  0  0  0  0
 10 24  1  0  0  0  0
 11 12  2  0  0  0  0
 11 25  1  0  0  0  0
 12 27  1  0  0  0  0
 13 22  1  0  0  0  0
 13 24  2  0  0  0  0
 14 26  1  0  0  0  0
 14 30  2  0  0  0  0
 15 27  2  0  0  0  0
 15 28  1  0  0  0  0
 16 26  2  0  0  0  0
 16 66  1  0  0  0  0
 17 29  1  0  0  0  0
 18 29  1  0  0  0  0
 18 31  2  0  0  0  0
 18 32  1  0  0  0  0
 19 21  2  0  0  0  0
 19 37  1  0  0  0  0
 20 22  2  0  0  0  0
 20 38  1  0  0  0  0
 21 48  1  0  0  0  0
 22 39  1  0  0  0  0
 23 81  1  0  0  0  0
 24 82  1  0  0  0  0
 25 28  2  0  0  0  0
 25 81  1  0  0  0  0
 26 83  1  0  0  0  0
 27 84  1  0  0  0  0
 28 85  1  0  0  0  0
 29 65  2  0  0  0  0
 30 57  1  0  0  0  0
 30 66  1  0  0  0  0
 31 67  1  0  0  0  0
 31 70  1  0  0  0  0
 32 71  1  0  0  0  0
 32 76  2  0  0  0  0
 33 49  1  0  0  0  0
 33 72  1  0  0  0  0
 33 77  2  0  0  0  0
 34 62  1  0  0  0  0
 34 68  1  0  0  0  0
 34 78  2  0  0  0  0
 35 63  1  0  0  0  0
 35 73  1  0  0  0  0
 35 79  2  0  0  0  0
 36 69  1  0  0  0  0
 36 74  1  0  0  0  0
 36 80  2  0  0  0  0
 37 40  1  0  0  0  0
 38 49  1  0  0  0  0
 39 68  1  0  0  0  0
 40 42  1  0  0  0  0
 41 45  1  0  0  0  0
 41 46  1  0  0  0  0
 42 48  1  0  0  0  0
 43 44  1  0  0  0  0
 43 50  1  0  0  0  0
 44 50  1  0  0  0  0
 45 51  1  0  0  0  0
 46 69  1  0  0  0  0
 47 51  1  0  0  0  0
 47 69  1  0  0  0  0
 48 72  1  0  0  0  0
 49 68  1  0  0  0  0
 50 58  1  0  0  0  0
 51 67  1  0  0  0  0
 52 63  1  0  0  0  0
 53 64  1  0  0  0  0
 54 64  1  0  0  0  0
 55 64  1  0  0  0  0
 56 75  1  0  0  0  0
 57 74  1  0  0  0  0
 58 66  1  0  0  0  0
 59 60  1  0  0  0  0
 59 61  1  0  0  0  0
 60 82  1  0  0  0  0
 61 83  1  0  0  0  0
 62 64  1  0  0  0  0
 62 73  1  0  0  0  0
 63 75  1  0  0  0  0
 65 67  1  0  0  0  0
M  CHG  1  75   1
M  ISO  4  36 100  60 101  74 100  82 101
M  END
> <Batch ID>
0145

> <Smiles>
CNC(C)C(=O)NC(C(=O)N1Cc2cc([101O:1][101CH2:1]CCOc3cc(C[100NH:0][100C:0](=O)N4CCCC(n5nc(-c6ccc(Oc7ccc(F)cc7F)cc6)c(C(N)=O)c5N)C4)n(CC4CC4)c3)ccc2CC1C(=O)NC1CCCc2ccccc21)C(C)(C)C

> <Shape>
0.217

> <Color>
0.218

> <Negative vol penalty>
0.000

$$$$

  -OEChem-04052321283D

 88 97  0     1  0  0  0  0  0999 V2000
  -15.2273  -22.4490   23.1664 C   0  0  0  0  0  0  0  0  0  0  0  0
  -16.2262  -21.4857   23.0678 C   0  0  0  0  0  0  0  0  0  0  0  0
  -23.0640   -9.8809   19.9433 C   0  0  0  0  0  0  0  0  0  0  0  0
  -23.8392   -9.8735   22.2316 C   0  0  0  0  0  0  0  0  0  0  0  0
  -15.5670  -23.7849   23.3756 C   0  0  0  0  0  0  0  0  0  0  0  0
  -17.5655  -21.8580   23.1773 C   0  0  0  0  0  0  0  0  0  0  0  0
  -23.8644  -19.4092   25.5531 C   0  0  0  0  0  0  0  0  0  0  0  0
  -30.0662  -19.1324   20.0217 C   0  0  0  0  0  0  0  0  0  0  0  0
  -22.3187   -8.7284   20.1921 C   0  0  0  0  0  0  0  0  0  0  0  0
  -23.0938   -8.7210   22.4804 C   0  0  0  0  0  0  0  0  0  0  0  0
  -25.1784  -19.2238   25.1257 C   0  0  0  0  0  0  0  0  0  0  0  0
  -19.8676   -7.9286   23.1001 C   0  0  0  0  0  0  0  0  0  0  0  0
  -29.5033  -19.7009   18.8791 C   0  0  0  0  0  0  0  0  0  0  0  0
  -19.1183   -7.8844   24.2758 C   0  0  0  0  0  0  0  0  0  0  0  0
  -25.6434  -21.5496   25.5657 C   0  0  0  0  0  0  0  0  0  0  0  0
  -27.2929  -19.2402   19.7388 C   0  0  0  0  0  0  0  0  0  0  0  0
  -20.3593   -5.9397   24.9936 C   0  0  0  0  0  0  0  0  0  0  0  0
  -23.8243  -10.4534   20.9631 C   0  0  0  0  0  0  0  0  0  0  0  0
  -24.1722  -12.9782   20.8543 C   0  0  0  0  0  0  0  0  0  0  0  0
  -16.9108  -24.1724   23.4974 C   0  0  0  0  0  0  0  0  0  0  0  0
  -23.4263  -20.6709   25.9805 C   0  0  0  0  0  0  0  0  0  0  0  0
  -17.9236  -23.2006   23.3871 C   0  0  0  0  0  0  0  0  0  0  0  0
  -29.2425  -18.6177   21.0229 C   0  0  0  0  0  0  0  0  0  0  0  0
  -24.3240  -21.7478   26.0005 C   0  0  0  0  0  0  0  0  0  0  0  0
  -27.8559  -18.6716   20.8814 C   0  0  0  0  0  0  0  0  0  0  0  0
  -22.3336   -8.1485   21.4606 C   0  0  0  0  0  0  0  0  0  0  0  0
  -26.0674  -20.2947   25.1292 C   0  0  0  0  0  0  0  0  0  0  0  0
  -20.8627   -6.9783   22.8711 C   0  0  0  0  0  0  0  0  0  0  0  0
  -28.1167  -19.7548   18.7377 C   0  0  0  0  0  0  0  0  0  0  0  0
  -19.3642   -6.8900   25.2225 C   0  0  0  0  0  0  0  0  0  0  0  0
  -21.1086   -5.9839   23.8178 C   0  0  0  0  0  0  0  0  0  0  0  0
  -24.5949  -11.6436   20.7066 C   0  0  0  0  0  0  0  0  0  0  0  0
  -25.2639  -13.7267   20.4878 C   0  0  0  0  0  0  0  0  0  0  0  0
  -22.9059  -13.4952   21.2845 C   0  0  0  0  0  0  0  0  0  0  0  0
  -21.2200  -22.7336   24.9896 C   0  0  0  0  0  0  0  0  0  0  0  0
  -22.0604  -24.3293   27.6858 C   0  0  0  0  0  0  0  0  0  0  0  0
  -24.4210  -24.9419   30.0732 C   0  0  0  0  0  0  0  0  0  0  0  0
  -30.7515  -14.7301   20.6451 C   0  0  0  0  0  0  0  0  0  0  0  0
  -17.2311  -25.6353   23.6759 C   0  0  0  0  0  0  0  0  0  0  0  0
  -22.0130  -20.8483   26.4637 C   0  0  0  0  0  0  0  0  0  0  0  0
  -23.9089  -23.1177   26.4691 C   0  0  0  0  0  0  0  0  0  0  0  0
  -18.6575  -25.8925   24.1551 C   0  0  0  0  0  0  0  0  0  0  0  0
  -29.5917  -12.3615   18.2532 C   0  0  0  0  0  0  0  0  0  0  0  0
  -19.6499  -25.0618   23.3477 C   0  0  0  0  0  0  0  0  0  0  0  0
  -28.1563  -12.0693   18.6941 C   0  0  0  0  0  0  0  0  0  0  0  0
  -31.6424  -16.6948   23.1694 C   0  0  0  0  0  0  0  0  0  0  0  0
  -31.7755  -18.1056   23.7527 C   0  0  0  0  0  0  0  0  0  0  0  0
  -30.5173  -12.5734   19.4492 C   0  0  0  0  0  0  0  0  0  0  0  0
  -28.6268  -13.3021   20.8523 C   0  0  0  0  0  0  0  0  0  0  0  0
  -29.8671  -18.0142   22.2341 C   0  0  1  0  0  0  0  0  0  0  0  0
  -19.3867  -23.5616   23.5253 C   0  0  1  0  0  0  0  0  0  0  0  0
  -21.5341  -22.2950   26.3920 C   0  0  1  0  0  0  0  0  0  0  0  0
  -27.6444  -13.1364   19.6802 C   0  0  2  0  0  0  0  0  0  0  0  0
  -30.8314  -16.8738   21.8930 C   0  0  2  0  0  0  0  0  0  0  0  0
  -30.8113  -18.9947   22.9543 C   0  0  1  0  0  0  0  0  0  0  0  0
  -26.9536  -18.1254   21.9389 C   0  0  0  0  0  0  0  0  0  0  0  0
  -24.8331  -26.3233   32.1272 C   0  0  0  0  0  0  0  0  0  0  0  0
  -22.5218  -26.7870   25.9374 C   0  0  0  0  0  0  0  0  0  0  0  0
  -23.8063  -27.8058   27.8296 C   0  0  0  0  0  0  0  0  0  0  0  0
  -21.3903  -27.2555   28.1179 C   0  0  0  0  0  0  0  0  0  0  0  0
  -24.7515  -22.5366   31.7657 C   0  0  0  0  0  0  0  0  0  0  0  0
  -30.9792  -20.7308   24.7315 C   0  0  0  0  0  0  0  0  0  0  0  0
  -29.0597  -20.7546   23.1455 C   0  0  0  0  0  0  0  0  0  0  0  0
  -28.0016  -21.2385   24.1173 C   0  0  0  0  0  0  0  0  0  1  0  0
  -23.0862  -25.3825   28.0290 C   0  0  1  0  0  0  0  0  0  0  0  0
  -24.3323  -24.9925   31.5878 C   0  0  2  0  0  0  0  0  0  0  0  0
  -22.7088  -26.7825   27.4678 C   0  0  0  0  0  0  0  0  0  0  0  0
  -25.8567  -11.5466   20.2794 N   0  0  0  0  0  0  0  0  0  0  0  0
  -26.2362  -12.8298   20.1555 N   0  0  0  0  0  0  0  0  0  0  0  0
  -22.5149  -23.2422   26.9260 N   0  0  0  0  0  0  0  0  0  0  0  0
  -29.9755  -13.5986   20.3443 N   0  0  0  0  0  0  0  0  0  0  0  0
  -25.4774  -15.0580   20.4205 N   0  0  0  0  0  0  0  0  0  0  0  0
  -21.8938  -12.5869   21.6236 N   0  0  0  0  0  0  0  0  0  0  0  0
  -19.9030  -23.1051   24.7980 N   0  0  0  0  0  0  0  0  0  0  0  0
  -23.2430  -25.3424   29.4789 N   0  0  0  0  0  0  0  0  0  0  0  0
  -30.1605  -15.6560   21.4961 N   0  0  0  0  0  0  0  0  0  0  0  0
  -25.1505  -23.9029   32.1913 N   0  3  0  0  0  0  0  0  0  0  0  0
  -30.0453  -19.9150   23.8721 N   0  3  1  0  0  0  0  0  0  0  0  0
  -22.6734  -14.7261   21.3500 O   0  0  0  0  0  0  0  0  0  0  0  0
  -22.1073  -22.7361   24.1444 O   0  0  0  0  0  0  0  0  0  0  0  0
  -20.9004  -24.4627   28.0835 O   0  0  0  0  0  0  0  0  0  0  0  0
  -25.4351  -24.5864   29.4768 O   0  0  0  0  0  0  0  0  0  0  0  0
  -31.8849  -14.9049   20.1849 O   0  0  0  0  0  0  0  0  0  0  0  0
  -21.6062   -7.0240   21.7037 O   0  0  0  0  0  0  0  0  0  0  0  0
  -27.3503  -20.1166   24.7119 O   0  0  0  0  0  0  0  0  0  1  0  0
  -27.5760  -20.3013   17.6408 F   0  0  0  0  0  0  0  0  0  0  0  0
  -18.6457   -6.8486   26.3522 F   0  0  0  0  0  0  0  0  0  0  0  0
  -22.0640   -5.0690   23.6039 F   0  0  0  0  0  0  0  0  0  0  0  0
  1  2  1  0  0  0  0
  1  5  2  0  0  0  0
  2  6  2  0  0  0  0
  3  9  2  0  0  0  0
  3 18  1  0  0  0  0
  4 10  1  0  0  0  0
  4 18  2  0  0  0  0
  5 20  1  0  0  0  0
  6 22  1  0  0  0  0
  7 11  2  0  0  0  0
  7 21  1  0  0  0  0
  8 13  2  0  0  0  0
  8 23  1  0  0  0  0
  9 26  1  0  0  0  0
 10 26  2  0  0  0  0
 11 27  1  0  0  0  0
 12 14  2  0  0  0  0
 12 28  1  0  0  0  0
 13 29  1  0  0  0  0
 14 30  1  0  0  0  0
 15 24  1  0  0  0  0
 15 27  2  0  0  0  0
 16 25  1  0  0  0  0
 16 29  2  0  0  0  0
 17 30  2  0  0  0  0
 17 31  1  0  0  0  0
 18 32  1  0  0  0  0
 19 32  1  0  0  0  0
 19 33  2  0  0  0  0
 19 34  1  0  0  0  0
 20 22  2  0  0  0  0
 20 39  1  0  0  0  0
 21 24  2  0  0  0  0
 21 40  1  0  0  0  0
 22 51  1  0  0  0  0
 23 25  2  0  0  0  0
 23 50  1  0  0  0  0
 24 41  1  0  0  0  0
 25 56  1  0  0  0  0
 26 84  1  0  0  0  0
 27 85  1  0  0  0  0
 28 31  2  0  0  0  0
 28 84  1  0  0  0  0
 29 86  1  0  0  0  0
 30 87  1  0  0  0  0
 31 88  1  0  0  0  0
 32 68  2  0  0  0  0
 33 69  1  0  0  0  0
 33 72  1  0  0  0  0
 34 73  1  0  0  0  0
 34 79  2  0  0  0  0
 35 52  1  0  0  0  0
 35 74  1  0  0  0  0
 35 80  2  0  0  0  0
 36 65  1  0  0  0  0
 36 70  1  0  0  0  0
 36 81  2  0  0  0  0
 37 66  1  0  0  0  0
 37 75  1  0  0  0  0
 37 82  2  0  0  0  0
 38 71  1  0  0  0  0
 38 76  1  0  0  0  0
 38 83  2  0  0  0  0
 39 42  1  0  0  0  0
 40 52  1  0  0  0  0
 41 70  1  0  0  0  0
 42 44  1  0  0  0  0
 43 45  1  0  0  0  0
 43 48  1  0  0  0  0
 44 51  1  0  0  0  0
 45 53  1  0  0  0  0
 46 47  1  0  0  0  0
 46 54  1  0  0  0  0
 47 55  1  0  0  0  0
 48 71  1  0  0  0  0
 49 53  1  0  0  0  0
 49 71  1  0  0  0  0
 50 54  1  0  0  0  0
 50 55  1  0  0  0  0
 51 74  1  0  0  0  0
 52 70  1  0  0  0  0
 53 69  1  0  0  0  0
 54 76  1  0  0  0  0
 55 78  1  0  0  0  0
 57 66  1  0  0  0  0
 58 67  1  0  0  0  0
 59 67  1  0  0  0  0
 60 67  1  0  0  0  0
 61 77  1  0  0  0  0
 62 78  1  0  0  0  0
 63 64  1  0  0  0  0
 63 78  1  0  0  0  0
 64 85  1  0  0  0  0
 65 67  1  0  0  0  0
 65 75  1  0  0  0  0
 66 77  1  0  0  0  0
 68 69  1  0  0  0  0
M  CHG  2  77   1  78   1
M  ISO  4  38 100  64 101  76 100  85 101
M  END
> <Batch ID>
0145

> <Smiles>
CNC(C)C(=O)NC(C(=O)N1Cc2cc([101O:1][101CH2:1]CN(C)C3CCC([100NH:0][100C:0](=O)N4CCCC(n5nc(-c6ccc(Oc7ccc(F)cc7F)cc6)c(C(N)=O)c5N)C4)C3c3ccc(F)cc3C)ccc2CC1C(=O)NC1CCCc2ccccc21)C(C)(C)C

> <Shape>
0.209

> <Color>
0.187

> <Negative vol penalty>
0.000

$$$$

  -OEChem-04052321283D

 88 97  0     1  0  0  0  0  0999 V2000
  -24.4135  -35.6282   25.7645 C   0  0  0  0  0  0  0  0  0  0  0  0
  -25.3220  -34.7743   25.1474 C   0  0  0  0  0  0  0  0  0  0  0  0
  -24.4819   -9.9774   23.3346 C   0  0  0  0  0  0  0  0  0  0  0  0
  -24.0492   -8.8818   21.2252 C   0  0  0  0  0  0  0  0  0  0  0  0
  -23.1434  -35.1646   26.1050 C   0  0  0  0  0  0  0  0  0  0  0  0
  -24.9614  -33.4560   24.8713 C   0  0  0  0  0  0  0  0  0  0  0  0
  -26.6969  -30.0961   20.0541 C   0  0  0  0  0  0  0  0  0  0  0  0
  -23.5285   -9.1671   23.9511 C   0  0  0  0  0  0  0  0  0  0  0  0
  -23.0959   -8.0714   21.8417 C   0  0  0  0  0  0  0  0  0  0  0  0
  -27.6905  -29.1316   19.8924 C   0  0  0  0  0  0  0  0  0  0  0  0
  -23.0608   -5.3122   23.7925 C   0  0  0  0  0  0  0  0  0  0  0  0
  -23.0814   -3.9494   23.4959 C   0  0  0  0  0  0  0  0  0  0  0  0
  -31.5618  -23.2360   20.7395 C   0  0  0  0  0  0  0  0  0  0  0  0
  -26.0615  -27.3963   20.2855 C   0  0  0  0  0  0  0  0  0  0  0  0
  -20.8283   -4.1022   22.6372 C   0  0  0  0  0  0  0  0  0  0  0  0
  -31.5675  -21.8887   21.0630 C   0  0  0  0  0  0  0  0  0  0  0  0
  -24.7422   -9.8348   21.9716 C   0  0  0  0  0  0  0  0  0  0  0  0
  -27.1017  -10.4078   21.1891 C   0  0  0  0  0  0  0  0  0  0  0  0
  -22.7636  -33.8426   25.8242 C   0  0  0  0  0  0  0  0  0  0  0  0
  -25.3781  -29.7178   20.3441 C   0  0  0  0  0  0  0  0  0  0  0  0
  -23.6855  -32.9739   25.2095 C   0  0  0  0  0  0  0  0  0  0  0  0
  -25.0525  -28.3579   20.4479 C   0  0  0  0  0  0  0  0  0  0  0  0
  -29.5272  -22.8387   19.5200 C   0  0  0  0  0  0  0  0  0  0  0  0
  -22.8355   -8.2141   23.2046 C   0  0  0  0  0  0  0  0  0  0  0  0
  -27.3735  -27.7816   20.0109 C   0  0  0  0  0  0  0  0  0  0  0  0
  -21.9239   -6.0700   23.5116 C   0  0  0  0  0  0  0  0  0  0  0  0
  -30.5187  -23.7121   19.9529 C   0  0  0  0  0  0  0  0  0  0  0  0
  -21.9652   -3.3444   22.9182 C   0  0  0  0  0  0  0  0  0  0  0  0
  -20.8077   -5.4651   22.9339 C   0  0  0  0  0  0  0  0  0  0  0  0
  -25.7266  -10.6719   21.3341 C   0  0  0  0  0  0  0  0  0  0  0  0
  -29.6241  -21.5091   19.8979 C   0  0  0  0  0  0  0  0  0  0  0  0
  -27.5927  -11.5017   20.5192 C   0  0  0  0  0  0  0  0  0  0  0  0
  -27.8668   -9.2748   21.6211 C   0  0  0  0  0  0  0  0  0  0  0  0
  -23.3820  -30.2184   22.7666 C   0  0  0  0  0  0  0  0  0  0  0  0
  -21.2632  -28.7189   20.8211 C   0  0  0  0  0  0  0  0  0  0  0  0
  -20.7337  -26.5688   18.2243 C   0  0  0  0  0  0  0  0  0  0  0  0
  -28.0079  -16.8558   19.8164 C   0  0  0  0  0  0  0  0  0  0  0  0
  -21.3962  -33.3734   26.2537 C   0  0  0  0  0  0  0  0  0  0  0  0
  -24.3125  -30.7694   20.4892 C   0  0  0  0  0  0  0  0  0  0  0  0
  -23.6477  -27.8987   20.7380 C   0  0  0  0  0  0  0  0  0  0  0  0
  -20.9625  -32.0700   25.5878 C   0  0  0  0  0  0  0  0  0  0  0  0
  -25.2189  -15.2946   18.1924 C   0  0  0  0  0  0  0  0  0  0  0  0
  -22.0909  -31.0448   25.6358 C   0  0  0  0  0  0  0  0  0  0  0  0
  -25.1954  -13.9324   18.8814 C   0  0  0  0  0  0  0  0  0  0  0  0
  -27.3944  -20.3791   20.4233 C   0  0  0  0  0  0  0  0  0  0  0  0
  -25.5933  -16.4249   19.1533 C   0  0  0  0  0  0  0  0  0  0  0  0
  -26.7600  -19.0678   19.9827 C   0  0  0  0  0  0  0  0  0  0  0  0
  -26.8286  -14.8198   20.5815 C   0  0  0  0  0  0  0  0  0  0  0  0
  -23.3229  -31.5441   24.8713 C   0  0  1  0  0  0  0  0  0  0  0  0
  -28.5776  -20.5136   19.4568 C   0  0  2  0  0  0  0  0  0  0  0  0
  -23.1062  -30.2910   21.2913 C   0  0  1  0  0  0  0  0  0  0  0  0
  -26.5220  -13.6691   19.6123 C   0  0  1  0  0  0  0  0  0  0  0  0
  -29.0811  -19.0591   19.3260 C   0  0  2  0  0  0  0  0  0  0  0  0
  -28.3994  -23.3263   18.6748 C   0  0  0  0  0  0  0  0  0  0  0  0
  -18.8927  -25.5111   16.8866 C   0  0  0  0  0  0  0  0  0  0  0  0
  -28.6322  -18.9842   16.8563 C   0  0  0  0  0  0  0  0  0  0  0  0
  -30.8889  -19.6894   17.7011 C   0  0  0  0  0  0  0  0  0  0  0  0
  -20.6874  -26.8079   23.1290 C   0  0  0  0  0  0  0  0  0  0  0  0
  -19.6094  -25.2578   21.4848 C   0  0  0  0  0  0  0  0  0  0  0  0
  -18.6661  -27.5380   21.8501 C   0  0  0  0  0  0  0  0  0  0  0  0
  -21.6879  -27.8101   15.7128 C   0  0  0  0  0  0  0  0  0  0  0  0
  -29.6711  -27.2042   20.2199 C   0  0  0  0  0  0  0  0  0  1  0  0
  -30.4210  -25.9719   20.6874 C   0  0  0  0  0  0  0  0  0  0  0  0
  -20.8472  -27.2852   20.5967 C   0  0  1  0  0  0  0  0  0  0  0  0
  -19.8613  -26.6793   16.9869 C   0  0  2  0  0  0  0  0  0  0  0  0
  -29.6814  -18.7875   17.9489 C   0  0  0  0  0  0  0  0  0  0  0  0
  -19.9795  -26.7306   21.7616 C   0  0  0  0  0  0  0  0  0  0  0  0
  -30.6221  -21.0099   20.6611 N   0  0  0  0  0  0  0  0  0  0  0  0
  -25.3671  -11.8420   20.7996 N   0  0  0  0  0  0  0  0  0  0  0  0
  -26.5235  -12.3228   20.3121 N   0  0  0  0  0  0  0  0  0  0  0  0
  -22.6424  -28.9651   20.8778 N   0  0  0  0  0  0  0  0  0  0  0  0
  -26.8226  -16.1131   19.8921 N   0  0  0  0  0  0  0  0  0  0  0  0
  -27.8942  -18.2301   19.5876 N   0  0  0  0  0  0  0  0  0  0  0  0
  -28.8304  -11.8318   20.0931 N   0  0  0  0  0  0  0  0  0  0  0  0
  -27.2050   -8.2395   22.2954 N   0  0  0  0  0  0  0  0  0  0  0  0
  -23.1274  -31.3949   23.4451 N   0  0  0  0  0  0  0  0  0  0  0  0
  -20.1916  -27.2495   19.2939 N   0  0  0  0  0  0  0  0  0  0  0  0
  -20.7047  -26.6974   15.7584 N   0  3  0  0  0  0  0  0  0  0  0  0
  -29.1036   -9.1907   21.4298 O   0  0  0  0  0  0  0  0  0  0  0  0
  -23.7937  -29.1719   23.2534 O   0  0  0  0  0  0  0  0  0  0  0  0
  -20.3966  -29.5894   20.9345 O   0  0  0  0  0  0  0  0  0  0  0  0
  -21.7886  -25.9383   18.2414 O   0  0  0  0  0  0  0  0  0  0  0  0
  -29.1137  -16.3224   19.9752 O   0  0  0  0  0  0  0  0  0  0  0  0
  -21.9053   -7.4230   23.8059 O   0  0  0  0  0  0  0  0  0  0  0  0
  -28.3481  -26.8316   19.8531 O   0  0  0  0  0  0  0  0  0  1  0  0
  -30.4846  -25.0311   19.6169 O   0  0  0  0  0  0  0  0  0  0  0  0
  -21.9857   -2.0361   22.6320 F   0  0  0  0  0  0  0  0  0  0  0  0
  -19.7131   -6.1882   22.6605 F   0  0  0  0  0  0  0  0  0  0  0  0
  1  2  1  0  0  0  0
  1  5  2  0  0  0  0
  2  6  2  0  0  0  0
  3  8  2  0  0  0  0
  3 17  1  0  0  0  0
  4  9  1  0  0  0  0
  4 17  2  0  0  0  0
  5 19  1  0  0  0  0
  6 21  1  0  0  0  0
  7 10  2  0  0  0  0
  7 20  1  0  0  0  0
  8 24  1  0  0  0  0
  9 24  2  0  0  0  0
 10 25  1  0  0  0  0
 11 12  2  0  0  0  0
 11 26  1  0  0  0  0
 12 28  1  0  0  0  0
 13 16  2  0  0  0  0
 13 27  1  0  0  0  0
 14 22  1  0  0  0  0
 14 25  2  0  0  0  0
 15 28  2  0  0  0  0
 15 29  1  0  0  0  0
 16 68  1  0  0  0  0
 17 30  1  0  0  0  0
 18 30  1  0  0  0  0
 18 32  2  0  0  0  0
 18 33  1  0  0  0  0
 19 21  2  0  0  0  0
 19 38  1  0  0  0  0
 20 22  2  0  0  0  0
 20 39  1  0  0  0  0
 21 49  1  0  0  0  0
 22 40  1  0  0  0  0
 23 27  2  0  0  0  0
 23 31  1  0  0  0  0
 23 54  1  0  0  0  0
 24 84  1  0  0  0  0
 25 85  1  0  0  0  0
 26 29  2  0  0  0  0
 26 84  1  0  0  0  0
 27 86  1  0  0  0  0
 28 87  1  0  0  0  0
 29 88  1  0  0  0  0
 30 69  2  0  0  0  0
 31 50  1  0  0  0  0
 31 68  2  0  0  0  0
 32 70  1  0  0  0  0
 32 74  1  0  0  0  0
 33 75  1  0  0  0  0
 33 79  2  0  0  0  0
 34 51  1  0  0  0  0
 34 76  1  0  0  0  0
 34 80  2  0  0  0  0
 35 64  1  0  0  0  0
 35 71  1  0  0  0  0
 35 81  2  0  0  0  0
 36 65  1  0  0  0  0
 36 77  1  0  0  0  0
 36 82  2  0  0  0  0
 37 72  1  0  0  0  0
 37 73  1  0  0  0  0
 37 83  2  0  0  0  0
 38 41  1  0  0  0  0
 39 51  1  0  0  0  0
 40 71  1  0  0  0  0
 41 43  1  0  0  0  0
 42 44  1  0  0  0  0
 42 46  1  0  0  0  0
 43 49  1  0  0  0  0
 44 52  1  0  0  0  0
 45 47  1  0  0  0  0
 45 50  1  0  0  0  0
 46 72  1  0  0  0  0
 47 73  1  0  0  0  0
 48 52  1  0  0  0  0
 48 72  1  0  0  0  0
 49 76  1  0  0  0  0
 50 53  1  0  0  0  0
 51 71  1  0  0  0  0
 52 70  1  0  0  0  0
 53 66  1  0  0  0  0
 53 73  1  0  0  0  0
 55 65  1  0  0  0  0
 56 66  1  0  0  0  0
 57 66  1  0  0  0  0
 58 67  1  0  0  0  0
 59 67  1  0  0  0  0
 60 67  1  0  0  0  0
 61 78  1  0  0  0  0
 62 63  1  0  0  0  0
 62 85  1  0  0  0  0
 63 86  1  0  0  0  0
 64 67  1  0  0  0  0
 64 77  1  0  0  0  0
 65 78  1  0  0  0  0
 69 70  1  0  0  0  0
M  CHG  1  78   1
M  ISO  4  37 100  62 101  73 100  85 101
M  END
> <Batch ID>
0145

> <Smiles>
CNC(C)C(=O)NC(C(=O)N1Cc2cc([101O:1][101CH2:1]COc3ccnc(C4CC[100N:0]([100C:0](=O)N5CCCC(n6nc(-c7ccc(Oc8ccc(F)cc8F)cc7)c(C(N)=O)c6N)C5)C4C(C)C)c3C)ccc2CC1C(=O)NC1CCCc2ccccc21)C(C)(C)C

> <Shape>
0.313

> <Color>
0.098

> <Negative vol penalty>
0.000

$$$$

  -OEChem-04052321283D

 92102  0     1  0  0  0  0  0999 V2000
  -18.2124   -9.3805   20.4635 C   0  0  0  0  0  0  0  0  0  0  0  0
  -18.3321  -10.5941   19.7940 C   0  0  0  0  0  0  0  0  0  0  0  0
  -22.2536  -32.2793   22.3978 C   0  0  0  0  0  0  0  0  0  0  0  0
  -21.8141  -29.9294   22.7468 C   0  0  0  0  0  0  0  0  0  0  0  0
  -19.0236   -9.1102   21.5647 C   0  0  0  0  0  0  0  0  0  0  0  0
  -19.2625  -11.5386   20.2260 C   0  0  0  0  0  0  0  0  0  0  0  0
  -23.5953  -16.6611   17.7153 C   0  0  0  0  0  0  0  0  0  0  0  0
  -21.0775  -32.6000   23.0756 C   0  0  0  0  0  0  0  0  0  0  0  0
  -20.6379  -30.2500   23.4247 C   0  0  0  0  0  0  0  0  0  0  0  0
  -23.9035  -18.0057   17.9175 C   0  0  0  0  0  0  0  0  0  0  0  0
  -17.4847  -31.1829   22.6388 C   0  0  0  0  0  0  0  0  0  0  0  0
  -16.3371  -30.4544   22.3258 C   0  0  0  0  0  0  0  0  0  0  0  0
  -25.3066  -17.3973   19.7831 C   0  0  0  0  0  0  0  0  0  0  0  0
  -30.8626  -25.5550   22.1056 C   0  0  0  0  0  0  0  0  0  0  0  0
  -30.7390  -23.2592   21.3632 C   0  0  0  0  0  0  0  0  0  0  0  0
  -16.1862  -29.7073   24.6185 C   0  0  0  0  0  0  0  0  0  0  0  0
  -22.6219  -30.9439   22.2333 C   0  0  0  0  0  0  0  0  0  0  0  0
  -25.1472  -30.9944   21.8754 C   0  0  0  0  0  0  0  0  0  0  0  0
  -19.9711  -10.0479   22.0046 C   0  0  0  0  0  0  0  0  0  0  0  0
  -24.1327  -15.6738   18.5537 C   0  0  0  0  0  0  0  0  0  0  0  0
  -20.0863  -11.2811   21.3350 C   0  0  0  0  0  0  0  0  0  0  0  0
  -25.0057  -16.0407   19.5879 C   0  0  0  0  0  0  0  0  0  0  0  0
  -30.3776  -25.9810   20.8692 C   0  0  0  0  0  0  0  0  0  0  0  0
  -30.2539  -23.6852   20.1267 C   0  0  0  0  0  0  0  0  0  0  0  0
  -30.0732  -25.0462   19.8797 C   0  0  0  0  0  0  0  0  0  0  0  0
  -20.2697  -31.5854   23.5891 C   0  0  0  0  0  0  0  0  0  0  0  0
  -24.7570  -18.3742   18.9532 C   0  0  0  0  0  0  0  0  0  0  0  0
  -17.9831  -31.1735   23.9415 C   0  0  0  0  0  0  0  0  0  0  0  0
  -31.0434  -24.1941   22.3526 C   0  0  0  0  0  0  0  0  0  0  0  0
  -15.6878  -29.7166   23.3157 C   0  0  0  0  0  0  0  0  0  0  0  0
  -17.3338  -30.4358   24.9314 C   0  0  0  0  0  0  0  0  0  0  0  0
  -23.8364  -30.6120   21.5327 C   0  0  0  0  0  0  0  0  0  0  0  0
  -25.9351  -30.4295   20.9025 C   0  0  0  0  0  0  0  0  0  0  0  0
  -25.6110  -31.7890   22.9750 C   0  0  0  0  0  0  0  0  0  0  0  0
  -22.9159  -13.5261   20.5563 C   0  0  0  0  0  0  0  0  0  0  0  0
  -25.9984  -12.5345   20.7496 C   0  0  0  0  0  0  0  0  0  0  0  0
  -29.2522  -14.0779   20.9702 C   0  0  0  0  0  0  0  0  0  0  0  0
  -27.3149  -26.0994   17.6635 C   0  0  0  0  0  0  0  0  0  0  0  0
  -20.7930   -9.7301   23.2286 C   0  0  0  0  0  0  0  0  0  0  0  0
  -23.8115  -14.2254   18.3058 C   0  0  0  0  0  0  0  0  0  0  0  0
  -25.6250  -15.0175   20.5033 C   0  0  0  0  0  0  0  0  0  0  0  0
  -22.0138  -10.6316   23.3935 C   0  0  0  0  0  0  0  0  0  0  0  0
  -24.6869  -28.2165   16.5286 C   0  0  0  0  0  0  0  0  0  0  0  0
  -21.6315  -12.0926   23.1788 C   0  0  0  0  0  0  0  0  0  0  0  0
  -29.9251  -23.1161   26.2747 C   0  0  0  0  0  0  0  0  0  0  0  0
  -30.1025  -21.6233   26.2752 C   0  0  0  0  0  0  0  0  0  0  0  0
  -28.0207  -21.5872   17.8373 C   0  0  0  0  0  0  0  0  0  0  0  0
  -28.3201  -21.1734   20.3142 C   0  0  0  0  0  0  0  0  0  0  0  0
  -24.3356  -29.0551   17.7588 C   0  0  0  0  0  0  0  0  0  0  0  0
  -26.5919  -21.0594   17.9256 C   0  0  0  0  0  0  0  0  0  0  0  0
  -26.8907  -20.6462   20.3956 C   0  0  0  0  0  0  0  0  0  0  0  0
  -25.0572  -26.7846   16.9086 C   0  0  0  0  0  0  0  0  0  0  0  0
  -25.7688  -27.5072   19.1548 C   0  0  0  0  0  0  0  0  0  0  0  0
  -21.1010  -12.3210   21.7583 C   0  0  1  0  0  0  0  0  0  0  0  0
  -24.0083  -13.3501   19.5397 C   0  0  1  0  0  0  0  0  0  0  0  0
  -28.4856  -22.1857   19.1722 C   0  0  0  0  0  0  0  0  0  0  0  0
  -31.0752  -22.4956   25.5310 C   0  0  0  0  0  0  0  0  0  0  0  0
  -25.4426  -28.9743   18.8272 C   0  0  2  0  0  0  0  0  0  0  0  0
  -26.4306  -20.0559   19.0643 C   0  0  0  0  0  0  0  0  0  1  0  0
  -30.1922  -27.4440   20.6314 C   0  0  0  0  0  0  0  0  0  0  0  0
  -30.5364  -26.4227   17.8176 C   0  0  0  0  0  0  0  0  0  0  0  0
  -31.5064  -13.2421   20.2511 C   0  0  0  0  0  0  0  0  0  0  0  0
  -26.2356  -11.5610   23.6316 C   0  0  0  0  0  0  0  0  0  0  0  0
  -28.6489  -12.2258   23.5841 C   0  0  0  0  0  0  0  0  0  0  0  0
  -27.8110  -10.4658   22.0275 C   0  0  0  0  0  0  0  0  0  0  0  0
  -29.7358  -16.4727   19.2999 C   0  0  0  0  0  0  0  0  0  0  0  0
  -29.9351  -22.6578   19.0759 C   0  0  0  0  0  0  0  0  0  0  0  0
  -31.0941  -22.4964   24.0173 C   0  0  0  0  0  0  0  0  0  0  0  0
  -29.5535  -25.5034   18.5537 C   0  0  2  0  0  0  0  0  0  0  0  0
  -27.1800  -12.8804   21.6232 C   0  0  1  0  0  0  0  0  0  0  0  0
  -30.3155  -14.1153   19.8875 C   0  0  2  0  0  0  0  0  0  0  0  0
  -27.4485  -11.8023   22.7109 C   0  0  0  0  0  0  0  0  0  0  0  0
  -23.7901  -29.8624   20.4282 N   0  0  0  0  0  0  0  0  0  0  0  0
  -25.0816  -29.7692   20.0684 N   0  0  0  0  0  0  0  0  0  0  0  0
  -25.2753  -13.6149   20.2243 N   0  0  0  0  0  0  0  0  0  0  0  0
  -26.1131  -26.7781   17.9240 N   0  0  0  0  0  0  0  0  0  0  0  0
  -27.2679  -30.4383   20.6877 N   0  0  0  0  0  0  0  0  0  0  0  0
  -25.9446  -31.1422   24.1729 N   0  0  0  0  0  0  0  0  0  0  0  0
  -22.1953  -12.3752   20.8128 N   0  0  0  0  0  0  0  0  0  0  0  0
  -28.3022  -13.1103   20.7199 N   0  0  0  0  0  0  0  0  0  0  0  0
  -28.2651  -26.1482   18.6761 N   0  0  0  0  0  0  0  0  0  0  0  0
  -30.7998  -15.5101   19.6850 N   0  3  0  0  0  0  0  0  0  0  0  0
  -25.7107  -33.0373   22.9030 O   0  0  0  0  0  0  0  0  0  0  0  0
  -22.7408  -14.6243   21.0711 O   0  0  0  0  0  0  0  0  0  0  0  0
  -25.7313  -11.3495   20.5350 O   0  0  0  0  0  0  0  0  0  0  0  0
  -29.2651  -14.8291   21.9428 O   0  0  0  0  0  0  0  0  0  0  0  0
  -27.5276  -25.4991   16.6045 O   0  0  0  0  0  0  0  0  0  0  0  0
  -19.1221  -31.8979   24.2508 O   0  0  0  0  0  0  0  0  0  0  0  0
  -25.0590  -19.6860   19.1532 O   0  0  0  0  0  0  0  0  0  1  0  0
  -31.5187  -23.7789   23.5585 O   0  0  0  0  0  0  0  0  0  0  0  0
  -14.5849  -29.0183   23.0154 F   0  0  0  0  0  0  0  0  0  0  0  0
  -17.8072  -30.4239   26.1850 F   0  0  0  0  0  0  0  0  0  0  0  0
  1  2  1  0  0  0  0
  1  5  2  0  0  0  0
  2  6  2  0  0  0  0
  3  8  2  0  0  0  0
  3 17  1  0  0  0  0
  4  9  1  0  0  0  0
  4 17  2  0  0  0  0
  5 19  1  0  0  0  0
  6 21  1  0  0  0  0
  7 10  2  0  0  0  0
  7 20  1  0  0  0  0
  8 26  1  0  0  0  0
  9 26  2  0  0  0  0
 10 27  1  0  0  0  0
 11 12  2  0  0  0  0
 11 28  1  0  0  0  0
 12 30  1  0  0  0  0
 13 22  1  0  0  0  0
 13 27  2  0  0  0  0
 14 23  2  0  0  0  0
 14 29  1  0  0  0  0
 15 24  1  0  0  0  0
 15 29  2  0  0  0  0
 16 30  2  0  0  0  0
 16 31  1  0  0  0  0
 17 32  1  0  0  0  0
 18 32  1  0  0  0  0
 18 33  2  0  0  0  0
 18 34  1  0  0  0  0
 19 21  2  0  0  0  0
 19 39  1  0  0  0  0
 20 22  2  0  0  0  0
 20 40  1  0  0  0  0
 21 54  1  0  0  0  0
 22 41  1  0  0  0  0
 23 25  1  0  0  0  0
 23 60  1  0  0  0  0
 24 25  2  0  0  0  0
 24 67  1  0  0  0  0
 25 69  1  0  0  0  0
 26 88  1  0  0  0  0
 27 89  1  0  0  0  0
 28 31  2  0  0  0  0
 28 88  1  0  0  0  0
 29 90  1  0  0  0  0
 30 91  1  0  0  0  0
 31 92  1  0  0  0  0
 32 73  2  0  0  0  0
 33 74  1  0  0  0  0
 33 77  1  0  0  0  0
 34 78  1  0  0  0  0
 34 83  2  0  0  0  0
 35 55  1  0  0  0  0
 35 79  1  0  0  0  0
 35 84  2  0  0  0  0
 36 70  1  0  0  0  0
 36 75  1  0  0  0  0
 36 85  2  0  0  0  0
 37 71  1  0  0  0  0
 37 80  1  0  0  0  0
 37 86  2  0  0  0  0
 38 76  1  0  0  0  0
 38 81  1  0  0  0  0
 38 87  2  0  0  0  0
 39 42  1  0  0  0  0
 40 55  1  0  0  0  0
 41 75  1  0  0  0  0
 42 44  1  0  0  0  0
 43 49  1  0  0  0  0
 43 52  1  0  0  0  0
 44 54  1  0  0  0  0
 45 46  1  0  0  0  0
 45 57  1  0  0  0  0
 46 57  1  0  0  0  0
 47 50  1  0  0  0  0
 47 56  1  0  0  0  0
 48 51  1  0  0  0  0
 48 56  1  0  0  0  0
 49 58  1  0  0  0  0
 50 59  1  0  0  0  0
 51 59  1  0  0  0  0
 52 76  1  0  0  0  0
 53 58  1  0  0  0  0
 53 76  1  0  0  0  0
 54 79  1  0  0  0  0
 55 75  1  0  0  0  0
 56 67  1  0  0  0  0
 57 68  1  0  0  0  0
 58 74  1  0  0  0  0
 59 89  1  0  0  0  0
 61 69  1  0  0  0  0
 62 71  1  0  0  0  0
 63 72  1  0  0  0  0
 64 72  1  0  0  0  0
 65 72  1  0  0  0  0
 66 82  1  0  0  0  0
 68 90  1  0  0  0  0
 69 81  1  0  0  0  0
 70 72  1  0  0  0  0
 70 80  1  0  0  0  0
 71 82  1  0  0  0  0
 73 74  1  0  0  0  0
M  CHG  1  82   1
M  ISO  4  38 100  59 101  81 100  89 101
M  END
> <Batch ID>
0145

> <Smiles>
CNC(C)C(=O)NC(C(=O)N1Cc2cc([101O:1][101CH:1]3CCC(Cc4cc(OCC5CC5)cc(C)c4C(C)[100NH:0][100C:0](=O)N4CCCC(n5nc(-c6ccc(Oc7ccc(F)cc7F)cc6)c(C(N)=O)c5N)C4)CC3)ccc2CC1C(=O)NC1CCCc2ccccc21)C(C)(C)C

> <Shape>
0.268

> <Color>
0.055

> <Negative vol penalty>
0.000

$$$$

  -OEChem-04052321283D

 85 94  0     1  0  0  0  0  0999 V2000
  -22.2372  -22.0606    8.1305 C   0  0  0  0  0  0  0  0  0  0  0  0
  -23.1323  -22.0535    9.1954 C   0  0  0  0  0  0  0  0  0  0  0  0
  -23.0850   -9.9163   19.8963 C   0  0  0  0  0  0  0  0  0  0  0  0
  -23.8767   -9.8326   22.1773 C   0  0  0  0  0  0  0  0  0  0  0  0
  -21.5376  -23.2252    7.8171 C   0  0  0  0  0  0  0  0  0  0  0  0
  -23.3293  -23.2115    9.9469 C   0  0  0  0  0  0  0  0  0  0  0  0
  -23.3772  -22.3090   14.9297 C   0  0  0  0  0  0  0  0  0  0  0  0
  -22.3564   -8.7456   20.1062 C   0  0  0  0  0  0  0  0  0  0  0  0
  -23.1480   -8.6619   22.3873 C   0  0  0  0  0  0  0  0  0  0  0  0
  -24.5448  -21.7698   15.4679 C   0  0  0  0  0  0  0  0  0  0  0  0
  -19.9368   -7.8045   22.9983 C   0  0  0  0  0  0  0  0  0  0  0  0
  -19.1967   -7.7061   24.1765 C   0  0  0  0  0  0  0  0  0  0  0  0
  -25.1974  -23.9624   16.2332 C   0  0  0  0  0  0  0  0  0  0  0  0
  -20.4678   -5.7521   24.8117 C   0  0  0  0  0  0  0  0  0  0  0  0
  -23.8452  -10.4598   20.9318 C   0  0  0  0  0  0  0  0  0  0  0  0
  -26.9295  -20.6232   19.4214 C   0  0  0  0  0  0  0  0  0  0  0  0
  -24.1599  -12.9913   20.9164 C   0  0  0  0  0  0  0  0  0  0  0  0
  -21.7189  -24.3953    8.5712 C   0  0  0  0  0  0  0  0  0  0  0  0
  -23.1157  -23.6830   15.0299 C   0  0  0  0  0  0  0  0  0  0  0  0
  -22.6325  -24.3932    9.6425 C   0  0  0  0  0  0  0  0  0  0  0  0
  -24.0246  -24.5162   15.6977 C   0  0  0  0  0  0  0  0  0  0  0  0
  -27.8321  -21.3385   18.6795 C   0  0  0  0  0  0  0  0  0  0  0  0
  -27.2443  -19.6015   20.2678 C   0  0  0  0  0  0  0  0  0  0  0  0
  -22.3879   -8.1184   21.3517 C   0  0  0  0  0  0  0  0  0  0  0  0
  -25.4565  -22.5969   16.1173 C   0  0  0  0  0  0  0  0  0  0  0  0
  -20.9424   -6.8766   22.7267 C   0  0  0  0  0  0  0  0  0  0  0  0
  -19.4622   -6.6799   25.0832 C   0  0  0  0  0  0  0  0  0  0  0  0
  -21.2078   -5.8505   23.6335 C   0  0  0  0  0  0  0  0  0  0  0  0
  -24.5986  -11.6688   20.7154 C   0  0  0  0  0  0  0  0  0  0  0  0
  -29.1507  -21.0139   18.7900 C   0  0  0  0  0  0  0  0  0  0  0  0
  -28.6037  -19.3376   20.3197 C   0  0  0  0  0  0  0  0  0  0  0  0
  -25.2392  -13.7674   20.5711 C   0  0  0  0  0  0  0  0  0  0  0  0
  -25.8032  -21.3593   18.9198 C   0  0  0  0  0  0  0  0  0  0  0  0
  -22.8902  -13.4750   21.3743 C   0  0  0  0  0  0  0  0  0  0  0  0
  -22.7220  -26.0493   12.9443 C   0  0  0  0  0  0  0  0  0  0  0  0
  -21.9864  -27.7513   15.6060 C   0  0  0  0  0  0  0  0  0  0  0  0
  -22.2805  -28.1131   18.9867 C   0  0  0  0  0  0  0  0  0  0  0  0
  -30.7145  -14.8358   20.7293 C   0  0  0  0  0  0  0  0  0  0  0  0
  -20.9755  -25.6431    8.1650 C   0  0  0  0  0  0  0  0  0  0  0  0
  -21.8388  -24.2448   14.4674 C   0  0  0  0  0  0  0  0  0  0  0  0
  -23.7809  -25.9946   15.8499 C   0  0  0  0  0  0  0  0  0  0  0  0
  -20.9624  -26.7228    9.2441 C   0  0  0  0  0  0  0  0  0  0  0  0
  -29.5678  -12.5443   18.2573 C   0  0  0  0  0  0  0  0  0  0  0  0
  -22.3589  -26.9104    9.8284 C   0  0  0  0  0  0  0  0  0  0  0  0
  -28.1396  -12.2169   18.6965 C   0  0  0  0  0  0  0  0  0  0  0  0
  -30.4994  -12.7230   19.4541 C   0  0  0  0  0  0  0  0  0  0  0  0
  -28.6099  -13.3733   20.8965 C   0  0  0  0  0  0  0  0  0  0  0  0
  -26.7945  -22.2255   18.0480 C   0  0  2  0  0  0  0  0  0  1  0  0
  -22.8549  -25.6224   10.4967 C   0  0  1  0  0  0  0  0  0  0  0  0
  -21.9207  -25.7403   14.1773 C   0  0  1  0  0  0  0  0  0  0  0  0
  -27.6212  -13.2392   19.7257 C   0  0  2  0  0  0  0  0  0  0  0  0
  -26.2263  -18.8582   21.0441 C   0  0  0  0  0  0  0  0  0  0  0  0
  -30.1856  -21.7490   18.0158 C   0  0  0  0  0  0  0  0  0  0  0  0
  -21.6004  -29.6222   20.8729 C   0  0  0  0  0  0  0  0  0  0  0  0
  -24.0927  -29.7812   14.7383 C   0  0  0  0  0  0  0  0  0  0  0  0
  -24.0461  -30.7176   17.0597 C   0  0  0  0  0  0  0  0  0  0  0  0
  -21.9902  -30.7838   15.6485 C   0  0  0  0  0  0  0  0  0  0  0  0
  -20.7897  -25.9434   20.3389 C   0  0  0  0  0  0  0  0  0  0  0  0
  -30.7759  -16.9317   22.0569 C   0  0  0  0  0  0  0  0  0  0  0  0
  -30.4622  -18.1058   21.1469 C   0  0  0  0  0  0  0  0  0  0  0  0
  -22.7704  -28.5748   16.5990 C   0  0  1  0  0  0  0  0  0  0  0  0
  -21.2463  -28.3836   20.0646 C   0  0  2  0  0  0  0  0  0  0  0  0
  -23.2307  -29.9368   16.0070 C   0  0  0  0  0  0  0  0  0  0  0  0
  -25.8584  -11.6046   20.2763 N   0  0  0  0  0  0  0  0  0  0  0  0
  -29.5620  -20.0116   19.6082 N   0  0  0  0  0  0  0  0  0  0  0  0
  -26.2205  -12.8965   20.1985 N   0  0  0  0  0  0  0  0  0  0  0  0
  -22.5211  -26.4975   15.2775 N   0  0  0  0  0  0  0  0  0  0  0  0
  -29.9509  -13.7065   20.3910 N   0  0  0  0  0  0  0  0  0  0  0  0
  -25.4352  -15.1029   20.5529 N   0  0  0  0  0  0  0  0  0  0  0  0
  -21.8923  -12.5414   21.6856 N   0  0  0  0  0  0  0  0  0  0  0  0
  -22.2367  -25.4560   11.7946 N   0  0  0  0  0  0  0  0  0  0  0  0
  -21.9299  -28.6925   17.7856 N   0  0  0  0  0  0  0  0  0  0  0  0
  -30.1178  -15.7211   21.6187 N   0  0  0  0  0  0  0  0  0  0  0  0
  -21.1543  -27.2245   20.9967 N   0  3  0  0  0  0  0  0  0  0  0  0
  -24.6304  -21.2424   19.1532 O   0  0  0  0  0  0  0  0  0  0  0  0
  -22.6424  -14.6994   21.4880 O   0  0  0  0  0  0  0  0  0  0  0  0
  -23.7068  -26.7737   13.0295 O   0  0  0  0  0  0  0  0  0  0  0  0
  -20.9345  -28.2008   15.1444 O   0  0  0  0  0  0  0  0  0  0  0  0
  -23.2995  -27.4569   19.1909 O   0  0  0  0  0  0  0  0  0  0  0  0
  -31.8422  -15.0428   20.2683 O   0  0  0  0  0  0  0  0  0  0  0  0
  -21.6768   -6.9761   21.5570 O   0  0  0  0  0  0  0  0  0  0  0  0
  -26.5973  -22.0733   16.6429 O   0  0  0  0  0  0  0  0  0  1  0  0
  -29.0584  -18.3314   21.1340 O   0  0  0  0  0  0  0  0  0  0  0  0
  -18.7524   -6.5864   26.2153 F   0  0  0  0  0  0  0  0  0  0  0  0
  -22.1734   -4.9568   23.3786 F   0  0  0  0  0  0  0  0  0  0  0  0
  1  2  1  0  0  0  0
  1  5  2  0  0  0  0
  2  6  2  0  0  0  0
  3  8  2  0  0  0  0
  3 15  1  0  0  0  0
  4  9  1  0  0  0  0
  4 15  2  0  0  0  0
  5 18  1  0  0  0  0
  6 20  1  0  0  0  0
  7 10  2  0  0  0  0
  7 19  1  0  0  0  0
  8 24  1  0  0  0  0
  9 24  2  0  0  0  0
 10 25  1  0  0  0  0
 11 12  2  0  0  0  0
 11 26  1  0  0  0  0
 12 27  1  0  0  0  0
 13 21  1  0  0  0  0
 13 25  2  0  0  0  0
 14 27  2  0  0  0  0
 14 28  1  0  0  0  0
 15 29  1  0  0  0  0
 16 22  2  0  0  0  0
 16 23  1  0  0  0  0
 16 33  1  0  0  0  0
 17 29  1  0  0  0  0
 17 32  2  0  0  0  0
 17 34  1  0  0  0  0
 18 20  2  0  0  0  0
 18 39  1  0  0  0  0
 19 21  2  0  0  0  0
 19 40  1  0  0  0  0
 20 49  1  0  0  0  0
 21 41  1  0  0  0  0
 22 30  1  0  0  0  0
 22 48  1  0  0  0  0
 23 31  2  0  0  0  0
 23 52  1  0  0  0  0
 24 81  1  0  0  0  0
 25 82  1  0  0  0  0
 26 28  2  0  0  0  0
 26 81  1  0  0  0  0
 27 84  1  0  0  0  0
 28 85  1  0  0  0  0
 29 64  2  0  0  0  0
 30 53  1  0  0  0  0
 30 65  2  0  0  0  0
 31 65  1  0  0  0  0
 31 83  1  0  0  0  0
 32 66  1  0  0  0  0
 32 69  1  0  0  0  0
 33 48  1  0  0  0  0
 33 75  2  0  0  0  0
 34 70  1  0  0  0  0
 34 76  2  0  0  0  0
 35 50  1  0  0  0  0
 35 71  1  0  0  0  0
 35 77  2  0  0  0  0
 36 61  1  0  0  0  0
 36 67  1  0  0  0  0
 36 78  2  0  0  0  0
 37 62  1  0  0  0  0
 37 72  1  0  0  0  0
 37 79  2  0  0  0  0
 38 68  1  0  0  0  0
 38 73  1  0  0  0  0
 38 80  2  0  0  0  0
 39 42  1  0  0  0  0
 40 50  1  0  0  0  0
 41 67  1  0  0  0  0
 42 44  1  0  0  0  0
 43 45  1  0  0  0  0
 43 46  1  0  0  0  0
 44 49  1  0  0  0  0
 45 51  1  0  0  0  0
 46 68  1  0  0  0  0
 47 51  1  0  0  0  0
 47 68  1  0  0  0  0
 48 82  1  0  0  0  0
 49 71  1  0  0  0  0
 50 67  1  0  0  0  0
 51 66  1  0  0  0  0
 54 62  1  0  0  0  0
 55 63  1  0  0  0  0
 56 63  1  0  0  0  0
 57 63  1  0  0  0  0
 58 74  1  0  0  0  0
 59 60  1  0  0  0  0
 59 73  1  0  0  0  0
 60 83  1  0  0  0  0
 61 63  1  0  0  0  0
 61 72  1  0  0  0  0
 62 74  1  0  0  0  0
 64 66  1  0  0  0  0
M  CHG  1  74   1
M  ISO  4  38 100  48 101  73 100  82 101
M  END
> <Batch ID>
0145

> <Smiles>
CNC(C)C(=O)NC(C(=O)N1Cc2cc([101O:1][101CH:1]3C(=O)c4c(C)c(OCC[100NH:0][100C:0](=O)N5CCCC(n6nc(-c7ccc(Oc8ccc(F)cc8F)cc7)c(C(N)=O)c6N)C5)nc(C)c43)ccc2CC1C(=O)NC1CCCc2ccccc21)C(C)(C)C

> <Shape>
0.223

> <Color>
0.199

> <Negative vol penalty>
0.000

$$$$

  -OEChem-04052321283D

 91102  0     1  0  0  0  0  0999 V2000
  -30.6973  -17.8548   24.0799 C   0  0  0  0  0  0  0  0  0  0  0  0
  -29.6581  -17.0845   24.5917 C   0  0  0  0  0  0  0  0  0  0  0  0
  -23.1959   -9.8248   19.9350 C   0  0  0  0  0  0  0  0  0  0  0  0
  -23.6090   -9.9970   22.3092 C   0  0  0  0  0  0  0  0  0  0  0  0
  -31.5109  -18.5876   24.9430 C   0  0  0  0  0  0  0  0  0  0  0  0
  -29.4324  -17.0457   25.9672 C   0  0  0  0  0  0  0  0  0  0  0  0
  -24.5275  -17.4929   27.1446 C   0  0  0  0  0  0  0  0  0  0  0  0
  -22.4394   -8.6728   20.1502 C   0  0  0  0  0  0  0  0  0  0  0  0
  -22.8524   -8.8451   22.5244 C   0  0  0  0  0  0  0  0  0  0  0  0
  -23.7295  -16.3603   26.9890 C   0  0  0  0  0  0  0  0  0  0  0  0
  -23.2685   -5.5019   22.2395 C   0  0  0  0  0  0  0  0  0  0  0  0
  -23.7855   -4.5397   23.1068 C   0  0  0  0  0  0  0  0  0  0  0  0
  -23.8794  -15.9366   29.3591 C   0  0  0  0  0  0  0  0  0  0  0  0
  -21.8487   -4.7823   24.5305 C   0  0  0  0  0  0  0  0  0  0  0  0
  -23.7808  -10.4869   21.0146 C   0  0  0  0  0  0  0  0  0  0  0  0
  -24.1015  -13.0064   20.7769 C   0  0  0  0  0  0  0  0  0  0  0  0
  -31.2890  -18.5654   26.3290 C   0  0  0  0  0  0  0  0  0  0  0  0
  -25.0173  -17.8504   28.4090 C   0  0  0  0  0  0  0  0  0  0  0  0
  -30.2446  -17.7778   26.8498 C   0  0  0  0  0  0  0  0  0  0  0  0
  -24.6813  -17.0756   29.5284 C   0  0  0  0  0  0  0  0  0  0  0  0
  -22.2676   -8.1830   21.4448 C   0  0  0  0  0  0  0  0  0  0  0  0
  -23.4077  -15.5804   28.0959 C   0  0  0  0  0  0  0  0  0  0  0  0
  -22.0416   -6.1045   22.5177 C   0  0  0  0  0  0  0  0  0  0  0  0
  -23.0756   -4.1798   24.2523 C   0  0  0  0  0  0  0  0  0  0  0  0
  -21.3317   -5.7446   23.6632 C   0  0  0  0  0  0  0  0  0  0  0  0
  -24.5628  -11.6765   20.7929 C   0  0  0  0  0  0  0  0  0  0  0  0
  -25.2247  -13.7566   20.5280 C   0  0  0  0  0  0  0  0  0  0  0  0
  -22.7760  -13.5180   20.9699 C   0  0  0  0  0  0  0  0  0  0  0  0
  -27.9105  -18.1596   29.6886 C   0  0  0  0  0  0  0  0  0  0  0  0
  -26.2397  -19.2917   32.2282 C   0  0  0  0  0  0  0  0  0  0  0  0
  -23.2899  -19.3974   33.9411 C   0  0  0  0  0  0  0  0  0  0  0  0
  -30.9676  -12.9936   21.4494 C   0  0  0  0  0  0  0  0  0  0  0  0
  -32.2243  -19.3367   27.2263 C   0  0  0  0  0  0  0  0  0  0  0  0
  -25.8548  -19.0901   28.5642 C   0  0  0  0  0  0  0  0  0  0  0  0
  -25.1650  -17.4277   30.9106 C   0  0  0  0  0  0  0  0  0  0  0  0
  -31.6845  -19.5376   28.6400 C   0  0  0  0  0  0  0  0  0  0  0  0
  -29.4850  -13.5368   18.3736 C   0  0  0  0  0  0  0  0  0  0  0  0
  -31.1240  -18.2291   29.1883 C   0  0  0  0  0  0  0  0  0  0  0  0
  -29.9074  -11.1993   29.6367 C   0  0  0  0  0  0  0  0  0  0  0  0
  -30.8677  -11.6851   28.5871 C   0  0  0  0  0  0  0  0  0  0  0  0
  -20.3514  -10.6291   27.5267 C   0  0  0  0  0  0  0  0  0  0  0  0
  -19.9562  -11.4657   28.7115 C   0  0  0  0  0  0  0  0  0  0  0  0
  -28.0045  -13.2559   18.6299 C   0  0  0  0  0  0  0  0  0  0  0  0
  -30.0817  -14.2482   24.8210 C   0  0  0  0  0  0  0  0  0  0  0  0
  -29.1460  -11.9255   24.5411 C   0  0  0  0  0  0  0  0  0  0  0  0
  -25.7374  -10.9492   26.4461 C   0  0  0  0  0  0  0  0  0  0  0  0
  -30.3657  -12.5221   19.0939 C   0  0  0  0  0  0  0  0  0  0  0  0
  -31.0957  -13.9524   23.7194 C   0  0  0  0  0  0  0  0  0  0  0  0
  -30.1804  -11.6717   23.4495 C   0  0  0  0  0  0  0  0  0  0  0  0
  -28.6486  -12.1721   20.8387 C   0  0  0  0  0  0  0  0  0  0  0  0
  -29.9527  -17.7297   28.3339 C   0  0  1  0  0  0  0  0  0  0  0  0
  -26.7232  -19.0713   29.8184 C   0  0  1  0  0  0  0  0  0  0  0  0
  -29.5351  -12.3605   28.7570 C   0  0  0  0  0  0  0  0  0  0  0  0
  -21.0115  -11.9596   27.7610 C   0  0  0  0  0  0  0  0  0  0  0  0
  -29.6450  -12.9700   25.5486 C   0  0  0  0  0  0  0  0  0  0  0  0
  -25.9131  -12.1927   27.2763 C   0  0  1  0  0  0  0  0  0  0  0  0
  -27.7103  -13.1755   20.1384 C   0  0  2  0  0  0  0  0  0  0  0  0
  -24.7347  -11.2870   27.5160 C   0  0  1  0  0  0  0  0  0  0  0  0
  -22.2416  -20.3764   36.0002 C   0  0  0  0  0  0  0  0  0  0  0  0
  -27.6989  -17.2350   33.9459 C   0  0  0  0  0  0  0  0  0  0  0  0
  -25.9730  -17.5976   35.7230 C   0  0  0  0  0  0  0  0  0  0  0  0
  -27.4392  -19.4846   35.0071 C   0  0  0  0  0  0  0  0  0  0  0  0
  -21.2864  -20.8885   32.3531 C   0  0  0  0  0  0  0  0  0  0  0  0
  -28.5715  -13.2766   26.5901 C   0  0  0  0  0  0  0  0  0  0  0  0
  -27.0350  -12.2746   28.3023 C   0  0  0  0  0  0  0  0  0  0  0  0
  -22.8100  -13.3648   28.8393 C   0  0  0  0  0  0  0  0  0  1  0  0
  -25.6135  -18.6762   33.4562 C   0  0  1  0  0  0  0  0  0  0  0  0
  -22.4979  -20.5596   34.5124 C   0  0  2  0  0  0  0  0  0  0  0  0
  -28.4489  -12.2023   27.6886 C   0  0  2  0  0  0  0  0  0  0  0  0
  -22.4472  -12.0258   28.1944 C   0  0  2  0  0  0  0  0  0  0  0  0
  -26.6735  -18.2404   34.5068 C   0  0  0  0  0  0  0  0  0  0  0  0
  -25.8768  -11.5839   20.5716 N   0  0  0  0  0  0  0  0  0  0  0  0
  -26.2506  -12.8651   20.4141 N   0  0  0  0  0  0  0  0  0  0  0  0
  -25.9862  -18.6457   31.0099 N   0  0  0  0  0  0  0  0  0  0  0  0
  -30.0528  -12.4726   20.5219 N   0  0  0  0  0  0  0  0  0  0  0  0
  -30.6072  -12.9210   22.8052 N   0  0  0  0  0  0  0  0  0  0  0  0
  -25.4251  -15.0852   20.3975 N   0  0  0  0  0  0  0  0  0  0  0  0
  -21.7381  -12.6087   21.2157 N   0  0  0  0  0  0  0  0  0  0  0  0
  -28.7508  -18.4761   28.6383 N   0  0  0  0  0  0  0  0  0  0  0  0
  -24.6456  -19.6488   33.9518 N   0  0  0  0  0  0  0  0  0  0  0  0
  -23.4145  -11.7621   27.0854 N   0  3  0  0  0  0  0  0  0  0  0  0
  -21.1836  -20.6808   33.8205 N   0  3  0  0  0  0  0  0  0  0  0  0
  -22.5168  -14.7438   20.9095 O   0  0  0  0  0  0  0  0  0  0  0  0
  -28.0544  -17.2382   30.4836 O   0  0  0  0  0  0  0  0  0  0  0  0
  -26.9227  -20.3124   32.3446 O   0  0  0  0  0  0  0  0  0  0  0  0
  -22.7592  -18.3679   33.5300 O   0  0  0  0  0  0  0  0  0  0  0  0
  -32.0394  -13.4974   21.0909 O   0  0  0  0  0  0  0  0  0  0  0  0
  -21.5293   -7.0591   21.6552 O   0  0  0  0  0  0  0  0  0  0  0  0
  -22.6144  -14.4524   27.9439 O   0  0  0  0  0  0  0  0  0  1  0  0
  -23.5715   -3.2546   25.0844 F   0  0  0  0  0  0  0  0  0  0  0  0
  -20.1519   -6.3192   23.9351 F   0  0  0  0  0  0  0  0  0  0  0  0
  1  2  1  0  0  0  0
  1  5  2  0  0  0  0
  2  6  2  0  0  0  0
  3  8  2  0  0  0  0
  3 15  1  0  0  0  0
  4  9  1  0  0  0  0
  4 15  2  0  0  0  0
  5 17  1  0  0  0  0
  6 19  1  0  0  0  0
  7 10  2  0  0  0  0
  7 18  1  0  0  0  0
  8 21  1  0  0  0  0
  9 21  2  0  0  0  0
 10 22  1  0  0  0  0
 11 12  2  0  0  0  0
 11 23  1  0  0  0  0
 12 24  1  0  0  0  0
 13 20  1  0  0  0  0
 13 22  2  0  0  0  0
 14 24  2  0  0  0  0
 14 25  1  0  0  0  0
 15 26  1  0  0  0  0
 16 26  1  0  0  0  0
 16 27  2  0  0  0  0
 16 28  1  0  0  0  0
 17 19  2  0  0  0  0
 17 33  1  0  0  0  0
 18 20  2  0  0  0  0
 18 34  1  0  0  0  0
 19 51  1  0  0  0  0
 20 35  1  0  0  0  0
 21 88  1  0  0  0  0
 22 89  1  0  0  0  0
 23 25  2  0  0  0  0
 23 88  1  0  0  0  0
 24 90  1  0  0  0  0
 25 91  1  0  0  0  0
 26 72  2  0  0  0  0
 27 73  1  0  0  0  0
 27 77  1  0  0  0  0
 28 78  1  0  0  0  0
 28 83  2  0  0  0  0
 29 52  1  0  0  0  0
 29 79  1  0  0  0  0
 29 84  2  0  0  0  0
 30 67  1  0  0  0  0
 30 74  1  0  0  0  0
 30 85  2  0  0  0  0
 31 68  1  0  0  0  0
 31 80  1  0  0  0  0
 31 86  2  0  0  0  0
 32 75  1  0  0  0  0
 32 76  1  0  0  0  0
 32 87  2  0  0  0  0
 33 36  1  0  0  0  0
 34 52  1  0  0  0  0
 35 74  1  0  0  0  0
 36 38  1  0  0  0  0
 37 43  1  0  0  0  0
 37 47  1  0  0  0  0
 38 51  1  0  0  0  0
 39 40  1  0  0  0  0
 39 53  1  0  0  0  0
 40 53  1  0  0  0  0
 41 42  1  0  0  0  0
 41 54  1  0  0  0  0
 42 54  1  0  0  0  0
 43 57  1  0  0  0  0
 44 48  1  0  0  0  0
 44 55  1  0  0  0  0
 45 49  1  0  0  0  0
 45 55  1  0  0  0  0
 46 56  1  0  0  0  0
 46 58  1  0  0  0  0
 47 75  1  0  0  0  0
 48 76  1  0  0  0  0
 49 76  1  0  0  0  0
 50 57  1  0  0  0  0
 50 75  1  0  0  0  0
 51 79  1  0  0  0  0
 52 74  1  0  0  0  0
 53 69  1  0  0  0  0
 54 70  1  0  0  0  0
 55 64  1  0  0  0  0
 56 58  1  0  0  0  0
 56 65  1  0  0  0  0
 57 73  1  0  0  0  0
 58 81  1  0  0  0  0
 59 68  1  0  0  0  0
 60 71  1  0  0  0  0
 61 71  1  0  0  0  0
 62 71  1  0  0  0  0
 63 82  1  0  0  0  0
 64 69  1  0  0  0  0
 65 69  1  0  0  0  0
 66 70  1  0  0  0  0
 66 89  1  0  0  0  0
 67 71  1  0  0  0  0
 67 80  1  0  0  0  0
 68 82  1  0  0  0  0
 70 81  1  0  0  0  0
 72 73  1  0  0  0  0
M  CHG  2  81   1  82   1
M  ISO  4  32 100  66 101  76 100  89 101
M  END
> <Batch ID>
0145

> <Smiles>
CNC(C)C(=O)NC(C(=O)N1Cc2cc([101O:1][101CH2:1]C(NC3CC3CC(CC3CC[100N:0]([100C:0](=O)N4CCCC(n5nc(-c6ccc(Oc7ccc(F)cc7F)cc6)c(C(N)=O)c5N)C4)CC3)C3CC3)C3CC3)ccc2CC1C(=O)NC1CCCc2ccccc21)C(C)(C)C

> <Shape>
0.140

> <Color>
0.187

> <Negative vol penalty>
0.000

$$$$

  -OEChem-04052321283D

 86 95  0     1  0  0  0  0  0999 V2000
  -31.6977  -32.1063   12.1624 C   0  0  0  0  0  0  0  0  0  0  0  0
  -31.8160  -31.3528   13.3259 C   0  0  0  0  0  0  0  0  0  0  0  0
  -23.0959   -9.8315   19.9583 C   0  0  0  0  0  0  0  0  0  0  0  0
  -23.8425   -9.8816   22.2555 C   0  0  0  0  0  0  0  0  0  0  0  0
  -30.6240  -31.8904   11.2996 C   0  0  0  0  0  0  0  0  0  0  0  0
  -30.8599  -30.3837   13.6278 C   0  0  0  0  0  0  0  0  0  0  0  0
  -31.8091  -25.0255   16.4376 C   0  0  0  0  0  0  0  0  0  0  0  0
  -32.2724  -18.6683   21.9483 C   0  0  0  0  0  0  0  0  0  0  0  0
  -31.7916  -17.4333   21.5135 C   0  0  0  0  0  0  0  0  0  0  0  0
  -22.3637   -8.6739   20.2214 C   0  0  0  0  0  0  0  0  0  0  0  0
  -23.1103   -8.7239   22.5187 C   0  0  0  0  0  0  0  0  0  0  0  0
  -31.6392  -24.6166   17.7596 C   0  0  0  0  0  0  0  0  0  0  0  0
  -19.8879   -7.8986   23.1152 C   0  0  0  0  0  0  0  0  0  0  0  0
  -19.1247   -7.8676   24.2823 C   0  0  0  0  0  0  0  0  0  0  0  0
  -29.4662  -23.7311   17.1999 C   0  0  0  0  0  0  0  0  0  0  0  0
  -29.7161  -17.8288   22.6853 C   0  0  0  0  0  0  0  0  0  0  0  0
  -20.3837   -5.9557   25.0548 C   0  0  0  0  0  0  0  0  0  0  0  0
  -23.8354  -10.4354   20.9753 C   0  0  0  0  0  0  0  0  0  0  0  0
  -24.1494  -12.9622   20.8191 C   0  0  0  0  0  0  0  0  0  0  0  0
  -29.6595  -30.9115   11.5862 C   0  0  0  0  0  0  0  0  0  0  0  0
  -30.8026  -24.7997   15.4876 C   0  0  0  0  0  0  0  0  0  0  0  0
  -29.7716  -30.1554   12.7687 C   0  0  0  0  0  0  0  0  0  0  0  0
  -29.6269  -24.1359   15.8659 C   0  0  0  0  0  0  0  0  0  0  0  0
  -31.4751  -19.4836   22.7517 C   0  0  0  0  0  0  0  0  0  0  0  0
  -30.5135  -17.0135   21.8820 C   0  0  0  0  0  0  0  0  0  0  0  0
  -22.3708   -8.1201   21.5016 C   0  0  0  0  0  0  0  0  0  0  0  0
  -30.4663  -23.9718   18.1415 C   0  0  0  0  0  0  0  0  0  0  0  0
  -20.8989   -6.9580   22.9177 C   0  0  0  0  0  0  0  0  0  0  0  0
  -30.1970  -19.0638   23.1201 C   0  0  0  0  0  0  0  0  0  0  0  0
  -19.3726   -6.8962   25.2521 C   0  0  0  0  0  0  0  0  0  0  0  0
  -21.1468   -5.9866   23.8876 C   0  0  0  0  0  0  0  0  0  0  0  0
  -24.5925  -11.6309   20.7039 C   0  0  0  0  0  0  0  0  0  0  0  0
  -25.2351  -13.7185   20.4507 C   0  0  0  0  0  0  0  0  0  0  0  0
  -22.8708  -13.4697   21.2232 C   0  0  0  0  0  0  0  0  0  0  0  0
  -28.9786  -26.6600   13.6667 C   0  0  0  0  0  0  0  0  0  0  0  0
  -28.0235  -23.8274   12.4073 C   0  0  0  0  0  0  0  0  0  0  0  0
  -27.6494  -20.4587   12.8056 C   0  0  0  0  0  0  0  0  0  0  0  0
  -30.6881  -14.8287   20.6401 C   0  0  0  0  0  0  0  0  0  0  0  0
  -28.4910  -30.7468   10.6471 C   0  0  0  0  0  0  0  0  0  0  0  0
  -31.0126  -25.2231   14.0597 C   0  0  0  0  0  0  0  0  0  0  0  0
  -28.5245  -23.8514   14.8799 C   0  0  0  0  0  0  0  0  0  0  0  0
  -27.7243  -29.4427   10.8516 C   0  0  0  0  0  0  0  0  0  0  0  0
  -29.6146  -12.3671   18.3023 C   0  0  0  0  0  0  0  0  0  0  0  0
  -27.4565  -29.2078   12.3348 C   0  0  0  0  0  0  0  0  0  0  0  0
  -33.6001  -21.6556   25.1239 C   0  0  0  0  0  0  0  0  0  0  0  0
  -33.0266  -20.3424   25.5782 C   0  0  0  0  0  0  0  0  0  0  0  0
  -28.1759  -12.0656   18.7282 C   0  0  0  0  0  0  0  0  0  0  0  0
  -30.5201  -12.6243   19.5054 C   0  0  0  0  0  0  0  0  0  0  0  0
  -28.5972  -13.3476   20.8650 C   0  0  0  0  0  0  0  0  0  0  0  0
  -28.7682  -29.0779   13.1184 C   0  0  1  0  0  0  0  0  0  0  0  0
  -29.7068  -25.4006   13.2910 C   0  0  1  0  0  0  0  0  0  0  0  0
  -33.2155  -20.6128   24.1113 C   0  0  0  0  0  0  0  0  0  0  0  0
  -27.6332  -13.1457   19.6845 C   0  0  2  0  0  0  0  0  0  0  0  0
  -26.8052  -18.4162   11.6169 C   0  0  0  0  0  0  0  0  0  0  0  0
  -25.1516  -24.6830   12.9819 C   0  0  0  0  0  0  0  0  0  0  0  0
  -24.4536  -22.2982   12.6763 C   0  0  0  0  0  0  0  0  0  0  0  0
  -25.4808  -23.5483   10.7777 C   0  0  0  0  0  0  0  0  0  0  0  0
  -30.3161  -19.1765   12.8706 C   0  0  0  0  0  0  0  0  0  0  0  0
  -28.1137  -19.3412   24.2331 C   0  0  0  0  0  0  0  0  0  0  0  0
  -31.1304  -22.1944   21.2345 C   0  0  0  0  0  0  0  0  0  0  0  0
  -32.3598  -21.7905   22.0600 C   0  0  0  0  0  0  0  0  0  0  0  0
  -31.4724  -23.2222   20.1619 C   0  0  0  0  0  0  0  0  0  1  0  0
  -32.0158  -20.8259   23.2161 C   0  0  1  0  0  0  0  0  0  0  0  0
  -26.9324  -22.8320   12.7199 C   0  0  1  0  0  0  0  0  0  0  0  0
  -28.0147  -19.2913   11.9065 C   0  0  2  0  0  0  0  0  0  0  0  0
  -25.5244  -23.3473   12.3082 C   0  0  0  0  0  0  0  0  0  0  0  0
  -25.8607  -11.5432   20.2942 N   0  0  0  0  0  0  0  0  0  0  0  0
  -26.2238  -12.8289   20.1486 N   0  0  0  0  0  0  0  0  0  0  0  0
  -28.7743  -24.2905   13.4970 N   0  0  0  0  0  0  0  0  0  0  0  0
  -29.9445  -13.6617   20.3640 N   0  0  0  0  0  0  0  0  0  0  0  0
  -25.4309  -15.0510   20.3588 N   0  0  0  0  0  0  0  0  0  0  0  0
  -21.8673  -12.5543   21.5685 N   0  0  0  0  0  0  0  0  0  0  0  0
  -30.0256  -15.7585   21.4408 N   0  0  0  0  0  0  0  0  0  0  0  0
  -29.3457  -27.7653   12.9230 N   0  0  0  0  0  0  0  0  0  0  0  0
  -27.3231  -21.5824   12.0763 N   0  0  0  0  0  0  0  0  0  0  0  0
  -29.0611  -18.4485   12.5513 N   0  3  0  0  0  0  0  0  0  0  0  0
  -22.6204  -14.6983   21.2606 O   0  0  0  0  0  0  0  0  0  0  0  0
  -28.1444  -26.6309   14.5638 O   0  0  0  0  0  0  0  0  0  0  0  0
  -28.2076  -24.1755   11.2383 O   0  0  0  0  0  0  0  0  0  0  0  0
  -27.6497  -20.3803   14.0321 O   0  0  0  0  0  0  0  0  0  0  0  0
  -31.8178  -15.0032   20.1763 O   0  0  0  0  0  0  0  0  0  0  0  0
  -21.6562   -6.9906   21.7588 O   0  0  0  0  0  0  0  0  0  0  0  0
  -29.4056  -19.8480   23.9046 O   0  0  0  0  0  0  0  0  0  0  0  0
  -30.2976  -23.5722   19.4314 O   0  0  0  0  0  0  0  0  0  1  0  0
  -18.6407   -6.8675   26.3735 F   0  0  0  0  0  0  0  0  0  0  0  0
  -22.1175   -5.0812   23.7041 F   0  0  0  0  0  0  0  0  0  0  0  0
  1  2  1  0  0  0  0
  1  5  2  0  0  0  0
  2  6  2  0  0  0  0
  3 10  2  0  0  0  0
  3 18  1  0  0  0  0
  4 11  1  0  0  0  0
  4 18  2  0  0  0  0
  5 20  1  0  0  0  0
  6 22  1  0  0  0  0
  7 12  2  0  0  0  0
  7 21  1  0  0  0  0
  8  9  2  0  0  0  0
  8 24  1  0  0  0  0
  9 25  1  0  0  0  0
 10 26  1  0  0  0  0
 11 26  2  0  0  0  0
 12 27  1  0  0  0  0
 13 14  2  0  0  0  0
 13 28  1  0  0  0  0
 14 30  1  0  0  0  0
 15 23  1  0  0  0  0
 15 27  2  0  0  0  0
 16 25  2  0  0  0  0
 16 29  1  0  0  0  0
 17 30  2  0  0  0  0
 17 31  1  0  0  0  0
 18 32  1  0  0  0  0
 19 32  1  0  0  0  0
 19 33  2  0  0  0  0
 19 34  1  0  0  0  0
 20 22  2  0  0  0  0
 20 39  1  0  0  0  0
 21 23  2  0  0  0  0
 21 40  1  0  0  0  0
 22 50  1  0  0  0  0
 23 41  1  0  0  0  0
 24 29  2  0  0  0  0
 24 63  1  0  0  0  0
 25 73  1  0  0  0  0
 26 82  1  0  0  0  0
 27 84  1  0  0  0  0
 28 31  2  0  0  0  0
 28 82  1  0  0  0  0
 29 83  1  0  0  0  0
 30 85  1  0  0  0  0
 31 86  1  0  0  0  0
 32 67  2  0  0  0  0
 33 68  1  0  0  0  0
 33 71  1  0  0  0  0
 34 72  1  0  0  0  0
 34 77  2  0  0  0  0
 35 51  1  0  0  0  0
 35 74  1  0  0  0  0
 35 78  2  0  0  0  0
 36 64  1  0  0  0  0
 36 69  1  0  0  0  0
 36 79  2  0  0  0  0
 37 65  1  0  0  0  0
 37 75  1  0  0  0  0
 37 80  2  0  0  0  0
 38 70  1  0  0  0  0
 38 73  1  0  0  0  0
 38 81  2  0  0  0  0
 39 42  1  0  0  0  0
 40 51  1  0  0  0  0
 41 69  1  0  0  0  0
 42 44  1  0  0  0  0
 43 47  1  0  0  0  0
 43 48  1  0  0  0  0
 44 50  1  0  0  0  0
 45 46  1  0  0  0  0
 45 52  1  0  0  0  0
 46 52  1  0  0  0  0
 47 53  1  0  0  0  0
 48 70  1  0  0  0  0
 49 53  1  0  0  0  0
 49 70  1  0  0  0  0
 50 74  1  0  0  0  0
 51 69  1  0  0  0  0
 52 63  1  0  0  0  0
 53 68  1  0  0  0  0
 54 65  1  0  0  0  0
 55 66  1  0  0  0  0
 56 66  1  0  0  0  0
 57 66  1  0  0  0  0
 58 76  1  0  0  0  0
 59 83  1  0  0  0  0
 60 61  1  0  0  0  0
 60 62  1  0  0  0  0
 61 63  1  0  0  0  0
 62 84  1  0  0  0  0
 64 66  1  0  0  0  0
 64 75  1  0  0  0  0
 65 76  1  0  0  0  0
 67 68  1  0  0  0  0
M  CHG  1  76   1
M  ISO  4  38 100  62 101  73 100  84 101
M  END
> <Batch ID>
0145

> <Smiles>
CNC(C)C(=O)NC(C(=O)N1Cc2cc([101O:1][101CH2:1]CCC(c3ccc([100NH:0][100C:0](=O)N4CCCC(n5nc(-c6ccc(Oc7ccc(F)cc7F)cc6)c(C(N)=O)c5N)C4)cc3OC)C3CC3)ccc2CC1C(=O)NC1CCCc2ccccc21)C(C)(C)C

> <Shape>
0.200

> <Color>
0.198

> <Negative vol penalty>
0.000

$$$$

  -OEChem-04052321283D

 91 99  0     1  0  0  0  0  0999 V2000
  -33.4269  -26.7482   31.7050 C   0  0  0  0  0  0  0  0  0  0  0  0
  -34.0998  -26.5433   30.5048 C   0  0  0  0  0  0  0  0  0  0  0  0
  -22.6741  -10.0930   20.2200 C   0  0  0  0  0  0  0  0  0  0  0  0
  -24.3020   -9.4561   21.8878 C   0  0  0  0  0  0  0  0  0  0  0  0
  -32.0675  -26.4530   31.7999 C   0  0  0  0  0  0  0  0  0  0  0  0
  -33.4140  -26.0421   29.3990 C   0  0  0  0  0  0  0  0  0  0  0  0
  -34.3791  -27.4536   23.5183 C   0  0  0  0  0  0  0  0  0  0  0  0
  -21.9535   -8.9269   20.4780 C   0  0  0  0  0  0  0  0  0  0  0  0
  -23.5814   -8.2900   22.1458 C   0  0  0  0  0  0  0  0  0  0  0  0
  -35.0875  -26.8115   22.5036 C   0  0  0  0  0  0  0  0  0  0  0  0
  -21.9783   -5.3205   23.4987 C   0  0  0  0  0  0  0  0  0  0  0  0
  -21.7709   -4.9670   24.8320 C   0  0  0  0  0  0  0  0  0  0  0  0
  -33.0440  -25.7866   21.7336 C   0  0  0  0  0  0  0  0  0  0  0  0
  -20.6029   -7.0493   25.2023 C   0  0  0  0  0  0  0  0  0  0  0  0
  -23.8483  -10.3576   20.9249 C   0  0  0  0  0  0  0  0  0  0  0  0
  -24.1418  -12.8882   20.7934 C   0  0  0  0  0  0  0  0  0  0  0  0
  -31.3625  -25.9570   30.6920 C   0  0  0  0  0  0  0  0  0  0  0  0
  -32.9972  -27.2581   23.6552 C   0  0  0  0  0  0  0  0  0  0  0  0
  -32.0442  -25.7388   29.4795 C   0  0  0  0  0  0  0  0  0  0  0  0
  -32.3199  -26.4294   22.7493 C   0  0  0  0  0  0  0  0  0  0  0  0
  -22.4071   -8.0254   21.4409 C   0  0  0  0  0  0  0  0  0  0  0  0
  -34.4205  -25.9756   21.6129 C   0  0  0  0  0  0  0  0  0  0  0  0
  -21.4981   -6.5384   23.0172 C   0  0  0  0  0  0  0  0  0  0  0  0
  -21.0831   -5.8314   25.6838 C   0  0  0  0  0  0  0  0  0  0  0  0
  -20.8104   -7.4028   23.8690 C   0  0  0  0  0  0  0  0  0  0  0  0
  -24.5934  -11.5617   20.6584 C   0  0  0  0  0  0  0  0  0  0  0  0
  -25.2177  -13.6567   20.4213 C   0  0  0  0  0  0  0  0  0  0  0  0
  -22.8641  -13.3817   21.2172 C   0  0  0  0  0  0  0  0  0  0  0  0
  -30.7048  -14.7141   20.6732 C   0  0  0  0  0  0  0  0  0  0  0  0
  -31.1148  -26.0572   25.9175 C   0  0  0  0  0  0  0  0  0  0  0  0
  -28.7497  -27.0894   23.9521 C   0  0  0  0  0  0  0  0  0  0  0  0
  -27.7685  -27.9326   20.7941 C   0  0  0  0  0  0  0  0  0  0  0  0
  -29.9045  -25.6080   30.8562 C   0  0  0  0  0  0  0  0  0  0  0  0
  -32.2430  -27.9790   24.7387 C   0  0  0  0  0  0  0  0  0  0  0  0
  -30.8338  -26.2022   22.8408 C   0  0  0  0  0  0  0  0  0  0  0  0
  -29.1669  -25.4336   29.5312 C   0  0  0  0  0  0  0  0  0  0  0  0
  -29.5702  -12.3861   18.1966 C   0  0  0  0  0  0  0  0  0  0  0  0
  -29.9813  -24.5658   28.5771 C   0  0  0  0  0  0  0  0  0  0  0  0
  -30.3967  -15.3301   23.0665 C   0  0  0  0  0  0  0  0  0  0  0  0
  -28.1483  -12.0502   18.6444 C   0  0  0  0  0  0  0  0  0  0  0  0
  -31.0561  -16.5703   23.6680 C   0  0  0  0  0  0  0  0  0  0  0  0
  -30.6242  -17.1026   21.3846 C   0  0  0  0  0  0  0  0  0  0  0  0
  -30.4931  -12.6108   19.3902 C   0  0  0  0  0  0  0  0  0  0  0  0
  -28.5837  -13.3150   20.7974 C   0  0  0  0  0  0  0  0  0  0  0  0
  -31.3293  -25.2200   28.2507 C   0  0  1  0  0  0  0  0  0  0  0  0
  -30.0672  -15.6935   21.6109 C   0  0  1  0  0  0  0  0  0  0  0  0
  -30.9239  -27.3031   25.0997 C   0  0  1  0  0  0  0  0  0  0  0  0
  -27.6116  -13.1106   19.6220 C   0  0  2  0  0  0  0  0  0  0  0  0
  -31.6860  -17.2434   22.4637 C   0  0  1  0  0  0  0  0  0  0  0  0
  -25.7650  -28.7011   19.4930 C   0  0  0  0  0  0  0  0  0  0  0  0
  -29.4686  -20.9791   27.4970 C   0  0  0  0  0  0  0  0  0  0  0  0
  -28.7194  -20.9626   25.0861 C   0  0  0  0  0  0  0  0  0  0  0  0
  -34.4483  -21.9135   18.0036 C   0  0  0  0  0  0  0  0  0  0  0  0
  -27.6026  -24.2639   24.0543 C   0  0  0  0  0  0  0  0  0  0  0  0
  -26.2157  -24.8293   22.0480 C   0  0  0  0  0  0  0  0  0  0  0  0
  -25.8960  -26.0878   24.1780 C   0  0  0  0  0  0  0  0  0  0  0  0
  -29.1108  -30.4438   19.9874 C   0  0  0  0  0  0  0  0  0  0  0  0
  -33.0758  -20.2760   24.2972 C   0  0  0  0  0  0  0  0  0  0  0  0
  -34.0216  -18.9865   21.3718 C   0  0  0  0  0  0  0  0  0  0  0  0
  -35.7816  -23.2419   19.6882 C   0  0  0  0  0  0  0  0  0  0  0  0
  -31.8251  -21.1063   24.5656 C   0  0  0  0  0  0  0  0  0  0  0  0
  -34.7267  -19.6436   20.1900 C   0  0  0  0  0  0  0  0  0  0  0  0
  -32.8407  -18.8042   23.9743 C   0  0  0  0  0  0  0  0  0  0  0  0
  -32.5558  -19.3610   21.5640 C   0  0  0  0  0  0  0  0  0  0  0  0
  -34.6111  -24.0836   20.1846 C   0  0  0  0  0  0  0  0  0  1  0  0
  -27.9781  -26.4899   22.8014 C   0  0  1  0  0  0  0  0  0  0  0  0
  -27.0035  -29.1316   20.2633 C   0  0  2  0  0  0  0  0  0  0  0  0
  -29.8338  -21.3119   26.0593 C   0  0  0  0  0  0  0  0  0  0  0  0
  -35.3771  -21.8465   19.2086 C   0  0  1  0  0  0  0  0  0  0  0  0
  -26.9514  -25.4203   23.2696 C   0  0  0  0  0  0  0  0  0  0  0  0
  -25.8576  -11.4881   20.2337 N   0  0  0  0  0  0  0  0  0  0  0  0
  -26.2095  -12.7780   20.0984 N   0  0  0  0  0  0  0  0  0  0  0  0
  -29.9374  -13.6084   20.3064 N   0  0  0  0  0  0  0  0  0  0  0  0
  -30.1417  -26.9244   23.9211 N   0  0  0  0  0  0  0  0  0  0  0  0
  -25.4025  -14.9916   20.3421 N   0  0  0  0  0  0  0  0  0  0  0  0
  -21.8713  -12.4549   21.5634 N   0  0  0  0  0  0  0  0  0  0  0  0
  -31.1552  -26.2798   27.2807 N   0  0  0  0  0  0  0  0  0  0  0  0
  -27.3859  -27.6107   22.0791 N   0  0  0  0  0  0  0  0  0  0  0  0
  -27.8673  -29.9356   19.3531 N   0  3  0  0  0  0  0  0  0  0  0  0
  -31.0470  -20.5321   25.6877 N   0  3  0  0  0  0  0  0  0  0  0  0
  -34.6636  -21.1242   20.2985 N   0  3  0  0  0  0  0  0  0  0  0  0
  -31.9861  -18.6594   22.7378 N   0  3  1  0  0  0  0  0  0  0  0  0
  -22.6050  -14.6078   21.2711 O   0  0  0  0  0  0  0  0  0  0  0  0
  -31.8527  -14.9238   20.2727 O   0  0  0  0  0  0  0  0  0  0  0  0
  -31.2165  -24.9740   25.3537 O   0  0  0  0  0  0  0  0  0  0  0  0
  -28.1405  -27.6884   24.8419 O   0  0  0  0  0  0  0  0  0  0  0  0
  -28.6176  -27.3385   20.1333 O   0  0  0  0  0  0  0  0  0  0  0  0
  -21.7042   -6.8875   21.6931 O   0  0  0  0  0  0  0  0  0  0  0  0
  -35.1097  -25.3471   20.6220 O   0  0  0  0  0  0  0  0  0  1  0  0
  -20.8827   -5.4912   26.9637 F   0  0  0  0  0  0  0  0  0  0  0  0
  -20.3456   -8.5736   23.4119 F   0  0  0  0  0  0  0  0  0  0  0  0
  1  2  1  0  0  0  0
  1  5  2  0  0  0  0
  2  6  2  0  0  0  0
  3  8  2  0  0  0  0
  3 15  1  0  0  0  0
  4  9  1  0  0  0  0
  4 15  2  0  0  0  0
  5 17  1  0  0  0  0
  6 19  1  0  0  0  0
  7 10  2  0  0  0  0
  7 18  1  0  0  0  0
  8 21  1  0  0  0  0
  9 21  2  0  0  0  0
 10 22  1  0  0  0  0
 11 12  2  0  0  0  0
 11 23  1  0  0  0  0
 12 24  1  0  0  0  0
 13 20  1  0  0  0  0
 13 22  2  0  0  0  0
 14 24  2  0  0  0  0
 14 25  1  0  0  0  0
 15 26  1  0  0  0  0
 16 26  1  0  0  0  0
 16 27  2  0  0  0  0
 16 28  1  0  0  0  0
 17 19  2  0  0  0  0
 17 33  1  0  0  0  0
 18 20  2  0  0  0  0
 18 34  1  0  0  0  0
 19 45  1  0  0  0  0
 20 35  1  0  0  0  0
 21 88  1  0  0  0  0
 22 89  1  0  0  0  0
 23 25  2  0  0  0  0
 23 88  1  0  0  0  0
 24 90  1  0  0  0  0
 25 91  1  0  0  0  0
 26 71  2  0  0  0  0
 27 72  1  0  0  0  0
 27 75  1  0  0  0  0
 28 76  1  0  0  0  0
 28 83  2  0  0  0  0
 29 46  1  0  0  0  0
 29 73  1  0  0  0  0
 29 84  2  0  0  0  0
 30 47  1  0  0  0  0
 30 77  1  0  0  0  0
 30 85  2  0  0  0  0
 31 66  1  0  0  0  0
 31 74  1  0  0  0  0
 31 86  2  0  0  0  0
 32 67  1  0  0  0  0
 32 78  1  0  0  0  0
 32 87  2  0  0  0  0
 33 36  1  0  0  0  0
 34 47  1  0  0  0  0
 35 74  1  0  0  0  0
 36 38  1  0  0  0  0
 37 40  1  0  0  0  0
 37 43  1  0  0  0  0
 38 45  1  0  0  0  0
 39 41  1  0  0  0  0
 39 46  1  0  0  0  0
 40 48  1  0  0  0  0
 41 49  1  0  0  0  0
 42 46  1  0  0  0  0
 42 49  1  0  0  0  0
 43 73  1  0  0  0  0
 44 48  1  0  0  0  0
 44 73  1  0  0  0  0
 45 77  1  0  0  0  0
 47 74  1  0  0  0  0
 48 72  1  0  0  0  0
 49 82  1  0  0  0  0
 50 67  1  0  0  0  0
 51 68  1  0  0  0  0
 52 68  1  0  0  0  0
 53 69  1  0  0  0  0
 54 70  1  0  0  0  0
 55 70  1  0  0  0  0
 56 70  1  0  0  0  0
 57 79  1  0  0  0  0
 58 61  1  0  0  0  0
 58 63  1  0  0  0  0
 59 62  1  0  0  0  0
 59 64  1  0  0  0  0
 60 65  1  0  0  0  0
 60 69  1  0  0  0  0
 61 80  1  0  0  0  0
 62 81  1  0  0  0  0
 63 82  1  0  0  0  0
 64 82  1  0  0  0  0
 65 89  1  0  0  0  0
 66 70  1  0  0  0  0
 66 78  1  0  0  0  0
 67 79  1  0  0  0  0
 68 80  1  0  0  0  0
 69 81  1  0  0  0  0
 71 72  1  0  0  0  0
M  CHG  4  79   1  80   1  81   1  82   1
M  ISO  4  29 100  46 100  65 101  89 101
M  END
> <Batch ID>
0145

> <Smiles>
CNC(C)C(=O)NC(C(=O)N1Cc2cc([101O:1][101CH2:1]CC(C)NCCCN(CCCNC(C)C)C3CC[100CH:0]([100C:0](=O)N4CCCC(n5nc(-c6ccc(Oc7ccc(F)cc7F)cc6)c(C(N)=O)c5N)C4)C3)ccc2CC1C(=O)NC1CCCc2ccccc21)C(C)(C)C

> <Shape>
0.211

> <Color>
0.193

> <Negative vol penalty>
0.000

$$$$

  -OEChem-04052321283D

 90100  0     1  0  0  0  0  0999 V2000
  -27.4750  -32.3380   27.7147 C   0  0  0  0  0  0  0  0  0  0  0  0
  -27.1364  -30.9886   27.7057 C   0  0  0  0  0  0  0  0  0  0  0  0
  -23.1740   -9.8417   21.1727 C   0  0  0  0  0  0  0  0  0  0  0  0
  -23.7921  -10.6910   23.3484 C   0  0  0  0  0  0  0  0  0  0  0  0
  -26.8531  -33.2175   26.8295 C   0  0  0  0  0  0  0  0  0  0  0  0
  -26.1747  -30.5182   26.8122 C   0  0  0  0  0  0  0  0  0  0  0  0
  -27.5733  -26.2132   24.5416 C   0  0  0  0  0  0  0  0  0  0  0  0
  -22.4338   -8.8268   21.7791 C   0  0  0  0  0  0  0  0  0  0  0  0
  -23.0518   -9.6761   23.9548 C   0  0  0  0  0  0  0  0  0  0  0  0
  -27.4534  -25.0362   25.2792 C   0  0  0  0  0  0  0  0  0  0  0  0
  -19.4147   -8.4930   23.2646 C   0  0  0  0  0  0  0  0  0  0  0  0
  -18.1408   -8.2303   22.7610 C   0  0  0  0  0  0  0  0  0  0  0  0
  -25.3898  -24.5362   24.1343 C   0  0  0  0  0  0  0  0  0  0  0  0
  -25.5400  -19.5870   24.8579 C   0  0  0  0  0  0  0  0  0  0  0  0
  -18.8096   -5.9655   22.2505 C   0  0  0  0  0  0  0  0  0  0  0  0
  -27.4878  -20.1970   23.9072 C   0  0  0  0  0  0  0  0  0  0  0  0
  -23.8532  -10.7737   21.9573 C   0  0  0  0  0  0  0  0  0  0  0  0
  -24.1635  -13.1017   20.9614 C   0  0  0  0  0  0  0  0  0  0  0  0
  -25.8903  -32.7559   25.9181 C   0  0  0  0  0  0  0  0  0  0  0  0
  -26.5952  -26.5666   23.6010 C   0  0  0  0  0  0  0  0  0  0  0  0
  -25.5383  -31.3926   25.9149 C   0  0  0  0  0  0  0  0  0  0  0  0
  -25.5010  -25.7170   23.3843 C   0  0  0  0  0  0  0  0  0  0  0  0
  -26.7707  -20.2520   25.0820 C   0  0  0  0  0  0  0  0  0  0  0  0
  -22.3727   -8.7441   23.1701 C   0  0  0  0  0  0  0  0  0  0  0  0
  -26.3600  -24.1989   25.0777 C   0  0  0  0  0  0  0  0  0  0  0  0
  -20.3862   -7.4919   23.2612 C   0  0  0  0  0  0  0  0  0  0  0  0
  -17.8382   -6.9666   22.2540 C   0  0  0  0  0  0  0  0  0  0  0  0
  -20.0836   -6.2282   22.7542 C   0  0  0  0  0  0  0  0  0  0  0  0
  -24.6185  -11.8219   21.3315 C   0  0  0  0  0  0  0  0  0  0  0  0
  -25.5426  -19.1456   23.5531 C   0  0  0  0  0  0  0  0  0  0  0  0
  -25.2644  -13.7118   20.4115 C   0  0  0  0  0  0  0  0  0  0  0  0
  -22.8622  -13.6868   21.1023 C   0  0  0  0  0  0  0  0  0  0  0  0
  -24.5717  -28.9961   23.2739 C   0  0  0  0  0  0  0  0  0  0  0  0
  -23.9314  -27.5719   20.4306 C   0  0  0  0  0  0  0  0  0  0  0  0
  -23.9325  -24.7227   18.5522 C   0  0  0  0  0  0  0  0  0  0  0  0
  -30.5987  -14.9397   20.3189 C   0  0  0  0  0  0  0  0  0  0  0  0
  -25.2109  -33.7527   25.0128 C   0  0  0  0  0  0  0  0  0  0  0  0
  -26.7529  -27.8263   22.7944 C   0  0  0  0  0  0  0  0  0  0  0  0
  -24.4338  -26.0408   22.3719 C   0  0  0  0  0  0  0  0  0  0  0  0
  -24.4735  -33.1082   23.8419 C   0  0  0  0  0  0  0  0  0  0  0  0
  -29.7543  -11.8324   19.0597 C   0  0  0  0  0  0  0  0  0  0  0  0
  -23.6343  -31.9289   24.3235 C   0  0  0  0  0  0  0  0  0  0  0  0
  -28.3028  -11.6445   19.5005 C   0  0  0  0  0  0  0  0  0  0  0  0
  -28.8529  -18.1999   20.0958 C   0  0  0  0  0  0  0  0  0  0  0  0
  -28.3098  -17.1317   22.3123 C   0  0  0  0  0  0  0  0  0  0  0  0
  -23.0155  -18.9646   22.8788 C   0  0  0  0  0  0  0  0  0  0  0  0
  -30.5840  -12.4677   20.1696 C   0  0  0  0  0  0  0  0  0  0  0  0
  -30.1097  -17.3384   20.0096 C   0  0  0  0  0  0  0  0  0  0  0  0
  -29.5788  -16.2950   22.1871 C   0  0  0  0  0  0  0  0  0  0  0  0
  -28.5924  -13.6012   21.0992 C   0  0  0  0  0  0  0  0  0  0  0  0
  -24.5179  -30.8398   24.9437 C   0  0  1  0  0  0  0  0  0  0  0  0
  -24.4135  -18.3743   22.8694 C   0  0  1  0  0  0  0  0  0  0  0  0
  -25.4334  -28.3436   22.2300 C   0  0  1  0  0  0  0  0  0  0  0  0
  -28.4402  -18.4577   21.5508 C   0  0  0  0  0  0  0  0  0  0  0  0
  -27.7042  -12.9678   20.0095 C   0  0  2  0  0  0  0  0  0  0  0  0
  -23.8006  -18.9449   21.6031 C   0  0  1  0  0  0  0  0  0  0  0  0
  -28.4726  -20.2261   26.9352 C   0  0  0  0  0  0  0  0  0  0  0  0
  -23.3154  -23.8631   16.2767 C   0  0  0  0  0  0  0  0  0  0  0  0
  -20.9843  -27.6044   21.2203 C   0  0  0  0  0  0  0  0  0  0  0  0
  -20.5529  -25.9283   19.4112 C   0  0  0  0  0  0  0  0  0  0  0  0
  -21.4304  -28.1900   18.8303 C   0  0  0  0  0  0  0  0  0  0  0  0
  -22.2939  -18.4838   19.6651 C   0  0  0  0  0  0  0  0  0  0  0  0
  -26.7245  -23.9364   17.9644 C   0  0  0  0  0  0  0  0  0  0  0  0
  -27.1373  -19.2510   21.6144 C   0  0  0  0  0  0  0  0  0  0  0  0
  -27.4489  -22.4148   26.2122 C   0  0  0  0  0  0  0  0  0  1  0  0
  -27.2052  -20.8871   26.3405 C   0  0  1  0  0  0  0  0  0  0  0  0
  -22.9577  -26.5199   19.9572 C   0  0  1  0  0  0  0  0  0  0  0  0
  -24.4218  -24.4461   17.1420 C   0  0  2  0  0  0  0  0  0  0  0  0
  -21.5002  -27.0552   19.8753 C   0  0  0  0  0  0  0  0  0  0  0  0
  -25.9079  -11.6292   21.0410 N   0  0  0  0  0  0  0  0  0  0  0  0
  -26.7317  -19.5218   22.9850 N   0  0  0  0  0  0  0  0  0  0  0  0
  -26.2725  -12.7959   20.4825 N   0  0  0  0  0  0  0  0  0  0  0  0
  -24.6296  -27.2868   21.6126 N   0  0  0  0  0  0  0  0  0  0  0  0
  -29.9805  -13.7187   20.6283 N   0  0  0  0  0  0  0  0  0  0  0  0
  -29.9678  -16.1057   20.7832 N   0  0  0  0  0  0  0  0  0  0  0  0
  -25.4587  -14.9369   19.8788 N   0  0  0  0  0  0  0  0  0  0  0  0
  -21.8454  -12.9212   21.6891 N   0  0  0  0  0  0  0  0  0  0  0  0
  -25.1705  -30.0679   23.9081 N   0  0  0  0  0  0  0  0  0  0  0  0
  -23.4820  -26.0184   18.6915 N   0  0  0  0  0  0  0  0  0  0  0  0
  -23.3877  -17.9977   20.5608 N   0  3  0  0  0  0  0  0  0  0  0  0
  -25.5566  -23.4804   17.1675 N   0  3  0  0  0  0  0  0  0  0  0  0
  -22.6043  -14.8480   20.7041 O   0  0  0  0  0  0  0  0  0  0  0  0
  -23.4464  -28.5603   23.4870 O   0  0  0  0  0  0  0  0  0  0  0  0
  -24.0726  -28.6053   19.7721 O   0  0  0  0  0  0  0  0  0  0  0  0
  -23.9450  -23.8731   19.4402 O   0  0  0  0  0  0  0  0  0  0  0  0
  -31.6475  -14.9884   19.6642 O   0  0  0  0  0  0  0  0  0  0  0  0
  -21.6502   -7.7541   23.7622 O   0  0  0  0  0  0  0  0  0  0  0  0
  -26.2393  -23.0423   25.8015 O   0  0  0  0  0  0  0  0  0  1  0  0
  -16.6143   -6.7140   21.7718 F   0  0  0  0  0  0  0  0  0  0  0  0
  -21.0123   -5.2622   22.7493 F   0  0  0  0  0  0  0  0  0  0  0  0
  1  2  1  0  0  0  0
  1  5  2  0  0  0  0
  2  6  2  0  0  0  0
  3  8  2  0  0  0  0
  3 17  1  0  0  0  0
  4  9  1  0  0  0  0
  4 17  2  0  0  0  0
  5 19  1  0  0  0  0
  6 21  1  0  0  0  0
  7 10  2  0  0  0  0
  7 20  1  0  0  0  0
  8 24  1  0  0  0  0
  9 24  2  0  0  0  0
 10 25  1  0  0  0  0
 11 12  2  0  0  0  0
 11 26  1  0  0  0  0
 12 27  1  0  0  0  0
 13 22  1  0  0  0  0
 13 25  2  0  0  0  0
 14 23  1  0  0  0  0
 14 30  2  0  0  0  0
 15 27  2  0  0  0  0
 15 28  1  0  0  0  0
 16 23  2  0  0  0  0
 16 71  1  0  0  0  0
 17 29  1  0  0  0  0
 18 29  1  0  0  0  0
 18 31  2  0  0  0  0
 18 32  1  0  0  0  0
 19 21  2  0  0  0  0
 19 37  1  0  0  0  0
 20 22  2  0  0  0  0
 20 38  1  0  0  0  0
 21 51  1  0  0  0  0
 22 39  1  0  0  0  0
 23 66  1  0  0  0  0
 24 87  1  0  0  0  0
 25 88  1  0  0  0  0
 26 28  2  0  0  0  0
 26 87  1  0  0  0  0
 27 89  1  0  0  0  0
 28 90  1  0  0  0  0
 29 70  2  0  0  0  0
 30 52  1  0  0  0  0
 30 71  1  0  0  0  0
 31 72  1  0  0  0  0
 31 76  1  0  0  0  0
 32 77  1  0  0  0  0
 32 82  2  0  0  0  0
 33 53  1  0  0  0  0
 33 78  1  0  0  0  0
 33 83  2  0  0  0  0
 34 67  1  0  0  0  0
 34 73  1  0  0  0  0
 34 84  2  0  0  0  0
 35 68  1  0  0  0  0
 35 79  1  0  0  0  0
 35 85  2  0  0  0  0
 36 74  1  0  0  0  0
 36 75  1  0  0  0  0
 36 86  2  0  0  0  0
 37 40  1  0  0  0  0
 38 53  1  0  0  0  0
 39 73  1  0  0  0  0
 40 42  1  0  0  0  0
 41 43  1  0  0  0  0
 41 47  1  0  0  0  0
 42 51  1  0  0  0  0
 43 55  1  0  0  0  0
 44 48  1  0  0  0  0
 44 54  1  0  0  0  0
 45 49  1  0  0  0  0
 45 54  1  0  0  0  0
 46 52  1  0  0  0  0
 46 56  1  0  0  0  0
 47 74  1  0  0  0  0
 48 75  1  0  0  0  0
 49 75  1  0  0  0  0
 50 55  1  0  0  0  0
 50 74  1  0  0  0  0
 51 78  1  0  0  0  0
 52 56  1  0  0  0  0
 53 73  1  0  0  0  0
 54 64  1  0  0  0  0
 55 72  1  0  0  0  0
 56 80  1  0  0  0  0
 57 66  1  0  0  0  0
 58 68  1  0  0  0  0
 59 69  1  0  0  0  0
 60 69  1  0  0  0  0
 61 69  1  0  0  0  0
 62 80  1  0  0  0  0
 63 81  1  0  0  0  0
 64 71  1  0  0  0  0
 65 66  1  0  0  0  0
 65 88  1  0  0  0  0
 67 69  1  0  0  0  0
 67 79  1  0  0  0  0
 68 81  1  0  0  0  0
 70 72  1  0  0  0  0
M  CHG  2  80   1  81   1
M  ISO  4  36 100  65 101  75 100  88 101
M  END
> <Batch ID>
0145

> <Smiles>
CNC(C)C(=O)NC(C(=O)N1Cc2cc([101O:1][101CH2:1]C(C)c3cc(C4CC4NC)n(CC4CC[100N:0]([100C:0](=O)N5CCCC(n6nc(-c7ccc(Oc8ccc(F)cc8F)cc7)c(C(N)=O)c6N)C5)CC4)c3)ccc2CC1C(=O)NC1CCCc2ccccc21)C(C)(C)C

> <Shape>
0.228

> <Color>
0.151

> <Negative vol penalty>
0.000

$$$$

  -OEChem-04052321283D

 87 96  0     1  0  0  0  0  0999 V2000
  -21.8538   -9.0279   20.9163 C   0  0  0  0  0  0  0  0  0  0  0  0
  -21.9874  -10.3766   21.2305 C   0  0  0  0  0  0  0  0  0  0  0  0
  -29.6658  -27.2911   21.4890 C   0  0  0  0  0  0  0  0  0  0  0  0
  -28.0990  -26.5968   19.7860 C   0  0  0  0  0  0  0  0  0  0  0  0
  -22.9659   -8.1884   20.9654 C   0  0  0  0  0  0  0  0  0  0  0  0
  -23.2331  -10.8863   21.5950 C   0  0  0  0  0  0  0  0  0  0  0  0
  -24.2753  -15.2856   19.3135 C   0  0  0  0  0  0  0  0  0  0  0  0
  -30.4161  -26.1359   21.2698 C   0  0  0  0  0  0  0  0  0  0  0  0
  -28.8493  -25.4415   19.5667 C   0  0  0  0  0  0  0  0  0  0  0  0
  -23.6652  -16.4293   19.8268 C   0  0  0  0  0  0  0  0  0  0  0  0
  -29.2721  -22.4283   21.0407 C   0  0  0  0  0  0  0  0  0  0  0  0
  -28.5840  -21.2201   20.9290 C   0  0  0  0  0  0  0  0  0  0  0  0
  -25.6993  -16.9803   21.0007 C   0  0  0  0  0  0  0  0  0  0  0  0
  -20.8487  -21.9246   23.0601 C   0  0  0  0  0  0  0  0  0  0  0  0
  -29.4654  -20.9243   18.6990 C   0  0  0  0  0  0  0  0  0  0  0  0
  -21.3762  -23.9149   21.2694 C   0  0  0  0  0  0  0  0  0  0  0  0
  -28.5072  -27.5215   20.7472 C   0  0  0  0  0  0  0  0  0  0  0  0
  -27.8779  -29.9585   20.3313 C   0  0  0  0  0  0  0  0  0  0  0  0
  -24.2277   -8.6901   21.3214 C   0  0  0  0  0  0  0  0  0  0  0  0
  -25.6008  -14.9743   19.6493 C   0  0  0  0  0  0  0  0  0  0  0  0
  -24.3628  -10.0524   21.6503 C   0  0  0  0  0  0  0  0  0  0  0  0
  -26.3248  -15.8334   20.4883 C   0  0  0  0  0  0  0  0  0  0  0  0
  -20.0199  -23.0402   23.0164 C   0  0  0  0  0  0  0  0  0  0  0  0
  -30.0079  -25.2111   20.3086 C   0  0  0  0  0  0  0  0  0  0  0  0
  -24.3762  -17.2753   20.6729 C   0  0  0  0  0  0  0  0  0  0  0  0
  -30.0568  -22.8845   19.9815 C   0  0  0  0  0  0  0  0  0  0  0  0
  -20.2818  -24.0588   22.1069 C   0  0  0  0  0  0  0  0  0  0  0  0
  -28.6807  -20.4681   19.7582 C   0  0  0  0  0  0  0  0  0  0  0  0
  -30.1535  -22.1325   18.8107 C   0  0  0  0  0  0  0  0  0  0  0  0
  -27.7314  -28.7144   20.9736 C   0  0  0  0  0  0  0  0  0  0  0  0
  -21.9176  -21.8762   22.1797 C   0  0  0  0  0  0  0  0  0  0  0  0
  -26.9104  -30.7528   20.8964 C   0  0  0  0  0  0  0  0  0  0  0  0
  -28.8057  -30.3602   19.3146 C   0  0  0  0  0  0  0  0  0  0  0  0
  -27.0275  -12.5629   21.1502 C   0  0  0  0  0  0  0  0  0  0  0  0
  -29.7308  -14.1105   20.2449 C   0  0  0  0  0  0  0  0  0  0  0  0
  -31.2233  -17.0392   19.3274 C   0  0  0  0  0  0  0  0  0  0  0  0
  -21.6899  -29.5436   23.5676 C   0  0  0  0  0  0  0  0  0  0  0  0
  -25.3913   -7.7343   21.4064 C   0  0  0  0  0  0  0  0  0  0  0  0
  -26.2531  -13.7510   19.0659 C   0  0  0  0  0  0  0  0  0  0  0  0
  -27.7567  -15.5549   20.8631 C   0  0  0  0  0  0  0  0  0  0  0  0
  -26.7498   -8.4299   21.4388 C   0  0  0  0  0  0  0  0  0  0  0  0
  -24.4396  -31.3321   24.9523 C   0  0  0  0  0  0  0  0  0  0  0  0
  -18.7322  -24.3309   24.8467 C   0  0  0  0  0  0  0  0  0  0  0  0
  -19.0968  -23.0015   25.4299 C   0  0  0  0  0  0  0  0  0  0  0  0
  -26.7332   -9.5876   22.4320 C   0  0  0  0  0  0  0  0  0  0  0  0
  -25.6082  -30.9763   24.0317 C   0  0  0  0  0  0  0  0  0  0  0  0
  -23.4967  -30.1474   25.1511 C   0  0  0  0  0  0  0  0  0  0  0  0
  -24.1648  -29.1825   22.9839 C   0  0  0  0  0  0  0  0  0  0  0  0
  -18.8584  -23.1289   23.9483 C   0  0  0  0  0  0  0  0  0  0  0  0
  -25.7023  -10.6478   22.0262 C   0  0  1  0  0  0  0  0  0  0  0  0
  -27.4424  -13.2598   19.8854 C   0  0  1  0  0  0  0  0  0  0  0  0
  -25.1129  -30.3622   22.7085 C   0  0  2  0  0  0  0  0  0  0  0  0
  -33.0337  -18.5752   18.5146 C   0  0  0  0  0  0  0  0  0  0  0  0
  -30.5979  -14.0455   23.1696 C   0  0  0  0  0  0  0  0  0  0  0  0
  -32.3014  -15.7994   22.6311 C   0  0  0  0  0  0  0  0  0  0  0  0
  -32.4235  -13.5647   21.5293 C   0  0  0  0  0  0  0  0  0  0  0  0
  -30.4914  -16.5919   16.4949 C   0  0  0  0  0  0  0  0  0  0  0  0
  -19.3890  -27.5549   22.2406 C   0  0  0  0  0  0  0  0  0  0  0  0
  -19.9953  -28.9021   21.8717 C   0  0  0  0  0  0  0  0  0  0  0  0
  -20.1287  -26.3799   21.6124 C   0  0  0  0  0  0  0  0  0  0  0  0
  -24.6278  -19.5084   21.4511 C   0  0  0  0  0  0  0  0  0  1  0  0
  -23.8305  -20.7869   21.2798 C   0  0  0  0  0  0  0  0  0  0  0  0
  -30.6029  -15.1829   20.8517 C   0  0  1  0  0  0  0  0  0  0  0  0
  -32.1590  -17.3769   18.1806 C   0  0  2  0  0  0  0  0  0  0  0  0
  -31.4538  -14.6527   22.0401 C   0  0  0  0  0  0  0  0  0  0  0  0
  -22.2038  -22.8460   21.2824 N   0  0  0  0  0  0  0  0  0  0  0  0
  -26.7482  -28.7136   21.8778 N   0  0  0  0  0  0  0  0  0  0  0  0
  -26.2683  -29.9669   21.8077 N   0  0  0  0  0  0  0  0  0  0  0  0
  -28.3484  -14.3432   20.2723 N   0  0  0  0  0  0  0  0  0  0  0  0
  -23.0624  -29.6126   23.8583 N   0  0  0  0  0  0  0  0  0  0  0  0
  -26.5547  -32.0398   20.6978 N   0  0  0  0  0  0  0  0  0  0  0  0
  -29.7327  -29.4190   18.8465 N   0  0  0  0  0  0  0  0  0  0  0  0
  -26.2149  -11.4640   20.9466 N   0  0  0  0  0  0  0  0  0  0  0  0
  -31.3886  -15.7389   19.7554 N   0  0  0  0  0  0  0  0  0  0  0  0
  -21.3647  -29.0300   22.3182 N   0  0  0  0  0  0  0  0  0  0  0  0
  -31.3783  -17.6929   16.9511 N   0  3  0  0  0  0  0  0  0  0  0  0
  -28.8231  -31.5241   18.8471 O   0  0  0  0  0  0  0  0  0  0  0  0
  -27.4171  -12.9897   22.2309 O   0  0  0  0  0  0  0  0  0  0  0  0
  -30.2571  -13.1068   19.7579 O   0  0  0  0  0  0  0  0  0  0  0  0
  -30.4282  -17.8491   19.7989 O   0  0  0  0  0  0  0  0  0  0  0  0
  -20.8190  -29.9175   24.3606 O   0  0  0  0  0  0  0  0  0  0  0  0
  -30.7399  -24.0838   20.0942 O   0  0  0  0  0  0  0  0  0  0  0  0
  -23.7828  -18.3919   21.1758 O   0  0  0  0  0  0  0  0  0  1  0  0
  -19.5006  -25.1661   22.0279 O   0  0  0  0  0  0  0  0  0  0  0  0
  -22.7488  -20.7873   22.2034 O   0  0  0  0  0  0  0  0  0  0  0  0
  -28.0212  -19.3072   19.6517 F   0  0  0  0  0  0  0  0  0  0  0  0
  -30.9067  -22.5651   17.7903 F   0  0  0  0  0  0  0  0  0  0  0  0
  1  2  1  0  0  0  0
  1  5  2  0  0  0  0
  2  6  2  0  0  0  0
  3  8  2  0  0  0  0
  3 17  1  0  0  0  0
  4  9  1  0  0  0  0
  4 17  2  0  0  0  0
  5 19  1  0  0  0  0
  6 21  1  0  0  0  0
  7 10  2  0  0  0  0
  7 20  1  0  0  0  0
  8 24  1  0  0  0  0
  9 24  2  0  0  0  0
 10 25  1  0  0  0  0
 11 12  2  0  0  0  0
 11 26  1  0  0  0  0
 12 28  1  0  0  0  0
 13 22  1  0  0  0  0
 13 25  2  0  0  0  0
 14 23  2  0  0  0  0
 14 31  1  0  0  0  0
 15 28  2  0  0  0  0
 15 29  1  0  0  0  0
 16 27  2  0  0  0  0
 16 66  1  0  0  0  0
 17 30  1  0  0  0  0
 18 30  1  0  0  0  0
 18 32  2  0  0  0  0
 18 33  1  0  0  0  0
 19 21  2  0  0  0  0
 19 38  1  0  0  0  0
 20 22  2  0  0  0  0
 20 39  1  0  0  0  0
 21 50  1  0  0  0  0
 22 40  1  0  0  0  0
 23 27  1  0  0  0  0
 23 49  1  0  0  0  0
 24 82  1  0  0  0  0
 25 83  1  0  0  0  0
 26 29  2  0  0  0  0
 26 82  1  0  0  0  0
 27 84  1  0  0  0  0
 28 86  1  0  0  0  0
 29 87  1  0  0  0  0
 30 67  2  0  0  0  0
 31 66  2  0  0  0  0
 31 85  1  0  0  0  0
 32 68  1  0  0  0  0
 32 71  1  0  0  0  0
 33 72  1  0  0  0  0
 33 77  2  0  0  0  0
 34 51  1  0  0  0  0
 34 73  1  0  0  0  0
 34 78  2  0  0  0  0
 35 63  1  0  0  0  0
 35 69  1  0  0  0  0
 35 79  2  0  0  0  0
 36 64  1  0  0  0  0
 36 74  1  0  0  0  0
 36 80  2  0  0  0  0
 37 70  1  0  0  0  0
 37 75  1  0  0  0  0
 37 81  2  0  0  0  0
 38 41  1  0  0  0  0
 39 51  1  0  0  0  0
 40 69  1  0  0  0  0
 41 45  1  0  0  0  0
 42 46  1  0  0  0  0
 42 47  1  0  0  0  0
 43 44  1  0  0  0  0
 43 49  1  0  0  0  0
 44 49  1  0  0  0  0
 45 50  1  0  0  0  0
 46 52  1  0  0  0  0
 47 70  1  0  0  0  0
 48 52  1  0  0  0  0
 48 70  1  0  0  0  0
 50 73  1  0  0  0  0
 51 69  1  0  0  0  0
 52 68  1  0  0  0  0
 53 64  1  0  0  0  0
 54 65  1  0  0  0  0
 55 65  1  0  0  0  0
 56 65  1  0  0  0  0
 57 76  1  0  0  0  0
 58 59  1  0  0  0  0
 58 60  1  0  0  0  0
 59 75  1  0  0  0  0
 60 84  1  0  0  0  0
 61 62  1  0  0  0  0
 61 83  1  0  0  0  0
 62 85  1  0  0  0  0
 63 65  1  0  0  0  0
 63 74  1  0  0  0  0
 64 76  1  0  0  0  0
 67 68  1  0  0  0  0
M  CHG  1  76   1
M  ISO  4  37 100  61 101  75 100  83 101
M  END
> <Batch ID>
0145

> <Smiles>
CNC(C)C(=O)NC(C(=O)N1Cc2cc([101O:1][101CH2:1]COc3cc(C4CC4)c(OCCC[100NH:0][100C:0](=O)N4CCCC(n5nc(-c6ccc(Oc7ccc(F)cc7F)cc6)c(C(N)=O)c5N)C4)cn3)ccc2CC1C(=O)NC1CCCc2ccccc21)C(C)(C)C

> <Shape>
0.290

> <Color>
0.054

> <Negative vol penalty>
0.000

$$$$

  -OEChem-04052321283D

 91101  0     1  0  0  0  0  0999 V2000
  -22.8788  -23.6588   20.7925 C   0  0  0  0  0  0  0  0  0  0  0  0
  -24.0452  -22.9137   20.9331 C   0  0  0  0  0  0  0  0  0  0  0  0
  -22.9013  -29.9585   20.0470 C   0  0  0  0  0  0  0  0  0  0  0  0
  -23.1026  -27.9120   21.3151 C   0  0  0  0  0  0  0  0  0  0  0  0
  -21.6571  -23.1220   21.1963 C   0  0  0  0  0  0  0  0  0  0  0  0
  -23.9906  -21.6315   21.4785 C   0  0  0  0  0  0  0  0  0  0  0  0
  -26.7624  -18.2910   18.8703 C   0  0  0  0  0  0  0  0  0  0  0  0
  -21.5310  -29.9845   20.3063 C   0  0  0  0  0  0  0  0  0  0  0  0
  -21.7323  -27.9379   21.5745 C   0  0  0  0  0  0  0  0  0  0  0  0
  -28.1415  -18.3111   19.0739 C   0  0  0  0  0  0  0  0  0  0  0  0
  -18.8727  -27.1725   19.9412 C   0  0  0  0  0  0  0  0  0  0  0  0
  -18.1624  -25.9812   19.7931 C   0  0  0  0  0  0  0  0  0  0  0  0
  -28.0310  -21.9935   22.8736 C   0  0  0  0  0  0  0  0  0  0  0  0
  -27.9429  -16.4244   20.5639 C   0  0  0  0  0  0  0  0  0  0  0  0
  -30.6327  -21.7169   21.9053 C   0  0  0  0  0  0  0  0  0  0  0  0
  -17.5156  -26.0776   22.1189 C   0  0  0  0  0  0  0  0  0  0  0  0
  -23.6871  -28.9222   20.5514 C   0  0  0  0  0  0  0  0  0  0  0  0
  -26.1257  -29.4744   21.0571 C   0  0  0  0  0  0  0  0  0  0  0  0
  -21.5862  -21.8289   21.7381 C   0  0  0  0  0  0  0  0  0  0  0  0
  -25.9605  -17.3427   19.5216 C   0  0  0  0  0  0  0  0  0  0  0  0
  -22.7669  -21.0774   21.8912 C   0  0  0  0  0  0  0  0  0  0  0  0
  -28.6346  -23.0460   22.1855 C   0  0  0  0  0  0  0  0  0  0  0  0
  -26.5542  -16.3927   20.3649 C   0  0  0  0  0  0  0  0  0  0  0  0
  -28.7282  -20.8027   23.0776 C   0  0  0  0  0  0  0  0  0  0  0  0
  -29.9354  -22.9077   21.7014 C   0  0  0  0  0  0  0  0  0  0  0  0
  -20.9465  -28.9742   21.0701 C   0  0  0  0  0  0  0  0  0  0  0  0
  -28.7316  -17.3795   19.9231 C   0  0  0  0  0  0  0  0  0  0  0  0
  -18.9045  -27.8163   21.1783 C   0  0  0  0  0  0  0  0  0  0  0  0
  -30.0290  -20.6644   22.5935 C   0  0  0  0  0  0  0  0  0  0  0  0
  -17.4838  -25.4338   20.8819 C   0  0  0  0  0  0  0  0  0  0  0  0
  -18.2259  -27.2689   22.2671 C   0  0  0  0  0  0  0  0  0  0  0  0
  -25.1025  -28.8946   20.2833 C   0  0  0  0  0  0  0  0  0  0  0  0
  -27.2820  -29.1687   20.3818 C   0  0  0  0  0  0  0  0  0  0  0  0
  -26.0387  -30.2224   22.2771 C   0  0  0  0  0  0  0  0  0  0  0  0
  -23.5763  -17.4824   21.6192 C   0  0  0  0  0  0  0  0  0  0  0  0
  -23.4500  -14.2828   21.1003 C   0  0  0  0  0  0  0  0  0  0  0  0
  -25.0637  -11.4416   20.1155 C   0  0  0  0  0  0  0  0  0  0  0  0
  -30.5141  -25.7047   17.5956 C   0  0  0  0  0  0  0  0  0  0  0  0
  -20.2491  -21.3093   22.2040 C   0  0  0  0  0  0  0  0  0  0  0  0
  -24.4776  -17.3175   19.2705 C   0  0  0  0  0  0  0  0  0  0  0  0
  -25.7401  -15.3412   21.0719 C   0  0  0  0  0  0  0  0  0  0  0  0
  -20.2262  -19.7992   22.4261 C   0  0  0  0  0  0  0  0  0  0  0  0
  -28.0035  -27.2483   15.7679 C   0  0  0  0  0  0  0  0  0  0  0  0
  -28.0506  -25.4417   22.9559 C   0  0  0  0  0  0  0  0  0  0  0  0
  -26.7697  -24.6674   22.9415 C   0  0  0  0  0  0  0  0  0  0  0  0
  -21.4528  -19.3575   23.2182 C   0  0  0  0  0  0  0  0  0  0  0  0
  -30.0910  -21.4375   18.8995 C   0  0  0  0  0  0  0  0  0  0  0  0
  -30.2813  -22.1408   17.5846 C   0  0  0  0  0  0  0  0  0  0  0  0
  -27.0985  -27.8642   16.8340 C   0  0  0  0  0  0  0  0  0  0  0  0
  -28.4812  -25.8647   16.1926 C   0  0  0  0  0  0  0  0  0  0  0  0
  -28.3039  -26.4662   18.5859 C   0  0  0  0  0  0  0  0  0  0  0  0
  -27.8704  -24.3113   21.9779 C   0  0  0  0  0  0  0  0  0  0  0  0
  -22.7451  -19.6734   22.4556 C   0  0  1  0  0  0  0  0  0  0  0  0
  -23.6944  -16.6322   20.3859 C   0  0  1  0  0  0  0  0  0  0  0  0
  -30.9022  -22.7019   18.8338 C   0  0  0  0  0  0  0  0  0  0  0  0
  -27.7911  -27.8710   18.2080 C   0  0  2  0  0  0  0  0  0  0  0  0
  -28.0666  -19.6865   23.8165 C   0  0  0  0  0  0  0  0  0  0  0  0
  -24.7114   -8.9729   19.8342 C   0  0  0  0  0  0  0  0  0  0  0  0
  -23.6604  -13.9110   24.1215 C   0  0  0  0  0  0  0  0  0  0  0  0
  -24.2557  -11.5134   23.7149 C   0  0  0  0  0  0  0  0  0  0  0  0
  -22.0322  -12.3843   22.9934 C   0  0  0  0  0  0  0  0  0  0  0  0
  -32.3421  -25.4458   19.2293 C   0  0  0  0  0  0  0  0  0  0  0  0
  -25.6047  -11.5780   17.2090 C   0  0  0  0  0  0  0  0  0  0  0  0
  -30.6041  -24.0197   20.9615 C   0  0  0  0  0  0  0  0  0  0  0  0
  -31.8533  -17.6475   21.7381 C   0  0  0  0  0  0  0  0  0  0  0  0
  -30.5508  -16.9435   21.3915 C   0  0  0  0  0  0  0  0  0  1  0  0
  -31.6863  -19.1579   21.7936 C   0  0  0  0  0  0  0  0  0  0  0  0
  -24.1054  -13.0725   21.7205 C   0  0  1  0  0  0  0  0  0  0  0  0
  -24.6604  -10.3344   19.1585 C   0  0  2  0  0  0  0  0  0  0  0  0
  -30.3731  -23.9737   19.4364 C   0  0  1  0  0  0  0  0  0  0  0  0
  -23.5288  -12.7412   23.1259 C   0  0  0  0  0  0  0  0  0  0  0  0
  -25.5678  -28.2681   19.1994 N   0  0  0  0  0  0  0  0  0  0  0  0
  -26.8961  -28.4525   19.2871 N   0  0  0  0  0  0  0  0  0  0  0  0
  -24.2935  -15.3615   20.7991 N   0  0  0  0  0  0  0  0  0  0  0  0
  -29.1291  -25.9076   17.5038 N   0  0  0  0  0  0  0  0  0  0  0  0
  -28.5810  -29.4454   20.6235 N   0  0  0  0  0  0  0  0  0  0  0  0
  -24.7727  -30.4449   22.8357 N   0  0  0  0  0  0  0  0  0  0  0  0
  -22.9625  -18.7018   21.4052 N   0  0  0  0  0  0  0  0  0  0  0  0
  -23.9700  -11.9924   20.7492 N   0  0  0  0  0  0  0  0  0  0  0  0
  -30.9996  -25.1155   18.7727 N   0  0  0  0  0  0  0  0  0  0  0  0
  -25.5737  -10.3092   17.9811 N   0  3  0  0  0  0  0  0  0  0  0  0
  -27.0523  -30.6940   22.8462 O   0  0  0  0  0  0  0  0  0  0  0  0
  -24.0087  -17.0625   22.6862 O   0  0  0  0  0  0  0  0  0  0  0  0
  -22.2356  -14.2689   20.8844 O   0  0  0  0  0  0  0  0  0  0  0  0
  -26.2324  -11.7811   20.2867 O   0  0  0  0  0  0  0  0  0  0  0  0
  -31.2756  -26.0249   16.6738 O   0  0  0  0  0  0  0  0  0  0  0  0
  -19.6094  -28.9993   21.3236 O   0  0  0  0  0  0  0  0  0  0  0  0
  -30.0774  -17.3973   20.1241 O   0  0  0  0  0  0  0  0  0  1  0  0
  -30.7281  -19.5012   22.7855 O   0  0  0  0  0  0  0  0  0  0  0  0
  -16.8005  -24.2906   20.7391 F   0  0  0  0  0  0  0  0  0  0  0  0
  -18.2518  -27.8834   23.4576 F   0  0  0  0  0  0  0  0  0  0  0  0
  1  2  1  0  0  0  0
  1  5  2  0  0  0  0
  2  6  2  0  0  0  0
  3  8  2  0  0  0  0
  3 17  1  0  0  0  0
  4  9  1  0  0  0  0
  4 17  2  0  0  0  0
  5 19  1  0  0  0  0
  6 21  1  0  0  0  0
  7 10  2  0  0  0  0
  7 20  1  0  0  0  0
  8 26  1  0  0  0  0
  9 26  2  0  0  0  0
 10 27  1  0  0  0  0
 11 12  2  0  0  0  0
 11 28  1  0  0  0  0
 12 30  1  0  0  0  0
 13 22  2  0  0  0  0
 13 24  1  0  0  0  0
 14 23  1  0  0  0  0
 14 27  2  0  0  0  0
 15 25  2  0  0  0  0
 15 29  1  0  0  0  0
 16 30  2  0  0  0  0
 16 31  1  0  0  0  0
 17 32  1  0  0  0  0
 18 32  1  0  0  0  0
 18 33  2  0  0  0  0
 18 34  1  0  0  0  0
 19 21  2  0  0  0  0
 19 39  1  0  0  0  0
 20 23  2  0  0  0  0
 20 40  1  0  0  0  0
 21 53  1  0  0  0  0
 22 25  1  0  0  0  0
 22 52  1  0  0  0  0
 23 41  1  0  0  0  0
 24 29  2  0  0  0  0
 24 57  1  0  0  0  0
 25 64  1  0  0  0  0
 26 87  1  0  0  0  0
 27 88  1  0  0  0  0
 28 31  2  0  0  0  0
 28 87  1  0  0  0  0
 29 89  1  0  0  0  0
 30 90  1  0  0  0  0
 31 91  1  0  0  0  0
 32 72  2  0  0  0  0
 33 73  1  0  0  0  0
 33 76  1  0  0  0  0
 34 77  1  0  0  0  0
 34 82  2  0  0  0  0
 35 54  1  0  0  0  0
 35 78  1  0  0  0  0
 35 83  2  0  0  0  0
 36 68  1  0  0  0  0
 36 74  1  0  0  0  0
 36 84  2  0  0  0  0
 37 69  1  0  0  0  0
 37 79  1  0  0  0  0
 37 85  2  0  0  0  0
 38 75  1  0  0  0  0
 38 80  1  0  0  0  0
 38 86  2  0  0  0  0
 39 42  1  0  0  0  0
 40 54  1  0  0  0  0
 41 74  1  0  0  0  0
 42 46  1  0  0  0  0
 43 49  1  0  0  0  0
 43 50  1  0  0  0  0
 44 45  1  0  0  0  0
 44 52  1  0  0  0  0
 45 52  1  0  0  0  0
 46 53  1  0  0  0  0
 47 48  1  0  0  0  0
 47 55  1  0  0  0  0
 48 55  1  0  0  0  0
 49 56  1  0  0  0  0
 50 75  1  0  0  0  0
 51 56  1  0  0  0  0
 51 75  1  0  0  0  0
 53 78  1  0  0  0  0
 54 74  1  0  0  0  0
 55 70  1  0  0  0  0
 56 73  1  0  0  0  0
 58 69  1  0  0  0  0
 59 71  1  0  0  0  0
 60 71  1  0  0  0  0
 61 71  1  0  0  0  0
 62 80  1  0  0  0  0
 63 81  1  0  0  0  0
 64 70  1  0  0  0  0
 65 66  1  0  0  0  0
 65 67  1  0  0  0  0
 66 88  1  0  0  0  0
 67 89  1  0  0  0  0
 68 71  1  0  0  0  0
 68 79  1  0  0  0  0
 69 81  1  0  0  0  0
 70 80  1  0  0  0  0
 72 73  1  0  0  0  0
M  CHG  1  81   1
M  ISO  4  38 100  66 101  80 100  88 101
M  END
> <Batch ID>
0145

> <Smiles>
CNC(C)C(=O)NC(C(=O)N1Cc2cc([101O:1][101CH2:1]CCOc3cc(CC(C4CC4)[100N:0](C)[100C:0](=O)N4CCCC(n5nc(-c6ccc(Oc7ccc(F)cc7F)cc6)c(C(N)=O)c5N)C4)c(C4CC4)cc3C)ccc2CC1C(=O)NC1CCCc2ccccc21)C(C)(C)C

> <Shape>
0.235

> <Color>
0.063

> <Negative vol penalty>
0.000

$$$$

  -OEChem-04052321283D

 88 97  0     1  0  0  0  0  0999 V2000
  -28.6130  -24.0667   17.4549 C   0  0  0  0  0  0  0  0  0  0  0  0
  -27.4411  -24.2279   18.1869 C   0  0  0  0  0  0  0  0  0  0  0  0
  -24.6899  -12.5434   19.6111 C   0  0  0  0  0  0  0  0  0  0  0  0
  -25.5678  -12.8289   21.8437 C   0  0  0  0  0  0  0  0  0  0  0  0
  -29.7714  -24.7413   17.8383 C   0  0  0  0  0  0  0  0  0  0  0  0
  -27.4271  -25.0630   19.3035 C   0  0  0  0  0  0  0  0  0  0  0  0
  -23.3512  -28.0655   19.4328 C   0  0  0  0  0  0  0  0  0  0  0  0
  -25.1992  -11.2453   19.5768 C   0  0  0  0  0  0  0  0  0  0  0  0
  -26.0770  -11.5308   21.8095 C   0  0  0  0  0  0  0  0  0  0  0  0
  -22.1519  -27.4933   19.8548 C   0  0  0  0  0  0  0  0  0  0  0  0
  -27.2962   -8.1659   22.4493 C   0  0  0  0  0  0  0  0  0  0  0  0
  -27.1033   -7.3629   23.5734 C   0  0  0  0  0  0  0  0  0  0  0  0
  -22.4711  -28.4537   22.0446 C   0  0  0  0  0  0  0  0  0  0  0  0
  -24.7106   -7.5796   23.3175 C   0  0  0  0  0  0  0  0  0  0  0  0
  -24.8742  -13.3352   20.7445 C   0  0  0  0  0  0  0  0  0  0  0  0
  -23.0769  -15.0795   21.2291 C   0  0  0  0  0  0  0  0  0  0  0  0
  -29.7691  -25.5927   18.9544 C   0  0  0  0  0  0  0  0  0  0  0  0
  -24.1261  -28.8284   20.3182 C   0  0  0  0  0  0  0  0  0  0  0  0
  -28.5869  -25.7486   19.7030 C   0  0  0  0  0  0  0  0  0  0  0  0
  -23.6785  -29.0367   21.6306 C   0  0  0  0  0  0  0  0  0  0  0  0
  -21.9718  -23.4653   24.2705 C   0  0  0  0  0  0  0  0  0  0  0  0
  -21.2234  -23.7414   23.1316 C   0  0  0  0  0  0  0  0  0  0  0  0
  -20.2307  -24.7139   23.1776 C   0  0  0  0  0  0  0  0  0  0  0  0
  -25.8927  -10.7390   20.6760 C   0  0  0  0  0  0  0  0  0  0  0  0
  -21.7131  -27.6849   21.1617 C   0  0  0  0  0  0  0  0  0  0  0  0
  -26.1964   -8.6758   21.7593 C   0  0  0  0  0  0  0  0  0  0  0  0
  -25.8105   -7.0698   24.0075 C   0  0  0  0  0  0  0  0  0  0  0  0
  -24.9036   -8.3827   22.1934 C   0  0  0  0  0  0  0  0  0  0  0  0
  -24.3489  -14.6764   20.7803 C   0  0  0  0  0  0  0  0  0  0  0  0
  -21.6906  -24.1839   25.4212 C   0  0  0  0  0  0  0  0  0  0  0  0
  -20.0273  -25.3765   24.3774 C   0  0  0  0  0  0  0  0  0  0  0  0
  -23.0687  -16.4424   21.0589 C   0  0  0  0  0  0  0  0  0  0  0  0
  -21.9992  -14.2924   21.7530 C   0  0  0  0  0  0  0  0  0  0  0  0
  -27.0554  -28.5744   21.5258 C   0  0  0  0  0  0  0  0  0  0  0  0
  -26.3802  -31.4986   22.7569 C   0  0  0  0  0  0  0  0  0  0  0  0
  -24.0134  -33.7494   23.7463 C   0  0  0  0  0  0  0  0  0  0  0  0
  -25.5562  -21.4180   21.5074 C   0  0  0  0  0  0  0  0  0  0  0  0
  -31.0580  -26.2639   19.3581 C   0  0  0  0  0  0  0  0  0  0  0  0
  -25.4041  -29.4612   19.8398 C   0  0  0  0  0  0  0  0  0  0  0  0
  -24.4635  -29.8641   22.6143 C   0  0  0  0  0  0  0  0  0  0  0  0
  -30.8622  -27.4222   20.3330 C   0  0  0  0  0  0  0  0  0  0  0  0
  -26.2987  -19.4748   18.6179 C   0  0  0  0  0  0  0  0  0  0  0  0
  -29.9120  -27.0196   21.4563 C   0  0  0  0  0  0  0  0  0  0  0  0
  -25.7585  -18.0858   18.9625 C   0  0  0  0  0  0  0  0  0  0  0  0
  -26.8960  -20.1674   19.8408 C   0  0  0  0  0  0  0  0  0  0  0  0
  -25.4582  -18.8561   21.3531 C   0  0  0  0  0  0  0  0  0  0  0  0
  -23.0435  -22.4263   24.2537 C   0  0  2  0  0  0  0  0  0  0  0  0
  -28.5255  -26.6651   20.9056 C   0  0  1  0  0  0  0  0  0  0  0  0
  -26.3685  -29.7918   20.9747 C   0  0  1  0  0  0  0  0  0  0  0  0
  -24.4417  -22.8142   24.6672 C   0  0  2  0  0  0  0  0  0  0  0  0
  -24.7953  -18.1408   20.1635 C   0  0  2  0  0  0  0  0  0  0  0  0
  -24.1447  -22.5291   23.2199 C   0  0  1  0  0  0  0  0  0  0  0  0
  -22.4599  -23.9321   26.6769 C   0  0  0  0  0  0  0  0  0  0  0  0
  -18.9731  -26.4294   24.4891 C   0  0  0  0  0  0  0  0  0  0  0  0
  -21.3234  -21.4885   22.0356 C   0  0  0  0  0  0  0  0  0  0  0  0
  -26.7385  -22.0913   25.3385 C   0  0  0  0  0  0  0  0  0  0  0  0
  -23.7673  -36.0379   24.7460 C   0  0  0  0  0  0  0  0  0  0  0  0
  -27.1288  -30.3802   25.4953 C   0  0  0  0  0  0  0  0  0  0  0  0
  -25.9806  -32.3472   26.5351 C   0  0  0  0  0  0  0  0  0  0  0  0
  -27.9564  -32.6984   25.0534 C   0  0  0  0  0  0  0  0  0  0  0  0
  -22.5652  -34.7581   21.3706 C   0  0  0  0  0  0  0  0  0  0  0  0
  -21.4824  -22.9951   21.8615 C   0  0  0  0  0  0  0  0  0  0  0  0
  -19.3997  -25.0346   21.9591 C   0  0  0  0  0  0  0  0  0  0  0  0
  -25.2547  -21.8791   25.4967 C   0  0  0  0  0  0  0  0  0  0  0  0
  -20.1519  -25.9027   20.9563 C   0  0  0  0  0  0  0  0  0  1  0  0
  -25.7505  -32.0017   24.0334 C   0  0  1  0  0  0  0  0  0  0  0  0
  -23.8502  -35.2311   23.4595 C   0  0  2  0  0  0  0  0  0  0  0  0
  -26.6900  -31.8396   25.2616 C   0  0  0  0  0  0  0  0  0  0  0  0
  -25.0946  -15.7004   20.3566 N   0  0  0  0  0  0  0  0  0  0  0  0
  -20.7342  -25.1358   25.5044 N   0  0  0  0  0  0  0  0  0  0  0  0
  -24.2887  -16.7604   20.5384 N   0  0  0  0  0  0  0  0  0  0  0  0
  -25.7095  -30.4567   22.1007 N   0  0  0  0  0  0  0  0  0  0  0  0
  -25.9315  -20.1876   20.9433 N   0  0  0  0  0  0  0  0  0  0  0  0
  -22.1371  -17.3878   21.3051 N   0  0  0  0  0  0  0  0  0  0  0  0
  -22.1750  -12.9060   21.8604 N   0  0  0  0  0  0  0  0  0  0  0  0
  -27.7849  -27.8675   20.5889 N   0  0  0  0  0  0  0  0  0  0  0  0
  -25.3408  -33.3773   23.7718 N   0  0  0  0  0  0  0  0  0  0  0  0
  -24.6328  -21.3480   22.5433 N   0  0  0  0  0  0  0  0  0  0  0  0
  -22.6081  -35.4727   22.6724 N   0  3  0  0  0  0  0  0  0  0  0  0
  -20.9064  -14.8013   22.0999 O   0  0  0  0  0  0  0  0  0  0  0  0
  -26.9340  -28.2978   22.7134 O   0  0  0  0  0  0  0  0  0  0  0  0
  -27.4247  -32.0159   22.3530 O   0  0  0  0  0  0  0  0  0  0  0  0
  -23.0589  -32.9980   23.9330 O   0  0  0  0  0  0  0  0  0  0  0  0
  -26.0064  -22.4992   21.1134 O   0  0  0  0  0  0  0  0  0  0  0  0
  -26.3896   -9.4723   20.6431 O   0  0  0  0  0  0  0  0  0  0  0  0
  -20.5433  -27.1269   21.5764 O   0  0  0  0  0  0  0  0  0  1  0  0
  -25.6253   -6.2974   25.0861 F   0  0  0  0  0  0  0  0  0  0  0  0
  -23.8431   -8.8687   21.5339 F   0  0  0  0  0  0  0  0  0  0  0  0
  1  2  1  0  0  0  0
  1  5  2  0  0  0  0
  2  6  2  0  0  0  0
  3  8  2  0  0  0  0
  3 15  1  0  0  0  0
  4  9  1  0  0  0  0
  4 15  2  0  0  0  0
  5 17  1  0  0  0  0
  6 19  1  0  0  0  0
  7 10  2  0  0  0  0
  7 18  1  0  0  0  0
  8 24  1  0  0  0  0
  9 24  2  0  0  0  0
 10 25  1  0  0  0  0
 11 12  2  0  0  0  0
 11 26  1  0  0  0  0
 12 27  1  0  0  0  0
 13 20  1  0  0  0  0
 13 25  2  0  0  0  0
 14 27  2  0  0  0  0
 14 28  1  0  0  0  0
 15 29  1  0  0  0  0
 16 29  1  0  0  0  0
 16 32  2  0  0  0  0
 16 33  1  0  0  0  0
 17 19  2  0  0  0  0
 17 38  1  0  0  0  0
 18 20  2  0  0  0  0
 18 39  1  0  0  0  0
 19 48  1  0  0  0  0
 20 40  1  0  0  0  0
 21 22  2  0  0  0  0
 21 30  1  0  0  0  0
 21 47  1  0  0  0  0
 22 23  1  0  0  0  0
 22 62  1  0  0  0  0
 23 31  2  0  0  0  0
 23 63  1  0  0  0  0
 24 85  1  0  0  0  0
 25 86  1  0  0  0  0
 26 28  2  0  0  0  0
 26 85  1  0  0  0  0
 27 87  1  0  0  0  0
 28 88  1  0  0  0  0
 29 69  2  0  0  0  0
 30 53  1  0  0  0  0
 30 70  2  0  0  0  0
 31 54  1  0  0  0  0
 31 70  1  0  0  0  0
 32 71  1  0  0  0  0
 32 74  1  0  0  0  0
 33 75  1  0  0  0  0
 33 80  2  0  0  0  0
 34 49  1  0  0  0  0
 34 76  1  0  0  0  0
 34 81  2  0  0  0  0
 35 66  1  0  0  0  0
 35 72  1  0  0  0  0
 35 82  2  0  0  0  0
 36 67  1  0  0  0  0
 36 77  1  0  0  0  0
 36 83  2  0  0  0  0
 37 73  1  0  0  0  0
 37 78  1  0  0  0  0
 37 84  2  0  0  0  0
 38 41  1  0  0  0  0
 39 49  1  0  0  0  0
 40 72  1  0  0  0  0
 41 43  1  0  0  0  0
 42 44  1  0  0  0  0
 42 45  1  0  0  0  0
 43 48  1  0  0  0  0
 44 51  1  0  0  0  0
 45 73  1  0  0  0  0
 46 51  1  0  0  0  0
 46 73  1  0  0  0  0
 47 50  1  0  0  0  0
 47 52  1  0  0  0  0
 48 76  1  0  0  0  0
 49 72  1  0  0  0  0
 50 52  1  0  0  0  0
 50 64  1  0  0  0  0
 51 71  1  0  0  0  0
 52 78  1  0  0  0  0
 55 62  1  0  0  0  0
 56 64  1  0  0  0  0
 57 67  1  0  0  0  0
 58 68  1  0  0  0  0
 59 68  1  0  0  0  0
 60 68  1  0  0  0  0
 61 79  1  0  0  0  0
 63 65  1  0  0  0  0
 65 86  1  0  0  0  0
 66 68  1  0  0  0  0
 66 77  1  0  0  0  0
 67 79  1  0  0  0  0
 69 71  1  0  0  0  0
M  CHG  1  79   1
M  ISO  4  37 100  65 101  78 100  86 101
M  END
> <Batch ID>
0145

> <Smiles>
CCc1c(C[101CH2:1][101O:1]c2ccc3c(c2)CN(C(=O)C(NC(=O)C(C)NC)C(C)(C)C)C(C(=O)NC2CCCc4ccccc42)C3)c(C)nc(C)c1C1C(CC)C1[100NH:0][100C:0](=O)N1CCCC(n2nc(-c3ccc(Oc4ccc(F)cc4F)cc3)c(C(N)=O)c2N)C1

> <Shape>
0.254

> <Color>
0.091

> <Negative vol penalty>
0.000

$$$$

  -OEChem-04052321283D

 87 96  0     1  0  0  0  0  0999 V2000
  -21.3624  -12.5957   20.0106 C   0  0  0  0  0  0  0  0  0  0  0  0
  -21.4266  -13.9414   20.3577 C   0  0  0  0  0  0  0  0  0  0  0  0
  -31.2303  -29.1525   19.7169 C   0  0  0  0  0  0  0  0  0  0  0  0
  -30.3683  -29.9690   21.8210 C   0  0  0  0  0  0  0  0  0  0  0  0
  -22.5054  -11.8012   20.0898 C   0  0  0  0  0  0  0  0  0  0  0  0
  -22.6337  -14.4931   20.7854 C   0  0  0  0  0  0  0  0  0  0  0  0
  -23.5865  -18.9807   18.6410 C   0  0  0  0  0  0  0  0  0  0  0  0
  -20.8639  -24.6302   19.9874 C   0  0  0  0  0  0  0  0  0  0  0  0
  -20.3614  -25.7904   20.5763 C   0  0  0  0  0  0  0  0  0  0  0  0
  -32.2999  -30.0429   19.8096 C   0  0  0  0  0  0  0  0  0  0  0  0
  -31.4380  -30.8594   21.9137 C   0  0  0  0  0  0  0  0  0  0  0  0
  -22.9085  -20.0869   19.1512 C   0  0  0  0  0  0  0  0  0  0  0  0
  -33.7464  -33.5986   22.5287 C   0  0  0  0  0  0  0  0  0  0  0  0
  -33.4664  -34.9110   22.9090 C   0  0  0  0  0  0  0  0  0  0  0  0
  -24.8671  -20.6940   20.4217 C   0  0  0  0  0  0  0  0  0  0  0  0
  -20.6379  -23.4643   22.0914 C   0  0  0  0  0  0  0  0  0  0  0  0
  -32.0319  -35.1635   20.9814 C   0  0  0  0  0  0  0  0  0  0  0  0
  -30.2644  -29.1156   20.7226 C   0  0  0  0  0  0  0  0  0  0  0  0
  -29.2248  -26.7921   20.5551 C   0  0  0  0  0  0  0  0  0  0  0  0
  -23.7293  -12.3458   20.5094 C   0  0  0  0  0  0  0  0  0  0  0  0
  -24.9086  -18.7163   19.0265 C   0  0  0  0  0  0  0  0  0  0  0  0
  -23.7939  -13.7048   20.8716 C   0  0  0  0  0  0  0  0  0  0  0  0
  -25.5606  -19.5852   19.9131 C   0  0  0  0  0  0  0  0  0  0  0  0
  -21.0021  -23.4671   20.7449 C   0  0  0  0  0  0  0  0  0  0  0  0
  -20.1355  -24.6246   22.6804 C   0  0  0  0  0  0  0  0  0  0  0  0
  -19.9972  -25.7877   21.9228 C   0  0  0  0  0  0  0  0  0  0  0  0
  -32.4038  -30.8963   20.9080 C   0  0  0  0  0  0  0  0  0  0  0  0
  -23.5478  -20.9422   20.0439 C   0  0  0  0  0  0  0  0  0  0  0  0
  -33.1692  -33.0686   21.3747 C   0  0  0  0  0  0  0  0  0  0  0  0
  -32.6091  -35.6935   22.1354 C   0  0  0  0  0  0  0  0  0  0  0  0
  -32.3120  -33.8511   20.6011 C   0  0  0  0  0  0  0  0  0  0  0  0
  -29.1589  -28.1965   20.6272 C   0  0  0  0  0  0  0  0  0  0  0  0
  -27.9136  -26.3903   20.4787 C   0  0  0  0  0  0  0  0  0  0  0  0
  -30.3689  -25.9280   20.5572 C   0  0  0  0  0  0  0  0  0  0  0  0
  -26.3704  -16.3320   20.5372 C   0  0  0  0  0  0  0  0  0  0  0  0
  -29.0425  -18.0081   19.7798 C   0  0  0  0  0  0  0  0  0  0  0  0
  -30.4490  -21.0147   18.9869 C   0  0  0  0  0  0  0  0  0  0  0  0
  -22.9120  -28.9116   22.3450 C   0  0  0  0  0  0  0  0  0  0  0  0
  -24.9271  -11.4365   20.6243 C   0  0  0  0  0  0  0  0  0  0  0  0
  -25.6350  -17.5338   18.4465 C   0  0  0  0  0  0  0  0  0  0  0  0
  -26.9860  -19.3569   20.3428 C   0  0  0  0  0  0  0  0  0  0  0  0
  -26.2529  -12.1858   20.7289 C   0  0  0  0  0  0  0  0  0  0  0  0
  -15.9773  -27.3333   21.3677 C   0  0  0  0  0  0  0  0  0  0  0  0
  -16.0849  -28.4398   22.4207 C   0  0  0  0  0  0  0  0  0  0  0  0
  -23.6258  -27.8717   18.9529 C   0  0  0  0  0  0  0  0  0  0  0  0
  -26.1468  -13.3195   21.7440 C   0  0  0  0  0  0  0  0  0  0  0  0
  -25.1457  -27.7042   18.9996 C   0  0  0  0  0  0  0  0  0  0  0  0
  -17.2941  -26.5638   21.4289 C   0  0  0  0  0  0  0  0  0  0  0  0
  -17.4614  -28.2805   23.0608 C   0  0  0  0  0  0  0  0  0  0  0  0
  -23.1747  -29.0613   19.7952 C   0  0  0  0  0  0  0  0  0  0  0  0
  -25.1417  -28.8484   21.2647 C   0  0  0  0  0  0  0  0  0  0  0  0
  -25.0906  -14.3457   21.3165 C   0  0  1  0  0  0  0  0  0  0  0  0
  -26.8085  -17.0732   19.3057 C   0  0  1  0  0  0  0  0  0  0  0  0
  -25.6589  -27.6484   20.4507 C   0  0  2  0  0  0  0  0  0  0  0  0
  -18.2817  -27.5845   21.9814 C   0  0  0  0  0  0  0  0  0  0  0  0
  -19.7532  -24.5936   24.1245 C   0  0  0  0  0  0  0  0  0  0  0  0
  -32.6607  -22.0772   18.4608 C   0  0  0  0  0  0  0  0  0  0  0  0
  -29.7887  -17.9134   22.7368 C   0  0  0  0  0  0  0  0  0  0  0  0
  -31.4389  -19.7467   22.3075 C   0  0  0  0  0  0  0  0  0  0  0  0
  -31.6996  -17.5438   21.1664 C   0  0  0  0  0  0  0  0  0  0  0  0
  -29.5419  -21.8424   16.2942 C   0  0  0  0  0  0  0  0  0  0  0  0
  -21.5426  -22.2192   20.1109 C   0  0  0  0  0  0  0  0  0  1  0  0
  -20.6160  -28.9894   23.2828 C   0  0  0  0  0  0  0  0  0  0  0  0
  -20.1631  -27.5801   23.6316 C   0  0  0  0  0  0  0  0  0  0  0  0
  -29.8432  -19.1013   20.4451 C   0  0  1  0  0  0  0  0  0  0  0  0
  -31.4169  -21.4155   17.8883 C   0  0  2  0  0  0  0  0  0  0  0  0
  -30.6651  -18.5798   21.6576 C   0  0  0  0  0  0  0  0  0  0  0  0
  -27.9051  -28.6560   20.5989 N   0  0  0  0  0  0  0  0  0  0  0  0
  -27.1710  -27.5339   20.5081 N   0  0  0  0  0  0  0  0  0  0  0  0
  -27.6517  -18.1837   19.7530 N   0  0  0  0  0  0  0  0  0  0  0  0
  -23.6808  -28.9377   21.1695 N   0  0  0  0  0  0  0  0  0  0  0  0
  -27.3349  -25.1739   20.3899 N   0  0  0  0  0  0  0  0  0  0  0  0
  -30.8504  -25.4599   21.7874 N   0  0  0  0  0  0  0  0  0  0  0  0
  -25.6134  -15.2058   20.2766 N   0  0  0  0  0  0  0  0  0  0  0  0
  -30.6502  -19.7130   19.3949 N   0  0  0  0  0  0  0  0  0  0  0  0
  -21.5372  -29.0081   22.1683 N   0  0  0  0  0  0  0  0  0  0  0  0
  -19.4904  -26.9716   22.5022 N   0  0  3  0  0  0  0  0  0  0  0  0
  -30.7663  -22.3716   16.9483 N   0  3  0  0  0  0  0  0  0  0  0  0
  -30.9571  -25.5945   19.5007 O   0  0  0  0  0  0  0  0  0  0  0  0
  -26.6965  -16.7502   21.6420 O   0  0  0  0  0  0  0  0  0  0  0  0
  -29.6299  -17.0376   19.2952 O   0  0  0  0  0  0  0  0  0  0  0  0
  -29.6019  -21.7809   19.4406 O   0  0  0  0  0  0  0  0  0  0  0  0
  -23.4136  -28.8047   23.4693 O   0  0  0  0  0  0  0  0  0  0  0  0
  -33.4476  -31.7651   20.9989 O   0  0  0  0  0  0  0  0  0  0  0  0
  -22.8880  -22.0223   20.5438 O   0  0  0  0  0  0  0  0  0  1  0  0
  -32.3391  -36.9533   22.5016 F   0  0  0  0  0  0  0  0  0  0  0  0
  -31.7536  -33.3470   19.4920 F   0  0  0  0  0  0  0  0  0  0  0  0
  1  2  1  0  0  0  0
  1  5  2  0  0  0  0
  2  6  2  0  0  0  0
  3 10  2  0  0  0  0
  3 18  1  0  0  0  0
  4 11  1  0  0  0  0
  4 18  2  0  0  0  0
  5 20  1  0  0  0  0
  6 22  1  0  0  0  0
  7 12  2  0  0  0  0
  7 21  1  0  0  0  0
  8  9  2  0  0  0  0
  8 24  1  0  0  0  0
  9 26  1  0  0  0  0
 10 27  1  0  0  0  0
 11 27  2  0  0  0  0
 12 28  1  0  0  0  0
 13 14  2  0  0  0  0
 13 29  1  0  0  0  0
 14 30  1  0  0  0  0
 15 23  1  0  0  0  0
 15 28  2  0  0  0  0
 16 24  2  0  0  0  0
 16 25  1  0  0  0  0
 17 30  2  0  0  0  0
 17 31  1  0  0  0  0
 18 32  1  0  0  0  0
 19 32  1  0  0  0  0
 19 33  2  0  0  0  0
 19 34  1  0  0  0  0
 20 22  2  0  0  0  0
 20 39  1  0  0  0  0
 21 23  2  0  0  0  0
 21 40  1  0  0  0  0
 22 52  1  0  0  0  0
 23 41  1  0  0  0  0
 24 62  1  0  0  0  0
 25 26  2  0  0  0  0
 25 56  1  0  0  0  0
 26 77  1  0  0  0  0
 27 84  1  0  0  0  0
 28 85  1  0  0  0  0
 29 31  2  0  0  0  0
 29 84  1  0  0  0  0
 30 86  1  0  0  0  0
 31 87  1  0  0  0  0
 32 68  2  0  0  0  0
 33 69  1  0  0  0  0
 33 72  1  0  0  0  0
 34 73  1  0  0  0  0
 34 79  2  0  0  0  0
 35 53  1  0  0  0  0
 35 74  1  0  0  0  0
 35 80  2  0  0  0  0
 36 65  1  0  0  0  0
 36 70  1  0  0  0  0
 36 81  2  0  0  0  0
 37 66  1  0  0  0  0
 37 75  1  0  0  0  0
 37 82  2  0  0  0  0
 38 71  1  0  0  0  0
 38 76  1  0  0  0  0
 38 83  2  0  0  0  0
 39 42  1  0  0  0  0
 40 53  1  0  0  0  0
 41 70  1  0  0  0  0
 42 46  1  0  0  0  0
 43 44  1  0  0  0  0
 43 48  1  0  0  0  0
 44 49  1  0  0  0  0
 45 47  1  0  0  0  0
 45 50  1  0  0  0  0
 46 52  1  0  0  0  0
 47 54  1  0  0  0  0
 48 55  1  0  0  0  0
 49 55  1  0  0  0  0
 50 71  1  0  0  0  0
 51 54  1  0  0  0  0
 51 71  1  0  0  0  0
 52 74  1  0  0  0  0
 53 70  1  0  0  0  0
 54 69  1  0  0  0  0
 55 77  1  0  0  0  0
 57 66  1  0  0  0  0
 58 67  1  0  0  0  0
 59 67  1  0  0  0  0
 60 67  1  0  0  0  0
 61 78  1  0  0  0  0
 62 85  1  0  0  0  0
 63 64  1  0  0  0  0
 63 76  1  0  0  0  0
 64 77  1  0  0  0  0
 65 67  1  0  0  0  0
 65 75  1  0  0  0  0
 66 78  1  0  0  0  0
 68 69  1  0  0  0  0
M  CHG  1  78   1
M  ISO  4  38 100  62 101  76 100  85 101
M  END
> <Batch ID>
0145

> <Smiles>
CNC(C)C(=O)NC(C(=O)N1Cc2cc([101O:1][101CH2:1]c3ccc(N(CC[100NH:0][100C:0](=O)N4CCCC(n5nc(-c6ccc(Oc7ccc(F)cc7F)cc6)c(C(N)=O)c5N)C4)C4CCCC4)c(C)c3)ccc2CC1C(=O)NC1CCCc2ccccc21)C(C)(C)C

> <Shape>
0.244

> <Color>
0.101

> <Negative vol penalty>
0.000

$$$$

  -OEChem-04052321283D

 85 94  0     1  0  0  0  0  0999 V2000
  -29.2492  -36.0827   19.2862 C   0  0  0  0  0  0  0  0  0  0  0  0
  -29.3778  -34.7316   19.5918 C   0  0  0  0  0  0  0  0  0  0  0  0
  -24.7483   -6.4573   22.7532 C   0  0  0  0  0  0  0  0  0  0  0  0
  -26.2490   -7.2540   21.0355 C   0  0  0  0  0  0  0  0  0  0  0  0
  -28.2459  -36.8402   19.8892 C   0  0  0  0  0  0  0  0  0  0  0  0
  -28.5038  -34.1374   20.5015 C   0  0  0  0  0  0  0  0  0  0  0  0
  -26.7905  -29.6486   18.9013 C   0  0  0  0  0  0  0  0  0  0  0  0
  -25.6444   -5.4338   23.0613 C   0  0  0  0  0  0  0  0  0  0  0  0
  -27.1451   -6.2305   21.3437 C   0  0  0  0  0  0  0  0  0  0  0  0
  -27.6500  -28.5579   19.0257 C   0  0  0  0  0  0  0  0  0  0  0  0
  -28.5294   -5.0854   24.7901 C   0  0  0  0  0  0  0  0  0  0  0  0
  -28.7969   -4.8418   26.1372 C   0  0  0  0  0  0  0  0  0  0  0  0
  -26.4842  -27.8749   21.0241 C   0  0  0  0  0  0  0  0  0  0  0  0
  -27.9698   -2.5849   25.8934 C   0  0  0  0  0  0  0  0  0  0  0  0
  -25.0506   -7.3674   21.7402 C   0  0  0  0  0  0  0  0  0  0  0  0
  -22.7945   -8.2861   20.9826 C   0  0  0  0  0  0  0  0  0  0  0  0
  -27.3531  -36.2528   20.7994 C   0  0  0  0  0  0  0  0  0  0  0  0
  -25.7766  -29.8671   19.8451 C   0  0  0  0  0  0  0  0  0  0  0  0
  -27.4884  -34.8881   21.1182 C   0  0  0  0  0  0  0  0  0  0  0  0
  -25.6116  -28.9676   20.9080 C   0  0  0  0  0  0  0  0  0  0  0  0
  -26.8428   -5.3204   22.3566 C   0  0  0  0  0  0  0  0  0  0  0  0
  -27.4988  -27.6725   20.0888 C   0  0  0  0  0  0  0  0  0  0  0  0
  -27.9819   -4.0787   23.9947 C   0  0  0  0  0  0  0  0  0  0  0  0
  -28.5172   -3.5916   26.6889 C   0  0  0  0  0  0  0  0  0  0  0  0
  -27.7022   -2.8285   24.5463 C   0  0  0  0  0  0  0  0  0  0  0  0
  -24.1251   -8.4246   21.4210 C   0  0  0  0  0  0  0  0  0  0  0  0
  -22.3505   -9.5756   20.8200 C   0  0  0  0  0  0  0  0  0  0  0  0
  -22.0284   -7.0979   20.7438 C   0  0  0  0  0  0  0  0  0  0  0  0
  -25.0954  -32.1862   21.9094 C   0  0  0  0  0  0  0  0  0  0  0  0
  -22.4060  -30.4371   22.3891 C   0  0  0  0  0  0  0  0  0  0  0  0
  -20.8609  -27.3980   22.2367 C   0  0  0  0  0  0  0  0  0  0  0  0
  -25.3914  -14.5744   19.6959 C   0  0  0  0  0  0  0  0  0  0  0  0
  -26.3143  -37.1229   21.4616 C   0  0  0  0  0  0  0  0  0  0  0  0
  -24.8409  -31.0334   19.6818 C   0  0  0  0  0  0  0  0  0  0  0  0
  -24.5260  -29.1462   21.9367 C   0  0  0  0  0  0  0  0  0  0  0  0
  -25.1936  -36.3314   22.1308 C   0  0  0  0  0  0  0  0  0  0  0  0
  -23.0068  -14.0065   22.4533 C   0  0  0  0  0  0  0  0  0  0  0  0
  -25.7695  -35.1894   22.9621 C   0  0  0  0  0  0  0  0  0  0  0  0
  -25.8709  -19.0518   17.6415 C   0  0  0  0  0  0  0  0  0  0  0  0
  -28.0822  -17.8378   17.7974 C   0  0  0  0  0  0  0  0  0  0  0  0
  -22.9521  -12.4820   22.4846 C   0  0  0  0  0  0  0  0  0  0  0  0
  -25.2932  -18.1435   18.7274 C   0  0  0  0  0  0  0  0  0  0  0  0
  -27.5081  -16.9268   18.8829 C   0  0  0  0  0  0  0  0  0  0  0  0
  -27.3159  -23.9193   20.9552 C   0  0  0  0  0  0  0  0  0  0  0  0
  -24.3896  -14.5228   22.0578 C   0  0  0  0  0  0  0  0  0  0  0  0
  -24.8343  -12.4323   20.8024 C   0  0  0  0  0  0  0  0  0  0  0  0
  -27.0403  -22.4144   20.8153 C   0  0  0  0  0  0  0  0  0  0  0  0
  -26.5441  -34.2018   22.0812 C   0  0  1  0  0  0  0  0  0  0  0  0
  -24.1680  -31.4468   20.9871 C   0  0  1  0  0  0  0  0  0  0  0  0
  -27.3953  -19.2096   17.7359 C   0  0  0  0  0  0  0  0  0  0  0  0
  -23.4381  -11.8943   21.1509 C   0  0  1  0  0  0  0  0  0  0  0  0
  -25.9912  -16.7819   18.7477 C   0  0  0  0  0  0  0  0  0  0  0  0
  -27.8397  -23.8362   19.5060 C   0  0  1  0  0  0  0  0  0  0  0  0
  -18.6728  -26.2735   22.7318 C   0  0  0  0  0  0  0  0  0  0  0  0
  -23.0646  -30.4726   25.3682 C   0  0  0  0  0  0  0  0  0  0  0  0
  -21.4388  -28.5942   25.6789 C   0  0  0  0  0  0  0  0  0  0  0  0
  -20.6443  -30.8015   24.8308 C   0  0  0  0  0  0  0  0  0  0  0  0
  -20.4811  -26.6316   19.4034 C   0  0  0  0  0  0  0  0  0  0  0  0
  -27.8001  -20.0982   18.9154 C   0  0  0  0  0  0  0  0  0  0  0  0
  -29.1298  -24.5699   19.2011 C   0  0  0  0  0  0  0  0  0  0  0  0
  -27.6049  -21.5699   18.5876 C   0  0  0  0  0  0  0  0  0  0  0  0
  -28.8705  -26.0573   19.0094 C   0  0  0  0  0  0  0  0  0  1  0  0
  -22.0138  -29.3115   23.3155 C   0  0  1  0  0  0  0  0  0  0  0  0
  -19.5122  -26.9805   21.6790 C   0  0  2  0  0  0  0  0  0  0  0  0
  -21.8121  -29.7924   24.7802 C   0  0  0  0  0  0  0  0  0  0  0  0
  -24.5018   -9.7015   21.5299 N   0  0  0  0  0  0  0  0  0  0  0  0
  -23.4013  -10.3770   21.1574 N   0  0  0  0  0  0  0  0  0  0  0  0
  -23.6403  -30.3052   21.7372 N   0  0  0  0  0  0  0  0  0  0  0  0
  -24.8637  -13.9001   20.8118 N   0  0  0  0  0  0  0  0  0  0  0  0
  -21.1677  -10.0909   20.4227 N   0  0  0  0  0  0  0  0  0  0  0  0
  -22.0583   -6.5299   19.4629 N   0  0  0  0  0  0  0  0  0  0  0  0
  -25.6295  -33.3385   21.3651 N   0  0  0  0  0  0  0  0  0  0  0  0
  -20.8352  -28.6877   22.7237 N   0  0  0  0  0  0  0  0  0  0  0  0
  -25.4682  -15.9583   19.8048 N   0  0  0  0  0  0  0  0  0  0  0  0
  -28.0513  -22.3861   19.7386 N   0  3  2  0  0  0  0  0  0  0  0  0
  -19.6928  -26.0566   20.5237 N   0  3  0  0  0  0  0  0  0  0  0  0
  -21.3248   -6.5653   21.6353 O   0  0  0  0  0  0  0  0  0  0  0  0
  -25.3094  -31.7447   23.0324 O   0  0  0  0  0  0  0  0  0  0  0  0
  -21.6420  -31.3946   22.2435 O   0  0  0  0  0  0  0  0  0  0  0  0
  -21.8385  -26.6530   22.2433 O   0  0  0  0  0  0  0  0  0  0  0  0
  -25.7726  -13.9874   18.6771 O   0  0  0  0  0  0  0  0  0  0  0  0
  -27.7176   -4.3219   22.6572 O   0  0  0  0  0  0  0  0  0  0  0  0
  -28.3367  -26.6074   20.2130 O   0  0  0  0  0  0  0  0  0  1  0  0
  -28.7757   -3.3574   27.9821 F   0  0  0  0  0  0  0  0  0  0  0  0
  -27.1774   -1.8571   23.7868 F   0  0  0  0  0  0  0  0  0  0  0  0
  1  2  1  0  0  0  0
  1  5  2  0  0  0  0
  2  6  2  0  0  0  0
  3  8  2  0  0  0  0
  3 15  1  0  0  0  0
  4  9  1  0  0  0  0
  4 15  2  0  0  0  0
  5 17  1  0  0  0  0
  6 19  1  0  0  0  0
  7 10  2  0  0  0  0
  7 18  1  0  0  0  0
  8 21  1  0  0  0  0
  9 21  2  0  0  0  0
 10 22  1  0  0  0  0
 11 12  2  0  0  0  0
 11 23  1  0  0  0  0
 12 24  1  0  0  0  0
 13 20  1  0  0  0  0
 13 22  2  0  0  0  0
 14 24  2  0  0  0  0
 14 25  1  0  0  0  0
 15 26  1  0  0  0  0
 16 26  1  0  0  0  0
 16 27  2  0  0  0  0
 16 28  1  0  0  0  0
 17 19  2  0  0  0  0
 17 33  1  0  0  0  0
 18 20  2  0  0  0  0
 18 34  1  0  0  0  0
 19 48  1  0  0  0  0
 20 35  1  0  0  0  0
 21 82  1  0  0  0  0
 22 83  1  0  0  0  0
 23 25  2  0  0  0  0
 23 82  1  0  0  0  0
 24 84  1  0  0  0  0
 25 85  1  0  0  0  0
 26 66  2  0  0  0  0
 27 67  1  0  0  0  0
 27 70  1  0  0  0  0
 28 71  1  0  0  0  0
 28 77  2  0  0  0  0
 29 49  1  0  0  0  0
 29 72  1  0  0  0  0
 29 78  2  0  0  0  0
 30 63  1  0  0  0  0
 30 68  1  0  0  0  0
 30 79  2  0  0  0  0
 31 64  1  0  0  0  0
 31 73  1  0  0  0  0
 31 80  2  0  0  0  0
 32 69  1  0  0  0  0
 32 74  1  0  0  0  0
 32 81  2  0  0  0  0
 33 36  1  0  0  0  0
 34 49  1  0  0  0  0
 35 68  1  0  0  0  0
 36 38  1  0  0  0  0
 37 41  1  0  0  0  0
 37 45  1  0  0  0  0
 38 48  1  0  0  0  0
 39 42  1  0  0  0  0
 39 50  1  0  0  0  0
 40 43  1  0  0  0  0
 40 50  1  0  0  0  0
 41 51  1  0  0  0  0
 42 52  1  0  0  0  0
 43 52  1  0  0  0  0
 44 47  1  0  0  0  0
 44 53  1  0  0  0  0
 45 69  1  0  0  0  0
 46 51  1  0  0  0  0
 46 69  1  0  0  0  0
 47 75  1  0  0  0  0
 48 72  1  0  0  0  0
 49 68  1  0  0  0  0
 50 59  1  0  0  0  0
 51 67  1  0  0  0  0
 52 74  1  0  0  0  0
 53 60  1  0  0  0  0
 53 75  1  0  0  0  0
 54 64  1  0  0  0  0
 55 65  1  0  0  0  0
 56 65  1  0  0  0  0
 57 65  1  0  0  0  0
 58 76  1  0  0  0  0
 59 61  1  0  0  0  0
 60 62  1  0  0  0  0
 61 75  1  0  0  0  0
 62 83  1  0  0  0  0
 63 65  1  0  0  0  0
 63 73  1  0  0  0  0
 64 76  1  0  0  0  0
 66 67  1  0  0  0  0
M  CHG  2  75   1  76   1
M  ISO  4  32 100  62 101  74 100  83 101
M  END
> <Batch ID>
0145

> <Smiles>
CNC(C)C(=O)NC(C(=O)N1Cc2cc([101O:1][101CH2:1]CC3CCN3CCC3CCC([100NH:0][100C:0](=O)N4CCCC(n5nc(-c6ccc(Oc7ccc(F)cc7F)cc6)c(C(N)=O)c5N)C4)CC3)ccc2CC1C(=O)NC1CCCc2ccccc21)C(C)(C)C

> <Shape>
0.248

> <Color>
0.096

> <Negative vol penalty>
0.000

$$$$

  -OEChem-04052321283D

 92102  0     1  0  0  0  0  0999 V2000
  -21.6972  -11.7663   19.8421 C   0  0  0  0  0  0  0  0  0  0  0  0
  -21.6195  -13.0312   20.4161 C   0  0  0  0  0  0  0  0  0  0  0  0
  -27.0776  -27.5961   15.2906 C   0  0  0  0  0  0  0  0  0  0  0  0
  -28.2939  -29.6758   15.4712 C   0  0  0  0  0  0  0  0  0  0  0  0
  -22.9304  -11.1244   19.7367 C   0  0  0  0  0  0  0  0  0  0  0  0
  -22.7750  -13.6545   20.8861 C   0  0  0  0  0  0  0  0  0  0  0  0
  -23.0471  -18.5240   19.5227 C   0  0  0  0  0  0  0  0  0  0  0  0
  -22.6684  -26.8683   24.3836 C   0  0  0  0  0  0  0  0  0  0  0  0
  -27.1563  -27.6708   13.9000 C   0  0  0  0  0  0  0  0  0  0  0  0
  -28.3727  -29.7505   14.0806 C   0  0  0  0  0  0  0  0  0  0  0  0
  -22.2728  -19.4314   20.2442 C   0  0  0  0  0  0  0  0  0  0  0  0
  -23.6113  -25.8619   24.1747 C   0  0  0  0  0  0  0  0  0  0  0  0
  -29.4557  -27.0552   11.4985 C   0  0  0  0  0  0  0  0  0  0  0  0
  -29.8076  -25.8968   10.8059 C   0  0  0  0  0  0  0  0  0  0  0  0
  -24.2174  -20.0642   21.5238 C   0  0  0  0  0  0  0  0  0  0  0  0
  -21.2212  -25.8546   22.7358 C   0  0  0  0  0  0  0  0  0  0  0  0
  -27.7058  -25.9692    9.6167 C   0  0  0  0  0  0  0  0  0  0  0  0
  -18.0621  -26.9990   23.7206 C   0  0  0  0  0  0  0  0  0  0  0  0
  -17.1044  -26.5924   24.6062 C   0  0  0  0  0  0  0  0  0  0  0  0
  -27.6464  -28.5986   16.0762 C   0  0  0  0  0  0  0  0  0  0  0  0
  -28.4842  -27.9090   18.3850 C   0  0  0  0  0  0  0  0  0  0  0  0
  -24.1029  -11.7442   20.1969 C   0  0  0  0  0  0  0  0  0  0  0  0
  -24.4124  -18.3717   19.8041 C   0  0  0  0  0  0  0  0  0  0  0  0
  -24.0248  -13.0197   20.7880 C   0  0  0  0  0  0  0  0  0  0  0  0
  -25.0075  -19.1559   20.8026 C   0  0  0  0  0  0  0  0  0  0  0  0
  -21.4733  -26.8646   23.6642 C   0  0  0  0  0  0  0  0  0  0  0  0
  -27.8039  -28.7480   13.2950 C   0  0  0  0  0  0  0  0  0  0  0  0
  -22.8573  -20.1996   21.2469 C   0  0  0  0  0  0  0  0  0  0  0  0
  -23.3592  -24.8518   23.2463 C   0  0  0  0  0  0  0  0  0  0  0  0
  -28.2287  -27.6706   11.2502 C   0  0  0  0  0  0  0  0  0  0  0  0
  -22.1641  -24.8482   22.5268 C   0  0  0  0  0  0  0  0  0  0  0  0
  -28.9328  -25.3537    9.8650 C   0  0  0  0  0  0  0  0  0  0  0  0
  -27.3539  -27.1276   10.3093 C   0  0  0  0  0  0  0  0  0  0  0  0
  -27.5649  -28.5222   17.5128 C   0  0  0  0  0  0  0  0  0  0  0  0
  -27.9562  -28.1100   19.6369 C   0  0  0  0  0  0  0  0  0  0  0  0
  -18.8736  -27.2457   25.7653 C   0  0  0  0  0  0  0  0  0  0  0  0
  -29.7061  -27.2195   18.0899 C   0  0  0  0  0  0  0  0  0  0  0  0
  -26.2404  -15.9766   20.8170 C   0  0  0  0  0  0  0  0  0  0  0  0
  -28.6396  -18.0876   20.2601 C   0  0  0  0  0  0  0  0  0  0  0  0
  -29.6223  -21.3410   19.9500 C   0  0  0  0  0  0  0  0  0  0  0  0
  -22.3120  -28.9848   21.3327 C   0  0  0  0  0  0  0  0  0  0  0  0
  -25.4064  -10.9912   20.1043 C   0  0  0  0  0  0  0  0  0  0  0  0
  -25.2397  -17.4077   18.9986 C   0  0  0  0  0  0  0  0  0  0  0  0
  -26.4734  -19.0449   21.1298 C   0  0  0  0  0  0  0  0  0  0  0  0
  -26.6360  -11.8774   20.2862 C   0  0  0  0  0  0  0  0  0  0  0  0
  -25.2156  -31.1218   22.1167 C   0  0  0  0  0  0  0  0  0  0  0  0
  -26.4557  -12.8007   21.4870 C   0  0  0  0  0  0  0  0  0  0  0  0
  -20.7872  -26.5144   27.3920 C   0  0  0  0  0  0  0  0  0  0  0  0
  -19.5958  -26.8217   28.2444 C   0  0  0  0  0  0  0  0  0  0  0  0
  -26.2117  -30.6644   21.0552 C   0  0  0  0  0  0  0  0  0  0  0  0
  -23.7749  -31.0748   21.6095 C   0  0  0  0  0  0  0  0  0  0  0  0
  -24.3767  -29.2861   20.0024 C   0  0  0  0  0  0  0  0  0  0  0  0
  -25.2594  -13.7389   21.2869 C   0  0  1  0  0  0  0  0  0  0  0  0
  -19.7937  -27.5665   26.9381 C   0  0  0  0  0  0  0  0  0  0  0  0
  -26.5102  -16.9648   19.7177 C   0  0  1  0  0  0  0  0  0  0  0  0
  -25.8266  -29.2804   20.5105 C   0  0  1  0  0  0  0  0  0  0  0  0
  -31.6534  -22.7540   19.5314 C   0  0  0  0  0  0  0  0  0  0  0  0
  -29.5701  -17.5939   23.1237 C   0  0  0  0  0  0  0  0  0  0  0  0
  -30.9578  -19.6711   22.9569 C   0  0  0  0  0  0  0  0  0  0  0  0
  -31.4126  -17.7442   21.4394 C   0  0  0  0  0  0  0  0  0  0  0  0
  -28.4599  -22.4857   17.4807 C   0  0  0  0  0  0  0  0  0  0  0  0
  -25.2756  -24.1098   22.0493 C   0  0  0  0  0  0  0  0  0  0  0  0
  -20.2230  -28.8582   22.6564 C   0  0  0  0  0  0  0  0  0  0  0  0
  -20.9916  -21.6741   21.2797 C   0  0  0  0  0  0  0  0  0  1  0  0
  -20.7514  -23.0625   21.8402 C   0  0  0  0  0  0  0  0  0  0  0  0
  -20.4640  -27.9392   23.8894 C   0  0  1  0  0  0  0  0  0  0  0  0
  -29.3415  -19.1475   21.0742 C   0  0  1  0  0  0  0  0  0  0  0  0
  -30.4661  -22.0428   18.9012 C   0  0  2  0  0  0  0  0  0  0  0  0
  -30.2925  -18.5401   22.1439 C   0  0  0  0  0  0  0  0  0  0  0  0
  -26.5312  -29.0715   18.1561 N   0  0  0  0  0  0  0  0  0  0  0  0
  -19.1456  -27.3984   24.4652 N   0  0  0  0  0  0  0  0  0  0  0  0
  -26.7978  -28.8040   19.4459 N   0  0  0  0  0  0  0  0  0  0  0  0
  -17.6336  -26.7557   25.8637 N   0  3  0  0  0  0  0  0  0  0  0  0
  -27.2388  -18.0838   20.3187 N   0  0  0  0  0  0  0  0  0  0  0  0
  -23.4463  -29.7611   21.0341 N   0  0  0  0  0  0  0  0  0  0  0  0
  -28.3745  -27.7590   20.8715 N   0  0  0  0  0  0  0  0  0  0  0  0
  -30.1013  -27.1039   16.7502 N   0  0  0  0  0  0  0  0  0  0  0  0
  -25.6104  -14.8220   20.3935 N   0  0  0  0  0  0  0  0  0  0  0  0
  -30.0035  -20.0264   20.1163 N   0  0  0  0  0  0  0  0  0  0  0  0
  -21.4291  -29.5325   22.2566 N   0  0  0  0  0  0  0  0  0  0  0  0
  -29.6489  -23.0512   18.1688 N   0  3  0  0  0  0  0  0  0  0  0  0
  -30.4179  -26.7064   18.9864 O   0  0  0  0  0  0  0  0  0  0  0  0
  -26.5801  -16.2415   21.9642 O   0  0  0  0  0  0  0  0  0  0  0  0
  -29.3093  -17.2968   19.5909 O   0  0  0  0  0  0  0  0  0  0  0  0
  -28.7180  -21.9039   20.5633 O   0  0  0  0  0  0  0  0  0  0  0  0
  -22.0964  -27.8853   20.8108 O   0  0  0  0  0  0  0  0  0  0  0  0
  -27.8811  -28.8212   11.9380 O   0  0  0  0  0  0  0  0  0  0  0  0
  -24.2884  -23.8746   23.0514 O   0  0  0  0  0  0  0  0  0  0  0  0
  -22.1036  -21.0857   21.9531 O   0  0  0  0  0  0  0  0  0  1  0  0
  -21.9056  -23.8619   21.6117 O   0  0  0  0  0  0  0  0  0  0  0  0
  -29.2715  -24.2421    9.1989 F   0  0  0  0  0  0  0  0  0  0  0  0
  -26.1743  -27.7151   10.0656 F   0  0  0  0  0  0  0  0  0  0  0  0
  1  2  1  0  0  0  0
  1  5  2  0  0  0  0
  2  6  2  0  0  0  0
  3  9  2  0  0  0  0
  3 20  1  0  0  0  0
  4 10  1  0  0  0  0
  4 20  2  0  0  0  0
  5 22  1  0  0  0  0
  6 24  1  0  0  0  0
  7 11  2  0  0  0  0
  7 23  1  0  0  0  0
  8 12  2  0  0  0  0
  8 26  1  0  0  0  0
  9 27  1  0  0  0  0
 10 27  2  0  0  0  0
 11 28  1  0  0  0  0
 12 29  1  0  0  0  0
 13 14  2  0  0  0  0
 13 30  1  0  0  0  0
 14 32  1  0  0  0  0
 15 25  1  0  0  0  0
 15 28  2  0  0  0  0
 16 26  2  0  0  0  0
 16 31  1  0  0  0  0
 17 32  2  0  0  0  0
 17 33  1  0  0  0  0
 18 19  2  0  0  0  0
 18 71  1  0  0  0  0
 19 73  1  0  0  0  0
 20 34  1  0  0  0  0
 21 34  1  0  0  0  0
 21 35  2  0  0  0  0
 21 37  1  0  0  0  0
 22 24  2  0  0  0  0
 22 42  1  0  0  0  0
 23 25  2  0  0  0  0
 23 43  1  0  0  0  0
 24 53  1  0  0  0  0
 25 44  1  0  0  0  0
 26 66  1  0  0  0  0
 27 87  1  0  0  0  0
 28 89  1  0  0  0  0
 29 31  2  0  0  0  0
 29 88  1  0  0  0  0
 30 33  2  0  0  0  0
 30 87  1  0  0  0  0
 31 90  1  0  0  0  0
 32 91  1  0  0  0  0
 33 92  1  0  0  0  0
 34 70  2  0  0  0  0
 35 72  1  0  0  0  0
 35 76  1  0  0  0  0
 36 54  1  0  0  0  0
 36 71  1  0  0  0  0
 36 73  2  0  0  0  0
 37 77  1  0  0  0  0
 37 82  2  0  0  0  0
 38 55  1  0  0  0  0
 38 78  1  0  0  0  0
 38 83  2  0  0  0  0
 39 67  1  0  0  0  0
 39 74  1  0  0  0  0
 39 84  2  0  0  0  0
 40 68  1  0  0  0  0
 40 79  1  0  0  0  0
 40 85  2  0  0  0  0
 41 75  1  0  0  0  0
 41 80  1  0  0  0  0
 41 86  2  0  0  0  0
 42 45  1  0  0  0  0
 43 55  1  0  0  0  0
 44 74  1  0  0  0  0
 45 47  1  0  0  0  0
 46 50  1  0  0  0  0
 46 51  1  0  0  0  0
 47 53  1  0  0  0  0
 48 49  1  0  0  0  0
 48 54  1  0  0  0  0
 49 54  1  0  0  0  0
 50 56  1  0  0  0  0
 51 75  1  0  0  0  0
 52 56  1  0  0  0  0
 52 75  1  0  0  0  0
 53 78  1  0  0  0  0
 55 74  1  0  0  0  0
 56 72  1  0  0  0  0
 57 68  1  0  0  0  0
 58 69  1  0  0  0  0
 59 69  1  0  0  0  0
 60 69  1  0  0  0  0
 61 81  1  0  0  0  0
 62 88  1  0  0  0  0
 63 66  1  0  0  0  0
 63 80  1  0  0  0  0
 64 65  1  0  0  0  0
 64 89  1  0  0  0  0
 65 90  1  0  0  0  0
 66 71  1  0  0  0  0
 67 69  1  0  0  0  0
 67 79  1  0  0  0  0
 68 81  1  0  0  0  0
 70 72  1  0  0  0  0
M  CHG  2  73   1  81   1
M  ISO  4  41 100  64 101  80 100  89 101
M  END
> <Batch ID>
0145

> <Smiles>
CNC(C)C(=O)NC(C(=O)N1Cc2cc([101O:1][101CH2:1]COc3cc(C(C[100NH:0][100C:0](=O)N4CCCC(n5nc(-c6ccc(Oc7ccc(F)cc7F)cc6)c(C(N)=O)c5N)C4)n4ccnc4C4CC4)ccc3OC)ccc2CC1C(=O)NC1CCCc2ccccc21)C(C)(C)C

> <Shape>
0.216

> <Color>
0.079

> <Negative vol penalty>
0.000

$$$$

  -OEChem-04052321283D

 86 95  0     1  0  0  0  0  0999 V2000
  -29.3179  -31.6068   26.9566 C   0  0  0  0  0  0  0  0  0  0  0  0
  -28.8110  -32.4492   25.9737 C   0  0  0  0  0  0  0  0  0  0  0  0
  -22.7106  -10.0867   20.4534 C   0  0  0  0  0  0  0  0  0  0  0  0
  -24.5201   -8.9634   21.5940 C   0  0  0  0  0  0  0  0  0  0  0  0
  -29.3496  -30.2306   26.7412 C   0  0  0  0  0  0  0  0  0  0  0  0
  -28.3247  -31.9150   24.7799 C   0  0  0  0  0  0  0  0  0  0  0  0
  -24.2120  -30.1856   17.7446 C   0  0  0  0  0  0  0  0  0  0  0  0
  -21.7868   -9.3849   21.2277 C   0  0  0  0  0  0  0  0  0  0  0  0
  -23.5963   -8.2616   22.3684 C   0  0  0  0  0  0  0  0  0  0  0  0
  -23.7800  -29.0144   17.1237 C   0  0  0  0  0  0  0  0  0  0  0  0
  -21.5653   -5.5831   22.0054 C   0  0  0  0  0  0  0  0  0  0  0  0
  -21.7714   -4.2144   22.1780 C   0  0  0  0  0  0  0  0  0  0  0  0
  -23.1576  -28.1120   19.2725 C   0  0  0  0  0  0  0  0  0  0  0  0
  -21.9143   -4.5374   24.5681 C   0  0  0  0  0  0  0  0  0  0  0  0
  -24.0773   -9.8760   20.6365 C   0  0  0  0  0  0  0  0  0  0  0  0
  -25.1552  -10.5803   18.4343 C   0  0  0  0  0  0  0  0  0  0  0  0
  -28.8747  -29.6811   25.5390 C   0  0  0  0  0  0  0  0  0  0  0  0
  -24.1299  -30.3247   19.1375 C   0  0  0  0  0  0  0  0  0  0  0  0
  -28.3261  -30.5267   24.5534 C   0  0  0  0  0  0  0  0  0  0  0  0
  -23.5868  -29.2870   19.9084 C   0  0  0  0  0  0  0  0  0  0  0  0
  -22.2296   -8.4723   22.1852 C   0  0  0  0  0  0  0  0  0  0  0  0
  -23.2554  -27.9762   17.8879 C   0  0  0  0  0  0  0  0  0  0  0  0
  -21.5339   -6.4290   23.1141 C   0  0  0  0  0  0  0  0  0  0  0  0
  -21.9458   -3.6915   23.4594 C   0  0  0  0  0  0  0  0  0  0  0  0
  -21.7083   -5.9061   24.3954 C   0  0  0  0  0  0  0  0  0  0  0  0
  -25.0320  -10.6002   19.8365 C   0  0  0  0  0  0  0  0  0  0  0  0
  -26.2026  -11.4285   18.1695 C   0  0  0  0  0  0  0  0  0  0  0  0
  -24.3912   -9.8596   17.4584 C   0  0  0  0  0  0  0  0  0  0  0  0
  -26.2391  -30.7464   21.4778 C   0  0  0  0  0  0  0  0  0  0  0  0
  -23.5722  -31.0590   23.2978 C   0  0  0  0  0  0  0  0  0  0  0  0
  -20.3613  -29.4354   23.5650 C   0  0  0  0  0  0  0  0  0  0  0  0
  -28.5563  -16.0558   21.1526 C   0  0  0  0  0  0  0  0  0  0  0  0
  -28.9256  -28.1840   25.3616 C   0  0  0  0  0  0  0  0  0  0  0  0
  -24.5754  -31.6050   19.7894 C   0  0  0  0  0  0  0  0  0  0  0  0
  -23.4582  -29.3946   21.4052 C   0  0  0  0  0  0  0  0  0  0  0  0
  -28.8027  -27.7536   23.9035 C   0  0  0  0  0  0  0  0  0  0  0  0
  -30.2459  -13.1027   20.1032 C   0  0  0  0  0  0  0  0  0  0  0  0
  -27.6165  -28.4504   23.2541 C   0  0  0  0  0  0  0  0  0  0  0  0
  -26.4393  -23.4815   22.5268 C   0  0  0  0  0  0  0  0  0  0  0  0
  -25.4797  -24.3390   21.7498 C   0  0  0  0  0  0  0  0  0  0  0  0
  -27.1446  -20.1659   19.5919 C   0  0  0  0  0  0  0  0  0  0  0  0
  -25.1456  -19.7277   21.0736 C   0  0  0  0  0  0  0  0  0  0  0  0
  -29.1124  -12.1247   19.7893 C   0  0  0  0  0  0  0  0  0  0  0  0
  -27.2711  -18.6382   19.5754 C   0  0  0  0  0  0  0  0  0  0  0  0
  -25.6744  -18.3578   21.5135 C   0  0  0  0  0  0  0  0  0  0  0  0
  -29.9119  -13.9879   21.3019 C   0  0  0  0  0  0  0  0  0  0  0  0
  -27.4962  -13.7316   20.8868 C   0  0  0  0  0  0  0  0  0  0  0  0
  -27.8198  -29.9707   23.2348 C   0  0  1  0  0  0  0  0  0  0  0  0
  -24.9207  -31.4352   21.2656 C   0  0  1  0  0  0  0  0  0  0  0  0
  -25.3661  -22.8409   21.6910 C   0  0  0  0  0  0  0  0  0  0  0  0
  -26.2767  -20.7032   20.7427 C   0  0  0  0  0  0  0  0  0  0  0  0
  -27.7634  -12.8557   19.6509 C   0  0  2  0  0  0  0  0  0  0  0  0
  -27.0701  -18.0343   20.9633 C   0  0  0  0  0  0  0  0  0  0  0  0
  -18.1536  -30.3096   24.3768 C   0  0  0  0  0  0  0  0  0  0  0  0
  -24.4207  -29.8812   25.9816 C   0  0  0  0  0  0  0  0  0  0  0  0
  -22.0462  -29.1749   26.3434 C   0  0  0  0  0  0  0  0  0  0  0  0
  -22.6056  -31.5958   26.1219 C   0  0  0  0  0  0  0  0  0  0  0  0
  -19.0053  -28.6835   21.0441 C   0  0  0  0  0  0  0  0  0  0  0  0
  -23.1277  -24.4438   17.1022 C   0  0  0  0  0  0  0  0  0  0  0  0
  -22.9321  -25.6250   18.0398 C   0  0  0  0  0  0  0  0  0  1  0  0
  -23.2588  -23.1319   17.8598 C   0  0  0  0  0  0  0  0  0  0  0  0
  -24.5318  -21.9802   19.4648 C   0  0  0  0  0  0  0  0  0  0  0  0
  -22.6927  -30.1114   24.0772 C   0  0  1  0  0  0  0  0  0  0  0  0
  -19.0159  -30.0102   23.1604 C   0  0  2  0  0  0  0  0  0  0  0  0
  -25.7323  -22.0905   20.4087 C   0  0  1  0  0  0  0  0  0  0  0  0
  -22.9556  -30.1823   25.6079 C   0  0  0  0  0  0  0  0  0  0  0  0
  -25.9296  -11.3978   20.4217 N   0  0  0  0  0  0  0  0  0  0  0  0
  -26.6268  -11.8868   19.3821 N   0  0  0  0  0  0  0  0  0  0  0  0
  -23.9134  -30.6636   21.9966 N   0  0  0  0  0  0  0  0  0  0  0  0
  -28.6216  -14.6535   21.1068 N   0  0  0  0  0  0  0  0  0  0  0  0
  -26.7929  -11.8195   17.0202 N   0  0  0  0  0  0  0  0  0  0  0  0
  -23.3503   -9.0326   17.9024 N   0  0  0  0  0  0  0  0  0  0  0  0
  -26.5930  -30.6056   22.8062 N   0  0  0  0  0  0  0  0  0  0  0  0
  -21.3195  -30.4188   23.6919 N   0  0  0  0  0  0  0  0  0  0  0  0
  -27.2964  -16.6062   20.9514 N   0  0  0  0  0  0  0  0  0  0  0  0
  -18.2824  -29.0485   22.2896 N   0  3  0  0  0  0  0  0  0  0  0  0
  -24.6351   -9.9336   16.2302 O   0  0  0  0  0  0  0  0  0  0  0  0
  -26.8867  -30.3693   20.5083 O   0  0  0  0  0  0  0  0  0  0  0  0
  -23.9371  -32.1146   23.8215 O   0  0  0  0  0  0  0  0  0  0  0  0
  -20.5432  -28.2346   23.7536 O   0  0  0  0  0  0  0  0  0  0  0  0
  -29.5483  -16.7651   21.3522 O   0  0  0  0  0  0  0  0  0  0  0  0
  -21.3284   -7.7875   22.9411 O   0  0  0  0  0  0  0  0  0  0  0  0
  -22.8337  -26.8317   17.2845 O   0  0  0  0  0  0  0  0  0  1  0  0
  -24.3754  -23.1909   18.7370 O   0  0  0  0  0  0  0  0  0  0  0  0
  -22.1421   -2.3769   23.6251 F   0  0  0  0  0  0  0  0  0  0  0  0
  -21.6779   -6.7136   25.4645 F   0  0  0  0  0  0  0  0  0  0  0  0
  1  2  1  0  0  0  0
  1  5  2  0  0  0  0
  2  6  2  0  0  0  0
  3  8  2  0  0  0  0
  3 15  1  0  0  0  0
  4  9  1  0  0  0  0
  4 15  2  0  0  0  0
  5 17  1  0  0  0  0
  6 19  1  0  0  0  0
  7 10  2  0  0  0  0
  7 18  1  0  0  0  0
  8 21  1  0  0  0  0
  9 21  2  0  0  0  0
 10 22  1  0  0  0  0
 11 12  2  0  0  0  0
 11 23  1  0  0  0  0
 12 24  1  0  0  0  0
 13 20  1  0  0  0  0
 13 22  2  0  0  0  0
 14 24  2  0  0  0  0
 14 25  1  0  0  0  0
 15 26  1  0  0  0  0
 16 26  1  0  0  0  0
 16 27  2  0  0  0  0
 16 28  1  0  0  0  0
 17 19  2  0  0  0  0
 17 33  1  0  0  0  0
 18 20  2  0  0  0  0
 18 34  1  0  0  0  0
 19 48  1  0  0  0  0
 20 35  1  0  0  0  0
 21 82  1  0  0  0  0
 22 83  1  0  0  0  0
 23 25  2  0  0  0  0
 23 82  1  0  0  0  0
 24 85  1  0  0  0  0
 25 86  1  0  0  0  0
 26 67  2  0  0  0  0
 27 68  1  0  0  0  0
 27 71  1  0  0  0  0
 28 72  1  0  0  0  0
 28 77  2  0  0  0  0
 29 49  1  0  0  0  0
 29 73  1  0  0  0  0
 29 78  2  0  0  0  0
 30 63  1  0  0  0  0
 30 69  1  0  0  0  0
 30 79  2  0  0  0  0
 31 64  1  0  0  0  0
 31 74  1  0  0  0  0
 31 80  2  0  0  0  0
 32 70  1  0  0  0  0
 32 75  1  0  0  0  0
 32 81  2  0  0  0  0
 33 36  1  0  0  0  0
 34 49  1  0  0  0  0
 35 69  1  0  0  0  0
 36 38  1  0  0  0  0
 37 43  1  0  0  0  0
 37 46  1  0  0  0  0
 38 48  1  0  0  0  0
 39 40  1  0  0  0  0
 39 50  1  0  0  0  0
 40 50  1  0  0  0  0
 41 44  1  0  0  0  0
 41 51  1  0  0  0  0
 42 45  1  0  0  0  0
 42 51  1  0  0  0  0
 43 52  1  0  0  0  0
 44 53  1  0  0  0  0
 45 53  1  0  0  0  0
 46 70  1  0  0  0  0
 47 52  1  0  0  0  0
 47 70  1  0  0  0  0
 48 73  1  0  0  0  0
 49 69  1  0  0  0  0
 50 65  1  0  0  0  0
 51 65  1  0  0  0  0
 52 68  1  0  0  0  0
 53 75  1  0  0  0  0
 54 64  1  0  0  0  0
 55 66  1  0  0  0  0
 56 66  1  0  0  0  0
 57 66  1  0  0  0  0
 58 76  1  0  0  0  0
 59 60  1  0  0  0  0
 59 61  1  0  0  0  0
 60 83  1  0  0  0  0
 61 84  1  0  0  0  0
 62 65  1  0  0  0  0
 62 84  1  0  0  0  0
 63 66  1  0  0  0  0
 63 74  1  0  0  0  0
 64 76  1  0  0  0  0
 67 68  1  0  0  0  0
M  CHG  1  76   1
M  ISO  4  32 100  60 101  75 100  83 101
M  END
> <Batch ID>
0145

> <Smiles>
CNC(C)C(=O)NC(C(=O)N1Cc2cc([101O:1][101CH2:1]CCOCC(C3CCC([100NH:0][100C:0](=O)N4CCCC(n5nc(-c6ccc(Oc7ccc(F)cc7F)cc6)c(C(N)=O)c5N)C4)CC3)C3CC3)ccc2CC1C(=O)NC1CCCc2ccccc21)C(C)(C)C

> <Shape>
0.281

> <Color>
0.089

> <Negative vol penalty>
0.000

$$$$

  -OEChem-04052321283D

 90100  0     1  0  0  0  0  0999 V2000
  -16.3102  -27.4232   26.1672 C   0  0  0  0  0  0  0  0  0  0  0  0
  -17.5387  -26.7724   26.1176 C   0  0  0  0  0  0  0  0  0  0  0  0
  -26.6232  -10.2668   20.6033 C   0  0  0  0  0  0  0  0  0  0  0  0
  -25.6261  -11.6973   18.9311 C   0  0  0  0  0  0  0  0  0  0  0  0
  -16.0929  -28.5601   25.3899 C   0  0  0  0  0  0  0  0  0  0  0  0
  -18.5505  -27.2575   25.2897 C   0  0  0  0  0  0  0  0  0  0  0  0
  -24.5747  -27.1473   26.3862 C   0  0  0  0  0  0  0  0  0  0  0  0
  -25.3775   -9.6915   20.8540 C   0  0  0  0  0  0  0  0  0  0  0  0
  -24.3804  -11.1220   19.1817 C   0  0  0  0  0  0  0  0  0  0  0  0
  -25.5891  -26.2883   25.9655 C   0  0  0  0  0  0  0  0  0  0  0  0
  -23.3695   -7.3771   19.4242 C   0  0  0  0  0  0  0  0  0  0  0  0
  -23.3071   -5.9879   19.5326 C   0  0  0  0  0  0  0  0  0  0  0  0
  -26.1273  -27.8112   24.1738 C   0  0  0  0  0  0  0  0  0  0  0  0
  -28.8649  -21.7990   17.3330 C   0  0  0  0  0  0  0  0  0  0  0  0
  -29.4362  -20.5943   19.3666 C   0  0  0  0  0  0  0  0  0  0  0  0
  -22.4627   -6.2016   21.7861 C   0  0  0  0  0  0  0  0  0  0  0  0
  -26.7475  -11.2698   19.6419 C   0  0  0  0  0  0  0  0  0  0  0  0
  -28.9943  -11.4392   18.4458 C   0  0  0  0  0  0  0  0  0  0  0  0
  -17.1057  -29.0650   24.5593 C   0  0  0  0  0  0  0  0  0  0  0  0
  -24.3214  -28.3414   25.6961 C   0  0  0  0  0  0  0  0  0  0  0  0
  -18.3461  -28.4014   24.4994 C   0  0  0  0  0  0  0  0  0  0  0  0
  -25.1107  -28.6848   24.5893 C   0  0  0  0  0  0  0  0  0  0  0  0
  -28.7594  -20.5806   16.6837 C   0  0  0  0  0  0  0  0  0  0  0  0
  -28.9873  -19.3766   17.3594 C   0  0  0  0  0  0  0  0  0  0  0  0
  -29.3206  -19.3701   18.7043 C   0  0  0  0  0  0  0  0  0  0  0  0
  -24.2561  -10.1190   20.1432 C   0  0  0  0  0  0  0  0  0  0  0  0
  -26.3637  -26.6188   24.8574 C   0  0  0  0  0  0  0  0  0  0  0  0
  -22.9786   -8.1786   20.4968 C   0  0  0  0  0  0  0  0  0  0  0  0
  -29.2106  -21.8004   18.6856 C   0  0  0  0  0  0  0  0  0  0  0  0
  -22.8537   -5.4001   20.7135 C   0  0  0  0  0  0  0  0  0  0  0  0
  -22.5252   -7.5909   21.6777 C   0  0  0  0  0  0  0  0  0  0  0  0
  -28.0339  -11.8649   19.3829 C   0  0  0  0  0  0  0  0  0  0  0  0
  -30.0308  -12.3292   18.5879 C   0  0  0  0  0  0  0  0  0  0  0  0
  -28.9532  -10.3378   17.5288 C   0  0  0  0  0  0  0  0  0  0  0  0
  -21.8429  -29.5253   24.0964 C   0  0  0  0  0  0  0  0  0  0  0  0
  -23.6978  -32.1829   23.9607 C   0  0  0  0  0  0  0  0  0  0  0  0
  -26.8277  -33.5397   24.0600 C   0  0  0  0  0  0  0  0  0  0  0  0
  -30.3298  -17.9692   20.5388 C   0  0  0  0  0  0  0  0  0  0  0  0
  -16.8082  -30.2694   23.7016 C   0  0  0  0  0  0  0  0  0  0  0  0
  -23.2410  -29.2700   26.1787 C   0  0  0  0  0  0  0  0  0  0  0  0
  -24.8925  -29.9648   23.8261 C   0  0  0  0  0  0  0  0  0  0  0  0
  -28.3859  -20.3296   15.2620 C   0  0  0  0  0  0  0  0  0  0  0  0
  -18.0582  -30.9365   23.1337 C   0  0  0  0  0  0  0  0  0  0  0  0
  -32.1083  -15.1704   21.8354 C   0  0  0  0  0  0  0  0  0  0  0  0
  -19.0037  -29.8907   22.5512 C   0  0  0  0  0  0  0  0  0  0  0  0
  -28.6847  -18.5611   11.7988 C   0  0  0  0  0  0  0  0  0  0  0  0
  -27.2792  -18.0805   11.5681 C   0  0  0  0  0  0  0  0  0  0  0  0
  -31.3563  -13.9664   21.2634 C   0  0  0  0  0  0  0  0  0  0  0  0
  -31.1599  -16.3128   22.1948 C   0  0  0  0  0  0  0  0  0  0  0  0
  -29.5080  -15.5320   20.5423 C   0  0  0  0  0  0  0  0  0  0  0  0
  -19.4767  -28.9115   23.6324 C   0  0  1  0  0  0  0  0  0  0  0  0
  -28.7794  -18.2105   16.4388 C   0  0  2  0  0  0  0  0  0  0  0  0
  -22.7340  -30.2128   25.0918 C   0  0  1  0  0  0  0  0  0  0  0  0
  -27.6126  -18.8602   12.8097 C   0  0  0  0  0  0  0  0  0  0  0  0
  -30.4279  -14.3804   20.1049 C   0  0  2  0  0  0  0  0  0  0  0  0
  -29.9253  -17.2064   16.3840 C   0  0  0  0  0  0  0  0  0  0  0  0
  -28.0293  -35.7356   23.8827 C   0  0  0  0  0  0  0  0  0  0  0  0
  -23.3023  -32.1524   20.9354 C   0  0  0  0  0  0  0  0  0  0  0  0
  -25.2361  -33.7301   20.7367 C   0  0  0  0  0  0  0  0  0  0  0  0
  -23.1869  -34.4219   21.9797 C   0  0  0  0  0  0  0  0  0  0  0  0
  -27.9150  -33.2981   26.8019 C   0  0  0  0  0  0  0  0  0  0  0  0
  -27.6244  -18.1753   14.1588 C   0  0  0  0  0  0  0  0  0  0  0  0
  -28.1431  -24.3919   22.6344 C   0  0  0  0  0  0  0  0  0  0  0  0
  -28.5004  -24.3431   21.1530 C   0  0  0  0  0  0  0  0  0  0  0  0
  -27.6587  -25.7746   23.0502 C   0  0  0  0  0  0  0  0  0  1  0  0
  -29.0252  -22.9735   20.7460 C   0  0  0  0  0  0  0  0  0  0  0  0
  -24.7405  -32.7113   23.0055 C   0  0  1  0  0  0  0  0  0  0  0  0
  -27.3871  -34.7271   24.8226 C   0  0  2  0  0  0  0  0  0  0  0  0
  -24.1196  -33.2288   21.6773 C   0  0  0  0  0  0  0  0  0  0  0  0
  -28.4254  -12.9415   20.0697 N   0  0  0  0  0  0  0  0  0  0  0  0
  -29.6434  -13.1997   19.5638 N   0  0  0  0  0  0  0  0  0  0  0  0
  -23.8200  -30.8368   24.3331 N   0  0  0  0  0  0  0  0  0  0  0  0
  -30.3147  -16.6536   21.0483 N   0  0  0  0  0  0  0  0  0  0  0  0
  -31.2266  -12.4442   17.9722 N   0  0  0  0  0  0  0  0  0  0  0  0
  -27.8127   -9.5235   17.5134 N   0  0  0  0  0  0  0  0  0  0  0  0
  -29.5109  -18.1666   19.4275 N   0  0  0  0  0  0  0  0  0  0  0  0
  -20.5066  -29.5183   24.4482 N   0  0  0  0  0  0  0  0  0  0  0  0
  -25.4975  -33.7170   23.7429 N   0  0  0  0  0  0  0  0  0  0  0  0
  -28.6374  -18.8366   15.0382 N   0  3  1  0  0  0  0  0  0  0  0  0
  -28.4158  -34.2758   25.8018 N   0  3  0  0  0  0  0  0  0  0  0  0
  -29.9068  -10.0735   16.7578 O   0  0  0  0  0  0  0  0  0  0  0  0
  -22.3313  -29.0385   23.0833 O   0  0  0  0  0  0  0  0  0  0  0  0
  -22.8118  -32.9388   24.3673 O   0  0  0  0  0  0  0  0  0  0  0  0
  -27.5041  -32.5551   23.7710 O   0  0  0  0  0  0  0  0  0  0  0  0
  -31.0393  -18.8487   21.0339 O   0  0  0  0  0  0  0  0  0  0  0  0
  -23.0404   -9.5577   20.3874 O   0  0  0  0  0  0  0  0  0  0  0  0
  -27.3540  -25.7819   24.4443 O   0  0  0  0  0  0  0  0  0  1  0  0
  -29.3245  -22.9900   19.3571 O   0  0  0  0  0  0  0  0  0  0  0  0
  -22.7923   -4.0661   20.8169 F   0  0  0  0  0  0  0  0  0  0  0  0
  -22.1471   -8.3557   22.7111 F   0  0  0  0  0  0  0  0  0  0  0  0
  1  2  1  0  0  0  0
  1  5  2  0  0  0  0
  2  6  2  0  0  0  0
  3  8  2  0  0  0  0
  3 17  1  0  0  0  0
  4  9  1  0  0  0  0
  4 17  2  0  0  0  0
  5 19  1  0  0  0  0
  6 21  1  0  0  0  0
  7 10  2  0  0  0  0
  7 20  1  0  0  0  0
  8 26  1  0  0  0  0
  9 26  2  0  0  0  0
 10 27  1  0  0  0  0
 11 12  2  0  0  0  0
 11 28  1  0  0  0  0
 12 30  1  0  0  0  0
 13 22  1  0  0  0  0
 13 27  2  0  0  0  0
 14 23  2  0  0  0  0
 14 29  1  0  0  0  0
 15 25  1  0  0  0  0
 15 29  2  0  0  0  0
 16 30  2  0  0  0  0
 16 31  1  0  0  0  0
 17 32  1  0  0  0  0
 18 32  1  0  0  0  0
 18 33  2  0  0  0  0
 18 34  1  0  0  0  0
 19 21  2  0  0  0  0
 19 39  1  0  0  0  0
 20 22  2  0  0  0  0
 20 40  1  0  0  0  0
 21 51  1  0  0  0  0
 22 41  1  0  0  0  0
 23 24  1  0  0  0  0
 23 42  1  0  0  0  0
 24 25  2  0  0  0  0
 24 52  1  0  0  0  0
 25 76  1  0  0  0  0
 26 86  1  0  0  0  0
 27 87  1  0  0  0  0
 28 31  2  0  0  0  0
 28 86  1  0  0  0  0
 29 88  1  0  0  0  0
 30 89  1  0  0  0  0
 31 90  1  0  0  0  0
 32 70  2  0  0  0  0
 33 71  1  0  0  0  0
 33 74  1  0  0  0  0
 34 75  1  0  0  0  0
 34 81  2  0  0  0  0
 35 53  1  0  0  0  0
 35 77  1  0  0  0  0
 35 82  2  0  0  0  0
 36 67  1  0  0  0  0
 36 72  1  0  0  0  0
 36 83  2  0  0  0  0
 37 68  1  0  0  0  0
 37 78  1  0  0  0  0
 37 84  2  0  0  0  0
 38 73  1  0  0  0  0
 38 76  1  0  0  0  0
 38 85  2  0  0  0  0
 39 43  1  0  0  0  0
 40 53  1  0  0  0  0
 41 72  1  0  0  0  0
 42 79  1  0  0  0  0
 43 45  1  0  0  0  0
 44 48  1  0  0  0  0
 44 49  1  0  0  0  0
 45 51  1  0  0  0  0
 46 47  1  0  0  0  0
 46 54  1  0  0  0  0
 47 54  1  0  0  0  0
 48 55  1  0  0  0  0
 49 73  1  0  0  0  0
 50 55  1  0  0  0  0
 50 73  1  0  0  0  0
 51 77  1  0  0  0  0
 52 56  1  0  0  0  0
 52 79  1  0  0  0  0
 53 72  1  0  0  0  0
 54 62  1  0  0  0  0
 55 71  1  0  0  0  0
 57 68  1  0  0  0  0
 58 69  1  0  0  0  0
 59 69  1  0  0  0  0
 60 69  1  0  0  0  0
 61 80  1  0  0  0  0
 62 79  1  0  0  0  0
 63 64  1  0  0  0  0
 63 65  1  0  0  0  0
 64 66  1  0  0  0  0
 65 87  1  0  0  0  0
 66 88  1  0  0  0  0
 67 69  1  0  0  0  0
 67 78  1  0  0  0  0
 68 80  1  0  0  0  0
 70 71  1  0  0  0  0
M  CHG  2  79   1  80   1
M  ISO  4  38 100  65 101  76 100  87 101
M  END
> <Batch ID>
0145

> <Smiles>
CNC(C)C(=O)NC(C(=O)N1Cc2cc([101O:1][101CH2:1]CCCOc3cc4c(c([100NH:0][100C:0](=O)N5CCCC(n6nc(-c7ccc(Oc8ccc(F)cc8F)cc7)c(C(N)=O)c6N)C5)c3)C(C)N(CC3CC3)C4)ccc2CC1C(=O)NC1CCCc2ccccc21)C(C)(C)C

> <Shape>
0.255

> <Color>
0.066

> <Negative vol penalty>
0.000

$$$$

  -OEChem-04052321283D

 91102  0     1  0  0  0  0  0999 V2000
  -25.2078  -31.1033   20.3178 C   0  0  0  0  0  0  0  0  0  0  0  0
  -25.9194  -29.9127   20.4253 C   0  0  0  0  0  0  0  0  0  0  0  0
  -31.4492  -20.4064   20.0540 C   0  0  0  0  0  0  0  0  0  0  0  0
  -29.2586  -19.9534   19.1410 C   0  0  0  0  0  0  0  0  0  0  0  0
  -23.9555  -31.2224   20.9190 C   0  0  0  0  0  0  0  0  0  0  0  0
  -25.3794  -28.8407   21.1350 C   0  0  0  0  0  0  0  0  0  0  0  0
  -25.2198  -21.6790   21.1651 C   0  0  0  0  0  0  0  0  0  0  0  0
  -31.4804  -21.6244   19.3749 C   0  0  0  0  0  0  0  0  0  0  0  0
  -29.2898  -21.1714   18.4619 C   0  0  0  0  0  0  0  0  0  0  0  0
  -25.4406  -20.6004   22.0204 C   0  0  0  0  0  0  0  0  0  0  0  0
  -28.6388  -24.3253   16.7746 C   0  0  0  0  0  0  0  0  0  0  0  0
  -27.4938  -25.1208   16.8150 C   0  0  0  0  0  0  0  0  0  0  0  0
  -23.2342  -20.8938   22.9504 C   0  0  0  0  0  0  0  0  0  0  0  0
  -27.6581  -25.2348   19.2228 C   0  0  0  0  0  0  0  0  0  0  0  0
  -30.3383  -19.5709   19.9371 C   0  0  0  0  0  0  0  0  0  0  0  0
  -30.3860  -18.1116   22.0289 C   0  0  0  0  0  0  0  0  0  0  0  0
  -23.3957  -30.1481   21.6283 C   0  0  0  0  0  0  0  0  0  0  0  0
  -24.0065  -22.3812   21.2037 C   0  0  0  0  0  0  0  0  0  0  0  0
  -24.1190  -28.9460   21.7474 C   0  0  0  0  0  0  0  0  0  0  0  0
  -22.9995  -21.9794   22.0928 C   0  0  0  0  0  0  0  0  0  0  0  0
  -30.4007  -22.0069   18.5789 C   0  0  0  0  0  0  0  0  0  0  0  0
  -24.4489  -20.2094   22.9152 C   0  0  0  0  0  0  0  0  0  0  0  0
  -29.2935  -23.9846   17.9582 C   0  0  0  0  0  0  0  0  0  0  0  0
  -27.0034  -25.5756   18.0391 C   0  0  0  0  0  0  0  0  0  0  0  0
  -28.8032  -24.4394   19.1823 C   0  0  0  0  0  0  0  0  0  0  0  0
  -30.3057  -18.3124   20.6379 C   0  0  0  0  0  0  0  0  0  0  0  0
  -30.3102  -16.7490   22.1842 C   0  0  0  0  0  0  0  0  0  0  0  0
  -21.2501  -16.0469   22.1586 C   0  0  0  0  0  0  0  0  0  0  0  0
  -21.7062  -16.9720   23.0164 C   0  0  0  0  0  0  0  0  0  0  0  0
  -30.5172  -19.0711   23.0862 C   0  0  0  0  0  0  0  0  0  0  0  0
  -23.1685  -25.3770   21.8568 C   0  0  0  0  0  0  0  0  0  0  0  0
  -20.2386  -24.3504   20.9163 C   0  0  0  0  0  0  0  0  0  0  0  0
  -18.0871  -21.7379   20.4777 C   0  0  0  0  0  0  0  0  0  0  0  0
  -27.8227  -12.1179   20.0580 C   0  0  0  0  0  0  0  0  0  0  0  0
  -22.0596  -30.3399   22.3011 C   0  0  0  0  0  0  0  0  0  0  0  0
  -23.7737  -23.5258   20.2560 C   0  0  0  0  0  0  0  0  0  0  0  0
  -21.6717  -22.6873   22.1595 C   0  0  0  0  0  0  0  0  0  0  0  0
  -19.7833  -15.7676   21.9875 C   0  0  0  0  0  0  0  0  0  0  0  0
  -21.3941  -29.0310   22.7182 C   0  0  0  0  0  0  0  0  0  0  0  0
  -31.1082  -12.8473   19.2660 C   0  0  0  0  0  0  0  0  0  0  0  0
  -22.3974  -28.1226   23.4218 C   0  0  0  0  0  0  0  0  0  0  0  0
  -22.2557  -12.2970   23.7747 C   0  0  0  0  0  0  0  0  0  0  0  0
  -21.3099  -13.4451   23.9916 C   0  0  0  0  0  0  0  0  0  0  0  0
  -31.2628  -14.3125   19.6732 C   0  0  0  0  0  0  0  0  0  0  0  0
  -24.5728  -12.2713   21.8304 C   0  0  0  0  0  0  0  0  0  0  0  0
  -24.8334  -14.3428   20.4198 C   0  0  0  0  0  0  0  0  0  0  0  0
  -23.7470  -16.9776   24.5453 C   0  0  0  0  0  0  0  0  0  0  0  0
  -29.7605  -12.6064   18.5954 C   0  0  0  0  0  0  0  0  0  0  0  0
  -25.5865  -11.5593   20.9389 C   0  0  0  0  0  0  0  0  0  0  0  0
  -25.8372  -13.5906   19.5522 C   0  0  0  0  0  0  0  0  0  0  0  0
  -28.7306  -14.4751   19.8456 C   0  0  0  0  0  0  0  0  0  0  0  0
  -19.3167  -15.9716   20.5452 C   0  0  0  0  0  0  0  0  0  0  0  0
  -21.4230  -14.6860   20.0370 C   0  0  0  0  0  0  0  0  0  0  0  0
  -23.5560  -27.7524   22.4879 C   0  0  1  0  0  0  0  0  0  0  0  0
  -22.1740  -15.2604   21.2497 C   0  0  2  0  0  0  0  0  0  0  0  0
  -23.1497  -17.2789   23.2156 C   0  0  2  0  0  0  0  0  0  0  0  0
  -22.6959  -24.4914   20.7387 C   0  0  1  0  0  0  0  0  0  0  0  0
  -21.8649  -13.1773   22.6201 C   0  0  0  0  0  0  0  0  0  0  0  0
  -23.8318  -13.3810   21.0732 C   0  0  0  0  0  0  0  0  0  0  0  0
  -30.0758  -14.7741   20.5373 C   0  0  2  0  0  0  0  0  0  0  0  0
  -23.5004  -18.4001   24.1329 C   0  0  2  0  0  0  0  0  0  1  0  0
  -15.7495  -21.2153   19.7294 C   0  0  0  0  0  0  0  0  0  0  0  0
  -19.1572  -25.4002   23.5693 C   0  0  0  0  0  0  0  0  0  0  0  0
  -17.0931  -24.0356   23.1881 C   0  0  0  0  0  0  0  0  0  0  0  0
  -17.6945  -25.8565   21.5928 C   0  0  0  0  0  0  0  0  0  0  0  0
  -19.8894  -15.3785   18.1844 C   0  0  0  0  0  0  0  0  0  0  0  0
  -19.0540  -20.0324   18.2607 C   0  0  0  0  0  0  0  0  0  0  0  0
  -19.0523  -23.7239   21.6085 C   0  0  1  0  0  0  0  0  0  0  0  0
  -17.2045  -21.3455   19.3066 C   0  0  2  0  0  0  0  0  0  0  0  0
  -22.8828  -14.1337   22.0026 C   0  0  1  0  0  0  0  0  0  0  0  0
  -18.2749  -24.7417   22.4900 C   0  0  0  0  0  0  0  0  0  0  0  0
  -30.1882  -17.1688   19.9578 N   0  0  0  0  0  0  0  0  0  0  0  0
  -30.1941  -16.2364   20.9256 N   0  0  0  0  0  0  0  0  0  0  0  0
  -21.4945  -23.8043   21.2169 N   0  0  0  0  0  0  0  0  0  0  0  0
  -28.6603  -13.0619   19.4450 N   0  0  0  0  0  0  0  0  0  0  0  0
  -26.4948  -12.5087   20.2971 N   0  0  0  0  0  0  0  0  0  0  0  0
  -30.3324  -15.9514   23.2730 N   0  0  0  0  0  0  0  0  0  0  0  0
  -29.3515  -19.5957   23.6609 N   0  0  0  0  0  0  0  0  0  0  0  0
  -23.1447  -26.7253   21.5550 N   0  0  0  0  0  0  0  0  0  0  0  0
  -18.2483  -23.1048   20.5603 N   0  0  0  0  0  0  0  0  0  0  0  0
  -20.4279  -15.7102   19.5475 N   0  3  1  0  0  0  0  0  0  0  0  0
  -17.6474  -20.0408   18.7386 N   0  3  0  0  0  0  0  0  0  0  0  0
  -31.6351  -19.4642   23.4977 O   0  0  0  0  0  0  0  0  0  0  0  0
  -23.5267  -24.8744   22.9154 O   0  0  0  0  0  0  0  0  0  0  0  0
  -20.0569  -25.2852   20.1321 O   0  0  0  0  0  0  0  0  0  0  0  0
  -18.5809  -20.9144   21.2449 O   0  0  0  0  0  0  0  0  0  0  0  0
  -28.2344  -10.9956   20.3774 O   0  0  0  0  0  0  0  0  0  0  0  0
  -30.4307  -23.1954   17.9163 O   0  0  0  0  0  0  0  0  0  0  0  0
  -24.6625  -19.1551   23.7533 O   0  0  0  0  0  0  0  0  0  1  0  0
  -25.9047  -26.3407   18.0777 F   0  0  0  0  0  0  0  0  0  0  0  0
  -29.4285  -24.1163   20.3226 F   0  0  0  0  0  0  0  0  0  0  0  0
  1  2  1  0  0  0  0
  1  5  2  0  0  0  0
  2  6  2  0  0  0  0
  3  8  2  0  0  0  0
  3 15  1  0  0  0  0
  4  9  1  0  0  0  0
  4 15  2  0  0  0  0
  5 17  1  0  0  0  0
  6 19  1  0  0  0  0
  7 10  2  0  0  0  0
  7 18  1  0  0  0  0
  8 21  1  0  0  0  0
  9 21  2  0  0  0  0
 10 22  1  0  0  0  0
 11 12  2  0  0  0  0
 11 23  1  0  0  0  0
 12 24  1  0  0  0  0
 13 20  1  0  0  0  0
 13 22  2  0  0  0  0
 14 24  2  0  0  0  0
 14 25  1  0  0  0  0
 15 26  1  0  0  0  0
 16 26  1  0  0  0  0
 16 27  2  0  0  0  0
 16 30  1  0  0  0  0
 17 19  2  0  0  0  0
 17 35  1  0  0  0  0
 18 20  2  0  0  0  0
 18 36  1  0  0  0  0
 19 54  1  0  0  0  0
 20 37  1  0  0  0  0
 21 88  1  0  0  0  0
 22 89  1  0  0  0  0
 23 25  2  0  0  0  0
 23 88  1  0  0  0  0
 24 90  1  0  0  0  0
 25 91  1  0  0  0  0
 26 72  2  0  0  0  0
 27 73  1  0  0  0  0
 27 77  1  0  0  0  0
 28 29  2  0  0  0  0
 28 38  1  0  0  0  0
 28 55  1  0  0  0  0
 29 56  1  0  0  0  0
 30 78  1  0  0  0  0
 30 83  2  0  0  0  0
 31 57  1  0  0  0  0
 31 79  1  0  0  0  0
 31 84  2  0  0  0  0
 32 68  1  0  0  0  0
 32 74  1  0  0  0  0
 32 85  2  0  0  0  0
 33 69  1  0  0  0  0
 33 80  1  0  0  0  0
 33 86  2  0  0  0  0
 34 75  1  0  0  0  0
 34 76  1  0  0  0  0
 34 87  2  0  0  0  0
 35 39  1  0  0  0  0
 36 57  1  0  0  0  0
 37 74  1  0  0  0  0
 38 52  1  0  0  0  0
 39 41  1  0  0  0  0
 40 44  1  0  0  0  0
 40 48  1  0  0  0  0
 41 54  1  0  0  0  0
 42 43  1  0  0  0  0
 42 58  1  0  0  0  0
 43 58  1  0  0  0  0
 44 60  1  0  0  0  0
 45 49  1  0  0  0  0
 45 59  1  0  0  0  0
 46 50  1  0  0  0  0
 46 59  1  0  0  0  0
 47 56  1  0  0  0  0
 47 61  1  0  0  0  0
 48 75  1  0  0  0  0
 49 76  1  0  0  0  0
 50 76  1  0  0  0  0
 51 60  1  0  0  0  0
 51 75  1  0  0  0  0
 52 81  1  0  0  0  0
 53 55  1  0  0  0  0
 53 81  1  0  0  0  0
 54 79  1  0  0  0  0
 55 70  1  0  0  0  0
 56 61  1  0  0  0  0
 57 74  1  0  0  0  0
 58 70  1  0  0  0  0
 59 70  1  0  0  0  0
 60 73  1  0  0  0  0
 61 89  1  0  0  0  0
 62 69  1  0  0  0  0
 63 71  1  0  0  0  0
 64 71  1  0  0  0  0
 65 71  1  0  0  0  0
 66 81  1  0  0  0  0
 67 82  1  0  0  0  0
 68 71  1  0  0  0  0
 68 80  1  0  0  0  0
 69 82  1  0  0  0  0
 72 73  1  0  0  0  0
M  CHG  2  81   1  82   1
M  ISO  4  34 100  61 101  76 100  89 101
M  END
> <Batch ID>
0145

> <Smiles>
CNC(C)C(=O)NC(C(=O)N1Cc2cc([101O:1][101CH:1]3CC3C=C3CCN(C)CC3C(C3CC3)C3CC[100N:0]([100C:0](=O)N4CCCC(n5nc(-c6ccc(Oc7ccc(F)cc7F)cc6)c(C(N)=O)c5N)C4)CC3)ccc2CC1C(=O)NC1CCCc2ccccc21)C(C)(C)C

> <Shape>
0.226

> <Color>
0.054

> <Negative vol penalty>
0.000

$$$$

  -OEChem-04052321283D

 86 94  0     1  0  0  0  0  0999 V2000
  -29.2836  -35.1948   26.1661 C   0  0  0  0  0  0  0  0  0  0  0  0
  -29.6896  -34.5238   25.0170 C   0  0  0  0  0  0  0  0  0  0  0  0
  -22.4529  -10.4193   20.7114 C   0  0  0  0  0  0  0  0  0  0  0  0
  -24.4005   -9.3849   21.6982 C   0  0  0  0  0  0  0  0  0  0  0  0
  -28.3496  -34.6099   27.0202 C   0  0  0  0  0  0  0  0  0  0  0  0
  -29.1627  -33.2669   24.7220 C   0  0  0  0  0  0  0  0  0  0  0  0
  -27.3298  -29.1482   19.1548 C   0  0  0  0  0  0  0  0  0  0  0  0
  -21.7896   -9.1925   20.7344 C   0  0  0  0  0  0  0  0  0  0  0  0
  -23.7372   -8.1580   21.7212 C   0  0  0  0  0  0  0  0  0  0  0  0
  -27.5464  -27.8693   18.6438 C   0  0  0  0  0  0  0  0  0  0  0  0
  -21.4047   -6.6248   23.6263 C   0  0  0  0  0  0  0  0  0  0  0  0
  -21.4932   -5.8637   24.7918 C   0  0  0  0  0  0  0  0  0  0  0  0
  -25.8801  -26.9914   20.1510 C   0  0  0  0  0  0  0  0  0  0  0  0
  -22.5175   -4.0680   23.5415 C   0  0  0  0  0  0  0  0  0  0  0  0
  -23.7584  -10.5155   21.1933 C   0  0  0  0  0  0  0  0  0  0  0  0
  -24.4539  -12.7632   22.1791 C   0  0  0  0  0  0  0  0  0  0  0  0
  -27.8037  -33.3495   26.7305 C   0  0  0  0  0  0  0  0  0  0  0  0
  -26.3929  -29.3570   20.1771 C   0  0  0  0  0  0  0  0  0  0  0  0
  -28.2215  -32.6641   25.5738 C   0  0  0  0  0  0  0  0  0  0  0  0
  -25.6516  -28.2743   20.6716 C   0  0  0  0  0  0  0  0  0  0  0  0
  -22.4317   -8.0619   21.2393 C   0  0  0  0  0  0  0  0  0  0  0  0
  -26.8236  -26.7902   19.1439 C   0  0  0  0  0  0  0  0  0  0  0  0
  -21.8725   -6.1075   22.4183 C   0  0  0  0  0  0  0  0  0  0  0  0
  -22.0496   -4.5853   24.7494 C   0  0  0  0  0  0  0  0  0  0  0  0
  -22.4289   -4.8291   22.3759 C   0  0  0  0  0  0  0  0  0  0  0  0
  -24.4443  -11.7824   21.1693 C   0  0  0  0  0  0  0  0  0  0  0  0
  -25.2437  -13.7674   21.6749 C   0  0  0  0  0  0  0  0  0  0  0  0
  -23.8067  -12.7662   23.4585 C   0  0  0  0  0  0  0  0  0  0  0  0
  -26.5372  -30.4206   23.1691 C   0  0  0  0  0  0  0  0  0  0  0  0
  -23.3051  -30.2157   22.9853 C   0  0  0  0  0  0  0  0  0  0  0  0
  -20.5708  -28.8033   21.5101 C   0  0  0  0  0  0  0  0  0  0  0  0
  -29.8534  -15.4700   19.0296 C   0  0  0  0  0  0  0  0  0  0  0  0
  -26.8325  -32.7369   27.7083 C   0  0  0  0  0  0  0  0  0  0  0  0
  -26.1519  -30.7469   20.6990 C   0  0  0  0  0  0  0  0  0  0  0  0
  -24.6197  -28.4485   21.7547 C   0  0  0  0  0  0  0  0  0  0  0  0
  -26.0421  -31.5663   27.1294 C   0  0  0  0  0  0  0  0  0  0  0  0
  -27.0856  -14.4840   17.0187 C   0  0  0  0  0  0  0  0  0  0  0  0
  -26.9706  -30.6101   26.3875 C   0  0  0  0  0  0  0  0  0  0  0  0
  -26.1560  -13.7691   18.0010 C   0  0  0  0  0  0  0  0  0  0  0  0
  -28.5552  -14.2143   17.3342 C   0  0  0  0  0  0  0  0  0  0  0  0
  -28.0257  -13.7966   19.7046 C   0  0  0  0  0  0  0  0  0  0  0  0
  -28.5244  -18.3068   23.2192 C   0  0  0  0  0  0  0  0  0  0  0  0
  -29.3756  -19.3498   21.1754 C   0  0  0  0  0  0  0  0  0  0  0  0
  -27.6542  -31.3100   25.2067 C   0  0  1  0  0  0  0  0  0  0  0  0
  -25.5414  -30.7627   22.0971 C   0  0  1  0  0  0  0  0  0  0  0  0
  -28.2893  -19.8147   23.2294 C   0  0  1  0  0  0  0  0  0  0  0  0
  -28.2242  -20.1673   21.7423 C   0  0  1  0  0  0  0  0  0  0  0  0
  -26.5342  -14.0836   19.4609 C   0  0  2  0  0  0  0  0  0  0  0  0
  -27.0438  -20.1994   24.0131 C   0  0  0  0  0  0  0  0  0  0  0  0
  -18.0629  -28.8068   21.5980 C   0  0  0  0  0  0  0  0  0  0  0  0
  -32.4183  -15.9842   20.9745 C   0  0  0  0  0  0  0  0  0  0  0  0
  -30.0167  -23.3976   17.7601 C   0  0  0  0  0  0  0  0  0  0  0  0
  -23.3939  -28.5166   25.5181 C   0  0  0  0  0  0  0  0  0  0  0  0
  -21.0534  -27.7790   25.0217 C   0  0  0  0  0  0  0  0  0  0  0  0
  -21.5357  -30.1890   25.4484 C   0  0  0  0  0  0  0  0  0  0  0  0
  -20.3586  -29.7605   18.7177 C   0  0  0  0  0  0  0  0  0  0  0  0
  -28.3719  -21.6521   21.4496 C   0  0  0  0  0  0  0  0  0  0  0  0
  -30.6022  -17.3628   22.1221 C   0  0  0  0  0  0  0  0  0  0  0  0
  -28.3726  -21.9202   19.9530 C   0  0  0  0  0  0  0  0  0  0  0  0
  -28.3419  -25.2472   18.1591 C   0  0  0  0  0  0  0  0  0  1  0  0
  -22.2839  -29.1415   23.2723 C   0  0  1  0  0  0  0  0  0  0  0  0
  -19.2983  -29.4152   20.9527 C   0  0  2  0  0  0  0  0  0  0  0  0
  -31.0578  -16.6621   20.8427 C   0  0  2  0  0  0  0  0  0  0  0  0
  -28.6336  -23.7557   18.2792 C   0  0  2  0  0  0  0  0  0  0  0  0
  -22.0875  -28.9026   24.7961 C   0  0  0  0  0  0  0  0  0  0  0  0
  -25.1703  -12.1320   20.1040 N   0  0  0  0  0  0  0  0  0  0  0  0
  -25.6434  -13.3437   20.4417 N   0  0  0  0  0  0  0  0  0  0  0  0
  -24.4248  -29.8258   22.2369 N   0  0  0  0  0  0  0  0  0  0  0  0
  -28.8485  -14.5344   18.7333 N   0  0  0  0  0  0  0  0  0  0  0  0
  -25.6284  -14.9627   22.1706 N   0  0  0  0  0  0  0  0  0  0  0  0
  -23.0329  -11.6545   23.8184 N   0  0  0  0  0  0  0  0  0  0  0  0
  -26.7396  -31.4293   24.0915 N   0  0  0  0  0  0  0  0  0  0  0  0
  -21.0685  -29.5349   22.5676 N   0  0  0  0  0  0  0  0  0  0  0  0
  -30.0630  -15.7202   20.3802 N   0  0  0  0  0  0  0  0  0  0  0  0
  -29.2832  -18.0406   21.9308 N   0  3  1  0  0  0  0  0  0  0  0  0
  -19.2179  -29.1925   19.4813 N   0  3  0  0  0  0  0  0  0  0  0  0
  -28.5642  -23.3742   19.7195 N   0  3  0  0  0  0  0  0  0  0  0  0
  -23.8982  -13.7334   24.2520 O   0  0  0  0  0  0  0  0  0  0  0  0
  -27.0804  -29.3222   23.1608 O   0  0  0  0  0  0  0  0  0  0  0  0
  -23.1127  -31.3601   23.4034 O   0  0  0  0  0  0  0  0  0  0  0  0
  -21.0710  -27.7769   21.0555 O   0  0  0  0  0  0  0  0  0  0  0  0
  -30.5111  -16.0442   18.1551 O   0  0  0  0  0  0  0  0  0  0  0  0
  -21.7846   -6.8646   21.2622 O   0  0  0  0  0  0  0  0  0  0  0  0
  -27.0335  -25.5407   18.6473 O   0  0  0  0  0  0  0  0  0  1  0  0
  -22.1360   -3.8552   25.8691 F   0  0  0  0  0  0  0  0  0  0  0  0
  -22.8812   -4.3272   21.2186 F   0  0  0  0  0  0  0  0  0  0  0  0
  1  2  1  0  0  0  0
  1  5  2  0  0  0  0
  2  6  2  0  0  0  0
  3  8  2  0  0  0  0
  3 15  1  0  0  0  0
  4  9  1  0  0  0  0
  4 15  2  0  0  0  0
  5 17  1  0  0  0  0
  6 19  1  0  0  0  0
  7 10  2  0  0  0  0
  7 18  1  0  0  0  0
  8 21  1  0  0  0  0
  9 21  2  0  0  0  0
 10 22  1  0  0  0  0
 11 12  2  0  0  0  0
 11 23  1  0  0  0  0
 12 24  1  0  0  0  0
 13 20  1  0  0  0  0
 13 22  2  0  0  0  0
 14 24  2  0  0  0  0
 14 25  1  0  0  0  0
 15 26  1  0  0  0  0
 16 26  1  0  0  0  0
 16 27  2  0  0  0  0
 16 28  1  0  0  0  0
 17 19  2  0  0  0  0
 17 33  1  0  0  0  0
 18 20  2  0  0  0  0
 18 34  1  0  0  0  0
 19 44  1  0  0  0  0
 20 35  1  0  0  0  0
 21 83  1  0  0  0  0
 22 84  1  0  0  0  0
 23 25  2  0  0  0  0
 23 83  1  0  0  0  0
 24 85  1  0  0  0  0
 25 86  1  0  0  0  0
 26 66  2  0  0  0  0
 27 67  1  0  0  0  0
 27 70  1  0  0  0  0
 28 71  1  0  0  0  0
 28 78  2  0  0  0  0
 29 45  1  0  0  0  0
 29 72  1  0  0  0  0
 29 79  2  0  0  0  0
 30 61  1  0  0  0  0
 30 68  1  0  0  0  0
 30 80  2  0  0  0  0
 31 62  1  0  0  0  0
 31 73  1  0  0  0  0
 31 81  2  0  0  0  0
 32 69  1  0  0  0  0
 32 74  1  0  0  0  0
 32 82  2  0  0  0  0
 33 36  1  0  0  0  0
 34 45  1  0  0  0  0
 35 68  1  0  0  0  0
 36 38  1  0  0  0  0
 37 39  1  0  0  0  0
 37 40  1  0  0  0  0
 38 44  1  0  0  0  0
 39 48  1  0  0  0  0
 40 69  1  0  0  0  0
 41 48  1  0  0  0  0
 41 69  1  0  0  0  0
 42 46  1  0  0  0  0
 42 75  1  0  0  0  0
 43 47  1  0  0  0  0
 43 75  1  0  0  0  0
 44 72  1  0  0  0  0
 45 68  1  0  0  0  0
 46 47  1  0  0  0  0
 46 49  1  0  0  0  0
 47 57  1  0  0  0  0
 48 67  1  0  0  0  0
 50 62  1  0  0  0  0
 51 63  1  0  0  0  0
 52 64  1  0  0  0  0
 53 65  1  0  0  0  0
 54 65  1  0  0  0  0
 55 65  1  0  0  0  0
 56 76  1  0  0  0  0
 57 59  1  0  0  0  0
 58 63  1  0  0  0  0
 58 75  1  0  0  0  0
 59 77  1  0  0  0  0
 60 64  1  0  0  0  0
 60 84  1  0  0  0  0
 61 65  1  0  0  0  0
 61 73  1  0  0  0  0
 62 76  1  0  0  0  0
 63 74  1  0  0  0  0
 64 77  1  0  0  0  0
 66 67  1  0  0  0  0
M  CHG  3  75   1  76   1  77   1
M  ISO  4  32 100  60 101  74 100  84 101
M  END
> <Batch ID>
0145

> <Smiles>
CNC(C)C(=O)NC(C(=O)N1Cc2cc([101O:1][101CH2:1]C(C)NCCC3CN(CC(C)[100NH:0][100C:0](=O)N4CCCC(n5nc(-c6ccc(Oc7ccc(F)cc7F)cc6)c(C(N)=O)c5N)C4)CC3C)ccc2CC1C(=O)NC1CCCc2ccccc21)C(C)(C)C

> <Shape>
0.345

> <Color>
0.121

> <Negative vol penalty>
0.000

$$$$

  -OEChem-04052321283D

 88 97  0     1  0  0  0  0  0999 V2000
  -34.1375   -9.6606   23.2953 C   0  0  0  0  0  0  0  0  0  0  0  0
  -33.9575  -11.0174   23.0462 C   0  0  0  0  0  0  0  0  0  0  0  0
  -25.1047  -29.9565   20.1905 C   0  0  0  0  0  0  0  0  0  0  0  0
  -25.4179  -31.6292   21.9055 C   0  0  0  0  0  0  0  0  0  0  0  0
  -33.4136   -8.7174   22.5671 C   0  0  0  0  0  0  0  0  0  0  0  0
  -33.0542  -11.4318   22.0681 C   0  0  0  0  0  0  0  0  0  0  0  0
  -29.5534  -16.4555   22.1807 C   0  0  0  0  0  0  0  0  0  0  0  0
  -24.2483  -29.2506   21.0354 C   0  0  0  0  0  0  0  0  0  0  0  0
  -24.5614  -30.9233   22.7503 C   0  0  0  0  0  0  0  0  0  0  0  0
  -29.7000  -17.7141   21.5992 C   0  0  0  0  0  0  0  0  0  0  0  0
  -21.6957  -27.1959   22.6094 C   0  0  0  0  0  0  0  0  0  0  0  0
  -20.5052  -26.7109   22.0680 C   0  0  0  0  0  0  0  0  0  0  0  0
  -28.3185  -17.0138   19.7498 C   0  0  0  0  0  0  0  0  0  0  0  0
  -31.2494  -21.9817   19.3207 C   0  0  0  0  0  0  0  0  0  0  0  0
  -28.8806  -23.3596   18.7986 C   0  0  0  0  0  0  0  0  0  0  0  0
  -19.8390  -28.9660   21.5131 C   0  0  0  0  0  0  0  0  0  0  0  0
  -25.6896  -31.1457   20.6256 C   0  0  0  0  0  0  0  0  0  0  0  0
  -26.2239  -32.8826   18.8352 C   0  0  0  0  0  0  0  0  0  0  0  0
  -32.4939   -9.1206   21.5863 C   0  0  0  0  0  0  0  0  0  0  0  0
  -28.7960  -15.4614   21.5448 C   0  0  0  0  0  0  0  0  0  0  0  0
  -32.3183  -10.4930   21.3252 C   0  0  0  0  0  0  0  0  0  0  0  0
  -28.1618  -15.7442   20.3266 C   0  0  0  0  0  0  0  0  0  0  0  0
  -31.2835  -23.1855   18.6170 C   0  0  0  0  0  0  0  0  0  0  0  0
  -28.8465  -22.1556   19.5022 C   0  0  0  0  0  0  0  0  0  0  0  0
  -30.0310  -21.4666   19.7632 C   0  0  0  0  0  0  0  0  0  0  0  0
  -30.0991  -23.8745   18.3560 C   0  0  0  0  0  0  0  0  0  0  0  0
  -23.9765  -29.7340   22.3153 C   0  0  0  0  0  0  0  0  0  0  0  0
  -29.0849  -17.9925   20.3821 C   0  0  0  0  0  0  0  0  0  0  0  0
  -21.9579  -28.5659   22.6027 C   0  0  0  0  0  0  0  0  0  0  0  0
  -19.5768  -27.5960   21.5198 C   0  0  0  0  0  0  0  0  0  0  0  0
  -21.0295  -29.4509   22.0545 C   0  0  0  0  0  0  0  0  0  0  0  0
  -26.5749  -31.8750   19.7535 C   0  0  0  0  0  0  0  0  0  0  0  0
  -27.4146  -33.2518   18.2588 C   0  0  0  0  0  0  0  0  0  0  0  0
  -24.9365  -33.4354   18.5305 C   0  0  0  0  0  0  0  0  0  0  0  0
  -29.4192  -12.5748   20.3689 C   0  0  0  0  0  0  0  0  0  0  0  0
  -26.2044  -12.4804   19.9463 C   0  0  0  0  0  0  0  0  0  0  0  0
  -23.2833  -14.1990   19.5457 C   0  0  0  0  0  0  0  0  0  0  0  0
  -30.5459  -29.6326   20.7606 C   0  0  0  0  0  0  0  0  0  0  0  0
  -31.7691   -8.0630   20.7921 C   0  0  0  0  0  0  0  0  0  0  0  0
  -28.6256  -14.1174   22.1983 C   0  0  0  0  0  0  0  0  0  0  0  0
  -27.3212  -14.7181   19.6132 C   0  0  0  0  0  0  0  0  0  0  0  0
  -30.5565   -8.5954   20.0329 C   0  0  0  0  0  0  0  0  0  0  0  0
  -30.9979  -33.1183   20.7716 C   0  0  0  0  0  0  0  0  0  0  0  0
  -30.9092   -9.8871   19.3021 C   0  0  0  0  0  0  0  0  0  0  0  0
  -30.6022  -33.5677   19.3676 C   0  0  0  0  0  0  0  0  0  0  0  0
  -31.7475  -31.7947   20.7274 C   0  0  0  0  0  0  0  0  0  0  0  0
  -29.4394  -28.8004   18.6424 C   0  0  0  0  0  0  0  0  0  0  0  0
  -30.5410  -31.0972   18.6765 C   0  0  0  0  0  0  0  0  0  0  0  0
  -30.0263  -27.6614   17.8193 C   0  0  0  0  0  0  0  0  0  0  0  0
  -30.0936  -26.2278   19.8588 C   0  0  0  0  0  0  0  0  0  0  0  0
  -31.3295  -10.9825   20.2895 C   0  0  1  0  0  0  0  0  0  0  0  0
  -28.2550  -13.0154   21.2105 C   0  0  1  0  0  0  0  0  0  0  0  0
  -29.8662  -32.4826   18.5622 C   0  0  1  0  0  0  0  0  0  0  0  0
  -29.5164  -27.3724   20.6929 C   0  0  2  0  0  0  0  0  0  0  0  0
  -32.5998  -23.7177   18.1538 C   0  0  0  0  0  0  0  0  0  0  0  0
  -27.5302  -21.6234   19.9653 C   0  0  0  0  0  0  0  0  0  0  0  0
  -28.0189  -27.2072   20.9691 C   0  0  0  0  0  0  0  0  0  0  0  0
  -29.2682  -25.1295   16.3244 C   0  0  0  0  0  0  0  0  0  0  0  0
  -20.8247  -13.8479   19.1855 C   0  0  0  0  0  0  0  0  0  0  0  0
  -26.7348  -11.7817   17.0240 C   0  0  0  0  0  0  0  0  0  0  0  0
  -24.3548  -12.3754   16.5225 C   0  0  0  0  0  0  0  0  0  0  0  0
  -24.8679  -10.4969   18.0815 C   0  0  0  0  0  0  0  0  0  0  0  0
  -22.5984  -15.5726   22.0761 C   0  0  0  0  0  0  0  0  0  0  0  0
  -30.0191  -20.1756   20.5139 C   0  0  0  0  0  0  0  0  0  1  0  0
  -30.1111  -25.1808   17.5962 C   0  0  1  0  0  0  0  0  0  0  0  0
  -25.2597  -12.8773   18.8377 C   0  0  1  0  0  0  0  0  0  0  0  0
  -21.9277  -14.0506   20.2127 C   0  0  2  0  0  0  0  0  0  0  0  0
  -25.3217  -11.9018   17.6287 C   0  0  0  0  0  0  0  0  0  0  0  0
  -27.8860  -31.6203   19.7633 N   0  0  0  0  0  0  0  0  0  0  0  0
  -28.3693  -32.4731   18.8439 N   0  0  0  0  0  0  0  0  0  0  0  0
  -27.1899  -13.4169   20.2893 N   0  0  0  0  0  0  0  0  0  0  0  0
  -30.9704  -30.7629   20.0428 N   0  0  0  0  0  0  0  0  0  0  0  0
  -29.7857  -28.6782   20.0660 N   0  0  0  0  0  0  0  0  0  0  0  0
  -27.7277  -34.1633   17.3135 N   0  0  0  0  0  0  0  0  0  0  0  0
  -23.8181  -32.9413   19.2155 N   0  0  0  0  0  0  0  0  0  0  0  0
  -30.1668  -11.5577   20.9311 N   0  0  0  0  0  0  0  0  0  0  0  0
  -23.9392  -12.9901   19.4475 N   0  0  0  0  0  0  0  0  0  0  0  0
  -29.6333  -26.3398   18.4268 N   0  3  2  0  0  0  0  0  0  0  0  0
  -21.6078  -15.2670   21.0121 N   0  3  0  0  0  0  0  0  0  0  0  0
  -24.7804  -34.3291   17.6642 O   0  0  0  0  0  0  0  0  0  0  0  0
  -29.6231  -13.1164   19.2888 O   0  0  0  0  0  0  0  0  0  0  0  0
  -26.0683  -11.3830   20.4929 O   0  0  0  0  0  0  0  0  0  0  0  0
  -23.7154  -15.2786   19.1481 O   0  0  0  0  0  0  0  0  0  0  0  0
  -30.8162  -29.4928   21.9602 O   0  0  0  0  0  0  0  0  0  0  0  0
  -23.1406  -29.0457   23.1398 O   0  0  0  0  0  0  0  0  0  0  0  0
  -29.2278  -19.2287   19.8079 O   0  0  0  0  0  0  0  0  0  1  0  0
  -18.4343  -27.1301   20.9986 F   0  0  0  0  0  0  0  0  0  0  0  0
  -21.2764  -30.7681   22.0441 F   0  0  0  0  0  0  0  0  0  0  0  0
  1  2  1  0  0  0  0
  1  5  2  0  0  0  0
  2  6  2  0  0  0  0
  3  8  2  0  0  0  0
  3 17  1  0  0  0  0
  4  9  1  0  0  0  0
  4 17  2  0  0  0  0
  5 19  1  0  0  0  0
  6 21  1  0  0  0  0
  7 10  2  0  0  0  0
  7 20  1  0  0  0  0
  8 27  1  0  0  0  0
  9 27  2  0  0  0  0
 10 28  1  0  0  0  0
 11 12  2  0  0  0  0
 11 29  1  0  0  0  0
 12 30  1  0  0  0  0
 13 22  1  0  0  0  0
 13 28  2  0  0  0  0
 14 23  2  0  0  0  0
 14 25  1  0  0  0  0
 15 24  1  0  0  0  0
 15 26  2  0  0  0  0
 16 30  2  0  0  0  0
 16 31  1  0  0  0  0
 17 32  1  0  0  0  0
 18 32  1  0  0  0  0
 18 33  2  0  0  0  0
 18 34  1  0  0  0  0
 19 21  2  0  0  0  0
 19 39  1  0  0  0  0
 20 22  2  0  0  0  0
 20 40  1  0  0  0  0
 21 51  1  0  0  0  0
 22 41  1  0  0  0  0
 23 26  1  0  0  0  0
 23 55  1  0  0  0  0
 24 25  2  0  0  0  0
 24 56  1  0  0  0  0
 25 64  1  0  0  0  0
 26 65  1  0  0  0  0
 27 85  1  0  0  0  0
 28 86  1  0  0  0  0
 29 31  2  0  0  0  0
 29 85  1  0  0  0  0
 30 87  1  0  0  0  0
 31 88  1  0  0  0  0
 32 69  2  0  0  0  0
 33 70  1  0  0  0  0
 33 74  1  0  0  0  0
 34 75  1  0  0  0  0
 34 80  2  0  0  0  0
 35 52  1  0  0  0  0
 35 76  1  0  0  0  0
 35 81  2  0  0  0  0
 36 66  1  0  0  0  0
 36 71  1  0  0  0  0
 36 82  2  0  0  0  0
 37 67  1  0  0  0  0
 37 77  1  0  0  0  0
 37 83  2  0  0  0  0
 38 72  1  0  0  0  0
 38 73  1  0  0  0  0
 38 84  2  0  0  0  0
 39 42  1  0  0  0  0
 40 52  1  0  0  0  0
 41 71  1  0  0  0  0
 42 44  1  0  0  0  0
 43 45  1  0  0  0  0
 43 46  1  0  0  0  0
 44 51  1  0  0  0  0
 45 53  1  0  0  0  0
 46 72  1  0  0  0  0
 47 49  1  0  0  0  0
 47 73  1  0  0  0  0
 48 53  1  0  0  0  0
 48 72  1  0  0  0  0
 49 78  1  0  0  0  0
 50 54  1  0  0  0  0
 50 78  1  0  0  0  0
 51 76  1  0  0  0  0
 52 71  1  0  0  0  0
 53 70  1  0  0  0  0
 54 57  1  0  0  0  0
 54 73  1  0  0  0  0
 58 65  1  0  0  0  0
 59 67  1  0  0  0  0
 60 68  1  0  0  0  0
 61 68  1  0  0  0  0
 62 68  1  0  0  0  0
 63 79  1  0  0  0  0
 64 86  1  0  0  0  0
 65 78  1  0  0  0  0
 66 68  1  0  0  0  0
 66 77  1  0  0  0  0
 67 79  1  0  0  0  0
 69 70  1  0  0  0  0
M  CHG  2  78   1  79   1
M  ISO  4  38 100  64 101  73 100  86 101
M  END
> <Batch ID>
0145

> <Smiles>
CNC(C)C(=O)NC(C(=O)N1Cc2cc([101O:1][101CH2:1]c3cc(C)c(C(C)N4CC[100N:0]([100C:0](=O)N5CCCC(n6nc(-c7ccc(Oc8ccc(F)cc8F)cc7)c(C(N)=O)c6N)C5)C(C)C4)cc3C)ccc2CC1C(=O)NC1CCCc2ccccc21)C(C)(C)C

> <Shape>
0.264

> <Color>
0.053

> <Negative vol penalty>
0.000

$$$$

  -OEChem-04052321283D

 87 95  0     1  0  0  0  0  0999 V2000
  -28.6885  -11.2622   21.6621 C   0  0  0  0  0  0  0  0  0  0  0  0
  -28.9780  -12.5408   21.1965 C   0  0  0  0  0  0  0  0  0  0  0  0
  -23.8723  -27.0488   22.6679 C   0  0  0  0  0  0  0  0  0  0  0  0
  -24.5777  -29.3582   22.7482 C   0  0  0  0  0  0  0  0  0  0  0  0
  -27.3980  -10.7504   21.5334 C   0  0  0  0  0  0  0  0  0  0  0  0
  -27.9774  -13.3079   20.6009 C   0  0  0  0  0  0  0  0  0  0  0  0
  -27.9641  -18.0980   22.2441 C   0  0  0  0  0  0  0  0  0  0  0  0
  -22.6294  -27.4104   23.1875 C   0  0  0  0  0  0  0  0  0  0  0  0
  -23.3347  -29.7198   23.2678 C   0  0  0  0  0  0  0  0  0  0  0  0
  -28.9270  -18.9556   21.7141 C   0  0  0  0  0  0  0  0  0  0  0  0
  -19.1442  -27.7757   24.1547 C   0  0  0  0  0  0  0  0  0  0  0  0
  -18.0081  -27.2287   23.5584 C   0  0  0  0  0  0  0  0  0  0  0  0
  -27.2801  -19.8597   20.2009 C   0  0  0  0  0  0  0  0  0  0  0  0
  -32.8564  -24.7978   19.3351 C   0  0  0  0  0  0  0  0  0  0  0  0
  -18.6230  -28.2450   21.4545 C   0  0  0  0  0  0  0  0  0  0  0  0
  -24.8465  -28.0227   22.4483 C   0  0  0  0  0  0  0  0  0  0  0  0
  -26.4991  -27.5847   20.5549 C   0  0  0  0  0  0  0  0  0  0  0  0
  -26.3787  -11.5153   20.9447 C   0  0  0  0  0  0  0  0  0  0  0  0
  -26.6525  -18.1071   21.7483 C   0  0  0  0  0  0  0  0  0  0  0  0
  -26.6724  -12.8053   20.4630 C   0  0  0  0  0  0  0  0  0  0  0  0
  -26.3018  -19.0029   20.7281 C   0  0  0  0  0  0  0  0  0  0  0  0
  -31.8953  -23.9503   18.7308 C   0  0  0  0  0  0  0  0  0  0  0  0
  -22.3606  -28.7458   23.4874 C   0  0  0  0  0  0  0  0  0  0  0  0
  -28.5859  -19.8346   20.6903 C   0  0  0  0  0  0  0  0  0  0  0  0
  -20.0198  -28.5574   23.4009 C   0  0  0  0  0  0  0  0  0  0  0  0
  -17.7475  -27.4634   22.2083 C   0  0  0  0  0  0  0  0  0  0  0  0
  -19.7592  -28.7920   22.0509 C   0  0  0  0  0  0  0  0  0  0  0  0
  -26.1309  -27.6498   21.9121 C   0  0  0  0  0  0  0  0  0  0  0  0
  -31.3624  -24.6314   17.6587 C   0  0  0  0  0  0  0  0  0  0  0  0
  -32.8814  -25.9712   18.6140 C   0  0  0  0  0  0  0  0  0  0  0  0
  -27.8126  -27.1837   20.5743 C   0  0  0  0  0  0  0  0  0  0  0  0
  -25.7232  -27.8620   19.3816 C   0  0  0  0  0  0  0  0  0  0  0  0
  -24.7855  -15.9782   20.3040 C   0  0  0  0  0  0  0  0  0  0  0  0
  -22.5436  -18.2990   20.6356 C   0  0  0  0  0  0  0  0  0  0  0  0
  -21.8431  -21.6170   21.0192 C   0  0  0  0  0  0  0  0  0  0  0  0
  -32.9759  -27.5285   22.6640 C   0  0  0  0  0  0  0  0  0  0  0  0
  -25.0105  -10.9012   20.7849 C   0  0  0  0  0  0  0  0  0  0  0  0
  -25.6188  -17.1944   22.3491 C   0  0  0  0  0  0  0  0  0  0  0  0
  -24.9025  -19.0662   20.1747 C   0  0  0  0  0  0  0  0  0  0  0  0
  -23.9167  -11.9216   20.4804 C   0  0  0  0  0  0  0  0  0  0  0  0
  -30.6620  -25.4243   24.3654 C   0  0  0  0  0  0  0  0  0  0  0  0
  -24.3734  -12.8840   19.3886 C   0  0  0  0  0  0  0  0  0  0  0  0
  -29.3074  -25.8147   23.7715 C   0  0  0  0  0  0  0  0  0  0  0  0
  -31.5851  -26.6324   24.5077 C   0  0  0  0  0  0  0  0  0  0  0  0
  -30.4225  -27.8046   22.6780 C   0  0  0  0  0  0  0  0  0  0  0  0
  -25.6078  -13.6775   19.8336 C   0  0  1  0  0  0  0  0  0  0  0  0
  -24.4416  -16.9286   21.4159 C   0  0  1  0  0  0  0  0  0  0  0  0
  -29.4771  -26.6103   22.4632 C   0  0  2  0  0  0  0  0  0  0  0  0
  -28.9567  -23.9461   17.3478 C   0  0  0  0  0  0  0  0  0  0  0  0
  -30.7440  -22.9880   15.8502 C   0  0  0  0  0  0  0  0  0  0  0  0
  -19.9174  -23.2132   21.2216 C   0  0  0  0  0  0  0  0  0  0  0  0
  -34.1432  -29.7962   19.9941 C   0  0  0  0  0  0  0  0  0  0  0  0
  -22.0355  -18.0625   17.6362 C   0  0  0  0  0  0  0  0  0  0  0  0
  -20.8461  -20.2634   17.7348 C   0  0  0  0  0  0  0  0  0  0  0  0
  -19.9725  -18.3166   19.0269 C   0  0  0  0  0  0  0  0  0  0  0  0
  -31.6838  -26.8764   16.6065 C   0  0  0  0  0  0  0  0  0  0  0  0
  -22.7043  -22.4966   23.7106 C   0  0  0  0  0  0  0  0  0  0  0  0
  -31.5292  -22.5597   19.1844 C   0  0  0  0  0  0  0  0  0  0  0  0
  -31.0145  -22.4969   20.6241 C   0  0  0  0  0  0  0  0  0  0  0  0
  -34.6104  -27.2982   19.8286 C   0  0  0  0  0  0  0  0  0  0  0  0
  -30.5667  -21.1020   21.0450 C   0  0  0  0  0  0  0  0  0  1  0  0
  -30.3272  -24.2183   16.6874 C   0  0  0  0  0  0  0  0  0  0  0  0
  -22.0853  -19.4700   19.8002 C   0  0  1  0  0  0  0  0  0  0  0  0
  -20.9155  -22.3468   21.9738 C   0  0  2  0  0  0  0  0  0  0  0  0
  -34.2311  -28.4685   20.7404 C   0  0  2  0  0  0  0  0  0  0  0  0
  -21.2618  -19.0258   18.5584 C   0  0  0  0  0  0  0  0  0  0  0  0
  -27.1297  -27.3166   22.7339 N   0  0  0  0  0  0  0  0  0  0  0  0
  -31.9690  -25.8588   17.5976 N   0  0  0  0  0  0  0  0  0  0  0  0
  -28.1385  -27.0383   21.8907 N   0  0  0  0  0  0  0  0  0  0  0  0
  -23.9290  -18.1495   20.7907 N   0  0  0  0  0  0  0  0  0  0  0  0
  -31.7047  -27.3421   23.2317 N   0  0  0  0  0  0  0  0  0  0  0  0
  -28.7090  -26.9447   19.5937 N   0  0  0  0  0  0  0  0  0  0  0  0
  -24.3898  -28.2630   19.5416 N   0  0  0  0  0  0  0  0  0  0  0  0
  -33.6168  -27.0930   18.7740 N   0  0  0  0  0  0  0  0  0  0  0  0
  -25.2259  -14.7419   20.7367 N   0  0  0  0  0  0  0  0  0  0  0  0
  -21.3679  -20.3612   20.7054 N   0  0  0  0  0  0  0  0  0  0  0  0
  -32.9994  -28.2054   21.4507 N   0  0  0  0  0  0  0  0  0  0  0  0
  -21.6997  -23.2216   22.8908 N   0  3  0  0  0  0  0  0  0  0  0  0
  -26.1934  -27.7416   18.2249 O   0  0  0  0  0  0  0  0  0  0  0  0
  -24.6592  -16.3392   19.1398 O   0  0  0  0  0  0  0  0  0  0  0  0
  -21.7030  -17.5489   21.1381 O   0  0  0  0  0  0  0  0  0  0  0  0
  -22.8832  -22.1128   20.5916 O   0  0  0  0  0  0  0  0  0  0  0  0
  -34.0126  -27.1172   23.1961 O   0  0  0  0  0  0  0  0  0  0  0  0
  -21.1477  -29.0990   23.9942 O   0  0  0  0  0  0  0  0  0  0  0  0
  -29.5240  -20.6724   20.1707 O   0  0  0  0  0  0  0  0  0  1  0  0
  -16.6572  -26.9368   21.6354 F   0  0  0  0  0  0  0  0  0  0  0  0
  -20.5973  -29.5412   21.3214 F   0  0  0  0  0  0  0  0  0  0  0  0
  1  2  1  0  0  0  0
  1  5  2  0  0  0  0
  2  6  2  0  0  0  0
  3  8  2  0  0  0  0
  3 16  1  0  0  0  0
  4  9  1  0  0  0  0
  4 16  2  0  0  0  0
  5 18  1  0  0  0  0
  6 20  1  0  0  0  0
  7 10  2  0  0  0  0
  7 19  1  0  0  0  0
  8 23  1  0  0  0  0
  9 23  2  0  0  0  0
 10 24  1  0  0  0  0
 11 12  2  0  0  0  0
 11 25  1  0  0  0  0
 12 26  1  0  0  0  0
 13 21  1  0  0  0  0
 13 24  2  0  0  0  0
 14 22  1  0  0  0  0
 14 30  2  0  0  0  0
 15 26  2  0  0  0  0
 15 27  1  0  0  0  0
 16 28  1  0  0  0  0
 17 28  1  0  0  0  0
 17 31  2  0  0  0  0
 17 32  1  0  0  0  0
 18 20  2  0  0  0  0
 18 37  1  0  0  0  0
 19 21  2  0  0  0  0
 19 38  1  0  0  0  0
 20 46  1  0  0  0  0
 21 39  1  0  0  0  0
 22 29  2  0  0  0  0
 22 58  1  0  0  0  0
 23 84  1  0  0  0  0
 24 85  1  0  0  0  0
 25 27  2  0  0  0  0
 25 84  1  0  0  0  0
 26 86  1  0  0  0  0
 27 87  1  0  0  0  0
 28 67  2  0  0  0  0
 29 62  1  0  0  0  0
 29 68  1  0  0  0  0
 30 68  1  0  0  0  0
 30 74  1  0  0  0  0
 31 69  1  0  0  0  0
 31 72  1  0  0  0  0
 32 73  1  0  0  0  0
 32 79  2  0  0  0  0
 33 47  1  0  0  0  0
 33 75  1  0  0  0  0
 33 80  2  0  0  0  0
 34 63  1  0  0  0  0
 34 70  1  0  0  0  0
 34 81  2  0  0  0  0
 35 64  1  0  0  0  0
 35 76  1  0  0  0  0
 35 82  2  0  0  0  0
 36 71  1  0  0  0  0
 36 77  1  0  0  0  0
 36 83  2  0  0  0  0
 37 40  1  0  0  0  0
 38 47  1  0  0  0  0
 39 70  1  0  0  0  0
 40 42  1  0  0  0  0
 41 43  1  0  0  0  0
 41 44  1  0  0  0  0
 42 46  1  0  0  0  0
 43 48  1  0  0  0  0
 44 71  1  0  0  0  0
 45 48  1  0  0  0  0
 45 71  1  0  0  0  0
 46 75  1  0  0  0  0
 47 70  1  0  0  0  0
 48 69  1  0  0  0  0
 49 62  1  0  0  0  0
 50 62  1  0  0  0  0
 51 64  1  0  0  0  0
 52 65  1  0  0  0  0
 53 66  1  0  0  0  0
 54 66  1  0  0  0  0
 55 66  1  0  0  0  0
 56 68  1  0  0  0  0
 57 78  1  0  0  0  0
 58 59  1  0  0  0  0
 59 61  1  0  0  0  0
 60 65  1  0  0  0  0
 60 74  1  0  0  0  0
 61 85  1  0  0  0  0
 63 66  1  0  0  0  0
 63 76  1  0  0  0  0
 64 78  1  0  0  0  0
 65 77  1  0  0  0  0
 67 69  1  0  0  0  0
M  CHG  1  78   1
M  ISO  4  36 100  61 101  77 100  85 101
M  END
> <Batch ID>
0145

> <Smiles>
CNC(C)C(=O)NC(C(=O)N1Cc2cc([101O:1][101CH2:1]CCc3cc(NCC(C)[100NH:0][100C:0](=O)N4CCCC(n5nc(-c6ccc(Oc7ccc(F)cc7F)cc6)c(C(N)=O)c5N)C4)n(C)c3C(C)C)ccc2CC1C(=O)NC1CCCc2ccccc21)C(C)(C)C

> <Shape>
0.199

> <Color>
0.074

> <Negative vol penalty>
0.000

$$$$

  -OEChem-04052321283D

 86 94  0     1  0  0  0  0  0999 V2000
  -28.7004  -29.2916   27.4936 C   0  0  0  0  0  0  0  0  0  0  0  0
  -28.4261  -28.5170   26.3709 C   0  0  0  0  0  0  0  0  0  0  0  0
  -24.7767   -9.3704   22.7697 C   0  0  0  0  0  0  0  0  0  0  0  0
  -24.4230  -11.5059   23.8428 C   0  0  0  0  0  0  0  0  0  0  0  0
  -27.7205  -30.1370   28.0121 C   0  0  0  0  0  0  0  0  0  0  0  0
  -27.1713  -28.5867   25.7668 C   0  0  0  0  0  0  0  0  0  0  0  0
  -27.4589  -28.8856   20.7198 C   0  0  0  0  0  0  0  0  0  0  0  0
  -24.5590   -8.7231   23.9859 C   0  0  0  0  0  0  0  0  0  0  0  0
  -24.2053  -10.8586   25.0591 C   0  0  0  0  0  0  0  0  0  0  0  0
  -27.7194  -27.7048   20.0258 C   0  0  0  0  0  0  0  0  0  0  0  0
  -21.9145   -7.8325   25.8953 C   0  0  0  0  0  0  0  0  0  0  0  0
  -21.0863   -6.7101   25.8932 C   0  0  0  0  0  0  0  0  0  0  0  0
  -25.3720  -27.4971   19.5101 C   0  0  0  0  0  0  0  0  0  0  0  0
  -28.4869  -18.2456   21.3601 C   0  0  0  0  0  0  0  0  0  0  0  0
  -22.9090   -5.3637   26.7311 C   0  0  0  0  0  0  0  0  0  0  0  0
  -24.7088  -10.7618   22.6981 C   0  0  0  0  0  0  0  0  0  0  0  0
  -23.9710  -11.7604   20.4696 C   0  0  0  0  0  0  0  0  0  0  0  0
  -26.4562  -30.2243   27.4083 C   0  0  0  0  0  0  0  0  0  0  0  0
  -26.1493  -29.3761   20.8235 C   0  0  0  0  0  0  0  0  0  0  0  0
  -26.1731  -29.4332   26.2786 C   0  0  0  0  0  0  0  0  0  0  0  0
  -25.0979  -28.6857   20.2037 C   0  0  0  0  0  0  0  0  0  0  0  0
  -28.6921  -19.6015   21.5897 C   0  0  0  0  0  0  0  0  0  0  0  0
  -29.7324  -20.2607   20.9443 C   0  0  0  0  0  0  0  0  0  0  0  0
  -24.2733   -9.4672   25.1306 C   0  0  0  0  0  0  0  0  0  0  0  0
  -26.6755  -27.0088   19.4233 C   0  0  0  0  0  0  0  0  0  0  0  0
  -23.2399   -7.7205   26.3153 C   0  0  0  0  0  0  0  0  0  0  0  0
  -21.5836   -5.4757   26.3111 C   0  0  0  0  0  0  0  0  0  0  0  0
  -23.7372   -6.4861   26.7332 C   0  0  0  0  0  0  0  0  0  0  0  0
  -24.9341  -11.4310   21.4421 C   0  0  0  0  0  0  0  0  0  0  0  0
  -30.5329  -19.5246   20.0857 C   0  0  0  0  0  0  0  0  0  0  0  0
  -29.3430  -17.5998   20.4827 C   0  0  0  0  0  0  0  0  0  0  0  0
  -24.6862  -12.3801   19.4742 C   0  0  0  0  0  0  0  0  0  0  0  0
  -22.5563  -11.5272   20.4664 C   0  0  0  0  0  0  0  0  0  0  0  0
  -24.1498  -29.9418   23.2289 C   0  0  0  0  0  0  0  0  0  0  0  0
  -22.3007  -31.2045   20.8818 C   0  0  0  0  0  0  0  0  0  0  0  0
  -21.4979  -31.3092   17.5665 C   0  0  0  0  0  0  0  0  0  0  0  0
  -29.8572  -15.3740   19.4208 C   0  0  0  0  0  0  0  0  0  0  0  0
  -25.4135  -31.1172   28.0329 C   0  0  0  0  0  0  0  0  0  0  0  0
  -25.8885  -30.6655   21.5529 C   0  0  0  0  0  0  0  0  0  0  0  0
  -23.6770  -29.1809   20.2685 C   0  0  0  0  0  0  0  0  0  0  0  0
  -24.2332  -31.4127   27.1110 C   0  0  0  0  0  0  0  0  0  0  0  0
  -29.0513  -12.4817   17.5070 C   0  0  0  0  0  0  0  0  0  0  0  0
  -23.7378  -30.1303   26.4502 C   0  0  0  0  0  0  0  0  0  0  0  0
  -27.8128  -11.9174   18.2068 C   0  0  0  0  0  0  0  0  0  0  0  0
  -30.0467  -13.0720   18.5043 C   0  0  0  0  0  0  0  0  0  0  0  0
  -28.2455  -13.4991   20.1299 C   0  0  0  0  0  0  0  0  0  0  0  0
  -24.8321  -29.4996   25.5804 C   0  0  1  0  0  0  0  0  0  0  0  0
  -24.4463  -30.8000   22.0317 C   0  0  1  0  0  0  0  0  0  0  0  0
  -27.1845  -12.9518   19.1612 C   0  0  2  0  0  0  0  0  0  0  0  0
  -27.7861  -20.3249   22.5305 C   0  0  0  0  0  0  0  0  0  0  0  0
  -31.6665  -20.1790   19.3654 C   0  0  0  0  0  0  0  0  0  0  0  0
  -30.3347  -22.0211   22.6381 C   0  0  0  0  0  0  0  0  0  0  0  0
  -19.9190  -32.4094   15.9558 C   0  0  0  0  0  0  0  0  0  0  0  0
  -27.5890  -23.3727   17.3846 C   0  0  0  0  0  0  0  0  0  0  0  0
  -20.0515  -29.3817   21.8453 C   0  0  0  0  0  0  0  0  0  0  0  0
  -18.8710  -29.8097   19.6794 C   0  0  0  0  0  0  0  0  0  0  0  0
  -19.3302  -31.6991   21.2421 C   0  0  0  0  0  0  0  0  0  0  0  0
  -23.7197  -32.5530   16.0580 C   0  0  0  0  0  0  0  0  0  0  0  0
  -28.7877  -22.6013   20.7326 C   0  0  0  0  0  0  0  0  0  0  0  0
  -28.0314  -25.0689   19.1904 C   0  0  0  0  0  0  0  0  0  1  0  0
  -29.9809  -21.7431   21.1745 C   0  0  2  0  0  0  0  0  0  0  0  0
  -21.2422  -30.6673   19.9491 C   0  0  1  0  0  0  0  0  0  0  0  0
  -21.2867  -32.4752   16.6176 C   0  0  2  0  0  0  0  0  0  0  0  0
  -27.7499  -23.6044   18.8780 C   0  0  2  0  0  0  0  0  0  0  0  0
  -19.9001  -30.3788   20.6792 C   0  0  0  0  0  0  0  0  0  0  0  0
  -26.1672  -11.8098   21.0957 N   0  0  0  0  0  0  0  0  0  0  0  0
  -30.3644  -18.2064   19.8374 N   0  0  0  0  0  0  0  0  0  0  0  0
  -25.9838  -12.3837   19.8944 N   0  0  0  0  0  0  0  0  0  0  0  0
  -23.4721  -30.4429   20.9985 N   0  0  0  0  0  0  0  0  0  0  0  0
  -29.3817  -14.0465   19.3720 N   0  0  0  0  0  0  0  0  0  0  0  0
  -24.3256  -12.9167   18.2891 N   0  0  0  0  0  0  0  0  0  0  0  0
  -21.9837  -10.8777   21.5686 N   0  0  0  0  0  0  0  0  0  0  0  0
  -29.1257  -16.2182   20.2556 N   0  0  0  0  0  0  0  0  0  0  0  0
  -24.9497  -30.2078   24.3238 N   0  0  0  0  0  0  0  0  0  0  0  0
  -21.1339  -31.6290   18.8574 N   0  0  0  0  0  0  0  0  0  0  0  0
  -22.3263  -32.4689   15.5498 N   0  3  0  0  0  0  0  0  0  0  0  0
  -21.8242  -11.8696   19.5071 O   0  0  0  0  0  0  0  0  0  0  0  0
  -23.2601  -29.1015   23.1645 O   0  0  0  0  0  0  0  0  0  0  0  0
  -22.0988  -32.2647   21.4792 O   0  0  0  0  0  0  0  0  0  0  0  0
  -21.9380  -30.2223   17.1986 O   0  0  0  0  0  0  0  0  0  0  0  0
  -30.8243  -15.7420   18.7491 O   0  0  0  0  0  0  0  0  0  0  0  0
  -24.0606   -8.8359   26.3175 O   0  0  0  0  0  0  0  0  0  0  0  0
  -26.9270  -25.8556   18.7459 O   0  0  0  0  0  0  0  0  0  1  0  0
  -28.8447  -22.8088   19.3299 O   0  0  0  0  0  0  0  0  0  0  0  0
  -20.7878   -4.3983   26.3105 F   0  0  0  0  0  0  0  0  0  0  0  0
  -25.0093   -6.3726   27.1388 F   0  0  0  0  0  0  0  0  0  0  0  0
  1  2  1  0  0  0  0
  1  5  2  0  0  0  0
  2  6  2  0  0  0  0
  3  8  2  0  0  0  0
  3 16  1  0  0  0  0
  4  9  1  0  0  0  0
  4 16  2  0  0  0  0
  5 18  1  0  0  0  0
  6 20  1  0  0  0  0
  7 10  2  0  0  0  0
  7 19  1  0  0  0  0
  8 24  1  0  0  0  0
  9 24  2  0  0  0  0
 10 25  1  0  0  0  0
 11 12  2  0  0  0  0
 11 26  1  0  0  0  0
 12 27  1  0  0  0  0
 13 21  1  0  0  0  0
 13 25  2  0  0  0  0
 14 22  2  0  0  0  0
 14 31  1  0  0  0  0
 15 27  2  0  0  0  0
 15 28  1  0  0  0  0
 16 29  1  0  0  0  0
 17 29  1  0  0  0  0
 17 32  2  0  0  0  0
 17 33  1  0  0  0  0
 18 20  2  0  0  0  0
 18 38  1  0  0  0  0
 19 21  2  0  0  0  0
 19 39  1  0  0  0  0
 20 47  1  0  0  0  0
 21 40  1  0  0  0  0
 22 23  1  0  0  0  0
 22 50  1  0  0  0  0
 23 30  2  0  0  0  0
 23 61  1  0  0  0  0
 24 82  1  0  0  0  0
 25 83  1  0  0  0  0
 26 28  2  0  0  0  0
 26 82  1  0  0  0  0
 27 85  1  0  0  0  0
 28 86  1  0  0  0  0
 29 66  2  0  0  0  0
 30 51  1  0  0  0  0
 30 67  1  0  0  0  0
 31 67  2  0  0  0  0
 31 73  1  0  0  0  0
 32 68  1  0  0  0  0
 32 71  1  0  0  0  0
 33 72  1  0  0  0  0
 33 77  2  0  0  0  0
 34 48  1  0  0  0  0
 34 74  1  0  0  0  0
 34 78  2  0  0  0  0
 35 62  1  0  0  0  0
 35 69  1  0  0  0  0
 35 79  2  0  0  0  0
 36 63  1  0  0  0  0
 36 75  1  0  0  0  0
 36 80  2  0  0  0  0
 37 70  1  0  0  0  0
 37 73  1  0  0  0  0
 37 81  2  0  0  0  0
 38 41  1  0  0  0  0
 39 48  1  0  0  0  0
 40 69  1  0  0  0  0
 41 43  1  0  0  0  0
 42 44  1  0  0  0  0
 42 45  1  0  0  0  0
 43 47  1  0  0  0  0
 44 49  1  0  0  0  0
 45 70  1  0  0  0  0
 46 49  1  0  0  0  0
 46 70  1  0  0  0  0
 47 74  1  0  0  0  0
 48 69  1  0  0  0  0
 49 68  1  0  0  0  0
 52 61  1  0  0  0  0
 53 63  1  0  0  0  0
 54 64  1  0  0  0  0
 55 65  1  0  0  0  0
 56 65  1  0  0  0  0
 57 65  1  0  0  0  0
 58 76  1  0  0  0  0
 59 61  1  0  0  0  0
 59 84  1  0  0  0  0
 60 64  1  0  0  0  0
 60 83  1  0  0  0  0
 62 65  1  0  0  0  0
 62 75  1  0  0  0  0
 63 76  1  0  0  0  0
 64 84  1  0  0  0  0
 66 68  1  0  0  0  0
M  CHG  1  76   1
M  ISO  4  37 100  60 101  73 100  83 101
M  END
> <Batch ID>
0145

> <Smiles>
CNC(C)C(=O)NC(C(=O)N1Cc2cc([101O:1][101CH2:1]C(C)OCC(C)c3c(C)cc([100NH:0][100C:0](=O)N4CCCC(n5nc(-c6ccc(Oc7ccc(F)cc7F)cc6)c(C(N)=O)c5N)C4)nc3C)ccc2CC1C(=O)NC1CCCc2ccccc21)C(C)(C)C

> <Shape>
0.257

> <Color>
0.118

> <Negative vol penalty>
0.000

$$$$

  -OEChem-04052321283D

 84 93  0     1  0  0  0  0  0999 V2000
  -31.1553  -27.7218   23.2363 C   0  0  0  0  0  0  0  0  0  0  0  0
  -29.9487  -27.5902   22.5566 C   0  0  0  0  0  0  0  0  0  0  0  0
  -24.2730  -32.0185   23.4961 C   0  0  0  0  0  0  0  0  0  0  0  0
  -25.6364  -30.6306   24.9286 C   0  0  0  0  0  0  0  0  0  0  0  0
  -32.2153  -26.8642   22.9451 C   0  0  0  0  0  0  0  0  0  0  0  0
  -29.8017  -26.6014   21.5844 C   0  0  0  0  0  0  0  0  0  0  0  0
  -24.7238  -23.4281   20.2993 C   0  0  0  0  0  0  0  0  0  0  0  0
  -24.5695  -33.1275   24.2883 C   0  0  0  0  0  0  0  0  0  0  0  0
  -25.9329  -31.7397   25.7208 C   0  0  0  0  0  0  0  0  0  0  0  0
  -23.7507  -23.5750   19.3117 C   0  0  0  0  0  0  0  0  0  0  0  0
  -27.1405  -35.2868   24.6890 C   0  0  0  0  0  0  0  0  0  0  0  0
  -27.4842  -36.4732   24.0410 C   0  0  0  0  0  0  0  0  0  0  0  0
  -24.8952  -21.9454   17.9501 C   0  0  0  0  0  0  0  0  0  0  0  0
  -18.5177  -21.7855   19.3535 C   0  0  0  0  0  0  0  0  0  0  0  0
  -19.5939  -22.9732   17.5458 C   0  0  0  0  0  0  0  0  0  0  0  0
  -25.6044  -37.5832   25.0761 C   0  0  0  0  0  0  0  0  0  0  0  0
  -24.8064  -30.7700   23.8162 C   0  0  0  0  0  0  0  0  0  0  0  0
  -25.2142  -29.1657   21.8752 C   0  0  0  0  0  0  0  0  0  0  0  0
  -32.0781  -25.8582   21.9756 C   0  0  0  0  0  0  0  0  0  0  0  0
  -25.7977  -22.5454   20.1147 C   0  0  0  0  0  0  0  0  0  0  0  0
  -30.8612  -25.7304   21.2790 C   0  0  0  0  0  0  0  0  0  0  0  0
  -25.8793  -21.7873   18.9379 C   0  0  0  0  0  0  0  0  0  0  0  0
  -20.0064  -20.6129   17.8550 C   0  0  0  0  0  0  0  0  0  0  0  0
  -18.7389  -22.9682   18.6479 C   0  0  0  0  0  0  0  0  0  0  0  0
  -19.1514  -20.6078   18.9571 C   0  0  0  0  0  0  0  0  0  0  0  0
  -20.2277  -21.7955   17.1494 C   0  0  0  0  0  0  0  0  0  0  0  0
  -25.3995  -32.9882   25.4007 C   0  0  0  0  0  0  0  0  0  0  0  0
  -23.8379  -22.8357   18.1357 C   0  0  0  0  0  0  0  0  0  0  0  0
  -26.0287  -35.2486   25.5306 C   0  0  0  0  0  0  0  0  0  0  0  0
  -26.7162  -37.6214   24.2345 C   0  0  0  0  0  0  0  0  0  0  0  0
  -25.2607  -36.3968   25.7241 C   0  0  0  0  0  0  0  0  0  0  0  0
  -24.5000  -29.6239   22.9985 C   0  0  0  0  0  0  0  0  0  0  0  0
  -24.5226  -28.0546   21.4584 C   0  0  0  0  0  0  0  0  0  0  0  0
  -26.3970  -29.6968   21.2633 C   0  0  0  0  0  0  0  0  0  0  0  0
  -28.9561  -22.8600   19.9433 C   0  0  0  0  0  0  0  0  0  0  0  0
  -28.8849  -19.6176   19.8797 C   0  0  0  0  0  0  0  0  0  0  0  0
  -27.1331  -16.7711   19.1899 C   0  0  0  0  0  0  0  0  0  0  0  0
  -19.7005  -25.7185   20.1771 C   0  0  0  0  0  0  0  0  0  0  0  0
  -33.2673  -24.9854   21.6618 C   0  0  0  0  0  0  0  0  0  0  0  0
  -26.8247  -22.3786   21.2009 C   0  0  0  0  0  0  0  0  0  0  0  0
  -27.0012  -20.8111   18.6996 C   0  0  0  0  0  0  0  0  0  0  0  0
  -32.9076  -23.7229   20.8828 C   0  0  0  0  0  0  0  0  0  0  0  0
  -20.8330  -25.4328   23.6769 C   0  0  0  0  0  0  0  0  0  0  0  0
  -20.5141  -18.8733   16.0138 C   0  0  0  0  0  0  0  0  0  0  0  0
  -19.8484  -18.1364   17.1337 C   0  0  0  0  0  0  0  0  0  0  0  0
  -31.9725  -24.0581   19.7252 C   0  0  0  0  0  0  0  0  0  0  0  0
  -21.9158  -26.5069   23.7235 C   0  0  0  0  0  0  0  0  0  0  0  0
  -19.6866  -25.8144   22.7414 C   0  0  0  0  0  0  0  0  0  0  0  0
  -21.2189  -27.2355   21.4086 C   0  0  0  0  0  0  0  0  0  0  0  0
  -20.6859  -19.3501   17.4300 C   0  0  0  0  0  0  0  0  0  0  0  0
  -30.6550  -24.6543   20.2352 C   0  0  1  0  0  0  0  0  0  0  0  0
  -28.1532  -21.8313   20.6882 C   0  0  1  0  0  0  0  0  0  0  0  0
  -22.4034  -26.8474   22.3069 C   0  0  1  0  0  0  0  0  0  0  0  0
  -18.8963  -19.3558   19.7311 C   0  0  0  0  0  0  0  0  0  0  0  0
  -27.3527  -14.2713   19.2020 C   0  0  0  0  0  0  0  0  0  0  0  0
  -30.5644  -19.7553   17.3361 C   0  0  0  0  0  0  0  0  0  0  0  0
  -29.9521  -17.3698   16.8859 C   0  0  0  0  0  0  0  0  0  0  0  0
  -31.2425  -17.9585   18.9379 C   0  0  0  0  0  0  0  0  0  0  0  0
  -24.9367  -16.4716   21.1508 C   0  0  0  0  0  0  0  0  0  0  0  0
  -21.1476  -21.8302   15.9532 C   0  0  0  0  0  0  0  0  0  0  0  0
  -18.0614  -24.2273   19.0718 C   0  0  0  0  0  0  0  0  0  0  0  0
  -22.6189  -21.8391   16.3533 C   0  0  0  0  0  0  0  0  0  1  0  0
  -28.7938  -18.5713   18.7953 C   0  0  1  0  0  0  0  0  0  0  0  0
  -26.9232  -15.4986   19.9906 C   0  0  2  0  0  0  0  0  0  0  0  0
  -30.1180  -18.4335   17.9922 C   0  0  0  0  0  0  0  0  0  0  0  0
  -23.4362  -28.8659   23.2775 N   0  0  0  0  0  0  0  0  0  0  0  0
  -23.4768  -27.9203   22.3235 N   0  0  0  0  0  0  0  0  0  0  0  0
  -27.9842  -20.6882   19.7887 N   0  0  0  0  0  0  0  0  0  0  0  0
  -20.1799  -26.1983   21.4094 N   0  0  0  0  0  0  0  0  0  0  0  0
  -24.7131  -27.1893   20.4399 N   0  0  0  0  0  0  0  0  0  0  0  0
  -26.9794  -30.8440   21.8193 N   0  0  0  0  0  0  0  0  0  0  0  0
  -29.7927  -23.6108   20.7470 N   0  0  0  0  0  0  0  0  0  0  0  0
  -28.3613  -17.3414   19.4500 N   0  0  0  0  0  0  0  0  0  0  0  0
  -18.6587  -24.8006   20.2482 N   0  0  0  0  0  0  0  0  0  0  0  0
  -25.4856  -15.3455   20.3523 N   0  3  0  0  0  0  0  0  0  0  0  0
  -26.9126  -29.1793   20.2436 O   0  0  0  0  0  0  0  0  0  0  0  0
  -28.8272  -22.9638   18.7291 O   0  0  0  0  0  0  0  0  0  0  0  0
  -29.7194  -19.4860   20.7785 O   0  0  0  0  0  0  0  0  0  0  0  0
  -26.2933  -17.2129   18.4089 O   0  0  0  0  0  0  0  0  0  0  0  0
  -20.1621  -26.0845   19.0905 O   0  0  0  0  0  0  0  0  0  0  0  0
  -25.6892  -34.0702   26.1739 O   0  0  0  0  0  0  0  0  0  0  0  0
  -22.8897  -22.9776   17.1699 O   0  0  0  0  0  0  0  0  0  1  0  0
  -27.0473  -38.7609   23.6133 F   0  0  0  0  0  0  0  0  0  0  0  0
  -24.1922  -36.3665   26.5323 F   0  0  0  0  0  0  0  0  0  0  0  0
  1  2  1  0  0  0  0
  1  5  2  0  0  0  0
  2  6  2  0  0  0  0
  3  8  2  0  0  0  0
  3 17  1  0  0  0  0
  4  9  1  0  0  0  0
  4 17  2  0  0  0  0
  5 19  1  0  0  0  0
  6 21  1  0  0  0  0
  7 10  2  0  0  0  0
  7 20  1  0  0  0  0
  8 27  1  0  0  0  0
  9 27  2  0  0  0  0
 10 28  1  0  0  0  0
 11 12  2  0  0  0  0
 11 29  1  0  0  0  0
 12 30  1  0  0  0  0
 13 22  1  0  0  0  0
 13 28  2  0  0  0  0
 14 24  1  0  0  0  0
 14 25  2  0  0  0  0
 15 24  2  0  0  0  0
 15 26  1  0  0  0  0
 16 30  2  0  0  0  0
 16 31  1  0  0  0  0
 17 32  1  0  0  0  0
 18 32  1  0  0  0  0
 18 33  2  0  0  0  0
 18 34  1  0  0  0  0
 19 21  2  0  0  0  0
 19 39  1  0  0  0  0
 20 22  2  0  0  0  0
 20 40  1  0  0  0  0
 21 51  1  0  0  0  0
 22 41  1  0  0  0  0
 23 25  1  0  0  0  0
 23 26  2  0  0  0  0
 23 50  1  0  0  0  0
 24 61  1  0  0  0  0
 25 54  1  0  0  0  0
 26 60  1  0  0  0  0
 27 81  1  0  0  0  0
 28 82  1  0  0  0  0
 29 31  2  0  0  0  0
 29 81  1  0  0  0  0
 30 83  1  0  0  0  0
 31 84  1  0  0  0  0
 32 66  2  0  0  0  0
 33 67  1  0  0  0  0
 33 70  1  0  0  0  0
 34 71  1  0  0  0  0
 34 76  2  0  0  0  0
 35 52  1  0  0  0  0
 35 72  1  0  0  0  0
 35 77  2  0  0  0  0
 36 63  1  0  0  0  0
 36 68  1  0  0  0  0
 36 78  2  0  0  0  0
 37 64  1  0  0  0  0
 37 73  1  0  0  0  0
 37 79  2  0  0  0  0
 38 69  1  0  0  0  0
 38 74  1  0  0  0  0
 38 80  2  0  0  0  0
 39 42  1  0  0  0  0
 40 52  1  0  0  0  0
 41 68  1  0  0  0  0
 42 46  1  0  0  0  0
 43 47  1  0  0  0  0
 43 48  1  0  0  0  0
 44 45  1  0  0  0  0
 44 50  1  0  0  0  0
 45 50  1  0  0  0  0
 46 51  1  0  0  0  0
 47 53  1  0  0  0  0
 48 69  1  0  0  0  0
 49 53  1  0  0  0  0
 49 69  1  0  0  0  0
 51 72  1  0  0  0  0
 52 68  1  0  0  0  0
 53 67  1  0  0  0  0
 55 64  1  0  0  0  0
 56 65  1  0  0  0  0
 57 65  1  0  0  0  0
 58 65  1  0  0  0  0
 59 75  1  0  0  0  0
 60 62  1  0  0  0  0
 61 74  1  0  0  0  0
 62 82  1  0  0  0  0
 63 65  1  0  0  0  0
 63 73  1  0  0  0  0
 64 75  1  0  0  0  0
 66 67  1  0  0  0  0
M  CHG  1  75   1
M  ISO  4  38 100  62 101  74 100  82 101
M  END
> <Batch ID>
0145

> <Smiles>
CNC(C)C(=O)NC(C(=O)N1Cc2cc([101O:1][101CH2:1]Cc3cc(C[100NH:0][100C:0](=O)N4CCCC(n5nc(-c6ccc(Oc7ccc(F)cc7F)cc6)c(C(N)=O)c5N)C4)cc(C)c3C3CC3)ccc2CC1C(=O)NC1CCCc2ccccc21)C(C)(C)C

> <Shape>
0.226

> <Color>
0.062

> <Negative vol penalty>
0.000

$$$$

  -OEChem-04052321283D

 87 96  0     1  0  0  0  0  0999 V2000
  -31.4711  -24.9080   18.1353 C   0  0  0  0  0  0  0  0  0  0  0  0
  -30.6630  -24.3597   19.1262 C   0  0  0  0  0  0  0  0  0  0  0  0
  -27.8882  -16.6942   18.8588 C   0  0  0  0  0  0  0  0  0  0  0  0
  -28.6517  -16.4602   21.1390 C   0  0  0  0  0  0  0  0  0  0  0  0
  -31.4806  -26.2868   17.9288 C   0  0  0  0  0  0  0  0  0  0  0  0
  -29.8646  -25.1902   19.9119 C   0  0  0  0  0  0  0  0  0  0  0  0
  -25.1667  -23.3898   20.4892 C   0  0  0  0  0  0  0  0  0  0  0  0
  -28.7809  -17.7488   18.6680 C   0  0  0  0  0  0  0  0  0  0  0  0
  -29.5445  -17.5148   20.9482 C   0  0  0  0  0  0  0  0  0  0  0  0
  -24.9887  -22.3589   21.4108 C   0  0  0  0  0  0  0  0  0  0  0  0
  -31.7698  -20.3797   21.1727 C   0  0  0  0  0  0  0  0  0  0  0  0
  -31.8506  -21.3495   22.1719 C   0  0  0  0  0  0  0  0  0  0  0  0
  -24.1792  -23.9538   23.0295 C   0  0  0  0  0  0  0  0  0  0  0  0
  -25.2469  -18.1883   27.0431 C   0  0  0  0  0  0  0  0  0  0  0  0
  -23.0585  -17.5317   26.2575 C   0  0  0  0  0  0  0  0  0  0  0  0
  -29.5103  -21.8635   21.8623 C   0  0  0  0  0  0  0  0  0  0  0  0
  -27.8235  -16.0499   20.0943 C   0  0  0  0  0  0  0  0  0  0  0  0
  -27.1424  -13.5916   20.0711 C   0  0  0  0  0  0  0  0  0  0  0  0
  -30.6746  -27.1337   18.7059 C   0  0  0  0  0  0  0  0  0  0  0  0
  -24.8621  -24.7142   20.8351 C   0  0  0  0  0  0  0  0  0  0  0  0
  -29.8643  -26.5818   19.7164 C   0  0  0  0  0  0  0  0  0  0  0  0
  -24.3518  -24.9994   22.1096 C   0  0  0  0  0  0  0  0  0  0  0  0
  -25.2598  -17.1007   27.9163 C   0  0  0  0  0  0  0  0  0  0  0  0
  -23.0714  -16.4440   27.1307 C   0  0  0  0  0  0  0  0  0  0  0  0
  -29.6091  -18.1591   19.7127 C   0  0  0  0  0  0  0  0  0  0  0  0
  -24.4977  -22.6412   22.6821 C   0  0  0  0  0  0  0  0  0  0  0  0
  -30.5593  -20.1518   20.5182 C   0  0  0  0  0  0  0  0  0  0  0  0
  -24.1462  -18.4039   26.2137 C   0  0  0  0  0  0  0  0  0  0  0  0
  -24.1721  -16.2285   27.9600 C   0  0  0  0  0  0  0  0  0  0  0  0
  -30.7209  -22.0914   22.5167 C   0  0  0  0  0  0  0  0  0  0  0  0
  -29.4295  -20.8936   20.8630 C   0  0  0  0  0  0  0  0  0  0  0  0
  -26.9011  -14.9608   20.2921 C   0  0  0  0  0  0  0  0  0  0  0  0
  -25.9606  -12.9765   20.4046 C   0  0  0  0  0  0  0  0  0  0  0  0
  -28.3288  -12.9346   19.6059 C   0  0  0  0  0  0  0  0  0  0  0  0
  -26.5284  -27.4107   21.0720 C   0  0  0  0  0  0  0  0  0  0  0  0
  -23.6040  -28.7144   21.5922 C   0  0  0  0  0  0  0  0  0  0  0  0
  -20.3779  -28.2779   22.6161 C   0  0  0  0  0  0  0  0  0  0  0  0
  -21.4495  -14.5063   24.0324 C   0  0  0  0  0  0  0  0  0  0  0  0
  -30.7541  -28.6223   18.4773 C   0  0  0  0  0  0  0  0  0  0  0  0
  -25.0345  -25.8112   19.8206 C   0  0  0  0  0  0  0  0  0  0  0  0
  -23.9904  -26.4017   22.5236 C   0  0  0  0  0  0  0  0  0  0  0  0
  -29.5970  -29.3972   19.1025 C   0  0  0  0  0  0  0  0  0  0  0  0
  -21.2434  -13.7614   20.5569 C   0  0  0  0  0  0  0  0  0  0  0  0
  -27.8105  -16.7775   28.1677 C   0  0  0  0  0  0  0  0  0  0  0  0
  -27.1608  -15.5608   28.7489 C   0  0  0  0  0  0  0  0  0  0  0  0
  -29.3538  -28.9305   20.5343 C   0  0  0  0  0  0  0  0  0  0  0  0
  -22.6918  -13.8608   20.0750 C   0  0  0  0  0  0  0  0  0  0  0  0
  -20.9323  -14.8042   21.6282 C   0  0  0  0  0  0  0  0  0  0  0  0
  -23.3020  -14.9022   22.2980 C   0  0  0  0  0  0  0  0  0  0  0  0
  -26.4464  -16.8853   28.7957 C   0  0  0  0  0  0  0  0  0  0  0  0
  -28.9656  -27.4475   20.5727 C   0  0  1  0  0  0  0  0  0  0  0  0
  -25.1770  -27.1924   20.4525 C   0  0  1  0  0  0  0  0  0  0  0  0
  -23.6792  -13.8341   21.2572 C   0  0  2  0  0  0  0  0  0  0  0  0
  -18.2350  -29.5360   22.9665 C   0  0  0  0  0  0  0  0  0  0  0  0
  -24.7401  -29.9326   24.1486 C   0  0  0  0  0  0  0  0  0  0  0  0
  -22.3920  -30.3498   24.9105 C   0  0  0  0  0  0  0  0  0  0  0  0
  -23.2452  -31.4540   22.8428 C   0  0  0  0  0  0  0  0  0  0  0  0
  -18.9392  -26.6082   20.6409 C   0  0  0  0  0  0  0  0  0  0  0  0
  -23.6497  -15.3768   30.1182 C   0  0  0  0  0  0  0  0  0  0  0  0
  -21.8973  -15.5218   27.1633 C   0  0  0  0  0  0  0  0  0  0  0  0
  -22.1263  -14.2117   26.4019 C   0  0  0  0  0  0  0  0  0  0  0  0
  -25.2010  -20.5159   23.4849 C   0  0  0  0  0  0  0  0  0  1  0  0
  -25.3924  -19.9136   24.8633 C   0  0  0  0  0  0  0  0  0  0  0  0
  -22.7509  -28.9748   22.8101 C   0  0  1  0  0  0  0  0  0  0  0  0
  -19.0584  -28.7024   21.9970 C   0  0  2  0  0  0  0  0  0  0  0  0
  -23.2906  -30.1515   23.6711 C   0  0  0  0  0  0  0  0  0  0  0  0
  -25.6632  -15.2018   20.7319 N   0  0  0  0  0  0  0  0  0  0  0  0
  -25.1160  -13.9757   20.7898 N   0  0  0  0  0  0  0  0  0  0  0  0
  -24.1827  -27.4407   21.4984 N   0  0  0  0  0  0  0  0  0  0  0  0
  -21.9041  -14.7249   22.7215 N   0  0  0  0  0  0  0  0  0  0  0  0
  -25.5717  -11.6837   20.4029 N   0  0  0  0  0  0  0  0  0  0  0  0
  -29.4531  -13.7170   19.3089 N   0  0  0  0  0  0  0  0  0  0  0  0
  -27.5812  -27.2773   20.1870 N   0  0  0  0  0  0  0  0  0  0  0  0
  -21.3897  -29.1671   22.3215 N   0  0  0  0  0  0  0  0  0  0  0  0
  -22.4367  -14.4381   25.0079 N   0  0  0  0  0  0  0  0  0  0  0  0
  -18.2591  -27.5056   21.6099 N   0  3  0  0  0  0  0  0  0  0  0  0
  -28.3849  -11.6922   19.4423 O   0  0  0  0  0  0  0  0  0  0  0  0
  -26.6098  -27.6815   22.2644 O   0  0  0  0  0  0  0  0  0  0  0  0
  -23.7457  -29.6057   20.7513 O   0  0  0  0  0  0  0  0  0  0  0  0
  -20.4980  -27.2613   23.2963 O   0  0  0  0  0  0  0  0  0  0  0  0
  -20.2530  -14.3759   24.3120 O   0  0  0  0  0  0  0  0  0  0  0  0
  -30.4805  -19.1880   19.5269 O   0  0  0  0  0  0  0  0  0  0  0  0
  -24.1829  -15.1643   28.8134 O   0  0  0  0  0  0  0  0  0  0  0  0
  -24.3236  -21.6369   23.5838 O   0  0  0  0  0  0  0  0  0  1  0  0
  -24.1332  -19.4726   25.3566 O   0  0  0  0  0  0  0  0  0  0  0  0
  -30.7982  -23.0216   23.4774 F   0  0  0  0  0  0  0  0  0  0  0  0
  -28.2635  -20.6784   20.2386 F   0  0  0  0  0  0  0  0  0  0  0  0
  1  2  1  0  0  0  0
  1  5  2  0  0  0  0
  2  6  2  0  0  0  0
  3  8  2  0  0  0  0
  3 17  1  0  0  0  0
  4  9  1  0  0  0  0
  4 17  2  0  0  0  0
  5 19  1  0  0  0  0
  6 21  1  0  0  0  0
  7 10  2  0  0  0  0
  7 20  1  0  0  0  0
  8 25  1  0  0  0  0
  9 25  2  0  0  0  0
 10 26  1  0  0  0  0
 11 12  2  0  0  0  0
 11 27  1  0  0  0  0
 12 30  1  0  0  0  0
 13 22  1  0  0  0  0
 13 26  2  0  0  0  0
 14 23  1  0  0  0  0
 14 28  2  0  0  0  0
 15 24  2  0  0  0  0
 15 28  1  0  0  0  0
 16 30  2  0  0  0  0
 16 31  1  0  0  0  0
 17 32  1  0  0  0  0
 18 32  1  0  0  0  0
 18 33  2  0  0  0  0
 18 34  1  0  0  0  0
 19 21  2  0  0  0  0
 19 39  1  0  0  0  0
 20 22  2  0  0  0  0
 20 40  1  0  0  0  0
 21 51  1  0  0  0  0
 22 41  1  0  0  0  0
 23 29  2  0  0  0  0
 23 50  1  0  0  0  0
 24 29  1  0  0  0  0
 24 60  1  0  0  0  0
 25 82  1  0  0  0  0
 26 84  1  0  0  0  0
 27 31  2  0  0  0  0
 27 82  1  0  0  0  0
 28 85  1  0  0  0  0
 29 83  1  0  0  0  0
 30 86  1  0  0  0  0
 31 87  1  0  0  0  0
 32 67  2  0  0  0  0
 33 68  1  0  0  0  0
 33 71  1  0  0  0  0
 34 72  1  0  0  0  0
 34 77  2  0  0  0  0
 35 52  1  0  0  0  0
 35 73  1  0  0  0  0
 35 78  2  0  0  0  0
 36 64  1  0  0  0  0
 36 69  1  0  0  0  0
 36 79  2  0  0  0  0
 37 65  1  0  0  0  0
 37 74  1  0  0  0  0
 37 80  2  0  0  0  0
 38 70  1  0  0  0  0
 38 75  1  0  0  0  0
 38 81  2  0  0  0  0
 39 42  1  0  0  0  0
 40 52  1  0  0  0  0
 41 69  1  0  0  0  0
 42 46  1  0  0  0  0
 43 47  1  0  0  0  0
 43 48  1  0  0  0  0
 44 45  1  0  0  0  0
 44 50  1  0  0  0  0
 45 50  1  0  0  0  0
 46 51  1  0  0  0  0
 47 53  1  0  0  0  0
 48 70  1  0  0  0  0
 49 53  1  0  0  0  0
 49 70  1  0  0  0  0
 51 73  1  0  0  0  0
 52 69  1  0  0  0  0
 53 68  1  0  0  0  0
 54 65  1  0  0  0  0
 55 66  1  0  0  0  0
 56 66  1  0  0  0  0
 57 66  1  0  0  0  0
 58 76  1  0  0  0  0
 59 83  1  0  0  0  0
 60 61  1  0  0  0  0
 61 75  1  0  0  0  0
 62 63  1  0  0  0  0
 62 84  1  0  0  0  0
 63 85  1  0  0  0  0
 64 66  1  0  0  0  0
 64 74  1  0  0  0  0
 65 76  1  0  0  0  0
 67 68  1  0  0  0  0
M  CHG  1  76   1
M  ISO  4  38 100  62 101  75 100  84 101
M  END
> <Batch ID>
0145

> <Smiles>
CNC(C)C(=O)NC(C(=O)N1Cc2cc([101O:1][101CH2:1]COc3cc(CC[100NH:0][100C:0](=O)N4CCCC(n5nc(-c6ccc(Oc7ccc(F)cc7F)cc6)c(C(N)=O)c5N)C4)c(OC)c(C4CC4)c3)ccc2CC1C(=O)NC1CCCc2ccccc21)C(C)(C)C

> <Shape>
0.245

> <Color>
0.054

> <Negative vol penalty>
0.000

$$$$

  -OEChem-04052321283D

 84 92  0     1  0  0  0  0  0999 V2000
  -32.1176  -14.4095   21.6474 C   0  0  0  0  0  0  0  0  0  0  0  0
  -31.2168  -15.4601   21.7896 C   0  0  0  0  0  0  0  0  0  0  0  0
  -28.5432  -28.3333   21.0098 C   0  0  0  0  0  0  0  0  0  0  0  0
  -27.1367  -27.2593   19.3650 C   0  0  0  0  0  0  0  0  0  0  0  0
  -31.7314  -13.2470   20.9814 C   0  0  0  0  0  0  0  0  0  0  0  0
  -29.9296  -15.3493   21.2649 C   0  0  0  0  0  0  0  0  0  0  0  0
  -24.7792  -17.6752   23.6247 C   0  0  0  0  0  0  0  0  0  0  0  0
  -29.6105  -27.5206   20.6278 C   0  0  0  0  0  0  0  0  0  0  0  0
  -28.2041  -26.4467   18.9829 C   0  0  0  0  0  0  0  0  0  0  0  0
  -24.0532  -18.8300   23.3363 C   0  0  0  0  0  0  0  0  0  0  0  0
  -29.7546  -23.6688   20.1276 C   0  0  0  0  0  0  0  0  0  0  0  0
  -29.5024  -22.3085   19.9505 C   0  0  0  0  0  0  0  0  0  0  0  0
  -22.6005  -17.5499   21.8975 C   0  0  0  0  0  0  0  0  0  0  0  0
  -21.3942  -24.3760   21.3257 C   0  0  0  0  0  0  0  0  0  0  0  0
  -30.2044  -22.4785   17.6450 C   0  0  0  0  0  0  0  0  0  0  0  0
  -27.3062  -28.2026   20.3785 C   0  0  0  0  0  0  0  0  0  0  0  0
  -25.8606  -30.3001   20.2439 C   0  0  0  0  0  0  0  0  0  0  0  0
  -30.4358  -13.1181   20.4567 C   0  0  0  0  0  0  0  0  0  0  0  0
  -24.4274  -16.4491   23.0422 C   0  0  0  0  0  0  0  0  0  0  0  0
  -29.5262  -14.1846   20.5900 C   0  0  0  0  0  0  0  0  0  0  0  0
  -23.3221  -16.3806   22.1822 C   0  0  0  0  0  0  0  0  0  0  0  0
  -22.2540  -23.3502   21.7183 C   0  0  0  0  0  0  0  0  0  0  0  0
  -20.0314  -24.2913   21.6108 C   0  0  0  0  0  0  0  0  0  0  0  0
  -19.5284  -23.1808   22.2885 C   0  0  0  0  0  0  0  0  0  0  0  0
  -20.3881  -22.1549   22.6811 C   0  0  0  0  0  0  0  0  0  0  0  0
  -21.7509  -22.2396   22.3959 C   0  0  0  0  0  0  0  0  0  0  0  0
  -29.4410  -26.5774   19.6143 C   0  0  0  0  0  0  0  0  0  0  0  0
  -22.9654  -18.7680   22.4703 C   0  0  0  0  0  0  0  0  0  0  0  0
  -30.2317  -24.4341   19.0634 C   0  0  0  0  0  0  0  0  0  0  0  0
  -29.7273  -21.7133   18.7092 C   0  0  0  0  0  0  0  0  0  0  0  0
  -30.4566  -23.8389   17.8221 C   0  0  0  0  0  0  0  0  0  0  0  0
  -26.2032  -29.0414   20.7731 C   0  0  0  0  0  0  0  0  0  0  0  0
  -24.7448  -30.6775   20.9504 C   0  0  0  0  0  0  0  0  0  0  0  0
  -26.4942  -31.0602   19.2064 C   0  0  0  0  0  0  0  0  0  0  0  0
  -25.8717  -14.3952   21.0931 C   0  0  0  0  0  0  0  0  0  0  0  0
  -23.2413  -12.5899   21.6795 C   0  0  0  0  0  0  0  0  0  0  0  0
  -19.9621  -12.4665   22.6169 C   0  0  0  0  0  0  0  0  0  0  0  0
  -20.5232  -27.5862   23.8613 C   0  0  0  0  0  0  0  0  0  0  0  0
  -30.0794  -11.8610   19.7034 C   0  0  0  0  0  0  0  0  0  0  0  0
  -25.2044  -15.2076   23.3846 C   0  0  0  0  0  0  0  0  0  0  0  0
  -22.8909  -15.0849   21.5467 C   0  0  0  0  0  0  0  0  0  0  0  0
  -28.5773  -11.6756   19.5040 C   0  0  0  0  0  0  0  0  0  0  0  0
  -22.6409  -30.1107   25.2099 C   0  0  0  0  0  0  0  0  0  0  0  0
  -27.9385  -12.9741   19.0217 C   0  0  0  0  0  0  0  0  0  0  0  0
  -23.7631  -30.2365   24.1780 C   0  0  0  0  0  0  0  0  0  0  0  0
  -22.1730  -28.6650   25.3615 C   0  0  0  0  0  0  0  0  0  0  0  0
  -22.9051  -28.1308   23.0696 C   0  0  0  0  0  0  0  0  0  0  0  0
  -28.1132  -14.0924   20.0563 C   0  0  1  0  0  0  0  0  0  0  0  0
  -25.0716  -14.1106   22.3327 C   0  0  1  0  0  0  0  0  0  0  0  0
  -23.3718  -29.5786   22.8411 C   0  0  2  0  0  0  0  0  0  0  0  0
  -23.7089  -23.4653   21.4001 C   0  0  0  0  0  0  0  0  0  0  0  0
  -18.0662  -23.0922   22.5923 C   0  0  0  0  0  0  0  0  0  0  0  0
  -19.8486  -20.9639   23.4085 C   0  0  0  0  0  0  0  0  0  0  0  0
  -18.0726  -10.8526   22.9663 C   0  0  0  0  0  0  0  0  0  0  0  0
  -18.0582  -27.6278   21.7430 C   0  0  0  0  0  0  0  0  0  0  0  0
  -22.8673  -12.3776   18.6587 C   0  0  0  0  0  0  0  0  0  0  0  0
  -20.5224  -11.6045   19.0734 C   0  0  0  0  0  0  0  0  0  0  0  0
  -22.4454  -10.2560   19.9137 C   0  0  0  0  0  0  0  0  0  0  0  0
  -19.7336  -13.1744   25.4815 C   0  0  0  0  0  0  0  0  0  0  0  0
  -19.1324  -25.4039   21.1802 C   0  0  0  0  0  0  0  0  0  0  0  0
  -22.6780  -21.1377   22.8172 C   0  0  0  0  0  0  0  0  0  1  0  0
  -21.8798  -12.4460   21.0433 C   0  0  1  0  0  0  0  0  0  0  0  0
  -19.2330  -11.5885   23.6179 C   0  0  2  0  0  0  0  0  0  0  0  0
  -18.9800  -26.5176   22.2377 C   0  0  1  0  0  0  0  0  0  0  0  0
  -21.9378  -11.6960   19.6826 C   0  0  0  0  0  0  0  0  0  0  0  0
  -25.3724  -28.6456   21.7412 N   0  0  0  0  0  0  0  0  0  0  0  0
  -24.4968  -29.6616   21.8260 N   0  0  0  0  0  0  0  0  0  0  0  0
  -23.6863  -13.8997   21.9077 N   0  0  0  0  0  0  0  0  0  0  0  0
  -21.8155  -28.1002   24.0580 N   0  0  0  0  0  0  0  0  0  0  0  0
  -23.9615  -31.7759   20.9019 N   0  0  0  0  0  0  0  0  0  0  0  0
  -27.6308  -30.5250   18.5851 N   0  0  0  0  0  0  0  0  0  0  0  0
  -27.1711  -13.9277   21.1425 N   0  0  0  0  0  0  0  0  0  0  0  0
  -21.0282  -11.8081   22.0414 N   0  0  0  0  0  0  0  0  0  0  0  0
  -20.2652  -27.0756   22.5949 N   0  0  0  0  0  0  0  0  0  0  0  0
  -18.6971  -12.4138   24.7371 N   0  3  0  0  0  0  0  0  0  0  0  0
  -26.0749  -32.1882   18.8524 O   0  0  0  0  0  0  0  0  0  0  0  0
  -25.3484  -14.9934   20.1603 O   0  0  0  0  0  0  0  0  0  0  0  0
  -23.8831  -11.5773   21.9700 O   0  0  0  0  0  0  0  0  0  0  0  0
  -19.6180  -13.6198   22.3677 O   0  0  0  0  0  0  0  0  0  0  0  0
  -19.6614  -27.5873   24.7468 O   0  0  0  0  0  0  0  0  0  0  0  0
  -30.4823  -25.7844   19.2411 O   0  0  0  0  0  0  0  0  0  0  0  0
  -22.2555  -19.8937   22.1865 O   0  0  0  0  0  0  0  0  0  1  0  0
  -29.4865  -20.4066   18.5397 F   0  0  0  0  0  0  0  0  0  0  0  0
  -30.9160  -24.5687   16.7963 F   0  0  0  0  0  0  0  0  0  0  0  0
  1  2  1  0  0  0  0
  1  5  2  0  0  0  0
  2  6  2  0  0  0  0
  3  8  2  0  0  0  0
  3 16  1  0  0  0  0
  4  9  1  0  0  0  0
  4 16  2  0  0  0  0
  5 18  1  0  0  0  0
  6 20  1  0  0  0  0
  7 10  2  0  0  0  0
  7 19  1  0  0  0  0
  8 27  1  0  0  0  0
  9 27  2  0  0  0  0
 10 28  1  0  0  0  0
 11 12  2  0  0  0  0
 11 29  1  0  0  0  0
 12 30  1  0  0  0  0
 13 21  1  0  0  0  0
 13 28  2  0  0  0  0
 14 22  2  0  0  0  0
 14 23  1  0  0  0  0
 15 30  2  0  0  0  0
 15 31  1  0  0  0  0
 16 32  1  0  0  0  0
 17 32  1  0  0  0  0
 17 33  2  0  0  0  0
 17 34  1  0  0  0  0
 18 20  2  0  0  0  0
 18 39  1  0  0  0  0
 19 21  2  0  0  0  0
 19 40  1  0  0  0  0
 20 48  1  0  0  0  0
 21 41  1  0  0  0  0
 22 26  1  0  0  0  0
 22 51  1  0  0  0  0
 23 24  2  0  0  0  0
 23 60  1  0  0  0  0
 24 25  1  0  0  0  0
 24 52  1  0  0  0  0
 25 26  2  0  0  0  0
 25 53  1  0  0  0  0
 26 61  1  0  0  0  0
 27 81  1  0  0  0  0
 28 82  1  0  0  0  0
 29 31  2  0  0  0  0
 29 81  1  0  0  0  0
 30 83  1  0  0  0  0
 31 84  1  0  0  0  0
 32 66  2  0  0  0  0
 33 67  1  0  0  0  0
 33 70  1  0  0  0  0
 34 71  1  0  0  0  0
 34 76  2  0  0  0  0
 35 49  1  0  0  0  0
 35 72  1  0  0  0  0
 35 77  2  0  0  0  0
 36 62  1  0  0  0  0
 36 68  1  0  0  0  0
 36 78  2  0  0  0  0
 37 63  1  0  0  0  0
 37 73  1  0  0  0  0
 37 79  2  0  0  0  0
 38 69  1  0  0  0  0
 38 74  1  0  0  0  0
 38 80  2  0  0  0  0
 39 42  1  0  0  0  0
 40 49  1  0  0  0  0
 41 68  1  0  0  0  0
 42 44  1  0  0  0  0
 43 45  1  0  0  0  0
 43 46  1  0  0  0  0
 44 48  1  0  0  0  0
 45 50  1  0  0  0  0
 46 69  1  0  0  0  0
 47 50  1  0  0  0  0
 47 69  1  0  0  0  0
 48 72  1  0  0  0  0
 49 68  1  0  0  0  0
 50 67  1  0  0  0  0
 54 63  1  0  0  0  0
 55 64  1  0  0  0  0
 56 65  1  0  0  0  0
 57 65  1  0  0  0  0
 58 65  1  0  0  0  0
 59 75  1  0  0  0  0
 60 64  1  0  0  0  0
 61 82  1  0  0  0  0
 62 65  1  0  0  0  0
 62 73  1  0  0  0  0
 63 75  1  0  0  0  0
 64 74  1  0  0  0  0
 66 67  1  0  0  0  0
M  CHG  1  75   1
M  ISO  4  38 100  61 101  74 100  82 101
M  END
> <Batch ID>
0145

> <Smiles>
CNC(C)C(=O)NC(C(=O)N1Cc2cc([101O:1][101CH2:1]c3c(C)cc(CC(C)[100NH:0][100C:0](=O)N4CCCC(n5nc(-c6ccc(Oc7ccc(F)cc7F)cc6)c(C(N)=O)c5N)C4)c(C)c3C)ccc2CC1C(=O)NC1CCCc2ccccc21)C(C)(C)C

> <Shape>
0.272

> <Color>
0.063

> <Negative vol penalty>
0.000

$$$$

  -OEChem-04052321283D

 92102  0     1  0  0  0  0  0999 V2000
  -28.7596  -37.7999   24.4777 C   0  0  0  0  0  0  0  0  0  0  0  0
  -29.1072  -36.4799   24.2092 C   0  0  0  0  0  0  0  0  0  0  0  0
  -21.8719   -7.6631   20.1275 C   0  0  0  0  0  0  0  0  0  0  0  0
  -21.6042   -7.3053   22.5018 C   0  0  0  0  0  0  0  0  0  0  0  0
  -27.5364  -38.0885   25.0813 C   0  0  0  0  0  0  0  0  0  0  0  0
  -28.2321  -35.4475   24.5451 C   0  0  0  0  0  0  0  0  0  0  0  0
  -27.7623  -32.0188   20.8481 C   0  0  0  0  0  0  0  0  0  0  0  0
  -21.5792   -6.3198   19.8920 C   0  0  0  0  0  0  0  0  0  0  0  0
  -21.3114   -5.9620   22.2663 C   0  0  0  0  0  0  0  0  0  0  0  0
  -28.7923  -31.0899   20.7065 C   0  0  0  0  0  0  0  0  0  0  0  0
  -18.6606   -4.1351   21.2386 C   0  0  0  0  0  0  0  0  0  0  0  0
  -17.5785   -3.5799   21.9215 C   0  0  0  0  0  0  0  0  0  0  0  0
  -27.4707  -29.4535   21.8874 C   0  0  0  0  0  0  0  0  0  0  0  0
  -28.8896  -24.7080   19.7936 C   0  0  0  0  0  0  0  0  0  0  0  0
  -31.2627  -24.8767   19.3728 C   0  0  0  0  0  0  0  0  0  0  0  0
  -19.0545   -1.9656   22.9476 C   0  0  0  0  0  0  0  0  0  0  0  0
  -21.8845   -8.1559   21.4324 C   0  0  0  0  0  0  0  0  0  0  0  0
  -21.2761  -10.6147   21.7352 C   0  0  0  0  0  0  0  0  0  0  0  0
  -26.6417  -37.0598   25.4160 C   0  0  0  0  0  0  0  0  0  0  0  0
  -26.5811  -31.6748   21.5211 C   0  0  0  0  0  0  0  0  0  0  0  0
  -26.9963  -35.7225   25.1549 C   0  0  0  0  0  0  0  0  0  0  0  0
  -26.4262  -30.3790   22.0340 C   0  0  0  0  0  0  0  0  0  0  0  0
  -30.2857  -22.7419   19.9428 C   0  0  0  0  0  0  0  0  0  0  0  0
  -29.0293  -23.3411   20.0333 C   0  0  0  0  0  0  0  0  0  0  0  0
  -31.4024  -23.5097   19.6125 C   0  0  0  0  0  0  0  0  0  0  0  0
  -21.2990   -5.4693   20.9614 C   0  0  0  0  0  0  0  0  0  0  0  0
  -28.6478  -29.8079   21.2287 C   0  0  0  0  0  0  0  0  0  0  0  0
  -19.9397   -3.6056   21.4101 C   0  0  0  0  0  0  0  0  0  0  0  0
  -30.0064  -25.4759   19.4633 C   0  0  0  0  0  0  0  0  0  0  0  0
  -17.7755   -2.4952   22.7760 C   0  0  0  0  0  0  0  0  0  0  0  0
  -20.1366   -2.5209   22.2646 C   0  0  0  0  0  0  0  0  0  0  0  0
  -22.1873   -9.5433   21.6763 C   0  0  0  0  0  0  0  0  0  0  0  0
  -22.0567  -11.7157   21.9900 C   0  0  0  0  0  0  0  0  0  0  0  0
  -19.8514  -10.6147   21.5741 C   0  0  0  0  0  0  0  0  0  0  0  0
  -25.1049  -32.7161   24.1364 C   0  0  0  0  0  0  0  0  0  0  0  0
  -22.7862  -30.6621   23.1737 C   0  0  0  0  0  0  0  0  0  0  0  0
  -21.9400  -27.8768   21.3924 C   0  0  0  0  0  0  0  0  0  0  0  0
  -26.6603  -14.5773   20.6079 C   0  0  0  0  0  0  0  0  0  0  0  0
  -25.3513  -37.4174   26.1101 C   0  0  0  0  0  0  0  0  0  0  0  0
  -25.4687  -32.6799   21.6420 C   0  0  0  0  0  0  0  0  0  0  0  0
  -25.1698  -29.9534   22.7473 C   0  0  0  0  0  0  0  0  0  0  0  0
  -24.3189  -36.2930   26.0934 C   0  0  0  0  0  0  0  0  0  0  0  0
  -26.9162  -12.0762   23.3345 C   0  0  0  0  0  0  0  0  0  0  0  0
  -24.9669  -34.9675   26.4805 C   0  0  0  0  0  0  0  0  0  0  0  0
  -25.6424  -11.2593   23.1130 C   0  0  0  0  0  0  0  0  0  0  0  0
  -28.6087  -16.9864   22.5858 C   0  0  0  0  0  0  0  0  0  0  0  0
  -30.0054  -20.9422   21.6369 C   0  0  0  0  0  0  0  0  0  0  0  0
  -29.6044  -20.4724   19.1863 C   0  0  0  0  0  0  0  0  0  0  0  0
  -27.4451  -12.6289   22.0174 C   0  0  0  0  0  0  0  0  0  0  0  0
  -28.1289  -15.5425   22.4749 C   0  0  0  0  0  0  0  0  0  0  0  0
  -25.1856  -12.6438   21.0319 C   0  0  0  0  0  0  0  0  0  0  0  0
  -28.1282  -16.5500   20.2922 C   0  0  0  0  0  0  0  0  0  0  0  0
  -30.0672  -19.4438   21.9041 C   0  0  0  0  0  0  0  0  0  0  0  0
  -29.6696  -18.9776   19.4722 C   0  0  0  0  0  0  0  0  0  0  0  0
  -30.4349  -21.2769   20.1993 C   0  0  0  0  0  0  0  0  0  0  0  0
  -26.0631  -34.5769   25.4819 C   0  0  1  0  0  0  0  0  0  0  0  0
  -24.5160  -32.3809   22.7954 C   0  0  1  0  0  0  0  0  0  0  0  0
  -24.5919  -12.0675   22.3296 C   0  0  1  0  0  0  0  0  0  0  0  0
  -29.1412  -17.2441   21.1841 C   0  0  1  0  0  0  0  0  0  0  0  0
  -27.8175  -22.5423   20.3865 C   0  0  0  0  0  0  0  0  0  0  0  0
  -32.7580  -22.8914   19.5073 C   0  0  0  0  0  0  0  0  0  0  0  0
  -19.9751  -26.4223   20.8262 C   0  0  0  0  0  0  0  0  0  0  0  0
  -22.9131  -29.4124   25.9543 C   0  0  0  0  0  0  0  0  0  0  0  0
  -21.6749  -27.4350   25.0459 C   0  0  0  0  0  0  0  0  0  0  0  0
  -20.6022  -29.6871   25.0385 C   0  0  0  0  0  0  0  0  0  0  0  0
  -22.2062  -28.4439   18.4999 C   0  0  0  0  0  0  0  0  0  0  0  0
  -30.4812  -29.0161   19.9375 C   0  0  0  0  0  0  0  0  0  1  0  0
  -30.9848  -27.6421   19.5399 C   0  0  0  0  0  0  0  0  0  0  0  0
  -22.4812  -29.2039   23.4174 C   0  0  1  0  0  0  0  0  0  0  0  0
  -20.8179  -27.6157   20.4040 C   0  0  2  0  0  0  0  0  0  0  0  0
  -21.9424  -28.9429   24.8524 C   0  0  0  0  0  0  0  0  0  0  0  0
  -23.4503   -9.9288   21.8773 N   0  0  0  0  0  0  0  0  0  0  0  0
  -23.3381  -11.2548   22.0650 N   0  0  0  0  0  0  0  0  0  0  0  0
  -24.1132  -30.9740   22.8456 N   0  0  0  0  0  0  0  0  0  0  0  0
  -26.4130  -13.3925   21.3106 N   0  0  0  0  0  0  0  0  0  0  0  0
  -27.6651  -15.4153   21.0893 N   0  0  0  0  0  0  0  0  0  0  0  0
  -21.7650  -13.0234   22.1550 N   0  0  0  0  0  0  0  0  0  0  0  0
  -19.2081   -9.3963   21.3172 N   0  0  0  0  0  0  0  0  0  0  0  0
  -25.4771  -34.0399   24.2725 N   0  0  0  0  0  0  0  0  0  0  0  0
  -21.5708  -28.7939   22.3536 N   0  0  0  0  0  0  0  0  0  0  0  0
  -29.2163  -18.6857   20.8955 N   0  3  0  0  0  0  0  0  0  0  0  0
  -21.3745  -27.3421   19.0489 N   0  3  0  0  0  0  0  0  0  0  0  0
  -19.1709  -11.6664   21.6393 O   0  0  0  0  0  0  0  0  0  0  0  0
  -25.2123  -31.8390   24.9855 O   0  0  0  0  0  0  0  0  0  0  0  0
  -21.8789  -31.4930   23.2639 O   0  0  0  0  0  0  0  0  0  0  0  0
  -23.0334  -27.3200   21.3213 O   0  0  0  0  0  0  0  0  0  0  0  0
  -25.9812  -14.8962   19.6230 O   0  0  0  0  0  0  0  0  0  0  0  0
  -21.0130   -4.1585   20.7320 O   0  0  0  0  0  0  0  0  0  0  0  0
  -29.6587  -28.8933   21.0916 O   0  0  0  0  0  0  0  0  0  1  0  0
  -29.8693  -26.8093   19.2274 O   0  0  0  0  0  0  0  0  0  0  0  0
  -16.7365   -1.9630   23.4330 F   0  0  0  0  0  0  0  0  0  0  0  0
  -21.3632   -2.0086   22.4344 F   0  0  0  0  0  0  0  0  0  0  0  0
  1  2  1  0  0  0  0
  1  5  2  0  0  0  0
  2  6  2  0  0  0  0
  3  8  2  0  0  0  0
  3 17  1  0  0  0  0
  4  9  1  0  0  0  0
  4 17  2  0  0  0  0
  5 19  1  0  0  0  0
  6 21  1  0  0  0  0
  7 10  2  0  0  0  0
  7 20  1  0  0  0  0
  8 26  1  0  0  0  0
  9 26  2  0  0  0  0
 10 27  1  0  0  0  0
 11 12  2  0  0  0  0
 11 28  1  0  0  0  0
 12 30  1  0  0  0  0
 13 22  1  0  0  0  0
 13 27  2  0  0  0  0
 14 24  2  0  0  0  0
 14 29  1  0  0  0  0
 15 25  1  0  0  0  0
 15 29  2  0  0  0  0
 16 30  2  0  0  0  0
 16 31  1  0  0  0  0
 17 32  1  0  0  0  0
 18 32  1  0  0  0  0
 18 33  2  0  0  0  0
 18 34  1  0  0  0  0
 19 21  2  0  0  0  0
 19 39  1  0  0  0  0
 20 22  2  0  0  0  0
 20 40  1  0  0  0  0
 21 56  1  0  0  0  0
 22 41  1  0  0  0  0
 23 24  1  0  0  0  0
 23 25  2  0  0  0  0
 23 55  1  0  0  0  0
 24 60  1  0  0  0  0
 25 61  1  0  0  0  0
 26 88  1  0  0  0  0
 27 89  1  0  0  0  0
 28 31  2  0  0  0  0
 28 88  1  0  0  0  0
 29 90  1  0  0  0  0
 30 91  1  0  0  0  0
 31 92  1  0  0  0  0
 32 72  2  0  0  0  0
 33 73  1  0  0  0  0
 33 77  1  0  0  0  0
 34 78  1  0  0  0  0
 34 83  2  0  0  0  0
 35 57  1  0  0  0  0
 35 79  1  0  0  0  0
 35 84  2  0  0  0  0
 36 69  1  0  0  0  0
 36 74  1  0  0  0  0
 36 85  2  0  0  0  0
 37 70  1  0  0  0  0
 37 80  1  0  0  0  0
 37 86  2  0  0  0  0
 38 75  1  0  0  0  0
 38 76  1  0  0  0  0
 38 87  2  0  0  0  0
 39 42  1  0  0  0  0
 40 57  1  0  0  0  0
 41 74  1  0  0  0  0
 42 44  1  0  0  0  0
 43 45  1  0  0  0  0
 43 49  1  0  0  0  0
 44 56  1  0  0  0  0
 45 58  1  0  0  0  0
 46 50  1  0  0  0  0
 46 59  1  0  0  0  0
 47 53  1  0  0  0  0
 47 55  1  0  0  0  0
 48 54  1  0  0  0  0
 48 55  1  0  0  0  0
 49 75  1  0  0  0  0
 50 76  1  0  0  0  0
 51 58  1  0  0  0  0
 51 75  1  0  0  0  0
 52 59  1  0  0  0  0
 52 76  1  0  0  0  0
 53 81  1  0  0  0  0
 54 81  1  0  0  0  0
 56 79  1  0  0  0  0
 57 74  1  0  0  0  0
 58 73  1  0  0  0  0
 59 81  1  0  0  0  0
 62 70  1  0  0  0  0
 63 71  1  0  0  0  0
 64 71  1  0  0  0  0
 65 71  1  0  0  0  0
 66 82  1  0  0  0  0
 67 68  1  0  0  0  0
 67 89  1  0  0  0  0
 68 90  1  0  0  0  0
 69 71  1  0  0  0  0
 69 80  1  0  0  0  0
 70 82  1  0  0  0  0
 72 73  1  0  0  0  0
M  CHG  2  81   1  82   1
M  ISO  4  38 100  67 101  76 100  89 101
M  END
> <Batch ID>
0145

> <Smiles>
CNC(C)C(=O)NC(C(=O)N1Cc2cc([101O:1][101CH2:1]COc3cc(C)c(C4CCN(C5CC[100N:0]([100C:0](=O)N6CCCC(n7nc(-c8ccc(Oc9ccc(F)cc9F)cc8)c(C(N)=O)c7N)C6)C5)CC4)c(C)c3)ccc2CC1C(=O)NC1CCCc2ccccc21)C(C)(C)C

> <Shape>
0.303

> <Color>
0.058

> <Negative vol penalty>
0.000

$$$$
