
  -OEChem-04052321313D

 80 88  0     1  0  0  0  0  0999 V2000
  -23.0387  -23.8508   19.7226 C   0  0  0  0  0  0  0  0  0  0  0  0
  -24.1979  -23.1249   19.9770 C   0  0  0  0  0  0  0  0  0  0  0  0
  -26.7309  -28.8411   19.3640 C   0  0  0  0  0  0  0  0  0  0  0  0
  -25.9454  -26.8748   20.5276 C   0  0  0  0  0  0  0  0  0  0  0  0
  -21.8042  -23.3625   20.1486 C   0  0  0  0  0  0  0  0  0  0  0  0
  -24.1233  -21.9106   20.6586 C   0  0  0  0  0  0  0  0  0  0  0  0
  -26.9541  -18.3013   18.5127 C   0  0  0  0  0  0  0  0  0  0  0  0
  -25.4669  -29.4181   19.4857 C   0  0  0  0  0  0  0  0  0  0  0  0
  -24.6814  -27.4519   20.6494 C   0  0  0  0  0  0  0  0  0  0  0  0
  -28.3270  -18.3428   18.7515 C   0  0  0  0  0  0  0  0  0  0  0  0
  -21.3458  -28.5555   21.5843 C   0  0  0  0  0  0  0  0  0  0  0  0
  -20.7090  -28.4689   22.8223 C   0  0  0  0  0  0  0  0  0  0  0  0
  -28.0800  -16.6318   20.4340 C   0  0  0  0  0  0  0  0  0  0  0  0
  -22.5365  -29.6723   23.8465 C   0  0  0  0  0  0  0  0  0  0  0  0
  -34.9469  -21.3730   21.3011 C   0  0  0  0  0  0  0  0  0  0  0  0
  -33.7057  -20.5371   22.8147 C   0  0  0  0  0  0  0  0  0  0  0  0
  -26.9702  -27.5694   19.8850 C   0  0  0  0  0  0  0  0  0  0  0  0
  -29.3495  -27.0784   20.6632 C   0  0  0  0  0  0  0  0  0  0  0  0
  -21.7134  -22.1370   20.8272 C   0  0  0  0  0  0  0  0  0  0  0  0
  -26.1308  -17.4311   19.2416 C   0  0  0  0  0  0  0  0  0  0  0  0
  -22.8866  -21.4061   21.0952 C   0  0  0  0  0  0  0  0  0  0  0  0
  -26.6973  -16.5794   20.2007 C   0  0  0  0  0  0  0  0  0  0  0  0
  -24.4421  -28.7235   20.1284 C   0  0  0  0  0  0  0  0  0  0  0  0
  -28.8898  -17.5101   19.7143 C   0  0  0  0  0  0  0  0  0  0  0  0
  -22.5780  -29.2005   21.4775 C   0  0  0  0  0  0  0  0  0  0  0  0
  -21.3043  -29.0273   23.9534 C   0  0  0  0  0  0  0  0  0  0  0  0
  -23.1733  -29.7589   22.6086 C   0  0  0  0  0  0  0  0  0  0  0  0
  -28.2756  -26.9726   19.7591 C   0  0  0  0  0  0  0  0  0  0  0  0
  -33.8922  -20.7957   20.6341 C   0  0  0  0  0  0  0  0  0  0  0  0
  -30.3544  -26.3373   20.0909 C   0  0  0  0  0  0  0  0  0  0  0  0
  -29.4313  -27.7835   21.9089 C   0  0  0  0  0  0  0  0  0  0  0  0
  -23.6898  -17.8025   21.2434 C   0  0  0  0  0  0  0  0  0  0  0  0
  -23.5660  -14.5654   21.0766 C   0  0  0  0  0  0  0  0  0  0  0  0
  -25.1958  -11.6319   20.4561 C   0  0  0  0  0  0  0  0  0  0  0  0
  -32.1221  -21.7379   17.4707 C   0  0  0  0  0  0  0  0  0  0  0  0
  -20.3619  -21.6728   21.3098 C   0  0  0  0  0  0  0  0  0  0  0  0
  -24.6555  -17.3793   18.9533 C   0  0  0  0  0  0  0  0  0  0  0  0
  -25.8599  -15.6126   20.9961 C   0  0  0  0  0  0  0  0  0  0  0  0
  -20.3272  -20.1963   21.6960 C   0  0  0  0  0  0  0  0  0  0  0  0
  -30.7408  -24.3333   15.4626 C   0  0  0  0  0  0  0  0  0  0  0  0
  -21.5296  -19.8437   22.5660 C   0  0  0  0  0  0  0  0  0  0  0  0
  -30.0600  -25.2561   16.4751 C   0  0  0  0  0  0  0  0  0  0  0  0
  -30.6126  -22.8650   15.8620 C   0  0  0  0  0  0  0  0  0  0  0  0
  -30.3935  -23.4748   18.2398 C   0  0  0  0  0  0  0  0  0  0  0  0
  -22.8438  -20.0729   21.8098 C   0  0  1  0  0  0  0  0  0  0  0  0
  -23.8389  -16.8216   20.1150 C   0  0  1  0  0  0  0  0  0  0  0  0
  -30.5443  -24.9695   17.9091 C   0  0  2  0  0  0  0  0  0  0  0  0
  -24.8423   -9.1475   20.4385 C   0  0  0  0  0  0  0  0  0  0  0  0
  -23.6908  -14.5284   24.1250 C   0  0  0  0  0  0  0  0  0  0  0  0
  -24.2882  -12.1002   24.0016 C   0  0  0  0  0  0  0  0  0  0  0  0
  -22.0890  -12.8878   23.1265 C   0  0  0  0  0  0  0  0  0  0  0  0
  -25.8179  -11.4471   17.5686 C   0  0  0  0  0  0  0  0  0  0  0  0
  -33.5732  -20.7053   19.1990 C   0  0  0  0  0  0  0  0  0  0  0  0
  -31.9593  -17.9936   21.5519 C   0  0  0  0  0  0  0  0  0  0  0  0
  -31.8116  -19.5121   21.4332 C   0  0  0  0  0  0  0  0  0  0  0  0
  -30.6658  -17.2372   21.2722 C   0  0  0  0  0  0  0  0  0  1  0  0
  -24.1993  -13.4303   21.8443 C   0  0  1  0  0  0  0  0  0  0  0  0
  -24.8151  -10.4263   19.6158 C   0  0  2  0  0  0  0  0  0  0  0  0
  -23.5826  -13.2562   23.2609 C   0  0  0  0  0  0  0  0  0  0  0  0
  -34.8250  -21.2083   22.6582 N   0  0  0  0  0  0  0  0  0  0  0  0
  -28.5707  -26.2235   18.6934 N   0  0  0  0  0  0  0  0  0  0  0  0
  -33.1057  -20.2639   21.6169 N   0  0  0  0  0  0  0  0  0  0  0  0
  -29.8414  -25.8519   18.9242 N   0  0  0  0  0  0  0  0  0  0  0  0
  -24.4216  -15.6038   20.6822 N   0  0  0  0  0  0  0  0  0  0  0  0
  -31.0902  -22.6605   17.2317 N   0  0  0  0  0  0  0  0  0  0  0  0
  -31.6179  -26.0601   20.4770 N   0  0  0  0  0  0  0  0  0  0  0  0
  -28.3066  -28.4944   22.3494 N   0  0  0  0  0  0  0  0  0  0  0  0
  -23.0867  -18.9914   20.8793 N   0  0  0  0  0  0  0  0  0  0  0  0
  -24.0869  -12.2498   20.9944 N   0  0  0  0  0  0  0  0  0  0  0  0
  -32.5194  -21.6096   18.7960 N   0  0  0  0  0  0  0  0  0  0  0  0
  -25.7607  -10.2710   18.4745 N   0  3  0  0  0  0  0  0  0  0  0  0
  -30.4763  -27.7966   22.6026 O   0  0  0  0  0  0  0  0  0  0  0  0
  -24.0907  -17.5025   22.3618 O   0  0  0  0  0  0  0  0  0  0  0  0
  -22.3580  -14.5285   20.8295 O   0  0  0  0  0  0  0  0  0  0  0  0
  -26.3605  -11.9874   20.6217 O   0  0  0  0  0  0  0  0  0  0  0  0
  -32.6538  -21.0813   16.5689 O   0  0  0  0  0  0  0  0  0  0  0  0
  -23.2086  -29.2863   20.2475 O   0  0  0  0  0  0  0  0  0  0  0  0
  -30.2295  -17.5490   19.9498 O   0  0  0  0  0  0  0  0  0  1  0  0
  -20.6920  -28.9454   25.1419 F   0  0  0  0  0  0  0  0  0  0  0  0
  -24.3564  -30.3808   22.5119 F   0  0  0  0  0  0  0  0  0  0  0  0
  1  2  1  0  0  0  0
  1  5  2  0  0  0  0
  2  6  2  0  0  0  0
  3  8  2  0  0  0  0
  3 17  1  0  0  0  0
  4  9  1  0  0  0  0
  4 17  2  0  0  0  0
  5 19  1  0  0  0  0
  6 21  1  0  0  0  0
  7 10  2  0  0  0  0
  7 20  1  0  0  0  0
  8 23  1  0  0  0  0
  9 23  2  0  0  0  0
 10 24  1  0  0  0  0
 11 12  2  0  0  0  0
 11 25  1  0  0  0  0
 12 26  1  0  0  0  0
 13 22  1  0  0  0  0
 13 24  2  0  0  0  0
 14 26  2  0  0  0  0
 14 27  1  0  0  0  0
 15 29  2  0  0  0  0
 15 60  1  0  0  0  0
 16 60  2  0  0  0  0
 16 62  1  0  0  0  0
 17 28  1  0  0  0  0
 18 28  1  0  0  0  0
 18 30  2  0  0  0  0
 18 31  1  0  0  0  0
 19 21  2  0  0  0  0
 19 36  1  0  0  0  0
 20 22  2  0  0  0  0
 20 37  1  0  0  0  0
 21 45  1  0  0  0  0
 22 38  1  0  0  0  0
 23 77  1  0  0  0  0
 24 78  1  0  0  0  0
 25 27  2  0  0  0  0
 25 77  1  0  0  0  0
 26 79  1  0  0  0  0
 27 80  1  0  0  0  0
 28 61  2  0  0  0  0
 29 53  1  0  0  0  0
 29 62  1  0  0  0  0
 30 63  1  0  0  0  0
 30 66  1  0  0  0  0
 31 67  1  0  0  0  0
 31 72  2  0  0  0  0
 32 46  1  0  0  0  0
 32 68  1  0  0  0  0
 32 73  2  0  0  0  0
 33 57  1  0  0  0  0
 33 64  1  0  0  0  0
 33 74  2  0  0  0  0
 34 58  1  0  0  0  0
 34 69  1  0  0  0  0
 34 75  2  0  0  0  0
 35 65  1  0  0  0  0
 35 70  1  0  0  0  0
 35 76  2  0  0  0  0
 36 39  1  0  0  0  0
 37 46  1  0  0  0  0
 38 64  1  0  0  0  0
 39 41  1  0  0  0  0
 40 42  1  0  0  0  0
 40 43  1  0  0  0  0
 41 45  1  0  0  0  0
 42 47  1  0  0  0  0
 43 65  1  0  0  0  0
 44 47  1  0  0  0  0
 44 65  1  0  0  0  0
 45 68  1  0  0  0  0
 46 64  1  0  0  0  0
 47 63  1  0  0  0  0
 48 58  1  0  0  0  0
 49 59  1  0  0  0  0
 50 59  1  0  0  0  0
 51 59  1  0  0  0  0
 52 71  1  0  0  0  0
 53 70  1  0  0  0  0
 54 55  1  0  0  0  0
 54 56  1  0  0  0  0
 55 62  1  0  0  0  0
 56 78  1  0  0  0  0
 57 59  1  0  0  0  0
 57 69  1  0  0  0  0
 58 71  1  0  0  0  0
 61 63  1  0  0  0  0
M  CHG  1  71   1
M  ISO  4  35 100  56 101  70 100  78 101
M  END
> <Batch ID>
0146

> <Smiles>
CNC(C)C(=O)NC(C(=O)N1Cc2cc([101O:1][101CH2:1]CCn3cncc3C[100NH:0][100C:0](=O)N3CCCC(n4nc(-c5ccc(Oc6ccc(F)cc6F)cc5)c(C(N)=O)c4N)C3)ccc2CC1C(=O)NC1CCCc2ccccc21)C(C)(C)C

> <Shape>
0.216

> <Color>
0.073

> <Negative vol penalty>
0.000

$$$$

  -OEChem-04052321313D

 89 98  0     1  0  0  0  0  0999 V2000
  -23.3576  -35.4591   22.9875 C   0  0  0  0  0  0  0  0  0  0  0  0
  -24.3144  -34.5413   22.5660 C   0  0  0  0  0  0  0  0  0  0  0  0
  -23.4374  -10.1054   22.0095 C   0  0  0  0  0  0  0  0  0  0  0  0
  -24.1213  -11.4510   23.8959 C   0  0  0  0  0  0  0  0  0  0  0  0
  -22.2735  -35.0322   23.7533 C   0  0  0  0  0  0  0  0  0  0  0  0
  -24.1882  -33.1962   22.9110 C   0  0  0  0  0  0  0  0  0  0  0  0
  -25.8092  -28.3588   19.5231 C   0  0  0  0  0  0  0  0  0  0  0  0
  -22.7881   -9.2238   22.8737 C   0  0  0  0  0  0  0  0  0  0  0  0
  -23.4720  -10.5694   24.7602 C   0  0  0  0  0  0  0  0  0  0  0  0
  -26.9399  -27.5432   19.5331 C   0  0  0  0  0  0  0  0  0  0  0  0
  -29.9146  -21.3104   18.6274 C   0  0  0  0  0  0  0  0  0  0  0  0
  -30.2164  -20.0199   19.0624 C   0  0  0  0  0  0  0  0  0  0  0  0
  -19.8753   -9.1071   24.5868 C   0  0  0  0  0  0  0  0  0  0  0  0
  -18.5932   -8.6833   24.2375 C   0  0  0  0  0  0  0  0  0  0  0  0
  -25.7720  -25.9516   20.9194 C   0  0  0  0  0  0  0  0  0  0  0  0
  -19.3595   -6.3923   24.2046 C   0  0  0  0  0  0  0  0  0  0  0  0
  -24.1040  -11.2189   22.5206 C   0  0  0  0  0  0  0  0  0  0  0  0
  -24.2307  -13.2718   21.0115 C   0  0  0  0  0  0  0  0  0  0  0  0
  -22.1289  -33.6795   24.0998 C   0  0  0  0  0  0  0  0  0  0  0  0
  -24.6532  -27.9815   20.2213 C   0  0  0  0  0  0  0  0  0  0  0  0
  -23.1019  -32.7510   23.6833 C   0  0  0  0  0  0  0  0  0  0  0  0
  -24.6271  -26.7630   20.9146 C   0  0  0  0  0  0  0  0  0  0  0  0
  -28.0086  -21.3648   20.1111 C   0  0  0  0  0  0  0  0  0  0  0  0
  -28.3104  -20.0743   20.5462 C   0  0  0  0  0  0  0  0  0  0  0  0
  -22.8054   -9.4558   24.2490 C   0  0  0  0  0  0  0  0  0  0  0  0
  -26.9224  -26.3407   20.2337 C   0  0  0  0  0  0  0  0  0  0  0  0
  -28.8107  -21.9828   19.1518 C   0  0  0  0  0  0  0  0  0  0  0  0
  -29.4144  -19.4019   20.0218 C   0  0  0  0  0  0  0  0  0  0  0  0
  -20.8996   -8.1736   24.7450 C   0  0  0  0  0  0  0  0  0  0  0  0
  -18.3352   -7.3259   24.0464 C   0  0  0  0  0  0  0  0  0  0  0  0
  -20.6417   -6.8161   24.5539 C   0  0  0  0  0  0  0  0  0  0  0  0
  -24.7754  -12.1297   21.6284 C   0  0  0  0  0  0  0  0  0  0  0  0
  -25.2651  -13.7876   20.2696 C   0  0  0  0  0  0  0  0  0  0  0  0
  -22.9079  -13.8177   21.1011 C   0  0  0  0  0  0  0  0  0  0  0  0
  -22.9898  -29.2094   22.6357 C   0  0  0  0  0  0  0  0  0  0  0  0
  -20.9445  -26.7876   21.9471 C   0  0  0  0  0  0  0  0  0  0  0  0
  -20.4687  -23.6985   20.5768 C   0  0  0  0  0  0  0  0  0  0  0  0
  -31.0103  -14.4678   20.4787 C   0  0  0  0  0  0  0  0  0  0  0  0
  -20.9653  -33.2732   24.9690 C   0  0  0  0  0  0  0  0  0  0  0  0
  -23.4328  -28.8598   20.1786 C   0  0  0  0  0  0  0  0  0  0  0  0
  -23.4042  -26.3026   21.6634 C   0  0  0  0  0  0  0  0  0  0  0  0
  -20.7060  -31.7689   24.9756 C   0  0  0  0  0  0  0  0  0  0  0  0
  -29.4869  -11.9741   18.4447 C   0  0  0  0  0  0  0  0  0  0  0  0
  -22.0113  -31.0031   25.1670 C   0  0  0  0  0  0  0  0  0  0  0  0
  -28.7782  -20.1979   23.7139 C   0  0  0  0  0  0  0  0  0  0  0  0
  -27.6201  -19.3755   24.2062 C   0  0  0  0  0  0  0  0  0  0  0  0
  -28.0660  -11.8662   19.0010 C   0  0  0  0  0  0  0  0  0  0  0  0
  -30.5085  -12.2262   19.5514 C   0  0  0  0  0  0  0  0  0  0  0  0
  -28.7903  -13.2748   20.9733 C   0  0  0  0  0  0  0  0  0  0  0  0
  -22.9867  -31.2793   24.0164 C   0  0  1  0  0  0  0  0  0  0  0  0
  -22.4837  -28.6213   21.3489 C   0  0  1  0  0  0  0  0  0  0  0  0
  -28.2309  -19.0853   22.8633 C   0  0  0  0  0  0  0  0  0  0  0  0
  -27.7179  -13.0763   19.8885 C   0  0  2  0  0  0  0  0  0  0  0  0
  -26.8267  -22.0924   20.6682 C   0  0  0  0  0  0  0  0  0  0  0  0
  -26.7821  -18.1303   21.0348 C   0  0  0  0  0  0  0  0  0  0  0  0
  -18.6960  -21.9630   20.1986 C   0  0  0  0  0  0  0  0  0  0  0  0
  -21.1227  -25.9698   24.8813 C   0  0  0  0  0  0  0  0  0  0  0  0
  -20.1406  -23.7546   24.2514 C   0  0  0  0  0  0  0  0  0  0  0  0
  -18.8252  -25.8451   23.9012 C   0  0  0  0  0  0  0  0  0  0  0  0
  -20.7602  -23.8741   17.6368 C   0  0  0  0  0  0  0  0  0  0  0  0
  -31.3613  -16.7165   21.4684 C   0  0  0  0  0  0  0  0  0  0  0  0
  -31.1025  -17.7719   20.4081 C   0  0  0  0  0  0  0  0  0  0  0  0
  -28.8716  -25.5881   19.0979 C   0  0  0  0  0  0  0  0  0  1  0  0
  -29.5344  -24.2361   18.9181 C   0  0  0  0  0  0  0  0  0  0  0  0
  -27.4543  -19.4052   21.5739 C   0  0  2  0  0  0  0  0  0  0  0  0
  -20.7958  -25.3537   22.3954 C   0  0  1  0  0  0  0  0  0  0  0  0
  -19.4138  -23.1725   19.6202 C   0  0  2  0  0  0  0  0  0  0  0  0
  -20.2450  -25.2401   23.8449 C   0  0  0  0  0  0  0  0  0  0  0  0
  -26.0563  -11.9310   21.3063 N   0  0  0  0  0  0  0  0  0  0  0  0
  -26.3251  -12.9553   20.4788 N   0  0  0  0  0  0  0  0  0  0  0  0
  -22.2383  -27.1992   21.5969 N   0  0  0  0  0  0  0  0  0  0  0  0
  -30.1207  -13.3879   20.3552 N   0  0  0  0  0  0  0  0  0  0  0  0
  -25.3622  -14.8673   19.4651 N   0  0  0  0  0  0  0  0  0  0  0  0
  -21.9680  -13.1625   21.9083 N   0  0  0  0  0  0  0  0  0  0  0  0
  -22.6104  -30.5220   22.8420 N   0  0  0  0  0  0  0  0  0  0  0  0
  -19.9702  -24.6949   21.3891 N   0  0  0  0  0  0  0  0  0  0  0  0
  -30.5620  -15.5309   21.2530 N   0  0  0  0  0  0  0  0  0  0  0  0
  -20.0393  -22.7740   18.3275 N   0  3  0  0  0  0  0  0  0  0  0  0
  -22.5648  -14.8465   20.4707 O   0  0  0  0  0  0  0  0  0  0  0  0
  -23.6726  -28.5226   23.3866 O   0  0  0  0  0  0  0  0  0  0  0  0
  -19.9483  -27.5136   21.9023 O   0  0  0  0  0  0  0  0  0  0  0  0
  -21.6188  -23.2659   20.6034 O   0  0  0  0  0  0  0  0  0  0  0  0
  -32.1197  -14.4857   19.9347 O   0  0  0  0  0  0  0  0  0  0  0  0
  -22.1718   -8.5959   25.0926 O   0  0  0  0  0  0  0  0  0  0  0  0
  -28.0248  -25.5431   20.2456 O   0  0  0  0  0  0  0  0  0  1  0  0
  -28.5301  -23.2500   18.7128 O   0  0  0  0  0  0  0  0  0  0  0  0
  -29.7251  -18.1407   20.4332 O   0  0  0  0  0  0  0  0  0  0  0  0
  -17.1036   -6.9188   23.7124 F   0  0  0  0  0  0  0  0  0  0  0  0
  -21.6214   -5.9145   24.7056 F   0  0  0  0  0  0  0  0  0  0  0  0
  1  2  1  0  0  0  0
  1  5  2  0  0  0  0
  2  6  2  0  0  0  0
  3  8  2  0  0  0  0
  3 17  1  0  0  0  0
  4  9  1  0  0  0  0
  4 17  2  0  0  0  0
  5 19  1  0  0  0  0
  6 21  1  0  0  0  0
  7 10  2  0  0  0  0
  7 20  1  0  0  0  0
  8 25  1  0  0  0  0
  9 25  2  0  0  0  0
 10 26  1  0  0  0  0
 11 12  2  0  0  0  0
 11 27  1  0  0  0  0
 12 28  1  0  0  0  0
 13 14  2  0  0  0  0
 13 29  1  0  0  0  0
 14 30  1  0  0  0  0
 15 22  1  0  0  0  0
 15 26  2  0  0  0  0
 16 30  2  0  0  0  0
 16 31  1  0  0  0  0
 17 32  1  0  0  0  0
 18 32  1  0  0  0  0
 18 33  2  0  0  0  0
 18 34  1  0  0  0  0
 19 21  2  0  0  0  0
 19 39  1  0  0  0  0
 20 22  2  0  0  0  0
 20 40  1  0  0  0  0
 21 50  1  0  0  0  0
 22 41  1  0  0  0  0
 23 24  1  0  0  0  0
 23 27  2  0  0  0  0
 23 54  1  0  0  0  0
 24 28  2  0  0  0  0
 24 65  1  0  0  0  0
 25 84  1  0  0  0  0
 26 85  1  0  0  0  0
 27 86  1  0  0  0  0
 28 87  1  0  0  0  0
 29 31  2  0  0  0  0
 29 84  1  0  0  0  0
 30 88  1  0  0  0  0
 31 89  1  0  0  0  0
 32 69  2  0  0  0  0
 33 70  1  0  0  0  0
 33 73  1  0  0  0  0
 34 74  1  0  0  0  0
 34 79  2  0  0  0  0
 35 51  1  0  0  0  0
 35 75  1  0  0  0  0
 35 80  2  0  0  0  0
 36 66  1  0  0  0  0
 36 71  1  0  0  0  0
 36 81  2  0  0  0  0
 37 67  1  0  0  0  0
 37 76  1  0  0  0  0
 37 82  2  0  0  0  0
 38 72  1  0  0  0  0
 38 77  1  0  0  0  0
 38 83  2  0  0  0  0
 39 42  1  0  0  0  0
 40 51  1  0  0  0  0
 41 71  1  0  0  0  0
 42 44  1  0  0  0  0
 43 47  1  0  0  0  0
 43 48  1  0  0  0  0
 44 50  1  0  0  0  0
 45 46  1  0  0  0  0
 45 52  1  0  0  0  0
 46 52  1  0  0  0  0
 47 53  1  0  0  0  0
 48 72  1  0  0  0  0
 49 53  1  0  0  0  0
 49 72  1  0  0  0  0
 50 75  1  0  0  0  0
 51 71  1  0  0  0  0
 52 65  1  0  0  0  0
 53 70  1  0  0  0  0
 55 65  1  0  0  0  0
 56 67  1  0  0  0  0
 57 68  1  0  0  0  0
 58 68  1  0  0  0  0
 59 68  1  0  0  0  0
 60 78  1  0  0  0  0
 61 62  1  0  0  0  0
 61 77  1  0  0  0  0
 62 87  1  0  0  0  0
 63 64  1  0  0  0  0
 63 85  1  0  0  0  0
 64 86  1  0  0  0  0
 66 68  1  0  0  0  0
 66 76  1  0  0  0  0
 67 78  1  0  0  0  0
 69 70  1  0  0  0  0
M  CHG  1  78   1
M  ISO  4  38 100  63 101  77 100  85 101
M  END
> <Batch ID>
0146

> <Smiles>
CNC(C)C(=O)NC(C(=O)N1Cc2cc([101O:1][101CH2:1]COc3ccc(OCC[100NH:0][100C:0](=O)N4CCCC(n5nc(-c6ccc(Oc7ccc(F)cc7F)cc6)c(C(N)=O)c5N)C4)c(C(C)C4CC4)c3C)ccc2CC1C(=O)NC1CCCc2ccccc21)C(C)(C)C

> <Shape>
0.292

> <Color>
0.170

> <Negative vol penalty>
0.000

$$$$

  -OEChem-04052321313D

 86 95  0     1  0  0  0  0  0999 V2000
  -19.4189  -28.4240   22.9324 C   0  0  0  0  0  0  0  0  0  0  0  0
  -20.7095  -27.9051   22.9559 C   0  0  0  0  0  0  0  0  0  0  0  0
  -23.3288   -9.7853   19.9522 C   0  0  0  0  0  0  0  0  0  0  0  0
  -23.6717  -10.0452   22.3295 C   0  0  0  0  0  0  0  0  0  0  0  0
  -18.3403  -27.5937   22.6307 C   0  0  0  0  0  0  0  0  0  0  0  0
  -20.9221  -26.5552   22.6787 C   0  0  0  0  0  0  0  0  0  0  0  0
  -25.7367  -24.1027   19.7959 C   0  0  0  0  0  0  0  0  0  0  0  0
  -22.6065   -8.6149   20.1843 C   0  0  0  0  0  0  0  0  0  0  0  0
  -22.9493   -8.8748   22.5617 C   0  0  0  0  0  0  0  0  0  0  0  0
  -26.8924  -23.4789   20.2640 C   0  0  0  0  0  0  0  0  0  0  0  0
  -30.3058  -18.8515   23.9438 C   0  0  0  0  0  0  0  0  0  0  0  0
  -30.6881  -17.5538   24.2834 C   0  0  0  0  0  0  0  0  0  0  0  0
  -20.3648   -5.7531   20.1740 C   0  0  0  0  0  0  0  0  0  0  0  0
  -19.1691   -5.5799   19.4768 C   0  0  0  0  0  0  0  0  0  0  0  0
  -25.8458  -21.3266   19.9623 C   0  0  0  0  0  0  0  0  0  0  0  0
  -28.0176  -18.1145   23.7032 C   0  0  0  0  0  0  0  0  0  0  0  0
  -18.2914   -7.5940   20.4819 C   0  0  0  0  0  0  0  0  0  0  0  0
  -23.8615  -10.5005   21.0248 C   0  0  0  0  0  0  0  0  0  0  0  0
  -24.1024  -13.0212   20.7153 C   0  0  0  0  0  0  0  0  0  0  0  0
  -18.5409  -26.2350   22.3402 C   0  0  0  0  0  0  0  0  0  0  0  0
  -24.6211  -23.3422   19.4171 C   0  0  0  0  0  0  0  0  0  0  0  0
  -19.8451  -25.7055   22.3741 C   0  0  0  0  0  0  0  0  0  0  0  0
  -24.6780  -21.9430   19.4873 C   0  0  0  0  0  0  0  0  0  0  0  0
  -28.3999  -16.8167   24.0427 C   0  0  0  0  0  0  0  0  0  0  0  0
  -22.4167   -8.1597   21.4890 C   0  0  0  0  0  0  0  0  0  0  0  0
  -26.9460  -22.0908   20.3500 C   0  0  0  0  0  0  0  0  0  0  0  0
  -28.9705  -19.1319   23.6537 C   0  0  0  0  0  0  0  0  0  0  0  0
  -29.7352  -16.5364   24.3328 C   0  0  0  0  0  0  0  0  0  0  0  0
  -20.5237   -6.8467   21.0251 C   0  0  0  0  0  0  0  0  0  0  0  0
  -18.1324   -6.5004   19.6308 C   0  0  0  0  0  0  0  0  0  0  0  0
  -19.4870   -7.7672   21.1790 C   0  0  0  0  0  0  0  0  0  0  0  0
  -24.6083  -11.7093   20.7856 C   0  0  0  0  0  0  0  0  0  0  0  0
  -25.2058  -13.8020   20.4717 C   0  0  0  0  0  0  0  0  0  0  0  0
  -22.7557  -13.4919   20.8577 C   0  0  0  0  0  0  0  0  0  0  0  0
  -21.6156  -23.1127   20.4260 C   0  0  0  0  0  0  0  0  0  0  0  0
  -21.3102  -21.1652   17.8498 C   0  0  0  0  0  0  0  0  0  0  0  0
  -22.8096  -19.0929   15.5906 C   0  0  0  0  0  0  0  0  0  0  0  0
  -31.0430  -13.0747   21.5894 C   0  0  0  0  0  0  0  0  0  0  0  0
  -17.3389  -25.3662   22.0660 C   0  0  0  0  0  0  0  0  0  0  0  0
  -23.3915  -24.0290   18.8890 C   0  0  0  0  0  0  0  0  0  0  0  0
  -23.5148  -21.0802   19.0738 C   0  0  0  0  0  0  0  0  0  0  0  0
  -17.6888  -24.0297   21.4166 C   0  0  0  0  0  0  0  0  0  0  0  0
  -29.5250  -13.6448   18.4196 C   0  0  0  0  0  0  0  0  0  0  0  0
  -26.1561  -15.9289   24.9653 C   0  0  0  0  0  0  0  0  0  0  0  0
  -27.2071  -14.9372   25.3553 C   0  0  0  0  0  0  0  0  0  0  0  0
  -18.8627  -23.3763   22.1390 C   0  0  0  0  0  0  0  0  0  0  0  0
  -28.0471  -13.3318   18.6602 C   0  0  0  0  0  0  0  0  0  0  0  0
  -30.4361  -12.7126   19.2151 C   0  0  0  0  0  0  0  0  0  0  0  0
  -28.6779  -12.3459   20.9027 C   0  0  0  0  0  0  0  0  0  0  0  0
  -27.3677  -15.7400   24.0916 C   0  0  0  0  0  0  0  0  0  0  0  0
  -20.1188  -24.2519   22.0547 C   0  0  1  0  0  0  0  0  0  0  0  0
  -22.1311  -23.1790   19.0162 C   0  0  1  0  0  0  0  0  0  0  0  0
  -27.7193  -13.2962   20.1650 C   0  0  2  0  0  0  0  0  0  0  0  0
  -22.2952  -17.6166   13.6277 C   0  0  0  0  0  0  0  0  0  0  0  0
  -20.1812  -19.0514   19.7386 C   0  0  0  0  0  0  0  0  0  0  0  0
  -20.5797  -17.3428   17.9525 C   0  0  0  0  0  0  0  0  0  0  0  0
  -18.9975  -19.2274   17.5426 C   0  0  0  0  0  0  0  0  0  0  0  0
  -24.5351  -20.6877   13.7911 C   0  0  0  0  0  0  0  0  0  0  0  0
  -31.4944  -13.4109   24.0065 C   0  0  0  0  0  0  0  0  0  0  0  0
  -31.4576  -14.8966   24.3169 C   0  0  0  0  0  0  0  0  0  0  0  0
  -28.8627  -22.1977   21.7540 C   0  0  0  0  0  0  0  0  0  1  0  0
  -29.5684  -21.2089   22.6615 C   0  0  0  0  0  0  0  0  0  0  0  0
  -21.4831  -19.6863   17.6012 C   0  0  1  0  0  0  0  0  0  0  0  0
  -22.7079  -19.0092   14.0783 C   0  0  2  0  0  0  0  0  0  0  0  0
  -20.3318  -18.8430   18.2184 C   0  0  0  0  0  0  0  0  0  0  0  0
  -25.9301  -11.6558   20.6013 N   0  0  0  0  0  0  0  0  0  0  0  0
  -26.2642  -12.9438   20.4127 N   0  0  0  0  0  0  0  0  0  0  0  0
  -22.3328  -21.7989   18.5700 N   0  0  0  0  0  0  0  0  0  0  0  0
  -30.0737  -12.7262   20.6344 N   0  0  0  0  0  0  0  0  0  0  0  0
  -25.3642  -15.1321   20.3041 N   0  0  0  0  0  0  0  0  0  0  0  0
  -21.7431  -12.5550   21.1054 N   0  0  0  0  0  0  0  0  0  0  0  0
  -20.7354  -24.1270   20.7514 N   0  0  0  0  0  0  0  0  0  0  0  0
  -21.6314  -19.5295   16.1584 N   0  0  0  0  0  0  0  0  0  0  0  0
  -30.6146  -13.0687   22.9112 N   0  0  0  0  0  0  0  0  0  0  0  0
  -24.0201  -19.3362   13.4520 N   0  3  0  0  0  0  0  0  0  0  0  0
  -22.4566  -14.7055   20.7516 O   0  0  0  0  0  0  0  0  0  0  0  0
  -21.9875  -22.2074   21.1634 O   0  0  0  0  0  0  0  0  0  0  0  0
  -20.3084  -21.7385   17.4147 O   0  0  0  0  0  0  0  0  0  0  0  0
  -23.8309  -18.7968   16.2069 O   0  0  0  0  0  0  0  0  0  0  0  0
  -32.2028  -13.3745   21.2860 O   0  0  0  0  0  0  0  0  0  0  0  0
  -21.7117   -7.0177   21.7160 O   0  0  0  0  0  0  0  0  0  0  0  0
  -28.0726  -21.4795   20.8072 O   0  0  0  0  0  0  0  0  0  1  0  0
  -28.5958  -20.4069   23.3204 O   0  0  0  0  0  0  0  0  0  0  0  0
  -30.1276  -15.2747   24.6660 O   0  0  0  0  0  0  0  0  0  0  0  0
  -16.9849   -6.3348   18.9600 F   0  0  0  0  0  0  0  0  0  0  0  0
  -19.6343   -8.8204   21.9944 F   0  0  0  0  0  0  0  0  0  0  0  0
  1  2  1  0  0  0  0
  1  5  2  0  0  0  0
  2  6  2  0  0  0  0
  3  8  2  0  0  0  0
  3 18  1  0  0  0  0
  4  9  1  0  0  0  0
  4 18  2  0  0  0  0
  5 20  1  0  0  0  0
  6 22  1  0  0  0  0
  7 10  2  0  0  0  0
  7 21  1  0  0  0  0
  8 25  1  0  0  0  0
  9 25  2  0  0  0  0
 10 26  1  0  0  0  0
 11 12  2  0  0  0  0
 11 27  1  0  0  0  0
 12 28  1  0  0  0  0
 13 14  2  0  0  0  0
 13 29  1  0  0  0  0
 14 30  1  0  0  0  0
 15 23  1  0  0  0  0
 15 26  2  0  0  0  0
 16 24  1  0  0  0  0
 16 27  2  0  0  0  0
 17 30  2  0  0  0  0
 17 31  1  0  0  0  0
 18 32  1  0  0  0  0
 19 32  1  0  0  0  0
 19 33  2  0  0  0  0
 19 34  1  0  0  0  0
 20 22  2  0  0  0  0
 20 39  1  0  0  0  0
 21 23  2  0  0  0  0
 21 40  1  0  0  0  0
 22 51  1  0  0  0  0
 23 41  1  0  0  0  0
 24 28  2  0  0  0  0
 24 50  1  0  0  0  0
 25 81  1  0  0  0  0
 26 82  1  0  0  0  0
 27 83  1  0  0  0  0
 28 84  1  0  0  0  0
 29 31  2  0  0  0  0
 29 81  1  0  0  0  0
 30 85  1  0  0  0  0
 31 86  1  0  0  0  0
 32 66  2  0  0  0  0
 33 67  1  0  0  0  0
 33 70  1  0  0  0  0
 34 71  1  0  0  0  0
 34 76  2  0  0  0  0
 35 52  1  0  0  0  0
 35 72  1  0  0  0  0
 35 77  2  0  0  0  0
 36 63  1  0  0  0  0
 36 68  1  0  0  0  0
 36 78  2  0  0  0  0
 37 64  1  0  0  0  0
 37 73  1  0  0  0  0
 37 79  2  0  0  0  0
 38 69  1  0  0  0  0
 38 74  1  0  0  0  0
 38 80  2  0  0  0  0
 39 42  1  0  0  0  0
 40 52  1  0  0  0  0
 41 68  1  0  0  0  0
 42 46  1  0  0  0  0
 43 47  1  0  0  0  0
 43 48  1  0  0  0  0
 44 45  1  0  0  0  0
 44 50  1  0  0  0  0
 45 50  1  0  0  0  0
 46 51  1  0  0  0  0
 47 53  1  0  0  0  0
 48 69  1  0  0  0  0
 49 53  1  0  0  0  0
 49 69  1  0  0  0  0
 51 72  1  0  0  0  0
 52 68  1  0  0  0  0
 53 67  1  0  0  0  0
 54 64  1  0  0  0  0
 55 65  1  0  0  0  0
 56 65  1  0  0  0  0
 57 65  1  0  0  0  0
 58 75  1  0  0  0  0
 59 60  1  0  0  0  0
 59 74  1  0  0  0  0
 60 84  1  0  0  0  0
 61 62  1  0  0  0  0
 61 82  1  0  0  0  0
 62 83  1  0  0  0  0
 63 65  1  0  0  0  0
 63 73  1  0  0  0  0
 64 75  1  0  0  0  0
 66 67  1  0  0  0  0
M  CHG  1  75   1
M  ISO  4  38 100  61 101  74 100  82 101
M  END
> <Batch ID>
0146

> <Smiles>
CNC(C)C(=O)NC(C(=O)N1Cc2cc([101O:1][101CH2:1]COc3ccc(OCC[100NH:0][100C:0](=O)N4CCCC(n5nc(-c6ccc(Oc7ccc(F)cc7F)cc6)c(C(N)=O)c5N)C4)c(C4CC4)c3)ccc2CC1C(=O)NC1CCCc2ccccc21)C(C)(C)C

> <Shape>
0.183

> <Color>
0.188

> <Negative vol penalty>
0.000

$$$$

  -OEChem-04052321313D

 91101  0     1  0  0  0  0  0999 V2000
  -25.9223  -23.9700   24.2030 C   0  0  0  0  0  0  0  0  0  0  0  0
  -26.5025  -22.9764   23.4210 C   0  0  0  0  0  0  0  0  0  0  0  0
  -24.4851  -27.8977   19.6216 C   0  0  0  0  0  0  0  0  0  0  0  0
  -24.3175  -26.4015   21.5111 C   0  0  0  0  0  0  0  0  0  0  0  0
  -25.0874  -23.6220   25.2640 C   0  0  0  0  0  0  0  0  0  0  0  0
  -26.2489  -21.6339   23.7004 C   0  0  0  0  0  0  0  0  0  0  0  0
  -25.2456  -18.9383   19.5324 C   0  0  0  0  0  0  0  0  0  0  0  0
  -23.0961  -27.8925   19.4942 C   0  0  0  0  0  0  0  0  0  0  0  0
  -22.9284  -26.3962   21.3837 C   0  0  0  0  0  0  0  0  0  0  0  0
  -26.3301  -18.5614   18.7415 C   0  0  0  0  0  0  0  0  0  0  0  0
  -30.6309  -15.5507   22.8251 C   0  0  0  0  0  0  0  0  0  0  0  0
  -30.8694  -15.9950   21.5247 C   0  0  0  0  0  0  0  0  0  0  0  0
  -19.3166  -26.2747   21.7809 C   0  0  0  0  0  0  0  0  0  0  0  0
  -18.5575  -26.4158   22.9426 C   0  0  0  0  0  0  0  0  0  0  0  0
  -26.2782  -16.3612   19.7293 C   0  0  0  0  0  0  0  0  0  0  0  0
  -19.5852  -28.5635   23.3531 C   0  0  0  0  0  0  0  0  0  0  0  0
  -25.0958  -27.1522   20.6301 C   0  0  0  0  0  0  0  0  0  0  0  0
  -27.3109  -28.0405   21.5312 C   0  0  0  0  0  0  0  0  0  0  0  0
  -24.8158  -22.2748   25.5505 C   0  0  0  0  0  0  0  0  0  0  0  0
  -24.6752  -18.0313   20.4371 C   0  0  0  0  0  0  0  0  0  0  0  0
  -25.4107  -21.2675   24.7670 C   0  0  0  0  0  0  0  0  0  0  0  0
  -25.1849  -16.7283   20.5287 C   0  0  0  0  0  0  0  0  0  0  0  0
  -29.6984  -17.7065   23.3908 C   0  0  0  0  0  0  0  0  0  0  0  0
  -29.9369  -18.1509   22.0903 C   0  0  0  0  0  0  0  0  0  0  0  0
  -22.3178  -27.1418   20.3753 C   0  0  0  0  0  0  0  0  0  0  0  0
  -26.8484  -17.2736   18.8419 C   0  0  0  0  0  0  0  0  0  0  0  0
  -30.0454  -16.4064   23.7582 C   0  0  0  0  0  0  0  0  0  0  0  0
  -30.5224  -17.2951   21.1572 C   0  0  0  0  0  0  0  0  0  0  0  0
  -20.2100  -27.2779   21.4054 C   0  0  0  0  0  0  0  0  0  0  0  0
  -18.6918  -27.5602   23.7287 C   0  0  0  0  0  0  0  0  0  0  0  0
  -20.3443  -28.4223   22.1915 C   0  0  0  0  0  0  0  0  0  0  0  0
  -26.5306  -27.1567   20.7619 C   0  0  0  0  0  0  0  0  0  0  0  0
  -28.6042  -27.6288   21.3210 C   0  0  0  0  0  0  0  0  0  0  0  0
  -26.9030  -29.1358   22.3618 C   0  0  0  0  0  0  0  0  0  0  0  0
  -24.3105  -17.9411   23.5935 C   0  0  0  0  0  0  0  0  0  0  0  0
  -22.5816  -15.2786   22.9266 C   0  0  0  0  0  0  0  0  0  0  0  0
  -21.9360  -12.7059   20.7792 C   0  0  0  0  0  0  0  0  0  0  0  0
  -30.9704  -22.3764   19.7046 C   0  0  0  0  0  0  0  0  0  0  0  0
  -23.9446  -21.9463   26.7370 C   0  0  0  0  0  0  0  0  0  0  0  0
  -23.4888  -18.4450   21.2639 C   0  0  0  0  0  0  0  0  0  0  0  0
  -24.5957  -15.7106   21.4698 C   0  0  0  0  0  0  0  0  0  0  0  0
  -23.4281  -20.5099   26.7343 C   0  0  0  0  0  0  0  0  0  0  0  0
  -31.3914  -25.4941   18.0966 C   0  0  0  0  0  0  0  0  0  0  0  0
  -29.7126  -19.9514   24.6690 C   0  0  0  0  0  0  0  0  0  0  0  0
  -29.7819  -18.8670   25.6983 C   0  0  0  0  0  0  0  0  0  0  0  0
  -24.5590  -19.5365   26.4175 C   0  0  0  0  0  0  0  0  0  0  0  0
  -30.2508  -26.3527   18.6360 C   0  0  0  0  0  0  0  0  0  0  0  0
  -28.5881  -19.7042   20.5037 C   0  0  0  0  0  0  0  0  0  0  0  0
  -30.9359  -24.0553   17.8934 C   0  0  0  0  0  0  0  0  0  0  0  0
  -28.7484  -21.1649   20.1038 C   0  0  0  0  0  0  0  0  0  0  0  0
  -30.7429  -20.4170   21.2015 C   0  0  0  0  0  0  0  0  0  0  0  0
  -29.2685  -24.2649   19.7171 C   0  0  0  0  0  0  0  0  0  0  0  0
  -29.0710  -18.6186   24.3961 C   0  0  0  0  0  0  0  0  0  0  0  0
  -29.5641  -19.5591   21.6825 C   0  0  2  0  0  0  0  0  0  0  0  0
  -25.1400  -19.8008   25.0232 C   0  0  1  0  0  0  0  0  0  0  0  0
  -23.3135  -17.6003   22.5222 C   0  0  1  0  0  0  0  0  0  0  0  0
  -29.6722  -25.7398   19.9208 C   0  0  2  0  0  0  0  0  0  0  0  0
  -28.2637  -14.8961   26.5036 C   0  0  0  0  0  0  0  0  0  0  0  0
  -20.4951  -10.6672   20.5243 C   0  0  0  0  0  0  0  0  0  0  0  0
  -24.3447  -13.7862   24.9201 C   0  0  0  0  0  0  0  0  0  0  0  0
  -23.5173  -11.6375   23.9370 C   0  0  0  0  0  0  0  0  0  0  0  0
  -21.9155  -13.2030   25.0352 C   0  0  0  0  0  0  0  0  0  0  0  0
  -20.6630  -13.7698   18.3284 C   0  0  0  0  0  0  0  0  0  0  0  0
  -30.2289  -17.3359   17.5602 C   0  0  0  0  0  0  0  0  0  0  0  0
  -28.9636  -14.8217   25.1633 C   0  0  0  0  0  0  0  0  0  0  0  0
  -28.8338  -17.9232   17.7051 C   0  0  0  0  0  0  0  0  0  1  0  0
  -30.7240  -16.7188   18.8587 C   0  0  0  0  0  0  0  0  0  0  0  0
  -22.8944  -13.8086   22.7842 C   0  0  1  0  0  0  0  0  0  0  0  0
  -20.6321  -12.1534   20.2323 C   0  0  2  0  0  0  0  0  0  0  0  0
  -23.1805  -13.1284   24.1527 C   0  0  0  0  0  0  0  0  0  0  0  0
  -27.2668  -26.2519   20.1113 N   0  0  0  0  0  0  0  0  0  0  0  0
  -28.5232  -26.5650   20.4713 N   0  0  0  0  0  0  0  0  0  0  0  0
  -23.4406  -16.1650   22.2616 N   0  0  0  0  0  0  0  0  0  0  0  0
  -30.3606  -23.4892   19.1149 N   0  0  0  0  0  0  0  0  0  0  0  0
  -30.1546  -21.4614   20.3690 N   0  0  0  0  0  0  0  0  0  0  0  0
  -29.7914  -28.0765   21.7818 N   0  0  0  0  0  0  0  0  0  0  0  0
  -25.5349  -29.4219   22.4660 N   0  0  0  0  0  0  0  0  0  0  0  0
  -24.2686  -19.2605   24.0018 N   0  0  0  0  0  0  0  0  0  0  0  0
  -21.7793  -13.2235   22.0476 N   0  0  0  0  0  0  0  0  0  0  0  0
  -20.5643  -12.3507   18.7567 N   0  3  0  0  0  0  0  0  0  0  0  0
  -27.7284  -29.8501   22.9798 O   0  0  0  0  0  0  0  0  0  0  0  0
  -25.0610  -17.0709   24.0193 O   0  0  0  0  0  0  0  0  0  0  0  0
  -21.6066  -15.6273   23.5970 O   0  0  0  0  0  0  0  0  0  0  0  0
  -22.9890  -12.6776   20.1461 O   0  0  0  0  0  0  0  0  0  0  0  0
  -32.1900  -22.1847   19.6068 O   0  0  0  0  0  0  0  0  0  0  0  0
  -20.9624  -27.1366   20.2514 O   0  0  0  0  0  0  0  0  0  0  0  0
  -27.9150  -16.9007   18.0660 O   0  0  0  0  0  0  0  0  0  1  0  0
  -29.8208  -15.9527   25.0235 O   0  0  0  0  0  0  0  0  0  0  0  0
  -30.7634  -17.7111   19.8821 O   0  0  0  0  0  0  0  0  0  0  0  0
  -17.9616  -27.6963   24.8434 F   0  0  0  0  0  0  0  0  0  0  0  0
  -21.2001  -29.3900   21.8352 F   0  0  0  0  0  0  0  0  0  0  0  0
  1  2  1  0  0  0  0
  1  5  2  0  0  0  0
  2  6  2  0  0  0  0
  3  8  2  0  0  0  0
  3 17  1  0  0  0  0
  4  9  1  0  0  0  0
  4 17  2  0  0  0  0
  5 19  1  0  0  0  0
  6 21  1  0  0  0  0
  7 10  2  0  0  0  0
  7 20  1  0  0  0  0
  8 25  1  0  0  0  0
  9 25  2  0  0  0  0
 10 26  1  0  0  0  0
 11 12  2  0  0  0  0
 11 27  1  0  0  0  0
 12 28  1  0  0  0  0
 13 14  2  0  0  0  0
 13 29  1  0  0  0  0
 14 30  1  0  0  0  0
 15 22  1  0  0  0  0
 15 26  2  0  0  0  0
 16 30  2  0  0  0  0
 16 31  1  0  0  0  0
 17 32  1  0  0  0  0
 18 32  1  0  0  0  0
 18 33  2  0  0  0  0
 18 34  1  0  0  0  0
 19 21  2  0  0  0  0
 19 39  1  0  0  0  0
 20 22  2  0  0  0  0
 20 40  1  0  0  0  0
 21 55  1  0  0  0  0
 22 41  1  0  0  0  0
 23 24  1  0  0  0  0
 23 27  2  0  0  0  0
 23 53  1  0  0  0  0
 24 28  2  0  0  0  0
 24 54  1  0  0  0  0
 25 86  1  0  0  0  0
 26 87  1  0  0  0  0
 27 88  1  0  0  0  0
 28 89  1  0  0  0  0
 29 31  2  0  0  0  0
 29 86  1  0  0  0  0
 30 90  1  0  0  0  0
 31 91  1  0  0  0  0
 32 71  2  0  0  0  0
 33 72  1  0  0  0  0
 33 76  1  0  0  0  0
 34 77  1  0  0  0  0
 34 81  2  0  0  0  0
 35 56  1  0  0  0  0
 35 78  1  0  0  0  0
 35 82  2  0  0  0  0
 36 68  1  0  0  0  0
 36 73  1  0  0  0  0
 36 83  2  0  0  0  0
 37 69  1  0  0  0  0
 37 79  1  0  0  0  0
 37 84  2  0  0  0  0
 38 74  1  0  0  0  0
 38 75  1  0  0  0  0
 38 85  2  0  0  0  0
 39 42  1  0  0  0  0
 40 56  1  0  0  0  0
 41 73  1  0  0  0  0
 42 46  1  0  0  0  0
 43 47  1  0  0  0  0
 43 49  1  0  0  0  0
 44 45  1  0  0  0  0
 44 53  1  0  0  0  0
 45 53  1  0  0  0  0
 46 55  1  0  0  0  0
 47 57  1  0  0  0  0
 48 50  1  0  0  0  0
 48 54  1  0  0  0  0
 49 74  1  0  0  0  0
 50 75  1  0  0  0  0
 51 54  1  0  0  0  0
 51 75  1  0  0  0  0
 52 57  1  0  0  0  0
 52 74  1  0  0  0  0
 55 78  1  0  0  0  0
 56 73  1  0  0  0  0
 57 72  1  0  0  0  0
 58 65  1  0  0  0  0
 59 69  1  0  0  0  0
 60 70  1  0  0  0  0
 61 70  1  0  0  0  0
 62 70  1  0  0  0  0
 63 80  1  0  0  0  0
 64 66  1  0  0  0  0
 64 67  1  0  0  0  0
 65 88  1  0  0  0  0
 66 87  1  0  0  0  0
 67 89  1  0  0  0  0
 68 70  1  0  0  0  0
 68 79  1  0  0  0  0
 69 80  1  0  0  0  0
 71 72  1  0  0  0  0
M  CHG  1  80   1
M  ISO  4  38 100  66 101  75 100  87 101
M  END
> <Batch ID>
0146

> <Smiles>
CCOc1ccc(OCC[101CH2:1][101O:1]c2ccc3c(c2)CN(C(=O)C(NC(=O)C(C)NC)C(C)(C)C)C(C(=O)NC2CCCc4ccccc42)C3)c(C2CC[100N:0]([100C:0](=O)N3CCCC(n4nc(-c5ccc(Oc6ccc(F)cc6F)cc5)c(C(N)=O)c4N)C3)C2)c1C1CC1

> <Shape>
0.218

> <Color>
0.053

> <Negative vol penalty>
0.000

$$$$

  -OEChem-04052321313D

 89 98  0     1  0  0  0  0  0999 V2000
  -30.9375  -21.6678   16.3426 C   0  0  0  0  0  0  0  0  0  0  0  0
  -30.5376  -21.7615   17.6718 C   0  0  0  0  0  0  0  0  0  0  0  0
  -27.3009  -11.1105   20.3537 C   0  0  0  0  0  0  0  0  0  0  0  0
  -26.4013  -12.4642   18.5661 C   0  0  0  0  0  0  0  0  0  0  0  0
  -31.0845  -22.8236   15.5770 C   0  0  0  0  0  0  0  0  0  0  0  0
  -30.2855  -23.0113   18.2364 C   0  0  0  0  0  0  0  0  0  0  0  0
  -26.0299  -23.0809   20.9804 C   0  0  0  0  0  0  0  0  0  0  0  0
  -26.2614  -10.1960   20.1844 C   0  0  0  0  0  0  0  0  0  0  0  0
  -25.3618  -11.5496   18.3968 C   0  0  0  0  0  0  0  0  0  0  0  0
  -26.0863  -22.5236   22.2571 C   0  0  0  0  0  0  0  0  0  0  0  0
  -22.9995   -9.9479   21.0345 C   0  0  0  0  0  0  0  0  0  0  0  0
  -22.3585   -9.4771   22.1804 C   0  0  0  0  0  0  0  0  0  0  0  0
  -30.2763  -18.7427   28.1961 C   0  0  0  0  0  0  0  0  0  0  0  0
  -26.2954  -24.7318   23.2053 C   0  0  0  0  0  0  0  0  0  0  0  0
  -29.9291  -19.7541   26.0418 C   0  0  0  0  0  0  0  0  0  0  0  0
  -23.0003   -7.2185   21.6112 C   0  0  0  0  0  0  0  0  0  0  0  0
  -29.4127  -19.6909   28.7205 C   0  0  0  0  0  0  0  0  0  0  0  0
  -27.3709  -12.2446   19.5446 C   0  0  0  0  0  0  0  0  0  0  0  0
  -29.8242  -12.9418   19.5950 C   0  0  0  0  0  0  0  0  0  0  0  0
  -30.8248  -24.0876   16.1297 C   0  0  0  0  0  0  0  0  0  0  0  0
  -26.1169  -24.4696   20.8055 C   0  0  0  0  0  0  0  0  0  0  0  0
  -30.4305  -24.1853   17.4778 C   0  0  0  0  0  0  0  0  0  0  0  0
  -30.5341  -18.7817   26.8304 C   0  0  0  0  0  0  0  0  0  0  0  0
  -26.2373  -25.3045   21.9256 C   0  0  0  0  0  0  0  0  0  0  0  0
  -25.2919  -10.4155   19.2059 C   0  0  0  0  0  0  0  0  0  0  0  0
  -26.2220  -23.3488   23.3696 C   0  0  0  0  0  0  0  0  0  0  0  0
  -23.6409   -9.0541   20.1770 C   0  0  0  0  0  0  0  0  0  0  0  0
  -22.3589   -8.1123   22.4687 C   0  0  0  0  0  0  0  0  0  0  0  0
  -23.6413   -7.6894   20.4654 C   0  0  0  0  0  0  0  0  0  0  0  0
  -28.4441  -13.1900   19.7195 C   0  0  0  0  0  0  0  0  0  0  0  0
  -29.0808  -20.6568   26.6626 C   0  0  0  0  0  0  0  0  0  0  0  0
  -30.4159  -14.1536   19.8560 C   0  0  0  0  0  0  0  0  0  0  0  0
  -30.5101  -11.7248   19.2722 C   0  0  0  0  0  0  0  0  0  0  0  0
  -28.1452  -26.4217   19.3295 C   0  0  0  0  0  0  0  0  0  0  0  0
  -33.6214  -17.8129   27.4457 C   0  0  0  0  0  0  0  0  0  0  0  0
  -25.9578  -28.6755   20.1406 C   0  0  0  0  0  0  0  0  0  0  0  0
  -23.4267  -29.6420   22.2157 C   0  0  0  0  0  0  0  0  0  0  0  0
  -30.9090  -18.8053   22.6976 C   0  0  0  0  0  0  0  0  0  0  0  0
  -31.0432  -25.3119   15.2764 C   0  0  0  0  0  0  0  0  0  0  0  0
  -26.0276  -25.0569   19.4237 C   0  0  0  0  0  0  0  0  0  0  0  0
  -26.3145  -26.8028   21.7931 C   0  0  0  0  0  0  0  0  0  0  0  0
  -30.3943  -26.5724   15.8423 C   0  0  0  0  0  0  0  0  0  0  0  0
  -28.4284  -18.7748   20.2979 C   0  0  0  0  0  0  0  0  0  0  0  0
  -30.6966  -26.7059   17.3315 C   0  0  0  0  0  0  0  0  0  0  0  0
  -28.3131  -17.3005   19.9125 C   0  0  0  0  0  0  0  0  0  0  0  0
  -28.6057  -18.9311   21.8035 C   0  0  0  0  0  0  0  0  0  0  0  0
  -31.0939  -17.3384   24.7655 C   0  0  0  0  0  0  0  0  0  0  0  0
  -29.6841  -16.7112   21.9740 C   0  0  0  0  0  0  0  0  0  0  0  0
  -33.3949  -19.0681   25.2558 C   0  0  0  0  0  0  0  0  0  0  0  0
  -31.4766  -17.7624   26.1996 C   0  0  1  0  0  0  0  0  0  0  0  0
  -30.1238  -25.5213   18.1190 C   0  0  1  0  0  0  0  0  0  0  0  0
  -26.6430  -26.4494   19.3254 C   0  0  1  0  0  0  0  0  0  0  0  0
  -29.5044  -16.4934   20.4577 C   0  0  1  0  0  0  0  0  0  0  0  0
  -33.0893  -18.5341   23.8555 C   0  0  1  0  0  0  0  0  0  0  0  0
  -35.1195  -17.7346   27.2911 C   0  0  0  0  0  0  0  0  0  0  0  0
  -33.9682  -17.3320   23.4986 C   0  0  0  0  0  0  0  0  0  0  0  0
  -21.8604  -31.5528   22.6549 C   0  0  0  0  0  0  0  0  0  0  0  0
  -28.2363  -30.2443   21.4279 C   0  0  0  0  0  0  0  0  0  0  0  0
  -26.5207  -31.6071   22.6392 C   0  0  0  0  0  0  0  0  0  0  0  0
  -26.6033  -31.6389   20.1463 C   0  0  0  0  0  0  0  0  0  0  0  0
  -21.0459  -27.9586   21.7090 C   0  0  0  0  0  0  0  0  0  0  0  0
  -27.0345  -23.5141   25.5986 C   0  0  0  0  0  0  0  0  0  1  0  0
  -27.6130  -22.5267   26.5936 C   0  0  0  0  0  0  0  0  0  0  0  0
  -25.7438  -29.5779   21.3318 C   0  0  1  0  0  0  0  0  0  0  0  0
  -22.0578  -30.2317   21.9279 C   0  0  2  0  0  0  0  0  0  0  0  0
  -26.7765  -30.7387   21.3890 C   0  0  0  0  0  0  0  0  0  0  0  0
  -28.8062  -20.6504   27.9863 N   0  0  0  0  0  0  0  0  0  0  0  0
  -28.1749  -14.4596   20.0352 N   0  0  0  0  0  0  0  0  0  0  0  0
  -29.3940  -15.0200   20.1114 N   0  0  0  0  0  0  0  0  0  0  0  0
  -26.2291  -27.3288   20.4207 N   0  0  0  0  0  0  0  0  0  0  0  0
  -32.8879  -18.1831   26.3118 N   0  0  0  0  0  0  0  0  0  0  0  0
  -29.7413  -18.1465   22.2872 N   0  0  0  0  0  0  0  0  0  0  0  0
  -31.6642  -18.1975   23.7169 N   0  0  0  0  0  0  0  0  0  0  0  0
  -31.7053  -14.5518   19.8898 N   0  0  0  0  0  0  0  0  0  0  0  0
  -30.7731  -11.4433   17.9247 N   0  0  0  0  0  0  0  0  0  0  0  0
  -28.6971  -25.6792   18.3030 N   0  0  0  0  0  0  0  0  0  0  0  0
  -24.3541  -30.0171   21.2667 N   0  0  0  0  0  0  0  0  0  0  0  0
  -20.9868  -29.2912   22.3630 N   0  3  0  0  0  0  0  0  0  0  0  0
  -30.8642  -10.9033   20.1515 O   0  0  0  0  0  0  0  0  0  0  0  0
  -28.7584  -27.0302   20.1987 O   0  0  0  0  0  0  0  0  0  0  0  0
  -33.1175  -17.5490   28.5408 O   0  0  0  0  0  0  0  0  0  0  0  0
  -25.8798  -29.1467   19.0032 O   0  0  0  0  0  0  0  0  0  0  0  0
  -23.6517  -28.9238   23.1873 O   0  0  0  0  0  0  0  0  0  0  0  0
  -31.2456  -19.8848   22.1949 O   0  0  0  0  0  0  0  0  0  0  0  0
  -24.2775   -9.5232   19.0402 O   0  0  0  0  0  0  0  0  0  0  0  0
  -26.2783  -22.8037   24.6253 O   0  0  0  0  0  0  0  0  0  1  0  0
  -28.4738  -21.6258   25.9072 O   0  0  0  0  0  0  0  0  0  0  0  0
  -21.7446   -7.6605   23.5699 F   0  0  0  0  0  0  0  0  0  0  0  0
  -24.2568   -6.8260   19.6459 F   0  0  0  0  0  0  0  0  0  0  0  0
  1  2  1  0  0  0  0
  1  5  2  0  0  0  0
  2  6  2  0  0  0  0
  3  8  2  0  0  0  0
  3 18  1  0  0  0  0
  4  9  1  0  0  0  0
  4 18  2  0  0  0  0
  5 20  1  0  0  0  0
  6 22  1  0  0  0  0
  7 10  2  0  0  0  0
  7 21  1  0  0  0  0
  8 25  1  0  0  0  0
  9 25  2  0  0  0  0
 10 26  1  0  0  0  0
 11 12  2  0  0  0  0
 11 27  1  0  0  0  0
 12 28  1  0  0  0  0
 13 17  2  0  0  0  0
 13 23  1  0  0  0  0
 14 24  1  0  0  0  0
 14 26  2  0  0  0  0
 15 23  2  0  0  0  0
 15 31  1  0  0  0  0
 16 28  2  0  0  0  0
 16 29  1  0  0  0  0
 17 67  1  0  0  0  0
 18 30  1  0  0  0  0
 19 30  1  0  0  0  0
 19 32  2  0  0  0  0
 19 33  1  0  0  0  0
 20 22  2  0  0  0  0
 20 39  1  0  0  0  0
 21 24  2  0  0  0  0
 21 40  1  0  0  0  0
 22 51  1  0  0  0  0
 23 50  1  0  0  0  0
 24 41  1  0  0  0  0
 25 85  1  0  0  0  0
 26 86  1  0  0  0  0
 27 29  2  0  0  0  0
 27 85  1  0  0  0  0
 28 88  1  0  0  0  0
 29 89  1  0  0  0  0
 30 68  2  0  0  0  0
 31 67  2  0  0  0  0
 31 87  1  0  0  0  0
 32 69  1  0  0  0  0
 32 74  1  0  0  0  0
 33 75  1  0  0  0  0
 33 79  2  0  0  0  0
 34 52  1  0  0  0  0
 34 76  1  0  0  0  0
 34 80  2  0  0  0  0
 35 55  1  0  0  0  0
 35 71  1  0  0  0  0
 35 81  2  0  0  0  0
 36 64  1  0  0  0  0
 36 70  1  0  0  0  0
 36 82  2  0  0  0  0
 37 65  1  0  0  0  0
 37 77  1  0  0  0  0
 37 83  2  0  0  0  0
 38 72  1  0  0  0  0
 38 73  1  0  0  0  0
 38 84  2  0  0  0  0
 39 42  1  0  0  0  0
 40 52  1  0  0  0  0
 41 70  1  0  0  0  0
 42 44  1  0  0  0  0
 43 45  1  0  0  0  0
 43 46  1  0  0  0  0
 44 51  1  0  0  0  0
 45 53  1  0  0  0  0
 46 72  1  0  0  0  0
 47 50  1  0  0  0  0
 47 73  1  0  0  0  0
 48 53  1  0  0  0  0
 48 72  1  0  0  0  0
 49 54  1  0  0  0  0
 49 71  1  0  0  0  0
 50 71  1  0  0  0  0
 51 76  1  0  0  0  0
 52 70  1  0  0  0  0
 53 69  1  0  0  0  0
 54 56  1  0  0  0  0
 54 73  1  0  0  0  0
 57 65  1  0  0  0  0
 58 66  1  0  0  0  0
 59 66  1  0  0  0  0
 60 66  1  0  0  0  0
 61 78  1  0  0  0  0
 62 63  1  0  0  0  0
 62 86  1  0  0  0  0
 63 87  1  0  0  0  0
 64 66  1  0  0  0  0
 64 77  1  0  0  0  0
 65 78  1  0  0  0  0
 68 69  1  0  0  0  0
M  CHG  1  78   1
M  ISO  4  38 100  62 101  73 100  86 101
M  END
> <Batch ID>
0146

> <Smiles>
CNC(C)C(=O)NC(C(=O)N1Cc2cc([101O:1][101CH2:1]COc3cc(C4C[100N:0]([100C:0](=O)N5CCCC(n6nc(-c7ccc(Oc8ccc(F)cc8F)cc7)c(C(N)=O)c6N)C5)C(C)CN4C(C)=O)ccn3)ccc2CC1C(=O)NC1CCCc2ccccc21)C(C)(C)C

> <Shape>
0.243

> <Color>
0.083

> <Negative vol penalty>
0.000

$$$$

  -OEChem-04052321313D

 86 95  0     1  0  0  0  0  0999 V2000
  -28.2697  -24.6897   16.6136 C   0  0  0  0  0  0  0  0  0  0  0  0
  -27.1193  -25.3792   16.9800 C   0  0  0  0  0  0  0  0  0  0  0  0
  -23.3894  -14.0936   22.4378 C   0  0  0  0  0  0  0  0  0  0  0  0
  -25.3903  -13.9097   23.7794 C   0  0  0  0  0  0  0  0  0  0  0  0
  -29.3944  -24.7323   17.4347 C   0  0  0  0  0  0  0  0  0  0  0  0
  -27.0973  -26.1212   18.1614 C   0  0  0  0  0  0  0  0  0  0  0  0
  -23.1166  -28.8920   18.9865 C   0  0  0  0  0  0  0  0  0  0  0  0
  -21.6673  -22.7985   18.7180 C   0  0  0  0  0  0  0  0  0  0  0  0
  -23.1773  -12.7209   22.5661 C   0  0  0  0  0  0  0  0  0  0  0  0
  -25.1781  -12.5371   23.9078 C   0  0  0  0  0  0  0  0  0  0  0  0
  -21.8785  -28.3497   19.3280 C   0  0  0  0  0  0  0  0  0  0  0  0
  -20.8810  -23.3813   19.7117 C   0  0  0  0  0  0  0  0  0  0  0  0
  -22.3056   -9.2056   22.2407 C   0  0  0  0  0  0  0  0  0  0  0  0
  -21.9538   -8.4923   21.0949 C   0  0  0  0  0  0  0  0  0  0  0  0
  -22.2325  -29.0022   21.6232 C   0  0  0  0  0  0  0  0  0  0  0  0
  -22.8751  -23.9919   20.9315 C   0  0  0  0  0  0  0  0  0  0  0  0
  -24.0239   -9.1603   20.0434 C   0  0  0  0  0  0  0  0  0  0  0  0
  -24.4960  -14.6880   23.0445 C   0  0  0  0  0  0  0  0  0  0  0  0
  -24.2403  -17.1229   23.7609 C   0  0  0  0  0  0  0  0  0  0  0  0
  -29.3812  -25.4653   18.6329 C   0  0  0  0  0  0  0  0  0  0  0  0
  -23.9282  -29.4847   19.9644 C   0  0  0  0  0  0  0  0  0  0  0  0
  -28.2303  -26.1961   18.9916 C   0  0  0  0  0  0  0  0  0  0  0  0
  -23.4795  -29.5535   21.2911 C   0  0  0  0  0  0  0  0  0  0  0  0
  -23.0576  -22.8122   18.8310 C   0  0  0  0  0  0  0  0  0  0  0  0
  -23.6614  -23.4090   19.9378 C   0  0  0  0  0  0  0  0  0  0  0  0
  -24.0716  -11.9427   23.3010 C   0  0  0  0  0  0  0  0  0  0  0  0
  -21.4375  -28.4022   20.6470 C   0  0  0  0  0  0  0  0  0  0  0  0
  -21.4849  -23.9780   20.8185 C   0  0  0  0  0  0  0  0  0  0  0  0
  -23.5166   -9.8963   22.2880 C   0  0  0  0  0  0  0  0  0  0  0  0
  -22.8129   -8.4696   19.9962 C   0  0  0  0  0  0  0  0  0  0  0  0
  -24.3757   -9.8736   21.1894 C   0  0  0  0  0  0  0  0  0  0  0  0
  -24.7160  -16.1058   22.9118 C   0  0  0  0  0  0  0  0  0  0  0  0
  -24.7196  -18.2847   23.2069 C   0  0  0  0  0  0  0  0  0  0  0  0
  -23.4371  -17.0262   24.9447 C   0  0  0  0  0  0  0  0  0  0  0  0
  -26.8210  -28.8906   21.1402 C   0  0  0  0  0  0  0  0  0  0  0  0
  -26.3192  -31.6727   22.7310 C   0  0  0  0  0  0  0  0  0  0  0  0
  -24.0893  -33.9285   23.9903 C   0  0  0  0  0  0  0  0  0  0  0  0
  -25.8147  -20.6964   18.1198 C   0  0  0  0  0  0  0  0  0  0  0  0
  -30.6291  -25.4835   19.4800 C   0  0  0  0  0  0  0  0  0  0  0  0
  -25.2495  -30.0889   19.5749 C   0  0  0  0  0  0  0  0  0  0  0  0
  -24.3040  -30.1971   22.3748 C   0  0  0  0  0  0  0  0  0  0  0  0
  -30.3665  -25.9254   20.9160 C   0  0  0  0  0  0  0  0  0  0  0  0
  -28.3890  -19.4343   20.1206 C   0  0  0  0  0  0  0  0  0  0  0  0
  -29.5506  -27.2094   20.9237 C   0  0  0  0  0  0  0  0  0  0  0  0
  -27.6735  -18.5319   21.1238 C   0  0  0  0  0  0  0  0  0  0  0  0
  -22.7918  -19.2457   17.0328 C   0  0  0  0  0  0  0  0  0  0  0  0
  -23.7842  -18.4215   17.7972 C   0  0  0  0  0  0  0  0  0  0  0  0
  -27.7668  -19.3067   18.7358 C   0  0  0  0  0  0  0  0  0  0  0  0
  -25.5646  -18.7284   19.7100 C   0  0  0  0  0  0  0  0  0  0  0  0
  -28.1730  -26.9850   20.2873 C   0  0  1  0  0  0  0  0  0  0  0  0
  -26.2196  -30.2099   20.7461 C   0  0  1  0  0  0  0  0  0  0  0  0
  -26.1613  -18.8114   21.1301 C   0  0  1  0  0  0  0  0  0  0  0  0
  -23.4536  -19.8146   18.2579 C   0  0  0  0  0  0  0  0  0  0  0  0
  -25.1478  -23.4347   20.0808 C   0  0  0  0  0  0  0  0  0  0  0  0
  -23.9779  -36.0830   25.2721 C   0  0  0  0  0  0  0  0  0  0  0  0
  -26.9627  -30.1702   25.3075 C   0  0  0  0  0  0  0  0  0  0  0  0
  -25.9303  -32.0597   26.5850 C   0  0  0  0  0  0  0  0  0  0  0  0
  -27.9417  -32.4673   25.1670 C   0  0  0  0  0  0  0  0  0  0  0  0
  -22.7364  -35.3218   21.7571 C   0  0  0  0  0  0  0  0  0  0  0  0
  -23.8784  -22.1819   17.7544 C   0  0  0  0  0  0  0  0  0  0  0  0
  -19.0690  -26.2315   22.3173 C   0  0  0  0  0  0  0  0  0  0  0  0
  -20.0926  -27.3560   22.3061 C   0  0  0  0  0  0  0  0  0  1  0  0
  -19.4636  -25.0938   21.3888 C   0  0  0  0  0  0  0  0  0  0  0  0
  -25.7080  -32.0497   24.0588 C   0  0  1  0  0  0  0  0  0  0  0  0
  -24.0244  -35.4421   23.8938 C   0  0  2  0  0  0  0  0  0  0  0  0
  -26.6208  -31.6728   25.2598 C   0  0  0  0  0  0  0  0  0  0  0  0
  -25.4416  -16.5798   21.8956 N   0  0  0  0  0  0  0  0  0  0  0  0
  -25.4254  -17.9076   22.1024 N   0  0  0  0  0  0  0  0  0  0  0  0
  -25.5913  -30.7680   21.9452 N   0  0  0  0  0  0  0  0  0  0  0  0
  -26.3266  -19.5646   18.7708 N   0  0  0  0  0  0  0  0  0  0  0  0
  -24.6018  -19.5820   23.5615 N   0  0  0  0  0  0  0  0  0  0  0  0
  -23.0312  -15.7555   25.3746 N   0  0  0  0  0  0  0  0  0  0  0  0
  -27.5148  -28.2624   20.1236 N   0  0  0  0  0  0  0  0  0  0  0  0
  -25.3900  -33.4710   23.9730 N   0  0  0  0  0  0  0  0  0  0  0  0
  -24.4232  -20.8906   18.1589 N   0  0  0  0  0  0  0  0  0  0  0  0
  -22.8095  -35.8613   23.1394 N   0  3  0  0  0  0  0  0  0  0  0  0
  -23.0760  -18.0379   25.5924 O   0  0  0  0  0  0  0  0  0  0  0  0
  -26.6682  -28.4741   22.2826 O   0  0  0  0  0  0  0  0  0  0  0  0
  -27.3992  -32.1683   22.3999 O   0  0  0  0  0  0  0  0  0  0  0  0
  -23.0867  -33.2229   24.0765 O   0  0  0  0  0  0  0  0  0  0  0  0
  -26.5553  -21.4830   17.5155 O   0  0  0  0  0  0  0  0  0  0  0  0
  -23.8648  -10.6033   23.4266 O   0  0  0  0  0  0  0  0  0  0  0  0
  -20.2296  -27.8731   20.9832 O   0  0  0  0  0  0  0  0  0  1  0  0
  -20.7123  -24.5504   21.7953 O   0  0  0  0  0  0  0  0  0  0  0  0
  -22.4756   -7.7834   18.8965 F   0  0  0  0  0  0  0  0  0  0  0  0
  -25.5410  -10.5342   21.2293 F   0  0  0  0  0  0  0  0  0  0  0  0
  1  2  1  0  0  0  0
  1  5  2  0  0  0  0
  2  6  2  0  0  0  0
  3  9  2  0  0  0  0
  3 18  1  0  0  0  0
  4 10  1  0  0  0  0
  4 18  2  0  0  0  0
  5 20  1  0  0  0  0
  6 22  1  0  0  0  0
  7 11  2  0  0  0  0
  7 21  1  0  0  0  0
  8 12  2  0  0  0  0
  8 24  1  0  0  0  0
  9 26  1  0  0  0  0
 10 26  2  0  0  0  0
 11 27  1  0  0  0  0
 12 28  1  0  0  0  0
 13 14  2  0  0  0  0
 13 29  1  0  0  0  0
 14 30  1  0  0  0  0
 15 23  1  0  0  0  0
 15 27  2  0  0  0  0
 16 25  1  0  0  0  0
 16 28  2  0  0  0  0
 17 30  2  0  0  0  0
 17 31  1  0  0  0  0
 18 32  1  0  0  0  0
 19 32  1  0  0  0  0
 19 33  2  0  0  0  0
 19 34  1  0  0  0  0
 20 22  2  0  0  0  0
 20 39  1  0  0  0  0
 21 23  2  0  0  0  0
 21 40  1  0  0  0  0
 22 50  1  0  0  0  0
 23 41  1  0  0  0  0
 24 25  2  0  0  0  0
 24 60  1  0  0  0  0
 25 54  1  0  0  0  0
 26 82  1  0  0  0  0
 27 83  1  0  0  0  0
 28 84  1  0  0  0  0
 29 31  2  0  0  0  0
 29 82  1  0  0  0  0
 30 85  1  0  0  0  0
 31 86  1  0  0  0  0
 32 67  2  0  0  0  0
 33 68  1  0  0  0  0
 33 71  1  0  0  0  0
 34 72  1  0  0  0  0
 34 77  2  0  0  0  0
 35 51  1  0  0  0  0
 35 73  1  0  0  0  0
 35 78  2  0  0  0  0
 36 64  1  0  0  0  0
 36 69  1  0  0  0  0
 36 79  2  0  0  0  0
 37 65  1  0  0  0  0
 37 74  1  0  0  0  0
 37 80  2  0  0  0  0
 38 70  1  0  0  0  0
 38 75  1  0  0  0  0
 38 81  2  0  0  0  0
 39 42  1  0  0  0  0
 40 51  1  0  0  0  0
 41 69  1  0  0  0  0
 42 44  1  0  0  0  0
 43 45  1  0  0  0  0
 43 48  1  0  0  0  0
 44 50  1  0  0  0  0
 45 52  1  0  0  0  0
 46 47  1  0  0  0  0
 46 53  1  0  0  0  0
 47 53  1  0  0  0  0
 48 70  1  0  0  0  0
 49 52  1  0  0  0  0
 49 70  1  0  0  0  0
 50 73  1  0  0  0  0
 51 69  1  0  0  0  0
 52 68  1  0  0  0  0
 53 75  1  0  0  0  0
 55 65  1  0  0  0  0
 56 66  1  0  0  0  0
 57 66  1  0  0  0  0
 58 66  1  0  0  0  0
 59 76  1  0  0  0  0
 60 75  1  0  0  0  0
 61 62  1  0  0  0  0
 61 63  1  0  0  0  0
 62 83  1  0  0  0  0
 63 84  1  0  0  0  0
 64 66  1  0  0  0  0
 64 74  1  0  0  0  0
 65 76  1  0  0  0  0
 67 68  1  0  0  0  0
M  CHG  1  76   1
M  ISO  4  38 100  62 101  75 100  83 101
M  END
> <Batch ID>
0146

> <Smiles>
CNC(C)C(=O)NC(C(=O)N1Cc2cc([101O:1][101CH2:1]CCOc3ccc(C[100N:0](C4CC4)[100C:0](=O)N4CCCC(n5nc(-c6ccc(Oc7ccc(F)cc7F)cc6)c(C(N)=O)c5N)C4)c(C)c3)ccc2CC1C(=O)NC1CCCc2ccccc21)C(C)(C)C

> <Shape>
0.251

> <Color>
0.078

> <Negative vol penalty>
0.000

$$$$

  -OEChem-04052321313D

 87 96  0     1  0  0  0  0  0999 V2000
  -24.0762   -8.1181   21.7689 C   0  0  0  0  0  0  0  0  0  0  0  0
  -24.6058   -9.1585   21.0122 C   0  0  0  0  0  0  0  0  0  0  0  0
  -19.6802  -28.7778   22.3357 C   0  0  0  0  0  0  0  0  0  0  0  0
  -20.6352  -26.6292   22.8913 C   0  0  0  0  0  0  0  0  0  0  0  0
  -22.7862   -8.2213   22.2876 C   0  0  0  0  0  0  0  0  0  0  0  0
  -23.8451  -10.3025   20.7730 C   0  0  0  0  0  0  0  0  0  0  0  0
  -26.4967  -14.5685   21.4168 C   0  0  0  0  0  0  0  0  0  0  0  0
  -18.4093  -28.2041   22.3013 C   0  0  0  0  0  0  0  0  0  0  0  0
  -19.3642  -26.0555   22.8570 C   0  0  0  0  0  0  0  0  0  0  0  0
  -27.3646  -14.9398   20.3908 C   0  0  0  0  0  0  0  0  0  0  0  0
  -17.1787  -24.9805   20.5120 C   0  0  0  0  0  0  0  0  0  0  0  0
  -17.0349  -23.7636   19.8457 C   0  0  0  0  0  0  0  0  0  0  0  0
  -27.8076  -19.5214   16.7209 C   0  0  0  0  0  0  0  0  0  0  0  0
  -25.7269  -16.5168   19.5844 C   0  0  0  0  0  0  0  0  0  0  0  0
  -28.4524  -18.4647   19.2209 C   0  0  0  0  0  0  0  0  0  0  0  0
  -16.2707  -22.7330   21.8929 C   0  0  0  0  0  0  0  0  0  0  0  0
  -20.7932  -27.9904   22.6307 C   0  0  0  0  0  0  0  0  0  0  0  0
  -22.5467  -29.6251   23.5028 C   0  0  0  0  0  0  0  0  0  0  0  0
  -22.0129   -9.3712   22.0627 C   0  0  0  0  0  0  0  0  0  0  0  0
  -25.2310  -15.1618   21.5281 C   0  0  0  0  0  0  0  0  0  0  0  0
  -22.5430  -10.4206   21.2881 C   0  0  0  0  0  0  0  0  0  0  0  0
  -28.2868  -20.3577   17.7291 C   0  0  0  0  0  0  0  0  0  0  0  0
  -24.8458  -16.1531   20.6143 C   0  0  0  0  0  0  0  0  0  0  0  0
  -27.6508  -18.1567   16.9627 C   0  0  0  0  0  0  0  0  0  0  0  0
  -18.2513  -26.8429   22.5619 C   0  0  0  0  0  0  0  0  0  0  0  0
  -26.9786  -15.9120   19.4726 C   0  0  0  0  0  0  0  0  0  0  0  0
  -16.8687  -25.0737   21.8688 C   0  0  0  0  0  0  0  0  0  0  0  0
  -28.6092  -19.8294   18.9791 C   0  0  0  0  0  0  0  0  0  0  0  0
  -27.9731  -17.6283   18.2127 C   0  0  0  0  0  0  0  0  0  1  0  0
  -16.5808  -22.6399   20.5362 C   0  0  0  0  0  0  0  0  0  0  0  0
  -16.4146  -23.9500   22.5592 C   0  0  0  0  0  0  0  0  0  0  0  0
  -22.1064  -28.5823   22.6658 C   0  0  0  0  0  0  0  0  0  0  0  0
  -23.8596  -29.8185   23.1487 C   0  0  0  0  0  0  0  0  0  0  0  0
  -21.8327  -30.3537   24.5104 C   0  0  0  0  0  0  0  0  0  0  0  0
  -22.2373  -14.1013   21.3978 C   0  0  0  0  0  0  0  0  0  0  0  0
  -21.5318  -17.1532   22.2406 C   0  0  0  0  0  0  0  0  0  0  0  0
  -22.4750  -20.4323   22.3071 C   0  0  0  0  0  0  0  0  0  0  0  0
  -27.8677  -26.1930   20.7725 C   0  0  0  0  0  0  0  0  0  0  0  0
  -20.6060   -9.4172   22.6042 C   0  0  0  0  0  0  0  0  0  0  0  0
  -24.3171  -14.7694   22.6564 C   0  0  0  0  0  0  0  0  0  0  0  0
  -23.5058  -16.8350   20.7020 C   0  0  0  0  0  0  0  0  0  0  0  0
  -20.0049  -10.8203   22.6197 C   0  0  0  0  0  0  0  0  0  0  0  0
  -26.8362  -29.3897   19.4254 C   0  0  0  0  0  0  0  0  0  0  0  0
  -20.2562  -11.5234   21.2896 C   0  0  0  0  0  0  0  0  0  0  0  0
  -25.5376  -29.6391   20.1945 C   0  0  0  0  0  0  0  0  0  0  0  0
  -29.2795  -22.2481   16.2710 C   0  0  0  0  0  0  0  0  0  0  0  0
  -26.9971  -27.9130   19.0765 C   0  0  0  0  0  0  0  0  0  0  0  0
  -25.6347  -27.2403   21.0169 C   0  0  0  0  0  0  0  0  0  0  0  0
  -28.4487  -21.8156   17.4538 C   0  0  2  0  0  0  0  0  0  0  0  0
  -21.7581  -11.6880   21.0276 C   0  0  1  0  0  0  0  0  0  0  0  0
  -22.8494  -15.0707   22.3690 C   0  0  1  0  0  0  0  0  0  0  0  0
  -29.8023  -22.4511   17.6619 C   0  0  2  0  0  0  0  0  0  0  0  0
  -25.4244  -28.7115   21.4188 C   0  0  2  0  0  0  0  0  0  0  0  0
  -27.1366  -17.2761   15.8720 C   0  0  0  0  0  0  0  0  0  0  0  0
  -21.6727  -22.6987   23.0261 C   0  0  0  0  0  0  0  0  0  0  0  0
  -19.6682  -17.2565   19.8268 C   0  0  0  0  0  0  0  0  0  0  0  0
  -19.6462  -19.7511   20.0383 C   0  0  0  0  0  0  0  0  0  0  0  0
  -18.7609  -18.3362   21.8922 C   0  0  0  0  0  0  0  0  0  0  0  0
  -24.7365  -20.7646   24.1871 C   0  0  0  0  0  0  0  0  0  0  0  0
  -29.3826  -20.0056   21.2211 C   0  0  0  0  0  0  0  0  0  0  0  0
  -29.9579  -23.8440   19.7722 C   0  0  0  0  0  0  0  0  0  0  0  0
  -30.1227  -25.2287   20.3958 C   0  0  0  0  0  0  0  0  0  0  0  0
  -21.2550  -18.4330   21.4893 C   0  0  1  0  0  0  0  0  0  0  0  0
  -22.4630  -21.4615   23.4229 C   0  0  2  0  0  0  0  0  0  0  0  0
  -29.8984  -23.8243   18.2323 C   0  0  1  0  0  0  0  0  0  0  0  0
  -19.8572  -18.4302   20.8086 C   0  0  0  0  0  0  0  0  0  0  0  0
  -23.0620  -28.1441   21.8419 N   0  0  0  0  0  0  0  0  0  0  0  0
  -24.1158  -28.9153   22.1595 N   0  0  0  0  0  0  0  0  0  0  0  0
  -22.6450  -16.4124   21.8192 N   0  0  0  0  0  0  0  0  0  0  0  0
  -26.8980  -27.0863   20.2876 N   0  0  0  0  0  0  0  0  0  0  0  0
  -24.8083  -30.6715   23.5902 N   0  0  0  0  0  0  0  0  0  0  0  0
  -21.8496  -29.8675   25.8248 N   0  0  0  0  0  0  0  0  0  0  0  0
  -22.2905  -12.7833   21.8094 N   0  0  0  0  0  0  0  0  0  0  0  0
  -21.4522  -19.5179   22.4446 N   0  0  0  0  0  0  0  0  0  0  0  0
  -29.0321  -26.1007   20.0200 N   0  0  0  0  0  0  0  0  0  0  0  0
  -31.0451  -24.6237   17.6941 N   0  3  0  0  0  0  0  0  0  0  0  0
  -23.8538  -21.8795   23.7572 N   0  3  0  0  0  0  0  0  0  0  0  0
  -21.1850  -31.3958   24.2496 O   0  0  0  0  0  0  0  0  0  0  0  0
  -21.7514  -14.5184   20.3530 O   0  0  0  0  0  0  0  0  0  0  0  0
  -20.7917  -16.8266   23.1719 O   0  0  0  0  0  0  0  0  0  0  0  0
  -23.3063  -20.4410   21.4019 O   0  0  0  0  0  0  0  0  0  0  0  0
  -27.7097  -25.5302   21.8035 O   0  0  0  0  0  0  0  0  0  0  0  0
  -17.0113  -26.2828   22.5287 O   0  0  0  0  0  0  0  0  0  0  0  0
  -27.8235  -16.2757   18.4698 O   0  0  0  0  0  0  0  0  0  1  0  0
  -29.0787  -20.6310   19.9761 O   0  0  0  0  0  0  0  0  0  0  0  0
  -16.4413  -21.4717   19.8958 F   0  0  0  0  0  0  0  0  0  0  0  0
  -16.1140  -24.0337   23.8625 F   0  0  0  0  0  0  0  0  0  0  0  0
  1  2  1  0  0  0  0
  1  5  2  0  0  0  0
  2  6  2  0  0  0  0
  3  8  2  0  0  0  0
  3 17  1  0  0  0  0
  4  9  1  0  0  0  0
  4 17  2  0  0  0  0
  5 19  1  0  0  0  0
  6 21  1  0  0  0  0
  7 10  2  0  0  0  0
  7 20  1  0  0  0  0
  8 25  1  0  0  0  0
  9 25  2  0  0  0  0
 10 26  1  0  0  0  0
 11 12  2  0  0  0  0
 11 27  1  0  0  0  0
 12 30  1  0  0  0  0
 13 22  2  0  0  0  0
 13 24  1  0  0  0  0
 14 23  1  0  0  0  0
 14 26  2  0  0  0  0
 15 28  2  0  0  0  0
 15 29  1  0  0  0  0
 16 30  2  0  0  0  0
 16 31  1  0  0  0  0
 17 32  1  0  0  0  0
 18 32  1  0  0  0  0
 18 33  2  0  0  0  0
 18 34  1  0  0  0  0
 19 21  2  0  0  0  0
 19 39  1  0  0  0  0
 20 23  2  0  0  0  0
 20 40  1  0  0  0  0
 21 50  1  0  0  0  0
 22 28  1  0  0  0  0
 22 49  1  0  0  0  0
 23 41  1  0  0  0  0
 24 29  2  0  0  0  0
 24 54  1  0  0  0  0
 25 83  1  0  0  0  0
 26 84  1  0  0  0  0
 27 31  2  0  0  0  0
 27 83  1  0  0  0  0
 28 85  1  0  0  0  0
 29 84  1  0  0  0  0
 30 86  1  0  0  0  0
 31 87  1  0  0  0  0
 32 67  2  0  0  0  0
 33 68  1  0  0  0  0
 33 71  1  0  0  0  0
 34 72  1  0  0  0  0
 34 78  2  0  0  0  0
 35 51  1  0  0  0  0
 35 73  1  0  0  0  0
 35 79  2  0  0  0  0
 36 63  1  0  0  0  0
 36 69  1  0  0  0  0
 36 80  2  0  0  0  0
 37 64  1  0  0  0  0
 37 74  1  0  0  0  0
 37 81  2  0  0  0  0
 38 70  1  0  0  0  0
 38 75  1  0  0  0  0
 38 82  2  0  0  0  0
 39 42  1  0  0  0  0
 40 51  1  0  0  0  0
 41 69  1  0  0  0  0
 42 44  1  0  0  0  0
 43 45  1  0  0  0  0
 43 47  1  0  0  0  0
 44 50  1  0  0  0  0
 45 53  1  0  0  0  0
 46 49  1  0  0  0  0
 46 52  1  0  0  0  0
 47 70  1  0  0  0  0
 48 53  1  0  0  0  0
 48 70  1  0  0  0  0
 49 52  1  0  0  0  0
 50 73  1  0  0  0  0
 51 69  1  0  0  0  0
 52 65  1  0  0  0  0
 53 68  1  0  0  0  0
 55 64  1  0  0  0  0
 56 66  1  0  0  0  0
 57 66  1  0  0  0  0
 58 66  1  0  0  0  0
 59 77  1  0  0  0  0
 60 85  1  0  0  0  0
 61 62  1  0  0  0  0
 61 65  1  0  0  0  0
 62 75  1  0  0  0  0
 63 66  1  0  0  0  0
 63 74  1  0  0  0  0
 64 77  1  0  0  0  0
 65 76  1  0  0  0  0
 67 68  1  0  0  0  0
M  CHG  2  76   1  77   1
M  ISO  4  29 101  38 100  75 100  84 101
M  END
> <Batch ID>
0146

> <Smiles>
CNC(C)C(=O)NC(C(=O)N1Cc2cc([101O:1][101c:1]3cc(OC)c(C4CC4C(N)CC[100NH:0][100C:0](=O)N4CCCC(n5nc(-c6ccc(Oc7ccc(F)cc7F)cc6)c(C(N)=O)c5N)C4)cc3C)ccc2CC1C(=O)NC1CCCc2ccccc21)C(C)(C)C

> <Shape>
0.230

> <Color>
0.102

> <Negative vol penalty>
0.000

$$$$

  -OEChem-04052321313D

 90 99  0     1  0  0  0  0  0999 V2000
  -27.4565  -36.6517   24.4179 C   0  0  0  0  0  0  0  0  0  0  0  0
  -28.0027  -35.5215   23.8180 C   0  0  0  0  0  0  0  0  0  0  0  0
  -22.6482  -11.6617   21.7229 C   0  0  0  0  0  0  0  0  0  0  0  0
  -22.1548  -14.0160   21.9493 C   0  0  0  0  0  0  0  0  0  0  0  0
  -26.2615  -36.5532   25.1293 C   0  0  0  0  0  0  0  0  0  0  0  0
  -27.3546  -34.2920   23.9300 C   0  0  0  0  0  0  0  0  0  0  0  0
  -27.1254  -29.8538   19.7162 C   0  0  0  0  0  0  0  0  0  0  0  0
  -21.3895  -11.3486   22.2359 C   0  0  0  0  0  0  0  0  0  0  0  0
  -20.8961  -13.7028   22.4623 C   0  0  0  0  0  0  0  0  0  0  0  0
  -27.8537  -28.6761   19.5538 C   0  0  0  0  0  0  0  0  0  0  0  0
  -18.1995  -11.2472   21.1196 C   0  0  0  0  0  0  0  0  0  0  0  0
  -17.4606  -10.2604   20.4669 C   0  0  0  0  0  0  0  0  0  0  0  0
  -26.1078  -27.4486   20.6783 C   0  0  0  0  0  0  0  0  0  0  0  0
  -17.4269   -8.9453   22.4933 C   0  0  0  0  0  0  0  0  0  0  0  0
  -23.0309  -12.9954   21.5797 C   0  0  0  0  0  0  0  0  0  0  0  0
  -24.6732  -13.5213   19.6998 C   0  0  0  0  0  0  0  0  0  0  0  0
  -25.5934  -35.3237   25.2419 C   0  0  0  0  0  0  0  0  0  0  0  0
  -25.8858  -29.8395   20.3716 C   0  0  0  0  0  0  0  0  0  0  0  0
  -26.1502  -34.1767   24.6446 C   0  0  0  0  0  0  0  0  0  0  0  0
  -25.3646  -28.6271   20.8455 C   0  0  0  0  0  0  0  0  0  0  0  0
  -20.5134  -12.3691   22.6056 C   0  0  0  0  0  0  0  0  0  0  0  0
  -27.3462  -27.4737   20.0375 C   0  0  0  0  0  0  0  0  0  0  0  0
  -18.5521  -11.0830   22.4591 C   0  0  0  0  0  0  0  0  0  0  0  0
  -17.0743   -9.1095   21.1537 C   0  0  0  0  0  0  0  0  0  0  0  0
  -18.1658   -9.9321   23.1460 C   0  0  0  0  0  0  0  0  0  0  0  0
  -24.3313  -13.3196   21.0504 C   0  0  0  0  0  0  0  0  0  0  0  0
  -26.0175  -13.8016   19.7241 C   0  0  0  0  0  0  0  0  0  0  0  0
  -23.8492  -13.4609   18.5280 C   0  0  0  0  0  0  0  0  0  0  0  0
  -24.7264  -31.1859   23.0073 C   0  0  0  0  0  0  0  0  0  0  0  0
  -21.9364  -29.8959   21.9707 C   0  0  0  0  0  0  0  0  0  0  0  0
  -20.3645  -27.5106   20.1036 C   0  0  0  0  0  0  0  0  0  0  0  0
  -30.1886  -16.7572   22.1232 C   0  0  0  0  0  0  0  0  0  0  0  0
  -24.3287  -35.2571   26.0609 C   0  0  0  0  0  0  0  0  0  0  0  0
  -25.1003  -31.1142   20.5151 C   0  0  0  0  0  0  0  0  0  0  0  0
  -24.0293  -28.5548   21.5383 C   0  0  0  0  0  0  0  0  0  0  0  0
  -23.5104  -33.9919   25.8161 C   0  0  0  0  0  0  0  0  0  0  0  0
  -29.4107  -13.4224   23.4527 C   0  0  0  0  0  0  0  0  0  0  0  0
  -24.4114  -32.7613   25.8359 C   0  0  0  0  0  0  0  0  0  0  0  0
  -28.0238  -13.1416   22.8729 C   0  0  0  0  0  0  0  0  0  0  0  0
  -31.3697  -16.4483   18.7029 C   0  0  0  0  0  0  0  0  0  0  0  0
  -31.9196  -22.4478   20.7701 C   0  0  0  0  0  0  0  0  0  0  0  0
  -29.6445  -14.9145   23.6765 C   0  0  0  0  0  0  0  0  0  0  0  0
  -30.2850  -16.0285   19.6876 C   0  0  0  0  0  0  0  0  0  0  0  0
  -32.2497  -20.9626   21.0120 C   0  0  0  0  0  0  0  0  0  0  0  0
  -28.0158  -15.4732   21.9100 C   0  0  0  0  0  0  0  0  0  0  0  0
  -25.4640  -32.8302   24.7229 C   0  0  1  0  0  0  0  0  0  0  0  0
  -24.0858  -31.0660   21.6534 C   0  0  1  0  0  0  0  0  0  0  0  0
  -27.7688  -13.9877   21.6118 C   0  0  2  0  0  0  0  0  0  0  0  0
  -31.3077  -17.9636   18.8104 C   0  0  1  0  0  0  0  0  0  0  0  0
  -30.5071  -21.9294   20.4072 C   0  0  1  0  0  0  0  0  0  0  0  0
  -31.1066  -18.2110   20.3068 C   0  0  1  0  0  0  0  0  0  0  0  0
  -18.0774  -26.6852   19.4830 C   0  0  0  0  0  0  0  0  0  0  0  0
  -28.9960  -19.5273   19.9091 C   0  0  0  0  0  0  0  0  0  0  0  0
  -34.2041  -20.6806   16.9017 C   0  0  0  0  0  0  0  0  0  0  0  0
  -35.2085  -18.3818   16.7782 C   0  0  0  0  0  0  0  0  0  0  0  0
  -21.6665  -28.5884   24.7143 C   0  0  0  0  0  0  0  0  0  0  0  0
  -19.9340  -27.0655   23.7409 C   0  0  0  0  0  0  0  0  0  0  0  0
  -19.5400  -29.5282   23.7927 C   0  0  0  0  0  0  0  0  0  0  0  0
  -20.8206  -28.0554   17.2306 C   0  0  0  0  0  0  0  0  0  0  0  0
  -29.8419  -22.5704   19.2051 C   0  0  0  0  0  0  0  0  0  0  0  0
  -29.0628  -24.7774   18.3327 C   0  0  0  0  0  0  0  0  0  0  0  0
  -32.6766  -18.6444   16.8355 C   0  0  0  0  0  0  0  0  0  0  0  0
  -28.9000  -26.2296   18.7359 C   0  0  0  0  0  0  0  0  0  1  0  0
  -21.2292  -28.5772   22.1698 C   0  0  1  0  0  0  0  0  0  0  0  0
  -19.2284  -27.6029   19.1010 C   0  0  2  0  0  0  0  0  0  0  0  0
  -30.3615  -19.5126   20.5784 C   0  0  2  0  0  0  0  0  0  0  0  0
  -34.0118  -19.2519   16.3905 C   0  0  0  0  0  0  0  0  0  0  0  0
  -20.6185  -28.4412   23.5931 C   0  0  0  0  0  0  0  0  0  0  0  0
  -25.3744  -13.4596   21.8728 N   0  0  0  0  0  0  0  0  0  0  0  0
  -26.3849  -13.7522   21.0366 N   0  0  0  0  0  0  0  0  0  0  0  0
  -23.3020  -29.8291   21.6599 N   0  0  0  0  0  0  0  0  0  0  0  0
  -29.3597  -15.6797   22.4625 N   0  0  0  0  0  0  0  0  0  0  0  0
  -30.3645  -17.0247   20.7623 N   0  0  0  0  0  0  0  0  0  0  0  0
  -31.1519  -20.6282   20.0690 N   0  0  2  0  0  0  0  0  0  0  0  0
  -26.9095  -14.0829   18.7505 N   0  0  0  0  0  0  0  0  0  0  0  0
  -22.4890  -13.1602   18.6824 N   0  0  0  0  0  0  0  0  0  0  0  0
  -24.8733  -32.4877   23.4468 N   0  0  0  0  0  0  0  0  0  0  0  0
  -20.2554  -28.4690   21.0889 N   0  0  0  0  0  0  0  0  0  0  0  0
  -32.5536  -18.5819   18.3212 N   0  3  0  0  0  0  0  0  0  0  0  0
  -19.7043  -27.2191   17.7419 N   0  3  0  0  0  0  0  0  0  0  0  0
  -29.6585  -24.0162   19.4661 N   0  3  0  0  0  0  0  0  0  0  0  0
  -24.3090  -13.6512   17.3765 O   0  0  0  0  0  0  0  0  0  0  0  0
  -25.0611  -30.1724   23.6092 O   0  0  0  0  0  0  0  0  0  0  0  0
  -21.2991  -30.9464   22.0796 O   0  0  0  0  0  0  0  0  0  0  0  0
  -21.2574  -26.6699   20.0229 O   0  0  0  0  0  0  0  0  0  0  0  0
  -30.7676  -17.4244   22.9900 O   0  0  0  0  0  0  0  0  0  0  0  0
  -19.2850  -12.0639   23.1059 O   0  0  0  0  0  0  0  0  0  0  0  0
  -28.0603  -26.3145   19.8797 O   0  0  0  0  0  0  0  0  0  1  0  0
  -16.3635   -8.1627   20.5273 F   0  0  0  0  0  0  0  0  0  0  0  0
  -18.5006   -9.7692   24.4333 F   0  0  0  0  0  0  0  0  0  0  0  0
  1  2  1  0  0  0  0
  1  5  2  0  0  0  0
  2  6  2  0  0  0  0
  3  8  2  0  0  0  0
  3 15  1  0  0  0  0
  4  9  1  0  0  0  0
  4 15  2  0  0  0  0
  5 17  1  0  0  0  0
  6 19  1  0  0  0  0
  7 10  2  0  0  0  0
  7 18  1  0  0  0  0
  8 21  1  0  0  0  0
  9 21  2  0  0  0  0
 10 22  1  0  0  0  0
 11 12  2  0  0  0  0
 11 23  1  0  0  0  0
 12 24  1  0  0  0  0
 13 20  1  0  0  0  0
 13 22  2  0  0  0  0
 14 24  2  0  0  0  0
 14 25  1  0  0  0  0
 15 26  1  0  0  0  0
 16 26  1  0  0  0  0
 16 27  2  0  0  0  0
 16 28  1  0  0  0  0
 17 19  2  0  0  0  0
 17 33  1  0  0  0  0
 18 20  2  0  0  0  0
 18 34  1  0  0  0  0
 19 46  1  0  0  0  0
 20 35  1  0  0  0  0
 21 87  1  0  0  0  0
 22 88  1  0  0  0  0
 23 25  2  0  0  0  0
 23 87  1  0  0  0  0
 24 89  1  0  0  0  0
 25 90  1  0  0  0  0
 26 69  2  0  0  0  0
 27 70  1  0  0  0  0
 27 75  1  0  0  0  0
 28 76  1  0  0  0  0
 28 82  2  0  0  0  0
 29 47  1  0  0  0  0
 29 77  1  0  0  0  0
 29 83  2  0  0  0  0
 30 64  1  0  0  0  0
 30 71  1  0  0  0  0
 30 84  2  0  0  0  0
 31 65  1  0  0  0  0
 31 78  1  0  0  0  0
 31 85  2  0  0  0  0
 32 72  1  0  0  0  0
 32 73  1  0  0  0  0
 32 86  2  0  0  0  0
 33 36  1  0  0  0  0
 34 47  1  0  0  0  0
 35 71  1  0  0  0  0
 36 38  1  0  0  0  0
 37 39  1  0  0  0  0
 37 42  1  0  0  0  0
 38 46  1  0  0  0  0
 39 48  1  0  0  0  0
 40 43  1  0  0  0  0
 40 49  1  0  0  0  0
 41 44  1  0  0  0  0
 41 50  1  0  0  0  0
 42 72  1  0  0  0  0
 43 73  1  0  0  0  0
 44 74  1  0  0  0  0
 45 48  1  0  0  0  0
 45 72  1  0  0  0  0
 46 77  1  0  0  0  0
 47 71  1  0  0  0  0
 48 70  1  0  0  0  0
 49 51  1  0  0  0  0
 49 79  1  0  0  0  0
 50 60  1  0  0  0  0
 50 74  1  0  0  0  0
 51 66  1  0  0  0  0
 51 73  1  0  0  0  0
 52 65  1  0  0  0  0
 53 66  1  0  0  0  0
 54 67  1  0  0  0  0
 55 67  1  0  0  0  0
 56 68  1  0  0  0  0
 57 68  1  0  0  0  0
 58 68  1  0  0  0  0
 59 80  1  0  0  0  0
 60 81  1  0  0  0  0
 61 63  1  0  0  0  0
 61 81  1  0  0  0  0
 62 67  1  0  0  0  0
 62 79  1  0  0  0  0
 63 88  1  0  0  0  0
 64 68  1  0  0  0  0
 64 78  1  0  0  0  0
 65 80  1  0  0  0  0
 66 74  1  0  0  0  0
 69 70  1  0  0  0  0
M  CHG  3  79   1  80   1  81   1
M  ISO  4  32 100  63 101  73 100  88 101
M  END
> <Batch ID>
0146

> <Smiles>
CNC(C)C(=O)NC(C(=O)N1Cc2cc([101O:1][101CH2:1]CNCC3CCN3C(C)C3C(NCC(C)C)CC[100N:0]3[100C:0](=O)N3CCCC(n4nc(-c5ccc(Oc6ccc(F)cc6F)cc5)c(C(N)=O)c4N)C3)ccc2CC1C(=O)NC1CCCc2ccccc21)C(C)(C)C

> <Shape>
0.288

> <Color>
0.048

> <Negative vol penalty>
0.000

$$$$

  -OEChem-04052321313D

 87 96  0     1  0  0  0  0  0999 V2000
  -23.4572  -32.4961   28.0354 C   0  0  0  0  0  0  0  0  0  0  0  0
  -22.7551  -31.3138   27.8244 C   0  0  0  0  0  0  0  0  0  0  0  0
  -22.6910  -10.4516   20.6769 C   0  0  0  0  0  0  0  0  0  0  0  0
  -24.4831   -9.2237   21.7341 C   0  0  0  0  0  0  0  0  0  0  0  0
  -24.2414  -33.0316   27.0145 C   0  0  0  0  0  0  0  0  0  0  0  0
  -22.8359  -30.6668   26.5918 C   0  0  0  0  0  0  0  0  0  0  0  0
  -25.2142  -23.8840   26.1128 C   0  0  0  0  0  0  0  0  0  0  0  0
  -21.8993   -9.3032   20.6852 C   0  0  0  0  0  0  0  0  0  0  0  0
  -23.6914   -8.0753   21.7424 C   0  0  0  0  0  0  0  0  0  0  0  0
  -25.4587  -22.5188   25.9628 C   0  0  0  0  0  0  0  0  0  0  0  0
  -21.1472   -6.8192   23.5779 C   0  0  0  0  0  0  0  0  0  0  0  0
  -21.1156   -6.0641   24.7503 C   0  0  0  0  0  0  0  0  0  0  0  0
  -26.1208  -15.6510   24.8395 C   0  0  0  0  0  0  0  0  0  0  0  0
  -25.2259  -22.7296   23.5651 C   0  0  0  0  0  0  0  0  0  0  0  0
  -28.2686  -16.5530   24.2411 C   0  0  0  0  0  0  0  0  0  0  0  0
  -21.9810   -4.1571   23.5454 C   0  0  0  0  0  0  0  0  0  0  0  0
  -26.7636  -14.4595   25.1343 C   0  0  0  0  0  0  0  0  0  0  0  0
  -23.9829  -10.4118   21.2013 C   0  0  0  0  0  0  0  0  0  0  0  0
  -24.5213  -12.8286   21.8155 C   0  0  0  0  0  0  0  0  0  0  0  0
  -24.3394  -32.3857   25.7720 C   0  0  0  0  0  0  0  0  0  0  0  0
  -24.9895  -24.6810   24.9869 C   0  0  0  0  0  0  0  0  0  0  0  0
  -23.6210  -31.1948   25.5528 C   0  0  0  0  0  0  0  0  0  0  0  0
  -24.9927  -24.1000   23.7081 C   0  0  0  0  0  0  0  0  0  0  0  0
  -22.3995   -8.1151   21.2179 C   0  0  0  0  0  0  0  0  0  0  0  0
  -25.4643  -21.9430   24.6921 C   0  0  0  0  0  0  0  0  0  0  0  0
  -21.5956   -6.2432   22.3893 C   0  0  0  0  0  0  0  0  0  0  0  0
  -26.8949  -16.7129   24.3850 C   0  0  0  0  0  0  0  0  0  0  0  0
  -21.5325   -4.7331   24.7341 C   0  0  0  0  0  0  0  0  0  0  0  0
  -22.0126   -4.9122   22.3731 C   0  0  0  0  0  0  0  0  0  0  0  0
  -24.8014  -11.5976   21.1926 C   0  0  0  0  0  0  0  0  0  0  0  0
  -28.8152  -15.3211   24.5629 C   0  0  0  0  0  0  0  0  0  0  0  0
  -25.6013  -13.6209   21.5116 C   0  0  0  0  0  0  0  0  0  0  0  0
  -23.3863  -13.2208   22.5989 C   0  0  0  0  0  0  0  0  0  0  0  0
  -24.2887  -28.1091   23.6330 C   0  0  0  0  0  0  0  0  0  0  0  0
  -26.3122  -26.7986   21.7362 C   0  0  0  0  0  0  0  0  0  0  0  0
  -28.8093  -26.1378   19.5080 C   0  0  0  0  0  0  0  0  0  0  0  0
  -31.2883  -12.3941   20.0959 C   0  0  0  0  0  0  0  0  0  0  0  0
  -25.1620  -33.0277   24.6830 C   0  0  0  0  0  0  0  0  0  0  0  0
  -24.6610  -26.1445   25.1056 C   0  0  0  0  0  0  0  0  0  0  0  0
  -24.7118  -24.9897   22.5281 C   0  0  0  0  0  0  0  0  0  0  0  0
  -25.4916  -32.0821   23.5309 C   0  0  0  0  0  0  0  0  0  0  0  0
  -28.9534  -14.2560   18.1573 C   0  0  0  0  0  0  0  0  0  0  0  0
  -24.2459  -31.3171   23.0951 C   0  0  0  0  0  0  0  0  0  0  0  0
  -30.9979  -14.6730   25.7037 C   0  0  0  0  0  0  0  0  0  0  0  0
  -27.5992  -13.8969   18.7716 C   0  0  0  0  0  0  0  0  0  0  0  0
  -32.2737  -14.0261   25.1944 C   0  0  0  0  0  0  0  0  0  0  0  0
  -29.9053  -13.0619   18.1523 C   0  0  0  0  0  0  0  0  0  0  0  0
  -28.7421  -12.0575   20.0789 C   0  0  0  0  0  0  0  0  0  0  0  0
  -23.7029  -30.4505   24.2378 C   0  0  1  0  0  0  0  0  0  0  0  0
  -30.2915  -15.1131   24.4203 C   0  0  1  0  0  0  0  0  0  0  0  0
  -25.2325  -26.9869   23.9510 C   0  0  1  0  0  0  0  0  0  0  0  0
  -27.7673  -13.2449   20.1572 C   0  0  2  0  0  0  0  0  0  0  0  0
  -31.7868  -13.2072   24.0094 C   0  0  2  0  0  0  0  0  0  0  0  0
  -29.6073  -26.7432   17.2071 C   0  0  0  0  0  0  0  0  0  0  0  0
  -24.1300  -25.0468   20.5225 C   0  0  0  0  0  0  0  0  0  0  0  0
  -25.4999  -24.9122   18.4312 C   0  0  0  0  0  0  0  0  0  0  0  0
  -24.6482  -27.1194   19.2223 C   0  0  0  0  0  0  0  0  0  0  0  0
  -31.3639  -27.2092   20.5497 C   0  0  0  0  0  0  0  0  0  0  0  0
  -32.8548  -12.9119   22.9764 C   0  0  0  0  0  0  0  0  0  0  0  0
  -32.5356  -11.6875   22.1218 C   0  0  0  0  0  0  0  0  0  0  0  0
  -26.3383  -20.1896   23.3434 C   0  0  0  0  0  0  0  0  0  1  0  0
  -27.1648  -18.9489   23.6214 C   0  0  0  0  0  0  0  0  0  0  0  0
  -26.5312  -25.9946   20.4796 C   0  0  1  0  0  0  0  0  0  0  0  0
  -29.7010  -27.0565   18.6923 C   0  0  2  0  0  0  0  0  0  0  0  0
  -25.2132  -25.7601   19.6889 C   0  0  0  0  0  0  0  0  0  0  0  0
  -28.0955  -14.2665   25.0073 N   0  0  0  0  0  0  0  0  0  0  0  0
  -25.9679  -11.6027   20.5419 N   0  0  0  0  0  0  0  0  0  0  0  0
  -26.4302  -12.8466   20.7543 N   0  0  0  0  0  0  0  0  0  0  0  0
  -25.4259  -26.2670   22.6808 N   0  0  0  0  0  0  0  0  0  0  0  0
  -30.0218  -12.4907   19.4962 N   0  0  0  0  0  0  0  0  0  0  0  0
  -25.9132  -14.8974   21.8209 N   0  0  0  0  0  0  0  0  0  0  0  0
  -23.4285  -13.0168   23.9849 N   0  0  0  0  0  0  0  0  0  0  0  0
  -24.4981  -29.2502   24.3837 N   0  0  0  0  0  0  0  0  0  0  0  0
  -27.5655  -26.6925   19.7236 N   0  0  0  0  0  0  0  0  0  0  0  0
  -31.3089  -11.8467   21.3729 N   0  0  0  0  0  0  0  0  0  0  0  0
  -30.7017  -14.0602   23.4047 N   0  3  0  0  0  0  0  0  0  0  0  0
  -31.1223  -26.9083   19.1151 N   0  3  0  0  0  0  0  0  0  0  0  0
  -22.3584  -13.7217   22.0831 O   0  0  0  0  0  0  0  0  0  0  0  0
  -23.4336  -27.9531   22.7692 O   0  0  0  0  0  0  0  0  0  0  0  0
  -26.9052  -27.8719   21.8765 O   0  0  0  0  0  0  0  0  0  0  0  0
  -29.1780  -25.0365   19.9102 O   0  0  0  0  0  0  0  0  0  0  0  0
  -32.3232  -12.7728   19.5370 O   0  0  0  0  0  0  0  0  0  0  0  0
  -21.6271   -6.9944   21.2264 O   0  0  0  0  0  0  0  0  0  0  0  0
  -25.7081  -20.6104   24.5526 O   0  0  0  0  0  0  0  0  0  1  0  0
  -26.3061  -17.9118   24.0800 O   0  0  0  0  0  0  0  0  0  0  0  0
  -21.5035   -4.0086   25.8603 F   0  0  0  0  0  0  0  0  0  0  0  0
  -22.4455   -4.3538   21.2344 F   0  0  0  0  0  0  0  0  0  0  0  0
  1  2  1  0  0  0  0
  1  5  2  0  0  0  0
  2  6  2  0  0  0  0
  3  8  2  0  0  0  0
  3 18  1  0  0  0  0
  4  9  1  0  0  0  0
  4 18  2  0  0  0  0
  5 20  1  0  0  0  0
  6 22  1  0  0  0  0
  7 10  2  0  0  0  0
  7 21  1  0  0  0  0
  8 24  1  0  0  0  0
  9 24  2  0  0  0  0
 10 25  1  0  0  0  0
 11 12  2  0  0  0  0
 11 26  1  0  0  0  0
 12 28  1  0  0  0  0
 13 17  2  0  0  0  0
 13 27  1  0  0  0  0
 14 23  1  0  0  0  0
 14 25  2  0  0  0  0
 15 27  2  0  0  0  0
 15 31  1  0  0  0  0
 16 28  2  0  0  0  0
 16 29  1  0  0  0  0
 17 66  1  0  0  0  0
 18 30  1  0  0  0  0
 19 30  1  0  0  0  0
 19 32  2  0  0  0  0
 19 33  1  0  0  0  0
 20 22  2  0  0  0  0
 20 38  1  0  0  0  0
 21 23  2  0  0  0  0
 21 39  1  0  0  0  0
 22 49  1  0  0  0  0
 23 40  1  0  0  0  0
 24 83  1  0  0  0  0
 25 84  1  0  0  0  0
 26 29  2  0  0  0  0
 26 83  1  0  0  0  0
 27 85  1  0  0  0  0
 28 86  1  0  0  0  0
 29 87  1  0  0  0  0
 30 67  2  0  0  0  0
 31 50  1  0  0  0  0
 31 66  2  0  0  0  0
 32 68  1  0  0  0  0
 32 71  1  0  0  0  0
 33 72  1  0  0  0  0
 33 78  2  0  0  0  0
 34 51  1  0  0  0  0
 34 73  1  0  0  0  0
 34 79  2  0  0  0  0
 35 63  1  0  0  0  0
 35 69  1  0  0  0  0
 35 80  2  0  0  0  0
 36 64  1  0  0  0  0
 36 74  1  0  0  0  0
 36 81  2  0  0  0  0
 37 70  1  0  0  0  0
 37 75  1  0  0  0  0
 37 82  2  0  0  0  0
 38 41  1  0  0  0  0
 39 51  1  0  0  0  0
 40 69  1  0  0  0  0
 41 43  1  0  0  0  0
 42 45  1  0  0  0  0
 42 47  1  0  0  0  0
 43 49  1  0  0  0  0
 44 46  1  0  0  0  0
 44 50  1  0  0  0  0
 45 52  1  0  0  0  0
 46 53  1  0  0  0  0
 47 70  1  0  0  0  0
 48 52  1  0  0  0  0
 48 70  1  0  0  0  0
 49 73  1  0  0  0  0
 50 76  1  0  0  0  0
 51 69  1  0  0  0  0
 52 68  1  0  0  0  0
 53 59  1  0  0  0  0
 53 76  1  0  0  0  0
 54 64  1  0  0  0  0
 55 65  1  0  0  0  0
 56 65  1  0  0  0  0
 57 65  1  0  0  0  0
 58 77  1  0  0  0  0
 59 60  1  0  0  0  0
 60 75  1  0  0  0  0
 61 62  1  0  0  0  0
 61 84  1  0  0  0  0
 62 85  1  0  0  0  0
 63 65  1  0  0  0  0
 63 74  1  0  0  0  0
 64 77  1  0  0  0  0
 67 68  1  0  0  0  0
M  CHG  2  76   1  77   1
M  ISO  4  37 100  61 101  75 100  84 101
M  END
> <Batch ID>
0146

> <Smiles>
CNC(C)C(=O)NC(C(=O)N1Cc2cc([101O:1][101CH2:1]COc3ccnc(C4CCC(CC[100NH:0][100C:0](=O)N5CCCC(n6nc(-c7ccc(Oc8ccc(F)cc8F)cc7)c(C(N)=O)c6N)C5)N4)c3)ccc2CC1C(=O)NC1CCCc2ccccc21)C(C)(C)C

> <Shape>
0.240

> <Color>
0.112

> <Negative vol penalty>
0.000

$$$$

  -OEChem-04052321313D

 84 93  0     1  0  0  0  0  0999 V2000
  -26.2945  -37.9798   23.9306 C   0  0  0  0  0  0  0  0  0  0  0  0
  -26.9955  -37.1697   23.0430 C   0  0  0  0  0  0  0  0  0  0  0  0
  -26.0396   -9.7751   21.5793 C   0  0  0  0  0  0  0  0  0  0  0  0
  -24.4165  -10.5063   23.2126 C   0  0  0  0  0  0  0  0  0  0  0  0
  -25.5483  -37.4037   24.9578 C   0  0  0  0  0  0  0  0  0  0  0  0
  -26.9515  -35.7830   23.1828 C   0  0  0  0  0  0  0  0  0  0  0  0
  -27.0800  -29.7723   19.2878 C   0  0  0  0  0  0  0  0  0  0  0  0
  -25.7711   -8.4462   21.9073 C   0  0  0  0  0  0  0  0  0  0  0  0
  -24.1479   -9.1774   23.5406 C   0  0  0  0  0  0  0  0  0  0  0  0
  -27.7580  -28.5568   19.2049 C   0  0  0  0  0  0  0  0  0  0  0  0
  -22.3646   -6.6088   22.2591 C   0  0  0  0  0  0  0  0  0  0  0  0
  -21.0278   -6.2328   22.3907 C   0  0  0  0  0  0  0  0  0  0  0  0
  -26.3718  -27.6703   20.9690 C   0  0  0  0  0  0  0  0  0  0  0  0
  -31.0427  -24.6586   19.3438 C   0  0  0  0  0  0  0  0  0  0  0  0
  -28.8801  -23.7300   18.7983 C   0  0  0  0  0  0  0  0  0  0  0  0
  -21.4340   -5.5920   24.6845 C   0  0  0  0  0  0  0  0  0  0  0  0
  -25.3624  -10.8052   22.2320 C   0  0  0  0  0  0  0  0  0  0  0  0
  -25.0010  -12.9573   20.9108 C   0  0  0  0  0  0  0  0  0  0  0  0
  -25.4874  -36.0089   25.1045 C   0  0  0  0  0  0  0  0  0  0  0  0
  -26.0485  -29.9497   20.2209 C   0  0  0  0  0  0  0  0  0  0  0  0
  -26.2049  -35.1877   24.2138 C   0  0  0  0  0  0  0  0  0  0  0  0
  -25.6807  -28.8882   21.0600 C   0  0  0  0  0  0  0  0  0  0  0  0
  -29.6911  -24.8368   19.0490 C   0  0  0  0  0  0  0  0  0  0  0  0
  -31.5834  -23.3735   19.3879 C   0  0  0  0  0  0  0  0  0  0  0  0
  -29.4208  -22.4449   18.8424 C   0  0  0  0  0  0  0  0  0  0  0  0
  -30.7724  -22.2667   19.1372 C   0  0  0  0  0  0  0  0  0  0  0  0
  -24.8252   -8.1474   22.8879 C   0  0  0  0  0  0  0  0  0  0  0  0
  -27.4058  -27.5066   20.0476 C   0  0  0  0  0  0  0  0  0  0  0  0
  -23.2361   -6.4763   23.3401 C   0  0  0  0  0  0  0  0  0  0  0  0
  -20.5625   -5.7244   23.6034 C   0  0  0  0  0  0  0  0  0  0  0  0
  -22.7708   -5.9680   24.5528 C   0  0  0  0  0  0  0  0  0  0  0  0
  -25.6397  -12.1781   21.8940 C   0  0  0  0  0  0  0  0  0  0  0  0
  -25.6234  -14.1795   20.9834 C   0  0  0  0  0  0  0  0  0  0  0  0
  -23.9399  -12.6075   20.0122 C   0  0  0  0  0  0  0  0  0  0  0  0
  -25.5811  -31.8708   22.7098 C   0  0  0  0  0  0  0  0  0  0  0  0
  -22.6360  -30.5112   22.7104 C   0  0  0  0  0  0  0  0  0  0  0  0
  -20.6712  -27.8545   21.8569 C   0  0  0  0  0  0  0  0  0  0  0  0
  -30.3090  -17.0706   21.1813 C   0  0  0  0  0  0  0  0  0  0  0  0
  -24.7056  -35.4338   26.2590 C   0  0  0  0  0  0  0  0  0  0  0  0
  -25.3091  -31.2583   20.2795 C   0  0  0  0  0  0  0  0  0  0  0  0
  -24.5668  -29.0210   22.0650 C   0  0  0  0  0  0  0  0  0  0  0  0
  -24.4084  -33.9438   26.1112 C   0  0  0  0  0  0  0  0  0  0  0  0
  -28.8118  -16.0674   24.4007 C   0  0  0  0  0  0  0  0  0  0  0  0
  -25.6628  -33.1891   25.6826 C   0  0  0  0  0  0  0  0  0  0  0  0
  -27.8353  -14.9868   23.9460 C   0  0  0  0  0  0  0  0  0  0  0  0
  -32.4872  -20.1958   21.4479 C   0  0  0  0  0  0  0  0  0  0  0  0
  -30.0765  -16.0951   23.5434 C   0  0  0  0  0  0  0  0  0  0  0  0
  -28.8244  -15.1420   21.6281 C   0  0  0  0  0  0  0  0  0  0  0  0
  -26.1619  -33.6786   24.3178 C   0  0  1  0  0  0  0  0  0  0  0  0
  -24.6185  -31.4950   21.6190 C   0  0  1  0  0  0  0  0  0  0  0  0
  -31.2647  -20.2746   20.5779 C   0  0  2  0  0  0  0  0  0  0  0  0
  -27.5253  -15.1312   22.4482 C   0  0  1  0  0  0  0  0  0  0  0  0
  -31.9031  -18.9380   20.8587 C   0  0  2  0  0  0  0  0  0  0  0  0
  -33.0336  -23.2098   19.7071 C   0  0  0  0  0  0  0  0  0  0  0  0
  -28.5310  -21.2761   18.5702 C   0  0  0  0  0  0  0  0  0  0  0  0
  -18.3123  -27.0150   22.0237 C   0  0  0  0  0  0  0  0  0  0  0  0
  -23.0904  -29.8257   25.6487 C   0  0  0  0  0  0  0  0  0  0  0  0
  -21.1868  -28.2068   25.4933 C   0  0  0  0  0  0  0  0  0  0  0  0
  -20.7874  -30.6394   25.1114 C   0  0  0  0  0  0  0  0  0  0  0  0
  -20.3738  -27.7601   18.9138 C   0  0  0  0  0  0  0  0  0  0  0  0
  -31.3523  -20.8889   19.1850 C   0  0  0  0  0  0  0  0  0  0  0  0
  -29.1097  -26.2192   19.0009 C   0  0  0  0  0  0  0  0  0  1  0  0
  -22.0198  -29.2957   23.3599 C   0  0  1  0  0  0  0  0  0  0  0  0
  -19.3162  -27.7813   21.1765 C   0  0  2  0  0  0  0  0  0  0  0  0
  -21.7934  -29.4897   24.8858 C   0  0  0  0  0  0  0  0  0  0  0  0
  -26.5948  -12.8490   22.5435 N   0  0  0  0  0  0  0  0  0  0  0  0
  -26.5609  -14.0625   21.9672 N   0  0  0  0  0  0  0  0  0  0  0  0
  -23.8782  -30.3221   22.0883 N   0  0  0  0  0  0  0  0  0  0  0  0
  -29.7564  -16.1693   22.1091 N   0  0  0  0  0  0  0  0  0  0  0  0
  -25.4549  -15.3320   20.3011 N   0  0  0  0  0  0  0  0  0  0  0  0
  -23.4153  -11.3092   20.0710 N   0  0  0  0  0  0  0  0  0  0  0  0
  -25.3543  -33.1204   23.2545 N   0  0  0  0  0  0  0  0  0  0  0  0
  -20.8043  -29.0032   22.6079 N   0  0  0  0  0  0  0  0  0  0  0  0
  -31.2479  -17.9621   21.6880 N   0  0  0  0  0  0  0  0  0  0  0  0
  -19.4353  -27.0991   19.8569 N   0  3  0  0  0  0  0  0  0  0  0  0
  -23.4820  -13.4172   19.1706 O   0  0  0  0  0  0  0  0  0  0  0  0
  -26.4634  -31.0847   23.0344 O   0  0  0  0  0  0  0  0  0  0  0  0
  -22.0340  -31.5872   22.7474 O   0  0  0  0  0  0  0  0  0  0  0  0
  -21.5249  -26.9784   21.7372 O   0  0  0  0  0  0  0  0  0  0  0  0
  -29.9943  -17.0785   19.9860 O   0  0  0  0  0  0  0  0  0  0  0  0
  -24.5627   -6.8508   23.2080 O   0  0  0  0  0  0  0  0  0  0  0  0
  -28.0664  -26.3193   19.9693 O   0  0  0  0  0  0  0  0  0  1  0  0
  -19.2785   -5.3648   23.7302 F   0  0  0  0  0  0  0  0  0  0  0  0
  -23.6030   -5.8395   25.5953 F   0  0  0  0  0  0  0  0  0  0  0  0
  1  2  1  0  0  0  0
  1  5  2  0  0  0  0
  2  6  2  0  0  0  0
  3  8  2  0  0  0  0
  3 17  1  0  0  0  0
  4  9  1  0  0  0  0
  4 17  2  0  0  0  0
  5 19  1  0  0  0  0
  6 21  1  0  0  0  0
  7 10  2  0  0  0  0
  7 20  1  0  0  0  0
  8 27  1  0  0  0  0
  9 27  2  0  0  0  0
 10 28  1  0  0  0  0
 11 12  2  0  0  0  0
 11 29  1  0  0  0  0
 12 30  1  0  0  0  0
 13 22  1  0  0  0  0
 13 28  2  0  0  0  0
 14 23  1  0  0  0  0
 14 24  2  0  0  0  0
 15 23  2  0  0  0  0
 15 25  1  0  0  0  0
 16 30  2  0  0  0  0
 16 31  1  0  0  0  0
 17 32  1  0  0  0  0
 18 32  1  0  0  0  0
 18 33  2  0  0  0  0
 18 34  1  0  0  0  0
 19 21  2  0  0  0  0
 19 39  1  0  0  0  0
 20 22  2  0  0  0  0
 20 40  1  0  0  0  0
 21 49  1  0  0  0  0
 22 41  1  0  0  0  0
 23 62  1  0  0  0  0
 24 26  1  0  0  0  0
 24 54  1  0  0  0  0
 25 26  2  0  0  0  0
 25 55  1  0  0  0  0
 26 61  1  0  0  0  0
 27 81  1  0  0  0  0
 28 82  1  0  0  0  0
 29 31  2  0  0  0  0
 29 81  1  0  0  0  0
 30 83  1  0  0  0  0
 31 84  1  0  0  0  0
 32 66  2  0  0  0  0
 33 67  1  0  0  0  0
 33 70  1  0  0  0  0
 34 71  1  0  0  0  0
 34 76  2  0  0  0  0
 35 50  1  0  0  0  0
 35 72  1  0  0  0  0
 35 77  2  0  0  0  0
 36 63  1  0  0  0  0
 36 68  1  0  0  0  0
 36 78  2  0  0  0  0
 37 64  1  0  0  0  0
 37 73  1  0  0  0  0
 37 79  2  0  0  0  0
 38 69  1  0  0  0  0
 38 74  1  0  0  0  0
 38 80  2  0  0  0  0
 39 42  1  0  0  0  0
 40 50  1  0  0  0  0
 41 68  1  0  0  0  0
 42 44  1  0  0  0  0
 43 45  1  0  0  0  0
 43 47  1  0  0  0  0
 44 49  1  0  0  0  0
 45 52  1  0  0  0  0
 46 51  1  0  0  0  0
 46 53  1  0  0  0  0
 47 69  1  0  0  0  0
 48 52  1  0  0  0  0
 48 69  1  0  0  0  0
 49 72  1  0  0  0  0
 50 68  1  0  0  0  0
 51 53  1  0  0  0  0
 51 61  1  0  0  0  0
 52 67  1  0  0  0  0
 53 74  1  0  0  0  0
 56 64  1  0  0  0  0
 57 65  1  0  0  0  0
 58 65  1  0  0  0  0
 59 65  1  0  0  0  0
 60 75  1  0  0  0  0
 62 82  1  0  0  0  0
 63 65  1  0  0  0  0
 63 73  1  0  0  0  0
 64 75  1  0  0  0  0
 66 67  1  0  0  0  0
M  CHG  1  75   1
M  ISO  4  38 100  62 101  74 100  82 101
M  END
> <Batch ID>
0146

> <Smiles>
CNC(C)C(=O)NC(C(=O)N1Cc2cc([101O:1][101CH2:1]c3cc(C)c(CC4CC4[100NH:0][100C:0](=O)N4CCCC(n5nc(-c6ccc(Oc7ccc(F)cc7F)cc6)c(C(N)=O)c5N)C4)c(C)c3)ccc2CC1C(=O)NC1CCCc2ccccc21)C(C)(C)C

> <Shape>
0.330

> <Color>
0.127

> <Negative vol penalty>
0.000

$$$$

  -OEChem-04052321313D

 87 97  0     1  0  0  0  0  0999 V2000
  -28.5067  -35.7582   27.0995 C   0  0  0  0  0  0  0  0  0  0  0  0
  -28.1395  -34.4163   27.1095 C   0  0  0  0  0  0  0  0  0  0  0  0
  -22.6837  -10.4600   21.0113 C   0  0  0  0  0  0  0  0  0  0  0  0
  -23.9880   -8.6207   20.1438 C   0  0  0  0  0  0  0  0  0  0  0  0
  -27.7283  -36.6876   26.4108 C   0  0  0  0  0  0  0  0  0  0  0  0
  -26.9931  -34.0033   26.4316 C   0  0  0  0  0  0  0  0  0  0  0  0
  -27.3541  -29.0583   21.2059 C   0  0  0  0  0  0  0  0  0  0  0  0
  -21.8221   -9.5561   21.6327 C   0  0  0  0  0  0  0  0  0  0  0  0
  -23.1265   -7.7167   20.7653 C   0  0  0  0  0  0  0  0  0  0  0  0
  -27.3109  -27.9651   20.3403 C   0  0  0  0  0  0  0  0  0  0  0  0
  -22.6306   -6.4849   23.8729 C   0  0  0  0  0  0  0  0  0  0  0  0
  -23.2028   -5.4174   24.5647 C   0  0  0  0  0  0  0  0  0  0  0  0
  -24.9373  -28.2990   20.0201 C   0  0  0  0  0  0  0  0  0  0  0  0
  -22.0541   -3.8625   23.1156 C   0  0  0  0  0  0  0  0  0  0  0  0
  -23.7666   -9.9923   20.2668 C   0  0  0  0  0  0  0  0  0  0  0  0
  -24.3230  -11.8850   18.6494 C   0  0  0  0  0  0  0  0  0  0  0  0
  -26.5771  -36.2842   25.7161 C   0  0  0  0  0  0  0  0  0  0  0  0
  -26.1907  -29.7863   21.4701 C   0  0  0  0  0  0  0  0  0  0  0  0
  -26.1979  -34.9284   25.7341 C   0  0  0  0  0  0  0  0  0  0  0  0
  -24.9769  -29.4026   20.8765 C   0  0  0  0  0  0  0  0  0  0  0  0
  -22.0435   -8.1844   21.5097 C   0  0  0  0  0  0  0  0  0  0  0  0
  -26.1054  -27.5863   19.7491 C   0  0  0  0  0  0  0  0  0  0  0  0
  -21.7700   -6.2412   22.8025 C   0  0  0  0  0  0  0  0  0  0  0  0
  -22.9146   -4.1062   24.1861 C   0  0  0  0  0  0  0  0  0  0  0  0
  -21.4818   -4.9300   22.4239 C   0  0  0  0  0  0  0  0  0  0  0  0
  -24.6566  -10.9256   19.6241 C   0  0  0  0  0  0  0  0  0  0  0  0
  -25.5109  -12.5131   18.3652 C   0  0  0  0  0  0  0  0  0  0  0  0
  -23.0529  -12.1818   18.0540 C   0  0  0  0  0  0  0  0  0  0  0  0
  -24.6125  -32.6725   23.2743 C   0  0  0  0  0  0  0  0  0  0  0  0
  -23.3791  -32.5949   20.4666 C   0  0  0  0  0  0  0  0  0  0  0  0
  -22.5796  -32.4217   17.1548 C   0  0  0  0  0  0  0  0  0  0  0  0
  -30.2914  -14.8654   20.0263 C   0  0  0  0  0  0  0  0  0  0  0  0
  -25.7414  -37.3326   25.0254 C   0  0  0  0  0  0  0  0  0  0  0  0
  -26.1784  -30.9332   22.4439 C   0  0  0  0  0  0  0  0  0  0  0  0
  -23.7438  -30.1940   21.2170 C   0  0  0  0  0  0  0  0  0  0  0  0
  -24.7482  -36.7550   24.0204 C   0  0  0  0  0  0  0  0  0  0  0  0
  -30.2550  -11.3244   19.6564 C   0  0  0  0  0  0  0  0  0  0  0  0
  -24.0051  -35.5684   24.6259 C   0  0  0  0  0  0  0  0  0  0  0  0
  -28.3146  -16.3603   16.5693 C   0  0  0  0  0  0  0  0  0  0  0  0
  -27.9397  -17.7368   16.0954 C   0  0  0  0  0  0  0  0  0  0  0  0
  -28.7681  -10.9840   19.5410 C   0  0  0  0  0  0  0  0  0  0  0  0
  -26.2534  -24.1917   19.4403 C   0  0  0  0  0  0  0  0  0  0  0  0
  -27.9132  -25.3203   17.9065 C   0  0  0  0  0  0  0  0  0  0  0  0
  -27.1963  -23.0036   19.5872 C   0  0  0  0  0  0  0  0  0  0  0  0
  -28.8565  -24.1326   18.0541 C   0  0  0  0  0  0  0  0  0  0  0  0
  -30.4969  -12.4726   20.6337 C   0  0  0  0  0  0  0  0  0  0  0  0
  -28.2276  -13.3524   20.2460 C   0  0  0  0  0  0  0  0  0  0  0  0
  -29.9815  -18.1214   20.6292 C   0  0  0  0  0  0  0  0  0  0  0  0
  -24.9749  -34.4377   24.9900 C   0  0  1  0  0  0  0  0  0  0  0  0
  -25.2056  -32.0561   22.0415 C   0  0  1  0  0  0  0  0  0  0  0  0
  -29.1046  -17.5544   17.0285 C   0  0  0  0  0  0  0  0  0  0  0  0
  -29.0123  -18.0204   18.4519 C   0  0  1  0  0  0  0  0  0  0  0  0
  -27.9284  -12.2374   19.2294 C   0  0  2  0  0  0  0  0  0  0  0  0
  -29.9253  -17.2380   19.3970 C   0  0  2  0  0  0  0  0  0  0  0  0
  -27.0143  -25.4800   19.1324 C   0  0  0  0  0  0  0  0  0  1  0  0
  -28.0957  -22.8442   18.3617 C   0  0  0  0  0  0  0  0  0  0  0  0
  -29.5152  -19.4583   18.6317 C   0  0  1  0  0  0  0  0  0  0  0  0
  -21.1599  -33.5346   15.4104 C   0  0  0  0  0  0  0  0  0  0  0  0
  -20.9047  -31.2298   21.6147 C   0  0  0  0  0  0  0  0  0  0  0  0
  -19.7821  -31.5613   19.4015 C   0  0  0  0  0  0  0  0  0  0  0  0
  -20.5105  -33.5383   20.7371 C   0  0  0  0  0  0  0  0  0  0  0  0
  -24.9440  -33.1579   15.5341 C   0  0  0  0  0  0  0  0  0  0  0  0
  -28.4606  -20.5227   18.3862 C   0  0  0  0  0  0  0  0  0  0  0  0
  -22.2515  -32.1055   19.5935 C   0  0  1  0  0  0  0  0  0  0  0  0
  -22.5274  -33.4863   16.0739 C   0  0  2  0  0  0  0  0  0  0  0  0
  -20.8869  -32.0946   20.3384 C   0  0  0  0  0  0  0  0  0  0  0  0
  -25.9548  -10.9394   19.9381 N   0  0  0  0  0  0  0  0  0  0  0  0
  -26.4474  -11.9150   19.1560 N   0  0  0  0  0  0  0  0  0  0  0  0
  -24.0558  -31.6317   21.2248 N   0  0  0  0  0  0  0  0  0  0  0  0
  -29.6720  -13.6308   20.2815 N   0  0  0  0  0  0  0  0  0  0  0  0
  -25.8353  -13.5133   17.5185 N   0  0  0  0  0  0  0  0  0  0  0  0
  -22.6845  -11.4956   16.8888 N   0  0  0  0  0  0  0  0  0  0  0  0
  -25.3636  -33.7040   23.8047 N   0  0  0  0  0  0  0  0  0  0  0  0
  -22.2718  -32.9382   18.3957 N   0  0  0  0  0  0  0  0  0  0  0  0
  -29.4372  -15.9095   19.6932 N   0  0  0  0  0  0  0  0  0  0  0  0
  -29.9660  -19.5158   20.0718 N   0  3  0  0  0  0  0  0  0  0  0  0
  -23.5493  -33.2099   15.0250 N   0  3  0  0  0  0  0  0  0  0  0  0
  -22.2750  -13.0421   18.5318 O   0  0  0  0  0  0  0  0  0  0  0  0
  -23.5507  -32.2455   23.7124 O   0  0  0  0  0  0  0  0  0  0  0  0
  -23.6510  -33.7987   20.4823 O   0  0  0  0  0  0  0  0  0  0  0  0
  -22.8613  -31.2484   16.9212 O   0  0  0  0  0  0  0  0  0  0  0  0
  -31.5155  -15.0240   20.0853 O   0  0  0  0  0  0  0  0  0  0  0  0
  -21.2032   -7.3020   22.1162 O   0  0  0  0  0  0  0  0  0  0  0  0
  -26.0711  -26.5209   18.9015 O   0  0  0  0  0  0  0  0  0  1  0  0
  -29.0391  -21.8034   18.5924 O   0  0  0  0  0  0  0  0  0  0  0  0
  -23.4655   -3.0812   24.8495 F   0  0  0  0  0  0  0  0  0  0  0  0
  -20.6567   -4.6896   21.3956 F   0  0  0  0  0  0  0  0  0  0  0  0
  1  2  1  0  0  0  0
  1  5  2  0  0  0  0
  2  6  2  0  0  0  0
  3  8  2  0  0  0  0
  3 15  1  0  0  0  0
  4  9  1  0  0  0  0
  4 15  2  0  0  0  0
  5 17  1  0  0  0  0
  6 19  1  0  0  0  0
  7 10  2  0  0  0  0
  7 18  1  0  0  0  0
  8 21  1  0  0  0  0
  9 21  2  0  0  0  0
 10 22  1  0  0  0  0
 11 12  2  0  0  0  0
 11 23  1  0  0  0  0
 12 24  1  0  0  0  0
 13 20  1  0  0  0  0
 13 22  2  0  0  0  0
 14 24  2  0  0  0  0
 14 25  1  0  0  0  0
 15 26  1  0  0  0  0
 16 26  1  0  0  0  0
 16 27  2  0  0  0  0
 16 28  1  0  0  0  0
 17 19  2  0  0  0  0
 17 33  1  0  0  0  0
 18 20  2  0  0  0  0
 18 34  1  0  0  0  0
 19 49  1  0  0  0  0
 20 35  1  0  0  0  0
 21 83  1  0  0  0  0
 22 84  1  0  0  0  0
 23 25  2  0  0  0  0
 23 83  1  0  0  0  0
 24 86  1  0  0  0  0
 25 87  1  0  0  0  0
 26 67  2  0  0  0  0
 27 68  1  0  0  0  0
 27 71  1  0  0  0  0
 28 72  1  0  0  0  0
 28 78  2  0  0  0  0
 29 50  1  0  0  0  0
 29 73  1  0  0  0  0
 29 79  2  0  0  0  0
 30 64  1  0  0  0  0
 30 69  1  0  0  0  0
 30 80  2  0  0  0  0
 31 65  1  0  0  0  0
 31 74  1  0  0  0  0
 31 81  2  0  0  0  0
 32 70  1  0  0  0  0
 32 75  1  0  0  0  0
 32 82  2  0  0  0  0
 33 36  1  0  0  0  0
 34 50  1  0  0  0  0
 35 69  1  0  0  0  0
 36 38  1  0  0  0  0
 37 41  1  0  0  0  0
 37 46  1  0  0  0  0
 38 49  1  0  0  0  0
 39 40  1  0  0  0  0
 39 51  1  0  0  0  0
 40 51  1  0  0  0  0
 41 53  1  0  0  0  0
 42 44  1  0  0  0  0
 42 55  1  0  0  0  0
 43 45  1  0  0  0  0
 43 55  1  0  0  0  0
 44 56  1  0  0  0  0
 45 56  1  0  0  0  0
 46 70  1  0  0  0  0
 47 53  1  0  0  0  0
 47 70  1  0  0  0  0
 48 54  1  0  0  0  0
 48 76  1  0  0  0  0
 49 73  1  0  0  0  0
 50 69  1  0  0  0  0
 51 52  1  0  0  0  0
 52 54  1  0  0  0  0
 52 57  1  0  0  0  0
 53 68  1  0  0  0  0
 54 75  1  0  0  0  0
 55 84  1  0  0  0  0
 56 85  1  0  0  0  0
 57 63  1  0  0  0  0
 57 76  1  0  0  0  0
 58 65  1  0  0  0  0
 59 66  1  0  0  0  0
 60 66  1  0  0  0  0
 61 66  1  0  0  0  0
 62 77  1  0  0  0  0
 63 85  1  0  0  0  0
 64 66  1  0  0  0  0
 64 74  1  0  0  0  0
 65 77  1  0  0  0  0
 67 68  1  0  0  0  0
M  CHG  2  76   1  77   1
M  ISO  4  32 100  55 101  75 100  84 101
M  END
> <Batch ID>
0146

> <Smiles>
CNC(C)C(=O)NC(C(=O)N1Cc2cc([101O:1][101CH:1]3CCC(OCC4NCC([100NH:0][100C:0](=O)N5CCCC(n6nc(-c7ccc(Oc8ccc(F)cc8F)cc7)c(C(N)=O)c6N)C5)C4C4CC4)CC3)ccc2CC1C(=O)NC1CCCc2ccccc21)C(C)(C)C

> <Shape>
0.293

> <Color>
0.137

> <Negative vol penalty>
0.000

$$$$

  -OEChem-04052321313D

 88 97  0     1  0  0  0  0  0999 V2000
  -18.3755  -30.8505   21.5901 C   0  0  0  0  0  0  0  0  0  0  0  0
  -19.7514  -30.7887   21.3938 C   0  0  0  0  0  0  0  0  0  0  0  0
  -24.9119  -15.5100   21.2793 C   0  0  0  0  0  0  0  0  0  0  0  0
  -26.3080  -13.8251   20.2550 C   0  0  0  0  0  0  0  0  0  0  0  0
  -17.6924  -29.7402   22.0845 C   0  0  0  0  0  0  0  0  0  0  0  0
  -20.4452  -29.6166   21.6928 C   0  0  0  0  0  0  0  0  0  0  0  0
  -25.3142  -27.3650   18.7384 C   0  0  0  0  0  0  0  0  0  0  0  0
  -32.0011  -23.9717   20.4680 C   0  0  0  0  0  0  0  0  0  0  0  0
  -23.8069  -14.6673   21.1595 C   0  0  0  0  0  0  0  0  0  0  0  0
  -25.2029  -12.9824   20.1352 C   0  0  0  0  0  0  0  0  0  0  0  0
  -26.6819  -27.4246   19.0026 C   0  0  0  0  0  0  0  0  0  0  0  0
  -32.9445  -22.9618   20.6567 C   0  0  0  0  0  0  0  0  0  0  0  0
  -23.4134  -10.9251   22.1317 C   0  0  0  0  0  0  0  0  0  0  0  0
  -23.5775   -9.5883   22.4945 C   0  0  0  0  0  0  0  0  0  0  0  0
  -26.5626  -25.2671   20.0749 C   0  0  0  0  0  0  0  0  0  0  0  0
  -33.7914  -23.3359   18.4251 C   0  0  0  0  0  0  0  0  0  0  0  0
  -22.9870   -8.9075   20.2529 C   0  0  0  0  0  0  0  0  0  0  0  0
  -26.1625  -15.0890   20.8270 C   0  0  0  0  0  0  0  0  0  0  0  0
  -28.1983  -16.0406   22.0343 C   0  0  0  0  0  0  0  0  0  0  0  0
  -18.3767  -28.5508   22.3806 C   0  0  0  0  0  0  0  0  0  0  0  0
  -24.5572  -26.2590   19.1509 C   0  0  0  0  0  0  0  0  0  0  0  0
  -19.7708  -28.4897   22.1929 C   0  0  0  0  0  0  0  0  0  0  0  0
  -31.9527  -24.6637   19.2578 C   0  0  0  0  0  0  0  0  0  0  0  0
  -25.1861  -25.1947   19.8125 C   0  0  0  0  0  0  0  0  0  0  0  0
  -32.8479  -24.3458   18.2364 C   0  0  0  0  0  0  0  0  0  0  0  0
  -23.9524  -13.4035   20.5875 C   0  0  0  0  0  0  0  0  0  0  0  0
  -27.3057  -26.3769   19.6735 C   0  0  0  0  0  0  0  0  0  0  0  0
  -33.8397  -22.6439   19.6353 C   0  0  0  0  0  0  0  0  0  0  0  0
  -23.0361  -11.2531   20.8295 C   0  0  0  0  0  0  0  0  0  0  0  0
  -23.3643   -8.5795   21.5551 C   0  0  0  0  0  0  0  0  0  0  0  0
  -22.8229  -10.2443   19.8901 C   0  0  0  0  0  0  0  0  0  0  0  0
  -27.3042  -15.9592   20.9499 C   0  0  0  0  0  0  0  0  0  0  0  0
  -29.0986  -17.0098   21.6650 C   0  0  0  0  0  0  0  0  0  0  0  0
  -28.2136  -15.3056   23.2653 C   0  0  0  0  0  0  0  0  0  0  0  0
  -22.1044  -25.8307   21.1268 C   0  0  0  0  0  0  0  0  0  0  0  0
  -22.2077  -22.8006   19.9735 C   0  0  0  0  0  0  0  0  0  0  0  0
  -24.0370  -20.3174   18.5125 C   0  0  0  0  0  0  0  0  0  0  0  0
  -32.4348  -19.3559   17.8557 C   0  0  0  0  0  0  0  0  0  0  0  0
  -17.6025  -27.3922   22.9576 C   0  0  0  0  0  0  0  0  0  0  0  0
  -23.0879  -26.1978   18.8346 C   0  0  0  0  0  0  0  0  0  0  0  0
  -24.4220  -23.9757   20.2584 C   0  0  0  0  0  0  0  0  0  0  0  0
  -18.3552  -26.0656   22.8958 C   0  0  0  0  0  0  0  0  0  0  0  0
  -29.0024  -20.3018   17.8257 C   0  0  0  0  0  0  0  0  0  0  0  0
  -19.7917  -26.2439   23.3768 C   0  0  0  0  0  0  0  0  0  0  0  0
  -28.3280  -19.2598   18.7198 C   0  0  0  0  0  0  0  0  0  0  0  0
  -29.9257  -25.5836   17.9560 C   0  0  0  0  0  0  0  0  0  0  0  0
  -30.1337  -19.6910   17.0017 C   0  0  0  0  0  0  0  0  0  0  0  0
  -30.4724  -17.9186   18.6802 C   0  0  0  0  0  0  0  0  0  0  0  0
  -20.5549  -27.2281   22.4821 C   0  0  1  0  0  0  0  0  0  0  0  0
  -22.3174  -25.2561   19.7549 C   0  0  1  0  0  0  0  0  0  0  0  0
  -29.3615  -18.4990   19.5721 C   0  0  2  0  0  0  0  0  0  0  0  0
  -29.4836  -25.3842   19.3734 C   0  0  1  0  0  0  0  0  0  1  0  0
  -30.9359  -25.7398   19.0787 C   0  0  1  0  0  0  0  0  0  0  0  0
  -32.8176  -25.0729   16.9319 C   0  0  0  0  0  0  0  0  0  0  0  0
  -23.8588  -17.9405   17.7279 C   0  0  0  0  0  0  0  0  0  0  0  0
  -30.7286  -28.1779   18.5164 C   0  0  0  0  0  0  0  0  0  0  0  0
  -31.2409  -27.4716   20.8706 C   0  0  0  0  0  0  0  0  0  0  0  0
  -22.3475  -21.8381   22.8656 C   0  0  0  0  0  0  0  0  0  0  0  0
  -23.1135  -19.6117   22.0143 C   0  0  0  0  0  0  0  0  0  0  0  0
  -20.8608  -20.4781   21.3842 C   0  0  0  0  0  0  0  0  0  0  0  0
  -24.6585  -21.0709   15.7188 C   0  0  0  0  0  0  0  0  0  0  0  0
  -35.0911  -19.3172   20.2240 C   0  0  0  0  0  0  0  0  0  0  0  0
  -34.6795  -18.9101   18.8157 C   0  0  0  0  0  0  0  0  0  0  0  0
  -34.4038  -20.5922   20.6974 C   0  0  0  0  0  0  0  0  0  0  0  0
  -22.9224  -21.5305   20.3674 C   0  0  1  0  0  0  0  0  0  0  0  0
  -23.7385  -19.4051   17.3365 C   0  0  2  0  0  0  0  0  0  0  0  0
  -31.4314  -27.1274   19.3871 C   0  0  0  0  0  0  0  0  0  0  0  0
  -22.3254  -20.8883   21.6513 C   0  0  0  0  0  0  0  0  0  0  0  0
  -27.6088  -16.8092   19.9657 N   0  0  0  0  0  0  0  0  0  0  0  0
  -28.7043  -17.4339   20.4302 N   0  0  0  0  0  0  0  0  0  0  0  0
  -22.9865  -23.9657   19.9316 N   0  0  0  0  0  0  0  0  0  0  0  0
  -31.0799  -18.9856   17.8694 N   0  0  0  0  0  0  0  0  0  0  0  0
  -30.1812  -17.5323   22.2794 N   0  0  0  0  0  0  0  0  0  0  0  0
  -27.2149  -14.3467   23.4834 N   0  0  0  0  0  0  0  0  0  0  0  0
  -20.9531  -26.5851   21.2482 N   0  0  0  0  0  0  0  0  0  0  0  0
  -22.8897  -20.6632   19.1947 N   0  0  0  0  0  0  0  0  0  0  0  0
  -33.2625  -18.6410   18.7127 N   0  0  0  0  0  0  0  0  0  0  0  0
  -24.6879  -19.6725   16.2194 N   0  3  0  0  0  0  0  0  0  0  0  0
  -29.0773  -15.5052   24.1527 O   0  0  0  0  0  0  0  0  0  0  0  0
  -22.9232  -25.6050   22.0101 O   0  0  0  0  0  0  0  0  0  0  0  0
  -21.0042  -22.7591   19.7058 O   0  0  0  0  0  0  0  0  0  0  0  0
  -25.1745  -20.6835   18.7996 O   0  0  0  0  0  0  0  0  0  0  0  0
  -32.8732  -20.2605   17.1370 O   0  0  0  0  0  0  0  0  0  0  0  0
  -22.8744  -12.5808   20.4707 O   0  0  0  0  0  0  0  0  0  0  0  0
  -28.6404  -26.4328   19.9332 O   0  0  0  0  0  0  0  0  0  1  0  0
  -34.7610  -21.6593   19.8202 O   0  0  0  0  0  0  0  0  0  0  0  0
  -23.5233   -7.2959   21.9032 F   0  0  0  0  0  0  0  0  0  0  0  0
  -22.4614  -10.5533   18.6372 F   0  0  0  0  0  0  0  0  0  0  0  0
  1  2  1  0  0  0  0
  1  5  2  0  0  0  0
  2  6  2  0  0  0  0
  3  9  2  0  0  0  0
  3 18  1  0  0  0  0
  4 10  1  0  0  0  0
  4 18  2  0  0  0  0
  5 20  1  0  0  0  0
  6 22  1  0  0  0  0
  7 11  2  0  0  0  0
  7 21  1  0  0  0  0
  8 12  2  0  0  0  0
  8 23  1  0  0  0  0
  9 26  1  0  0  0  0
 10 26  2  0  0  0  0
 11 27  1  0  0  0  0
 12 28  1  0  0  0  0
 13 14  2  0  0  0  0
 13 29  1  0  0  0  0
 14 30  1  0  0  0  0
 15 24  1  0  0  0  0
 15 27  2  0  0  0  0
 16 25  1  0  0  0  0
 16 28  2  0  0  0  0
 17 30  2  0  0  0  0
 17 31  1  0  0  0  0
 18 32  1  0  0  0  0
 19 32  1  0  0  0  0
 19 33  2  0  0  0  0
 19 34  1  0  0  0  0
 20 22  2  0  0  0  0
 20 39  1  0  0  0  0
 21 24  2  0  0  0  0
 21 40  1  0  0  0  0
 22 49  1  0  0  0  0
 23 25  2  0  0  0  0
 23 53  1  0  0  0  0
 24 41  1  0  0  0  0
 25 54  1  0  0  0  0
 26 84  1  0  0  0  0
 27 85  1  0  0  0  0
 28 86  1  0  0  0  0
 29 31  2  0  0  0  0
 29 84  1  0  0  0  0
 30 87  1  0  0  0  0
 31 88  1  0  0  0  0
 32 69  2  0  0  0  0
 33 70  1  0  0  0  0
 33 73  1  0  0  0  0
 34 74  1  0  0  0  0
 34 79  2  0  0  0  0
 35 50  1  0  0  0  0
 35 75  1  0  0  0  0
 35 80  2  0  0  0  0
 36 65  1  0  0  0  0
 36 71  1  0  0  0  0
 36 81  2  0  0  0  0
 37 66  1  0  0  0  0
 37 76  1  0  0  0  0
 37 82  2  0  0  0  0
 38 72  1  0  0  0  0
 38 77  1  0  0  0  0
 38 83  2  0  0  0  0
 39 42  1  0  0  0  0
 40 50  1  0  0  0  0
 41 71  1  0  0  0  0
 42 44  1  0  0  0  0
 43 45  1  0  0  0  0
 43 47  1  0  0  0  0
 44 49  1  0  0  0  0
 45 51  1  0  0  0  0
 46 52  1  0  0  0  0
 46 53  1  0  0  0  0
 47 72  1  0  0  0  0
 48 51  1  0  0  0  0
 48 72  1  0  0  0  0
 49 75  1  0  0  0  0
 50 71  1  0  0  0  0
 51 70  1  0  0  0  0
 52 53  1  0  0  0  0
 52 85  1  0  0  0  0
 53 67  1  0  0  0  0
 55 66  1  0  0  0  0
 56 67  1  0  0  0  0
 57 67  1  0  0  0  0
 58 68  1  0  0  0  0
 59 68  1  0  0  0  0
 60 68  1  0  0  0  0
 61 78  1  0  0  0  0
 62 63  1  0  0  0  0
 62 64  1  0  0  0  0
 63 77  1  0  0  0  0
 64 86  1  0  0  0  0
 65 68  1  0  0  0  0
 65 76  1  0  0  0  0
 66 78  1  0  0  0  0
 69 70  1  0  0  0  0
M  CHG  1  78   1
M  ISO  4  38 100  52 101  77 100  85 101
M  END
> <Batch ID>
0146

> <Smiles>
CNC(C)C(=O)NC(C(=O)N1Cc2cc([101O:1][101CH:1]3CC3(c3ccc(OCCC[100NH:0][100C:0](=O)N4CCCC(n5nc(-c6ccc(Oc7ccc(F)cc7F)cc6)c(C(N)=O)c5N)C4)cc3C)C(C)C)ccc2CC1C(=O)NC1CCCc2ccccc21)C(C)(C)C

> <Shape>
0.218

> <Color>
0.045

> <Negative vol penalty>
0.000

$$$$

  -OEChem-04052321313D

 88 98  0     1  0  0  0  0  0999 V2000
  -18.1953  -31.8299   24.5982 C   0  0  0  0  0  0  0  0  0  0  0  0
  -18.6320  -30.5328   24.3486 C   0  0  0  0  0  0  0  0  0  0  0  0
  -22.9770  -10.5035   20.8115 C   0  0  0  0  0  0  0  0  0  0  0  0
  -24.6686   -8.8508   21.3059 C   0  0  0  0  0  0  0  0  0  0  0  0
  -18.5995  -32.8725   23.7655 C   0  0  0  0  0  0  0  0  0  0  0  0
  -19.4723  -30.2774   23.2655 C   0  0  0  0  0  0  0  0  0  0  0  0
  -23.3182  -27.2113   24.4708 C   0  0  0  0  0  0  0  0  0  0  0  0
  -22.1494   -9.9484   21.7875 C   0  0  0  0  0  0  0  0  0  0  0  0
  -23.8410   -8.2957   22.2819 C   0  0  0  0  0  0  0  0  0  0  0  0
  -23.0400  -25.8486   24.5670 C   0  0  0  0  0  0  0  0  0  0  0  0
  -22.0310   -6.2207   24.6544 C   0  0  0  0  0  0  0  0  0  0  0  0
  -21.9124   -4.8314   24.6902 C   0  0  0  0  0  0  0  0  0  0  0  0
  -23.9499  -25.5131   22.3582 C   0  0  0  0  0  0  0  0  0  0  0  0
  -27.7885  -17.6654   20.4832 C   0  0  0  0  0  0  0  0  0  0  0  0
  -21.0420   -4.8476   22.4365 C   0  0  0  0  0  0  0  0  0  0  0  0
  -30.1396  -19.0456   20.3690 C   0  0  0  0  0  0  0  0  0  0  0  0
  -24.2366   -9.9546   20.5706 C   0  0  0  0  0  0  0  0  0  0  0  0
  -24.8175  -10.6546   18.1873 C   0  0  0  0  0  0  0  0  0  0  0  0
  -19.4529  -32.6314   22.6773 C   0  0  0  0  0  0  0  0  0  0  0  0
  -23.9054  -27.7378   23.3113 C   0  0  0  0  0  0  0  0  0  0  0  0
  -19.8871  -31.3177   22.4167 C   0  0  0  0  0  0  0  0  0  0  0  0
  -24.2369  -26.8825   22.2508 C   0  0  0  0  0  0  0  0  0  0  0  0
  -28.9658  -19.7618   20.5399 C   0  0  0  0  0  0  0  0  0  0  0  0
  -22.5814   -8.8445   22.5227 C   0  0  0  0  0  0  0  0  0  0  0  0
  -23.3532  -24.9997   23.5095 C   0  0  0  0  0  0  0  0  0  0  0  0
  -21.6551   -6.9236   23.5096 C   0  0  0  0  0  0  0  0  0  0  0  0
  -27.7722  -19.0511   20.5970 C   0  0  0  0  0  0  0  0  0  0  0  0
  -21.4179   -4.1449   23.5813 C   0  0  0  0  0  0  0  0  0  0  0  0
  -21.1606   -6.2370   22.4007 C   0  0  0  0  0  0  0  0  0  0  0  0
  -25.0918  -10.5272   19.5622 C   0  0  0  0  0  0  0  0  0  0  0  0
  -29.0149  -17.0430   20.3147 C   0  0  0  0  0  0  0  0  0  0  0  0
  -25.9370  -11.2576   17.6683 C   0  0  0  0  0  0  0  0  0  0  0  0
  -23.6546  -10.2628   17.4457 C   0  0  0  0  0  0  0  0  0  0  0  0
  -23.0233  -29.8601   21.1155 C   0  0  0  0  0  0  0  0  0  0  0  0
  -26.0498  -29.4185   20.0350 C   0  0  0  0  0  0  0  0  0  0  0  0
  -28.7966  -27.4012   19.8554 C   0  0  0  0  0  0  0  0  0  0  0  0
  -30.1295  -14.8022   20.0272 C   0  0  0  0  0  0  0  0  0  0  0  0
  -19.8248  -33.7831   21.7773 C   0  0  0  0  0  0  0  0  0  0  0  0
  -24.2235  -29.2059   23.2339 C   0  0  0  0  0  0  0  0  0  0  0  0
  -24.8868  -27.3946   20.9924 C   0  0  0  0  0  0  0  0  0  0  0  0
  -21.0178  -33.4878   20.8718 C   0  0  0  0  0  0  0  0  0  0  0  0
  -30.6501  -11.6740   18.4084 C   0  0  0  0  0  0  0  0  0  0  0  0
  -28.1676  -22.0756   19.7133 C   0  0  0  0  0  0  0  0  0  0  0  0
  -29.6573  -22.0549   19.5694 C   0  0  0  0  0  0  0  0  0  0  0  0
  -20.8636  -32.1199   20.2147 C   0  0  0  0  0  0  0  0  0  0  0  0
  -25.4781  -20.8040   23.1903 C   0  0  0  0  0  0  0  0  0  0  0  0
  -23.9741  -20.9394   21.1615 C   0  0  0  0  0  0  0  0  0  0  0  0
  -29.2577  -11.0391   18.3900 C   0  0  0  0  0  0  0  0  0  0  0  0
  -24.6238  -21.8572   23.8892 C   0  0  0  0  0  0  0  0  0  0  0  0
  -23.1243  -21.9928   21.8659 C   0  0  0  0  0  0  0  0  0  0  0  0
  -30.8970  -12.4624   19.6934 C   0  0  0  0  0  0  0  0  0  0  0  0
  -28.4797  -12.8292   19.9954 C   0  0  0  0  0  0  0  0  0  0  0  0
  -28.9992  -21.2457   20.6576 C   0  0  0  0  0  0  0  0  0  0  0  0
  -20.8192  -31.0046   21.2663 C   0  0  1  0  0  0  0  0  0  0  0  0
  -24.3523  -29.7146   21.8014 C   0  0  1  0  0  0  0  0  0  0  0  0
  -24.6622  -20.0039   22.1653 C   0  0  0  0  0  0  0  0  0  0  0  0
  -28.1604  -12.0784   18.6923 C   0  0  2  0  0  0  0  0  0  0  0  0
  -23.9386  -22.7833   22.8879 C   0  0  0  0  0  0  0  0  0  1  0  0
  -31.1024  -27.2958   18.8707 C   0  0  0  0  0  0  0  0  0  0  0  0
  -24.8498  -28.8114   17.2961 C   0  0  0  0  0  0  0  0  0  0  0  0
  -27.0465  -27.8098   16.6331 C   0  0  0  0  0  0  0  0  0  0  0  0
  -26.9120  -30.2253   17.2414 C   0  0  0  0  0  0  0  0  0  0  0  0
  -30.0552  -27.2176   22.5277 C   0  0  0  0  0  0  0  0  0  0  0  0
  -25.5492  -18.9935   21.4402 C   0  0  0  0  0  0  0  0  0  0  0  0
  -26.7089  -28.4769   19.0563 C   0  0  1  0  0  0  0  0  0  0  0  0
  -30.2706  -27.6838   20.0833 C   0  0  2  0  0  0  0  0  0  0  0  0
  -26.3653  -28.8212   17.5795 C   0  0  0  0  0  0  0  0  0  0  0  0
  -30.1951  -17.6997   20.2546 N   0  0  0  0  0  0  0  0  0  0  0  0
  -26.2915  -11.0104   19.8956 N   0  0  0  0  0  0  0  0  0  0  0  0
  -26.7811  -11.4471   18.7227 N   0  0  0  0  0  0  0  0  0  0  0  0
  -25.1723  -28.8386   20.9620 N   0  0  0  0  0  0  0  0  0  0  0  0
  -29.8200  -13.4304   19.9124 N   0  0  0  0  0  0  0  0  0  0  0  0
  -26.2719  -11.6389   16.4173 N   0  0  0  0  0  0  0  0  0  0  0  0
  -23.6148   -8.9736   16.8974 N   0  0  0  0  0  0  0  0  0  0  0  0
  -29.0213  -15.6307   20.2008 N   0  0  0  0  0  0  0  0  0  0  0  0
  -22.1505  -30.7187   21.7563 N   0  0  0  0  0  0  0  0  0  0  0  0
  -28.1355  -28.5052   19.3601 N   0  0  0  0  0  0  0  0  0  0  0  0
  -30.7691  -26.9171   21.2600 N   0  3  0  0  0  0  0  0  0  0  0  0
  -22.6867  -11.0390   17.2603 O   0  0  0  0  0  0  0  0  0  0  0  0
  -22.8064  -29.2406   20.0807 O   0  0  0  0  0  0  0  0  0  0  0  0
  -26.3098  -30.6233   19.9836 O   0  0  0  0  0  0  0  0  0  0  0  0
  -28.2838  -26.3091   20.0897 O   0  0  0  0  0  0  0  0  0  0  0  0
  -31.2895  -15.2145   19.9481 O   0  0  0  0  0  0  0  0  0  0  0  0
  -21.7742   -8.3028   23.4753 O   0  0  0  0  0  0  0  0  0  0  0  0
  -23.0822  -23.6692   23.6005 O   0  0  0  0  0  0  0  0  0  1  0  0
  -26.5730  -19.6992   20.7642 O   0  0  0  0  0  0  0  0  0  0  0  0
  -21.3055   -2.8106   23.6152 F   0  0  0  0  0  0  0  0  0  0  0  0
  -20.7989   -6.9066   21.2977 F   0  0  0  0  0  0  0  0  0  0  0  0
  1  2  1  0  0  0  0
  1  5  2  0  0  0  0
  2  6  2  0  0  0  0
  3  8  2  0  0  0  0
  3 17  1  0  0  0  0
  4  9  1  0  0  0  0
  4 17  2  0  0  0  0
  5 19  1  0  0  0  0
  6 21  1  0  0  0  0
  7 10  2  0  0  0  0
  7 20  1  0  0  0  0
  8 24  1  0  0  0  0
  9 24  2  0  0  0  0
 10 25  1  0  0  0  0
 11 12  2  0  0  0  0
 11 26  1  0  0  0  0
 12 28  1  0  0  0  0
 13 22  1  0  0  0  0
 13 25  2  0  0  0  0
 14 27  1  0  0  0  0
 14 31  2  0  0  0  0
 15 28  2  0  0  0  0
 15 29  1  0  0  0  0
 16 23  1  0  0  0  0
 16 68  2  0  0  0  0
 17 30  1  0  0  0  0
 18 30  1  0  0  0  0
 18 32  2  0  0  0  0
 18 33  1  0  0  0  0
 19 21  2  0  0  0  0
 19 38  1  0  0  0  0
 20 22  2  0  0  0  0
 20 39  1  0  0  0  0
 21 54  1  0  0  0  0
 22 40  1  0  0  0  0
 23 27  2  0  0  0  0
 23 53  1  0  0  0  0
 24 84  1  0  0  0  0
 25 85  1  0  0  0  0
 26 29  2  0  0  0  0
 26 84  1  0  0  0  0
 27 86  1  0  0  0  0
 28 87  1  0  0  0  0
 29 88  1  0  0  0  0
 30 69  2  0  0  0  0
 31 68  1  0  0  0  0
 31 75  1  0  0  0  0
 32 70  1  0  0  0  0
 32 73  1  0  0  0  0
 33 74  1  0  0  0  0
 33 79  2  0  0  0  0
 34 55  1  0  0  0  0
 34 76  1  0  0  0  0
 34 80  2  0  0  0  0
 35 65  1  0  0  0  0
 35 71  1  0  0  0  0
 35 81  2  0  0  0  0
 36 66  1  0  0  0  0
 36 77  1  0  0  0  0
 36 82  2  0  0  0  0
 37 72  1  0  0  0  0
 37 75  1  0  0  0  0
 37 83  2  0  0  0  0
 38 41  1  0  0  0  0
 39 55  1  0  0  0  0
 40 71  1  0  0  0  0
 41 45  1  0  0  0  0
 42 48  1  0  0  0  0
 42 51  1  0  0  0  0
 43 44  1  0  0  0  0
 43 53  1  0  0  0  0
 44 53  1  0  0  0  0
 45 54  1  0  0  0  0
 46 49  1  0  0  0  0
 46 56  1  0  0  0  0
 47 50  1  0  0  0  0
 47 56  1  0  0  0  0
 48 57  1  0  0  0  0
 49 58  1  0  0  0  0
 50 58  1  0  0  0  0
 51 72  1  0  0  0  0
 52 57  1  0  0  0  0
 52 72  1  0  0  0  0
 54 76  1  0  0  0  0
 55 71  1  0  0  0  0
 56 64  1  0  0  0  0
 57 70  1  0  0  0  0
 58 85  1  0  0  0  0
 59 66  1  0  0  0  0
 60 67  1  0  0  0  0
 61 67  1  0  0  0  0
 62 67  1  0  0  0  0
 63 78  1  0  0  0  0
 64 86  1  0  0  0  0
 65 67  1  0  0  0  0
 65 77  1  0  0  0  0
 66 78  1  0  0  0  0
 69 70  1  0  0  0  0
M  CHG  1  78   1
M  ISO  4  37 100  58 101  75 100  85 101
M  END
> <Batch ID>
0146

> <Smiles>
CNC(C)C(=O)NC(C(=O)N1Cc2cc([101O:1][101CH:1]3CCC(COc4cc([100NH:0][100C:0](=O)N5CCCC(n6nc(-c7ccc(Oc8ccc(F)cc8F)cc7)c(C(N)=O)c6N)C5)ncc4C4CC4)CC3)ccc2CC1C(=O)NC1CCCc2ccccc21)C(C)(C)C

> <Shape>
0.276

> <Color>
0.094

> <Negative vol penalty>
0.000

$$$$

  -OEChem-04052321313D

 88 97  0     1  0  0  0  0  0999 V2000
  -17.0803  -30.3723   24.6297 C   0  0  0  0  0  0  0  0  0  0  0  0
  -17.4971  -29.0627   24.4140 C   0  0  0  0  0  0  0  0  0  0  0  0
  -31.5172  -18.5449   20.4633 C   0  0  0  0  0  0  0  0  0  0  0  0
  -29.4901  -18.5494   21.7778 C   0  0  0  0  0  0  0  0  0  0  0  0
  -17.5892  -31.4034   23.8412 C   0  0  0  0  0  0  0  0  0  0  0  0
  -18.4223  -28.7832   23.4088 C   0  0  0  0  0  0  0  0  0  0  0  0
  -22.7895  -24.4912   23.5146 C   0  0  0  0  0  0  0  0  0  0  0  0
  -31.3997  -19.9223   20.2774 C   0  0  0  0  0  0  0  0  0  0  0  0
  -29.3726  -19.9268   21.5920 C   0  0  0  0  0  0  0  0  0  0  0  0
  -22.8545  -23.2057   22.9787 C   0  0  0  0  0  0  0  0  0  0  0  0
  -31.4373  -23.3814   19.1562 C   0  0  0  0  0  0  0  0  0  0  0  0
  -31.6467  -23.8842   17.8722 C   0  0  0  0  0  0  0  0  0  0  0  0
  -24.0101  -24.0755   21.0480 C   0  0  0  0  0  0  0  0  0  0  0  0
  -24.7193  -18.5639   19.1982 C   0  0  0  0  0  0  0  0  0  0  0  0
  -23.3153  -18.5854   21.1642 C   0  0  0  0  0  0  0  0  0  0  0  0
  -29.8211  -22.5345   17.0459 C   0  0  0  0  0  0  0  0  0  0  0  0
  -30.5623  -17.8584   21.2135 C   0  0  0  0  0  0  0  0  0  0  0  0
  -31.3573  -15.7724   22.4481 C   0  0  0  0  0  0  0  0  0  0  0  0
  -18.5283  -31.1378   22.8322 C   0  0  0  0  0  0  0  0  0  0  0  0
  -23.3256  -25.5819   22.8150 C   0  0  0  0  0  0  0  0  0  0  0  0
  -18.9432  -29.8116   22.6052 C   0  0  0  0  0  0  0  0  0  0  0  0
  -23.9529  -25.3734   21.5784 C   0  0  0  0  0  0  0  0  0  0  0  0
  -23.6679  -19.1215   19.9257 C   0  0  0  0  0  0  0  0  0  0  0  0
  -25.4180  -17.4701   19.7092 C   0  0  0  0  0  0  0  0  0  0  0  0
  -24.0141  -17.4917   21.6752 C   0  0  0  0  0  0  0  0  0  0  0  0
  -25.0654  -16.9340   20.9477 C   0  0  0  0  0  0  0  0  0  0  0  0
  -30.3275  -20.6133   20.8417 C   0  0  0  0  0  0  0  0  0  0  0  0
  -23.4623  -22.9982   21.7439 C   0  0  0  0  0  0  0  0  0  0  0  0
  -30.4198  -22.4550   19.3852 C   0  0  0  0  0  0  0  0  0  0  0  0
  -30.8386  -23.4608   16.8170 C   0  0  0  0  0  0  0  0  0  0  0  0
  -29.6117  -22.0317   18.3300 C   0  0  0  0  0  0  0  0  0  0  0  0
  -30.6828  -16.4355   21.4054 C   0  0  0  0  0  0  0  0  0  0  0  0
  -31.1785  -14.4376   22.1785 C   0  0  0  0  0  0  0  0  0  0  0  0
  -32.0807  -16.3146   23.5610 C   0  0  0  0  0  0  0  0  0  0  0  0
  -22.1363  -28.2593   21.5817 C   0  0  0  0  0  0  0  0  0  0  0  0
  -25.2597  -28.9228   21.0108 C   0  0  0  0  0  0  0  0  0  0  0  0
  -28.4293  -27.7526   20.5302 C   0  0  0  0  0  0  0  0  0  0  0  0
  -26.9702  -11.6680   19.0955 C   0  0  0  0  0  0  0  0  0  0  0  0
  -19.0144  -32.2789   21.9742 C   0  0  0  0  0  0  0  0  0  0  0  0
  -23.2711  -26.9584   23.4190 C   0  0  0  0  0  0  0  0  0  0  0  0
  -24.5617  -26.5078   20.7968 C   0  0  0  0  0  0  0  0  0  0  0  0
  -20.2737  -31.9483   21.1772 C   0  0  0  0  0  0  0  0  0  0  0  0
  -30.5291  -11.5402   18.5098 C   0  0  0  0  0  0  0  0  0  0  0  0
  -20.1364  -30.5870   20.5026 C   0  0  0  0  0  0  0  0  0  0  0  0
  -31.0355  -12.7356   19.3167 C   0  0  0  0  0  0  0  0  0  0  0  0
  -23.7473  -12.7446   20.3852 C   0  0  0  0  0  0  0  0  0  0  0  0
  -29.1664  -11.8160   17.8723 C   0  0  0  0  0  0  0  0  0  0  0  0
  -24.8301  -11.6738   20.4078 C   0  0  0  0  0  0  0  0  0  0  0  0
  -28.6411  -13.4649   19.6400 C   0  0  0  0  0  0  0  0  0  0  0  0
  -24.1080  -13.9506   21.2387 C   0  0  0  0  0  0  0  0  0  0  0  0
  -19.9639  -29.4718   21.5409 C   0  0  1  0  0  0  0  0  0  0  0  0
  -23.3936  -28.0710   22.3825 C   0  0  1  0  0  0  0  0  0  0  0  0
  -29.9828  -13.1980   20.3400 C   0  0  2  0  0  0  0  0  0  0  0  0
  -26.5582  -13.4115   20.8710 C   0  0  1  0  0  0  0  0  0  0  0  0
  -26.5406  -16.8922   18.9107 C   0  0  0  0  0  0  0  0  0  0  0  0
  -23.6168  -16.9363   23.0040 C   0  0  0  0  0  0  0  0  0  0  0  0
  -26.9295  -13.0322   22.3082 C   0  0  0  0  0  0  0  0  0  0  0  0
  -30.7652  -28.5327   20.0481 C   0  0  0  0  0  0  0  0  0  0  0  0
  -24.4959  -29.4010   18.0957 C   0  0  0  0  0  0  0  0  0  0  0  0
  -26.9230  -29.2332   17.5048 C   0  0  0  0  0  0  0  0  0  0  0  0
  -26.1343  -31.0445   19.0279 C   0  0  0  0  0  0  0  0  0  0  0  0
  -29.4538  -26.6246   23.0673 C   0  0  0  0  0  0  0  0  0  0  0  0
  -22.9205  -20.2905   19.3791 C   0  0  0  0  0  0  0  0  0  0  0  0
  -25.8175  -15.7578   21.4973 C   0  0  0  0  0  0  0  0  0  0  0  0
  -23.5248  -21.6348   19.7963 C   0  0  0  0  0  0  0  0  0  1  0  0
  -26.2172  -28.6631   19.8729 C   0  0  1  0  0  0  0  0  0  0  0  0
  -29.7594  -28.1713   21.1301 C   0  0  2  0  0  0  0  0  0  0  0  0
  -25.9295  -29.5641   18.6389 C   0  0  0  0  0  0  0  0  0  0  0  0
  -30.1179  -15.5914   20.5380 N   0  0  0  0  0  0  0  0  0  0  0  0
  -30.4370  -14.3843   21.0351 N   0  0  0  0  0  0  0  0  0  0  0  0
  -24.4776  -27.8360   21.4264 N   0  0  0  0  0  0  0  0  0  0  0  0
  -28.2081  -12.2917   18.8792 N   0  0  0  0  0  0  0  0  0  0  0  0
  -26.1462  -12.2285   20.0887 N   0  0  0  0  0  0  0  0  0  0  0  0
  -31.5849  -13.3159   22.8103 N   0  0  0  0  0  0  0  0  0  0  0  0
  -32.1665  -17.7078   23.6872 N   0  0  0  0  0  0  0  0  0  0  0  0
  -21.2368  -29.1435   22.1462 N   0  0  0  0  0  0  0  0  0  0  0  0
  -27.5588  -28.8167   20.4252 N   0  0  0  0  0  0  0  0  0  0  0  0
  -25.4643  -14.4634   20.8186 N   0  3  2  0  0  0  0  0  0  0  0  0
  -30.3288  -27.0652   21.9505 N   0  3  0  0  0  0  0  0  0  0  0  0
  -32.6484  -15.5853   24.4090 O   0  0  0  0  0  0  0  0  0  0  0  0
  -21.9934  -27.6487   20.5288 O   0  0  0  0  0  0  0  0  0  0  0  0
  -25.2128  -30.0467   21.5171 O   0  0  0  0  0  0  0  0  0  0  0  0
  -28.1881  -26.5978   20.1855 O   0  0  0  0  0  0  0  0  0  0  0  0
  -26.6184  -10.6768   18.4441 O   0  0  0  0  0  0  0  0  0  0  0  0
  -30.2126  -21.9574   20.6607 O   0  0  0  0  0  0  0  0  0  0  0  0
  -23.5270  -21.7358   21.2146 O   0  0  0  0  0  0  0  0  0  1  0  0
  -31.0388  -23.9449   15.5842 F   0  0  0  0  0  0  0  0  0  0  0  0
  -28.6318  -21.1429   18.5441 F   0  0  0  0  0  0  0  0  0  0  0  0
  1  2  1  0  0  0  0
  1  5  2  0  0  0  0
  2  6  2  0  0  0  0
  3  8  2  0  0  0  0
  3 17  1  0  0  0  0
  4  9  1  0  0  0  0
  4 17  2  0  0  0  0
  5 19  1  0  0  0  0
  6 21  1  0  0  0  0
  7 10  2  0  0  0  0
  7 20  1  0  0  0  0
  8 27  1  0  0  0  0
  9 27  2  0  0  0  0
 10 28  1  0  0  0  0
 11 12  2  0  0  0  0
 11 29  1  0  0  0  0
 12 30  1  0  0  0  0
 13 22  1  0  0  0  0
 13 28  2  0  0  0  0
 14 23  1  0  0  0  0
 14 24  2  0  0  0  0
 15 23  2  0  0  0  0
 15 25  1  0  0  0  0
 16 30  2  0  0  0  0
 16 31  1  0  0  0  0
 17 32  1  0  0  0  0
 18 32  1  0  0  0  0
 18 33  2  0  0  0  0
 18 34  1  0  0  0  0
 19 21  2  0  0  0  0
 19 39  1  0  0  0  0
 20 22  2  0  0  0  0
 20 40  1  0  0  0  0
 21 51  1  0  0  0  0
 22 41  1  0  0  0  0
 23 63  1  0  0  0  0
 24 26  1  0  0  0  0
 24 55  1  0  0  0  0
 25 26  2  0  0  0  0
 25 56  1  0  0  0  0
 26 64  1  0  0  0  0
 27 85  1  0  0  0  0
 28 86  1  0  0  0  0
 29 31  2  0  0  0  0
 29 85  1  0  0  0  0
 30 87  1  0  0  0  0
 31 88  1  0  0  0  0
 32 69  2  0  0  0  0
 33 70  1  0  0  0  0
 33 74  1  0  0  0  0
 34 75  1  0  0  0  0
 34 80  2  0  0  0  0
 35 52  1  0  0  0  0
 35 76  1  0  0  0  0
 35 81  2  0  0  0  0
 36 66  1  0  0  0  0
 36 71  1  0  0  0  0
 36 82  2  0  0  0  0
 37 67  1  0  0  0  0
 37 77  1  0  0  0  0
 37 83  2  0  0  0  0
 38 72  1  0  0  0  0
 38 73  1  0  0  0  0
 38 84  2  0  0  0  0
 39 42  1  0  0  0  0
 40 52  1  0  0  0  0
 41 71  1  0  0  0  0
 42 44  1  0  0  0  0
 43 45  1  0  0  0  0
 43 47  1  0  0  0  0
 44 51  1  0  0  0  0
 45 53  1  0  0  0  0
 46 48  1  0  0  0  0
 46 50  1  0  0  0  0
 47 72  1  0  0  0  0
 48 73  1  0  0  0  0
 49 53  1  0  0  0  0
 49 72  1  0  0  0  0
 50 78  1  0  0  0  0
 51 76  1  0  0  0  0
 52 71  1  0  0  0  0
 53 70  1  0  0  0  0
 54 57  1  0  0  0  0
 54 73  1  0  0  0  0
 54 78  1  0  0  0  0
 58 67  1  0  0  0  0
 59 68  1  0  0  0  0
 60 68  1  0  0  0  0
 61 68  1  0  0  0  0
 62 79  1  0  0  0  0
 63 65  1  0  0  0  0
 64 78  1  0  0  0  0
 65 86  1  0  0  0  0
 66 68  1  0  0  0  0
 66 77  1  0  0  0  0
 67 79  1  0  0  0  0
 69 70  1  0  0  0  0
M  CHG  2  78   1  79   1
M  ISO  4  38 100  65 101  73 100  86 101
M  END
> <Batch ID>
0146

> <Smiles>
CNC(C)C(=O)NC(C(=O)N1Cc2cc([101O:1][101CH2:1]Cc3cc(C)c(CN4CCC[100N:0]([100C:0](=O)N5CCCC(n6nc(-c7ccc(Oc8ccc(F)cc8F)cc7)c(C(N)=O)c6N)C5)C4C)c(C)c3)ccc2CC1C(=O)NC1CCCc2ccccc21)C(C)(C)C

> <Shape>
0.267

> <Color>
0.083

> <Negative vol penalty>
0.000

$$$$

  -OEChem-04052321313D

 88 97  0     1  0  0  0  0  0999 V2000
  -21.2306  -29.9683   24.5376 C   0  0  0  0  0  0  0  0  0  0  0  0
  -21.7961  -28.7856   25.0032 C   0  0  0  0  0  0  0  0  0  0  0  0
  -28.4966  -23.7191   18.6356 C   0  0  0  0  0  0  0  0  0  0  0  0
  -30.0962  -23.6784   20.4457 C   0  0  0  0  0  0  0  0  0  0  0  0
  -20.3410  -29.9391   23.4644 C   0  0  0  0  0  0  0  0  0  0  0  0
  -21.4715  -27.5728   24.3965 C   0  0  0  0  0  0  0  0  0  0  0  0
  -24.3070  -21.1882   22.8110 C   0  0  0  0  0  0  0  0  0  0  0  0
  -28.1926  -25.0473   18.9341 C   0  0  0  0  0  0  0  0  0  0  0  0
  -29.7922  -25.0066   20.7442 C   0  0  0  0  0  0  0  0  0  0  0  0
  -24.0470  -19.8268   22.9619 C   0  0  0  0  0  0  0  0  0  0  0  0
  -26.3385  -26.7276   21.2063 C   0  0  0  0  0  0  0  0  0  0  0  0
  -24.9925  -27.0920   21.2388 C   0  0  0  0  0  0  0  0  0  0  0  0
  -22.5595  -19.9069   21.0645 C   0  0  0  0  0  0  0  0  0  0  0  0
  -21.2399  -10.6940   20.2598 C   0  0  0  0  0  0  0  0  0  0  0  0
  -20.6640  -12.8582   21.1661 C   0  0  0  0  0  0  0  0  0  0  0  0
  -25.3861  -28.7024   19.4813 C   0  0  0  0  0  0  0  0  0  0  0  0
  -29.4484  -23.0346   19.3914 C   0  0  0  0  0  0  0  0  0  0  0  0
  -30.7523  -21.1946   18.1990 C   0  0  0  0  0  0  0  0  0  0  0  0
  -20.0128  -28.7264   22.8381 C   0  0  0  0  0  0  0  0  0  0  0  0
  -23.6857  -21.9228   21.7908 C   0  0  0  0  0  0  0  0  0  0  0  0
  -20.5756  -27.5271   23.3148 C   0  0  0  0  0  0  0  0  0  0  0  0
  -22.8152  -21.2769   20.9013 C   0  0  0  0  0  0  0  0  0  0  0  0
  -22.8467  -12.4971   20.1952 C   0  0  0  0  0  0  0  0  0  0  0  0
  -20.3204  -11.5358   20.8855 C   0  0  0  0  0  0  0  0  0  0  0  0
  -22.5030  -11.1746   19.9147 C   0  0  0  0  0  0  0  0  0  0  0  0
  -28.8404  -25.6910   19.9883 C   0  0  0  0  0  0  0  0  0  0  0  0
  -23.1709  -19.1865   22.0903 C   0  0  0  0  0  0  0  0  0  0  0  0
  -27.2083  -27.3506   20.3113 C   0  0  0  0  0  0  0  0  0  0  0  0
  -21.9272  -13.3389   20.8209 C   0  0  0  0  0  0  0  0  0  0  0  0
  -24.5163  -28.0794   20.3763 C   0  0  0  0  0  0  0  0  0  0  0  0
  -26.7321  -28.3380   19.4488 C   0  0  0  0  0  0  0  0  0  0  0  0
  -29.7624  -21.6624   19.0840 C   0  0  0  0  0  0  0  0  0  0  0  0
  -30.6490  -19.8264   18.2606 C   0  0  0  0  0  0  0  0  0  0  0  0
  -31.6820  -21.9310   17.3934 C   0  0  0  0  0  0  0  0  0  0  0  0
  -21.6883  -24.3939   21.7032 C   0  0  0  0  0  0  0  0  0  0  0  0
  -22.2001  -24.1947   18.5062 C   0  0  0  0  0  0  0  0  0  0  0  0
  -23.1073  -22.2797   15.8311 C   0  0  0  0  0  0  0  0  0  0  0  0
  -25.9972  -16.3831   19.6760 C   0  0  0  0  0  0  0  0  0  0  0  0
  -19.0098  -28.7393   21.7118 C   0  0  0  0  0  0  0  0  0  0  0  0
  -23.9974  -23.3849   21.6250 C   0  0  0  0  0  0  0  0  0  0  0  0
  -22.1383  -22.0161   19.7770 C   0  0  0  0  0  0  0  0  0  0  0  0
  -19.0072  -27.4569   20.8838 C   0  0  0  0  0  0  0  0  0  0  0  0
  -29.3634  -16.2858   21.1833 C   0  0  0  0  0  0  0  0  0  0  0  0
  -19.0069  -26.2333   21.7947 C   0  0  0  0  0  0  0  0  0  0  0  0
  -29.9099  -17.6488   20.7687 C   0  0  0  0  0  0  0  0  0  0  0  0
  -27.8579  -16.3262   21.4422 C   0  0  0  0  0  0  0  0  0  0  0  0
  -27.6199  -18.2396   19.8844 C   0  0  0  0  0  0  0  0  0  0  0  0
  -24.1999  -13.0165   19.8275 C   0  0  2  0  0  0  0  0  0  0  0  0
  -20.2674  -26.1946   22.6670 C   0  0  1  0  0  0  0  0  0  0  0  0
  -22.9125  -24.1450   20.8683 C   0  0  1  0  0  0  0  0  0  0  0  0
  -29.1240  -18.2074   19.5727 C   0  0  1  0  0  0  0  0  0  0  0  0
  -24.3839  -14.5047   19.6424 C   0  0  2  0  0  0  0  0  0  0  0  0
  -24.4694  -13.5845   18.4439 C   0  0  0  0  0  0  0  0  0  0  0  0
  -18.9701  -11.0220   21.2548 C   0  0  0  0  0  0  0  0  0  0  0  0
  -23.4680  -10.2515   19.2446 C   0  0  0  0  0  0  0  0  0  0  0  0
  -23.3609  -13.6745   17.4236 C   0  0  0  0  0  0  0  0  0  0  0  0
  -25.8183  -13.2843   17.8371 C   0  0  0  0  0  0  0  0  0  0  0  0
  -23.3938  -22.3843   13.3402 C   0  0  0  0  0  0  0  0  0  0  0  0
  -19.1715  -24.0748   18.1553 C   0  0  0  0  0  0  0  0  0  0  0  0
  -19.5445  -23.2385   15.8251 C   0  0  0  0  0  0  0  0  0  0  0  0
  -20.3599  -25.5029   16.4812 C   0  0  0  0  0  0  0  0  0  0  0  0
  -25.9896  -21.6347   16.0189 C   0  0  0  0  0  0  0  0  0  0  0  0
  -21.2302  -16.1818   22.6529 C   0  0  0  0  0  0  0  0  0  0  0  0
  -21.6274  -17.3963   21.8286 C   0  0  0  0  0  0  0  0  0  1  0  0
  -22.2040  -15.0281   22.4719 C   0  0  0  0  0  0  0  0  0  0  0  0
  -21.5491  -23.4536   17.3634 C   0  0  1  0  0  0  0  0  0  0  0  0
  -24.0760  -22.5363   14.6908 C   0  0  2  0  0  0  0  0  0  0  0  0
  -20.1673  -24.0537   16.9785 C   0  0  0  0  0  0  0  0  0  0  0  0
  -29.0804  -20.6718   19.6650 N   0  0  0  0  0  0  0  0  0  0  0  0
  -29.6426  -19.5679   19.1440 N   0  0  0  0  0  0  0  0  0  0  0  0
  -22.4704  -23.4456   19.6601 N   0  0  0  0  0  0  0  0  0  0  0  0
  -27.1301  -16.9231   20.3112 N   0  0  0  0  0  0  0  0  0  0  0  0
  -31.3218  -18.8312   17.6446 N   0  0  0  0  0  0  0  0  0  0  0  0
  -31.6524  -23.3311   17.4500 N   0  0  0  0  0  0  0  0  0  0  0  0
  -21.4015  -25.7317   21.8963 N   0  0  0  0  0  0  0  0  0  0  0  0
  -22.5211  -23.4459   16.2755 N   0  0  0  0  0  0  0  0  0  0  0  0
  -25.5358  -15.1743   20.1849 N   0  0  0  0  0  0  0  0  0  0  0  0
  -25.2148  -21.5770   14.7527 N   0  3  0  0  0  0  0  0  0  0  0  0
  -32.5033  -21.3646   16.6331 O   0  0  0  0  0  0  0  0  0  0  0  0
  -21.0503  -23.4425   22.1386 O   0  0  0  0  0  0  0  0  0  0  0  0
  -22.4657  -25.3924   18.3771 O   0  0  0  0  0  0  0  0  0  0  0  0
  -22.8895  -21.1565   16.2799 O   0  0  0  0  0  0  0  0  0  0  0  0
  -25.4325  -16.9390   18.7274 O   0  0  0  0  0  0  0  0  0  0  0  0
  -28.5442  -26.9871   20.2797 O   0  0  0  0  0  0  0  0  0  0  0  0
  -22.9149  -17.8579   22.2357 O   0  0  0  0  0  0  0  0  0  1  0  0
  -22.2452  -14.6415   21.1049 O   0  0  0  0  0  0  0  0  0  0  0  0
  -23.2233  -28.4282   20.4066 F   0  0  0  0  0  0  0  0  0  0  0  0
  -27.5627  -28.9393   18.5861 F   0  0  0  0  0  0  0  0  0  0  0  0
  1  2  1  0  0  0  0
  1  5  2  0  0  0  0
  2  6  2  0  0  0  0
  3  8  2  0  0  0  0
  3 17  1  0  0  0  0
  4  9  1  0  0  0  0
  4 17  2  0  0  0  0
  5 19  1  0  0  0  0
  6 21  1  0  0  0  0
  7 10  2  0  0  0  0
  7 20  1  0  0  0  0
  8 26  1  0  0  0  0
  9 26  2  0  0  0  0
 10 27  1  0  0  0  0
 11 12  2  0  0  0  0
 11 28  1  0  0  0  0
 12 30  1  0  0  0  0
 13 22  1  0  0  0  0
 13 27  2  0  0  0  0
 14 24  1  0  0  0  0
 14 25  2  0  0  0  0
 15 24  2  0  0  0  0
 15 29  1  0  0  0  0
 16 30  2  0  0  0  0
 16 31  1  0  0  0  0
 17 32  1  0  0  0  0
 18 32  1  0  0  0  0
 18 33  2  0  0  0  0
 18 34  1  0  0  0  0
 19 21  2  0  0  0  0
 19 39  1  0  0  0  0
 20 22  2  0  0  0  0
 20 40  1  0  0  0  0
 21 49  1  0  0  0  0
 22 41  1  0  0  0  0
 23 25  1  0  0  0  0
 23 29  2  0  0  0  0
 23 48  1  0  0  0  0
 24 54  1  0  0  0  0
 25 55  1  0  0  0  0
 26 84  1  0  0  0  0
 27 85  1  0  0  0  0
 28 31  2  0  0  0  0
 28 84  1  0  0  0  0
 29 86  1  0  0  0  0
 30 87  1  0  0  0  0
 31 88  1  0  0  0  0
 32 69  2  0  0  0  0
 33 70  1  0  0  0  0
 33 73  1  0  0  0  0
 34 74  1  0  0  0  0
 34 79  2  0  0  0  0
 35 50  1  0  0  0  0
 35 75  1  0  0  0  0
 35 80  2  0  0  0  0
 36 66  1  0  0  0  0
 36 71  1  0  0  0  0
 36 81  2  0  0  0  0
 37 67  1  0  0  0  0
 37 76  1  0  0  0  0
 37 82  2  0  0  0  0
 38 72  1  0  0  0  0
 38 77  1  0  0  0  0
 38 83  2  0  0  0  0
 39 42  1  0  0  0  0
 40 50  1  0  0  0  0
 41 71  1  0  0  0  0
 42 44  1  0  0  0  0
 43 45  1  0  0  0  0
 43 46  1  0  0  0  0
 44 49  1  0  0  0  0
 45 51  1  0  0  0  0
 46 72  1  0  0  0  0
 47 51  1  0  0  0  0
 47 72  1  0  0  0  0
 48 52  1  0  0  0  0
 48 53  1  0  0  0  0
 49 75  1  0  0  0  0
 50 71  1  0  0  0  0
 51 70  1  0  0  0  0
 52 53  1  0  0  0  0
 52 77  1  0  0  0  0
 53 56  1  0  0  0  0
 53 57  1  0  0  0  0
 58 67  1  0  0  0  0
 59 68  1  0  0  0  0
 60 68  1  0  0  0  0
 61 68  1  0  0  0  0
 62 78  1  0  0  0  0
 63 64  1  0  0  0  0
 63 65  1  0  0  0  0
 64 85  1  0  0  0  0
 65 86  1  0  0  0  0
 66 68  1  0  0  0  0
 66 76  1  0  0  0  0
 67 78  1  0  0  0  0
 69 70  1  0  0  0  0
M  CHG  1  78   1
M  ISO  4  38 100  64 101  77 100  85 101
M  END
> <Batch ID>
0146

> <Smiles>
CNC(C)C(=O)NC(C(=O)N1Cc2cc([101O:1][101CH2:1]CCOc3cc(C)cc(C)c3C3C([100NH:0][100C:0](=O)N4CCCC(n5nc(-c6ccc(Oc7ccc(F)cc7F)cc6)c(C(N)=O)c5N)C4)C3(C)C)ccc2CC1C(=O)NC1CCCc2ccccc21)C(C)(C)C

> <Shape>
0.196

> <Color>
0.095

> <Negative vol penalty>
0.000

$$$$

  -OEChem-04052321313D

 83 91  0     1  0  0  0  0  0999 V2000
  -19.0119  -30.8309   24.6494 C   0  0  0  0  0  0  0  0  0  0  0  0
  -20.3755  -30.6033   24.4940 C   0  0  0  0  0  0  0  0  0  0  0  0
  -25.0638  -11.8666   20.7337 C   0  0  0  0  0  0  0  0  0  0  0  0
  -25.2904  -12.8579   22.9253 C   0  0  0  0  0  0  0  0  0  0  0  0
  -18.0906  -29.9368   24.1056 C   0  0  0  0  0  0  0  0  0  0  0  0
  -20.8186  -29.4807   23.7955 C   0  0  0  0  0  0  0  0  0  0  0  0
  -25.7870  -29.0832   20.2370 C   0  0  0  0  0  0  0  0  0  0  0  0
  -25.3387  -10.6102   21.2736 C   0  0  0  0  0  0  0  0  0  0  0  0
  -25.5652  -11.6015   23.4652 C   0  0  0  0  0  0  0  0  0  0  0  0
  -27.0707  -28.5916   20.4699 C   0  0  0  0  0  0  0  0  0  0  0  0
  -23.6834   -8.2309   23.0148 C   0  0  0  0  0  0  0  0  0  0  0  0
  -22.8756   -7.1647   22.6195 C   0  0  0  0  0  0  0  0  0  0  0  0
  -26.4305  -26.4774   19.5006 C   0  0  0  0  0  0  0  0  0  0  0  0
  -29.3368  -22.5953   24.3572 C   0  0  0  0  0  0  0  0  0  0  0  0
  -28.2809  -20.4927   23.8586 C   0  0  0  0  0  0  0  0  0  0  0  0
  -24.8142   -6.0220   21.7402 C   0  0  0  0  0  0  0  0  0  0  0  0
  -25.0397  -12.9905   21.5596 C   0  0  0  0  0  0  0  0  0  0  0  0
  -23.4941  -14.8952   20.8588 C   0  0  0  0  0  0  0  0  0  0  0  0
  -18.5226  -28.8079   23.3918 C   0  0  0  0  0  0  0  0  0  0  0  0
  -24.8106  -28.2706   19.6430 C   0  0  0  0  0  0  0  0  0  0  0  0
  -19.9023  -28.5699   23.2428 C   0  0  0  0  0  0  0  0  0  0  0  0
  -25.1359  -26.9619   19.2588 C   0  0  0  0  0  0  0  0  0  0  0  0
  -28.6275  -21.4761   24.7785 C   0  0  0  0  0  0  0  0  0  0  0  0
  -25.5893  -10.4776   22.6393 C   0  0  0  0  0  0  0  0  0  0  0  0
  -27.3918  -27.2876   20.1044 C   0  0  0  0  0  0  0  0  0  0  0  0
  -25.0566   -8.1927   22.7728 C   0  0  0  0  0  0  0  0  0  0  0  0
  -23.4410   -6.0602   21.9823 C   0  0  0  0  0  0  0  0  0  0  0  0
  -25.6220   -7.0883   22.1355 C   0  0  0  0  0  0  0  0  0  0  0  0
  -24.7565  -14.2887   21.0024 C   0  0  0  0  0  0  0  0  0  0  0  0
  -29.6730  -22.6830   23.0159 C   0  0  0  0  0  0  0  0  0  0  0  0
  -28.6641  -20.6747   22.5396 C   0  0  0  0  0  0  0  0  0  0  0  0
  -23.7617  -16.1124   20.2815 C   0  0  0  0  0  0  0  0  0  0  0  0
  -22.1958  -14.4023   21.2154 C   0  0  0  0  0  0  0  0  0  0  0  0
  -21.9842  -27.1332   20.5494 C   0  0  0  0  0  0  0  0  0  0  0  0
  -21.8656  -26.0720   17.4864 C   0  0  0  0  0  0  0  0  0  0  0  0
  -23.5611  -25.1609   14.6682 C   0  0  0  0  0  0  0  0  0  0  0  0
  -28.5838  -19.6409   20.2437 C   0  0  0  0  0  0  0  0  0  0  0  0
  -17.4897  -27.8445   22.8627 C   0  0  0  0  0  0  0  0  0  0  0  0
  -23.4383  -28.8245   19.3742 C   0  0  0  0  0  0  0  0  0  0  0  0
  -24.1297  -26.0557   18.5995 C   0  0  0  0  0  0  0  0  0  0  0  0
  -18.0377  -26.8789   21.8150 C   0  0  0  0  0  0  0  0  0  0  0  0
  -26.9186  -18.2802   17.4059 C   0  0  0  0  0  0  0  0  0  0  0  0
  -19.3633  -26.2838   22.2790 C   0  0  0  0  0  0  0  0  0  0  0  0
  -26.0556  -17.1614   17.9939 C   0  0  0  0  0  0  0  0  0  0  0  0
  -28.2650  -18.3923   18.1190 C   0  0  0  0  0  0  0  0  0  0  0  0
  -27.3223  -17.4007   20.1677 C   0  0  0  0  0  0  0  0  0  0  0  0
  -20.4218  -27.3768   22.4704 C   0  0  1  0  0  0  0  0  0  0  0  0
  -22.3739  -27.7409   19.2316 C   0  0  1  0  0  0  0  0  0  0  0  0
  -25.9301  -17.2918   19.5245 C   0  0  2  0  0  0  0  0  0  0  0  0
  -28.2399  -21.3310   26.2108 C   0  0  0  0  0  0  0  0  0  0  0  0
  -23.1933  -24.3024   12.3390 C   0  0  0  0  0  0  0  0  0  0  0  0
  -31.1338  -26.8418   23.1733 C   0  0  0  0  0  0  0  0  0  0  0  0
  -21.2971  -23.2904   18.6041 C   0  0  0  0  0  0  0  0  0  0  0  0
  -21.8801  -22.3457   16.3600 C   0  0  0  0  0  0  0  0  0  0  0  0
  -19.9447  -23.9024   16.5914 C   0  0  0  0  0  0  0  0  0  0  0  0
  -24.8184  -27.5538   13.4631 C   0  0  0  0  0  0  0  0  0  0  0  0
  -30.4376  -23.8770   22.5253 C   0  0  0  0  0  0  0  0  0  0  0  0
  -29.3508  -27.3346   21.4521 C   0  0  0  0  0  0  0  0  0  1  0  0
  -22.2963  -24.8128   16.7738 C   0  0  1  0  0  0  0  0  0  0  0  0
  -23.3671  -25.5367   13.2102 C   0  0  2  0  0  0  0  0  0  0  0  0
  -30.3509  -26.3135   21.9823 C   0  0  2  0  0  0  0  0  0  0  0  0
  -21.3732  -23.6040   17.0965 C   0  0  0  0  0  0  0  0  0  0  0  0
  -25.7519  -15.0573   20.5524 N   0  0  0  0  0  0  0  0  0  0  0  0
  -29.3538  -21.7482   22.0929 N   0  0  0  0  0  0  0  0  0  0  0  0
  -25.1152  -16.1591   20.1203 N   0  0  0  0  0  0  0  0  0  0  0  0
  -22.7997  -26.6412   18.3635 N   0  0  0  0  0  0  0  0  0  0  0  0
  -28.0672  -18.5171   19.5647 N   0  0  0  0  0  0  0  0  0  0  0  0
  -22.9688  -17.1366   19.9009 N   0  0  0  0  0  0  0  0  0  0  0  0
  -22.1007  -13.1317   21.7992 N   0  0  0  0  0  0  0  0  0  0  0  0
  -28.3057  -19.6672   21.6099 N   0  0  0  0  0  0  0  0  0  0  0  0
  -20.9543  -27.7942   21.1911 N   0  0  0  0  0  0  0  0  0  0  0  0
  -22.3661  -25.1496   15.3560 N   0  0  0  0  0  0  0  0  0  0  0  0
  -24.5447  -26.3019   12.7115 N   0  3  0  0  0  0  0  0  0  0  0  0
  -29.6018  -25.0999   22.4194 N   0  3  0  0  0  0  0  0  0  0  0  0
  -21.1495  -15.0621   21.0071 O   0  0  0  0  0  0  0  0  0  0  0  0
  -22.5733  -26.1374   20.9533 O   0  0  0  0  0  0  0  0  0  0  0  0
  -20.7446  -26.5376   17.2672 O   0  0  0  0  0  0  0  0  0  0  0  0
  -24.6620  -24.8997   15.1480 O   0  0  0  0  0  0  0  0  0  0  0  0
  -29.2022  -20.5291   19.6515 O   0  0  0  0  0  0  0  0  0  0  0  0
  -25.8573   -9.2517   23.1665 O   0  0  0  0  0  0  0  0  0  0  0  0
  -28.6438  -26.8051   20.3312 O   0  0  0  0  0  0  0  0  0  1  0  0
  -22.6654   -5.0357   21.6041 F   0  0  0  0  0  0  0  0  0  0  0  0
  -26.9407   -7.0454   21.9013 F   0  0  0  0  0  0  0  0  0  0  0  0
  1  2  1  0  0  0  0
  1  5  2  0  0  0  0
  2  6  2  0  0  0  0
  3  8  2  0  0  0  0
  3 17  1  0  0  0  0
  4  9  1  0  0  0  0
  4 17  2  0  0  0  0
  5 19  1  0  0  0  0
  6 21  1  0  0  0  0
  7 10  2  0  0  0  0
  7 20  1  0  0  0  0
  8 24  1  0  0  0  0
  9 24  2  0  0  0  0
 10 25  1  0  0  0  0
 11 12  2  0  0  0  0
 11 26  1  0  0  0  0
 12 27  1  0  0  0  0
 13 22  1  0  0  0  0
 13 25  2  0  0  0  0
 14 23  2  0  0  0  0
 14 30  1  0  0  0  0
 15 23  1  0  0  0  0
 15 31  2  0  0  0  0
 16 27  2  0  0  0  0
 16 28  1  0  0  0  0
 17 29  1  0  0  0  0
 18 29  1  0  0  0  0
 18 32  2  0  0  0  0
 18 33  1  0  0  0  0
 19 21  2  0  0  0  0
 19 38  1  0  0  0  0
 20 22  2  0  0  0  0
 20 39  1  0  0  0  0
 21 47  1  0  0  0  0
 22 40  1  0  0  0  0
 23 50  1  0  0  0  0
 24 80  1  0  0  0  0
 25 81  1  0  0  0  0
 26 28  2  0  0  0  0
 26 80  1  0  0  0  0
 27 82  1  0  0  0  0
 28 83  1  0  0  0  0
 29 63  2  0  0  0  0
 30 57  1  0  0  0  0
 30 64  2  0  0  0  0
 31 64  1  0  0  0  0
 31 70  1  0  0  0  0
 32 65  1  0  0  0  0
 32 68  1  0  0  0  0
 33 69  1  0  0  0  0
 33 75  2  0  0  0  0
 34 48  1  0  0  0  0
 34 71  1  0  0  0  0
 34 76  2  0  0  0  0
 35 59  1  0  0  0  0
 35 66  1  0  0  0  0
 35 77  2  0  0  0  0
 36 60  1  0  0  0  0
 36 72  1  0  0  0  0
 36 78  2  0  0  0  0
 37 67  1  0  0  0  0
 37 70  1  0  0  0  0
 37 79  2  0  0  0  0
 38 41  1  0  0  0  0
 39 48  1  0  0  0  0
 40 66  1  0  0  0  0
 41 43  1  0  0  0  0
 42 44  1  0  0  0  0
 42 45  1  0  0  0  0
 43 47  1  0  0  0  0
 44 49  1  0  0  0  0
 45 67  1  0  0  0  0
 46 49  1  0  0  0  0
 46 67  1  0  0  0  0
 47 71  1  0  0  0  0
 48 66  1  0  0  0  0
 49 65  1  0  0  0  0
 51 60  1  0  0  0  0
 52 61  1  0  0  0  0
 53 62  1  0  0  0  0
 54 62  1  0  0  0  0
 55 62  1  0  0  0  0
 56 73  1  0  0  0  0
 57 74  1  0  0  0  0
 58 61  1  0  0  0  0
 58 81  1  0  0  0  0
 59 62  1  0  0  0  0
 59 72  1  0  0  0  0
 60 73  1  0  0  0  0
 61 74  1  0  0  0  0
 63 65  1  0  0  0  0
M  CHG  2  73   1  74   1
M  ISO  4  37 100  58 101  70 100  81 101
M  END
> <Batch ID>
0146

> <Smiles>
CNC(C)C(=O)NC(C(=O)N1Cc2cc([101O:1][101CH2:1]C(C)NCc3cc(C)cc([100NH:0][100C:0](=O)N4CCCC(n5nc(-c6ccc(Oc7ccc(F)cc7F)cc6)c(C(N)=O)c5N)C4)n3)ccc2CC1C(=O)NC1CCCc2ccccc21)C(C)(C)C

> <Shape>
0.229

> <Color>
0.103

> <Negative vol penalty>
0.000

$$$$

  -OEChem-04052321313D

 86 96  0     1  0  0  0  0  0999 V2000
  -29.4232  -36.0100   21.2507 C   0  0  0  0  0  0  0  0  0  0  0  0
  -29.7145  -34.9279   20.4262 C   0  0  0  0  0  0  0  0  0  0  0  0
  -22.7802  -10.8786   21.4651 C   0  0  0  0  0  0  0  0  0  0  0  0
  -22.7365  -13.0309   22.5618 C   0  0  0  0  0  0  0  0  0  0  0  0
  -28.7641  -35.8043   22.4620 C   0  0  0  0  0  0  0  0  0  0  0  0
  -29.3479  -33.6394   20.8132 C   0  0  0  0  0  0  0  0  0  0  0  0
  -27.2080  -27.3807   18.0626 C   0  0  0  0  0  0  0  0  0  0  0  0
  -21.6834  -10.4697   22.2237 C   0  0  0  0  0  0  0  0  0  0  0  0
  -21.6397  -12.6220   23.3205 C   0  0  0  0  0  0  0  0  0  0  0  0
  -27.5273  -26.0240   18.0962 C   0  0  0  0  0  0  0  0  0  0  0  0
  -21.1014   -9.3596   25.3627 C   0  0  0  0  0  0  0  0  0  0  0  0
  -21.1482   -8.0888   25.9356 C   0  0  0  0  0  0  0  0  0  0  0  0
  -26.3222  -25.7980   20.1736 C   0  0  0  0  0  0  0  0  0  0  0  0
  -27.7248  -20.9307   17.5175 C   0  0  0  0  0  0  0  0  0  0  0  0
  -19.1673   -7.4603   24.7034 C   0  0  0  0  0  0  0  0  0  0  0  0
  -23.3068  -12.1592   21.6342 C   0  0  0  0  0  0  0  0  0  0  0  0
  -24.4160  -13.2208   19.5969 C   0  0  0  0  0  0  0  0  0  0  0  0
  -28.3806  -34.5138   22.8595 C   0  0  0  0  0  0  0  0  0  0  0  0
  -26.4513  -27.9595   19.0916 C   0  0  0  0  0  0  0  0  0  0  0  0
  -28.6842  -33.4162   22.0315 C   0  0  0  0  0  0  0  0  0  0  0  0
  -25.9925  -27.1617   20.1495 C   0  0  0  0  0  0  0  0  0  0  0  0
  -28.3797  -21.9452   18.2584 C   0  0  0  0  0  0  0  0  0  0  0  0
  -21.1132  -11.3414   23.1514 C   0  0  0  0  0  0  0  0  0  0  0  0
  -27.0869  -25.2330   19.1533 C   0  0  0  0  0  0  0  0  0  0  0  0
  -20.0875   -9.6809   24.4602 C   0  0  0  0  0  0  0  0  0  0  0  0
  -20.1812   -7.1391   25.6060 C   0  0  0  0  0  0  0  0  0  0  0  0
  -19.1204   -8.7313   24.1305 C   0  0  0  0  0  0  0  0  0  0  0  0
  -24.4400  -12.5819   20.8512 C   0  0  0  0  0  0  0  0  0  0  0  0
  -28.1977  -19.7193   17.9716 C   0  0  0  0  0  0  0  0  0  0  0  0
  -29.2331  -21.3228   19.1427 C   0  0  0  0  0  0  0  0  0  0  0  0
  -25.7396  -13.4090   19.2821 C   0  0  0  0  0  0  0  0  0  0  0  0
  -23.2973  -13.6094   18.7888 C   0  0  0  0  0  0  0  0  0  0  0  0
  -26.9668  -30.2407   21.2443 C   0  0  0  0  0  0  0  0  0  0  0  0
  -23.8286  -29.7724   21.9187 C   0  0  0  0  0  0  0  0  0  0  0  0
  -21.1297  -27.6849   21.8458 C   0  0  0  0  0  0  0  0  0  0  0  0
  -30.8791  -14.7978   20.5345 C   0  0  0  0  0  0  0  0  0  0  0  0
  -27.7122  -34.3355   24.1997 C   0  0  0  0  0  0  0  0  0  0  0  0
  -26.0927  -29.4188   19.0270 C   0  0  0  0  0  0  0  0  0  0  0  0
  -25.1601  -27.7304   21.2685 C   0  0  0  0  0  0  0  0  0  0  0  0
  -27.0246  -32.9824   24.3623 C   0  0  0  0  0  0  0  0  0  0  0  0
  -29.9400  -11.5892   21.4180 C   0  0  0  0  0  0  0  0  0  0  0  0
  -27.9420  -31.8576   23.8932 C   0  0  0  0  0  0  0  0  0  0  0  0
  -27.4266  -18.1879   15.9887 C   0  0  0  0  0  0  0  0  0  0  0  0
  -26.3341  -18.1451   17.0109 C   0  0  0  0  0  0  0  0  0  0  0  0
  -28.4205  -11.5979   21.2514 C   0  0  0  0  0  0  0  0  0  0  0  0
  -30.7806  -18.0674   18.8052 C   0  0  0  0  0  0  0  0  0  0  0  0
  -28.9356  -17.9944   20.5348 C   0  0  0  0  0  0  0  0  0  0  0  0
  -30.4282  -12.8893   22.0473 C   0  0  0  0  0  0  0  0  0  0  0  0
  -31.5218  -16.9830   19.5836 C   0  0  0  0  0  0  0  0  0  0  0  0
  -29.7189  -16.9140   21.2748 C   0  0  0  0  0  0  0  0  0  0  0  0
  -28.5039  -14.1357   21.1209 C   0  0  0  0  0  0  0  0  0  0  0  0
  -28.2807  -32.0063   22.4050 C   0  0  1  0  0  0  0  0  0  0  0  0
  -27.7685  -18.3450   17.4564 C   0  0  0  0  0  0  0  0  0  0  0  0
  -25.7516  -30.0113   20.3908 C   0  0  1  0  0  0  0  0  0  0  0  0
  -27.9576  -12.8453   20.4780 C   0  0  2  0  0  0  0  0  0  0  0  0
  -29.8760  -18.9050   19.7257 C   0  0  0  0  0  0  0  0  0  0  0  0
  -30.1502  -21.8996   20.1488 C   0  0  0  0  0  0  0  0  0  0  0  0
  -18.7109  -27.5687   22.5040 C   0  0  0  0  0  0  0  0  0  0  0  0
  -24.6430  -29.3744   24.8322 C   0  0  0  0  0  0  0  0  0  0  0  0
  -22.3976  -28.3476   25.2469 C   0  0  0  0  0  0  0  0  0  0  0  0
  -22.5627  -30.7236   24.5054 C   0  0  0  0  0  0  0  0  0  0  0  0
  -20.2656  -27.2964   19.0421 C   0  0  0  0  0  0  0  0  0  0  0  0
  -28.1805  -23.3998   18.1049 C   0  0  0  0  0  0  0  0  0  1  0  0
  -23.0591  -28.8731   22.8558 C   0  0  1  0  0  0  0  0  0  0  0  0
  -19.6968  -27.9065   21.3964 C   0  0  2  0  0  0  0  0  0  0  0  0
  -23.1829  -29.3191   24.3401 C   0  0  0  0  0  0  0  0  0  0  0  0
  -25.6806  -12.3778   21.3022 N   0  0  0  0  0  0  0  0  0  0  0  0
  -29.1142  -19.9699   18.9593 N   0  0  0  0  0  0  0  0  0  0  0  0
  -26.4484  -12.8913   20.3260 N   0  0  0  0  0  0  0  0  0  0  0  0
  -24.8410  -29.1638   21.1634 N   0  0  0  0  0  0  0  0  0  0  0  0
  -29.9622  -14.0499   21.2887 N   0  0  0  0  0  0  0  0  0  0  0  0
  -30.5983  -16.1639   20.3677 N   0  0  0  0  0  0  0  0  0  0  0  0
  -26.3547  -13.9651   18.2168 N   0  0  0  0  0  0  0  0  0  0  0  0
  -22.0057  -13.3410   19.2623 N   0  0  0  0  0  0  0  0  0  0  0  0
  -27.1716  -31.5635   21.5876 N   0  0  0  0  0  0  0  0  0  0  0  0
  -21.6894  -28.8377   22.3548 N   0  0  0  0  0  0  0  0  0  0  0  0
  -19.3867  -27.0530   20.2148 N   0  3  0  0  0  0  0  0  0  0  0  0
  -23.4391  -14.1630   17.6721 O   0  0  0  0  0  0  0  0  0  0  0  0
  -27.6660  -29.2880   21.5686 O   0  0  0  0  0  0  0  0  0  0  0  0
  -23.5372  -30.9693   21.8538 O   0  0  0  0  0  0  0  0  0  0  0  0
  -21.6947  -26.5970   21.7579 O   0  0  0  0  0  0  0  0  0  0  0  0
  -31.8847  -14.2783   20.0347 O   0  0  0  0  0  0  0  0  0  0  0  0
  -20.0428  -10.9429   23.8917 O   0  0  0  0  0  0  0  0  0  0  0  0
  -27.3993  -23.9017   19.1890 O   0  0  0  0  0  0  0  0  0  1  0  0
  -20.2271   -5.9182   26.1550 F   0  0  0  0  0  0  0  0  0  0  0  0
  -18.1447   -9.0337   23.2632 F   0  0  0  0  0  0  0  0  0  0  0  0
  1  2  1  0  0  0  0
  1  5  2  0  0  0  0
  2  6  2  0  0  0  0
  3  8  2  0  0  0  0
  3 16  1  0  0  0  0
  4  9  1  0  0  0  0
  4 16  2  0  0  0  0
  5 18  1  0  0  0  0
  6 20  1  0  0  0  0
  7 10  2  0  0  0  0
  7 19  1  0  0  0  0
  8 23  1  0  0  0  0
  9 23  2  0  0  0  0
 10 24  1  0  0  0  0
 11 12  2  0  0  0  0
 11 25  1  0  0  0  0
 12 26  1  0  0  0  0
 13 21  1  0  0  0  0
 13 24  2  0  0  0  0
 14 22  1  0  0  0  0
 14 29  2  0  0  0  0
 15 26  2  0  0  0  0
 15 27  1  0  0  0  0
 16 28  1  0  0  0  0
 17 28  1  0  0  0  0
 17 31  2  0  0  0  0
 17 32  1  0  0  0  0
 18 20  2  0  0  0  0
 18 37  1  0  0  0  0
 19 21  2  0  0  0  0
 19 38  1  0  0  0  0
 20 52  1  0  0  0  0
 21 39  1  0  0  0  0
 22 30  2  0  0  0  0
 22 63  1  0  0  0  0
 23 83  1  0  0  0  0
 24 84  1  0  0  0  0
 25 27  2  0  0  0  0
 25 83  1  0  0  0  0
 26 85  1  0  0  0  0
 27 86  1  0  0  0  0
 28 67  2  0  0  0  0
 29 53  1  0  0  0  0
 29 68  1  0  0  0  0
 30 57  1  0  0  0  0
 30 68  1  0  0  0  0
 31 69  1  0  0  0  0
 31 73  1  0  0  0  0
 32 74  1  0  0  0  0
 32 78  2  0  0  0  0
 33 54  1  0  0  0  0
 33 75  1  0  0  0  0
 33 79  2  0  0  0  0
 34 64  1  0  0  0  0
 34 70  1  0  0  0  0
 34 80  2  0  0  0  0
 35 65  1  0  0  0  0
 35 76  1  0  0  0  0
 35 81  2  0  0  0  0
 36 71  1  0  0  0  0
 36 72  1  0  0  0  0
 36 82  2  0  0  0  0
 37 40  1  0  0  0  0
 38 54  1  0  0  0  0
 39 70  1  0  0  0  0
 40 42  1  0  0  0  0
 41 45  1  0  0  0  0
 41 48  1  0  0  0  0
 42 52  1  0  0  0  0
 43 44  1  0  0  0  0
 43 53  1  0  0  0  0
 44 53  1  0  0  0  0
 45 55  1  0  0  0  0
 46 49  1  0  0  0  0
 46 56  1  0  0  0  0
 47 50  1  0  0  0  0
 47 56  1  0  0  0  0
 48 71  1  0  0  0  0
 49 72  1  0  0  0  0
 50 72  1  0  0  0  0
 51 55  1  0  0  0  0
 51 71  1  0  0  0  0
 52 75  1  0  0  0  0
 54 70  1  0  0  0  0
 55 69  1  0  0  0  0
 56 68  1  0  0  0  0
 58 65  1  0  0  0  0
 59 66  1  0  0  0  0
 60 66  1  0  0  0  0
 61 66  1  0  0  0  0
 62 77  1  0  0  0  0
 63 84  1  0  0  0  0
 64 66  1  0  0  0  0
 64 76  1  0  0  0  0
 65 77  1  0  0  0  0
 67 69  1  0  0  0  0
M  CHG  1  77   1
M  ISO  4  36 100  63 101  72 100  84 101
M  END
> <Batch ID>
0146

> <Smiles>
CNC(C)C(=O)NC(C(=O)N1Cc2cc([101O:1][101CH2:1]c3cc(C4CC4)n(C4CC[100N:0]([100C:0](=O)N5CCCC(n6nc(-c7ccc(Oc8ccc(F)cc8F)cc7)c(C(N)=O)c6N)C5)CC4)c3C)ccc2CC1C(=O)NC1CCCc2ccccc21)C(C)(C)C

> <Shape>
0.272

> <Color>
0.072

> <Negative vol penalty>
0.000

$$$$

  -OEChem-04052321313D

 91101  0     1  0  0  0  0  0999 V2000
  -17.4039  -26.1215   22.8855 C   0  0  0  0  0  0  0  0  0  0  0  0
  -18.6919  -25.6394   22.6757 C   0  0  0  0  0  0  0  0  0  0  0  0
  -24.1670   -9.6111   22.3122 C   0  0  0  0  0  0  0  0  0  0  0  0
  -23.3361   -9.8818   20.0597 C   0  0  0  0  0  0  0  0  0  0  0  0
  -17.1060  -27.4550   22.6079 C   0  0  0  0  0  0  0  0  0  0  0  0
  -19.6827  -26.4904   22.1871 C   0  0  0  0  0  0  0  0  0  0  0  0
  -25.6398  -26.4014   23.6049 C   0  0  0  0  0  0  0  0  0  0  0  0
  -28.6931  -21.4475   17.3635 C   0  0  0  0  0  0  0  0  0  0  0  0
  -23.1365   -8.7113   22.5841 C   0  0  0  0  0  0  0  0  0  0  0  0
  -22.3057   -8.9819   20.3317 C   0  0  0  0  0  0  0  0  0  0  0  0
  -26.7503  -25.8623   22.9569 C   0  0  0  0  0  0  0  0  0  0  0  0
  -22.4419   -5.4598   21.9690 C   0  0  0  0  0  0  0  0  0  0  0  0
  -22.7700   -4.2827   22.6417 C   0  0  0  0  0  0  0  0  0  0  0  0
  -28.2375  -22.5054   18.1422 C   0  0  0  0  0  0  0  0  0  0  0  0
  -27.2055  -28.0119   21.9614 C   0  0  0  0  0  0  0  0  0  0  0  0
  -21.2653   -4.8869   24.4328 C   0  0  0  0  0  0  0  0  0  0  0  0
  -24.2667  -10.1965   21.0500 C   0  0  0  0  0  0  0  0  0  0  0  0
  -26.6091  -10.8276   20.2609 C   0  0  0  0  0  0  0  0  0  0  0  0
  -18.0960  -28.3251   22.1248 C   0  0  0  0  0  0  0  0  0  0  0  0
  -25.2970  -27.7495   23.4272 C   0  0  0  0  0  0  0  0  0  0  0  0
  -19.3975  -27.8365   21.9015 C   0  0  0  0  0  0  0  0  0  0  0  0
  -26.0917  -28.5664   22.6104 C   0  0  0  0  0  0  0  0  0  0  0  0
  -29.5232  -16.4400   16.0524 C   0  0  0  0  0  0  0  0  0  0  0  0
  -29.9897  -21.4685   16.8620 C   0  0  0  0  0  0  0  0  0  0  0  0
  -22.2059   -8.3966   21.5939 C   0  0  0  0  0  0  0  0  0  0  0  0
  -27.5317  -26.6668   22.1327 C   0  0  0  0  0  0  0  0  0  0  0  0
  -21.5256   -6.3505   22.5283 C   0  0  0  0  0  0  0  0  0  0  0  0
  -22.1816   -3.9963   23.8735 C   0  0  0  0  0  0  0  0  0  0  0  0
  -20.9373   -6.0641   23.7601 C   0  0  0  0  0  0  0  0  0  0  0  0
  -25.3306  -11.1266   20.7686 C   0  0  0  0  0  0  0  0  0  0  0  0
  -30.7848  -22.5619   17.1657 C   0  0  0  0  0  0  0  0  0  0  0  0
  -28.9173  -17.2712   16.9293 C   0  0  0  0  0  0  0  0  0  0  0  0
  -30.4260  -17.0229   15.2341 C   0  0  0  0  0  0  0  0  0  0  0  0
  -29.1111  -23.5523   18.3887 C   0  0  0  0  0  0  0  0  0  0  0  0
  -27.2378  -12.0457   20.1745 C   0  0  0  0  0  0  0  0  0  0  0  0
  -30.1555  -19.0258   16.0440 C   0  0  0  0  0  0  0  0  0  0  0  0
  -27.1776   -9.5619   19.8996 C   0  0  0  0  0  0  0  0  0  0  0  0
  -22.7788  -29.2864   22.2437 C   0  0  0  0  0  0  0  0  0  0  0  0
  -24.3650  -31.9060   23.3133 C   0  0  0  0  0  0  0  0  0  0  0  0
  -27.3386  -33.3393   24.1795 C   0  0  0  0  0  0  0  0  0  0  0  0
  -27.2365  -17.4409   18.7982 C   0  0  0  0  0  0  0  0  0  0  0  0
  -17.7148  -29.7465   21.7945 C   0  0  0  0  0  0  0  0  0  0  0  0
  -24.1115  -28.3224   24.1544 C   0  0  0  0  0  0  0  0  0  0  0  0
  -25.7781  -30.0248   22.4024 C   0  0  0  0  0  0  0  0  0  0  0  0
  -18.9141  -30.6772   21.6340 C   0  0  0  0  0  0  0  0  0  0  0  0
  -25.8981  -16.5795   21.9831 C   0  0  0  0  0  0  0  0  0  0  0  0
  -19.9810  -30.0272   20.7587 C   0  0  0  0  0  0  0  0  0  0  0  0
  -25.7363  -15.0595   21.9093 C   0  0  0  0  0  0  0  0  0  0  0  0
  -25.5859  -17.2487   20.6457 C   0  0  0  0  0  0  0  0  0  0  0  0
  -26.1601  -15.1896   19.4212 C   0  0  0  0  0  0  0  0  0  0  0  0
  -20.5054  -28.7349   21.3962 C   0  0  1  0  0  0  0  0  0  0  0  0
  -29.7950  -15.1306   15.4138 C   0  0  1  0  0  0  0  0  0  0  0  0
  -23.5571  -29.5813   23.4947 C   0  0  1  0  0  0  0  0  0  0  0  0
  -26.5266  -14.4654   20.7269 C   0  0  2  0  0  0  0  0  0  0  0  0
  -32.1868  -22.6424   16.6548 C   0  0  0  0  0  0  0  0  0  0  0  0
  -28.6558  -14.5402   14.6082 C   0  0  0  0  0  0  0  0  0  0  0  0
  -28.3227  -35.5051   24.9785 C   0  0  0  0  0  0  0  0  0  0  0  0
  -24.0950  -33.0627   20.5028 C   0  0  0  0  0  0  0  0  0  0  0  0
  -25.8692  -34.7276   21.0929 C   0  0  0  0  0  0  0  0  0  0  0  0
  -23.7138  -34.7066   22.3485 C   0  0  0  0  0  0  0  0  0  0  0  0
  -28.3348  -32.0998   26.6755 C   0  0  0  0  0  0  0  0  0  0  0  0
  -28.9747  -26.7185   20.2430 C   0  0  0  0  0  0  0  0  0  1  0  0
  -29.6208  -25.6545   19.3770 C   0  0  0  0  0  0  0  0  0  0  0  0
  -25.3874  -32.8498   22.7277 C   0  0  1  0  0  0  0  0  0  0  0  0
  -27.7468  -34.1592   25.3902 C   0  0  2  0  0  0  0  0  0  0  0  0
  -24.7714  -33.8088   21.6701 C   0  0  0  0  0  0  0  0  0  0  0  0
  -25.1559  -12.4323   20.9894 N   0  0  0  0  0  0  0  0  0  0  0  0
  -30.3775  -23.6081   17.9188 N   0  0  0  0  0  0  0  0  0  0  0  0
  -29.2203  -18.5967   16.9489 N   0  0  0  0  0  0  0  0  0  0  0  0
  -30.8160  -18.2841   15.1306 N   0  0  0  0  0  0  0  0  0  0  0  0
  -26.3330  -12.9645   20.6188 N   0  0  0  0  0  0  0  0  0  0  0  0
  -24.6052  -30.5368   23.1301 N   0  0  0  0  0  0  0  0  0  0  0  0
  -26.3742  -16.6372   19.5735 N   0  0  0  0  0  0  0  0  0  0  0  0
  -28.4708  -12.4098   19.7627 N   0  0  0  0  0  0  0  0  0  0  0  0
  -26.3939   -8.4098   20.0510 N   0  0  0  0  0  0  0  0  0  0  0  0
  -30.4597  -20.4034   16.0729 N   0  0  0  0  0  0  0  0  0  0  0  0
  -27.9590  -16.7441   17.8302 N   0  0  0  0  0  0  0  0  0  0  0  0
  -21.4369  -29.0386   22.4613 N   0  0  0  0  0  0  0  0  0  0  0  0
  -26.0110  -33.5287   23.8585 N   0  0  0  0  0  0  0  0  0  0  0  0
  -28.7755  -33.4313   26.1857 N   0  3  0  0  0  0  0  0  0  0  0  0
  -28.3516   -9.4538   19.4711 O   0  0  0  0  0  0  0  0  0  0  0  0
  -23.3529  -29.2852   21.1611 O   0  0  0  0  0  0  0  0  0  0  0  0
  -23.3930  -32.3663   23.9173 O   0  0  0  0  0  0  0  0  0  0  0  0
  -28.1202  -32.6073   23.5765 O   0  0  0  0  0  0  0  0  0  0  0  0
  -27.3477  -18.6533   18.9975 O   0  0  0  0  0  0  0  0  0  0  0  0
  -30.7333  -15.8744   14.5538 O   0  0  0  0  0  0  0  0  0  0  0  0
  -21.2004   -7.5183   21.8588 O   0  0  0  0  0  0  0  0  0  0  0  0
  -28.6157  -26.1429   21.4985 O   0  0  0  0  0  0  0  0  0  1  0  0
  -28.6857  -24.6061   19.1540 O   0  0  0  0  0  0  0  0  0  0  0  0
  -22.4956   -2.8651   24.5187 F   0  0  0  0  0  0  0  0  0  0  0  0
  -20.0554   -6.9154   24.3018 F   0  0  0  0  0  0  0  0  0  0  0  0
  1  2  1  0  0  0  0
  1  5  2  0  0  0  0
  2  6  2  0  0  0  0
  3  9  2  0  0  0  0
  3 17  1  0  0  0  0
  4 10  1  0  0  0  0
  4 17  2  0  0  0  0
  5 19  1  0  0  0  0
  6 21  1  0  0  0  0
  7 11  2  0  0  0  0
  7 20  1  0  0  0  0
  8 14  2  0  0  0  0
  8 24  1  0  0  0  0
  9 25  1  0  0  0  0
 10 25  2  0  0  0  0
 11 26  1  0  0  0  0
 12 13  2  0  0  0  0
 12 27  1  0  0  0  0
 13 28  1  0  0  0  0
 14 34  1  0  0  0  0
 15 22  1  0  0  0  0
 15 26  2  0  0  0  0
 16 28  2  0  0  0  0
 16 29  1  0  0  0  0
 17 30  1  0  0  0  0
 18 30  1  0  0  0  0
 18 35  2  0  0  0  0
 18 37  1  0  0  0  0
 19 21  2  0  0  0  0
 19 42  1  0  0  0  0
 20 22  2  0  0  0  0
 20 43  1  0  0  0  0
 21 51  1  0  0  0  0
 22 44  1  0  0  0  0
 23 32  1  0  0  0  0
 23 33  2  0  0  0  0
 23 52  1  0  0  0  0
 24 31  2  0  0  0  0
 24 76  1  0  0  0  0
 25 87  1  0  0  0  0
 26 88  1  0  0  0  0
 27 29  2  0  0  0  0
 27 87  1  0  0  0  0
 28 90  1  0  0  0  0
 29 91  1  0  0  0  0
 30 67  2  0  0  0  0
 31 55  1  0  0  0  0
 31 68  1  0  0  0  0
 32 69  2  0  0  0  0
 32 77  1  0  0  0  0
 33 70  1  0  0  0  0
 33 86  1  0  0  0  0
 34 68  2  0  0  0  0
 34 89  1  0  0  0  0
 35 71  1  0  0  0  0
 35 74  1  0  0  0  0
 36 69  1  0  0  0  0
 36 70  2  0  0  0  0
 36 76  1  0  0  0  0
 37 75  1  0  0  0  0
 37 81  2  0  0  0  0
 38 53  1  0  0  0  0
 38 78  1  0  0  0  0
 38 82  2  0  0  0  0
 39 64  1  0  0  0  0
 39 72  1  0  0  0  0
 39 83  2  0  0  0  0
 40 65  1  0  0  0  0
 40 79  1  0  0  0  0
 40 84  2  0  0  0  0
 41 73  1  0  0  0  0
 41 77  1  0  0  0  0
 41 85  2  0  0  0  0
 42 45  1  0  0  0  0
 43 53  1  0  0  0  0
 44 72  1  0  0  0  0
 45 47  1  0  0  0  0
 46 48  1  0  0  0  0
 46 49  1  0  0  0  0
 47 51  1  0  0  0  0
 48 54  1  0  0  0  0
 49 73  1  0  0  0  0
 50 54  1  0  0  0  0
 50 73  1  0  0  0  0
 51 78  1  0  0  0  0
 52 56  1  0  0  0  0
 52 86  1  0  0  0  0
 53 72  1  0  0  0  0
 54 71  1  0  0  0  0
 57 65  1  0  0  0  0
 58 66  1  0  0  0  0
 59 66  1  0  0  0  0
 60 66  1  0  0  0  0
 61 80  1  0  0  0  0
 62 63  1  0  0  0  0
 62 88  1  0  0  0  0
 63 89  1  0  0  0  0
 64 66  1  0  0  0  0
 64 79  1  0  0  0  0
 65 80  1  0  0  0  0
 67 71  1  0  0  0  0
M  CHG  1  80   1
M  ISO  4  41 100  62 101  77 100  88 101
M  END
> <Batch ID>
0146

> <Smiles>
CNC(C)C(=O)NC(C(=O)N1Cc2cc([101O:1][101CH2:1]COc3ccc(Nc4nc([100NH:0][100C:0](=O)N5CCCC(n6nc(-c7ccc(Oc8ccc(F)cc8F)cc7)c(C(N)=O)c6N)C5)c5c(n4)OC5C)c(C)n3)ccc2CC1C(=O)NC1CCCc2ccccc21)C(C)(C)C

> <Shape>
0.301

> <Color>
0.101

> <Negative vol penalty>
0.000

$$$$

  -OEChem-04052321313D

 83 92  0     1  0  0  0  0  0999 V2000
  -24.5093  -31.7508   15.2320 C   0  0  0  0  0  0  0  0  0  0  0  0
  -25.2841  -30.6336   15.5271 C   0  0  0  0  0  0  0  0  0  0  0  0
  -23.1221   -9.7604   20.0385 C   0  0  0  0  0  0  0  0  0  0  0  0
  -23.7924   -9.9626   22.3508 C   0  0  0  0  0  0  0  0  0  0  0  0
  -24.1943  -32.6644   16.2369 C   0  0  0  0  0  0  0  0  0  0  0  0
  -25.7452  -30.4300   16.8272 C   0  0  0  0  0  0  0  0  0  0  0  0
  -26.4902  -25.0571   19.6701 C   0  0  0  0  0  0  0  0  0  0  0  0
  -22.3784   -8.6232   20.3535 C   0  0  0  0  0  0  0  0  0  0  0  0
  -23.0486   -8.8255   22.6659 C   0  0  0  0  0  0  0  0  0  0  0  0
  -27.6114  -24.2565   19.8839 C   0  0  0  0  0  0  0  0  0  0  0  0
  -19.3825   -7.9147   21.7520 C   0  0  0  0  0  0  0  0  0  0  0  0
  -18.0959   -7.8145   21.2228 C   0  0  0  0  0  0  0  0  0  0  0  0
  -27.8929  -25.2441   22.0667 C   0  0  0  0  0  0  0  0  0  0  0  0
  -31.1025  -17.7077   20.3587 C   0  0  0  0  0  0  0  0  0  0  0  0
  -29.4031  -18.0211   22.0472 C   0  0  0  0  0  0  0  0  0  0  0  0
  -18.7220   -5.7765   20.0862 C   0  0  0  0  0  0  0  0  0  0  0  0
  -23.8292  -10.4301   21.0371 C   0  0  0  0  0  0  0  0  0  0  0  0
  -24.1552  -12.9407   20.7239 C   0  0  0  0  0  0  0  0  0  0  0  0
  -24.6437  -32.4669   17.5521 C   0  0  0  0  0  0  0  0  0  0  0  0
  -26.0676  -25.9665   20.6503 C   0  0  0  0  0  0  0  0  0  0  0  0
  -25.4371  -31.3426   17.8504 C   0  0  0  0  0  0  0  0  0  0  0  0
  -26.7645  -26.0532   21.8640 C   0  0  0  0  0  0  0  0  0  0  0  0
  -30.4882  -19.9381   21.0550 C   0  0  0  0  0  0  0  0  0  0  0  0
  -31.2594  -19.0902   20.2601 C   0  0  0  0  0  0  0  0  0  0  0  0
  -30.1743  -17.1732   21.2522 C   0  0  0  0  0  0  0  0  0  0  0  0
  -22.3416   -8.1558   21.6672 C   0  0  0  0  0  0  0  0  0  0  0  0
  -28.3147  -24.3520   21.0812 C   0  0  0  0  0  0  0  0  0  0  0  0
  -20.3390   -6.9458   21.4482 C   0  0  0  0  0  0  0  0  0  0  0  0
  -29.5600  -19.4036   21.9486 C   0  0  0  0  0  0  0  0  0  0  0  0
  -17.7656   -6.7454   20.3900 C   0  0  0  0  0  0  0  0  0  0  0  0
  -20.0087   -5.8768   20.6154 C   0  0  0  0  0  0  0  0  0  0  0  0
  -24.5982  -11.6045   20.7122 C   0  0  0  0  0  0  0  0  0  0  0  0
  -25.2546  -13.6702   20.3423 C   0  0  0  0  0  0  0  0  0  0  0  0
  -22.8654  -13.4747   21.0506 C   0  0  0  0  0  0  0  0  0  0  0  0
  -25.7477  -29.1259   20.7902 C   0  0  0  0  0  0  0  0  0  0  0  0
  -24.4242  -28.4734   23.6790 C   0  0  0  0  0  0  0  0  0  0  0  0
  -24.1459  -26.3310   26.3208 C   0  0  0  0  0  0  0  0  0  0  0  0
  -30.7014  -14.7874   20.6385 C   0  0  0  0  0  0  0  0  0  0  0  0
  -24.3173  -33.5066   18.5947 C   0  0  0  0  0  0  0  0  0  0  0  0
  -24.8404  -26.8038   20.4151 C   0  0  0  0  0  0  0  0  0  0  0  0
  -26.3399  -26.9991   22.9564 C   0  0  0  0  0  0  0  0  0  0  0  0
  -24.5311  -33.0218   20.0263 C   0  0  0  0  0  0  0  0  0  0  0  0
  -29.6991  -12.1764   18.4351 C   0  0  0  0  0  0  0  0  0  0  0  0
  -25.8761  -32.3137   20.1548 C   0  0  0  0  0  0  0  0  0  0  0  0
  -28.2462  -11.9048   18.8321 C   0  0  0  0  0  0  0  0  0  0  0  0
  -30.5134  -22.0788   19.6084 C   0  0  0  0  0  0  0  0  0  0  0  0
  -30.5650  -12.5125   19.6479 C   0  0  0  0  0  0  0  0  0  0  0  0
  -28.6001  -13.3258   20.8918 C   0  0  0  0  0  0  0  0  0  0  0  0
  -30.6526  -21.4080   20.9549 C   0  0  1  0  0  0  0  0  0  0  0  0
  -25.9352  -31.0741   19.2539 C   0  0  1  0  0  0  0  0  0  0  0  0
  -24.8026  -28.0633   21.2752 C   0  0  1  0  0  0  0  0  0  0  0  0
  -27.6752  -13.0464   19.6959 C   0  0  2  0  0  0  0  0  0  0  0  0
  -29.4471  -22.2677   20.6436 C   0  0  1  0  0  0  0  0  0  1  0  0
  -32.2601  -19.6359   19.2943 C   0  0  0  0  0  0  0  0  0  0  0  0
  -23.0189  -26.0881   28.5498 C   0  0  0  0  0  0  0  0  0  0  0  0
  -26.4053  -30.4508   24.8934 C   0  0  0  0  0  0  0  0  0  0  0  0
  -25.8950  -29.4744   27.1416 C   0  0  0  0  0  0  0  0  0  0  0  0
  -24.0897  -30.5871   25.8280 C   0  0  0  0  0  0  0  0  0  0  0  0
  -22.7087  -23.8918   25.4585 C   0  0  0  0  0  0  0  0  0  0  0  0
  -29.3265  -20.5636   24.0115 C   0  0  0  0  0  0  0  0  0  0  0  0
  -24.9489  -28.3278   25.0870 C   0  0  1  0  0  0  0  0  0  0  0  0
  -22.9329  -25.7954   27.0600 C   0  0  2  0  0  0  0  0  0  0  0  0
  -25.3441  -29.6935   25.7163 C   0  0  0  0  0  0  0  0  0  0  0  0
  -25.8790  -11.4890   20.3516 N   0  0  0  0  0  0  0  0  0  0  0  0
  -26.2503  -12.7620   20.1330 N   0  0  0  0  0  0  0  0  0  0  0  0
  -25.1375  -27.8011   22.6764 N   0  0  0  0  0  0  0  0  0  0  0  0
  -29.9642  -13.6051   20.4161 N   0  0  0  0  0  0  0  0  0  0  0  0
  -25.4571  -14.9936   20.1686 N   0  0  0  0  0  0  0  0  0  0  0  0
  -21.8484  -12.5849   21.4224 N   0  0  0  0  0  0  0  0  0  0  0  0
  -30.0154  -15.7688   21.3533 N   0  0  0  0  0  0  0  0  0  0  0  0
  -25.2007  -29.9796   19.8514 N   0  0  0  0  0  0  0  0  0  0  0  0
  -23.9257  -27.6009   25.8307 N   0  0  0  0  0  0  0  0  0  0  0  0
  -22.8239  -24.3205   26.8762 N   0  3  0  0  0  0  0  0  0  0  0  0
  -22.6172  -14.7032   20.9980 O   0  0  0  0  0  0  0  0  0  0  0  0
  -26.8884  -29.1691   21.2360 O   0  0  0  0  0  0  0  0  0  0  0  0
  -23.4144  -29.1525   23.4771 O   0  0  0  0  0  0  0  0  0  0  0  0
  -25.1861  -25.6887   26.1944 O   0  0  0  0  0  0  0  0  0  0  0  0
  -31.8464  -14.9300   20.2019 O   0  0  0  0  0  0  0  0  0  0  0  0
  -21.6157   -7.0463   21.9750 O   0  0  0  0  0  0  0  0  0  0  0  0
  -29.4098  -23.5722   21.2921 O   0  0  0  0  0  0  0  0  0  1  0  0
  -28.7972  -20.2149   22.7340 O   0  0  0  0  0  0  0  0  0  0  0  0
  -16.5295   -6.6485   19.8831 F   0  0  0  0  0  0  0  0  0  0  0  0
  -20.9229   -4.9423   20.3210 F   0  0  0  0  0  0  0  0  0  0  0  0
  1  2  1  0  0  0  0
  1  5  2  0  0  0  0
  2  6  2  0  0  0  0
  3  8  2  0  0  0  0
  3 17  1  0  0  0  0
  4  9  1  0  0  0  0
  4 17  2  0  0  0  0
  5 19  1  0  0  0  0
  6 21  1  0  0  0  0
  7 10  2  0  0  0  0
  7 20  1  0  0  0  0
  8 26  1  0  0  0  0
  9 26  2  0  0  0  0
 10 27  1  0  0  0  0
 11 12  2  0  0  0  0
 11 28  1  0  0  0  0
 12 30  1  0  0  0  0
 13 22  1  0  0  0  0
 13 27  2  0  0  0  0
 14 24  2  0  0  0  0
 14 25  1  0  0  0  0
 15 25  2  0  0  0  0
 15 29  1  0  0  0  0
 16 30  2  0  0  0  0
 16 31  1  0  0  0  0
 17 32  1  0  0  0  0
 18 32  1  0  0  0  0
 18 33  2  0  0  0  0
 18 34  1  0  0  0  0
 19 21  2  0  0  0  0
 19 39  1  0  0  0  0
 20 22  2  0  0  0  0
 20 40  1  0  0  0  0
 21 50  1  0  0  0  0
 22 41  1  0  0  0  0
 23 24  1  0  0  0  0
 23 29  2  0  0  0  0
 23 49  1  0  0  0  0
 24 54  1  0  0  0  0
 25 70  1  0  0  0  0
 26 79  1  0  0  0  0
 27 80  1  0  0  0  0
 28 31  2  0  0  0  0
 28 79  1  0  0  0  0
 29 81  1  0  0  0  0
 30 82  1  0  0  0  0
 31 83  1  0  0  0  0
 32 64  2  0  0  0  0
 33 65  1  0  0  0  0
 33 68  1  0  0  0  0
 34 69  1  0  0  0  0
 34 74  2  0  0  0  0
 35 51  1  0  0  0  0
 35 71  1  0  0  0  0
 35 75  2  0  0  0  0
 36 61  1  0  0  0  0
 36 66  1  0  0  0  0
 36 76  2  0  0  0  0
 37 62  1  0  0  0  0
 37 72  1  0  0  0  0
 37 77  2  0  0  0  0
 38 67  1  0  0  0  0
 38 70  1  0  0  0  0
 38 78  2  0  0  0  0
 39 42  1  0  0  0  0
 40 51  1  0  0  0  0
 41 66  1  0  0  0  0
 42 44  1  0  0  0  0
 43 45  1  0  0  0  0
 43 47  1  0  0  0  0
 44 50  1  0  0  0  0
 45 52  1  0  0  0  0
 46 49  1  0  0  0  0
 46 53  1  0  0  0  0
 47 67  1  0  0  0  0
 48 52  1  0  0  0  0
 48 67  1  0  0  0  0
 49 53  1  0  0  0  0
 50 71  1  0  0  0  0
 51 66  1  0  0  0  0
 52 65  1  0  0  0  0
 53 80  1  0  0  0  0
 55 62  1  0  0  0  0
 56 63  1  0  0  0  0
 57 63  1  0  0  0  0
 58 63  1  0  0  0  0
 59 73  1  0  0  0  0
 60 81  1  0  0  0  0
 61 63  1  0  0  0  0
 61 72  1  0  0  0  0
 62 73  1  0  0  0  0
 64 65  1  0  0  0  0
M  CHG  1  73   1
M  ISO  4  38 100  53 101  70 100  80 101
M  END
> <Batch ID>
0146

> <Smiles>
CNC(C)C(=O)NC(C(=O)N1Cc2cc([101O:1][101CH:1]3CC3c3c(C)cc([100NH:0][100C:0](=O)N4CCCC(n5nc(-c6ccc(Oc7ccc(F)cc7F)cc6)c(C(N)=O)c5N)C4)cc3OC)ccc2CC1C(=O)NC1CCCc2ccccc21)C(C)(C)C

> <Shape>
0.249

> <Color>
0.213

> <Negative vol penalty>
0.000

$$$$

  -OEChem-04052321313D

 90 99  0     1  0  0  0  0  0999 V2000
  -16.9516  -30.2024   23.6082 C   0  0  0  0  0  0  0  0  0  0  0  0
  -18.0749  -30.7603   23.0083 C   0  0  0  0  0  0  0  0  0  0  0  0
  -23.9415  -12.7253   20.7710 C   0  0  0  0  0  0  0  0  0  0  0  0
  -26.3482  -12.7183   20.9833 C   0  0  0  0  0  0  0  0  0  0  0  0
  -16.9017  -28.8304   23.8454 C   0  0  0  0  0  0  0  0  0  0  0  0
  -19.1436  -29.9447   22.6344 C   0  0  0  0  0  0  0  0  0  0  0  0
  -25.8655  -29.9126   20.1397 C   0  0  0  0  0  0  0  0  0  0  0  0
  -23.9625  -11.3598   20.4876 C   0  0  0  0  0  0  0  0  0  0  0  0
  -26.3691  -11.3526   20.7000 C   0  0  0  0  0  0  0  0  0  0  0  0
  -27.1736  -29.5077   20.4021 C   0  0  0  0  0  0  0  0  0  0  0  0
  -24.2520   -8.4630   22.2074 C   0  0  0  0  0  0  0  0  0  0  0  0
  -23.3175   -7.6527   22.8522 C   0  0  0  0  0  0  0  0  0  0  0  0
  -26.6012  -27.2567   19.7507 C   0  0  0  0  0  0  0  0  0  0  0  0
  -29.3186  -22.9266   20.7291 C   0  0  0  0  0  0  0  0  0  0  0  0
  -22.4155   -6.9893   20.7113 C   0  0  0  0  0  0  0  0  0  0  0  0
  -25.1344  -13.4046   21.0188 C   0  0  0  0  0  0  0  0  0  0  0  0
  -25.0037  -15.4196   22.5779 C   0  0  0  0  0  0  0  0  0  0  0  0
  -17.9759  -28.0001   23.4852 C   0  0  0  0  0  0  0  0  0  0  0  0
  -24.9111  -28.9886   19.6905 C   0  0  0  0  0  0  0  0  0  0  0  0
  -19.1021  -28.5544   22.8435 C   0  0  0  0  0  0  0  0  0  0  0  0
  -25.2824  -27.6529   19.4808 C   0  0  0  0  0  0  0  0  0  0  0  0
  -30.3197  -23.7252   21.2707 C   0  0  0  0  0  0  0  0  0  0  0  0
  -28.6563  -22.0086   21.5365 C   0  0  0  0  0  0  0  0  0  0  0  0
  -25.1763  -10.6734   20.4521 C   0  0  0  0  0  0  0  0  0  0  0  0
  -27.5409  -28.1791   20.2104 C   0  0  0  0  0  0  0  0  0  0  0  0
  -24.2682   -8.5365   20.8145 C   0  0  0  0  0  0  0  0  0  0  0  0
  -22.3993   -6.9158   22.1042 C   0  0  0  0  0  0  0  0  0  0  0  0
  -23.3500   -7.7996   20.0665 C   0  0  0  0  0  0  0  0  0  0  0  0
  -25.1134  -14.8154   21.3111 C   0  0  0  0  0  0  0  0  0  0  0  0
  -29.0294  -21.9285   22.8685 C   0  0  0  0  0  0  0  0  0  0  0  0
  -30.6182  -23.5685   22.6146 C   0  0  0  0  0  0  0  0  0  0  0  0
  -25.0313  -16.7681   22.3187 C   0  0  0  0  0  0  0  0  0  0  0  0
  -24.8872  -14.8158   23.8731 C   0  0  0  0  0  0  0  0  0  0  0  0
  -22.1558  -27.8798   20.8229 C   0  0  0  0  0  0  0  0  0  0  0  0
  -22.0136  -26.4011   17.9393 C   0  0  0  0  0  0  0  0  0  0  0  0
  -23.6825  -25.1745   15.2269 C   0  0  0  0  0  0  0  0  0  0  0  0
  -27.1727  -21.1776   19.6778 C   0  0  0  0  0  0  0  0  0  0  0  0
  -17.8657  -26.5207   23.7580 C   0  0  0  0  0  0  0  0  0  0  0  0
  -23.5111  -29.4468   19.3864 C   0  0  0  0  0  0  0  0  0  0  0  0
  -24.3006  -26.6261   18.9806 C   0  0  0  0  0  0  0  0  0  0  0  0
  -19.2149  -25.8098   23.7349 C   0  0  0  0  0  0  0  0  0  0  0  0
  -24.7047  -19.2883   17.9410 C   0  0  0  0  0  0  0  0  0  0  0  0
  -19.9806  -26.1888   22.4761 C   0  0  0  0  0  0  0  0  0  0  0  0
  -24.5820  -18.0059   18.7672 C   0  0  0  0  0  0  0  0  0  0  0  0
  -33.4454  -24.8435   24.7502 C   0  0  0  0  0  0  0  0  0  0  0  0
  -31.0197  -25.0341   25.4487 C   0  0  0  0  0  0  0  0  0  0  0  0
  -33.8659  -24.8159   26.2185 C   0  0  0  0  0  0  0  0  0  0  0  0
  -31.4402  -25.0052   26.9171 C   0  0  0  0  0  0  0  0  0  0  0  0
  -26.1456  -19.7931   17.8881 C   0  0  0  0  0  0  0  0  0  0  0  0
  -26.6703  -18.6786   20.0215 C   0  0  0  0  0  0  0  0  0  0  0  0
  -20.2893  -27.6912   22.4561 C   0  0  1  0  0  0  0  0  0  0  0  0
  -22.4902  -28.3138   19.4238 C   0  0  1  0  0  0  0  0  0  0  0  0
  -25.2267  -18.1675   20.1578 C   0  0  2  0  0  0  0  0  0  0  0  0
  -32.0269  -24.2993   24.5589 C   0  0  0  0  0  0  0  0  0  0  0  0
  -32.8541  -25.5539   27.0917 C   0  0  0  0  0  0  0  0  0  0  0  0
  -26.9748  -21.4430   24.2211 C   0  0  0  0  0  0  0  0  0  0  0  0
  -23.2993  -23.9883   13.0489 C   0  0  0  0  0  0  0  0  0  0  0  0
  -21.5873  -23.7811   19.4440 C   0  0  0  0  0  0  0  0  0  0  0  0
  -22.1593  -22.5580   17.3357 C   0  0  0  0  0  0  0  0  0  0  0  0
  -20.1659  -24.0561   17.4048 C   0  0  0  0  0  0  0  0  0  0  0  0
  -24.8111  -27.4242   13.6698 C   0  0  0  0  0  0  0  0  0  0  0  0
  -31.0355  -24.7200   20.3923 C   0  0  0  0  0  0  0  0  0  0  0  0
  -28.3552  -20.9610   23.7864 C   0  0  0  0  0  0  0  0  0  0  0  0
  -30.5862  -26.1669   20.6074 C   0  0  0  0  0  0  0  0  0  0  0  0
  -29.1241  -26.4048   20.2481 C   0  0  0  0  0  0  0  0  0  1  0  0
  -22.4807  -25.0728   17.3947 C   0  0  1  0  0  0  0  0  0  0  0  0
  -23.4405  -25.3371   13.7371 C   0  0  2  0  0  0  0  0  0  0  0  0
  -21.6165  -23.8857   17.9061 C   0  0  0  0  0  0  0  0  0  0  0  0
  -25.2039  -15.7070   20.3207 N   0  0  0  0  0  0  0  0  0  0  0  0
  -29.9968  -22.6876   23.4304 N   0  0  0  0  0  0  0  0  0  0  0  0
  -25.1510  -16.8851   20.9651 N   0  0  0  0  0  0  0  0  0  0  0  0
  -22.9423  -27.1217   18.7036 N   0  0  0  0  0  0  0  0  0  0  0  0
  -26.6891  -19.9260   19.2415 N   0  0  0  0  0  0  0  0  0  0  0  0
  -24.9647  -17.8533   23.1188 N   0  0  0  0  0  0  0  0  0  0  0  0
  -24.8747  -13.4170   23.9595 N   0  0  0  0  0  0  0  0  0  0  0  0
  -27.6349  -21.1903   20.9934 N   0  0  0  0  0  0  0  0  0  0  0  0
  -31.6372  -24.3811   23.1720 N   0  0  0  0  0  0  0  0  0  0  0  0
  -20.8262  -28.0457   21.1608 N   0  0  0  0  0  0  0  0  0  0  0  0
  -22.5047  -25.2125   15.9428 N   0  0  0  0  0  0  0  0  0  0  0  0
  -33.2534  -25.4095   28.5170 N   0  3  0  0  0  0  0  0  0  0  0  0
  -24.5735  -26.0707   13.1053 N   0  3  0  0  0  0  0  0  0  0  0  0
  -24.7803  -15.4966   24.9212 O   0  0  0  0  0  0  0  0  0  0  0  0
  -23.0384  -27.4265   21.5422 O   0  0  0  0  0  0  0  0  0  0  0  0
  -20.8694  -26.7884   17.6895 O   0  0  0  0  0  0  0  0  0  0  0  0
  -24.8039  -25.0248   15.7071 O   0  0  0  0  0  0  0  0  0  0  0  0
  -27.1514  -22.1719   18.9478 O   0  0  0  0  0  0  0  0  0  0  0  0
  -25.1971   -9.3408   20.1758 O   0  0  0  0  0  0  0  0  0  0  0  0
  -28.8168  -27.7811   20.4664 O   0  0  0  0  0  0  0  0  0  1  0  0
  -21.5030   -6.1365   22.7235 F   0  0  0  0  0  0  0  0  0  0  0  0
  -23.3615   -7.8652   18.7281 F   0  0  0  0  0  0  0  0  0  0  0  0
  1  2  1  0  0  0  0
  1  5  2  0  0  0  0
  2  6  2  0  0  0  0
  3  8  2  0  0  0  0
  3 16  1  0  0  0  0
  4  9  1  0  0  0  0
  4 16  2  0  0  0  0
  5 18  1  0  0  0  0
  6 20  1  0  0  0  0
  7 10  2  0  0  0  0
  7 19  1  0  0  0  0
  8 24  1  0  0  0  0
  9 24  2  0  0  0  0
 10 25  1  0  0  0  0
 11 12  2  0  0  0  0
 11 26  1  0  0  0  0
 12 27  1  0  0  0  0
 13 21  1  0  0  0  0
 13 25  2  0  0  0  0
 14 22  2  0  0  0  0
 14 23  1  0  0  0  0
 15 27  2  0  0  0  0
 15 28  1  0  0  0  0
 16 29  1  0  0  0  0
 17 29  1  0  0  0  0
 17 32  2  0  0  0  0
 17 33  1  0  0  0  0
 18 20  2  0  0  0  0
 18 38  1  0  0  0  0
 19 21  2  0  0  0  0
 19 39  1  0  0  0  0
 20 51  1  0  0  0  0
 21 40  1  0  0  0  0
 22 31  1  0  0  0  0
 22 62  1  0  0  0  0
 23 30  2  0  0  0  0
 23 76  1  0  0  0  0
 24 87  1  0  0  0  0
 25 88  1  0  0  0  0
 26 28  2  0  0  0  0
 26 87  1  0  0  0  0
 27 89  1  0  0  0  0
 28 90  1  0  0  0  0
 29 69  2  0  0  0  0
 30 63  1  0  0  0  0
 30 70  1  0  0  0  0
 31 70  2  0  0  0  0
 31 77  1  0  0  0  0
 32 71  1  0  0  0  0
 32 74  1  0  0  0  0
 33 75  1  0  0  0  0
 33 82  2  0  0  0  0
 34 52  1  0  0  0  0
 34 78  1  0  0  0  0
 34 83  2  0  0  0  0
 35 66  1  0  0  0  0
 35 72  1  0  0  0  0
 35 84  2  0  0  0  0
 36 67  1  0  0  0  0
 36 79  1  0  0  0  0
 36 85  2  0  0  0  0
 37 73  1  0  0  0  0
 37 76  1  0  0  0  0
 37 86  2  0  0  0  0
 38 41  1  0  0  0  0
 39 52  1  0  0  0  0
 40 72  1  0  0  0  0
 41 43  1  0  0  0  0
 42 44  1  0  0  0  0
 42 49  1  0  0  0  0
 43 51  1  0  0  0  0
 44 53  1  0  0  0  0
 45 47  1  0  0  0  0
 45 54  1  0  0  0  0
 46 48  1  0  0  0  0
 46 54  1  0  0  0  0
 47 55  1  0  0  0  0
 48 55  1  0  0  0  0
 49 73  1  0  0  0  0
 50 53  1  0  0  0  0
 50 73  1  0  0  0  0
 51 78  1  0  0  0  0
 52 72  1  0  0  0  0
 53 71  1  0  0  0  0
 54 77  1  0  0  0  0
 55 80  1  0  0  0  0
 56 63  1  0  0  0  0
 57 67  1  0  0  0  0
 58 68  1  0  0  0  0
 59 68  1  0  0  0  0
 60 68  1  0  0  0  0
 61 81  1  0  0  0  0
 62 64  1  0  0  0  0
 64 65  1  0  0  0  0
 65 88  1  0  0  0  0
 66 68  1  0  0  0  0
 66 79  1  0  0  0  0
 67 81  1  0  0  0  0
 69 71  1  0  0  0  0
M  CHG  2  80   1  81   1
M  ISO  4  37 100  65 101  76 100  88 101
M  END
> <Batch ID>
0146

> <Smiles>
CCc1nc(NC2CCC(N)CC2)c(CC[101CH2:1][101O:1]c2ccc3c(c2)CN(C(=O)C(NC(=O)C(C)NC)C(C)(C)C)C(C(=O)NC2CCCc4ccccc42)C3)cc1[100NH:0][100C:0](=O)N1CCCC(n2nc(-c3ccc(Oc4ccc(F)cc4F)cc3)c(C(N)=O)c2N)C1

> <Shape>
0.223

> <Color>
0.073

> <Negative vol penalty>
0.000

$$$$

  -OEChem-04052321313D

 90 99  0     1  0  0  0  0  0999 V2000
  -16.7485  -25.9182   24.8770 C   0  0  0  0  0  0  0  0  0  0  0  0
  -17.9838  -25.5551   24.3501 C   0  0  0  0  0  0  0  0  0  0  0  0
  -23.1508   -9.9117   19.9120 C   0  0  0  0  0  0  0  0  0  0  0  0
  -23.7008   -9.9249   22.2645 C   0  0  0  0  0  0  0  0  0  0  0  0
  -16.2948  -27.2301   24.7467 C   0  0  0  0  0  0  0  0  0  0  0  0
  -18.7656  -26.5036   23.6915 C   0  0  0  0  0  0  0  0  0  0  0  0
  -23.6333  -26.3074   25.0744 C   0  0  0  0  0  0  0  0  0  0  0  0
  -22.3613   -8.7778   20.1029 C   0  0  0  0  0  0  0  0  0  0  0  0
  -22.9112   -8.7910   22.4555 C   0  0  0  0  0  0  0  0  0  0  0  0
  -24.4120  -25.2919   24.5211 C   0  0  0  0  0  0  0  0  0  0  0  0
  -19.6245   -8.0707   22.7703 C   0  0  0  0  0  0  0  0  0  0  0  0
  -18.7644   -8.0592   23.8683 C   0  0  0  0  0  0  0  0  0  0  0  0
  -25.3121  -26.8603   22.9245 C   0  0  0  0  0  0  0  0  0  0  0  0
  -29.6070  -21.7000   21.0552 C   0  0  0  0  0  0  0  0  0  0  0  0
  -19.8897   -6.1023   24.7293 C   0  0  0  0  0  0  0  0  0  0  0  0
  -28.3741  -20.3505   19.0292 C   0  0  0  0  0  0  0  0  0  0  0  0
  -23.8207  -10.4852   20.9928 C   0  0  0  0  0  0  0  0  0  0  0  0
  -24.2296  -13.0009   20.8839 C   0  0  0  0  0  0  0  0  0  0  0  0
  -17.0757  -28.1974   24.0947 C   0  0  0  0  0  0  0  0  0  0  0  0
  -23.6801  -27.6067   24.5491 C   0  0  0  0  0  0  0  0  0  0  0  0
  -18.3213  -27.8293   23.5512 C   0  0  0  0  0  0  0  0  0  0  0  0
  -24.5349  -27.8911   23.4746 C   0  0  0  0  0  0  0  0  0  0  0  0
  -30.3783  -21.0076   20.1284 C   0  0  0  0  0  0  0  0  0  0  0  0
  -29.7578  -20.3174   19.0930 C   0  0  0  0  0  0  0  0  0  0  0  0
  -22.2415   -8.2174   21.3747 C   0  0  0  0  0  0  0  0  0  0  0  0
  -25.2494  -25.5676   23.4442 C   0  0  0  0  0  0  0  0  0  0  0  0
  -20.6172   -7.0979   22.6517 C   0  0  0  0  0  0  0  0  0  0  0  0
  -18.8970   -7.0750   24.8478 C   0  0  0  0  0  0  0  0  0  0  0  0
  -20.7498   -6.1138   23.6313 C   0  0  0  0  0  0  0  0  0  0  0  0
  -24.6369  -11.6562   20.7961 C   0  0  0  0  0  0  0  0  0  0  0  0
  -28.2300  -21.6714   20.9034 C   0  0  0  0  0  0  0  0  0  0  0  0
  -25.3669  -13.7224   20.6149 C   0  0  0  0  0  0  0  0  0  0  0  0
  -22.9386  -13.5488   21.1822 C   0  0  0  0  0  0  0  0  0  0  0  0
  -21.5701  -29.5497   23.1791 C   0  0  0  0  0  0  0  0  0  0  0  0
  -24.0136  -31.6775   23.3345 C   0  0  0  0  0  0  0  0  0  0  0  0
  -27.3781  -32.2168   23.5233 C   0  0  0  0  0  0  0  0  0  0  0  0
  -29.8359  -14.2738   17.1391 C   0  0  0  0  0  0  0  0  0  0  0  0
  -16.5222  -29.5915   23.9370 C   0  0  0  0  0  0  0  0  0  0  0  0
  -22.8539  -28.6971   25.1744 C   0  0  0  0  0  0  0  0  0  0  0  0
  -24.6369  -29.2741   22.8869 C   0  0  0  0  0  0  0  0  0  0  0  0
  -17.5772  -30.6259   23.5533 C   0  0  0  0  0  0  0  0  0  0  0  0
  -30.1912  -12.2843   20.2449 C   0  0  0  0  0  0  0  0  0  0  0  0
  -18.4545  -30.0993   22.4221 C   0  0  0  0  0  0  0  0  0  0  0  0
  -28.7388  -11.9957   20.6205 C   0  0  0  0  0  0  0  0  0  0  0  0
  -30.3606  -12.4710   18.7405 C   0  0  0  0  0  0  0  0  0  0  0  0
  -29.6801  -16.4563   15.9818 C   0  0  0  0  0  0  0  0  0  0  0  0
  -28.0128  -13.2251   18.5358 C   0  0  0  0  0  0  0  0  0  0  0  0
  -28.5949  -16.2237   18.1830 C   0  0  0  0  0  0  0  0  0  0  0  0
  -30.5408  -17.6051   16.4816 C   0  0  0  0  0  0  0  0  0  0  0  0
  -19.2093  -28.8355   22.8518 C   0  0  1  0  0  0  0  0  0  0  0  0
  -22.5958  -29.8673   24.2302 C   0  0  1  0  0  0  0  0  0  0  0  0
  -27.8013  -13.0739   20.0500 C   0  0  1  0  0  0  0  0  0  0  0  0
  -29.4272  -17.3791   18.7591 C   0  0  1  0  0  0  0  0  0  0  0  0
  -31.8650  -21.0186   20.2632 C   0  0  0  0  0  0  0  0  0  0  0  0
  -30.6418  -16.8836   19.5437 C   0  0  0  0  0  0  0  0  0  0  0  0
  -29.6555  -20.9213   16.1018 C   0  0  0  0  0  0  0  0  0  0  0  0
  -29.0763  -34.0630   23.5958 C   0  0  0  0  0  0  0  0  0  0  0  0
  -23.6385  -32.1367   20.3414 C   0  0  0  0  0  0  0  0  0  0  0  0
  -25.8976  -33.2149   20.2945 C   0  0  0  0  0  0  0  0  0  0  0  0
  -24.0701  -34.2116   21.6691 C   0  0  0  0  0  0  0  0  0  0  0  0
  -28.3602  -31.3663   26.1825 C   0  0  0  0  0  0  0  0  0  0  0  0
  -30.8898  -20.3586   16.7960 C   0  0  0  0  0  0  0  0  0  0  0  0
  -26.0324  -22.4297   21.8096 C   0  0  0  0  0  0  0  0  0  0  0  0
  -25.4943  -23.2501   22.9699 C   0  0  0  0  0  0  0  0  0  1  0  0
  -30.5478  -19.5477   18.0573 C   0  0  2  0  0  0  0  0  0  0  0  0
  -25.1582  -32.0591   22.4272 C   0  0  1  0  0  0  0  0  0  0  0  0
  -28.2041  -33.1252   24.4160 C   0  0  2  0  0  0  0  0  0  0  0  0
  -24.6880  -32.8790   21.1926 C   0  0  0  0  0  0  0  0  0  0  0  0
  -27.5914  -21.0121   19.9109 N   0  0  0  0  0  0  0  0  0  0  0  0
  -25.9318  -11.5283   20.4946 N   0  0  0  0  0  0  0  0  0  0  0  0
  -26.3480  -12.8019   20.3905 N   0  0  0  0  0  0  0  0  0  0  0  0
  -23.8045  -30.3048   23.5289 N   0  0  0  0  0  0  0  0  0  0  0  0
  -29.4275  -13.4673   18.2140 N   0  0  0  0  0  0  0  0  0  0  0  0
  -29.2901  -15.5644   17.0705 N   0  0  0  0  0  0  0  0  0  0  0  0
  -25.6134  -15.0481   20.5505 N   0  0  0  0  0  0  0  0  0  0  0  0
  -21.8799  -12.6656   21.4340 N   0  0  0  0  0  0  0  0  0  0  0  0
  -27.4574  -22.3816   21.8557 N   0  0  0  0  0  0  0  0  0  0  0  0
  -20.3391  -29.1812   23.6875 N   0  0  0  0  0  0  0  0  0  0  0  0
  -26.1321  -32.7485   23.2666 N   0  0  0  0  0  0  0  0  0  0  0  0
  -29.8254  -18.3038   17.6164 N   0  3  1  0  0  0  0  0  0  0  0  0
  -29.0879  -32.3163   25.3023 N   0  3  0  0  0  0  0  0  0  0  0  0
  -22.7264  -14.7848   21.2081 O   0  0  0  0  0  0  0  0  0  0  0  0
  -21.8727  -29.6342   21.9947 O   0  0  0  0  0  0  0  0  0  0  0  0
  -23.3346  -32.5648   23.8572 O   0  0  0  0  0  0  0  0  0  0  0  0
  -27.7978  -31.1446   23.0934 O   0  0  0  0  0  0  0  0  0  0  0  0
  -30.6450  -13.8664   16.2962 O   0  0  0  0  0  0  0  0  0  0  0  0
  -21.4709   -7.1111   21.5614 O   0  0  0  0  0  0  0  0  0  0  0  0
  -26.0153  -24.5712   22.8980 O   0  0  0  0  0  0  0  0  0  1  0  0
  -18.0719   -7.0650   25.9029 F   0  0  0  0  0  0  0  0  0  0  0  0
  -21.7024   -5.1774   23.5235 F   0  0  0  0  0  0  0  0  0  0  0  0
  1  2  1  0  0  0  0
  1  5  2  0  0  0  0
  2  6  2  0  0  0  0
  3  8  2  0  0  0  0
  3 17  1  0  0  0  0
  4  9  1  0  0  0  0
  4 17  2  0  0  0  0
  5 19  1  0  0  0  0
  6 21  1  0  0  0  0
  7 10  2  0  0  0  0
  7 20  1  0  0  0  0
  8 25  1  0  0  0  0
  9 25  2  0  0  0  0
 10 26  1  0  0  0  0
 11 12  2  0  0  0  0
 11 27  1  0  0  0  0
 12 28  1  0  0  0  0
 13 22  1  0  0  0  0
 13 26  2  0  0  0  0
 14 23  1  0  0  0  0
 14 31  2  0  0  0  0
 15 28  2  0  0  0  0
 15 29  1  0  0  0  0
 16 24  1  0  0  0  0
 16 69  2  0  0  0  0
 17 30  1  0  0  0  0
 18 30  1  0  0  0  0
 18 32  2  0  0  0  0
 18 33  1  0  0  0  0
 19 21  2  0  0  0  0
 19 38  1  0  0  0  0
 20 22  2  0  0  0  0
 20 39  1  0  0  0  0
 21 50  1  0  0  0  0
 22 40  1  0  0  0  0
 23 24  2  0  0  0  0
 23 54  1  0  0  0  0
 24 65  1  0  0  0  0
 25 87  1  0  0  0  0
 26 88  1  0  0  0  0
 27 29  2  0  0  0  0
 27 87  1  0  0  0  0
 28 89  1  0  0  0  0
 29 90  1  0  0  0  0
 30 70  2  0  0  0  0
 31 69  1  0  0  0  0
 31 77  1  0  0  0  0
 32 71  1  0  0  0  0
 32 75  1  0  0  0  0
 33 76  1  0  0  0  0
 33 82  2  0  0  0  0
 34 51  1  0  0  0  0
 34 78  1  0  0  0  0
 34 83  2  0  0  0  0
 35 66  1  0  0  0  0
 35 72  1  0  0  0  0
 35 84  2  0  0  0  0
 36 67  1  0  0  0  0
 36 79  1  0  0  0  0
 36 85  2  0  0  0  0
 37 73  1  0  0  0  0
 37 74  1  0  0  0  0
 37 86  2  0  0  0  0
 38 41  1  0  0  0  0
 39 51  1  0  0  0  0
 40 72  1  0  0  0  0
 41 43  1  0  0  0  0
 42 44  1  0  0  0  0
 42 45  1  0  0  0  0
 43 50  1  0  0  0  0
 44 52  1  0  0  0  0
 45 73  1  0  0  0  0
 46 49  1  0  0  0  0
 46 74  1  0  0  0  0
 47 52  1  0  0  0  0
 47 73  1  0  0  0  0
 48 53  1  0  0  0  0
 48 74  1  0  0  0  0
 49 80  1  0  0  0  0
 50 78  1  0  0  0  0
 51 72  1  0  0  0  0
 52 71  1  0  0  0  0
 53 55  1  0  0  0  0
 53 80  1  0  0  0  0
 56 62  1  0  0  0  0
 57 67  1  0  0  0  0
 58 68  1  0  0  0  0
 59 68  1  0  0  0  0
 60 68  1  0  0  0  0
 61 81  1  0  0  0  0
 62 65  1  0  0  0  0
 63 64  1  0  0  0  0
 63 77  1  0  0  0  0
 64 88  1  0  0  0  0
 65 80  1  0  0  0  0
 66 68  1  0  0  0  0
 66 79  1  0  0  0  0
 67 81  1  0  0  0  0
 70 71  1  0  0  0  0
M  CHG  2  80   1  81   1
M  ISO  4  37 100  64 101  74 100  88 101
M  END
> <Batch ID>
0146

> <Smiles>
CCC(c1cnc(NC[101CH2:1][101O:1]c2ccc3c(c2)CN(C(=O)C(NC(=O)C(C)NC)C(C)(C)C)C(C(=O)NC2CCCc4ccccc42)C3)cc1C)N1CC[100N:0]([100C:0](=O)N2CCCC(n3nc(-c4ccc(Oc5ccc(F)cc5F)cc4)c(C(N)=O)c3N)C2)CC1C

> <Shape>
0.311

> <Color>
0.201

> <Negative vol penalty>
0.000

$$$$

  -OEChem-04052321313D

 84 93  0     1  0  0  0  0  0999 V2000
  -32.4294  -32.7675   19.0025 C   0  0  0  0  0  0  0  0  0  0  0  0
  -32.0147  -31.5111   18.5725 C   0  0  0  0  0  0  0  0  0  0  0  0
  -22.9910  -10.0094   20.1181 C   0  0  0  0  0  0  0  0  0  0  0  0
  -24.2475   -9.2924   22.0530 C   0  0  0  0  0  0  0  0  0  0  0  0
  -31.9700  -33.2739   20.2176 C   0  0  0  0  0  0  0  0  0  0  0  0
  -31.1411  -30.7598   19.3579 C   0  0  0  0  0  0  0  0  0  0  0  0
  -26.7426  -26.9814   17.3876 C   0  0  0  0  0  0  0  0  0  0  0  0
  -28.3616  -20.5342   20.1114 C   0  0  0  0  0  0  0  0  0  0  0  0
  -22.2922   -8.8023   20.1245 C   0  0  0  0  0  0  0  0  0  0  0  0
  -23.5487   -8.0853   22.0595 C   0  0  0  0  0  0  0  0  0  0  0  0
  -26.6961  -25.5968   17.2312 C   0  0  0  0  0  0  0  0  0  0  0  0
  -29.1395  -19.7392   20.9530 C   0  0  0  0  0  0  0  0  0  0  0  0
  -20.5190   -6.9683   23.0566 C   0  0  0  0  0  0  0  0  0  0  0  0
  -20.0443   -6.5026   24.2827 C   0  0  0  0  0  0  0  0  0  0  0  0
  -25.6492  -25.3936   19.3950 C   0  0  0  0  0  0  0  0  0  0  0  0
  -27.1889  -18.4318   21.5212 C   0  0  0  0  0  0  0  0  0  0  0  0
  -21.3678   -4.4968   24.0333 C   0  0  0  0  0  0  0  0  0  0  0  0
  -23.9687  -10.2545   21.0823 C   0  0  0  0  0  0  0  0  0  0  0  0
  -24.3416  -12.6899   21.7437 C   0  0  0  0  0  0  0  0  0  0  0  0
  -31.0827  -32.5325   21.0138 C   0  0  0  0  0  0  0  0  0  0  0  0
  -26.2518  -27.5827   18.5555 C   0  0  0  0  0  0  0  0  0  0  0  0
  -30.6704  -31.2562   20.5855 C   0  0  0  0  0  0  0  0  0  0  0  0
  -26.9973  -20.2780   19.9746 C   0  0  0  0  0  0  0  0  0  0  0  0
  -25.6883  -26.7863   19.5626 C   0  0  0  0  0  0  0  0  0  0  0  0
  -26.4109  -19.2269   20.6795 C   0  0  0  0  0  0  0  0  0  0  0  0
  -22.5710   -7.8402   21.0953 C   0  0  0  0  0  0  0  0  0  0  0  0
  -26.1519  -24.8025   18.2362 C   0  0  0  0  0  0  0  0  0  0  0  0
  -28.5532  -18.6880   21.6579 C   0  0  0  0  0  0  0  0  0  0  0  0
  -21.4181   -6.1982   22.3188 C   0  0  0  0  0  0  0  0  0  0  0  0
  -20.4687   -5.2669   24.7711 C   0  0  0  0  0  0  0  0  0  0  0  0
  -21.8425   -4.9625   22.8072 C   0  0  0  0  0  0  0  0  0  0  0  0
  -24.6913  -11.5010   21.0758 C   0  0  0  0  0  0  0  0  0  0  0  0
  -25.3434  -13.5724   21.4212 C   0  0  0  0  0  0  0  0  0  0  0  0
  -23.2121  -12.9713   22.5809 C   0  0  0  0  0  0  0  0  0  0  0  0
  -27.5236  -29.3418   20.8776 C   0  0  0  0  0  0  0  0  0  0  0  0
  -24.4391  -29.5838   21.8521 C   0  0  0  0  0  0  0  0  0  0  0  0
  -21.2903  -28.2679   21.8561 C   0  0  0  0  0  0  0  0  0  0  0  0
  -30.7538  -14.7503   20.7246 C   0  0  0  0  0  0  0  0  0  0  0  0
  -30.6505  -33.1016   22.3419 C   0  0  0  0  0  0  0  0  0  0  0  0
  -26.2850  -29.0797   18.6974 C   0  0  0  0  0  0  0  0  0  0  0  0
  -25.1294  -27.3843   20.8270 C   0  0  0  0  0  0  0  0  0  0  0  0
  -29.4320  -32.4007   22.9373 C   0  0  0  0  0  0  0  0  0  0  0  0
  -29.0454  -13.2400   17.9902 C   0  0  0  0  0  0  0  0  0  0  0  0
  -29.5941  -30.8862   22.8549 C   0  0  0  0  0  0  0  0  0  0  0  0
  -27.7350  -12.7459   18.6056 C   0  0  0  0  0  0  0  0  0  0  0  0
  -24.9610  -21.8274   19.6153 C   0  0  0  0  0  0  0  0  0  0  0  0
  -30.2148  -13.0957   18.9616 C   0  0  0  0  0  0  0  0  0  0  0  0
  -28.6940  -13.2257   20.8966 C   0  0  0  0  0  0  0  0  0  0  0  0
  -26.1904  -21.1356   19.0741 C   0  0  1  0  0  0  0  0  0  0  0  0
  -29.7040  -30.4216   21.3976 C   0  0  1  0  0  0  0  0  0  0  0  0
  -26.2249  -29.5438   20.1494 C   0  0  1  0  0  0  0  0  0  0  0  0
  -27.4755  -13.4030   19.9746 C   0  0  2  0  0  0  0  0  0  0  0  0
  -26.1816  -22.6331   19.2903 C   0  0  1  0  0  0  0  0  0  1  0  0
  -24.9526  -18.9311   20.5491 C   0  0  0  0  0  0  0  0  0  0  0  0
  -18.9885  -28.6699   22.7713 C   0  0  0  0  0  0  0  0  0  0  0  0
  -25.3573  -28.5954   24.5888 C   0  0  0  0  0  0  0  0  0  0  0  0
  -22.9631  -28.1150   25.1412 C   0  0  0  0  0  0  0  0  0  0  0  0
  -23.6848  -30.4535   24.6580 C   0  0  0  0  0  0  0  0  0  0  0  0
  -20.1267  -28.4999   19.1448 C   0  0  0  0  0  0  0  0  0  0  0  0
  -31.1534  -16.3677   22.5641 C   0  0  0  0  0  0  0  0  0  0  0  0
  -30.6851  -17.7439   22.1262 C   0  0  0  0  0  0  0  0  0  0  0  0
  -23.5403  -28.7845   22.7643 C   0  0  1  0  0  0  0  0  0  0  0  0
  -19.9338  -28.9006   21.6026 C   0  0  2  0  0  0  0  0  0  0  0  0
  -23.8986  -28.9754   24.2652 C   0  0  0  0  0  0  0  0  0  0  0  0
  -25.8266  -11.6146   20.3813 N   0  0  0  0  0  0  0  0  0  0  0  0
  -26.1988  -12.8854   20.6110 N   0  0  0  0  0  0  0  0  0  0  0  0
  -25.1905  -28.8522   20.9215 N   0  0  0  0  0  0  0  0  0  0  0  0
  -29.9053  -13.7415   20.2395 N   0  0  0  0  0  0  0  0  0  0  0  0
  -25.5672  -14.8613   21.7544 N   0  0  0  0  0  0  0  0  0  0  0  0
  -22.2784  -11.9511   22.8083 N   0  0  0  0  0  0  0  0  0  0  0  0
  -28.3990  -30.4058   20.7724 N   0  0  0  0  0  0  0  0  0  0  0  0
  -22.1730  -29.1623   22.4237 N   0  0  0  0  0  0  0  0  0  0  0  0
  -30.3844  -15.3143   21.9396 N   0  0  0  0  0  0  0  0  0  0  0  0
  -19.3143  -28.3239   20.3761 N   0  3  0  0  0  0  0  0  0  0  0  0
  -23.0275  -14.0990   23.0982 O   0  0  0  0  0  0  0  0  0  0  0  0
  -27.7166  -28.2985   21.4907 O   0  0  0  0  0  0  0  0  0  0  0  0
  -24.4679  -30.8126   21.9564 O   0  0  0  0  0  0  0  0  0  0  0  0
  -21.5405  -27.0964   21.5817 O   0  0  0  0  0  0  0  0  0  0  0  0
  -31.7627  -15.1245   20.1172 O   0  0  0  0  0  0  0  0  0  0  0  0
  -21.8891   -6.6622   21.1020 O   0  0  0  0  0  0  0  0  0  0  0  0
  -26.1059  -23.4507   18.0863 O   0  0  0  0  0  0  0  0  0  1  0  0
  -29.3127  -17.9118   22.4783 O   0  0  0  0  0  0  0  0  0  0  0  0
  -20.0139   -4.8206   25.9493 F   0  0  0  0  0  0  0  0  0  0  0  0
  -22.7071   -4.2187   22.1035 F   0  0  0  0  0  0  0  0  0  0  0  0
  1  2  1  0  0  0  0
  1  5  2  0  0  0  0
  2  6  2  0  0  0  0
  3  9  2  0  0  0  0
  3 18  1  0  0  0  0
  4 10  1  0  0  0  0
  4 18  2  0  0  0  0
  5 20  1  0  0  0  0
  6 22  1  0  0  0  0
  7 11  2  0  0  0  0
  7 21  1  0  0  0  0
  8 12  2  0  0  0  0
  8 23  1  0  0  0  0
  9 26  1  0  0  0  0
 10 26  2  0  0  0  0
 11 27  1  0  0  0  0
 12 28  1  0  0  0  0
 13 14  2  0  0  0  0
 13 29  1  0  0  0  0
 14 30  1  0  0  0  0
 15 24  1  0  0  0  0
 15 27  2  0  0  0  0
 16 25  1  0  0  0  0
 16 28  2  0  0  0  0
 17 30  2  0  0  0  0
 17 31  1  0  0  0  0
 18 32  1  0  0  0  0
 19 32  1  0  0  0  0
 19 33  2  0  0  0  0
 19 34  1  0  0  0  0
 20 22  2  0  0  0  0
 20 39  1  0  0  0  0
 21 24  2  0  0  0  0
 21 40  1  0  0  0  0
 22 50  1  0  0  0  0
 23 25  2  0  0  0  0
 23 49  1  0  0  0  0
 24 41  1  0  0  0  0
 25 54  1  0  0  0  0
 26 80  1  0  0  0  0
 27 81  1  0  0  0  0
 28 82  1  0  0  0  0
 29 31  2  0  0  0  0
 29 80  1  0  0  0  0
 30 83  1  0  0  0  0
 31 84  1  0  0  0  0
 32 65  2  0  0  0  0
 33 66  1  0  0  0  0
 33 69  1  0  0  0  0
 34 70  1  0  0  0  0
 34 75  2  0  0  0  0
 35 51  1  0  0  0  0
 35 71  1  0  0  0  0
 35 76  2  0  0  0  0
 36 62  1  0  0  0  0
 36 67  1  0  0  0  0
 36 77  2  0  0  0  0
 37 63  1  0  0  0  0
 37 72  1  0  0  0  0
 37 78  2  0  0  0  0
 38 68  1  0  0  0  0
 38 73  1  0  0  0  0
 38 79  2  0  0  0  0
 39 42  1  0  0  0  0
 40 51  1  0  0  0  0
 41 67  1  0  0  0  0
 42 44  1  0  0  0  0
 43 45  1  0  0  0  0
 43 47  1  0  0  0  0
 44 50  1  0  0  0  0
 45 52  1  0  0  0  0
 46 49  1  0  0  0  0
 46 53  1  0  0  0  0
 47 68  1  0  0  0  0
 48 52  1  0  0  0  0
 48 68  1  0  0  0  0
 49 53  1  0  0  0  0
 50 71  1  0  0  0  0
 51 67  1  0  0  0  0
 52 66  1  0  0  0  0
 53 81  1  0  0  0  0
 55 63  1  0  0  0  0
 56 64  1  0  0  0  0
 57 64  1  0  0  0  0
 58 64  1  0  0  0  0
 59 74  1  0  0  0  0
 60 61  1  0  0  0  0
 60 73  1  0  0  0  0
 61 82  1  0  0  0  0
 62 64  1  0  0  0  0
 62 72  1  0  0  0  0
 63 74  1  0  0  0  0
 65 66  1  0  0  0  0
M  CHG  1  74   1
M  ISO  4  38 100  53 101  73 100  81 101
M  END
> <Batch ID>
0146

> <Smiles>
CNC(C)C(=O)NC(C(=O)N1Cc2cc([101O:1][101CH:1]3CC3c3ccc(OCC[100NH:0][100C:0](=O)N4CCCC(n5nc(-c6ccc(Oc7ccc(F)cc7F)cc6)c(C(N)=O)c5N)C4)cc3C)ccc2CC1C(=O)NC1CCCc2ccccc21)C(C)(C)C

> <Shape>
0.307

> <Color>
0.157

> <Negative vol penalty>
0.000

$$$$

  -OEChem-04052321313D

 88 97  0     1  0  0  0  0  0999 V2000
  -32.4789  -13.9914   21.0214 C   0  0  0  0  0  0  0  0  0  0  0  0
  -31.7151  -15.1447   21.1692 C   0  0  0  0  0  0  0  0  0  0  0  0
  -27.9827  -22.8564   20.6469 C   0  0  0  0  0  0  0  0  0  0  0  0
  -28.3960  -23.0431   18.2738 C   0  0  0  0  0  0  0  0  0  0  0  0
  -31.9089  -12.8453   20.4686 C   0  0  0  0  0  0  0  0  0  0  0  0
  -30.3811  -15.1530   20.7631 C   0  0  0  0  0  0  0  0  0  0  0  0
  -25.7523  -18.1834   23.3892 C   0  0  0  0  0  0  0  0  0  0  0  0
  -27.6857  -21.5028   20.4887 C   0  0  0  0  0  0  0  0  0  0  0  0
  -28.0990  -21.6894   18.1156 C   0  0  0  0  0  0  0  0  0  0  0  0
  -25.1336  -19.3958   23.0871 C   0  0  0  0  0  0  0  0  0  0  0  0
  -21.8934  -21.1590   15.6736 C   0  0  0  0  0  0  0  0  0  0  0  0
  -22.0350  -21.5683   16.9995 C   0  0  0  0  0  0  0  0  0  0  0  0
  -27.8003  -18.1996   17.1410 C   0  0  0  0  0  0  0  0  0  0  0  0
  -28.6505  -17.4377   16.3396 C   0  0  0  0  0  0  0  0  0  0  0  0
  -23.4247  -18.2119   21.8635 C   0  0  0  0  0  0  0  0  0  0  0  0
  -23.3505  -22.9511   14.9648 C   0  0  0  0  0  0  0  0  0  0  0  0
  -30.5000  -17.9625   17.8028 C   0  0  0  0  0  0  0  0  0  0  0  0
  -28.3377  -23.6266   19.5394 C   0  0  0  0  0  0  0  0  0  0  0  0
  -29.9043  -25.5942   19.9661 C   0  0  0  0  0  0  0  0  0  0  0  0
  -30.5646  -12.8366   20.0645 C   0  0  0  0  0  0  0  0  0  0  0  0
  -25.2169  -16.9750   22.9207 C   0  0  0  0  0  0  0  0  0  0  0  0
  -29.7930  -14.0061   20.2032 C   0  0  0  0  0  0  0  0  0  0  0  0
  -24.0370  -16.9854   22.1632 C   0  0  0  0  0  0  0  0  0  0  0  0
  -23.4921  -23.3604   16.2907 C   0  0  0  0  0  0  0  0  0  0  0  0
  -27.7439  -20.9193   19.2231 C   0  0  0  0  0  0  0  0  0  0  0  0
  -23.9712  -19.4103   22.3217 C   0  0  0  0  0  0  0  0  0  0  0  0
  -22.5512  -21.8504   14.6562 C   0  0  0  0  0  0  0  0  0  0  0  0
  -22.8343  -22.6690   17.3081 C   0  0  0  0  0  0  0  0  0  0  0  0
  -28.2999  -18.8430   18.2733 C   0  0  0  0  0  0  0  0  0  0  0  0
  -30.0003  -17.3191   16.6705 C   0  0  0  0  0  0  0  0  0  0  0  0
  -29.6498  -18.7244   18.6042 C   0  0  0  0  0  0  0  0  0  0  0  0
  -28.6441  -25.0251   19.7021 C   0  0  0  0  0  0  0  0  0  0  0  0
  -29.6645  -26.9451   20.0297 C   0  0  0  0  0  0  0  0  0  0  0  0
  -31.1779  -24.9586   20.1384 C   0  0  0  0  0  0  0  0  0  0  0  0
  -26.2445  -14.6626   20.9970 C   0  0  0  0  0  0  0  0  0  0  0  0
  -23.4969  -13.2067   21.9208 C   0  0  0  0  0  0  0  0  0  0  0  0
  -20.3230  -13.5133   23.1371 C   0  0  0  0  0  0  0  0  0  0  0  0
  -24.3047  -26.9080   18.7139 C   0  0  0  0  0  0  0  0  0  0  0  0
  -30.0058  -11.5883   19.4288 C   0  0  0  0  0  0  0  0  0  0  0  0
  -25.8815  -15.6737   23.2778 C   0  0  0  0  0  0  0  0  0  0  0  0
  -23.4108  -15.7140   21.6533 C   0  0  0  0  0  0  0  0  0  0  0  0
  -28.4806  -11.5655   19.3692 C   0  0  0  0  0  0  0  0  0  0  0  0
  -25.8646  -28.1589   21.6752 C   0  0  0  0  0  0  0  0  0  0  0  0
  -23.3435  -27.8990   15.3608 C   0  0  0  0  0  0  0  0  0  0  0  0
  -27.9463  -12.8995   18.8575 C   0  0  0  0  0  0  0  0  0  0  0  0
  -27.1330  -28.8497   21.1867 C   0  0  0  0  0  0  0  0  0  0  0  0
  -23.3998  -26.3916   15.1566 C   0  0  0  0  0  0  0  0  0  0  0  0
  -24.7341  -28.3446   20.6750 C   0  0  0  0  0  0  0  0  0  0  0  0
  -24.3527  -28.1210   16.4767 C   0  0  0  0  0  0  0  0  0  0  0  0
  -26.3510  -28.4249   18.7868 C   0  0  0  0  0  0  0  0  0  0  0  0
  -28.3357  -14.0468   19.7975 C   0  0  1  0  0  0  0  0  0  0  0  0
  -25.5344  -14.5418   22.3156 C   0  0  1  0  0  0  0  0  0  0  0  0
  -27.5409  -28.4024   19.7738 C   0  0  2  0  0  0  0  0  0  0  0  0
  -23.5642  -25.8500   16.5793 C   0  0  1  0  0  0  0  0  0  0  0  0
  -18.3081  -12.1490   23.7502 C   0  0  0  0  0  0  0  0  0  0  0  0
  -22.8284  -12.8692   18.9629 C   0  0  0  0  0  0  0  0  0  0  0  0
  -20.4606  -12.3947   19.6238 C   0  0  0  0  0  0  0  0  0  0  0  0
  -22.2932  -10.8839   20.3866 C   0  0  0  0  0  0  0  0  0  0  0  0
  -20.4350  -14.4027   25.9576 C   0  0  0  0  0  0  0  0  0  0  0  0
  -23.1132  -22.2018   12.3723 C   0  0  0  0  0  0  0  0  0  0  0  0
  -24.3586  -24.5505   16.6053 C   0  0  0  0  0  0  0  0  0  0  0  0
  -23.6184  -22.7180   20.9042 C   0  0  0  0  0  0  0  0  0  0  0  0
  -24.2015  -21.7420   21.9141 C   0  0  0  0  0  0  0  0  0  1  0  0
  -23.5068  -22.1032   19.5179 C   0  0  0  0  0  0  0  0  0  0  0  0
  -22.0756  -13.1844   21.4124 C   0  0  1  0  0  0  0  0  0  0  0  0
  -19.5965  -12.7824   24.2517 C   0  0  2  0  0  0  0  0  0  0  0  0
  -21.9271  -12.3573   20.1042 C   0  0  0  0  0  0  0  0  0  0  0  0
  -27.6755  -25.9397   19.6048 N   0  0  0  0  0  0  0  0  0  0  0  0
  -28.3272  -27.0971   19.8089 N   0  0  0  0  0  0  0  0  0  0  0  0
  -24.1014  -14.4676   22.0236 N   0  0  0  0  0  0  0  0  0  0  0  0
  -25.1034  -27.8774   19.3387 N   0  0  0  0  0  0  0  0  0  0  0  0
  -24.2262  -26.9310   17.3196 N   0  0  0  0  0  0  0  0  0  0  0  0
  -30.4691  -28.0059   20.2526 N   0  0  0  0  0  0  0  0  0  0  0  0
  -31.2462  -23.5621   20.0412 N   0  0  0  0  0  0  0  0  0  0  0  0
  -27.4841  -14.0526   20.9677 N   0  0  0  0  0  0  0  0  0  0  0  0
  -21.2538  -12.7056   22.5187 N   0  0  0  0  0  0  0  0  0  0  0  0
  -19.2581  -13.7254   25.3550 N   0  3  0  0  0  0  0  0  0  0  0  0
  -32.2214  -25.6084   20.3879 O   0  0  0  0  0  0  0  0  0  0  0  0
  -25.7070  -15.2634   20.0741 O   0  0  0  0  0  0  0  0  0  0  0  0
  -24.0479  -12.1452   22.2226 O   0  0  0  0  0  0  0  0  0  0  0  0
  -20.0857  -14.6825   22.8420 O   0  0  0  0  0  0  0  0  0  0  0  0
  -23.6811  -26.0653   19.3727 O   0  0  0  0  0  0  0  0  0  0  0  0
  -27.4544  -19.5983   19.0684 O   0  0  0  0  0  0  0  0  0  0  0  0
  -22.4130  -21.4503   13.3626 O   0  0  0  0  0  0  0  0  0  0  0  0
  -23.3613  -20.6009   22.0227 O   0  0  0  0  0  0  0  0  0  1  0  0
  -22.9606  -23.0561   18.6083 O   0  0  0  0  0  0  0  0  0  0  0  0
  -30.8163  -16.5862   15.9016 F   0  0  0  0  0  0  0  0  0  0  0  0
  -30.1353  -19.3392   19.6915 F   0  0  0  0  0  0  0  0  0  0  0  0
  1  2  1  0  0  0  0
  1  5  2  0  0  0  0
  2  6  2  0  0  0  0
  3  8  2  0  0  0  0
  3 18  1  0  0  0  0
  4  9  1  0  0  0  0
  4 18  2  0  0  0  0
  5 20  1  0  0  0  0
  6 22  1  0  0  0  0
  7 10  2  0  0  0  0
  7 21  1  0  0  0  0
  8 25  1  0  0  0  0
  9 25  2  0  0  0  0
 10 26  1  0  0  0  0
 11 12  2  0  0  0  0
 11 27  1  0  0  0  0
 12 28  1  0  0  0  0
 13 14  2  0  0  0  0
 13 29  1  0  0  0  0
 14 30  1  0  0  0  0
 15 23  1  0  0  0  0
 15 26  2  0  0  0  0
 16 24  1  0  0  0  0
 16 27  2  0  0  0  0
 17 30  2  0  0  0  0
 17 31  1  0  0  0  0
 18 32  1  0  0  0  0
 19 32  1  0  0  0  0
 19 33  2  0  0  0  0
 19 34  1  0  0  0  0
 20 22  2  0  0  0  0
 20 39  1  0  0  0  0
 21 23  2  0  0  0  0
 21 40  1  0  0  0  0
 22 51  1  0  0  0  0
 23 41  1  0  0  0  0
 24 28  2  0  0  0  0
 24 61  1  0  0  0  0
 25 83  1  0  0  0  0
 26 85  1  0  0  0  0
 27 84  1  0  0  0  0
 28 86  1  0  0  0  0
 29 31  2  0  0  0  0
 29 83  1  0  0  0  0
 30 87  1  0  0  0  0
 31 88  1  0  0  0  0
 32 68  2  0  0  0  0
 33 69  1  0  0  0  0
 33 73  1  0  0  0  0
 34 74  1  0  0  0  0
 34 78  2  0  0  0  0
 35 52  1  0  0  0  0
 35 75  1  0  0  0  0
 35 79  2  0  0  0  0
 36 65  1  0  0  0  0
 36 70  1  0  0  0  0
 36 80  2  0  0  0  0
 37 66  1  0  0  0  0
 37 76  1  0  0  0  0
 37 81  2  0  0  0  0
 38 71  1  0  0  0  0
 38 72  1  0  0  0  0
 38 82  2  0  0  0  0
 39 42  1  0  0  0  0
 40 52  1  0  0  0  0
 41 70  1  0  0  0  0
 42 45  1  0  0  0  0
 43 46  1  0  0  0  0
 43 48  1  0  0  0  0
 44 47  1  0  0  0  0
 44 49  1  0  0  0  0
 45 51  1  0  0  0  0
 46 53  1  0  0  0  0
 47 54  1  0  0  0  0
 48 71  1  0  0  0  0
 49 72  1  0  0  0  0
 50 53  1  0  0  0  0
 50 71  1  0  0  0  0
 51 75  1  0  0  0  0
 52 70  1  0  0  0  0
 53 69  1  0  0  0  0
 54 61  1  0  0  0  0
 54 72  1  0  0  0  0
 55 66  1  0  0  0  0
 56 67  1  0  0  0  0
 57 67  1  0  0  0  0
 58 67  1  0  0  0  0
 59 77  1  0  0  0  0
 60 84  1  0  0  0  0
 62 63  1  0  0  0  0
 62 64  1  0  0  0  0
 63 85  1  0  0  0  0
 64 86  1  0  0  0  0
 65 67  1  0  0  0  0
 65 76  1  0  0  0  0
 66 77  1  0  0  0  0
 68 69  1  0  0  0  0
M  CHG  1  77   1
M  ISO  4  38 100  63 101  72 100  85 101
M  END
> <Batch ID>
0146

> <Smiles>
CNC(C)C(=O)NC(C(=O)N1Cc2cc([101O:1][101CH2:1]CCOc3ccc(OC)cc3CC3CCC[100N:0]3[100C:0](=O)N3CCCC(n4nc(-c5ccc(Oc6ccc(F)cc6F)cc5)c(C(N)=O)c4N)C3)ccc2CC1C(=O)NC1CCCc2ccccc21)C(C)(C)C

> <Shape>
0.208

> <Color>
0.066

> <Negative vol penalty>
0.000

$$$$

  -OEChem-04052321313D

 85 94  0     1  0  0  0  0  0999 V2000
  -23.3793  -34.8733   21.4317 C   0  0  0  0  0  0  0  0  0  0  0  0
  -24.3680  -33.8950   21.4631 C   0  0  0  0  0  0  0  0  0  0  0  0
  -24.1176  -14.1294   20.9696 C   0  0  0  0  0  0  0  0  0  0  0  0
  -26.4989  -14.3031   20.6003 C   0  0  0  0  0  0  0  0  0  0  0  0
  -22.1260  -34.6140   21.9847 C   0  0  0  0  0  0  0  0  0  0  0  0
  -24.1042  -32.6572   22.0485 C   0  0  0  0  0  0  0  0  0  0  0  0
  -25.7792  -28.7198   19.1879 C   0  0  0  0  0  0  0  0  0  0  0  0
  -24.1764  -12.7610   20.7057 C   0  0  0  0  0  0  0  0  0  0  0  0
  -26.5577  -12.9346   20.3364 C   0  0  0  0  0  0  0  0  0  0  0  0
  -27.1399  -28.4166   19.2101 C   0  0  0  0  0  0  0  0  0  0  0  0
  -25.0899   -9.9458   22.3407 C   0  0  0  0  0  0  0  0  0  0  0  0
  -24.4011   -9.0897   23.1999 C   0  0  0  0  0  0  0  0  0  0  0  0
  -29.1655  -22.2451   21.3400 C   0  0  0  0  0  0  0  0  0  0  0  0
  -26.7184  -26.6710   20.8204 C   0  0  0  0  0  0  0  0  0  0  0  0
  -29.4800  -24.3289   20.1232 C   0  0  0  0  0  0  0  0  0  0  0  0
  -23.0705   -8.2986   21.3449 C   0  0  0  0  0  0  0  0  0  0  0  0
  -25.2788  -14.9004   20.9168 C   0  0  0  0  0  0  0  0  0  0  0  0
  -25.3664  -16.9466   22.4378 C   0  0  0  0  0  0  0  0  0  0  0  0
  -21.8435  -33.3690   22.5685 C   0  0  0  0  0  0  0  0  0  0  0  0
  -24.8773  -28.0068   19.9909 C   0  0  0  0  0  0  0  0  0  0  0  0
  -22.8463  -32.3815   22.6109 C   0  0  0  0  0  0  0  0  0  0  0  0
  -29.0665  -22.9835   22.5072 C   0  0  0  0  0  0  0  0  0  0  0  0
  -25.3463  -26.9640   20.8029 C   0  0  0  0  0  0  0  0  0  0  0  0
  -29.1652  -24.3798   22.4891 C   0  0  0  0  0  0  0  0  0  0  0  0
  -29.3658  -25.0664   21.3037 C   0  0  0  0  0  0  0  0  0  0  0  0
  -25.3965  -12.1636   20.3891 C   0  0  0  0  0  0  0  0  0  0  0  0
  -27.6099  -27.3935   20.0281 C   0  0  0  0  0  0  0  0  0  0  0  0
  -24.7690   -9.9784   20.9836 C   0  0  0  0  0  0  0  0  0  0  0  0
  -29.3804  -22.9285   20.1412 C   0  0  0  0  0  0  0  0  0  0  0  0
  -23.3914   -8.2661   22.7020 C   0  0  0  0  0  0  0  0  0  0  0  0
  -23.7594   -9.1548   20.4857 C   0  0  0  0  0  0  0  0  0  0  0  0
  -25.2186  -16.3141   21.1888 C   0  0  0  0  0  0  0  0  0  0  0  0
  -25.2271  -18.2852   22.1635 C   0  0  0  0  0  0  0  0  0  0  0  0
  -25.6081  -16.3752   23.7304 C   0  0  0  0  0  0  0  0  0  0  0  0
  -22.8328  -28.6954   22.3555 C   0  0  0  0  0  0  0  0  0  0  0  0
  -22.0721  -25.4869   21.9307 C   0  0  0  0  0  0  0  0  0  0  0  0
  -19.2837  -25.9470   23.8419 C   0  0  0  0  0  0  0  0  0  0  0  0
  -26.0993  -21.5462   17.2182 C   0  0  0  0  0  0  0  0  0  0  0  0
  -20.4892  -33.1518   23.1956 C   0  0  0  0  0  0  0  0  0  0  0  0
  -23.4089  -28.3297   19.9294 C   0  0  0  0  0  0  0  0  0  0  0  0
  -28.8023  -22.4860   23.8931 C   0  0  0  0  0  0  0  0  0  0  0  0
  -28.9750  -24.9453   23.8611 C   0  0  0  0  0  0  0  0  0  0  0  0
  -24.4188  -26.1669   21.6799 C   0  0  0  0  0  0  0  0  0  0  0  0
  -20.1702  -31.6831   23.4628 C   0  0  0  0  0  0  0  0  0  0  0  0
  -29.2213  -23.7034   24.7310 C   0  0  0  0  0  0  0  0  0  0  0  0
  -23.0902  -21.2775   19.1023 C   0  0  0  0  0  0  0  0  0  0  0  0
  -21.3570  -30.9911   24.1258 C   0  0  0  0  0  0  0  0  0  0  0  0
  -23.3078  -20.0320   19.9634 C   0  0  0  0  0  0  0  0  0  0  0  0
  -23.7103  -21.1202   17.7156 C   0  0  0  0  0  0  0  0  0  0  0  0
  -25.3535  -19.4970   18.5750 C   0  0  0  0  0  0  0  0  0  0  0  0
  -22.5904  -31.0178   23.2150 C   0  0  1  0  0  0  0  0  0  0  0  0
  -22.6238  -27.8342   21.1422 C   0  0  1  0  0  0  0  0  0  0  0  0
  -24.7944  -19.6297   20.0019 C   0  0  2  0  0  0  0  0  0  0  0  0
  -30.9010  -27.0595   21.4229 C   0  0  0  0  0  0  0  0  0  0  0  0
  -17.1770  -24.7898   24.5631 C   0  0  0  0  0  0  0  0  0  0  0  0
  -20.8472  -26.0141   19.1871 C   0  0  0  0  0  0  0  0  0  0  0  0
  -18.5842  -25.7481   20.2246 C   0  0  0  0  0  0  0  0  0  0  0  0
  -20.1866  -23.8362   20.2239 C   0  0  0  0  0  0  0  0  0  0  0  0
  -20.0581  -26.0652   26.6958 C   0  0  0  0  0  0  0  0  0  0  0  0
  -28.5297  -21.8445   16.8139 C   0  0  0  0  0  0  0  0  0  0  0  0
  -29.0714  -22.8794   17.7837 C   0  0  0  0  0  0  0  0  0  0  0  0
  -29.4649  -26.5744   21.2706 C   0  0  1  0  0  0  0  0  0  1  0  0
  -20.6094  -25.8073   21.7497 C   0  0  1  0  0  0  0  0  0  0  0  0
  -18.6324  -25.0749   24.9000 C   0  0  2  0  0  0  0  0  0  0  0  0
  -20.0752  -25.3707   20.3563 C   0  0  0  0  0  0  0  0  0  0  0  0
  -25.0018  -17.1797   20.1950 N   0  0  0  0  0  0  0  0  0  0  0  0
  -25.0123  -18.3698   20.8193 N   0  0  0  0  0  0  0  0  0  0  0  0
  -22.9891  -26.4633   21.5209 N   0  0  0  0  0  0  0  0  0  0  0  0
  -25.1209  -20.7397   17.8225 N   0  0  0  0  0  0  0  0  0  0  0  0
  -25.2684  -19.3863   22.9434 N   0  0  0  0  0  0  0  0  0  0  0  0
  -25.7250  -14.9824   23.8339 N   0  0  0  0  0  0  0  0  0  0  0  0
  -22.4730  -30.0174   22.1758 N   0  0  0  0  0  0  0  0  0  0  0  0
  -19.9146  -25.1924   22.8755 N   0  0  0  0  0  0  0  0  0  0  0  0
  -27.4119  -21.1173   17.3728 N   0  0  0  0  0  0  0  0  0  0  0  0
  -18.6841  -25.7471   26.2290 N   0  3  0  0  0  0  0  0  0  0  0  0
  -25.7008  -17.0777   24.7655 O   0  0  0  0  0  0  0  0  0  0  0  0
  -23.2855  -28.1971   23.3794 O   0  0  0  0  0  0  0  0  0  0  0  0
  -22.3956  -24.3987   22.4148 O   0  0  0  0  0  0  0  0  0  0  0  0
  -19.2343  -27.1748   23.8678 O   0  0  0  0  0  0  0  0  0  0  0  0
  -25.8240  -22.5753   16.5920 O   0  0  0  0  0  0  0  0  0  0  0  0
  -25.4543  -10.8283   20.1317 O   0  0  0  0  0  0  0  0  0  0  0  0
  -29.5023  -22.2297   18.9778 O   0  0  0  0  0  0  0  0  0  0  0  0
  -28.9375  -27.0951   20.0512 O   0  0  0  0  0  0  0  0  0  1  0  0
  -22.7311   -7.4429   23.5269 F   0  0  0  0  0  0  0  0  0  0  0  0
  -23.4474   -9.1808   19.1827 F   0  0  0  0  0  0  0  0  0  0  0  0
  1  2  1  0  0  0  0
  1  5  2  0  0  0  0
  2  6  2  0  0  0  0
  3  8  2  0  0  0  0
  3 17  1  0  0  0  0
  4  9  1  0  0  0  0
  4 17  2  0  0  0  0
  5 19  1  0  0  0  0
  6 21  1  0  0  0  0
  7 10  2  0  0  0  0
  7 20  1  0  0  0  0
  8 26  1  0  0  0  0
  9 26  2  0  0  0  0
 10 27  1  0  0  0  0
 11 12  2  0  0  0  0
 11 28  1  0  0  0  0
 12 30  1  0  0  0  0
 13 22  2  0  0  0  0
 13 29  1  0  0  0  0
 14 23  1  0  0  0  0
 14 27  2  0  0  0  0
 15 25  1  0  0  0  0
 15 29  2  0  0  0  0
 16 30  2  0  0  0  0
 16 31  1  0  0  0  0
 17 32  1  0  0  0  0
 18 32  1  0  0  0  0
 18 33  2  0  0  0  0
 18 34  1  0  0  0  0
 19 21  2  0  0  0  0
 19 39  1  0  0  0  0
 20 23  2  0  0  0  0
 20 40  1  0  0  0  0
 21 51  1  0  0  0  0
 22 24  1  0  0  0  0
 22 41  1  0  0  0  0
 23 43  1  0  0  0  0
 24 25  2  0  0  0  0
 24 42  1  0  0  0  0
 25 62  1  0  0  0  0
 26 81  1  0  0  0  0
 27 83  1  0  0  0  0
 28 31  2  0  0  0  0
 28 81  1  0  0  0  0
 29 82  1  0  0  0  0
 30 84  1  0  0  0  0
 31 85  1  0  0  0  0
 32 66  2  0  0  0  0
 33 67  1  0  0  0  0
 33 70  1  0  0  0  0
 34 71  1  0  0  0  0
 34 76  2  0  0  0  0
 35 52  1  0  0  0  0
 35 72  1  0  0  0  0
 35 77  2  0  0  0  0
 36 63  1  0  0  0  0
 36 68  1  0  0  0  0
 36 78  2  0  0  0  0
 37 64  1  0  0  0  0
 37 73  1  0  0  0  0
 37 79  2  0  0  0  0
 38 69  1  0  0  0  0
 38 74  1  0  0  0  0
 38 80  2  0  0  0  0
 39 44  1  0  0  0  0
 40 52  1  0  0  0  0
 41 45  1  0  0  0  0
 42 45  1  0  0  0  0
 43 68  1  0  0  0  0
 44 47  1  0  0  0  0
 46 48  1  0  0  0  0
 46 49  1  0  0  0  0
 47 51  1  0  0  0  0
 48 53  1  0  0  0  0
 49 69  1  0  0  0  0
 50 53  1  0  0  0  0
 50 69  1  0  0  0  0
 51 72  1  0  0  0  0
 52 68  1  0  0  0  0
 53 67  1  0  0  0  0
 54 62  1  0  0  0  0
 55 64  1  0  0  0  0
 56 65  1  0  0  0  0
 57 65  1  0  0  0  0
 58 65  1  0  0  0  0
 59 75  1  0  0  0  0
 60 61  1  0  0  0  0
 60 74  1  0  0  0  0
 61 82  1  0  0  0  0
 62 83  1  0  0  0  0
 63 65  1  0  0  0  0
 63 73  1  0  0  0  0
 64 75  1  0  0  0  0
 66 67  1  0  0  0  0
M  CHG  1  75   1
M  ISO  4  38 100  62 101  74 100  83 101
M  END
> <Batch ID>
0146

> <Smiles>
CNC(C)C(=O)NC(C(=O)N1Cc2cc([101O:1][101CH:1](C)c3cc(OCC[100NH:0][100C:0](=O)N4CCCC(n5nc(-c6ccc(Oc7ccc(F)cc7F)cc6)c(C(N)=O)c5N)C4)cc4c3CCC4)ccc2CC1C(=O)NC1CCCc2ccccc21)C(C)(C)C

> <Shape>
0.202

> <Color>
0.071

> <Negative vol penalty>
0.000

$$$$

  -OEChem-04052321313D

 87 96  0     1  0  0  0  0  0999 V2000
  -26.3577  -32.8779   26.5489 C   0  0  0  0  0  0  0  0  0  0  0  0
  -26.8040  -31.8079   25.7800 C   0  0  0  0  0  0  0  0  0  0  0  0
  -23.2784  -10.3394   21.7771 C   0  0  0  0  0  0  0  0  0  0  0  0
  -24.4878   -8.3046   21.2931 C   0  0  0  0  0  0  0  0  0  0  0  0
  -25.0073  -32.9816   26.8800 C   0  0  0  0  0  0  0  0  0  0  0  0
  -25.9003  -30.8403   25.3425 C   0  0  0  0  0  0  0  0  0  0  0  0
  -26.5725  -29.6130   20.4756 C   0  0  0  0  0  0  0  0  0  0  0  0
  -22.0726   -9.6779   21.5452 C   0  0  0  0  0  0  0  0  0  0  0  0
  -23.2819   -7.6430   21.0613 C   0  0  0  0  0  0  0  0  0  0  0  0
  -27.6278  -28.7526   20.1758 C   0  0  0  0  0  0  0  0  0  0  0  0
  -20.8060   -6.2631   22.9015 C   0  0  0  0  0  0  0  0  0  0  0  0
  -20.6449   -4.9967   23.4635 C   0  0  0  0  0  0  0  0  0  0  0  0
  -26.0785  -26.9083   20.0435 C   0  0  0  0  0  0  0  0  0  0  0  0
  -29.2354  -21.4972   22.4542 C   0  0  0  0  0  0  0  0  0  0  0  0
  -20.3452   -4.0561   21.2584 C   0  0  0  0  0  0  0  0  0  0  0  0
  -24.4861   -9.6528   21.6510 C   0  0  0  0  0  0  0  0  0  0  0  0
  -26.4171  -10.4514   23.1142 C   0  0  0  0  0  0  0  0  0  0  0  0
  -24.0850  -32.0199   26.4382 C   0  0  0  0  0  0  0  0  0  0  0  0
  -25.2615  -29.1247   20.5725 C   0  0  0  0  0  0  0  0  0  0  0  0
  -24.5365  -30.9304   25.6691 C   0  0  0  0  0  0  0  0  0  0  0  0
  -25.0080  -27.7650   20.3421 C   0  0  0  0  0  0  0  0  0  0  0  0
  -29.2822  -22.8342   22.0756 C   0  0  0  0  0  0  0  0  0  0  0  0
  -29.6096  -23.1693   20.7665 C   0  0  0  0  0  0  0  0  0  0  0  0
  -22.0743   -8.3297   21.1874 C   0  0  0  0  0  0  0  0  0  0  0  0
  -27.3813  -27.3995   19.9626 C   0  0  0  0  0  0  0  0  0  0  0  0
  -20.7367   -6.4260   21.5178 C   0  0  0  0  0  0  0  0  0  0  0  0
  -20.4145   -3.8932   22.6420 C   0  0  0  0  0  0  0  0  0  0  0  0
  -20.5064   -5.3225   20.6963 C   0  0  0  0  0  0  0  0  0  0  0  0
  -25.7321  -10.3358   21.8898 C   0  0  0  0  0  0  0  0  0  0  0  0
  -29.5221  -20.5407   21.4936 C   0  0  0  0  0  0  0  0  0  0  0  0
  -29.8797  -22.1380   19.8814 C   0  0  0  0  0  0  0  0  0  0  0  0
  -27.5369  -11.1876   22.8130 C   0  0  0  0  0  0  0  0  0  0  0  0
  -26.0721   -9.9392   24.4081 C   0  0  0  0  0  0  0  0  0  0  0  0
  -23.0890  -28.9752   22.8880 C   0  0  0  0  0  0  0  0  0  0  0  0
  -21.1882  -27.8756   20.5005 C   0  0  0  0  0  0  0  0  0  0  0  0
  -20.9495  -26.3575   17.4533 C   0  0  0  0  0  0  0  0  0  0  0  0
  -30.1030  -15.3302   20.3081 C   0  0  0  0  0  0  0  0  0  0  0  0
  -22.6430  -32.1490   26.8611 C   0  0  0  0  0  0  0  0  0  0  0  0
  -24.1307  -30.0707   20.8704 C   0  0  0  0  0  0  0  0  0  0  0  0
  -23.6160  -27.1946   20.4145 C   0  0  0  0  0  0  0  0  0  0  0  0
  -21.6886  -31.2827   26.0433 C   0  0  0  0  0  0  0  0  0  0  0  0
  -29.5014  -12.5387   18.3603 C   0  0  0  0  0  0  0  0  0  0  0  0
  -22.2419  -29.8685   25.8990 C   0  0  0  0  0  0  0  0  0  0  0  0
  -28.5230  -11.7154   19.1977 C   0  0  0  0  0  0  0  0  0  0  0  0
  -28.4056  -18.3041   21.0780 C   0  0  0  0  0  0  0  0  0  0  0  0
  -30.8542  -18.3961   21.7151 C   0  0  0  0  0  0  0  0  0  0  0  0
  -29.1619  -14.0232   18.4274 C   0  0  0  0  0  0  0  0  0  0  0  0
  -28.3902  -16.8160   21.4393 C   0  0  0  0  0  0  0  0  0  0  0  0
  -30.7747  -16.9178   22.0849 C   0  0  0  0  0  0  0  0  0  0  0  0
  -28.1465  -13.7574   20.6671 C   0  0  0  0  0  0  0  0  0  0  0  0
  -23.5827  -29.8740   25.1550 C   0  0  1  0  0  0  0  0  0  0  0  0
  -29.4796  -19.0717   21.8699 C   0  0  0  0  0  0  0  0  0  0  0  0
  -22.9047  -29.3724   21.4507 C   0  0  1  0  0  0  0  0  0  0  0  0
  -28.4482  -12.2451   20.6407 C   0  0  1  0  0  0  0  0  0  0  0  0
  -28.9806  -23.8869   23.0905 C   0  0  0  0  0  0  0  0  0  0  0  0
  -30.1846  -21.1913   17.5799 C   0  0  0  0  0  0  0  0  0  0  0  0
  -19.2613  -25.5599   15.7767 C   0  0  0  0  0  0  0  0  0  0  0  0
  -20.5755  -25.4650   22.2678 C   0  0  0  0  0  0  0  0  0  0  0  0
  -19.6952  -24.2898   20.2399 C   0  0  0  0  0  0  0  0  0  0  0  0
  -18.6020  -26.3853   21.0379 C   0  0  0  0  0  0  0  0  0  0  0  0
  -21.9903  -28.1790   15.3657 C   0  0  0  0  0  0  0  0  0  0  0  0
  -29.6651  -24.5950   20.3311 C   0  0  0  0  0  0  0  0  0  0  0  0
  -30.2357  -22.4353   18.4614 C   0  0  0  0  0  0  0  0  0  0  0  0
  -28.2790  -25.2011   20.0917 C   0  0  0  0  0  0  0  0  0  1  0  0
  -20.8698  -26.5156   19.9278 C   0  0  1  0  0  0  0  0  0  0  0  0
  -20.1532  -26.7127   16.2106 C   0  0  2  0  0  0  0  0  0  0  0  0
  -19.9622  -25.6740   20.8688 C   0  0  0  0  0  0  0  0  0  0  0  0
  -26.3638  -10.9495   20.8856 N   0  0  0  0  0  0  0  0  0  0  0  0
  -29.8441  -20.8277   20.2124 N   0  0  0  0  0  0  0  0  0  0  0  0
  -27.4574  -11.4579   21.4786 N   0  0  0  0  0  0  0  0  0  0  0  0
  -22.5445  -28.1585   20.7150 N   0  0  0  0  0  0  0  0  0  0  0  0
  -29.0968  -14.4869   19.8132 N   0  0  0  0  0  0  0  0  0  0  0  0
  -29.7351  -16.2372   21.3133 N   0  0  0  0  0  0  0  0  0  0  0  0
  -28.5718  -11.6236   23.5622 N   0  0  0  0  0  0  0  0  0  0  0  0
  -24.8864   -9.2037   24.5411 N   0  0  0  0  0  0  0  0  0  0  0  0
  -23.3706  -30.0323   23.7322 N   0  0  0  0  0  0  0  0  0  0  0  0
  -20.3021  -26.7525   18.6049 N   0  0  0  0  0  0  0  0  0  0  0  0
  -21.0712  -27.0461   15.0850 N   0  3  0  0  0  0  0  0  0  0  0  0
  -26.7855  -10.1420   25.4198 O   0  0  0  0  0  0  0  0  0  0  0  0
  -22.9822  -27.7970   23.2077 O   0  0  0  0  0  0  0  0  0  0  0  0
  -20.2679  -28.6608   20.7417 O   0  0  0  0  0  0  0  0  0  0  0  0
  -22.0353  -25.7836   17.4073 O   0  0  0  0  0  0  0  0  0  0  0  0
  -31.2621  -15.2760   19.8783 O   0  0  0  0  0  0  0  0  0  0  0  0
  -20.8977   -7.6838   20.9613 O   0  0  0  0  0  0  0  0  0  0  0  0
  -28.4168  -26.5515   19.6684 O   0  0  0  0  0  0  0  0  0  1  0  0
  -20.2613   -2.6770   23.1818 F   0  0  0  0  0  0  0  0  0  0  0  0
  -20.4400   -5.4726   19.3663 F   0  0  0  0  0  0  0  0  0  0  0  0
  1  2  1  0  0  0  0
  1  5  2  0  0  0  0
  2  6  2  0  0  0  0
  3  8  2  0  0  0  0
  3 16  1  0  0  0  0
  4  9  1  0  0  0  0
  4 16  2  0  0  0  0
  5 18  1  0  0  0  0
  6 20  1  0  0  0  0
  7 10  2  0  0  0  0
  7 19  1  0  0  0  0
  8 24  1  0  0  0  0
  9 24  2  0  0  0  0
 10 25  1  0  0  0  0
 11 12  2  0  0  0  0
 11 26  1  0  0  0  0
 12 27  1  0  0  0  0
 13 21  1  0  0  0  0
 13 25  2  0  0  0  0
 14 22  2  0  0  0  0
 14 30  1  0  0  0  0
 15 27  2  0  0  0  0
 15 28  1  0  0  0  0
 16 29  1  0  0  0  0
 17 29  1  0  0  0  0
 17 32  2  0  0  0  0
 17 33  1  0  0  0  0
 18 20  2  0  0  0  0
 18 38  1  0  0  0  0
 19 21  2  0  0  0  0
 19 39  1  0  0  0  0
 20 51  1  0  0  0  0
 21 40  1  0  0  0  0
 22 23  1  0  0  0  0
 22 55  1  0  0  0  0
 23 31  2  0  0  0  0
 23 62  1  0  0  0  0
 24 84  1  0  0  0  0
 25 85  1  0  0  0  0
 26 28  2  0  0  0  0
 26 84  1  0  0  0  0
 27 86  1  0  0  0  0
 28 87  1  0  0  0  0
 29 68  2  0  0  0  0
 30 52  1  0  0  0  0
 30 69  2  0  0  0  0
 31 63  1  0  0  0  0
 31 69  1  0  0  0  0
 32 70  1  0  0  0  0
 32 74  1  0  0  0  0
 33 75  1  0  0  0  0
 33 79  2  0  0  0  0
 34 53  1  0  0  0  0
 34 76  1  0  0  0  0
 34 80  2  0  0  0  0
 35 65  1  0  0  0  0
 35 71  1  0  0  0  0
 35 81  2  0  0  0  0
 36 66  1  0  0  0  0
 36 77  1  0  0  0  0
 36 82  2  0  0  0  0
 37 72  1  0  0  0  0
 37 73  1  0  0  0  0
 37 83  2  0  0  0  0
 38 41  1  0  0  0  0
 39 53  1  0  0  0  0
 40 71  1  0  0  0  0
 41 43  1  0  0  0  0
 42 44  1  0  0  0  0
 42 47  1  0  0  0  0
 43 51  1  0  0  0  0
 44 54  1  0  0  0  0
 45 48  1  0  0  0  0
 45 52  1  0  0  0  0
 46 49  1  0  0  0  0
 46 52  1  0  0  0  0
 47 72  1  0  0  0  0
 48 73  1  0  0  0  0
 49 73  1  0  0  0  0
 50 54  1  0  0  0  0
 50 72  1  0  0  0  0
 51 76  1  0  0  0  0
 53 71  1  0  0  0  0
 54 70  1  0  0  0  0
 56 63  1  0  0  0  0
 57 66  1  0  0  0  0
 58 67  1  0  0  0  0
 59 67  1  0  0  0  0
 60 67  1  0  0  0  0
 61 78  1  0  0  0  0
 62 64  1  0  0  0  0
 64 85  1  0  0  0  0
 65 67  1  0  0  0  0
 65 77  1  0  0  0  0
 66 78  1  0  0  0  0
 68 70  1  0  0  0  0
M  CHG  1  78   1
M  ISO  4  37 100  64 101  73 100  85 101
M  END
> <Batch ID>
0146

> <Smiles>
CCc1nc(C2CC[100N:0]([100C:0](=O)N3CCCC(n4nc(-c5ccc(Oc6ccc(F)cc6F)cc5)c(C(N)=O)c4N)C3)CC2)cc(C)c1C[101CH2:1][101O:1]c1ccc2c(c1)CN(C(=O)C(NC(=O)C(C)NC)C(C)(C)C)C(C(=O)NC1CCCc3ccccc31)C2

> <Shape>
0.300

> <Color>
0.113

> <Negative vol penalty>
0.000

$$$$

  -OEChem-04052321313D

 85 94  0     1  0  0  0  0  0999 V2000
  -31.6362  -25.0067   17.7527 C   0  0  0  0  0  0  0  0  0  0  0  0
  -30.8398  -24.3849   18.7090 C   0  0  0  0  0  0  0  0  0  0  0  0
  -28.0300  -16.1127   18.9935 C   0  0  0  0  0  0  0  0  0  0  0  0
  -28.3577  -16.0670   21.3868 C   0  0  0  0  0  0  0  0  0  0  0  0
  -31.6334  -26.3965   17.6416 C   0  0  0  0  0  0  0  0  0  0  0  0
  -30.0408  -25.1527   19.5555 C   0  0  0  0  0  0  0  0  0  0  0  0
  -25.3615  -23.2781   20.0397 C   0  0  0  0  0  0  0  0  0  0  0  0
  -19.2506  -19.2904   25.6642 C   0  0  0  0  0  0  0  0  0  0  0  0
  -29.0508  -17.0554   18.8718 C   0  0  0  0  0  0  0  0  0  0  0  0
  -29.3785  -17.0097   21.2650 C   0  0  0  0  0  0  0  0  0  0  0  0
  -25.1984  -22.1847   20.8893 C   0  0  0  0  0  0  0  0  0  0  0  0
  -31.8273  -19.6714   21.6243 C   0  0  0  0  0  0  0  0  0  0  0  0
  -31.8381  -20.7354   22.5261 C   0  0  0  0  0  0  0  0  0  0  0  0
  -19.6097  -18.0611   26.2057 C   0  0  0  0  0  0  0  0  0  0  0  0
  -24.3886  -23.6577   22.6195 C   0  0  0  0  0  0  0  0  0  0  0  0
  -29.6559  -21.4187   21.7460 C   0  0  0  0  0  0  0  0  0  0  0  0
  -27.6835  -15.6184   20.2511 C   0  0  0  0  0  0  0  0  0  0  0  0
  -26.7556  -13.2436   20.3337 C   0  0  0  0  0  0  0  0  0  0  0  0
  -30.8268  -27.1812   18.4807 C   0  0  0  0  0  0  0  0  0  0  0  0
  -25.0492  -24.5729   20.4781 C   0  0  0  0  0  0  0  0  0  0  0  0
  -30.0283  -26.5544   19.4564 C   0  0  0  0  0  0  0  0  0  0  0  0
  -20.1154  -19.9372   24.7882 C   0  0  0  0  0  0  0  0  0  0  0  0
  -24.5462  -24.7655   21.7727 C   0  0  0  0  0  0  0  0  0  0  0  0
  -29.7250  -17.5040   20.0075 C   0  0  0  0  0  0  0  0  0  0  0  0
  -24.7146  -22.3748   22.1804 C   0  0  0  0  0  0  0  0  0  0  0  0
  -30.7308  -19.4810   20.7832 C   0  0  0  0  0  0  0  0  0  0  0  0
  -30.7524  -21.6091   22.5870 C   0  0  0  0  0  0  0  0  0  0  0  0
  -29.6452  -20.3547   20.8442 C   0  0  0  0  0  0  0  0  0  0  0  0
  -26.6288  -14.6450   20.3776 C   0  0  0  0  0  0  0  0  0  0  0  0
  -20.8348  -17.5254   25.8424 C   0  0  0  0  0  0  0  0  0  0  0  0
  -21.3179  -19.3175   24.4886 C   0  0  0  0  0  0  0  0  0  0  0  0
  -25.4745  -12.7775   20.5010 C   0  0  0  0  0  0  0  0  0  0  0  0
  -27.9267  -12.4355   20.1574 C   0  0  0  0  0  0  0  0  0  0  0  0
  -26.6962  -27.2604   20.8887 C   0  0  0  0  0  0  0  0  0  0  0  0
  -23.7657  -28.5010   21.5176 C   0  0  0  0  0  0  0  0  0  0  0  0
  -20.5508  -27.9685   22.5312 C   0  0  0  0  0  0  0  0  0  0  0  0
  -20.5955  -15.0989   23.0812 C   0  0  0  0  0  0  0  0  0  0  0  0
  -30.8930  -28.6827   18.3547 C   0  0  0  0  0  0  0  0  0  0  0  0
  -25.2055  -25.7386   19.5404 C   0  0  0  0  0  0  0  0  0  0  0  0
  -24.1770  -26.1329   22.2847 C   0  0  0  0  0  0  0  0  0  0  0  0
  -29.7346  -29.4031   19.0397 C   0  0  0  0  0  0  0  0  0  0  0  0
  -20.9147  -13.9929   19.7120 C   0  0  0  0  0  0  0  0  0  0  0  0
  -20.6755  -22.4249   24.3744 C   0  0  0  0  0  0  0  0  0  0  0  0
  -19.3788  -22.3918   25.1212 C   0  0  0  0  0  0  0  0  0  0  0  0
  -29.5056  -28.8369   20.4376 C   0  0  0  0  0  0  0  0  0  0  0  0
  -22.4268  -13.9081   19.4966 C   0  0  0  0  0  0  0  0  0  0  0  0
  -20.5372  -15.1721   20.6058 C   0  0  0  0  0  0  0  0  0  0  0  0
  -22.7518  -15.1320   21.6864 C   0  0  0  0  0  0  0  0  0  0  0  0
  -19.7422  -21.2543   24.2015 C   0  0  0  0  0  0  0  0  0  0  0  0
  -29.1293  -27.3516   20.3764 C   0  0  1  0  0  0  0  0  0  0  0  0
  -25.3419  -27.0742   20.2650 C   0  0  1  0  0  0  0  0  0  0  0  0
  -23.1860  -13.9252   20.8370 C   0  0  2  0  0  0  0  0  0  0  0  0
  -18.4009  -29.1817   22.9821 C   0  0  0  0  0  0  0  0  0  0  0  0
  -24.9113  -29.5498   24.1440 C   0  0  0  0  0  0  0  0  0  0  0  0
  -22.5657  -29.8941   24.9489 C   0  0  0  0  0  0  0  0  0  0  0  0
  -23.3949  -31.1450   22.9564 C   0  0  0  0  0  0  0  0  0  0  0  0
  -19.1105  -26.4269   20.4556 C   0  0  0  0  0  0  0  0  0  0  0  0
  -21.2525  -16.2077   26.4045 C   0  0  0  0  0  0  0  0  0  0  0  0
  -20.8163  -15.0109   25.5515 C   0  0  0  0  0  0  0  0  0  0  0  0
  -24.2518  -20.0531   22.4070 C   0  0  0  0  0  0  0  0  0  1  0  0
  -23.4128  -19.2312   23.3662 C   0  0  0  0  0  0  0  0  0  0  0  0
  -22.9196  -28.6699   22.7564 C   0  0  1  0  0  0  0  0  0  0  0  0
  -19.2235  -28.4237   21.9519 C   0  0  2  0  0  0  0  0  0  0  0  0
  -23.4566  -29.7890   23.6927 C   0  0  0  0  0  0  0  0  0  0  0  0
  -25.3667  -15.0431   20.5585 N   0  0  0  0  0  0  0  0  0  0  0  0
  -21.7012  -18.1240   24.9948 N   0  0  0  0  0  0  0  0  0  0  0  0
  -24.6888  -13.8849   20.6297 N   0  0  0  0  0  0  0  0  0  0  0  0
  -24.3536  -27.2417   21.3324 N   0  0  0  0  0  0  0  0  0  0  0  0
  -21.2909  -15.1286   21.8611 N   0  0  0  0  0  0  0  0  0  0  0  0
  -24.9547  -11.5325   20.5491 N   0  0  0  0  0  0  0  0  0  0  0  0
  -29.1631  -13.0763   19.9996 N   0  0  0  0  0  0  0  0  0  0  0  0
  -27.7434  -27.1969   19.9894 N   0  0  0  0  0  0  0  0  0  0  0  0
  -21.5535  -28.8841   22.2916 N   0  0  0  0  0  0  0  0  0  0  0  0
  -21.3858  -15.0519   24.2231 N   0  0  0  0  0  0  0  0  0  0  0  0
  -18.4306  -27.2498   21.4888 N   0  3  0  0  0  0  0  0  0  0  0  0
  -27.8759  -11.1825   20.1240 O   0  0  0  0  0  0  0  0  0  0  0  0
  -26.7844  -27.4492   22.0963 O   0  0  0  0  0  0  0  0  0  0  0  0
  -23.8943  -29.4493   20.7392 O   0  0  0  0  0  0  0  0  0  0  0  0
  -20.6839  -26.9085   23.1389 O   0  0  0  0  0  0  0  0  0  0  0  0
  -19.3616  -15.1079   23.1477 O   0  0  0  0  0  0  0  0  0  0  0  0
  -30.7213  -18.4237   19.8890 O   0  0  0  0  0  0  0  0  0  0  0  0
  -24.5550  -21.3094   23.0119 O   0  0  0  0  0  0  0  0  0  1  0  0
  -22.1977  -19.9221   23.6298 O   0  0  0  0  0  0  0  0  0  0  0  0
  -30.7622  -22.6299   23.4542 F   0  0  0  0  0  0  0  0  0  0  0  0
  -28.5885  -20.1762   20.0396 F   0  0  0  0  0  0  0  0  0  0  0  0
  1  2  1  0  0  0  0
  1  5  2  0  0  0  0
  2  6  2  0  0  0  0
  3  9  2  0  0  0  0
  3 17  1  0  0  0  0
  4 10  1  0  0  0  0
  4 17  2  0  0  0  0
  5 19  1  0  0  0  0
  6 21  1  0  0  0  0
  7 11  2  0  0  0  0
  7 20  1  0  0  0  0
  8 14  2  0  0  0  0
  8 22  1  0  0  0  0
  9 24  1  0  0  0  0
 10 24  2  0  0  0  0
 11 25  1  0  0  0  0
 12 13  2  0  0  0  0
 12 26  1  0  0  0  0
 13 27  1  0  0  0  0
 14 30  1  0  0  0  0
 15 23  1  0  0  0  0
 15 25  2  0  0  0  0
 16 27  2  0  0  0  0
 16 28  1  0  0  0  0
 17 29  1  0  0  0  0
 18 29  1  0  0  0  0
 18 32  2  0  0  0  0
 18 33  1  0  0  0  0
 19 21  2  0  0  0  0
 19 38  1  0  0  0  0
 20 23  2  0  0  0  0
 20 39  1  0  0  0  0
 21 50  1  0  0  0  0
 22 31  2  0  0  0  0
 22 49  1  0  0  0  0
 23 40  1  0  0  0  0
 24 81  1  0  0  0  0
 25 82  1  0  0  0  0
 26 28  2  0  0  0  0
 26 81  1  0  0  0  0
 27 84  1  0  0  0  0
 28 85  1  0  0  0  0
 29 65  2  0  0  0  0
 30 58  1  0  0  0  0
 30 66  2  0  0  0  0
 31 66  1  0  0  0  0
 31 83  1  0  0  0  0
 32 67  1  0  0  0  0
 32 70  1  0  0  0  0
 33 71  1  0  0  0  0
 33 76  2  0  0  0  0
 34 51  1  0  0  0  0
 34 72  1  0  0  0  0
 34 77  2  0  0  0  0
 35 62  1  0  0  0  0
 35 68  1  0  0  0  0
 35 78  2  0  0  0  0
 36 63  1  0  0  0  0
 36 73  1  0  0  0  0
 36 79  2  0  0  0  0
 37 69  1  0  0  0  0
 37 74  1  0  0  0  0
 37 80  2  0  0  0  0
 38 41  1  0  0  0  0
 39 51  1  0  0  0  0
 40 68  1  0  0  0  0
 41 45  1  0  0  0  0
 42 46  1  0  0  0  0
 42 47  1  0  0  0  0
 43 44  1  0  0  0  0
 43 49  1  0  0  0  0
 44 49  1  0  0  0  0
 45 50  1  0  0  0  0
 46 52  1  0  0  0  0
 47 69  1  0  0  0  0
 48 52  1  0  0  0  0
 48 69  1  0  0  0  0
 50 72  1  0  0  0  0
 51 68  1  0  0  0  0
 52 67  1  0  0  0  0
 53 63  1  0  0  0  0
 54 64  1  0  0  0  0
 55 64  1  0  0  0  0
 56 64  1  0  0  0  0
 57 75  1  0  0  0  0
 58 59  1  0  0  0  0
 59 74  1  0  0  0  0
 60 61  1  0  0  0  0
 60 82  1  0  0  0  0
 61 83  1  0  0  0  0
 62 64  1  0  0  0  0
 62 73  1  0  0  0  0
 63 75  1  0  0  0  0
 65 67  1  0  0  0  0
M  CHG  1  75   1
M  ISO  4  37 100  60 101  74 100  82 101
M  END
> <Batch ID>
0146

> <Smiles>
CNC(C)C(=O)NC(C(=O)N1Cc2cc([101O:1][101CH2:1]COc3nc(CC[100NH:0][100C:0](=O)N4CCCC(n5nc(-c6ccc(Oc7ccc(F)cc7F)cc6)c(C(N)=O)c5N)C4)ccc3C3CC3)ccc2CC1C(=O)NC1CCCc2ccccc21)C(C)(C)C

> <Shape>
0.237

> <Color>
0.052

> <Negative vol penalty>
0.000

$$$$

  -OEChem-04052321313D

 85 94  0     1  0  0  0  0  0999 V2000
  -37.3071  -22.2997   12.5686 C   0  0  0  0  0  0  0  0  0  0  0  0
  -36.0742  -21.8450   13.0256 C   0  0  0  0  0  0  0  0  0  0  0  0
  -22.9954   -9.9298   19.9560 C   0  0  0  0  0  0  0  0  0  0  0  0
  -23.7456   -9.9095   22.2525 C   0  0  0  0  0  0  0  0  0  0  0  0
  -37.9325  -23.3717   13.2038 C   0  0  0  0  0  0  0  0  0  0  0  0
  -35.4666  -22.4614   14.1189 C   0  0  0  0  0  0  0  0  0  0  0  0
  -29.4657  -23.3054   15.0034 C   0  0  0  0  0  0  0  0  0  0  0  0
  -22.2267   -8.7911   20.1970 C   0  0  0  0  0  0  0  0  0  0  0  0
  -22.9768   -8.7709   22.4935 C   0  0  0  0  0  0  0  0  0  0  0  0
  -28.5198  -22.6038   15.7495 C   0  0  0  0  0  0  0  0  0  0  0  0
  -21.4946   -5.6497   23.6211 C   0  0  0  0  0  0  0  0  0  0  0  0
  -22.0841   -4.6096   24.3395 C   0  0  0  0  0  0  0  0  0  0  0  0
  -28.8217  -24.1507   17.5757 C   0  0  0  0  0  0  0  0  0  0  0  0
  -23.7912   -4.4049   22.6422 C   0  0  0  0  0  0  0  0  0  0  0  0
  -29.4965  -20.0414   19.3600 C   0  0  0  0  0  0  0  0  0  0  0  0
  -23.7549  -10.4890   20.9837 C   0  0  0  0  0  0  0  0  0  0  0  0
  -24.1496  -13.0071   20.8779 C   0  0  0  0  0  0  0  0  0  0  0  0
  -37.3277  -24.0078   14.2994 C   0  0  0  0  0  0  0  0  0  0  0  0
  -30.1058  -24.4304   15.5429 C   0  0  0  0  0  0  0  0  0  0  0  0
  -36.0852  -23.5421   14.7702 C   0  0  0  0  0  0  0  0  0  0  0  0
  -29.7735  -24.8664   16.8335 C   0  0  0  0  0  0  0  0  0  0  0  0
  -27.3320  -19.5543   20.1368 C   0  0  0  0  0  0  0  0  0  0  0  0
  -26.8442  -20.5795   19.3316 C   0  0  0  0  0  0  0  0  0  0  0  0
  -28.6816  -19.2655   20.1715 C   0  0  0  0  0  0  0  0  0  0  0  0
  -22.2174   -8.2117   21.4658 C   0  0  0  0  0  0  0  0  0  0  0  0
  -28.1997  -23.0247   17.0370 C   0  0  0  0  0  0  0  0  0  0  0  0
  -22.0533   -6.0674   22.4131 C   0  0  0  0  0  0  0  0  0  0  0  0
  -23.2324   -3.9872   23.8501 C   0  0  0  0  0  0  0  0  0  0  0  0
  -23.2016   -5.4450   21.9237 C   0  0  0  0  0  0  0  0  0  0  0  0
  -24.5496  -11.6649   20.7352 C   0  0  0  0  0  0  0  0  0  0  0  0
  -27.7286  -21.3046   18.5673 C   0  0  0  0  0  0  0  0  0  1  0  0
  -25.2586  -13.7355   20.5229 C   0  0  0  0  0  0  0  0  0  0  0  0
  -22.8883  -13.5471   21.2941 C   0  0  0  0  0  0  0  0  0  0  0  0
  -33.1157  -25.1819   16.2351 C   0  0  0  0  0  0  0  0  0  0  0  0
  -31.8313  -28.0900   16.8801 C   0  0  0  0  0  0  0  0  0  0  0  0
  -29.0803  -29.9147   17.7456 C   0  0  0  0  0  0  0  0  0  0  0  0
  -30.7615  -14.6394   20.7391 C   0  0  0  0  0  0  0  0  0  0  0  0
  -38.0642  -25.1323   14.9832 C   0  0  0  0  0  0  0  0  0  0  0  0
  -31.1044  -25.1921   14.7151 C   0  0  0  0  0  0  0  0  0  0  0  0
  -26.2297  -18.9152   20.9215 C   0  0  0  0  0  0  0  0  0  0  0  0
  -25.3690  -20.7461   19.4821 C   0  0  0  0  0  0  0  0  0  0  0  0
  -30.4172  -26.0800   17.4509 C   0  0  0  0  0  0  0  0  0  0  0  0
  -37.1786  -25.9712   15.9010 C   0  0  0  0  0  0  0  0  0  0  0  0
  -29.5847  -12.2910   18.3356 C   0  0  0  0  0  0  0  0  0  0  0  0
  -36.3202  -25.0707   16.7836 C   0  0  0  0  0  0  0  0  0  0  0  0
  -28.1397  -12.0250   18.7611 C   0  0  0  0  0  0  0  0  0  0  0  0
  -30.5011  -12.4867   19.5413 C   0  0  0  0  0  0  0  0  0  0  0  0
  -28.6091  -13.2502   20.9238 C   0  0  0  0  0  0  0  0  0  0  0  0
  -35.3827  -24.2006   15.9377 C   0  0  1  0  0  0  0  0  0  0  0  0
  -32.0699  -26.0208   15.5568 C   0  0  1  0  0  0  0  0  0  0  0  0
  -27.6365  -13.1018   19.7412 C   0  0  2  0  0  0  0  0  0  0  0  0
  -24.9597  -19.4116   20.1705 C   0  0  0  0  0  0  0  0  0  0  0  0
  -23.8002  -19.6343   21.1472 C   0  0  0  0  0  0  0  0  0  0  0  0
  -24.5288  -18.3766   19.1120 C   0  0  0  0  0  0  0  0  0  0  0  0
  -28.3493  -32.2649   18.2347 C   0  0  0  0  0  0  0  0  0  0  0  0
  -33.1622  -27.9308   19.6211 C   0  0  0  0  0  0  0  0  0  0  0  0
  -31.6587  -29.7828   20.3814 C   0  0  0  0  0  0  0  0  0  0  0  0
  -33.2843  -30.1783   18.5311 C   0  0  0  0  0  0  0  0  0  0  0  0
  -27.1511  -29.9052   15.5012 C   0  0  0  0  0  0  0  0  0  0  0  0
  -30.6108  -17.9373   21.0314 C   0  0  0  0  0  0  0  0  0  0  0  0
  -30.8667  -16.7819   21.9871 C   0  0  0  0  0  0  0  0  0  0  0  0
  -31.2419  -28.7510   18.1026 C   0  0  1  0  0  0  0  0  0  0  0  0
  -28.4955  -31.1910   17.1680 C   0  0  2  0  0  0  0  0  0  0  0  0
  -32.3259  -29.1367   19.1485 C   0  0  0  0  0  0  0  0  0  0  0  0
  -29.0573  -21.0504   18.5603 N   0  0  0  0  0  0  0  0  0  0  0  0
  -25.8140  -11.5449   20.3216 N   0  0  0  0  0  0  0  0  0  0  0  0
  -26.2180  -12.8210   20.2014 N   0  0  0  0  0  0  0  0  0  0  0  0
  -31.3920  -26.7874   16.6041 N   0  0  0  0  0  0  0  0  0  0  0  0
  -29.9683  -13.5220   20.4302 N   0  0  0  0  0  0  0  0  0  0  0  0
  -25.4969  -15.0626   20.4575 N   0  0  0  0  0  0  0  0  0  0  0  0
  -21.8563  -12.6574   21.6226 N   0  0  0  0  0  0  0  0  0  0  0  0
  -29.2110  -18.2507   20.9788 N   0  0  0  0  0  0  0  0  0  0  0  0
  -34.2521  -24.9771   15.4760 N   0  0  0  0  0  0  0  0  0  0  0  0
  -30.4526  -29.8777   17.6169 N   0  0  0  0  0  0  0  0  0  0  0  0
  -30.1782  -15.5763   21.5833 N   0  0  0  0  0  0  0  0  0  0  0  0
  -27.1517  -30.9257   16.5809 N   0  3  0  0  0  0  0  0  0  0  0  0
  -22.6774  -14.7820   21.3567 O   0  0  0  0  0  0  0  0  0  0  0  0
  -32.9078  -24.7536   17.3642 O   0  0  0  0  0  0  0  0  0  0  0  0
  -32.6459  -28.7092   16.1912 O   0  0  0  0  0  0  0  0  0  0  0  0
  -28.3891  -29.0398   18.2627 O   0  0  0  0  0  0  0  0  0  0  0  0
  -31.9027  -14.7935   20.2910 O   0  0  0  0  0  0  0  0  0  0  0  0
  -21.4672   -7.1007   21.7014 O   0  0  0  0  0  0  0  0  0  0  0  0
  -27.2772  -22.3413   17.7676 O   0  0  0  0  0  0  0  0  0  1  0  0
  -23.7994   -2.9894   24.5409 F   0  0  0  0  0  0  0  0  0  0  0  0
  -23.7436   -5.8426   20.7644 F   0  0  0  0  0  0  0  0  0  0  0  0
  1  2  1  0  0  0  0
  1  5  2  0  0  0  0
  2  6  2  0  0  0  0
  3  8  2  0  0  0  0
  3 16  1  0  0  0  0
  4  9  1  0  0  0  0
  4 16  2  0  0  0  0
  5 18  1  0  0  0  0
  6 20  1  0  0  0  0
  7 10  2  0  0  0  0
  7 19  1  0  0  0  0
  8 25  1  0  0  0  0
  9 25  2  0  0  0  0
 10 26  1  0  0  0  0
 11 12  2  0  0  0  0
 11 27  1  0  0  0  0
 12 28  1  0  0  0  0
 13 21  1  0  0  0  0
 13 26  2  0  0  0  0
 14 28  2  0  0  0  0
 14 29  1  0  0  0  0
 15 24  1  0  0  0  0
 15 65  2  0  0  0  0
 16 30  1  0  0  0  0
 17 30  1  0  0  0  0
 17 32  2  0  0  0  0
 17 33  1  0  0  0  0
 18 20  2  0  0  0  0
 18 38  1  0  0  0  0
 19 21  2  0  0  0  0
 19 39  1  0  0  0  0
 20 49  1  0  0  0  0
 21 42  1  0  0  0  0
 22 23  1  0  0  0  0
 22 24  2  0  0  0  0
 22 40  1  0  0  0  0
 23 31  2  0  0  0  0
 23 41  1  0  0  0  0
 24 72  1  0  0  0  0
 25 82  1  0  0  0  0
 26 83  1  0  0  0  0
 27 29  2  0  0  0  0
 27 82  1  0  0  0  0
 28 84  1  0  0  0  0
 29 85  1  0  0  0  0
 30 66  2  0  0  0  0
 31 65  1  0  0  0  0
 31 83  1  0  0  0  0
 32 67  1  0  0  0  0
 32 70  1  0  0  0  0
 33 71  1  0  0  0  0
 33 77  2  0  0  0  0
 34 50  1  0  0  0  0
 34 73  1  0  0  0  0
 34 78  2  0  0  0  0
 35 62  1  0  0  0  0
 35 68  1  0  0  0  0
 35 79  2  0  0  0  0
 36 63  1  0  0  0  0
 36 74  1  0  0  0  0
 36 80  2  0  0  0  0
 37 69  1  0  0  0  0
 37 75  1  0  0  0  0
 37 81  2  0  0  0  0
 38 43  1  0  0  0  0
 39 50  1  0  0  0  0
 40 52  1  0  0  0  0
 41 52  1  0  0  0  0
 42 68  1  0  0  0  0
 43 45  1  0  0  0  0
 44 46  1  0  0  0  0
 44 47  1  0  0  0  0
 45 49  1  0  0  0  0
 46 51  1  0  0  0  0
 47 69  1  0  0  0  0
 48 51  1  0  0  0  0
 48 69  1  0  0  0  0
 49 73  1  0  0  0  0
 50 68  1  0  0  0  0
 51 67  1  0  0  0  0
 52 53  1  0  0  0  0
 52 54  1  0  0  0  0
 55 63  1  0  0  0  0
 56 64  1  0  0  0  0
 57 64  1  0  0  0  0
 58 64  1  0  0  0  0
 59 76  1  0  0  0  0
 60 61  1  0  0  0  0
 60 72  1  0  0  0  0
 61 75  1  0  0  0  0
 62 64  1  0  0  0  0
 62 74  1  0  0  0  0
 63 76  1  0  0  0  0
 66 67  1  0  0  0  0
M  CHG  1  76   1
M  ISO  4  31 101  37 100  75 100  83 101
M  END
> <Batch ID>
0146

> <Smiles>
CNC(C)C(=O)NC(C(=O)N1Cc2cc([101O:1][101c:1]3ncc(NCC[100NH:0][100C:0](=O)N4CCCC(n5nc(-c6ccc(Oc7ccc(F)cc7F)cc6)c(C(N)=O)c5N)C4)c4c3CC(C)(C)C4)ccc2CC1C(=O)NC1CCCc2ccccc21)C(C)(C)C

> <Shape>
0.226

> <Color>
0.191

> <Negative vol penalty>
0.000

$$$$

  -OEChem-04052321313D

 89 98  0     1  0  0  0  0  0999 V2000
  -32.7373  -35.6271   17.6010 C   0  0  0  0  0  0  0  0  0  0  0  0
  -32.5115  -34.2613   17.4626 C   0  0  0  0  0  0  0  0  0  0  0  0
  -29.6398  -17.0657   18.7456 C   0  0  0  0  0  0  0  0  0  0  0  0
  -22.8582  -10.1697   22.2727 C   0  0  0  0  0  0  0  0  0  0  0  0
  -23.1330   -9.8210   19.8979 C   0  0  0  0  0  0  0  0  0  0  0  0
  -32.4154  -36.2681   18.7966 C   0  0  0  0  0  0  0  0  0  0  0  0
  -31.9645  -33.5355   18.5202 C   0  0  0  0  0  0  0  0  0  0  0  0
  -28.1283  -28.7781   18.1253 C   0  0  0  0  0  0  0  0  0  0  0  0
  -28.7906  -17.9302   18.0549 C   0  0  0  0  0  0  0  0  0  0  0  0
  -22.2590   -8.9153   22.3876 C   0  0  0  0  0  0  0  0  0  0  0  0
  -22.5339   -8.5666   20.0127 C   0  0  0  0  0  0  0  0  0  0  0  0
  -28.3325  -27.4005   18.1912 C   0  0  0  0  0  0  0  0  0  0  0  0
  -23.2487   -5.6849   22.5206 C   0  0  0  0  0  0  0  0  0  0  0  0
  -29.5155  -16.9224   20.1275 C   0  0  0  0  0  0  0  0  0  0  0  0
  -23.6548   -4.8666   23.5746 C   0  0  0  0  0  0  0  0  0  0  0  0
  -27.7605  -27.4341   20.5345 C   0  0  0  0  0  0  0  0  0  0  0  0
  -27.6929  -18.5083   20.1280 C   0  0  0  0  0  0  0  0  0  0  0  0
  -21.3921   -4.8339   24.4210 C   0  0  0  0  0  0  0  0  0  0  0  0
  -23.2951  -10.6226   21.0279 C   0  0  0  0  0  0  0  0  0  0  0  0
  -25.2839  -12.2202   21.0226 C   0  0  0  0  0  0  0  0  0  0  0  0
  -31.8553  -35.5516   19.8660 C   0  0  0  0  0  0  0  0  0  0  0  0
  -27.7486  -29.4969   19.2679 C   0  0  0  0  0  0  0  0  0  0  0  0
  -31.6361  -34.1673   19.7317 C   0  0  0  0  0  0  0  0  0  0  0  0
  -27.5496  -28.8203   20.4798 C   0  0  0  0  0  0  0  0  0  0  0  0
  -27.8172  -18.6516   18.7461 C   0  0  0  0  0  0  0  0  0  0  0  0
  -22.0969   -8.1138   21.2576 C   0  0  0  0  0  0  0  0  0  0  0  0
  -28.1514  -26.7287   19.3966 C   0  0  0  0  0  0  0  0  0  0  0  0
  -21.9143   -6.0778   22.4168 C   0  0  0  0  0  0  0  0  0  0  0  0
  -28.5420  -17.6437   20.8187 C   0  0  0  0  0  0  0  0  0  0  0  0
  -22.7265   -4.4411   24.5248 C   0  0  0  0  0  0  0  0  0  0  0  0
  -20.9860   -5.6523   23.3670 C   0  0  0  0  0  0  0  0  0  0  0  0
  -23.9136  -11.9185   20.9085 C   0  0  0  0  0  0  0  0  0  0  0  0
  -25.3536  -13.5784   20.8304 C   0  0  0  0  0  0  0  0  0  0  0  0
  -26.3945  -11.3505   21.2792 C   0  0  0  0  0  0  0  0  0  0  0  0
  -29.0441  -31.8453   20.9739 C   0  0  0  0  0  0  0  0  0  0  0  0
  -26.2045  -31.7492   22.5391 C   0  0  0  0  0  0  0  0  0  0  0  0
  -23.4381  -29.9526   23.4142 C   0  0  0  0  0  0  0  0  0  0  0  0
  -23.8735  -18.1816   18.0438 C   0  0  0  0  0  0  0  0  0  0  0  0
  -31.5676  -36.2789   21.1555 C   0  0  0  0  0  0  0  0  0  0  0  0
  -27.5064  -30.9784   19.1739 C   0  0  0  0  0  0  0  0  0  0  0  0
  -27.1227  -29.5427   21.7305 C   0  0  0  0  0  0  0  0  0  0  0  0
  -30.6440  -35.5090   22.0960 C   0  0  0  0  0  0  0  0  0  0  0  0
  -21.6964  -17.0672   20.6313 C   0  0  0  0  0  0  0  0  0  0  0  0
  -31.0885  -34.0542   22.2082 C   0  0  0  0  0  0  0  0  0  0  0  0
  -22.1882  -15.6517   20.9388 C   0  0  0  0  0  0  0  0  0  0  0  0
  -27.6197  -23.8021   21.1089 C   0  0  0  0  0  0  0  0  0  0  0  0
  -21.7992  -17.3894   19.1422 C   0  0  0  0  0  0  0  0  0  0  0  0
  -23.6258  -15.7591   18.8602 C   0  0  0  0  0  0  0  0  0  0  0  0
  -28.4370  -22.6517   20.5585 C   0  0  0  0  0  0  0  0  0  0  0  0
  -31.0214  -33.3503   20.8474 C   0  0  1  0  0  0  0  0  0  0  0  0
  -27.6206  -31.6891   20.5190 C   0  0  1  0  0  0  0  0  0  0  0  0
  -23.5939  -15.4079   20.3575 C   0  0  2  0  0  0  0  0  0  0  0  0
  -27.2391  -24.5820   19.8603 C   0  0  2  0  0  0  0  0  0  1  0  0
  -26.9633  -23.5185   18.7947 C   0  0  2  0  0  0  0  0  0  0  0  0
  -25.4835  -23.1838   18.6616 C   0  0  0  0  0  0  0  0  0  0  0  0
  -21.3090  -30.1303   24.7306 C   0  0  0  0  0  0  0  0  0  0  0  0
  -27.7860  -31.4561   25.1319 C   0  0  0  0  0  0  0  0  0  0  0  0
  -25.6786  -30.6963   26.2498 C   0  0  0  0  0  0  0  0  0  0  0  0
  -25.8164  -32.9901   25.2791 C   0  0  0  0  0  0  0  0  0  0  0  0
  -21.7766  -29.4773   21.0116 C   0  0  0  0  0  0  0  0  0  0  0  0
  -26.0177  -18.8292   16.9750 C   0  0  0  0  0  0  0  0  0  0  0  0
  -28.5481  -21.5996   18.2751 C   0  0  0  0  0  0  0  0  0  0  0  0
  -26.8865  -19.5993   17.9874 C   0  0  2  0  0  0  0  0  0  0  0  0
  -25.6661  -30.9964   23.7317 C   0  0  1  0  0  0  0  0  0  0  0  0
  -21.9593  -30.2924   23.3655 C   0  0  2  0  0  0  0  0  0  0  0  0
  -27.7026  -20.7435   17.3285 C   0  0  2  0  0  0  0  0  0  0  0  0
  -26.2467  -31.5211   25.0752 C   0  0  0  0  0  0  0  0  0  0  0  0
  -23.1666  -12.9982   20.6630 N   0  0  0  0  0  0  0  0  0  0  0  0
  -24.0707  -13.9916   20.6214 N   0  0  0  0  0  0  0  0  0  0  0  0
  -26.9045  -30.9918   21.5892 N   0  0  0  0  0  0  0  0  0  0  0  0
  -23.1573  -17.1384   18.6537 N   0  0  0  0  0  0  0  0  0  0  0  0
  -26.3865  -14.4476   20.8216 N   0  0  0  0  0  0  0  0  0  0  0  0
  -26.1456   -9.9821   21.4521 N   0  0  0  0  0  0  0  0  0  0  0  0
  -29.6542  -33.0014   20.5258 N   0  0  0  0  0  0  0  0  0  0  0  0
  -24.2120  -31.0713   23.6393 N   0  0  0  0  0  0  0  0  0  0  0  0
  -25.1557  -17.8607   17.6151 N   0  0  0  0  0  0  0  0  0  0  0  0
  -27.6906  -22.2689   19.3021 N   0  3  1  0  0  0  0  0  0  0  0  0
  -21.2547  -29.4019   22.4004 N   0  3  0  0  0  0  0  0  0  0  0  0
  -27.5709  -11.7766   21.3694 O   0  0  0  0  0  0  0  0  0  0  0  0
  -29.5509  -30.9818   21.6803 O   0  0  0  0  0  0  0  0  0  0  0  0
  -26.0050  -32.9632   22.4499 O   0  0  0  0  0  0  0  0  0  0  0  0
  -23.8637  -28.8086   23.2709 O   0  0  0  0  0  0  0  0  0  0  0  0
  -23.4069  -19.3164   17.8973 O   0  0  0  0  0  0  0  0  0  0  0  0
  -28.5777  -20.1684   16.3500 O   0  0  0  0  0  0  0  0  0  0  0  0
  -21.5125   -6.8896   21.3693 O   0  0  0  0  0  0  0  0  0  0  0  0
  -28.3506  -25.3843   19.4640 O   0  0  0  0  0  0  0  0  0  1  0  0
  -28.4227  -17.5066   22.1458 F   0  0  0  0  0  0  0  0  0  0  0  0
  -23.1163   -3.6540   25.5361 F   0  0  0  0  0  0  0  0  0  0  0  0
  -19.7025   -6.0256   23.2719 F   0  0  0  0  0  0  0  0  0  0  0  0
  1  2  1  0  0  0  0
  1  6  2  0  0  0  0
  2  7  2  0  0  0  0
  3  9  2  0  0  0  0
  3 14  1  0  0  0  0
  4 10  2  0  0  0  0
  4 19  1  0  0  0  0
  5 11  1  0  0  0  0
  5 19  2  0  0  0  0
  6 21  1  0  0  0  0
  7 23  1  0  0  0  0
  8 12  2  0  0  0  0
  8 22  1  0  0  0  0
  9 25  1  0  0  0  0
 10 26  1  0  0  0  0
 11 26  2  0  0  0  0
 12 27  1  0  0  0  0
 13 15  2  0  0  0  0
 13 28  1  0  0  0  0
 14 29  2  0  0  0  0
 15 30  1  0  0  0  0
 16 24  1  0  0  0  0
 16 27  2  0  0  0  0
 17 25  2  0  0  0  0
 17 29  1  0  0  0  0
 18 30  2  0  0  0  0
 18 31  1  0  0  0  0
 19 32  1  0  0  0  0
 20 32  1  0  0  0  0
 20 33  2  0  0  0  0
 20 34  1  0  0  0  0
 21 23  2  0  0  0  0
 21 39  1  0  0  0  0
 22 24  2  0  0  0  0
 22 40  1  0  0  0  0
 23 50  1  0  0  0  0
 24 41  1  0  0  0  0
 25 63  1  0  0  0  0
 26 85  1  0  0  0  0
 27 86  1  0  0  0  0
 28 31  2  0  0  0  0
 28 85  1  0  0  0  0
 29 87  1  0  0  0  0
 30 88  1  0  0  0  0
 31 89  1  0  0  0  0
 32 68  2  0  0  0  0
 33 69  1  0  0  0  0
 33 72  1  0  0  0  0
 34 73  1  0  0  0  0
 34 79  2  0  0  0  0
 35 51  1  0  0  0  0
 35 74  1  0  0  0  0
 35 80  2  0  0  0  0
 36 64  1  0  0  0  0
 36 70  1  0  0  0  0
 36 81  2  0  0  0  0
 37 65  1  0  0  0  0
 37 75  1  0  0  0  0
 37 82  2  0  0  0  0
 38 71  1  0  0  0  0
 38 76  1  0  0  0  0
 38 83  2  0  0  0  0
 39 42  1  0  0  0  0
 40 51  1  0  0  0  0
 41 70  1  0  0  0  0
 42 44  1  0  0  0  0
 43 45  1  0  0  0  0
 43 47  1  0  0  0  0
 44 50  1  0  0  0  0
 45 52  1  0  0  0  0
 46 49  1  0  0  0  0
 46 53  1  0  0  0  0
 47 71  1  0  0  0  0
 48 52  1  0  0  0  0
 48 71  1  0  0  0  0
 49 77  1  0  0  0  0
 50 74  1  0  0  0  0
 51 70  1  0  0  0  0
 52 69  1  0  0  0  0
 53 54  1  0  0  0  0
 53 86  1  0  0  0  0
 54 55  1  0  0  0  0
 54 77  1  0  0  0  0
 56 65  1  0  0  0  0
 57 67  1  0  0  0  0
 58 67  1  0  0  0  0
 59 67  1  0  0  0  0
 60 78  1  0  0  0  0
 61 63  1  0  0  0  0
 61 76  1  0  0  0  0
 62 66  1  0  0  0  0
 62 77  1  0  0  0  0
 63 66  1  0  0  0  0
 64 67  1  0  0  0  0
 64 75  1  0  0  0  0
 65 78  1  0  0  0  0
 66 84  1  0  0  0  0
 68 69  1  0  0  0  0
M  CHG  2  77   1  78   1
M  ISO  4  38 100  53 101  76 100  86 101
M  END
> <Batch ID>
0146

> <Smiles>
CNC(C)C(=O)NC(C(=O)N1Cc2cc([101O:1][101CH:1]3CCN(CC(O)C(C[100NH:0][100C:0](=O)N4CCCC(n5nc(-c6ccc(Oc7ccc(F)cc7F)cc6)c(C(N)=O)c5N)C4)c4cccc(F)c4)C3C)ccc2CC1C(=O)NC1CCCc2ccccc21)C(C)(C)C

> <Shape>
0.262

> <Color>
0.114

> <Negative vol penalty>
0.000

$$$$

  -OEChem-04052321313D

 89 99  0     1  0  0  0  0  0999 V2000
  -20.8114  -35.3111   21.9072 C   0  0  0  0  0  0  0  0  0  0  0  0
  -22.0497  -34.7229   21.6704 C   0  0  0  0  0  0  0  0  0  0  0  0
  -26.4568  -12.4760   21.4349 C   0  0  0  0  0  0  0  0  0  0  0  0
  -25.5736  -13.5460   19.4570 C   0  0  0  0  0  0  0  0  0  0  0  0
  -19.8337  -34.6137   22.6154 C   0  0  0  0  0  0  0  0  0  0  0  0
  -22.3113  -33.4372   22.1426 C   0  0  0  0  0  0  0  0  0  0  0  0
  -25.7488  -29.1505   19.4382 C   0  0  0  0  0  0  0  0  0  0  0  0
  -25.2495  -11.7991   21.6078 C   0  0  0  0  0  0  0  0  0  0  0  0
  -24.3663  -12.8691   19.6299 C   0  0  0  0  0  0  0  0  0  0  0  0
  -27.0686  -28.7457   19.6333 C   0  0  0  0  0  0  0  0  0  0  0  0
  -22.5251   -9.5147   22.3657 C   0  0  0  0  0  0  0  0  0  0  0  0
  -22.5820   -8.1553   22.6729 C   0  0  0  0  0  0  0  0  0  0  0  0
  -26.3037  -26.9663   21.0714 C   0  0  0  0  0  0  0  0  0  0  0  0
  -27.8274  -21.2132   17.3946 C   0  0  0  0  0  0  0  0  0  0  0  0
  -28.1781  -23.5040   16.7515 C   0  0  0  0  0  0  0  0  0  0  0  0
  -23.7544   -7.7365   20.6023 C   0  0  0  0  0  0  0  0  0  0  0  0
  -26.6188  -13.3495   20.3595 C   0  0  0  0  0  0  0  0  0  0  0  0
  -28.9856  -13.6166   19.4461 C   0  0  0  0  0  0  0  0  0  0  0  0
  -20.0801  -33.3150   23.0882 C   0  0  0  0  0  0  0  0  0  0  0  0
  -24.6956  -28.4719   20.0679 C   0  0  0  0  0  0  0  0  0  0  0  0
  -21.3364  -32.7222   22.8589 C   0  0  0  0  0  0  0  0  0  0  0  0
  -24.9713  -27.3629   20.8805 C   0  0  0  0  0  0  0  0  0  0  0  0
  -27.6519  -22.2459   16.4802 C   0  0  0  0  0  0  0  0  0  0  0  0
  -24.2043  -11.9956   20.7053 C   0  0  0  0  0  0  0  0  0  0  0  0
  -27.3464  -27.6552   20.4523 C   0  0  0  0  0  0  0  0  0  0  0  0
  -23.0828   -9.9851   21.1768 C   0  0  0  0  0  0  0  0  0  0  0  0
  -23.1967   -7.2662   21.7912 C   0  0  0  0  0  0  0  0  0  0  0  0
  -23.6975   -9.0960   20.2951 C   0  0  0  0  0  0  0  0  0  0  0  0
  -27.8655  -14.0494   20.1807 C   0  0  0  0  0  0  0  0  0  0  0  0
  -28.5311  -21.4879   18.5561 C   0  0  0  0  0  0  0  0  0  0  0  0
  -28.8659  -23.6763   17.9419 C   0  0  0  0  0  0  0  0  0  0  0  0
  -29.9007  -14.6313   19.5854 C   0  0  0  0  0  0  0  0  0  0  0  0
  -29.1815  -12.4055   18.7040 C   0  0  0  0  0  0  0  0  0  0  0  0
  -22.4613  -29.2680   22.1840 C   0  0  0  0  0  0  0  0  0  0  0  0
  -21.3718  -26.2735   21.5770 C   0  0  0  0  0  0  0  0  0  0  0  0
  -22.0500  -23.1060   20.5028 C   0  0  0  0  0  0  0  0  0  0  0  0
  -29.3744  -20.4774   20.7041 C   0  0  0  0  0  0  0  0  0  0  0  0
  -19.0088  -32.6189   23.8897 C   0  0  0  0  0  0  0  0  0  0  0  0
  -23.2755  -28.9046   19.8259 C   0  0  0  0  0  0  0  0  0  0  0  0
  -23.8751  -26.5880   21.5633 C   0  0  0  0  0  0  0  0  0  0  0  0
  -19.2344  -31.1158   24.0318 C   0  0  0  0  0  0  0  0  0  0  0  0
  -31.2127  -18.1008   22.6146 C   0  0  0  0  0  0  0  0  0  0  0  0
  -20.6820  -30.8273   24.4166 C   0  0  0  0  0  0  0  0  0  0  0  0
  -29.2528  -22.0870   13.9782 C   0  0  0  0  0  0  0  0  0  0  0  0
  -29.0326  -20.6555   14.3809 C   0  0  0  0  0  0  0  0  0  0  0  0
  -26.9283  -24.3165   13.9025 C   0  0  0  0  0  0  0  0  0  0  0  0
  -25.8497  -23.4808   13.2715 C   0  0  0  0  0  0  0  0  0  0  0  0
  -30.6692  -16.7526   22.1360 C   0  0  0  0  0  0  0  0  0  0  0  0
  -30.1171  -19.1636   22.6783 C   0  0  0  0  0  0  0  0  0  0  0  0
  -28.7995  -17.9839   20.9633 C   0  0  0  0  0  0  0  0  0  0  0  0
  -21.6494  -31.3198   23.3336 C   0  0  1  0  0  0  0  0  0  0  0  0
  -22.3188  -28.4576   20.9268 C   0  0  1  0  0  0  0  0  0  0  0  0
  -27.8558  -21.5386   14.0711 C   0  0  0  0  0  0  0  0  0  0  0  0
  -26.1841  -23.3026   14.7265 C   0  0  0  0  0  0  0  0  0  0  0  0
  -29.8788  -16.8983   20.8208 C   0  0  2  0  0  0  0  0  0  0  0  0
  -20.9663  -20.8695   20.1551 C   0  0  0  0  0  0  0  0  0  0  0  0
  -25.7821  -20.9154   15.2930 C   0  0  0  0  0  0  0  0  0  0  0  0
  -21.4526  -25.7693   24.5852 C   0  0  0  0  0  0  0  0  0  0  0  0
  -21.2937  -23.3167   24.1080 C   0  0  0  0  0  0  0  0  0  0  0  0
  -19.4407  -24.8410   23.4255 C   0  0  0  0  0  0  0  0  0  0  0  0
  -22.6135  -23.1550   17.5978 C   0  0  0  0  0  0  0  0  0  0  0  0
  -30.6494  -26.4392   19.6020 C   0  0  0  0  0  0  0  0  0  0  0  0
  -29.5520  -27.4915   19.5778 C   0  0  0  0  0  0  0  0  0  1  0  0
  -30.0910  -25.0315   19.4645 C   0  0  0  0  0  0  0  0  0  0  0  0
  -21.6279  -24.9043   22.1589 C   0  0  1  0  0  0  0  0  0  0  0  0
  -21.3321  -22.2011   19.5179 C   0  0  2  0  0  0  0  0  0  0  0  0
  -26.9021  -22.0058   15.2143 C   0  0  0  0  0  0  0  0  0  0  0  0
  -20.9747  -24.7234   23.5582 C   0  0  0  0  0  0  0  0  0  0  0  0
  -28.0499  -15.2459   20.7450 N   0  0  0  0  0  0  0  0  0  0  0  0
  -29.0567  -22.6972   18.8544 N   0  0  0  0  0  0  0  0  0  0  0  0
  -29.2966  -15.5735   20.3649 N   0  0  0  0  0  0  0  0  0  0  0  0
  -22.5034  -27.0538   21.3005 N   0  0  0  0  0  0  0  0  0  0  0  0
  -29.4142  -19.2485   21.3962 N   0  0  0  0  0  0  0  0  0  0  0  0
  -31.1550  -14.8007   19.1160 N   0  0  0  0  0  0  0  0  0  0  0  0
  -28.1386  -11.4700   18.6645 N   0  0  0  0  0  0  0  0  0  0  0  0
  -28.7062  -20.4289   19.4811 N   0  0  0  0  0  0  0  0  0  0  0  0
  -21.6689  -30.3995   22.2169 N   0  0  0  0  0  0  0  0  0  0  0  0
  -21.1734  -23.9442   21.1588 N   0  0  0  0  0  0  0  0  0  0  0  0
  -22.1974  -21.9338   18.3344 N   0  3  0  0  0  0  0  0  0  0  0  0
  -30.2557  -12.1529   18.1076 O   0  0  0  0  0  0  0  0  0  0  0  0
  -23.2321  -28.8936   23.0601 O   0  0  0  0  0  0  0  0  0  0  0  0
  -20.2108  -26.6346   21.3687 O   0  0  0  0  0  0  0  0  0  0  0  0
  -23.2663  -23.0702   20.6759 O   0  0  0  0  0  0  0  0  0  0  0  0
  -29.9183  -21.4911   21.1497 O   0  0  0  0  0  0  0  0  0  0  0  0
  -23.0261  -11.3351   20.8736 O   0  0  0  0  0  0  0  0  0  0  0  0
  -28.6338  -27.2583   20.6450 O   0  0  0  0  0  0  0  0  0  1  0  0
  -29.3951  -24.9070   18.2316 O   0  0  0  0  0  0  0  0  0  0  0  0
  -23.2526   -5.9610   22.0870 F   0  0  0  0  0  0  0  0  0  0  0  0
  -24.2360   -9.5421   19.1520 F   0  0  0  0  0  0  0  0  0  0  0  0
  1  2  1  0  0  0  0
  1  5  2  0  0  0  0
  2  6  2  0  0  0  0
  3  8  2  0  0  0  0
  3 17  1  0  0  0  0
  4  9  1  0  0  0  0
  4 17  2  0  0  0  0
  5 19  1  0  0  0  0
  6 21  1  0  0  0  0
  7 10  2  0  0  0  0
  7 20  1  0  0  0  0
  8 24  1  0  0  0  0
  9 24  2  0  0  0  0
 10 25  1  0  0  0  0
 11 12  2  0  0  0  0
 11 26  1  0  0  0  0
 12 27  1  0  0  0  0
 13 22  1  0  0  0  0
 13 25  2  0  0  0  0
 14 23  1  0  0  0  0
 14 30  2  0  0  0  0
 15 23  2  0  0  0  0
 15 31  1  0  0  0  0
 16 27  2  0  0  0  0
 16 28  1  0  0  0  0
 17 29  1  0  0  0  0
 18 29  1  0  0  0  0
 18 32  2  0  0  0  0
 18 33  1  0  0  0  0
 19 21  2  0  0  0  0
 19 38  1  0  0  0  0
 20 22  2  0  0  0  0
 20 39  1  0  0  0  0
 21 51  1  0  0  0  0
 22 40  1  0  0  0  0
 23 67  1  0  0  0  0
 24 85  1  0  0  0  0
 25 86  1  0  0  0  0
 26 28  2  0  0  0  0
 26 85  1  0  0  0  0
 27 88  1  0  0  0  0
 28 89  1  0  0  0  0
 29 69  2  0  0  0  0
 30 70  1  0  0  0  0
 30 76  1  0  0  0  0
 31 70  2  0  0  0  0
 31 87  1  0  0  0  0
 32 71  1  0  0  0  0
 32 74  1  0  0  0  0
 33 75  1  0  0  0  0
 33 80  2  0  0  0  0
 34 52  1  0  0  0  0
 34 77  1  0  0  0  0
 34 81  2  0  0  0  0
 35 65  1  0  0  0  0
 35 72  1  0  0  0  0
 35 82  2  0  0  0  0
 36 66  1  0  0  0  0
 36 78  1  0  0  0  0
 36 83  2  0  0  0  0
 37 73  1  0  0  0  0
 37 76  1  0  0  0  0
 37 84  2  0  0  0  0
 38 41  1  0  0  0  0
 39 52  1  0  0  0  0
 40 72  1  0  0  0  0
 41 43  1  0  0  0  0
 42 48  1  0  0  0  0
 42 49  1  0  0  0  0
 43 51  1  0  0  0  0
 44 45  1  0  0  0  0
 44 53  1  0  0  0  0
 45 53  1  0  0  0  0
 46 47  1  0  0  0  0
 46 54  1  0  0  0  0
 47 54  1  0  0  0  0
 48 55  1  0  0  0  0
 49 73  1  0  0  0  0
 50 55  1  0  0  0  0
 50 73  1  0  0  0  0
 51 77  1  0  0  0  0
 52 72  1  0  0  0  0
 53 67  1  0  0  0  0
 54 67  1  0  0  0  0
 55 71  1  0  0  0  0
 56 66  1  0  0  0  0
 57 67  1  0  0  0  0
 58 68  1  0  0  0  0
 59 68  1  0  0  0  0
 60 68  1  0  0  0  0
 61 79  1  0  0  0  0
 62 63  1  0  0  0  0
 62 64  1  0  0  0  0
 63 86  1  0  0  0  0
 64 87  1  0  0  0  0
 65 68  1  0  0  0  0
 65 78  1  0  0  0  0
 66 79  1  0  0  0  0
 69 71  1  0  0  0  0
M  CHG  1  79   1
M  ISO  4  37 100  63 101  76 100  86 101
M  END
> <Batch ID>
0146

> <Smiles>
CNC(C)C(=O)NC(C(=O)N1Cc2cc([101O:1][101CH2:1]CCOc3cc(C(C)(C4CC4)C4CC4)cc([100NH:0][100C:0](=O)N4CCCC(n5nc(-c6ccc(Oc7ccc(F)cc7F)cc6)c(C(N)=O)c5N)C4)n3)ccc2CC1C(=O)NC1CCCc2ccccc21)C(C)(C)C

> <Shape>
0.276

> <Color>
0.108

> <Negative vol penalty>
0.000

$$$$

  -OEChem-04052321313D

 83 92  0     1  0  0  0  0  0999 V2000
  -16.5386  -25.3347   21.7183 C   0  0  0  0  0  0  0  0  0  0  0  0
  -17.3577  -25.2401   20.5978 C   0  0  0  0  0  0  0  0  0  0  0  0
  -23.6055  -15.2693   24.0917 C   0  0  0  0  0  0  0  0  0  0  0  0
  -24.6184  -13.3175   25.0926 C   0  0  0  0  0  0  0  0  0  0  0  0
  -16.8247  -26.2693   22.7126 C   0  0  0  0  0  0  0  0  0  0  0  0
  -18.4628  -26.0809   20.4703 C   0  0  0  0  0  0  0  0  0  0  0  0
  -25.1115  -23.3909   19.8004 C   0  0  0  0  0  0  0  0  0  0  0  0
  -23.0651  -15.6229   25.3280 C   0  0  0  0  0  0  0  0  0  0  0  0
  -24.0781  -13.6712   26.3290 C   0  0  0  0  0  0  0  0  0  0  0  0
  -26.3903  -22.9519   19.4566 C   0  0  0  0  0  0  0  0  0  0  0  0
  -20.4474  -14.7009   27.2572 C   0  0  0  0  0  0  0  0  0  0  0  0
  -19.1127  -15.1049   27.2886 C   0  0  0  0  0  0  0  0  0  0  0  0
  -27.1898  -25.2341   19.4732 C   0  0  0  0  0  0  0  0  0  0  0  0
  -19.7828  -17.2494   28.1771 C   0  0  0  0  0  0  0  0  0  0  0  0
  -24.3821  -14.1165   23.9740 C   0  0  0  0  0  0  0  0  0  0  0  0
  -24.2362  -13.4704   21.5105 C   0  0  0  0  0  0  0  0  0  0  0  0
  -17.9394  -27.1154   22.6018 C   0  0  0  0  0  0  0  0  0  0  0  0
  -24.8703  -24.7534   19.9972 C   0  0  0  0  0  0  0  0  0  0  0  0
  -18.7633  -27.0287   21.4634 C   0  0  0  0  0  0  0  0  0  0  0  0
  -25.9138  -25.6785   19.8299 C   0  0  0  0  0  0  0  0  0  0  0  0
  -23.3014  -14.8239   26.4467 C   0  0  0  0  0  0  0  0  0  0  0  0
  -27.4268  -23.8713   19.2932 C   0  0  0  0  0  0  0  0  0  0  0  0
  -21.4498  -15.5711   27.6858 C   0  0  0  0  0  0  0  0  0  0  0  0
  -18.7804  -16.3792   27.7485 C   0  0  0  0  0  0  0  0  0  0  0  0
  -21.1175  -16.8453   28.1457 C   0  0  0  0  0  0  0  0  0  0  0  0
  -24.9402  -13.7504   22.6970 C   0  0  0  0  0  0  0  0  0  0  0  0
  -25.2145  -13.1787   20.5915 C   0  0  0  0  0  0  0  0  0  0  0  0
  -22.8243  -13.4737   21.2612 C   0  0  0  0  0  0  0  0  0  0  0  0
  -22.3905  -27.4261   20.8820 C   0  0  0  0  0  0  0  0  0  0  0  0
  -25.0246  -28.1586   22.2733 C   0  0  0  0  0  0  0  0  0  0  0  0
  -27.4366  -29.3236   24.3857 C   0  0  0  0  0  0  0  0  0  0  0  0
  -30.9910  -14.6955   20.1652 C   0  0  0  0  0  0  0  0  0  0  0  0
  -18.1812  -28.1423   23.6797 C   0  0  0  0  0  0  0  0  0  0  0  0
  -23.4945  -25.2771   20.3081 C   0  0  0  0  0  0  0  0  0  0  0  0
  -25.6000  -27.1377   20.0179 C   0  0  0  0  0  0  0  0  0  0  0  0
  -19.5855  -28.7402   23.6473 C   0  0  0  0  0  0  0  0  0  0  0  0
  -29.6452  -11.4011   20.2759 C   0  0  0  0  0  0  0  0  0  0  0  0
  -19.9664  -29.1313   22.2230 C   0  0  0  0  0  0  0  0  0  0  0  0
  -30.9829  -19.2213   18.1485 C   0  0  0  0  0  0  0  0  0  0  0  0
  -32.8539  -18.9324   19.8396 C   0  0  0  0  0  0  0  0  0  0  0  0
  -28.2232  -11.6043   20.8019 C   0  0  0  0  0  0  0  0  0  0  0  0
  -30.2354  -18.0477   18.7832 C   0  0  0  0  0  0  0  0  0  0  0  0
  -32.0987  -17.7601   20.4673 C   0  0  0  0  0  0  0  0  0  0  0  0
  -30.6319  -12.3665   20.9289 C   0  0  0  0  0  0  0  0  0  0  0  0
  -28.8332  -13.9931   21.3681 C   0  0  0  0  0  0  0  0  0  0  0  0
  -19.9853  -27.9063   21.3008 C   0  0  1  0  0  0  0  0  0  0  0  0
  -23.5109  -26.4970   21.2465 C   0  0  1  0  0  0  0  0  0  0  0  0
  -31.9378  -19.9282   19.1181 C   0  0  0  0  0  0  0  0  0  0  0  0
  -30.5507  -22.1070   19.6186 C   0  0  2  0  0  0  0  0  0  0  0  0
  -27.7925  -13.0798   20.6980 C   0  0  2  0  0  0  0  0  0  0  0  0
  -31.1981  -17.0622   19.4476 C   0  0  0  0  0  0  0  0  0  0  0  0
  -31.1569  -20.7761   20.1269 C   0  0  2  0  0  0  0  0  0  0  0  0
  -31.0828  -22.7023   20.9452 C   0  0  2  0  0  0  0  0  0  0  0  0
  -31.7702  -24.0495   20.8762 C   0  0  0  0  0  0  0  0  0  0  0  0
  -28.2336  -31.4282   25.4960 C   0  0  0  0  0  0  0  0  0  0  0  0
  -26.2297  -29.0917   19.6312 C   0  0  0  0  0  0  0  0  0  0  0  0
  -27.7476  -30.5954   20.9362 C   0  0  0  0  0  0  0  0  0  0  0  0
  -25.2768  -30.9199   21.0469 C   0  0  0  0  0  0  0  0  0  0  0  0
  -27.0003  -28.2005   27.0889 C   0  0  0  0  0  0  0  0  0  0  0  0
  -29.0483  -22.1354   19.4156 C   0  0  0  0  0  0  0  0  0  1  0  0
  -26.3187  -28.9294   22.2064 C   0  0  1  0  0  0  0  0  0  0  0  0
  -27.3544  -30.1942   25.6266 C   0  0  2  0  0  0  0  0  0  0  0  0
  -26.3928  -29.8561   20.9602 C   0  0  0  0  0  0  0  0  0  0  0  0
  -26.2634  -13.6458   22.5484 N   0  0  0  0  0  0  0  0  0  0  0  0
  -26.3987  -13.2968   21.2577 N   0  0  0  0  0  0  0  0  0  0  0  0
  -24.7326  -27.3177   21.1926 N   0  0  0  0  0  0  0  0  0  0  0  0
  -30.1656  -13.7487   20.7939 N   0  0  0  0  0  0  0  0  0  0  0  0
  -25.1686  -12.8352   19.2868 N   0  0  0  0  0  0  0  0  0  0  0  0
  -22.1078  -12.2858   21.4605 N   0  0  0  0  0  0  0  0  0  0  0  0
  -21.1931  -27.1364   21.5079 N   0  0  0  0  0  0  0  0  0  0  0  0
  -26.4430  -29.6299   23.4801 N   0  0  0  0  0  0  0  0  0  0  0  0
  -30.4704  -15.9805   20.0731 N   0  0  0  0  0  0  0  0  0  0  0  0
  -32.0445  -21.5776   21.0002 N   0  3  0  0  0  0  0  0  0  0  0  0
  -27.7945  -29.4283   26.8268 N   0  3  0  0  0  0  0  0  0  0  0  0
  -22.2188  -14.4955   20.8575 O   0  0  0  0  0  0  0  0  0  0  0  0
  -22.5964  -28.3402   20.0922 O   0  0  0  0  0  0  0  0  0  0  0  0
  -24.2879  -28.3008   23.2533 O   0  0  0  0  0  0  0  0  0  0  0  0
  -28.2985  -28.4608   24.2333 O   0  0  0  0  0  0  0  0  0  0  0  0
  -32.1068  -14.4151   19.7143 O   0  0  0  0  0  0  0  0  0  0  0  0
  -22.7745  -15.1688   27.6533 O   0  0  0  0  0  0  0  0  0  0  0  0
  -28.6738  -23.4355   18.9619 O   0  0  0  0  0  0  0  0  0  1  0  0
  -17.4988  -16.7676   27.7772 F   0  0  0  0  0  0  0  0  0  0  0  0
  -22.0762  -17.6861   28.5576 F   0  0  0  0  0  0  0  0  0  0  0  0
  1  2  1  0  0  0  0
  1  5  2  0  0  0  0
  2  6  2  0  0  0  0
  3  8  2  0  0  0  0
  3 15  1  0  0  0  0
  4  9  1  0  0  0  0
  4 15  2  0  0  0  0
  5 17  1  0  0  0  0
  6 19  1  0  0  0  0
  7 10  2  0  0  0  0
  7 18  1  0  0  0  0
  8 21  1  0  0  0  0
  9 21  2  0  0  0  0
 10 22  1  0  0  0  0
 11 12  2  0  0  0  0
 11 23  1  0  0  0  0
 12 24  1  0  0  0  0
 13 20  1  0  0  0  0
 13 22  2  0  0  0  0
 14 24  2  0  0  0  0
 14 25  1  0  0  0  0
 15 26  1  0  0  0  0
 16 26  1  0  0  0  0
 16 27  2  0  0  0  0
 16 28  1  0  0  0  0
 17 19  2  0  0  0  0
 17 33  1  0  0  0  0
 18 20  2  0  0  0  0
 18 34  1  0  0  0  0
 19 46  1  0  0  0  0
 20 35  1  0  0  0  0
 21 80  1  0  0  0  0
 22 81  1  0  0  0  0
 23 25  2  0  0  0  0
 23 80  1  0  0  0  0
 24 82  1  0  0  0  0
 25 83  1  0  0  0  0
 26 64  2  0  0  0  0
 27 65  1  0  0  0  0
 27 68  1  0  0  0  0
 28 69  1  0  0  0  0
 28 75  2  0  0  0  0
 29 47  1  0  0  0  0
 29 70  1  0  0  0  0
 29 76  2  0  0  0  0
 30 61  1  0  0  0  0
 30 66  1  0  0  0  0
 30 77  2  0  0  0  0
 31 62  1  0  0  0  0
 31 71  1  0  0  0  0
 31 78  2  0  0  0  0
 32 67  1  0  0  0  0
 32 72  1  0  0  0  0
 32 79  2  0  0  0  0
 33 36  1  0  0  0  0
 34 47  1  0  0  0  0
 35 66  1  0  0  0  0
 36 38  1  0  0  0  0
 37 41  1  0  0  0  0
 37 44  1  0  0  0  0
 38 46  1  0  0  0  0
 39 42  1  0  0  0  0
 39 48  1  0  0  0  0
 40 43  1  0  0  0  0
 40 48  1  0  0  0  0
 41 50  1  0  0  0  0
 42 51  1  0  0  0  0
 43 51  1  0  0  0  0
 44 67  1  0  0  0  0
 45 50  1  0  0  0  0
 45 67  1  0  0  0  0
 46 70  1  0  0  0  0
 47 66  1  0  0  0  0
 48 52  1  0  0  0  0
 49 52  1  0  0  0  0
 49 53  1  0  0  0  0
 49 60  1  0  0  0  0
 50 65  1  0  0  0  0
 51 72  1  0  0  0  0
 52 73  1  0  0  0  0
 53 54  1  0  0  0  0
 53 73  1  0  0  0  0
 55 62  1  0  0  0  0
 56 63  1  0  0  0  0
 57 63  1  0  0  0  0
 58 63  1  0  0  0  0
 59 74  1  0  0  0  0
 60 81  1  0  0  0  0
 61 63  1  0  0  0  0
 61 71  1  0  0  0  0
 62 74  1  0  0  0  0
 64 65  1  0  0  0  0
M  CHG  2  73   1  74   1
M  ISO  4  32 100  60 101  72 100  81 101
M  END
> <Batch ID>
0146

> <Smiles>
CNC(C)C(=O)NC(C(=O)N1Cc2cc([101O:1][101CH2:1]C3C(C)NC3C3CCC([100NH:0][100C:0](=O)N4CCCC(n5nc(-c6ccc(Oc7ccc(F)cc7F)cc6)c(C(N)=O)c5N)C4)CC3)ccc2CC1C(=O)NC1CCCc2ccccc21)C(C)(C)C

> <Shape>
0.228

> <Color>
0.087

> <Negative vol penalty>
0.000

$$$$

  -OEChem-04052321313D

 88 99  0     1  0  0  0  0  0999 V2000
  -26.5319  -38.0839   24.6594 C   0  0  0  0  0  0  0  0  0  0  0  0
  -26.7395  -36.7953   25.1411 C   0  0  0  0  0  0  0  0  0  0  0  0
  -23.3470   -9.1302   20.5821 C   0  0  0  0  0  0  0  0  0  0  0  0
  -23.6282  -11.3432   21.5098 C   0  0  0  0  0  0  0  0  0  0  0  0
  -25.4287  -38.3554   23.8511 C   0  0  0  0  0  0  0  0  0  0  0  0
  -25.8435  -35.7777   24.8155 C   0  0  0  0  0  0  0  0  0  0  0  0
  -27.1417  -28.8752   21.3955 C   0  0  0  0  0  0  0  0  0  0  0  0
  -22.3942   -8.8417   21.5591 C   0  0  0  0  0  0  0  0  0  0  0  0
  -22.6754  -11.0547   22.4868 C   0  0  0  0  0  0  0  0  0  0  0  0
  -27.2223  -27.6949   20.6562 C   0  0  0  0  0  0  0  0  0  0  0  0
  -22.3610   -7.9651   24.8233 C   0  0  0  0  0  0  0  0  0  0  0  0
  -22.4476   -6.7311   25.4676 C   0  0  0  0  0  0  0  0  0  0  0  0
  -24.9203  -27.9586   19.9639 C   0  0  0  0  0  0  0  0  0  0  0  0
  -20.2377   -6.1618   24.6742 C   0  0  0  0  0  0  0  0  0  0  0  0
  -23.9640  -10.3810   20.5575 C   0  0  0  0  0  0  0  0  0  0  0  0
  -24.7643  -10.6756   18.1532 C   0  0  0  0  0  0  0  0  0  0  0  0
  -24.5240  -37.3384   23.5076 C   0  0  0  0  0  0  0  0  0  0  0  0
  -25.9533  -29.6107   21.4094 C   0  0  0  0  0  0  0  0  0  0  0  0
  -24.7265  -36.0361   24.0030 C   0  0  0  0  0  0  0  0  0  0  0  0
  -24.8374  -29.1482   20.6925 C   0  0  0  0  0  0  0  0  0  0  0  0
  -22.0584   -9.8040   22.5114 C   0  0  0  0  0  0  0  0  0  0  0  0
  -26.1143  -27.2376   19.9424 C   0  0  0  0  0  0  0  0  0  0  0  0
  -21.2127   -8.2976   24.1045 C   0  0  0  0  0  0  0  0  0  0  0  0
  -21.3860   -5.8293   25.3930 C   0  0  0  0  0  0  0  0  0  0  0  0
  -20.1511   -7.3959   24.0300 C   0  0  0  0  0  0  0  0  0  0  0  0
  -24.9488  -10.6794   19.5488 C   0  0  0  0  0  0  0  0  0  0  0  0
  -25.9915  -11.0230   17.6437 C   0  0  0  0  0  0  0  0  0  0  0  0
  -23.5886  -10.3841   17.3860 C   0  0  0  0  0  0  0  0  0  0  0  0
  -30.5862  -14.0960   20.0112 C   0  0  0  0  0  0  0  0  0  0  0  0
  -24.1352  -32.6511   22.6447 C   0  0  0  0  0  0  0  0  0  0  0  0
  -23.3201  -32.2549   19.7139 C   0  0  0  0  0  0  0  0  0  0  0  0
  -23.0070  -31.7157   16.3601 C   0  0  0  0  0  0  0  0  0  0  0  0
  -23.3203  -37.6903   22.6698 C   0  0  0  0  0  0  0  0  0  0  0  0
  -25.8021  -30.8552   22.2413 C   0  0  0  0  0  0  0  0  0  0  0  0
  -23.5691  -29.9539   20.7645 C   0  0  0  0  0  0  0  0  0  0  0  0
  -22.6235  -36.4747   22.0639 C   0  0  0  0  0  0  0  0  0  0  0  0
  -30.6627  -10.7893   18.6178 C   0  0  0  0  0  0  0  0  0  0  0  0
  -22.4381  -35.3860   23.1162 C   0  0  0  0  0  0  0  0  0  0  0  0
  -30.1928  -19.2456   22.4844 C   0  0  0  0  0  0  0  0  0  0  0  0
  -30.4789  -17.8094   22.8242 C   0  0  0  0  0  0  0  0  0  0  0  0
  -29.1921  -10.3741   18.6008 C   0  0  0  0  0  0  0  0  0  0  0  0
  -26.3336  -23.8127   20.0239 C   0  0  0  0  0  0  0  0  0  0  0  0
  -28.1724  -24.8137   18.6454 C   0  0  0  0  0  0  0  0  0  0  0  0
  -30.1858  -21.0294   18.6178 C   0  0  0  0  0  0  0  0  0  0  0  0
  -29.0218  -15.7854   18.8240 C   0  0  0  0  0  0  0  0  0  0  0  0
  -30.9832  -11.6596   19.8289 C   0  0  0  0  0  0  0  0  0  0  0  0
  -27.2866  -22.6785   20.3995 C   0  0  0  0  0  0  0  0  0  0  0  0
  -29.0671  -23.6475   19.0643 C   0  0  0  0  0  0  0  0  0  0  0  0
  -28.6417  -12.4581   19.9350 C   0  0  0  0  0  0  0  0  0  0  0  0
  -30.6490  -19.6359   18.9835 C   0  0  0  0  0  0  0  0  0  0  0  0
  -28.3859  -20.0085   19.8300 C   0  0  0  0  0  0  0  0  0  0  0  0
  -23.7904  -34.9002   23.6516 C   0  0  1  0  0  0  0  0  0  0  0  0
  -29.6054  -15.2208   20.0945 C   0  0  2  0  0  0  0  0  0  0  0  0
  -24.8992  -31.9144   21.5840 C   0  0  1  0  0  0  0  0  0  0  0  0
  -30.5854  -18.2805   21.4003 C   0  0  0  0  0  0  0  0  0  0  0  0
  -30.0144  -16.5909   19.6133 C   0  0  2  0  0  0  0  0  0  0  0  0
  -28.2701  -11.6014   18.7118 C   0  0  2  0  0  0  0  0  0  0  0  0
  -29.1447  -21.3210   19.6855 C   0  0  2  0  0  0  0  0  0  0  0  0
  -27.0988  -25.0914   19.6941 C   0  0  0  0  0  0  0  0  0  1  0  0
  -21.8558  -32.6146   14.3195 C   0  0  0  0  0  0  0  0  0  0  0  0
  -20.7039  -30.9859   20.6355 C   0  0  0  0  0  0  0  0  0  0  0  0
  -19.9132  -31.0618   18.2612 C   0  0  0  0  0  0  0  0  0  0  0  0
  -20.4438  -33.1809   19.4655 C   0  0  0  0  0  0  0  0  0  0  0  0
  -25.5817  -32.3072   15.0259 C   0  0  0  0  0  0  0  0  0  0  0  0
  -22.3298  -31.6586   18.7460 C   0  0  1  0  0  0  0  0  0  0  0  0
  -23.1130  -32.6572   15.1740 C   0  0  2  0  0  0  0  0  0  0  0  0
  -29.5642  -17.8317   20.3675 C   0  0  2  0  0  0  0  0  0  0  0  0
  -20.8718  -31.7083   19.2838 C   0  0  0  0  0  0  0  0  0  0  0  0
  -26.1951  -11.0034   19.9033 N   0  0  0  0  0  0  0  0  0  0  0  0
  -26.8049  -11.2064   18.7230 N   0  0  0  0  0  0  0  0  0  0  0  0
  -30.0701  -12.7997   19.9153 N   0  0  0  0  0  0  0  0  0  0  0  0
  -23.8788  -31.3885   20.6613 N   0  0  0  0  0  0  0  0  0  0  0  0
  -28.2717  -22.4410   19.3344 N   0  0  0  0  0  0  0  0  0  0  0  0
  -26.4434  -11.1865   16.3821 N   0  0  0  0  0  0  0  0  0  0  0  0
  -22.7205  -11.4373   17.0676 N   0  0  0  0  0  0  0  0  0  0  0  0
  -24.4162  -34.0028   22.7041 N   0  0  0  0  0  0  0  0  0  0  0  0
  -22.5240  -32.3581   17.4805 N   0  0  0  0  0  0  0  0  0  0  0  0
  -29.3676  -18.9392   19.3832 N   0  3  2  0  0  0  0  0  0  0  0  0
  -24.2753  -32.2844   14.3190 N   0  3  0  0  0  0  0  0  0  0  0  0
  -23.3076   -9.2214   17.0084 O   0  0  0  0  0  0  0  0  0  0  0  0
  -31.7823  -14.3742   20.0301 O   0  0  0  0  0  0  0  0  0  0  0  0
  -23.3471  -32.0396   23.3565 O   0  0  0  0  0  0  0  0  0  0  0  0
  -23.5885  -33.4572   19.6381 O   0  0  0  0  0  0  0  0  0  0  0  0
  -23.3178  -30.5283   16.2978 O   0  0  0  0  0  0  0  0  0  0  0  0
  -21.1285   -9.5229   23.4648 O   0  0  0  0  0  0  0  0  0  0  0  0
  -26.2013  -26.0869   19.2192 O   0  0  0  0  0  0  0  0  0  1  0  0
  -21.4700   -4.6436   26.0104 F   0  0  0  0  0  0  0  0  0  0  0  0
  -19.0458   -7.7092   23.3400 F   0  0  0  0  0  0  0  0  0  0  0  0
  1  2  1  0  0  0  0
  1  5  2  0  0  0  0
  2  6  2  0  0  0  0
  3  8  2  0  0  0  0
  3 15  1  0  0  0  0
  4  9  1  0  0  0  0
  4 15  2  0  0  0  0
  5 17  1  0  0  0  0
  6 19  1  0  0  0  0
  7 10  2  0  0  0  0
  7 18  1  0  0  0  0
  8 21  1  0  0  0  0
  9 21  2  0  0  0  0
 10 22  1  0  0  0  0
 11 12  2  0  0  0  0
 11 23  1  0  0  0  0
 12 24  1  0  0  0  0
 13 20  1  0  0  0  0
 13 22  2  0  0  0  0
 14 24  2  0  0  0  0
 14 25  1  0  0  0  0
 15 26  1  0  0  0  0
 16 26  1  0  0  0  0
 16 27  2  0  0  0  0
 16 28  1  0  0  0  0
 17 19  2  0  0  0  0
 17 33  1  0  0  0  0
 18 20  2  0  0  0  0
 18 34  1  0  0  0  0
 19 52  1  0  0  0  0
 20 35  1  0  0  0  0
 21 85  1  0  0  0  0
 22 86  1  0  0  0  0
 23 25  2  0  0  0  0
 23 85  1  0  0  0  0
 24 87  1  0  0  0  0
 25 88  1  0  0  0  0
 26 69  2  0  0  0  0
 27 70  1  0  0  0  0
 27 74  1  0  0  0  0
 28 75  1  0  0  0  0
 28 80  2  0  0  0  0
 29 53  1  0  0  0  0
 29 71  1  0  0  0  0
 29 81  2  0  0  0  0
 30 54  1  0  0  0  0
 30 76  1  0  0  0  0
 30 82  2  0  0  0  0
 31 65  1  0  0  0  0
 31 72  1  0  0  0  0
 31 83  2  0  0  0  0
 32 66  1  0  0  0  0
 32 77  1  0  0  0  0
 32 84  2  0  0  0  0
 33 36  1  0  0  0  0
 34 54  1  0  0  0  0
 35 72  1  0  0  0  0
 36 38  1  0  0  0  0
 37 41  1  0  0  0  0
 37 46  1  0  0  0  0
 38 52  1  0  0  0  0
 39 40  1  0  0  0  0
 39 55  1  0  0  0  0
 40 55  1  0  0  0  0
 41 57  1  0  0  0  0
 42 47  1  0  0  0  0
 42 59  1  0  0  0  0
 43 48  1  0  0  0  0
 43 59  1  0  0  0  0
 44 50  1  0  0  0  0
 44 58  1  0  0  0  0
 45 53  1  0  0  0  0
 45 56  1  0  0  0  0
 46 71  1  0  0  0  0
 47 73  1  0  0  0  0
 48 73  1  0  0  0  0
 49 57  1  0  0  0  0
 49 71  1  0  0  0  0
 50 78  1  0  0  0  0
 51 58  1  0  0  0  0
 51 78  1  0  0  0  0
 52 76  1  0  0  0  0
 53 56  1  0  0  0  0
 54 72  1  0  0  0  0
 55 67  1  0  0  0  0
 56 67  1  0  0  0  0
 57 70  1  0  0  0  0
 58 73  1  0  0  0  0
 59 86  1  0  0  0  0
 60 66  1  0  0  0  0
 61 68  1  0  0  0  0
 62 68  1  0  0  0  0
 63 68  1  0  0  0  0
 64 79  1  0  0  0  0
 65 68  1  0  0  0  0
 65 77  1  0  0  0  0
 66 79  1  0  0  0  0
 67 78  1  0  0  0  0
 69 70  1  0  0  0  0
M  CHG  2  78   1  79   1
M  ISO  4  29 100  53 100  59 101  86 101
M  END
> <Batch ID>
0146

> <Smiles>
CNC(C)C(=O)NC(C(=O)N1Cc2cc([101O:1][101CH:1]3CCN(C4CCN(C(C5CC5)C5C[100CH:0]5[100C:0](=O)N5CCCC(n6nc(-c7ccc(Oc8ccc(F)cc8F)cc7)c(C(N)=O)c6N)C5)C4)CC3)ccc2CC1C(=O)NC1CCCc2ccccc21)C(C)(C)C

> <Shape>
0.289

> <Color>
0.081

> <Negative vol penalty>
0.000

$$$$

  -OEChem-04052321313D

 87 97  0     1  0  0  0  0  0999 V2000
  -28.5227  -30.4948   14.9792 C   0  0  0  0  0  0  0  0  0  0  0  0
  -28.1401  -29.2149   14.5910 C   0  0  0  0  0  0  0  0  0  0  0  0
  -23.2943   -9.7927   19.9034 C   0  0  0  0  0  0  0  0  0  0  0  0
  -23.7057   -9.9377   22.2797 C   0  0  0  0  0  0  0  0  0  0  0  0
  -29.7809  -30.9818   14.6275 C   0  0  0  0  0  0  0  0  0  0  0  0
  -29.0151  -28.4215   13.8498 C   0  0  0  0  0  0  0  0  0  0  0  0
  -29.6435  -22.3384   14.1769 C   0  0  0  0  0  0  0  0  0  0  0  0
  -22.5592   -8.6241   20.1019 C   0  0  0  0  0  0  0  0  0  0  0  0
  -22.9705   -8.7690   22.4782 C   0  0  0  0  0  0  0  0  0  0  0  0
  -29.1362  -21.2998   13.3974 C   0  0  0  0  0  0  0  0  0  0  0  0
  -20.8987   -6.0215   23.6515 C   0  0  0  0  0  0  0  0  0  0  0  0
  -19.9791   -6.0031   24.7002 C   0  0  0  0  0  0  0  0  0  0  0  0
  -31.8947  -16.1805   11.1170 C   0  0  0  0  0  0  0  0  0  0  0  0
  -31.1860  -21.2608   12.1262 C   0  0  0  0  0  0  0  0  0  0  0  0
  -18.7949   -7.8531   23.6940 C   0  0  0  0  0  0  0  0  0  0  0  0
  -30.7735  -16.8253   10.6432 C   0  0  0  0  0  0  0  0  0  0  0  0
  -23.8676  -10.4495   20.9923 C   0  0  0  0  0  0  0  0  0  0  0  0
  -24.1420  -12.9778   20.7915 C   0  0  0  0  0  0  0  0  0  0  0  0
  -30.6755  -30.1903   13.8899 C   0  0  0  0  0  0  0  0  0  0  0  0
  -30.9237  -22.8543   13.9295 C   0  0  0  0  0  0  0  0  0  0  0  0
  -30.2859  -28.8988   13.4867 C   0  0  0  0  0  0  0  0  0  0  0  0
  -31.6474  -15.8408   12.4700 C   0  0  0  0  0  0  0  0  0  0  0  0
  -31.7082  -22.3043   12.9057 C   0  0  0  0  0  0  0  0  0  0  0  0
  -22.3972   -8.1123   21.3893 C   0  0  0  0  0  0  0  0  0  0  0  0
  -29.9064  -20.7627   12.3700 C   0  0  0  0  0  0  0  0  0  0  0  0
  -20.7664   -6.9557   22.6241 C   0  0  0  0  0  0  0  0  0  0  0  0
  -18.9272   -6.9189   24.7214 C   0  0  0  0  0  0  0  0  0  0  0  0
  -19.7145   -7.8714   22.6454 C   0  0  0  0  0  0  0  0  0  0  0  0
  -24.6277  -11.6564   20.7878 C   0  0  0  0  0  0  0  0  0  0  0  0
  -30.3824  -16.2881   12.7817 C   0  0  0  0  0  0  0  0  0  0  0  0
  -25.2512  -13.7519   20.5531 C   0  0  0  0  0  0  0  0  0  0  0  0
  -22.8075  -13.4621   20.9925 C   0  0  0  0  0  0  0  0  0  0  0  0
  -32.0715  -25.6909   13.0695 C   0  0  0  0  0  0  0  0  0  0  0  0
  -34.9340  -24.2492   13.5691 C   0  0  0  0  0  0  0  0  0  0  0  0
  -36.7275  -21.3507   13.7396 C   0  0  0  0  0  0  0  0  0  0  0  0
  -29.9408  -14.8553   17.9436 C   0  0  0  0  0  0  0  0  0  0  0  0
  -32.0067  -30.7776   13.4927 C   0  0  0  0  0  0  0  0  0  0  0  0
  -31.4669  -23.9568   14.7966 C   0  0  0  0  0  0  0  0  0  0  0  0
  -33.0967  -22.8088   12.6125 C   0  0  0  0  0  0  0  0  0  0  0  0
  -33.0185  -29.7336   13.0272 C   0  0  0  0  0  0  0  0  0  0  0  0
  -30.1611  -12.5667   20.5246 C   0  0  0  0  0  0  0  0  0  0  0  0
  -32.3708  -28.7636   12.0442 C   0  0  0  0  0  0  0  0  0  0  0  0
  -28.7033  -12.2268   20.8342 C   0  0  0  0  0  0  0  0  0  0  0  0
  -33.5877  -14.1286   12.7757 C   0  0  0  0  0  0  0  0  0  0  0  0
  -32.4278  -13.6110   13.5676 C   0  0  0  0  0  0  0  0  0  0  0  0
  -29.3328  -14.7372   14.4890 C   0  0  0  0  0  0  0  0  0  0  0  0
  -30.3005  -16.9580   15.2246 C   0  0  0  0  0  0  0  0  0  0  0  0
  -30.3894  -12.6717   19.0212 C   0  0  0  0  0  0  0  0  0  0  0  0
  -28.5766  -14.6515   15.8179 C   0  0  0  0  0  0  0  0  0  0  0  0
  -29.5041  -16.8332   16.5202 C   0  0  0  0  0  0  0  0  0  0  0  0
  -28.0364  -13.3341   18.6434 C   0  0  0  0  0  0  0  0  0  0  0  0
  -31.2166  -27.9987   12.7033 C   0  0  1  0  0  0  0  0  0  0  0  0
  -29.6054  -16.1964   14.0815 C   0  0  0  0  0  0  0  0  0  0  0  0
  -32.5826  -24.7510   14.1244 C   0  0  1  0  0  0  0  0  0  0  0  0
  -27.7469  -13.2223   20.1541 C   0  0  1  0  0  0  0  0  0  0  0  0
  -32.6081  -15.1167   13.4016 C   0  0  0  0  0  0  0  0  0  0  0  0
  -39.0539  -20.4937   14.1279 C   0  0  0  0  0  0  0  0  0  0  0  0
  -35.7209  -25.1154   10.7513 C   0  0  0  0  0  0  0  0  0  0  0  0
  -37.6003  -23.4638   10.8436 C   0  0  0  0  0  0  0  0  0  0  0  0
  -37.5291  -25.3612   12.4614 C   0  0  0  0  0  0  0  0  0  0  0  0
  -35.8885  -19.8170   16.1276 C   0  0  0  0  0  0  0  0  0  0  0  0
  -28.5513  -17.4899   11.5582 C   0  0  0  0  0  0  0  0  0  0  0  0
  -28.4892  -18.8581   12.2284 C   0  0  0  0  0  0  0  0  0  1  0  0
  -35.8923  -23.4515   12.7181 C   0  0  1  0  0  0  0  0  0  0  0  0
  -37.7187  -20.8385   14.7690 C   0  0  2  0  0  0  0  0  0  0  0  0
  -36.6588  -24.3396   11.6976 C   0  0  0  0  0  0  0  0  0  0  0  0
  -25.9429  -11.5911   20.5646 N   0  0  0  0  0  0  0  0  0  0  0  0
  -29.8606  -16.8847   11.6637 N   0  0  0  0  0  0  0  0  0  0  0  0
  -26.2932  -12.8812   20.4258 N   0  0  0  0  0  0  0  0  0  0  0  0
  -33.5808  -23.8923   13.4839 N   0  0  0  0  0  0  0  0  0  0  0  0
  -29.4602  -13.6233   18.4122 N   0  0  0  0  0  0  0  0  0  0  0  0
  -29.2639  -15.4303   16.8574 N   0  0  0  0  0  0  0  0  0  0  0  0
  -25.4271  -15.0858   20.4421 N   0  0  0  0  0  0  0  0  0  0  0  0
  -21.7867  -12.5304   21.2252 N   0  0  0  0  0  0  0  0  0  0  0  0
  -31.7285  -26.9410   13.5481 N   0  0  0  0  0  0  0  0  0  0  0  0
  -36.7545  -22.7260   13.6447 N   0  0  0  0  0  0  0  0  0  0  0  0
  -37.1877  -19.6160   15.4358 N   0  3  0  0  0  0  0  0  0  0  0  0
  -22.5259  -14.6837   20.9501 O   0  0  0  0  0  0  0  0  0  0  0  0
  -31.9954  -25.3107   11.9070 O   0  0  0  0  0  0  0  0  0  0  0  0
  -35.3709  -25.1509   14.2887 O   0  0  0  0  0  0  0  0  0  0  0  0
  -36.0045  -20.6051   13.0824 O   0  0  0  0  0  0  0  0  0  0  0  0
  -30.9164  -15.4099   18.4648 O   0  0  0  0  0  0  0  0  0  0  0  0
  -33.1275  -15.7781   14.5943 O   0  0  0  0  0  0  0  0  0  0  0  0
  -21.6797   -6.9721   21.5833 O   0  0  0  0  0  0  0  0  0  0  0  0
  -29.4100  -19.7422   11.6018 O   0  0  0  0  0  0  0  0  0  1  0  0
  -18.0433   -6.9002   25.7277 F   0  0  0  0  0  0  0  0  0  0  0  0
  -19.5815   -8.7705   21.6606 F   0  0  0  0  0  0  0  0  0  0  0  0
  1  2  1  0  0  0  0
  1  5  2  0  0  0  0
  2  6  2  0  0  0  0
  3  8  2  0  0  0  0
  3 17  1  0  0  0  0
  4  9  1  0  0  0  0
  4 17  2  0  0  0  0
  5 19  1  0  0  0  0
  6 21  1  0  0  0  0
  7 10  2  0  0  0  0
  7 20  1  0  0  0  0
  8 24  1  0  0  0  0
  9 24  2  0  0  0  0
 10 25  1  0  0  0  0
 11 12  2  0  0  0  0
 11 26  1  0  0  0  0
 12 27  1  0  0  0  0
 13 16  2  0  0  0  0
 13 22  1  0  0  0  0
 14 23  1  0  0  0  0
 14 25  2  0  0  0  0
 15 27  2  0  0  0  0
 15 28  1  0  0  0  0
 16 68  1  0  0  0  0
 17 29  1  0  0  0  0
 18 29  1  0  0  0  0
 18 31  2  0  0  0  0
 18 32  1  0  0  0  0
 19 21  2  0  0  0  0
 19 37  1  0  0  0  0
 20 23  2  0  0  0  0
 20 38  1  0  0  0  0
 21 52  1  0  0  0  0
 22 30  2  0  0  0  0
 22 56  1  0  0  0  0
 23 39  1  0  0  0  0
 24 84  1  0  0  0  0
 25 85  1  0  0  0  0
 26 28  2  0  0  0  0
 26 84  1  0  0  0  0
 27 86  1  0  0  0  0
 28 87  1  0  0  0  0
 29 67  2  0  0  0  0
 30 53  1  0  0  0  0
 30 68  1  0  0  0  0
 31 69  1  0  0  0  0
 31 73  1  0  0  0  0
 32 74  1  0  0  0  0
 32 78  2  0  0  0  0
 33 54  1  0  0  0  0
 33 75  1  0  0  0  0
 33 79  2  0  0  0  0
 34 64  1  0  0  0  0
 34 70  1  0  0  0  0
 34 80  2  0  0  0  0
 35 65  1  0  0  0  0
 35 76  1  0  0  0  0
 35 81  2  0  0  0  0
 36 71  1  0  0  0  0
 36 72  1  0  0  0  0
 36 82  2  0  0  0  0
 37 40  1  0  0  0  0
 38 54  1  0  0  0  0
 39 70  1  0  0  0  0
 40 42  1  0  0  0  0
 41 43  1  0  0  0  0
 41 48  1  0  0  0  0
 42 52  1  0  0  0  0
 43 55  1  0  0  0  0
 44 45  1  0  0  0  0
 44 56  1  0  0  0  0
 45 56  1  0  0  0  0
 46 49  1  0  0  0  0
 46 53  1  0  0  0  0
 47 50  1  0  0  0  0
 47 53  1  0  0  0  0
 48 71  1  0  0  0  0
 49 72  1  0  0  0  0
 50 72  1  0  0  0  0
 51 55  1  0  0  0  0
 51 71  1  0  0  0  0
 52 75  1  0  0  0  0
 54 70  1  0  0  0  0
 55 69  1  0  0  0  0
 56 83  1  0  0  0  0
 57 65  1  0  0  0  0
 58 66  1  0  0  0  0
 59 66  1  0  0  0  0
 60 66  1  0  0  0  0
 61 77  1  0  0  0  0
 62 63  1  0  0  0  0
 62 68  1  0  0  0  0
 63 85  1  0  0  0  0
 64 66  1  0  0  0  0
 64 76  1  0  0  0  0
 65 77  1  0  0  0  0
 67 69  1  0  0  0  0
M  CHG  1  77   1
M  ISO  4  36 100  63 101  72 100  85 101
M  END
> <Batch ID>
0146

> <Smiles>
CNC(C)C(=O)NC(C(=O)N1Cc2cc([101O:1][101CH2:1]Cn3ccc(C4(O)CC4)c3C3CC[100N:0]([100C:0](=O)N4CCCC(n5nc(-c6ccc(Oc7ccc(F)cc7F)cc6)c(C(N)=O)c5N)C4)CC3)ccc2CC1C(=O)NC1CCCc2ccccc21)C(C)(C)C

> <Shape>
0.124

> <Color>
0.174

> <Negative vol penalty>
0.000

$$$$

  -OEChem-04052321313D

 84 93  0     1  0  0  0  0  0999 V2000
  -28.7330  -33.1675   23.3400 C   0  0  0  0  0  0  0  0  0  0  0  0
  -28.6411  -31.8313   22.9638 C   0  0  0  0  0  0  0  0  0  0  0  0
  -24.1188   -9.8135   22.4085 C   0  0  0  0  0  0  0  0  0  0  0  0
  -22.6955  -10.5206   20.5887 C   0  0  0  0  0  0  0  0  0  0  0  0
  -27.6540  -33.7900   23.9661 C   0  0  0  0  0  0  0  0  0  0  0  0
  -27.4704  -31.1165   23.2145 C   0  0  0  0  0  0  0  0  0  0  0  0
  -26.0115  -28.3252   19.2490 C   0  0  0  0  0  0  0  0  0  0  0  0
  -23.1236   -8.9404   22.8476 C   0  0  0  0  0  0  0  0  0  0  0  0
  -21.7003   -9.6474   21.0278 C   0  0  0  0  0  0  0  0  0  0  0  0
  -26.6884  -27.1260   19.0310 C   0  0  0  0  0  0  0  0  0  0  0  0
  -21.9330   -5.8915   21.9992 C   0  0  0  0  0  0  0  0  0  0  0  0
  -22.3159   -4.5982   22.3546 C   0  0  0  0  0  0  0  0  0  0  0  0
  -24.8779  -25.9211   20.0747 C   0  0  0  0  0  0  0  0  0  0  0  0
  -21.4797   -4.9653   24.5914 C   0  0  0  0  0  0  0  0  0  0  0  0
  -23.9047  -10.6037   21.2791 C   0  0  0  0  0  0  0  0  0  0  0  0
  -25.9644  -11.2279   19.9095 C   0  0  0  0  0  0  0  0  0  0  0  0
  -26.4659  -33.0852   24.2159 C   0  0  0  0  0  0  0  0  0  0  0  0
  -24.7656  -28.3323   19.8924 C   0  0  0  0  0  0  0  0  0  0  0  0
  -26.3749  -31.7298   23.8458 C   0  0  0  0  0  0  0  0  0  0  0  0
  -24.1860  -27.1215   20.2974 C   0  0  0  0  0  0  0  0  0  0  0  0
  -21.9144   -8.8573   22.1572 C   0  0  0  0  0  0  0  0  0  0  0  0
  -26.1230  -25.9240   19.4464 C   0  0  0  0  0  0  0  0  0  0  0  0
  -21.3235   -6.7217   22.9399 C   0  0  0  0  0  0  0  0  0  0  0  0
  -22.0893   -4.1351   23.6507 C   0  0  0  0  0  0  0  0  0  0  0  0
  -21.0968   -6.2586   24.2359 C   0  0  0  0  0  0  0  0  0  0  0  0
  -24.9321  -11.5063   20.8253 C   0  0  0  0  0  0  0  0  0  0  0  0
  -26.6670  -12.4044   19.8161 C   0  0  0  0  0  0  0  0  0  0  0  0
  -26.2616  -10.0144   19.2062 C   0  0  0  0  0  0  0  0  0  0  0  0
  -32.0202  -20.6582   23.1546 C   0  0  0  0  0  0  0  0  0  0  0  0
  -23.6389  -29.5900   22.5855 C   0  0  0  0  0  0  0  0  0  0  0  0
  -20.8057  -28.4824   21.4592 C   0  0  0  0  0  0  0  0  0  0  0  0
  -19.1495  -26.2708   19.4561 C   0  0  0  0  0  0  0  0  0  0  0  0
  -29.1485  -16.6186   22.3528 C   0  0  0  0  0  0  0  0  0  0  0  0
  -25.3434  -33.7874   24.9380 C   0  0  0  0  0  0  0  0  0  0  0  0
  -24.0359  -29.6318   20.0962 C   0  0  0  0  0  0  0  0  0  0  0  0
  -22.8414  -27.0731   20.9743 C   0  0  0  0  0  0  0  0  0  0  0  0
  -24.0032  -33.0645   24.8298 C   0  0  0  0  0  0  0  0  0  0  0  0
  -25.5889  -17.0393   21.4783 C   0  0  0  0  0  0  0  0  0  0  0  0
  -24.1766  -31.5744   25.1064 C   0  0  0  0  0  0  0  0  0  0  0  0
  -25.1806  -15.5943   21.2075 C   0  0  0  0  0  0  0  0  0  0  0  0
  -31.3747  -23.6963   21.1645 C   0  0  0  0  0  0  0  0  0  0  0  0
  -31.5694  -18.2880   24.0245 C   0  0  0  0  0  0  0  0  0  0  0  0
  -26.6460  -17.1402   22.5772 C   0  0  0  0  0  0  0  0  0  0  0  0
  -32.3524  -22.6901   21.7577 C   0  0  0  0  0  0  0  0  0  0  0  0
  -27.4418  -14.8524   22.0510 C   0  0  0  0  0  0  0  0  0  0  0  0
  -30.1187  -21.8013   21.9099 C   0  0  0  0  0  0  0  0  0  0  0  0
  -25.1128  -30.9278   24.0783 C   0  0  1  0  0  0  0  0  0  0  0  0
  -31.0511  -19.6348   23.6509 C   0  0  2  0  0  0  0  0  0  0  0  0
  -23.0081  -29.5698   21.2219 C   0  0  1  0  0  0  0  0  0  0  0  0
  -26.4149  -14.7275   20.9151 C   0  0  1  0  0  0  0  0  0  0  0  0
  -30.7506  -18.4588   22.7760 C   0  0  2  0  0  0  0  0  0  0  0  0
  -30.1980  -22.8106   20.7772 C   0  0  1  0  0  0  0  0  0  0  0  0
  -16.8348  -25.5823   18.7738 C   0  0  0  0  0  0  0  0  0  0  0  0
  -20.4487  -27.0469   24.1278 C   0  0  0  0  0  0  0  0  0  0  0  0
  -18.6608  -25.6561   23.0612 C   0  0  0  0  0  0  0  0  0  0  0  0
  -18.3759  -28.1279   23.2393 C   0  0  0  0  0  0  0  0  0  0  0  0
  -19.6600  -26.9438   16.6196 C   0  0  0  0  0  0  0  0  0  0  0  0
  -27.7751  -22.7997   20.2274 C   0  0  0  0  0  0  0  0  0  0  0  0
  -26.5586  -23.7029   20.1765 C   0  0  0  0  0  0  0  0  0  1  0  0
  -20.0385  -27.1881   21.5827 C   0  0  1  0  0  0  0  0  0  0  0  0
  -18.0293  -26.4662   18.4503 C   0  0  2  0  0  0  0  0  0  0  0  0
  -19.4072  -27.0055   22.9918 C   0  0  0  0  0  0  0  0  0  0  0  0
  -24.9718  -12.7611   21.2812 N   0  0  0  0  0  0  0  0  0  0  0  0
  -26.0376  -13.2816   20.6494 N   0  0  0  0  0  0  0  0  0  0  0  0
  -31.5098  -21.6477   22.3305 N   0  0  0  0  0  0  0  0  0  0  0  0
  -22.1702  -28.3707   21.1568 N   0  0  0  0  0  0  0  0  0  0  0  0
  -27.7904  -16.2548   22.3101 N   0  0  0  0  0  0  0  0  0  0  0  0
  -27.7557  -12.7637   19.1033 N   0  0  0  0  0  0  0  0  0  0  0  0
  -25.4381   -8.9003   19.4183 N   0  0  0  0  0  0  0  0  0  0  0  0
  -24.4161  -30.7062   22.8294 N   0  0  0  0  0  0  0  0  0  0  0  0
  -19.0725  -27.1803   20.4895 N   0  0  0  0  0  0  0  0  0  0  0  0
  -29.4109  -17.9425   22.6865 N   0  0  0  0  0  0  0  0  0  0  0  0
  -28.9545  -23.5902   20.6614 N   0  3  0  0  0  0  0  0  0  0  0  0
  -18.5023  -26.1329   17.0769 N   0  3  0  0  0  0  0  0  0  0  0  0
  -27.2386   -9.9159   18.4255 O   0  0  0  0  0  0  0  0  0  0  0  0
  -33.2005  -20.5600   23.4782 O   0  0  0  0  0  0  0  0  0  0  0  0
  -23.4343  -28.6623   23.3596 O   0  0  0  0  0  0  0  0  0  0  0  0
  -20.2144  -29.5533   21.6179 O   0  0  0  0  0  0  0  0  0  0  0  0
  -20.0050  -25.3962   19.3387 O   0  0  0  0  0  0  0  0  0  0  0  0
  -30.0632  -15.8215   22.1167 O   0  0  0  0  0  0  0  0  0  0  0  0
  -20.9431   -8.0052   22.5852 O   0  0  0  0  0  0  0  0  0  0  0  0
  -26.7819  -24.7522   19.2354 O   0  0  0  0  0  0  0  0  0  1  0  0
  -22.4557   -2.8926   23.9914 F   0  0  0  0  0  0  0  0  0  0  0  0
  -20.5106   -7.0512   25.1436 F   0  0  0  0  0  0  0  0  0  0  0  0
  1  2  1  0  0  0  0
  1  5  2  0  0  0  0
  2  6  2  0  0  0  0
  3  8  2  0  0  0  0
  3 15  1  0  0  0  0
  4  9  1  0  0  0  0
  4 15  2  0  0  0  0
  5 17  1  0  0  0  0
  6 19  1  0  0  0  0
  7 10  2  0  0  0  0
  7 18  1  0  0  0  0
  8 21  1  0  0  0  0
  9 21  2  0  0  0  0
 10 22  1  0  0  0  0
 11 12  2  0  0  0  0
 11 23  1  0  0  0  0
 12 24  1  0  0  0  0
 13 20  1  0  0  0  0
 13 22  2  0  0  0  0
 14 24  2  0  0  0  0
 14 25  1  0  0  0  0
 15 26  1  0  0  0  0
 16 26  1  0  0  0  0
 16 27  2  0  0  0  0
 16 28  1  0  0  0  0
 17 19  2  0  0  0  0
 17 34  1  0  0  0  0
 18 20  2  0  0  0  0
 18 35  1  0  0  0  0
 19 47  1  0  0  0  0
 20 36  1  0  0  0  0
 21 81  1  0  0  0  0
 22 82  1  0  0  0  0
 23 25  2  0  0  0  0
 23 81  1  0  0  0  0
 24 83  1  0  0  0  0
 25 84  1  0  0  0  0
 26 63  2  0  0  0  0
 27 64  1  0  0  0  0
 27 68  1  0  0  0  0
 28 69  1  0  0  0  0
 28 75  2  0  0  0  0
 29 48  1  0  0  0  0
 29 65  1  0  0  0  0
 29 76  2  0  0  0  0
 30 49  1  0  0  0  0
 30 70  1  0  0  0  0
 30 77  2  0  0  0  0
 31 60  1  0  0  0  0
 31 66  1  0  0  0  0
 31 78  2  0  0  0  0
 32 61  1  0  0  0  0
 32 71  1  0  0  0  0
 32 79  2  0  0  0  0
 33 67  1  0  0  0  0
 33 72  1  0  0  0  0
 33 80  2  0  0  0  0
 34 37  1  0  0  0  0
 35 49  1  0  0  0  0
 36 66  1  0  0  0  0
 37 39  1  0  0  0  0
 38 40  1  0  0  0  0
 38 43  1  0  0  0  0
 39 47  1  0  0  0  0
 40 50  1  0  0  0  0
 41 44  1  0  0  0  0
 41 52  1  0  0  0  0
 42 48  1  0  0  0  0
 42 51  1  0  0  0  0
 43 67  1  0  0  0  0
 44 65  1  0  0  0  0
 45 50  1  0  0  0  0
 45 67  1  0  0  0  0
 46 52  1  0  0  0  0
 46 65  1  0  0  0  0
 47 70  1  0  0  0  0
 48 51  1  0  0  0  0
 49 66  1  0  0  0  0
 50 64  1  0  0  0  0
 51 72  1  0  0  0  0
 52 73  1  0  0  0  0
 53 61  1  0  0  0  0
 54 62  1  0  0  0  0
 55 62  1  0  0  0  0
 56 62  1  0  0  0  0
 57 74  1  0  0  0  0
 58 59  1  0  0  0  0
 58 73  1  0  0  0  0
 59 82  1  0  0  0  0
 60 62  1  0  0  0  0
 60 71  1  0  0  0  0
 61 74  1  0  0  0  0
 63 64  1  0  0  0  0
M  CHG  2  73   1  74   1
M  ISO  4  33 100  59 101  72 100  82 101
M  END
> <Batch ID>
0146

> <Smiles>
CNC(C)C(=O)NC(C(=O)N1Cc2cc([101O:1][101CH2:1]CNC3CCN(C(=O)C4CC4[100NH:0][100C:0](=O)N4CCCC(n5nc(-c6ccc(Oc7ccc(F)cc7F)cc6)c(C(N)=O)c5N)C4)C3)ccc2CC1C(=O)NC1CCCc2ccccc21)C(C)(C)C

> <Shape>
0.313

> <Color>
0.062

> <Negative vol penalty>
0.000

$$$$

  -OEChem-04052321313D

 94103  0     1  0  0  0  0  0999 V2000
  -16.6929  -30.1036   23.8463 C   0  0  0  0  0  0  0  0  0  0  0  0
  -17.8135  -30.8649   23.5342 C   0  0  0  0  0  0  0  0  0  0  0  0
  -29.3261  -17.8661   19.3179 C   0  0  0  0  0  0  0  0  0  0  0  0
  -29.8630  -17.8929   16.9625 C   0  0  0  0  0  0  0  0  0  0  0  0
  -16.7650  -28.7129   23.8008 C   0  0  0  0  0  0  0  0  0  0  0  0
  -19.0031  -30.2363   23.1648 C   0  0  0  0  0  0  0  0  0  0  0  0
  -26.6111  -29.6150   20.9386 C   0  0  0  0  0  0  0  0  0  0  0  0
  -29.7032  -16.5251   19.3887 C   0  0  0  0  0  0  0  0  0  0  0  0
  -30.2402  -16.5518   17.0332 C   0  0  0  0  0  0  0  0  0  0  0  0
  -27.6864  -28.7291   20.8868 C   0  0  0  0  0  0  0  0  0  0  0  0
  -28.3764  -13.5197   18.5940 C   0  0  0  0  0  0  0  0  0  0  0  0
  -27.5384  -12.6473   19.2884 C   0  0  0  0  0  0  0  0  0  0  0  0
  -26.3312  -27.1662   19.6458 C   0  0  0  0  0  0  0  0  0  0  0  0
  -29.7413  -25.2304   13.3331 C   0  0  0  0  0  0  0  0  0  0  0  0
  -30.0995  -27.6193   13.2919 C   0  0  0  0  0  0  0  0  0  0  0  0
  -29.3437  -12.1204   20.8051 C   0  0  0  0  0  0  0  0  0  0  0  0
  -29.4059  -18.5500   18.1048 C   0  0  0  0  0  0  0  0  0  0  0  0
  -29.5711  -21.0138   18.7451 C   0  0  0  0  0  0  0  0  0  0  0  0
  -17.9601  -28.0675   23.4426 C   0  0  0  0  0  0  0  0  0  0  0  0
  -25.3824  -29.2780   20.3528 C   0  0  0  0  0  0  0  0  0  0  0  0
  -19.0891  -28.8343   23.0897 C   0  0  0  0  0  0  0  0  0  0  0  0
  -25.2427  -28.0507   19.6893 C   0  0  0  0  0  0  0  0  0  0  0  0
  -29.1691  -26.5037   11.3614 C   0  0  0  0  0  0  0  0  0  0  0  0
  -29.2404  -25.2830   12.0324 C   0  0  0  0  0  0  0  0  0  0  0  0
  -30.1603  -15.8679   18.2463 C   0  0  0  0  0  0  0  0  0  0  0  0
  -27.5457  -27.5033   20.2428 C   0  0  0  0  0  0  0  0  0  0  0  0
  -29.6981  -13.6924   19.0051 C   0  0  0  0  0  0  0  0  0  0  0  0
  -30.1708  -26.3986   13.9629 C   0  0  0  0  0  0  0  0  0  0  0  0
  -29.5987  -27.6719   11.9911 C   0  0  0  0  0  0  0  0  0  0  0  0
  -28.0220  -11.9477   20.3940 C   0  0  0  0  0  0  0  0  0  0  0  0
  -30.1817  -12.9928   20.1107 C   0  0  0  0  0  0  0  0  0  0  0  0
  -29.0159  -19.9351   18.0310 C   0  0  0  0  0  0  0  0  0  0  0  0
  -28.8577  -22.1088   18.3226 C   0  0  0  0  0  0  0  0  0  0  0  0
  -30.6366  -21.0251   19.7044 C   0  0  0  0  0  0  0  0  0  0  0  0
  -22.4241  -28.8502   21.4342 C   0  0  0  0  0  0  0  0  0  0  0  0
  -21.7270  -28.5769   18.2780 C   0  0  0  0  0  0  0  0  0  0  0  0
  -23.2034  -27.0135   15.3809 C   0  0  0  0  0  0  0  0  0  0  0  0
  -25.8082  -23.3023   13.3099 C   0  0  0  0  0  0  0  0  0  0  0  0
  -17.9802  -26.5598   23.4020 C   0  0  0  0  0  0  0  0  0  0  0  0
  -24.2403  -30.2559   20.3942 C   0  0  0  0  0  0  0  0  0  0  0  0
  -23.9507  -27.6498   19.0270 C   0  0  0  0  0  0  0  0  0  0  0  0
  -19.3918  -25.9830   23.4335 C   0  0  0  0  0  0  0  0  0  0  0  0
  -24.5546  -23.3535   16.6419 C   0  0  0  0  0  0  0  0  0  0  0  0
  -20.2607  -26.6781   22.3960 C   0  0  0  0  0  0  0  0  0  0  0  0
  -25.6059  -22.5805   17.4402 C   0  0  0  0  0  0  0  0  0  0  0  0
  -24.3601  -22.7646   15.2464 C   0  0  0  0  0  0  0  0  0  0  0  0
  -29.7711  -23.0029   11.2295 C   0  0  0  0  0  0  0  0  0  0  0  0
  -26.6485  -21.8499   15.2543 C   0  0  0  0  0  0  0  0  0  0  0  0
  -29.3633  -22.0965   10.0764 C   0  0  0  0  0  0  0  0  0  0  0  0
  -27.0092  -22.8461   10.2872 C   0  0  0  0  0  0  0  0  0  0  0  0
  -20.4025  -28.1718   22.7148 C   0  0  1  0  0  0  0  0  0  0  0  0
  -22.8788  -29.5927   20.2096 C   0  0  1  0  0  0  0  0  0  0  0  0
  -26.9200  -22.4406   16.6485 C   0  0  2  0  0  0  0  0  0  0  0  0
  -27.3815  -23.7653   11.4472 C   0  0  2  0  0  0  0  0  0  0  0  0
  -28.6366  -26.5694    9.9649 C   0  0  0  0  0  0  0  0  0  0  0  0
  -28.1979  -30.7998   10.8746 C   0  0  0  0  0  0  0  0  0  0  0  0
  -23.0360  -27.6008   12.9469 C   0  0  0  0  0  0  0  0  0  0  0  0
  -19.4473  -26.5493   18.2432 C   0  0  0  0  0  0  0  0  0  0  0  0
  -20.2382  -25.8032   15.9880 C   0  0  0  0  0  0  0  0  0  0  0  0
  -19.4516  -28.1472   16.3194 C   0  0  0  0  0  0  0  0  0  0  0  0
  -27.5233  -20.6572    9.2110 C   0  0  0  0  0  0  0  0  0  0  0  0
  -26.1449  -27.1785   15.0992 C   0  0  0  0  0  0  0  0  0  0  0  0
  -30.8578  -26.2632   19.4729 C   0  0  0  0  0  0  0  0  0  0  0  0
  -31.2861  -25.1984   17.2545 C   0  0  0  0  0  0  0  0  0  0  0  0
  -28.7397  -29.8893   11.9559 C   0  0  0  0  0  0  0  0  0  0  0  0
  -29.9040  -27.2012   20.1860 C   0  0  0  0  0  0  0  0  0  1  0  0
  -30.7075  -25.0678   15.8594 C   0  0  0  0  0  0  0  0  0  0  0  0
  -21.6760  -27.4374   17.2892 C   0  0  1  0  0  0  0  0  0  0  0  0
  -23.8723  -27.7141   14.2120 C   0  0  2  0  0  0  0  0  0  0  0  0
  -20.2208  -26.9838   16.9824 C   0  0  0  0  0  0  0  0  0  0  0  0
  -28.0260  -20.3107   17.2167 N   0  0  0  0  0  0  0  0  0  0  0  0
  -27.9535  -21.6377   17.4167 N   0  0  0  0  0  0  0  0  0  0  0  0
  -28.8134  -24.0991   11.4174 N   0  0  1  0  0  0  0  0  0  0  0  0
  -22.8613  -28.6374   19.1000 N   0  0  0  0  0  0  0  0  0  0  0  0
  -25.6436  -22.6601   14.5482 N   0  0  0  0  0  0  0  0  0  0  0  0
  -28.9218  -23.4190   18.6414 N   0  0  0  0  0  0  0  0  0  0  0  0
  -31.2612  -19.8116   20.0234 N   0  0  0  0  0  0  0  0  0  0  0  0
  -21.0529  -28.8318   21.6043 N   0  0  0  0  0  0  0  0  0  0  0  0
  -22.4236  -27.8801   16.1172 N   0  0  0  0  0  0  0  0  0  0  0  0
  -27.0574  -23.1580   12.7188 N   0  0  0  0  0  0  0  0  0  0  0  0
  -27.9352  -21.6601   10.2518 N   0  3  1  0  0  0  0  0  0  0  0  0
  -25.2106  -27.1148   13.9459 N   0  3  0  0  0  0  0  0  0  0  0  0
  -30.4084  -26.0809   18.0697 N   0  3  0  0  0  0  0  0  0  0  0  0
  -31.0122  -22.0774   20.2745 O   0  0  0  0  0  0  0  0  0  0  0  0
  -23.2557  -28.3311   22.1696 O   0  0  0  0  0  0  0  0  0  0  0  0
  -20.7982  -29.3879   18.3147 O   0  0  0  0  0  0  0  0  0  0  0  0
  -23.3545  -25.8165   15.6150 O   0  0  0  0  0  0  0  0  0  0  0  0
  -24.9102  -23.9602   12.7734 O   0  0  0  0  0  0  0  0  0  0  0  0
  -30.5287  -14.5595   18.3151 O   0  0  0  0  0  0  0  0  0  0  0  0
  -28.5935  -26.6365   20.1914 O   0  0  0  0  0  0  0  0  0  1  0  0
  -30.6642  -26.3467   15.2405 O   0  0  0  0  0  0  0  0  0  0  0  0
  -29.5373  -28.8736   11.3512 O   0  0  0  0  0  0  0  0  0  0  0  0
  -27.2167  -11.1112   21.0617 F   0  0  0  0  0  0  0  0  0  0  0  0
  -31.4502  -13.1555   20.5110 F   0  0  0  0  0  0  0  0  0  0  0  0
  1  2  1  0  0  0  0
  1  5  2  0  0  0  0
  2  6  2  0  0  0  0
  3  8  2  0  0  0  0
  3 17  1  0  0  0  0
  4  9  1  0  0  0  0
  4 17  2  0  0  0  0
  5 19  1  0  0  0  0
  6 21  1  0  0  0  0
  7 10  2  0  0  0  0
  7 20  1  0  0  0  0
  8 25  1  0  0  0  0
  9 25  2  0  0  0  0
 10 26  1  0  0  0  0
 11 12  2  0  0  0  0
 11 27  1  0  0  0  0
 12 30  1  0  0  0  0
 13 22  1  0  0  0  0
 13 26  2  0  0  0  0
 14 24  2  0  0  0  0
 14 28  1  0  0  0  0
 15 28  2  0  0  0  0
 15 29  1  0  0  0  0
 16 30  2  0  0  0  0
 16 31  1  0  0  0  0
 17 32  1  0  0  0  0
 18 32  1  0  0  0  0
 18 33  2  0  0  0  0
 18 34  1  0  0  0  0
 19 21  2  0  0  0  0
 19 39  1  0  0  0  0
 20 22  2  0  0  0  0
 20 40  1  0  0  0  0
 21 51  1  0  0  0  0
 22 41  1  0  0  0  0
 23 24  1  0  0  0  0
 23 29  2  0  0  0  0
 23 55  1  0  0  0  0
 24 73  1  0  0  0  0
 25 89  1  0  0  0  0
 26 90  1  0  0  0  0
 27 31  2  0  0  0  0
 27 89  1  0  0  0  0
 28 91  1  0  0  0  0
 29 92  1  0  0  0  0
 30 93  1  0  0  0  0
 31 94  1  0  0  0  0
 32 71  2  0  0  0  0
 33 72  1  0  0  0  0
 33 76  1  0  0  0  0
 34 77  1  0  0  0  0
 34 84  2  0  0  0  0
 35 52  1  0  0  0  0
 35 78  1  0  0  0  0
 35 85  2  0  0  0  0
 36 68  1  0  0  0  0
 36 74  1  0  0  0  0
 36 86  2  0  0  0  0
 37 69  1  0  0  0  0
 37 79  1  0  0  0  0
 37 87  2  0  0  0  0
 38 75  1  0  0  0  0
 38 80  1  0  0  0  0
 38 88  2  0  0  0  0
 39 42  1  0  0  0  0
 40 52  1  0  0  0  0
 41 74  1  0  0  0  0
 42 44  1  0  0  0  0
 43 45  1  0  0  0  0
 43 46  1  0  0  0  0
 44 51  1  0  0  0  0
 45 53  1  0  0  0  0
 46 75  1  0  0  0  0
 47 49  1  0  0  0  0
 47 73  1  0  0  0  0
 48 53  1  0  0  0  0
 48 75  1  0  0  0  0
 49 81  1  0  0  0  0
 50 54  1  0  0  0  0
 50 81  1  0  0  0  0
 51 78  1  0  0  0  0
 52 74  1  0  0  0  0
 53 72  1  0  0  0  0
 54 73  1  0  0  0  0
 54 80  1  0  0  0  0
 56 65  1  0  0  0  0
 57 69  1  0  0  0  0
 58 70  1  0  0  0  0
 59 70  1  0  0  0  0
 60 70  1  0  0  0  0
 61 81  1  0  0  0  0
 62 82  1  0  0  0  0
 63 66  1  0  0  0  0
 63 83  1  0  0  0  0
 64 67  1  0  0  0  0
 64 83  1  0  0  0  0
 65 92  1  0  0  0  0
 66 90  1  0  0  0  0
 67 91  1  0  0  0  0
 68 70  1  0  0  0  0
 68 79  1  0  0  0  0
 69 82  1  0  0  0  0
 71 72  1  0  0  0  0
M  CHG  3  81   1  82   1  83   1
M  ISO  4  38 100  66 101  80 100  90 101
M  END
> <Batch ID>
0146

> <Smiles>
CCOc1cc(OCCNC[101CH2:1][101O:1]c2ccc3c(c2)CN(C(=O)C(NC(=O)C(C)NC)C(C)(C)C)C(C(=O)NC2CCCc4ccccc42)C3)cc(N2CCN(C)CC2[100NH:0][100C:0](=O)N2CCCC(n3nc(-c4ccc(Oc5ccc(F)cc5F)cc4)c(C(N)=O)c3N)C2)c1C

> <Shape>
0.228

> <Color>
0.106

> <Negative vol penalty>
0.000

$$$$

  -OEChem-04052321313D

 87 95  0     1  0  0  0  0  0999 V2000
  -22.6204  -27.8258   24.8558 C   0  0  0  0  0  0  0  0  0  0  0  0
  -22.8124  -26.4485   24.8164 C   0  0  0  0  0  0  0  0  0  0  0  0
  -27.4355  -23.6121   20.5738 C   0  0  0  0  0  0  0  0  0  0  0  0
  -28.9274  -23.6334   18.6735 C   0  0  0  0  0  0  0  0  0  0  0  0
  -21.6597  -28.4182   24.0372 C   0  0  0  0  0  0  0  0  0  0  0  0
  -22.0432  -25.6626   23.9591 C   0  0  0  0  0  0  0  0  0  0  0  0
  -23.8332  -20.6108   20.9959 C   0  0  0  0  0  0  0  0  0  0  0  0
  -27.5329  -25.0005   20.6658 C   0  0  0  0  0  0  0  0  0  0  0  0
  -29.0248  -25.0218   18.7655 C   0  0  0  0  0  0  0  0  0  0  0  0
  -23.6678  -19.2540   21.2706 C   0  0  0  0  0  0  0  0  0  0  0  0
  -27.0073  -12.6935   20.8141 C   0  0  0  0  0  0  0  0  0  0  0  0
  -28.0047  -11.7889   20.4502 C   0  0  0  0  0  0  0  0  0  0  0  0
  -26.2267  -27.6983   19.1008 C   0  0  0  0  0  0  0  0  0  0  0  0
  -25.0482  -28.4194   19.2921 C   0  0  0  0  0  0  0  0  0  0  0  0
  -21.7403  -19.2016   19.8211 C   0  0  0  0  0  0  0  0  0  0  0  0
  -27.5136  -14.0342   18.8690 C   0  0  0  0  0  0  0  0  0  0  0  0
  -25.9217  -29.2967   21.3668 C   0  0  0  0  0  0  0  0  0  0  0  0
  -28.1329  -22.9285   19.5777 C   0  0  0  0  0  0  0  0  0  0  0  0
  -27.0951  -20.7549   18.7374 C   0  0  0  0  0  0  0  0  0  0  0  0
  -20.8850  -27.6404   23.1623 C   0  0  0  0  0  0  0  0  0  0  0  0
  -22.9454  -21.2769   20.1388 C   0  0  0  0  0  0  0  0  0  0  0  0
  -21.0704  -26.2451   23.1289 C   0  0  0  0  0  0  0  0  0  0  0  0
  -21.8981  -20.5663   19.5351 C   0  0  0  0  0  0  0  0  0  0  0  0
  -28.5110  -13.1295   18.5050 C   0  0  0  0  0  0  0  0  0  0  0  0
  -28.3275  -25.7054   19.7616 C   0  0  0  0  0  0  0  0  0  0  0  0
  -22.6196  -18.5498   20.6854 C   0  0  0  0  0  0  0  0  0  0  0  0
  -26.7617  -13.8162   20.0234 C   0  0  0  0  0  0  0  0  0  0  0  0
  -28.7565  -12.0068   19.2957 C   0  0  0  0  0  0  0  0  0  0  0  0
  -27.2527  -27.7762   20.0426 C   0  0  0  0  0  0  0  0  0  0  0  0
  -24.8957  -29.2187   20.4250 C   0  0  0  0  0  0  0  0  0  0  0  0
  -27.1002  -28.5754   21.1756 C   0  0  0  0  0  0  0  0  0  0  0  0
  -28.0332  -21.4943   19.4825 C   0  0  0  0  0  0  0  0  0  0  0  0
  -27.4223  -19.4429   18.9786 C   0  0  0  0  0  0  0  0  0  0  0  0
  -26.0237  -21.2131   17.9020 C   0  0  0  0  0  0  0  0  0  0  0  0
  -20.9088  -23.6963   20.4586 C   0  0  0  0  0  0  0  0  0  0  0  0
  -20.5872  -23.3395   17.2506 C   0  0  0  0  0  0  0  0  0  0  0  0
  -20.8410  -21.3058   14.5218 C   0  0  0  0  0  0  0  0  0  0  0  0
  -31.2255  -15.3915   19.4952 C   0  0  0  0  0  0  0  0  0  0  0  0
  -19.8261  -28.3201   22.3309 C   0  0  0  0  0  0  0  0  0  0  0  0
  -23.1533  -22.7345   19.8317 C   0  0  0  0  0  0  0  0  0  0  0  0
  -20.9297  -21.2303   18.5919 C   0  0  0  0  0  0  0  0  0  0  0  0
  -19.3120  -27.4611   21.1785 C   0  0  0  0  0  0  0  0  0  0  0  0
  -30.5859  -17.4069   22.3598 C   0  0  0  0  0  0  0  0  0  0  0  0
  -19.0082  -26.0464   21.6614 C   0  0  0  0  0  0  0  0  0  0  0  0
  -29.7932  -18.5913   21.8042 C   0  0  0  0  0  0  0  0  0  0  0  0
  -31.6602  -16.9378   21.3811 C   0  0  0  0  0  0  0  0  0  0  0  0
  -30.3778  -17.8158   19.4685 C   0  0  0  0  0  0  0  0  0  0  0  0
  -20.2727  -25.3618   22.1942 C   0  0  1  0  0  0  0  0  0  0  0  0
  -21.8847  -23.4301   19.3476 C   0  0  1  0  0  0  0  0  0  0  0  0
  -29.2457  -18.2886   20.3964 C   0  0  2  0  0  0  0  0  0  0  0  0
  -20.8248  -20.6445   12.1011 C   0  0  0  0  0  0  0  0  0  0  0  0
  -29.6448   -9.3874   17.2858 C   0  0  0  0  0  0  0  0  0  0  0  0
  -30.0073   -8.8532   19.7220 C   0  0  0  0  0  0  0  0  0  0  0  0
  -17.5763  -23.1360   17.7010 C   0  0  0  0  0  0  0  0  0  0  0  0
  -17.3657  -22.1860   15.3942 C   0  0  0  0  0  0  0  0  0  0  0  0
  -18.2439  -24.4990   15.7133 C   0  0  0  0  0  0  0  0  0  0  0  0
  -23.6964  -22.0101   14.1904 C   0  0  0  0  0  0  0  0  0  0  0  0
  -29.3061  -13.3786   17.2661 C   0  0  0  0  0  0  0  0  0  0  0  0
  -23.4355  -15.0246   20.8215 C   0  0  0  0  0  0  0  0  0  0  0  0
  -30.6982  -13.9594   17.5382 C   0  0  0  0  0  0  0  0  0  0  0  0
  -23.6310  -16.4717   21.2459 C   0  0  0  0  0  0  0  0  0  1  0  0
  -24.6700  -14.1798   21.0949 C   0  0  0  0  0  0  0  0  0  0  0  0
  -19.6900  -22.5253   16.3500 C   0  0  1  0  0  0  0  0  0  0  0  0
  -21.4742  -21.5227   13.1593 C   0  0  2  0  0  0  0  0  0  0  0  0
  -29.3175   -9.7682   18.7216 C   0  0  0  0  0  0  0  0  0  0  0  0
  -18.2359  -23.0742   16.3089 C   0  0  0  0  0  0  0  0  0  0  0  0
  -28.8918  -20.7166   20.1473 N   0  0  0  0  0  0  0  0  0  0  0  0
  -28.4945  -19.4750   19.8209 N   0  0  0  0  0  0  0  0  0  0  0  0
  -21.1710  -22.6584   18.3281 N   0  0  0  0  0  0  0  0  0  0  0  0
  -31.0751  -16.6662   20.0659 N   0  0  0  0  0  0  0  0  0  0  0  0
  -26.8945  -18.2766   18.5503 N   0  0  0  0  0  0  0  0  0  0  0  0
  -25.8275  -22.5939   17.7643 N   0  0  0  0  0  0  0  0  0  0  0  0
  -21.1006  -24.9061   21.0981 N   0  0  0  0  0  0  0  0  0  0  0  0
  -20.3490  -22.4810   15.0492 N   0  0  0  0  0  0  0  0  0  0  0  0
  -30.6351  -15.2166   18.2496 N   0  0  0  0  0  0  0  0  0  0  0  0
  -22.9290  -21.2028   13.2073 N   0  3  0  0  0  0  0  0  0  0  0  0
  -25.2528  -20.4212   17.3086 O   0  0  0  0  0  0  0  0  0  0  0  0
  -20.0447  -22.8662   20.7156 O   0  0  0  0  0  0  0  0  0  0  0  0
  -20.7692  -24.5342   17.0028 O   0  0  0  0  0  0  0  0  0  0  0  0
  -20.7848  -20.2035   15.0623 O   0  0  0  0  0  0  0  0  0  0  0  0
  -31.8359  -14.4755   20.0568 O   0  0  0  0  0  0  0  0  0  0  0  0
  -28.4225  -27.0602   19.8509 O   0  0  0  0  0  0  0  0  0  0  0  0
  -22.4555  -17.2256   20.9524 O   0  0  0  0  0  0  0  0  0  1  0  0
  -25.7813  -14.7046   20.3813 O   0  0  0  0  0  0  0  0  0  0  0  0
  -29.7278  -11.1139   18.9555 O   0  0  0  0  0  0  0  0  0  0  0  0
  -23.7646  -29.9124   20.6078 F   0  0  0  0  0  0  0  0  0  0  0  0
  -28.0829  -28.6552   22.0833 F   0  0  0  0  0  0  0  0  0  0  0  0
  1  2  1  0  0  0  0
  1  5  2  0  0  0  0
  2  6  2  0  0  0  0
  3  8  2  0  0  0  0
  3 18  1  0  0  0  0
  4  9  1  0  0  0  0
  4 18  2  0  0  0  0
  5 20  1  0  0  0  0
  6 22  1  0  0  0  0
  7 10  2  0  0  0  0
  7 21  1  0  0  0  0
  8 25  1  0  0  0  0
  9 25  2  0  0  0  0
 10 26  1  0  0  0  0
 11 12  2  0  0  0  0
 11 27  1  0  0  0  0
 12 28  1  0  0  0  0
 13 14  2  0  0  0  0
 13 29  1  0  0  0  0
 14 30  1  0  0  0  0
 15 23  1  0  0  0  0
 15 26  2  0  0  0  0
 16 24  1  0  0  0  0
 16 27  2  0  0  0  0
 17 30  2  0  0  0  0
 17 31  1  0  0  0  0
 18 32  1  0  0  0  0
 19 32  1  0  0  0  0
 19 33  2  0  0  0  0
 19 34  1  0  0  0  0
 20 22  2  0  0  0  0
 20 39  1  0  0  0  0
 21 23  2  0  0  0  0
 21 40  1  0  0  0  0
 22 48  1  0  0  0  0
 23 41  1  0  0  0  0
 24 28  2  0  0  0  0
 24 58  1  0  0  0  0
 25 82  1  0  0  0  0
 26 83  1  0  0  0  0
 27 84  1  0  0  0  0
 28 85  1  0  0  0  0
 29 31  2  0  0  0  0
 29 82  1  0  0  0  0
 30 86  1  0  0  0  0
 31 87  1  0  0  0  0
 32 67  2  0  0  0  0
 33 68  1  0  0  0  0
 33 71  1  0  0  0  0
 34 72  1  0  0  0  0
 34 77  2  0  0  0  0
 35 49  1  0  0  0  0
 35 73  1  0  0  0  0
 35 78  2  0  0  0  0
 36 63  1  0  0  0  0
 36 69  1  0  0  0  0
 36 79  2  0  0  0  0
 37 64  1  0  0  0  0
 37 74  1  0  0  0  0
 37 80  2  0  0  0  0
 38 70  1  0  0  0  0
 38 75  1  0  0  0  0
 38 81  2  0  0  0  0
 39 42  1  0  0  0  0
 40 49  1  0  0  0  0
 41 69  1  0  0  0  0
 42 44  1  0  0  0  0
 43 45  1  0  0  0  0
 43 46  1  0  0  0  0
 44 48  1  0  0  0  0
 45 50  1  0  0  0  0
 46 70  1  0  0  0  0
 47 50  1  0  0  0  0
 47 70  1  0  0  0  0
 48 73  1  0  0  0  0
 49 69  1  0  0  0  0
 50 68  1  0  0  0  0
 51 64  1  0  0  0  0
 52 65  1  0  0  0  0
 53 65  1  0  0  0  0
 54 66  1  0  0  0  0
 55 66  1  0  0  0  0
 56 66  1  0  0  0  0
 57 76  1  0  0  0  0
 58 60  1  0  0  0  0
 59 61  1  0  0  0  0
 59 62  1  0  0  0  0
 60 75  1  0  0  0  0
 61 83  1  0  0  0  0
 62 84  1  0  0  0  0
 63 66  1  0  0  0  0
 63 74  1  0  0  0  0
 64 76  1  0  0  0  0
 65 85  1  0  0  0  0
 67 68  1  0  0  0  0
M  CHG  1  76   1
M  ISO  4  38 100  61 101  75 100  83 101
M  END
> <Batch ID>
0146

> <Smiles>
CNC(C)C(=O)NC(C(=O)N1Cc2cc([101O:1][101CH2:1]CCOc3ccc(OC(C)C)c(CC[100NH:0][100C:0](=O)N4CCCC(n5nc(-c6ccc(Oc7ccc(F)cc7F)cc6)c(C(N)=O)c5N)C4)c3)ccc2CC1C(=O)NC1CCCc2ccccc21)C(C)(C)C

> <Shape>
0.234

> <Color>
0.089

> <Negative vol penalty>
0.000

$$$$

  -OEChem-04052321313D

 91101  0     1  0  0  0  0  0999 V2000
  -27.5602  -28.3127   19.1333 C   0  0  0  0  0  0  0  0  0  0  0  0
  -27.1611  -27.1624   19.8065 C   0  0  0  0  0  0  0  0  0  0  0  0
  -29.9373  -20.3244   19.7180 C   0  0  0  0  0  0  0  0  0  0  0  0
  -27.7374  -20.6617   20.6581 C   0  0  0  0  0  0  0  0  0  0  0  0
  -26.8523  -29.5013   19.3064 C   0  0  0  0  0  0  0  0  0  0  0  0
  -26.0545  -27.2004   20.6540 C   0  0  0  0  0  0  0  0  0  0  0  0
  -22.9738  -23.2338   20.0057 C   0  0  0  0  0  0  0  0  0  0  0  0
  -29.9148  -21.6196   19.2007 C   0  0  0  0  0  0  0  0  0  0  0  0
  -27.7149  -21.9569   20.1408 C   0  0  0  0  0  0  0  0  0  0  0  0
  -23.3632  -22.0246   20.5802 C   0  0  0  0  0  0  0  0  0  0  0  0
  -30.3928  -24.7663   20.3420 C   0  0  0  0  0  0  0  0  0  0  0  0
  -31.5376  -25.5474   20.5001 C   0  0  0  0  0  0  0  0  0  0  0  0
  -20.3239  -16.4194   25.1976 C   0  0  0  0  0  0  0  0  0  0  0  0
  -21.5779  -17.0765   25.2489 C   0  0  0  0  0  0  0  0  0  0  0  0
  -21.8578  -22.4222   22.4227 C   0  0  0  0  0  0  0  0  0  0  0  0
  -31.7337  -25.7458   18.1003 C   0  0  0  0  0  0  0  0  0  0  0  0
  -28.8485  -19.8454   20.4466 C   0  0  0  0  0  0  0  0  0  0  0  0
  -29.3479  -18.1034   22.2421 C   0  0  0  0  0  0  0  0  0  0  0  0
  -25.7306  -29.5515   20.1490 C   0  0  0  0  0  0  0  0  0  0  0  0
  -22.0300  -24.0528   20.6419 C   0  0  0  0  0  0  0  0  0  0  0  0
  -25.3317  -28.3912   20.8395 C   0  0  0  0  0  0  0  0  0  0  0  0
  -21.4563  -23.6401   21.8530 C   0  0  0  0  0  0  0  0  0  0  0  0
  -28.8036  -22.4359   19.4122 C   0  0  0  0  0  0  0  0  0  0  0  0
  -22.8073  -21.6200   21.7903 C   0  0  0  0  0  0  0  0  0  0  0  0
  -29.9185  -24.4748   19.0630 C   0  0  0  0  0  0  0  0  0  0  0  0
  -32.2080  -26.0372   19.3793 C   0  0  0  0  0  0  0  0  0  0  0  0
  -30.5889  -24.9646   17.9422 C   0  0  0  0  0  0  0  0  0  0  0  0
  -28.8709  -18.5074   20.9807 C   0  0  0  0  0  0  0  0  0  0  0  0
  -20.4543  -15.3508   24.3383 C   0  0  0  0  0  0  0  0  0  0  0  0
  -22.4365  -16.3896   24.4192 C   0  0  0  0  0  0  0  0  0  0  0  0
  -29.1486  -16.7447   22.2655 C   0  0  0  0  0  0  0  0  0  0  0  0
  -29.9197  -18.8865   23.2983 C   0  0  0  0  0  0  0  0  0  0  0  0
  -22.0602  -26.9962   21.8417 C   0  0  0  0  0  0  0  0  0  0  0  0
  -18.8878  -26.4477   22.2385 C   0  0  0  0  0  0  0  0  0  0  0  0
  -16.3630  -24.1809   22.6039 C   0  0  0  0  0  0  0  0  0  0  0  0
  -25.5539  -12.7049   20.5750 C   0  0  0  0  0  0  0  0  0  0  0  0
  -25.0255  -30.8708   20.3411 C   0  0  0  0  0  0  0  0  0  0  0  0
  -21.6008  -25.3415   19.9958 C   0  0  0  0  0  0  0  0  0  0  0  0
  -20.4240  -24.4734   22.5661 C   0  0  0  0  0  0  0  0  0  0  0  0
  -23.6395  -30.7354   20.9664 C   0  0  0  0  0  0  0  0  0  0  0  0
  -28.4997  -13.2430   18.8458 C   0  0  0  0  0  0  0  0  0  0  0  0
  -23.6850  -29.7955   22.1670 C   0  0  0  0  0  0  0  0  0  0  0  0
  -25.3404  -15.2609   27.4810 C   0  0  0  0  0  0  0  0  0  0  0  0
  -23.8818  -15.0579   27.1791 C   0  0  0  0  0  0  0  0  0  0  0  0
  -28.9600  -14.6168   19.3334 C   0  0  0  0  0  0  0  0  0  0  0  0
  -23.4607  -13.5145   23.5167 C   0  0  0  0  0  0  0  0  0  0  0  0
  -22.7670  -14.9888   21.5812 C   0  0  0  0  0  0  0  0  0  0  0  0
  -26.9914  -13.2188   18.6246 C   0  0  0  0  0  0  0  0  0  0  0  0
  -24.0436  -12.5172   22.5182 C   0  0  0  0  0  0  0  0  0  0  0  0
  -23.3631  -13.9579   20.6270 C   0  0  0  0  0  0  0  0  0  0  0  0
  -26.6483  -14.9777   20.3285 C   0  0  0  0  0  0  0  0  0  0  0  0
  -24.1216  -28.3864   21.7483 C   0  0  1  0  0  0  0  0  0  0  0  0
  -21.0123  -26.3402   20.9877 C   0  0  1  0  0  0  0  0  0  0  0  0
  -24.8493  -15.3340   26.0617 C   0  0  0  0  0  0  0  0  0  0  0  0
  -28.1677  -15.0541   20.5782 C   0  0  2  0  0  0  0  0  0  0  0  0
  -22.3133  -14.3300   22.8959 C   0  0  0  0  0  0  0  0  0  0  0  0
  -18.0892  -14.5541   24.5793 C   0  0  0  0  0  0  0  0  0  0  0  0
  -13.8813  -24.0345   22.9462 C   0  0  0  0  0  0  0  0  0  0  0  0
  -19.2493  -27.2143   25.1696 C   0  0  0  0  0  0  0  0  0  0  0  0
  -17.0311  -26.1564   25.6476 C   0  0  0  0  0  0  0  0  0  0  0  0
  -17.1719  -28.1118   24.1052 C   0  0  0  0  0  0  0  0  0  0  0  0
  -15.9813  -22.7190   20.0590 C   0  0  0  0  0  0  0  0  0  0  0  0
  -19.4583  -14.3402   23.9263 C   0  0  0  0  0  0  0  0  0  0  0  0
  -24.8141  -16.6698   25.3291 C   0  0  0  0  0  0  0  0  0  0  0  0
  -23.3210  -18.0483   22.1100 C   0  0  0  0  0  0  0  0  0  0  0  0
  -23.5870  -19.3963   21.4693 C   0  0  0  0  0  0  0  0  0  1  0  0
  -23.8574  -16.6461   24.1062 C   0  0  2  0  0  0  0  0  0  0  0  0
  -18.0332  -25.8625   23.3367 C   0  0  1  0  0  0  0  0  0  0  0  0
  -15.0095  -24.0628   21.9268 C   0  0  2  0  0  0  0  0  0  0  0  0
  -17.8922  -26.8212   24.5526 C   0  0  0  0  0  0  0  0  0  0  0  0
  -28.4041  -17.4877   20.2552 N   0  0  0  0  0  0  0  0  0  0  0  0
  -21.7426  -15.3428   23.8708 N   0  0  0  0  0  0  0  0  0  0  0  0
  -28.5867  -16.4296   21.0634 N   0  0  0  0  0  0  0  0  0  0  0  0
  -20.0418  -25.7281   21.8975 N   0  0  0  0  0  0  0  0  0  0  0  0
  -26.2753  -13.6470   19.8261 N   0  0  0  0  0  0  0  0  0  0  0  0
  -24.4274  -13.1752   21.2698 N   0  0  0  0  0  0  0  0  0  0  0  0
  -29.4012  -15.8006   23.1969 N   0  0  0  0  0  0  0  0  0  0  0  0
  -30.0516  -20.2689   23.1090 N   0  0  0  0  0  0  0  0  0  0  0  0
  -23.0225  -27.6812   21.1245 N   0  0  0  0  0  0  0  0  0  0  0  0
  -16.7654  -25.4950   22.7154 N   0  0  0  0  0  0  0  0  0  0  0  0
  -14.9426  -22.8136   21.1169 N   0  3  0  0  0  0  0  0  0  0  0  0
  -24.0754  -17.9530   23.3756 N   0  3  0  0  0  0  0  0  0  0  0  0
  -30.3176  -18.3731   24.3715 O   0  0  0  0  0  0  0  0  0  0  0  0
  -21.9993  -26.8901   23.0610 O   0  0  0  0  0  0  0  0  0  0  0  0
  -18.5404  -27.5007   21.6980 O   0  0  0  0  0  0  0  0  0  0  0  0
  -16.9980  -23.2052   22.9980 O   0  0  0  0  0  0  0  0  0  0  0  0
  -25.8964  -11.5171   20.6261 O   0  0  0  0  0  0  0  0  0  0  0  0
  -28.7815  -23.6999   18.9078 O   0  0  0  0  0  0  0  0  0  0  0  0
  -23.1888  -20.4321   22.3576 O   0  0  0  0  0  0  0  0  0  1  0  0
  -33.3064  -26.7886   19.5313 F   0  0  0  0  0  0  0  0  0  0  0  0
  -30.1374  -24.6889   16.7110 F   0  0  0  0  0  0  0  0  0  0  0  0
  1  2  1  0  0  0  0
  1  5  2  0  0  0  0
  2  6  2  0  0  0  0
  3  8  2  0  0  0  0
  3 17  1  0  0  0  0
  4  9  1  0  0  0  0
  4 17  2  0  0  0  0
  5 19  1  0  0  0  0
  6 21  1  0  0  0  0
  7 10  2  0  0  0  0
  7 20  1  0  0  0  0
  8 23  1  0  0  0  0
  9 23  2  0  0  0  0
 10 24  1  0  0  0  0
 11 12  2  0  0  0  0
 11 25  1  0  0  0  0
 12 26  1  0  0  0  0
 13 14  1  0  0  0  0
 13 29  2  0  0  0  0
 14 30  2  0  0  0  0
 15 22  1  0  0  0  0
 15 24  2  0  0  0  0
 16 26  2  0  0  0  0
 16 27  1  0  0  0  0
 17 28  1  0  0  0  0
 18 28  1  0  0  0  0
 18 31  2  0  0  0  0
 18 32  1  0  0  0  0
 19 21  2  0  0  0  0
 19 37  1  0  0  0  0
 20 22  2  0  0  0  0
 20 38  1  0  0  0  0
 21 52  1  0  0  0  0
 22 39  1  0  0  0  0
 23 88  1  0  0  0  0
 24 89  1  0  0  0  0
 25 27  2  0  0  0  0
 25 88  1  0  0  0  0
 26 90  1  0  0  0  0
 27 91  1  0  0  0  0
 28 71  2  0  0  0  0
 29 63  1  0  0  0  0
 29 72  1  0  0  0  0
 30 67  1  0  0  0  0
 30 72  1  0  0  0  0
 31 73  1  0  0  0  0
 31 77  1  0  0  0  0
 32 78  1  0  0  0  0
 32 83  2  0  0  0  0
 33 53  1  0  0  0  0
 33 79  1  0  0  0  0
 33 84  2  0  0  0  0
 34 68  1  0  0  0  0
 34 74  1  0  0  0  0
 34 85  2  0  0  0  0
 35 69  1  0  0  0  0
 35 80  1  0  0  0  0
 35 86  2  0  0  0  0
 36 75  1  0  0  0  0
 36 76  1  0  0  0  0
 36 87  2  0  0  0  0
 37 40  1  0  0  0  0
 38 53  1  0  0  0  0
 39 74  1  0  0  0  0
 40 42  1  0  0  0  0
 41 45  1  0  0  0  0
 41 48  1  0  0  0  0
 42 52  1  0  0  0  0
 43 44  1  0  0  0  0
 43 54  1  0  0  0  0
 44 54  1  0  0  0  0
 45 55  1  0  0  0  0
 46 49  1  0  0  0  0
 46 56  1  0  0  0  0
 47 50  1  0  0  0  0
 47 56  1  0  0  0  0
 48 75  1  0  0  0  0
 49 76  1  0  0  0  0
 50 76  1  0  0  0  0
 51 55  1  0  0  0  0
 51 75  1  0  0  0  0
 52 79  1  0  0  0  0
 53 74  1  0  0  0  0
 54 64  1  0  0  0  0
 55 73  1  0  0  0  0
 56 72  1  0  0  0  0
 57 63  1  0  0  0  0
 58 69  1  0  0  0  0
 59 70  1  0  0  0  0
 60 70  1  0  0  0  0
 61 70  1  0  0  0  0
 62 81  1  0  0  0  0
 64 67  1  0  0  0  0
 65 66  1  0  0  0  0
 65 82  1  0  0  0  0
 66 89  1  0  0  0  0
 67 82  1  0  0  0  0
 68 70  1  0  0  0  0
 68 80  1  0  0  0  0
 69 81  1  0  0  0  0
 71 73  1  0  0  0  0
M  CHG  2  81   1  82   1
M  ISO  4  36 100  66 101  76 100  89 101
M  END
> <Batch ID>
0146

> <Smiles>
CCc1ccc(C(CC2CC2)NC[101CH2:1][101O:1]c2ccc3c(c2)CN(C(=O)C(NC(=O)C(C)NC)C(C)(C)C)C(C(=O)NC2CCCc4ccccc42)C3)n1C1CC[100N:0]([100C:0](=O)N2CCCC(n3nc(-c4ccc(Oc5ccc(F)cc5F)cc4)c(C(N)=O)c3N)C2)CC1

> <Shape>
0.234

> <Color>
0.059

> <Negative vol penalty>
0.000

$$$$

  -OEChem-04052321313D

 90100  0     1  0  0  0  0  0999 V2000
  -27.8052  -10.2878   20.5117 C   0  0  0  0  0  0  0  0  0  0  0  0
  -28.3433  -11.3756   19.8315 C   0  0  0  0  0  0  0  0  0  0  0  0
  -19.0739  -28.8716   22.5671 C   0  0  0  0  0  0  0  0  0  0  0  0
  -20.6994  -27.1053   22.8409 C   0  0  0  0  0  0  0  0  0  0  0  0
  -26.4884  -10.3341   20.9674 C   0  0  0  0  0  0  0  0  0  0  0  0
  -27.5645  -12.5099   19.6057 C   0  0  0  0  0  0  0  0  0  0  0  0
  -29.4738  -18.3282   19.5143 C   0  0  0  0  0  0  0  0  0  0  0  0
  -18.0551  -27.9220   22.4898 C   0  0  0  0  0  0  0  0  0  0  0  0
  -19.6806  -26.1557   22.7637 C   0  0  0  0  0  0  0  0  0  0  0  0
  -29.8032  -19.1909   18.4698 C   0  0  0  0  0  0  0  0  0  0  0  0
  -17.8238  -24.6846   20.3514 C   0  0  0  0  0  0  0  0  0  0  0  0
  -18.0402  -23.5660   19.5467 C   0  0  0  0  0  0  0  0  0  0  0  0
  -27.5755  -20.1137   18.5375 C   0  0  0  0  0  0  0  0  0  0  0  0
  -29.9424  -22.6807   18.5840 C   0  0  0  0  0  0  0  0  0  0  0  0
  -17.7685  -22.1297   21.4703 C   0  0  0  0  0  0  0  0  0  0  0  0
  -20.3961  -28.4632   22.7426 C   0  0  0  0  0  0  0  0  0  0  0  0
  -21.5787  -30.4770   23.7691 C   0  0  0  0  0  0  0  0  0  0  0  0
  -25.6960  -11.4734   20.7555 C   0  0  0  0  0  0  0  0  0  0  0  0
  -28.1872  -18.3442   20.0718 C   0  0  0  0  0  0  0  0  0  0  0  0
  -26.2353  -12.5710   20.0579 C   0  0  0  0  0  0  0  0  0  0  0  0
  -27.2330  -19.2519   19.5906 C   0  0  0  0  0  0  0  0  0  0  0  0
  -18.3584  -26.5641   22.5881 C   0  0  0  0  0  0  0  0  0  0  0  0
  -28.8532  -20.0819   17.9793 C   0  0  0  0  0  0  0  0  0  0  0  0
  -17.5799  -24.5258   21.7156 C   0  0  0  0  0  0  0  0  0  0  0  0
  -29.6931  -22.1650   17.2881 C   0  0  0  0  0  0  0  0  0  1  0  0
  -18.0125  -22.2885   20.1061 C   0  0  0  0  0  0  0  0  0  0  0  0
  -17.5522  -23.2483   22.2750 C   0  0  0  0  0  0  0  0  0  0  0  0
  -21.4490  -29.4436   22.8220 C   0  0  0  0  0  0  0  0  0  0  0  0
  -30.0665  -23.1326   16.3816 C   0  0  0  0  0  0  0  0  0  0  0  0
  -30.4609  -23.9475   18.4299 C   0  0  0  0  0  0  0  0  0  0  0  0
  -22.7368  -31.1246   23.4143 C   0  0  0  0  0  0  0  0  0  0  0  0
  -20.7285  -30.8207   24.8712 C   0  0  0  0  0  0  0  0  0  0  0  0
  -25.8233  -16.2336   20.3192 C   0  0  0  0  0  0  0  0  0  0  0  0
  -24.4651  -18.5525   22.1358 C   0  0  0  0  0  0  0  0  0  0  0  0
  -24.2581  -21.8666   22.9240 C   0  0  0  0  0  0  0  0  0  0  0  0
  -27.6291  -29.3886   20.4305 C   0  0  0  0  0  0  0  0  0  0  0  0
  -24.2629  -11.4585   21.2253 C   0  0  0  0  0  0  0  0  0  0  0  0
  -27.8558  -17.4256   21.2158 C   0  0  0  0  0  0  0  0  0  0  0  0
  -25.8439  -19.3228   20.1683 C   0  0  0  0  0  0  0  0  0  0  0  0
  -23.6234  -12.8438   21.2737 C   0  0  0  0  0  0  0  0  0  0  0  0
  -25.4681  -32.0961   19.6081 C   0  0  0  0  0  0  0  0  0  0  0  0
  -23.9219  -13.6146   19.9916 C   0  0  0  0  0  0  0  0  0  0  0  0
  -29.2054  -24.0757   14.0923 C   0  0  0  0  0  0  0  0  0  0  0  0
  -28.6390  -22.6967   14.2260 C   0  0  0  0  0  0  0  0  0  0  0  0
  -24.2047  -31.8166   20.4240 C   0  0  0  0  0  0  0  0  0  0  0  0
  -29.2922  -26.6402   21.0924 C   0  0  0  0  0  0  0  0  0  0  0  0
  -26.1027  -30.8070   19.0909 C   0  0  0  0  0  0  0  0  0  0  0  0
  -25.1154  -29.5142   20.9423 C   0  0  0  0  0  0  0  0  0  0  0  0
  -30.6485  -25.7703   23.0369 C   0  0  0  0  0  0  0  0  0  0  0  0
  -29.0838  -27.7003   23.3755 C   0  0  0  0  0  0  0  0  0  0  0  0
  -25.4300  -13.8290   19.8152 C   0  0  1  0  0  0  0  0  0  0  0  0
  -29.9768  -23.0209   14.8575 C   0  0  0  0  0  0  0  0  0  0  0  0
  -26.3588  -17.1715   21.3638 C   0  0  1  0  0  0  0  0  0  0  0  0
  -30.6133  -25.9852   21.5243 C   0  0  1  0  0  0  0  0  0  0  0  0
  -24.4709  -30.7802   21.5323 C   0  0  2  0  0  0  0  0  0  0  0  0
  -29.0321  -27.9339   21.8708 C   0  0  2  0  0  0  0  0  0  0  0  0
  -23.0306  -23.4621   24.4223 C   0  0  0  0  0  0  0  0  0  0  0  0
  -32.4980  -25.6773   16.8023 C   0  0  0  0  0  0  0  0  0  0  0  0
  -30.1591  -26.6424   16.8688 C   0  0  0  0  0  0  0  0  0  0  0  0
  -22.0101  -18.3508   20.3352 C   0  0  0  0  0  0  0  0  0  0  0  0
  -21.2440  -20.5515   21.2508 C   0  0  0  0  0  0  0  0  0  0  0  0
  -21.4999  -18.5909   22.7717 C   0  0  0  0  0  0  0  0  0  0  0  0
  -26.7577  -22.7145   24.2626 C   0  0  0  0  0  0  0  0  0  0  0  0
  -30.8224  -24.6603   20.7936 C   0  0  0  0  0  0  0  0  0  0  0  0
  -23.5646  -19.7334   21.8642 C   0  0  1  0  0  0  0  0  0  0  0  0
  -24.2633  -22.5863   24.2606 C   0  0  2  0  0  0  0  0  0  0  0  0
  -31.0201  -25.4365   16.4884 C   0  0  0  0  0  0  0  0  0  0  0  0
  -22.1051  -19.3042   21.5431 C   0  0  0  0  0  0  0  0  0  0  0  0
  -22.4450  -29.4317   21.9321 N   0  0  0  0  0  0  0  0  0  0  0  0
  -30.5318  -24.2117   17.0869 N   0  0  0  0  0  0  0  0  0  0  0  0
  -23.2116  -30.4656   22.3186 N   0  0  0  0  0  0  0  0  0  0  0  0
  -25.5662  -18.4000   21.2813 N   0  0  0  0  0  0  0  0  0  0  0  0
  -26.3305  -29.8676   20.1916 N   0  0  0  0  0  0  0  0  0  0  0  0
  -23.3850  -32.1878   23.9356 N   0  0  0  0  0  0  0  0  0  0  0  0
  -19.5786  -30.0508   25.0935 N   0  0  0  0  0  0  0  0  0  0  0  0
  -30.8625  -24.8574   19.3441 N   0  0  0  0  0  0  0  0  0  0  0  0
  -25.8920  -14.8995   20.6726 N   0  0  0  0  0  0  0  0  0  0  0  0
  -23.6877  -20.6149   23.0201 N   0  0  0  0  0  0  0  0  0  0  0  0
  -27.7585  -28.5072   21.4968 N   0  0  0  0  0  0  0  0  0  0  0  0
  -30.3928  -27.0705   23.7263 N   0  3  0  0  0  0  0  0  0  0  0  0
  -25.4721  -23.4497   24.3792 N   0  3  0  0  0  0  0  0  0  0  0  0
  -20.9723  -31.7922   25.6264 O   0  0  0  0  0  0  0  0  0  0  0  0
  -25.3793  -16.6869   19.2708 O   0  0  0  0  0  0  0  0  0  0  0  0
  -24.2052  -17.7975   23.0760 O   0  0  0  0  0  0  0  0  0  0  0  0
  -24.7111  -22.3663   21.8966 O   0  0  0  0  0  0  0  0  0  0  0  0
  -28.6022  -29.7259   19.7476 O   0  0  0  0  0  0  0  0  0  0  0  0
  -17.3645  -25.6373   22.5130 O   0  0  0  0  0  0  0  0  0  0  0  0
  -29.1719  -20.9247   16.9595 O   0  0  0  0  0  0  0  0  0  1  0  0
  -18.2187  -21.2144   19.3330 F   0  0  0  0  0  0  0  0  0  0  0  0
  -17.3171  -23.0894   23.5847 F   0  0  0  0  0  0  0  0  0  0  0  0
  1  2  1  0  0  0  0
  1  5  2  0  0  0  0
  2  6  2  0  0  0  0
  3  8  2  0  0  0  0
  3 16  1  0  0  0  0
  4  9  1  0  0  0  0
  4 16  2  0  0  0  0
  5 18  1  0  0  0  0
  6 20  1  0  0  0  0
  7 10  2  0  0  0  0
  7 19  1  0  0  0  0
  8 22  1  0  0  0  0
  9 22  2  0  0  0  0
 10 23  1  0  0  0  0
 11 12  2  0  0  0  0
 11 24  1  0  0  0  0
 12 26  1  0  0  0  0
 13 21  1  0  0  0  0
 13 23  2  0  0  0  0
 14 25  1  0  0  0  0
 14 30  2  0  0  0  0
 15 26  2  0  0  0  0
 15 27  1  0  0  0  0
 16 28  1  0  0  0  0
 17 28  1  0  0  0  0
 17 31  2  0  0  0  0
 17 32  1  0  0  0  0
 18 20  2  0  0  0  0
 18 37  1  0  0  0  0
 19 21  2  0  0  0  0
 19 38  1  0  0  0  0
 20 51  1  0  0  0  0
 21 39  1  0  0  0  0
 22 87  1  0  0  0  0
 23 88  1  0  0  0  0
 24 27  2  0  0  0  0
 24 87  1  0  0  0  0
 25 29  2  0  0  0  0
 25 88  1  0  0  0  0
 26 89  1  0  0  0  0
 27 90  1  0  0  0  0
 28 69  2  0  0  0  0
 29 52  1  0  0  0  0
 29 70  1  0  0  0  0
 30 70  1  0  0  0  0
 30 76  1  0  0  0  0
 31 71  1  0  0  0  0
 31 74  1  0  0  0  0
 32 75  1  0  0  0  0
 32 82  2  0  0  0  0
 33 53  1  0  0  0  0
 33 77  1  0  0  0  0
 33 83  2  0  0  0  0
 34 65  1  0  0  0  0
 34 72  1  0  0  0  0
 34 84  2  0  0  0  0
 35 66  1  0  0  0  0
 35 78  1  0  0  0  0
 35 85  2  0  0  0  0
 36 73  1  0  0  0  0
 36 79  1  0  0  0  0
 36 86  2  0  0  0  0
 37 40  1  0  0  0  0
 38 53  1  0  0  0  0
 39 72  1  0  0  0  0
 40 42  1  0  0  0  0
 41 45  1  0  0  0  0
 41 47  1  0  0  0  0
 42 51  1  0  0  0  0
 43 44  1  0  0  0  0
 43 52  1  0  0  0  0
 44 52  1  0  0  0  0
 45 55  1  0  0  0  0
 46 54  1  0  0  0  0
 46 56  1  0  0  0  0
 47 73  1  0  0  0  0
 48 55  1  0  0  0  0
 48 73  1  0  0  0  0
 49 54  1  0  0  0  0
 49 80  1  0  0  0  0
 50 56  1  0  0  0  0
 50 80  1  0  0  0  0
 51 77  1  0  0  0  0
 53 72  1  0  0  0  0
 54 64  1  0  0  0  0
 55 71  1  0  0  0  0
 56 79  1  0  0  0  0
 57 66  1  0  0  0  0
 58 67  1  0  0  0  0
 59 67  1  0  0  0  0
 60 68  1  0  0  0  0
 61 68  1  0  0  0  0
 62 68  1  0  0  0  0
 63 81  1  0  0  0  0
 64 76  1  0  0  0  0
 65 68  1  0  0  0  0
 65 78  1  0  0  0  0
 66 81  1  0  0  0  0
 67 70  1  0  0  0  0
 69 71  1  0  0  0  0
M  CHG  2  80   1  81   1
M  ISO  4  25 101  36 100  79 100  88 101
M  END
> <Batch ID>
0146

> <Smiles>
CNC(C)C(=O)NC(C(=O)N1Cc2cc([101O:1][101c:1]3cc(NCC4CNCC([100NH:0][100C:0](=O)N5CCCC(n6nc(-c7ccc(Oc8ccc(F)cc8F)cc7)c(C(N)=O)c6N)C5)C4)n(C(C)C)c3C3CC3)ccc2CC1C(=O)NC1CCCc2ccccc21)C(C)(C)C

> <Shape>
0.245

> <Color>
0.069

> <Negative vol penalty>
0.000

$$$$

  -OEChem-04052321313D

 87 95  0     1  0  0  0  0  0999 V2000
  -22.3754   -8.0624   20.6410 C   0  0  0  0  0  0  0  0  0  0  0  0
  -21.8987   -9.3456   20.8894 C   0  0  0  0  0  0  0  0  0  0  0  0
  -31.0726  -25.6624   17.7779 C   0  0  0  0  0  0  0  0  0  0  0  0
  -31.2796  -24.7457   20.0035 C   0  0  0  0  0  0  0  0  0  0  0  0
  -23.7075   -7.7507   20.9101 C   0  0  0  0  0  0  0  0  0  0  0  0
  -22.7535  -10.3175   21.4081 C   0  0  0  0  0  0  0  0  0  0  0  0
  -22.6905  -16.3151   20.1712 C   0  0  0  0  0  0  0  0  0  0  0  0
  -32.4461  -25.5111   17.5877 C   0  0  0  0  0  0  0  0  0  0  0  0
  -32.6531  -24.5942   19.8134 C   0  0  0  0  0  0  0  0  0  0  0  0
  -22.1556  -17.4077   20.8522 C   0  0  0  0  0  0  0  0  0  0  0  0
  -36.1589  -23.6315   19.7817 C   0  0  0  0  0  0  0  0  0  0  0  0
  -36.7407  -22.4281   20.1804 C   0  0  0  0  0  0  0  0  0  0  0  0
  -24.3065  -17.8236   21.8621 C   0  0  0  0  0  0  0  0  0  0  0  0
  -21.5223  -24.0912   21.9928 C   0  0  0  0  0  0  0  0  0  0  0  0
  -21.7163  -23.4127   19.6821 C   0  0  0  0  0  0  0  0  0  0  0  0
  -35.3106  -21.2284   18.6466 C   0  0  0  0  0  0  0  0  0  0  0  0
  -30.4893  -25.2798   18.9858 C   0  0  0  0  0  0  0  0  0  0  0  0
  -28.0629  -24.4980   18.8904 C   0  0  0  0  0  0  0  0  0  0  0  0
  -24.5815   -8.7219   21.4233 C   0  0  0  0  0  0  0  0  0  0  0  0
  -24.0370  -15.9614   20.3391 C   0  0  0  0  0  0  0  0  0  0  0  0
  -24.0982  -10.0180   21.6856 C   0  0  0  0  0  0  0  0  0  0  0  0
  -24.8567  -16.7276   21.1800 C   0  0  0  0  0  0  0  0  0  0  0  0
  -21.3220  -25.4110   21.5884 C   0  0  0  0  0  0  0  0  0  0  0  0
  -21.3189  -25.7317   20.2309 C   0  0  0  0  0  0  0  0  0  0  0  0
  -33.2363  -24.9770   18.6055 C   0  0  0  0  0  0  0  0  0  0  0  0
  -22.9629  -18.1604   21.7001 C   0  0  0  0  0  0  0  0  0  0  0  0
  -35.1528  -23.6333   18.8155 C   0  0  0  0  0  0  0  0  0  0  0  0
  -21.7194  -23.0920   21.0396 C   0  0  0  0  0  0  0  0  0  0  0  0
  -21.5160  -24.7326   19.2777 C   0  0  0  0  0  0  0  0  0  0  0  0
  -36.3167  -21.2266   19.6128 C   0  0  0  0  0  0  0  0  0  0  0  0
  -34.7287  -22.4318   18.2479 C   0  0  0  0  0  0  0  0  0  0  0  0
  -29.0706  -25.4364   19.1830 C   0  0  0  0  0  0  0  0  0  0  0  0
  -26.8956  -25.1221   19.2569 C   0  0  0  0  0  0  0  0  0  0  0  0
  -28.1723  -23.1799   18.3368 C   0  0  0  0  0  0  0  0  0  0  0  0
  -25.5625  -13.4021   21.4466 C   0  0  0  0  0  0  0  0  0  0  0  0
  -28.1894  -15.0088   20.4268 C   0  0  0  0  0  0  0  0  0  0  0  0
  -29.6358  -18.0011   19.6517 C   0  0  0  0  0  0  0  0  0  0  0  0
  -23.9418  -28.1889   22.8645 C   0  0  0  0  0  0  0  0  0  0  0  0
  -26.0010   -8.3249   21.7427 C   0  0  0  0  0  0  0  0  0  0  0  0
  -24.6054  -14.7960   19.5767 C   0  0  0  0  0  0  0  0  0  0  0  0
  -26.3136  -16.4017   21.3791 C   0  0  0  0  0  0  0  0  0  0  0  0
  -26.9366   -9.5149   21.9398 C   0  0  0  0  0  0  0  0  0  0  0  0
  -25.9954  -29.9324   20.5364 C   0  0  0  0  0  0  0  0  0  0  0  0
  -26.2906  -10.5575   22.8467 C   0  0  0  0  0  0  0  0  0  0  0  0
  -26.8990  -28.8422   19.9577 C   0  0  0  0  0  0  0  0  0  0  0  0
  -25.7117  -29.7020   22.0191 C   0  0  0  0  0  0  0  0  0  0  0  0
  -26.0783  -27.2779   21.7683 C   0  0  0  0  0  0  0  0  0  0  0  0
  -25.0009  -11.1064   22.2247 C   0  0  1  0  0  0  0  0  0  0  0  0
  -25.8615  -14.2166   20.2199 C   0  0  1  0  0  0  0  0  0  0  0  0
  -26.3471  -27.4364   20.2620 C   0  0  2  0  0  0  0  0  0  0  0  0
  -19.6384  -27.5585   19.8767 C   0  0  0  0  0  0  0  0  0  0  0  0
  -20.1653  -25.2876   15.9879 C   0  0  0  0  0  0  0  0  0  0  0  0
  -31.3835  -19.5947   18.8128 C   0  0  0  0  0  0  0  0  0  0  0  0
  -29.3432  -14.6490   23.2285 C   0  0  0  0  0  0  0  0  0  0  0  0
  -31.0160  -16.4332   22.6931 C   0  0  0  0  0  0  0  0  0  0  0  0
  -30.9866  -14.3169   21.3729 C   0  0  0  0  0  0  0  0  0  0  0  0
  -28.6164  -17.8410   16.8778 C   0  0  0  0  0  0  0  0  0  0  0  0
  -21.1137  -26.4626   22.6285 C   0  0  0  0  0  0  0  0  0  0  0  0
  -21.1038  -27.1449   19.7917 C   0  0  0  0  0  0  0  0  0  0  0  0
  -22.2535  -26.5480   23.6494 C   0  0  0  0  0  0  0  0  0  0  0  0
  -20.5355  -24.3783   17.1402 C   0  0  0  0  0  0  0  0  0  0  0  0
  -23.3316  -20.3039   22.6621 C   0  0  0  0  0  0  0  0  0  1  0  0
  -22.5446  -21.5997   22.6973 C   0  0  0  0  0  0  0  0  0  0  0  0
  -29.1372  -16.0090   21.0435 C   0  0  1  0  0  0  0  0  0  0  0  0
  -30.4581  -18.4423   18.4543 C   0  0  2  0  0  0  0  0  0  0  0  0
  -30.0929  -15.3573   22.0825 C   0  0  0  0  0  0  0  0  0  0  0  0
  -28.5859  -26.5705   19.6958 N   0  0  0  0  0  0  0  0  0  0  0  0
  -27.2608  -26.3487   19.7282 N   0  0  0  0  0  0  0  0  0  0  0  0
  -26.8211  -15.2491   20.6165 N   0  0  0  0  0  0  0  0  0  0  0  0
  -25.1892  -28.3513   22.2395 N   0  0  0  0  0  0  0  0  0  0  0  0
  -25.6027  -24.7357   19.2189 N   0  0  0  0  0  0  0  0  0  0  0  0
  -29.4471  -22.6932   18.0169 N   0  0  0  0  0  0  0  0  0  0  0  0
  -25.3092  -12.0684   21.1884 N   0  0  0  0  0  0  0  0  0  0  0  0
  -29.8194  -16.6637   19.9325 N   0  0  0  0  0  0  0  0  0  0  0  0
  -23.5178  -26.8760   23.0291 N   0  0  0  0  0  0  0  0  0  0  0  0
  -29.5644  -18.8843   17.3467 N   0  3  0  0  0  0  0  0  0  0  0  0
  -27.1678  -22.4615   18.1166 O   0  0  0  0  0  0  0  0  0  0  0  0
  -25.5631  -13.9431   22.5461 O   0  0  0  0  0  0  0  0  0  0  0  0
  -28.6460  -14.0536   19.7939 O   0  0  0  0  0  0  0  0  0  0  0  0
  -28.9067  -18.7672   20.2777 O   0  0  0  0  0  0  0  0  0  0  0  0
  -23.2543  -29.1435   23.2427 O   0  0  0  0  0  0  0  0  0  0  0  0
  -34.5766  -24.8289   18.4202 O   0  0  0  0  0  0  0  0  0  0  0  0
  -22.4432  -19.2270   22.3665 O   0  0  0  0  0  0  0  0  0  1  0  0
  -21.9153  -21.7955   21.4367 O   0  0  0  0  0  0  0  0  0  0  0  0
  -21.5162  -25.0269   17.9472 O   0  0  0  0  0  0  0  0  0  0  0  0
  -36.8766  -20.0713   19.9947 F   0  0  0  0  0  0  0  0  0  0  0  0
  -33.7634  -22.4273   17.3184 F   0  0  0  0  0  0  0  0  0  0  0  0
  1  2  1  0  0  0  0
  1  5  2  0  0  0  0
  2  6  2  0  0  0  0
  3  8  2  0  0  0  0
  3 17  1  0  0  0  0
  4  9  1  0  0  0  0
  4 17  2  0  0  0  0
  5 19  1  0  0  0  0
  6 21  1  0  0  0  0
  7 10  2  0  0  0  0
  7 20  1  0  0  0  0
  8 25  1  0  0  0  0
  9 25  2  0  0  0  0
 10 26  1  0  0  0  0
 11 12  2  0  0  0  0
 11 27  1  0  0  0  0
 12 30  1  0  0  0  0
 13 22  1  0  0  0  0
 13 26  2  0  0  0  0
 14 23  2  0  0  0  0
 14 28  1  0  0  0  0
 15 28  2  0  0  0  0
 15 29  1  0  0  0  0
 16 30  2  0  0  0  0
 16 31  1  0  0  0  0
 17 32  1  0  0  0  0
 18 32  1  0  0  0  0
 18 33  2  0  0  0  0
 18 34  1  0  0  0  0
 19 21  2  0  0  0  0
 19 39  1  0  0  0  0
 20 22  2  0  0  0  0
 20 40  1  0  0  0  0
 21 48  1  0  0  0  0
 22 41  1  0  0  0  0
 23 24  1  0  0  0  0
 23 58  1  0  0  0  0
 24 29  2  0  0  0  0
 24 59  1  0  0  0  0
 25 82  1  0  0  0  0
 26 83  1  0  0  0  0
 27 31  2  0  0  0  0
 27 82  1  0  0  0  0
 28 84  1  0  0  0  0
 29 85  1  0  0  0  0
 30 86  1  0  0  0  0
 31 87  1  0  0  0  0
 32 67  2  0  0  0  0
 33 68  1  0  0  0  0
 33 71  1  0  0  0  0
 34 72  1  0  0  0  0
 34 77  2  0  0  0  0
 35 49  1  0  0  0  0
 35 73  1  0  0  0  0
 35 78  2  0  0  0  0
 36 64  1  0  0  0  0
 36 69  1  0  0  0  0
 36 79  2  0  0  0  0
 37 65  1  0  0  0  0
 37 74  1  0  0  0  0
 37 80  2  0  0  0  0
 38 70  1  0  0  0  0
 38 75  1  0  0  0  0
 38 81  2  0  0  0  0
 39 42  1  0  0  0  0
 40 49  1  0  0  0  0
 41 69  1  0  0  0  0
 42 44  1  0  0  0  0
 43 45  1  0  0  0  0
 43 46  1  0  0  0  0
 44 48  1  0  0  0  0
 45 50  1  0  0  0  0
 46 70  1  0  0  0  0
 47 50  1  0  0  0  0
 47 70  1  0  0  0  0
 48 73  1  0  0  0  0
 49 69  1  0  0  0  0
 50 68  1  0  0  0  0
 51 59  1  0  0  0  0
 52 61  1  0  0  0  0
 53 65  1  0  0  0  0
 54 66  1  0  0  0  0
 55 66  1  0  0  0  0
 56 66  1  0  0  0  0
 57 76  1  0  0  0  0
 58 60  1  0  0  0  0
 60 75  1  0  0  0  0
 61 85  1  0  0  0  0
 62 63  1  0  0  0  0
 62 83  1  0  0  0  0
 63 84  1  0  0  0  0
 64 66  1  0  0  0  0
 64 74  1  0  0  0  0
 65 76  1  0  0  0  0
 67 68  1  0  0  0  0
M  CHG  1  76   1
M  ISO  4  38 100  62 101  75 100  83 101
M  END
> <Batch ID>
0146

> <Smiles>
CCOc1cc(OC[101CH2:1][101O:1]c2ccc3c(c2)CN(C(=O)C(NC(=O)C(C)NC)C(C)(C)C)C(C(=O)NC2CCCc4ccccc42)C3)cc(CC[100NH:0][100C:0](=O)N2CCCC(n3nc(-c4ccc(Oc5ccc(F)cc5F)cc4)c(C(N)=O)c3N)C2)c1CC

> <Shape>
0.210

> <Color>
0.058

> <Negative vol penalty>
0.000

$$$$

  -OEChem-04052321313D

 81 90  0     1  0  0  0  0  0999 V2000
  -37.1900  -20.9668   33.5778 C   0  0  0  0  0  0  0  0  0  0  0  0
  -36.4288  -21.0154   32.4144 C   0  0  0  0  0  0  0  0  0  0  0  0
  -23.0751   -9.8658   19.9422 C   0  0  0  0  0  0  0  0  0  0  0  0
  -23.8350   -9.8756   22.2356 C   0  0  0  0  0  0  0  0  0  0  0  0
  -38.4043  -21.6487   33.6440 C   0  0  0  0  0  0  0  0  0  0  0  0
  -36.8809  -21.7471   31.3168 C   0  0  0  0  0  0  0  0  0  0  0  0
  -36.3526  -19.2309   26.9539 C   0  0  0  0  0  0  0  0  0  0  0  0
  -22.3317   -8.7126   20.1934 C   0  0  0  0  0  0  0  0  0  0  0  0
  -23.0915   -8.7224   22.4868 C   0  0  0  0  0  0  0  0  0  0  0  0
  -35.0770  -19.1906   26.3925 C   0  0  0  0  0  0  0  0  0  0  0  0
  -19.8637   -7.9239   23.0901 C   0  0  0  0  0  0  0  0  0  0  0  0
  -19.1067   -7.8849   24.2610 C   0  0  0  0  0  0  0  0  0  0  0  0
  -35.6974  -20.9569   24.8711 C   0  0  0  0  0  0  0  0  0  0  0  0
  -29.7431  -17.7104   22.7147 C   0  0  0  0  0  0  0  0  0  0  0  0
  -20.3489   -5.9488   24.9996 C   0  0  0  0  0  0  0  0  0  0  0  0
  -32.2537  -18.5395   21.9044 C   0  0  0  0  0  0  0  0  0  0  0  0
  -23.8268  -10.4472   20.9633 C   0  0  0  0  0  0  0  0  0  0  0  0
  -24.1676  -12.9724   20.8405 C   0  0  0  0  0  0  0  0  0  0  0  0
  -38.8762  -22.3812   32.5433 C   0  0  0  0  0  0  0  0  0  0  0  0
  -37.3083  -20.1435   26.4846 C   0  0  0  0  0  0  0  0  0  0  0  0
  -38.1020  -22.4406   31.3688 C   0  0  0  0  0  0  0  0  0  0  0  0
  -36.9852  -21.0050   25.4265 C   0  0  0  0  0  0  0  0  0  0  0  0
  -30.2450  -18.9277   23.1290 C   0  0  0  0  0  0  0  0  0  0  0  0
  -31.5111  -19.3565   22.7261 C   0  0  0  0  0  0  0  0  0  0  0  0
  -22.3399   -8.1409   21.4657 C   0  0  0  0  0  0  0  0  0  0  0  0
  -34.7484  -20.0557   25.3529 C   0  0  0  0  0  0  0  0  0  0  0  0
  -20.8632   -6.9753   22.8738 C   0  0  0  0  0  0  0  0  0  0  0  0
  -19.3493   -6.8974   25.2158 C   0  0  0  0  0  0  0  0  0  0  0  0
  -21.1058   -5.9878   23.8286 C   0  0  0  0  0  0  0  0  0  0  0  0
  -24.5954  -11.6382   20.7043 C   0  0  0  0  0  0  0  0  0  0  0  0
  -30.5697  -16.9524   21.8989 C   0  0  0  0  0  0  0  0  0  0  0  0
  -25.2594  -13.7219   20.4764 C   0  0  0  0  0  0  0  0  0  0  0  0
  -22.8969  -13.4881   21.2588 C   0  0  0  0  0  0  0  0  0  0  0  0
  -38.9086  -22.5730   27.7653 C   0  0  0  0  0  0  0  0  0  0  0  0
  -40.4376  -22.5659   24.9045 C   0  0  0  0  0  0  0  0  0  0  0  0
  -40.3791  -21.7544   21.5902 C   0  0  0  0  0  0  0  0  0  0  0  0
  -30.7252  -14.7700   20.6502 C   0  0  0  0  0  0  0  0  0  0  0  0
  -40.1721  -23.1408   32.6785 C   0  0  0  0  0  0  0  0  0  0  0  0
  -38.6882  -20.1560   27.0829 C   0  0  0  0  0  0  0  0  0  0  0  0
  -29.5751  -19.9627   23.9762 C   0  0  0  0  0  0  0  0  0  0  0  0
  -37.9816  -21.9894   24.8728 C   0  0  0  0  0  0  0  0  0  0  0  0
  -40.7594  -23.5860   31.3416 C   0  0  0  0  0  0  0  0  0  0  0  0
  -30.7806  -20.8136   24.4064 C   0  0  0  0  0  0  0  0  0  0  0  0
  -29.6119  -12.3531   18.2845 C   0  0  0  0  0  0  0  0  0  0  0  0
  -39.6792  -24.2137   30.4665 C   0  0  0  0  0  0  0  0  0  0  0  0
  -28.1723  -12.0614   18.7144 C   0  0  0  0  0  0  0  0  0  0  0  0
  -30.5268  -12.5836   19.4860 C   0  0  0  0  0  0  0  0  0  0  0  0
  -28.6195  -13.3088   20.8664 C   0  0  0  0  0  0  0  0  0  0  0  0
  -31.8090  -20.7257   23.2579 C   0  0  1  0  0  0  0  0  0  0  0  0
  -38.5705  -23.2031   30.1485 C   0  0  1  0  0  0  0  0  0  0  0  0
  -39.4191  -21.4784   26.8715 C   0  0  1  0  0  0  0  0  0  0  0  0
  -27.6468  -13.1339   19.6887 C   0  0  2  0  0  0  0  0  0  0  0  0
  -41.7589  -21.9084   19.4997 C   0  0  0  0  0  0  0  0  0  0  0  0
  -39.7443  -25.5279   24.6680 C   0  0  0  0  0  0  0  0  0  0  0  0
  -40.2821  -25.3874   22.2268 C   0  0  0  0  0  0  0  0  0  0  0  0
  -42.0562  -24.9348   23.9211 C   0  0  0  0  0  0  0  0  0  0  0  0
  -40.4770  -18.8108   21.2992 C   0  0  0  0  0  0  0  0  0  0  0  0
  -33.2353  -20.9336   23.7417 C   0  0  0  0  0  0  0  0  0  1  0  0
  -40.2145  -23.2383   23.5714 C   0  0  1  0  0  0  0  0  0  0  0  0
  -41.3965  -21.0561   20.7060 C   0  0  2  0  0  0  0  0  0  0  0  0
  -40.5547  -24.7550   23.6083 C   0  0  0  0  0  0  0  0  0  0  0  0
  -31.8080  -17.3326   21.4844 N   0  0  0  0  0  0  0  0  0  0  0  0
  -25.8603  -11.5424   20.2861 N   0  0  0  0  0  0  0  0  0  0  0  0
  -26.2367  -12.8260   20.1564 N   0  0  0  0  0  0  0  0  0  0  0  0
  -39.3156  -21.9677   25.4953 N   0  0  0  0  0  0  0  0  0  0  0  0
  -29.9674  -13.6152   20.3622 N   0  0  0  0  0  0  0  0  0  0  0  0
  -25.4693  -15.0534   20.4020 N   0  0  0  0  0  0  0  0  0  0  0  0
  -21.8853  -12.5789   21.5970 N   0  0  0  0  0  0  0  0  0  0  0  0
  -30.0774  -15.6957   21.4676 N   0  0  0  0  0  0  0  0  0  0  0  0
  -39.0026  -22.2878   29.1141 N   0  0  0  0  0  0  0  0  0  0  0  0
  -40.9865  -22.4764   22.5957 N   0  0  0  0  0  0  0  0  0  0  0  0
  -40.8534  -19.7571   20.2176 N   0  3  0  0  0  0  0  0  0  0  0  0
  -22.6601  -14.7187   21.3148 O   0  0  0  0  0  0  0  0  0  0  0  0
  -38.4638  -23.6009   27.2681 O   0  0  0  0  0  0  0  0  0  0  0  0
  -41.5673  -22.5652   25.3999 O   0  0  0  0  0  0  0  0  0  0  0  0
  -39.1670  -21.6709   21.4049 O   0  0  0  0  0  0  0  0  0  0  0  0
  -31.8542  -14.9387   20.1824 O   0  0  0  0  0  0  0  0  0  0  0  0
  -21.6144   -7.0158   21.7112 O   0  0  0  0  0  0  0  0  0  0  0  0
  -33.5038  -20.0189   24.8036 O   0  0  0  0  0  0  0  0  0  1  0  0
  -18.6233   -6.8610   26.3409 F   0  0  0  0  0  0  0  0  0  0  0  0
  -22.0655   -5.0744   23.6270 F   0  0  0  0  0  0  0  0  0  0  0  0
  1  2  1  0  0  0  0
  1  5  2  0  0  0  0
  2  6  2  0  0  0  0
  3  8  2  0  0  0  0
  3 17  1  0  0  0  0
  4  9  1  0  0  0  0
  4 17  2  0  0  0  0
  5 19  1  0  0  0  0
  6 21  1  0  0  0  0
  7 10  2  0  0  0  0
  7 20  1  0  0  0  0
  8 25  1  0  0  0  0
  9 25  2  0  0  0  0
 10 26  1  0  0  0  0
 11 12  2  0  0  0  0
 11 27  1  0  0  0  0
 12 28  1  0  0  0  0
 13 22  1  0  0  0  0
 13 26  2  0  0  0  0
 14 23  1  0  0  0  0
 14 31  2  0  0  0  0
 15 28  2  0  0  0  0
 15 29  1  0  0  0  0
 16 24  1  0  0  0  0
 16 62  2  0  0  0  0
 17 30  1  0  0  0  0
 18 30  1  0  0  0  0
 18 32  2  0  0  0  0
 18 33  1  0  0  0  0
 19 21  2  0  0  0  0
 19 38  1  0  0  0  0
 20 22  2  0  0  0  0
 20 39  1  0  0  0  0
 21 50  1  0  0  0  0
 22 41  1  0  0  0  0
 23 24  2  0  0  0  0
 23 40  1  0  0  0  0
 24 49  1  0  0  0  0
 25 78  1  0  0  0  0
 26 79  1  0  0  0  0
 27 29  2  0  0  0  0
 27 78  1  0  0  0  0
 28 80  1  0  0  0  0
 29 81  1  0  0  0  0
 30 63  2  0  0  0  0
 31 62  1  0  0  0  0
 31 69  1  0  0  0  0
 32 64  1  0  0  0  0
 32 67  1  0  0  0  0
 33 68  1  0  0  0  0
 33 73  2  0  0  0  0
 34 51  1  0  0  0  0
 34 70  1  0  0  0  0
 34 74  2  0  0  0  0
 35 59  1  0  0  0  0
 35 65  1  0  0  0  0
 35 75  2  0  0  0  0
 36 60  1  0  0  0  0
 36 71  1  0  0  0  0
 36 76  2  0  0  0  0
 37 66  1  0  0  0  0
 37 69  1  0  0  0  0
 37 77  2  0  0  0  0
 38 42  1  0  0  0  0
 39 51  1  0  0  0  0
 40 43  1  0  0  0  0
 41 65  1  0  0  0  0
 42 45  1  0  0  0  0
 43 49  1  0  0  0  0
 44 46  1  0  0  0  0
 44 47  1  0  0  0  0
 45 50  1  0  0  0  0
 46 52  1  0  0  0  0
 47 66  1  0  0  0  0
 48 52  1  0  0  0  0
 48 66  1  0  0  0  0
 49 58  1  0  0  0  0
 50 70  1  0  0  0  0
 51 65  1  0  0  0  0
 52 64  1  0  0  0  0
 53 60  1  0  0  0  0
 54 61  1  0  0  0  0
 55 61  1  0  0  0  0
 56 61  1  0  0  0  0
 57 72  1  0  0  0  0
 58 79  1  0  0  0  0
 59 61  1  0  0  0  0
 59 71  1  0  0  0  0
 60 72  1  0  0  0  0
 63 64  1  0  0  0  0
M  CHG  1  72   1
M  ISO  4  37 100  58 101  69 100  79 101
M  END
> <Batch ID>
0146

> <Smiles>
CNC(C)C(=O)NC(C(=O)N1Cc2cc([101O:1][101CH2:1]C3CCc4cc([100NH:0][100C:0](=O)N5CCCC(n6nc(-c7ccc(Oc8ccc(F)cc8F)cc7)c(C(N)=O)c6N)C5)ncc43)ccc2CC1C(=O)NC1CCCc2ccccc21)C(C)(C)C

> <Shape>
0.171

> <Color>
0.192

> <Negative vol penalty>
0.000

$$$$

  -OEChem-04052321313D

 86 95  0     1  0  0  0  0  0999 V2000
  -29.5202  -26.9810   12.9077 C   0  0  0  0  0  0  0  0  0  0  0  0
  -29.3362  -26.0089   13.8858 C   0  0  0  0  0  0  0  0  0  0  0  0
  -23.1918   -9.8040   19.9353 C   0  0  0  0  0  0  0  0  0  0  0  0
  -23.5641   -9.9966   22.3147 C   0  0  0  0  0  0  0  0  0  0  0  0
  -30.0863  -28.2096   13.2454 C   0  0  0  0  0  0  0  0  0  0  0  0
  -29.7194  -26.2645   15.2020 C   0  0  0  0  0  0  0  0  0  0  0  0
  -26.9546  -24.2783   20.2929 C   0  0  0  0  0  0  0  0  0  0  0  0
  -22.4277   -8.6566   20.1477 C   0  0  0  0  0  0  0  0  0  0  0  0
  -22.8000   -8.8491   22.5271 C   0  0  0  0  0  0  0  0  0  0  0  0
  -27.2216  -23.2117   21.1501 C   0  0  0  0  0  0  0  0  0  0  0  0
  -23.2094   -5.5022   22.2798 C   0  0  0  0  0  0  0  0  0  0  0  0
  -23.7080   -4.5462   23.1647 C   0  0  0  0  0  0  0  0  0  0  0  0
  -28.4399  -24.6971   22.6091 C   0  0  0  0  0  0  0  0  0  0  0  0
  -31.3607  -17.1140   21.8389 C   0  0  0  0  0  0  0  0  0  0  0  0
  -21.7476   -4.8082   24.5523 C   0  0  0  0  0  0  0  0  0  0  0  0
  -31.2465  -17.2870   24.2082 C   0  0  0  0  0  0  0  0  0  0  0  0
  -23.7601  -10.4740   21.0188 C   0  0  0  0  0  0  0  0  0  0  0  0
  -24.0935  -12.9903   20.7639 C   0  0  0  0  0  0  0  0  0  0  0  0
  -30.4677  -28.4839   14.5682 C   0  0  0  0  0  0  0  0  0  0  0  0
  -27.4384  -25.5623   20.5822 C   0  0  0  0  0  0  0  0  0  0  0  0
  -30.2924  -27.4974   15.5574 C   0  0  0  0  0  0  0  0  0  0  0  0
  -28.1755  -25.7788   21.7552 C   0  0  0  0  0  0  0  0  0  0  0  0
  -30.9035  -18.4242   21.7516 C   0  0  0  0  0  0  0  0  0  0  0  0
  -22.2317   -8.1792   21.4436 C   0  0  0  0  0  0  0  0  0  0  0  0
  -27.9668  -23.4204   22.3069 C   0  0  0  0  0  0  0  0  0  0  0  0
  -21.9800   -6.1113   22.5311 C   0  0  0  0  0  0  0  0  0  0  0  0
  -31.5382  -16.5272   23.0869 C   0  0  0  0  0  0  0  0  0  0  0  0
  -22.9771   -4.1992   24.3009 C   0  0  0  0  0  0  0  0  0  0  0  0
  -21.2491   -5.7643   23.6673 C   0  0  0  0  0  0  0  0  0  0  0  0
  -24.5499  -11.6590   20.8000 C   0  0  0  0  0  0  0  0  0  0  0  0
  -30.6400  -19.0990   22.9327 C   0  0  0  0  0  0  0  0  0  0  0  0
  -25.2235  -13.7344   20.5277 C   0  0  0  0  0  0  0  0  0  0  0  0
  -22.7667  -13.5079   20.9292 C   0  0  0  0  0  0  0  0  0  0  0  0
  -29.4255  -27.5867   19.1481 C   0  0  0  0  0  0  0  0  0  0  0  0
  -28.4851  -29.5840   21.5248 C   0  0  0  0  0  0  0  0  0  0  0  0
  -27.2093  -29.9469   24.6692 C   0  0  0  0  0  0  0  0  0  0  0  0
  -31.0382  -12.7629   21.5750 C   0  0  0  0  0  0  0  0  0  0  0  0
  -31.1191  -29.8089   14.8760 C   0  0  0  0  0  0  0  0  0  0  0  0
  -27.1190  -26.7076   19.6610 C   0  0  0  0  0  0  0  0  0  0  0  0
  -28.7003  -27.1421   22.1218 C   0  0  0  0  0  0  0  0  0  0  0  0
  -31.1533  -30.1393   16.3659 C   0  0  0  0  0  0  0  0  0  0  0  0
  -29.5164  -13.4619   18.4330 C   0  0  0  0  0  0  0  0  0  0  0  0
  -29.3638  -19.6499   20.0779 C   0  0  0  0  0  0  0  0  0  0  0  0
  -29.8202  -18.3929   19.4056 C   0  0  0  0  0  0  0  0  0  0  0  0
  -31.6288  -28.9330   17.1694 C   0  0  0  0  0  0  0  0  0  0  0  0
  -28.0298  -13.1992   18.6800 C   0  0  0  0  0  0  0  0  0  0  0  0
  -30.3982  -12.4781   19.1989 C   0  0  0  0  0  0  0  0  0  0  0  0
  -28.6416  -12.1393   20.8939 C   0  0  0  0  0  0  0  0  0  0  0  0
  -30.7094  -19.0640   20.4206 C   0  0  0  0  0  0  0  0  0  0  0  0
  -30.6725  -27.7462   17.0009 C   0  0  1  0  0  0  0  0  0  0  0  0
  -28.0978  -27.8705   19.7918 C   0  0  1  0  0  0  0  0  0  0  0  0
  -27.7134  -13.1416   20.1866 C   0  0  2  0  0  0  0  0  0  0  0  0
  -26.5899  -31.7011   26.3535 C   0  0  0  0  0  0  0  0  0  0  0  0
  -31.4375  -30.0015   22.1721 C   0  0  0  0  0  0  0  0  0  0  0  0
  -30.7464  -30.9566   24.3808 C   0  0  0  0  0  0  0  0  0  0  0  0
  -30.0454  -32.0770   22.2652 C   0  0  0  0  0  0  0  0  0  0  0  0
  -24.3737  -29.0995   24.6812 C   0  0  0  0  0  0  0  0  0  0  0  0
  -31.5221  -13.0266   23.9947 C   0  0  0  0  0  0  0  0  0  0  0  0
  -31.5441  -14.5052   24.3388 C   0  0  0  0  0  0  0  0  0  0  0  0
  -29.4462  -22.4373   23.8883 C   0  0  0  0  0  0  0  0  0  1  0  0
  -29.9394  -21.0253   24.1387 C   0  0  0  0  0  0  0  0  0  0  0  0
  -28.9697  -29.8855   22.9224 C   0  0  1  0  0  0  0  0  0  0  0  0
  -26.0976  -30.8280   25.2097 C   0  0  2  0  0  0  0  0  0  0  0  0
  -30.2917  -30.7040   22.9275 C   0  0  0  0  0  0  0  0  0  0  0  0
  -30.8005  -18.5624   24.1631 N   0  0  0  0  0  0  0  0  0  0  0  0
  -25.8672  -11.5601   20.6023 N   0  0  0  0  0  0  0  0  0  0  0  0
  -26.2481  -12.8386   20.4397 N   0  0  0  0  0  0  0  0  0  0  0  0
  -28.3670  -28.2286   21.1859 N   0  0  0  0  0  0  0  0  0  0  0  0
  -30.0484  -12.4729   20.6214 N   0  0  0  0  0  0  0  0  0  0  0  0
  -25.4307  -15.0611   20.3886 N   0  0  0  0  0  0  0  0  0  0  0  0
  -21.7216  -12.6043   21.1651 N   0  0  0  0  0  0  0  0  0  0  0  0
  -29.4882  -27.9323   17.8117 N   0  0  0  0  0  0  0  0  0  0  0  0
  -27.8597  -30.5389   23.6073 N   0  0  0  0  0  0  0  0  0  0  0  0
  -30.6209  -12.7428   22.9002 N   0  0  0  0  0  0  0  0  0  0  0  0
  -24.9699  -29.9913   25.7090 N   0  3  0  0  0  0  0  0  0  0  0  0
  -22.5128  -14.7340   20.8531 O   0  0  0  0  0  0  0  0  0  0  0  0
  -30.3269  -27.0922   19.8150 O   0  0  0  0  0  0  0  0  0  0  0  0
  -28.2142  -30.5167   20.7643 O   0  0  0  0  0  0  0  0  0  0  0  0
  -27.4767  -28.8453   25.1442 O   0  0  0  0  0  0  0  0  0  0  0  0
  -32.2058  -13.0258   21.2678 O   0  0  0  0  0  0  0  0  0  0  0  0
  -21.4860   -7.0597   21.6512 O   0  0  0  0  0  0  0  0  0  0  0  0
  -28.2294  -22.3809   23.1450 O   0  0  0  0  0  0  0  0  0  1  0  0
  -31.9817  -15.2509   23.2009 O   0  0  0  0  0  0  0  0  0  0  0  0
  -30.1899  -20.3923   22.8897 O   0  0  0  0  0  0  0  0  0  0  0  0
  -23.4553   -3.2800   25.1498 F   0  0  0  0  0  0  0  0  0  0  0  0
  -20.0668   -6.3451   23.9135 F   0  0  0  0  0  0  0  0  0  0  0  0
  1  2  1  0  0  0  0
  1  5  2  0  0  0  0
  2  6  2  0  0  0  0
  3  8  2  0  0  0  0
  3 17  1  0  0  0  0
  4  9  1  0  0  0  0
  4 17  2  0  0  0  0
  5 19  1  0  0  0  0
  6 21  1  0  0  0  0
  7 10  2  0  0  0  0
  7 20  1  0  0  0  0
  8 24  1  0  0  0  0
  9 24  2  0  0  0  0
 10 25  1  0  0  0  0
 11 12  2  0  0  0  0
 11 26  1  0  0  0  0
 12 28  1  0  0  0  0
 13 22  1  0  0  0  0
 13 25  2  0  0  0  0
 14 23  1  0  0  0  0
 14 27  2  0  0  0  0
 15 28  2  0  0  0  0
 15 29  1  0  0  0  0
 16 27  1  0  0  0  0
 16 65  2  0  0  0  0
 17 30  1  0  0  0  0
 18 30  1  0  0  0  0
 18 32  2  0  0  0  0
 18 33  1  0  0  0  0
 19 21  2  0  0  0  0
 19 38  1  0  0  0  0
 20 22  2  0  0  0  0
 20 39  1  0  0  0  0
 21 50  1  0  0  0  0
 22 40  1  0  0  0  0
 23 31  2  0  0  0  0
 23 49  1  0  0  0  0
 24 81  1  0  0  0  0
 25 82  1  0  0  0  0
 26 29  2  0  0  0  0
 26 81  1  0  0  0  0
 27 83  1  0  0  0  0
 28 85  1  0  0  0  0
 29 86  1  0  0  0  0
 30 66  2  0  0  0  0
 31 65  1  0  0  0  0
 31 84  1  0  0  0  0
 32 67  1  0  0  0  0
 32 70  1  0  0  0  0
 33 71  1  0  0  0  0
 33 76  2  0  0  0  0
 34 51  1  0  0  0  0
 34 72  1  0  0  0  0
 34 77  2  0  0  0  0
 35 62  1  0  0  0  0
 35 68  1  0  0  0  0
 35 78  2  0  0  0  0
 36 63  1  0  0  0  0
 36 73  1  0  0  0  0
 36 79  2  0  0  0  0
 37 69  1  0  0  0  0
 37 74  1  0  0  0  0
 37 80  2  0  0  0  0
 38 41  1  0  0  0  0
 39 51  1  0  0  0  0
 40 68  1  0  0  0  0
 41 45  1  0  0  0  0
 42 46  1  0  0  0  0
 42 47  1  0  0  0  0
 43 44  1  0  0  0  0
 43 49  1  0  0  0  0
 44 49  1  0  0  0  0
 45 50  1  0  0  0  0
 46 52  1  0  0  0  0
 47 69  1  0  0  0  0
 48 52  1  0  0  0  0
 48 69  1  0  0  0  0
 50 72  1  0  0  0  0
 51 68  1  0  0  0  0
 52 67  1  0  0  0  0
 53 63  1  0  0  0  0
 54 64  1  0  0  0  0
 55 64  1  0  0  0  0
 56 64  1  0  0  0  0
 57 75  1  0  0  0  0
 58 59  1  0  0  0  0
 58 74  1  0  0  0  0
 59 83  1  0  0  0  0
 60 61  1  0  0  0  0
 60 82  1  0  0  0  0
 61 84  1  0  0  0  0
 62 64  1  0  0  0  0
 62 73  1  0  0  0  0
 63 75  1  0  0  0  0
 66 67  1  0  0  0  0
M  CHG  1  75   1
M  ISO  4  37 100  60 101  74 100  82 101
M  END
> <Batch ID>
0146

> <Smiles>
CNC(C)C(=O)NC(C(=O)N1Cc2cc([101O:1][101CH2:1]COc3ncc(OCC[100NH:0][100C:0](=O)N4CCCC(n5nc(-c6ccc(Oc7ccc(F)cc7F)cc6)c(C(N)=O)c5N)C4)cc3C3CC3)ccc2CC1C(=O)NC1CCCc2ccccc21)C(C)(C)C

> <Shape>
0.271

> <Color>
0.179

> <Negative vol penalty>
0.000

$$$$

  -OEChem-04052321313D

 91100  0     1  0  0  0  0  0999 V2000
  -27.0043  -38.0496   15.5165 C   0  0  0  0  0  0  0  0  0  0  0  0
  -26.0982  -36.9975   15.4307 C   0  0  0  0  0  0  0  0  0  0  0  0
  -24.7761   -8.6532   21.5571 C   0  0  0  0  0  0  0  0  0  0  0  0
  -23.2089  -10.2249   20.6029 C   0  0  0  0  0  0  0  0  0  0  0  0
  -28.1275  -37.9358   16.3346 C   0  0  0  0  0  0  0  0  0  0  0  0
  -26.3154  -35.8303   16.1622 C   0  0  0  0  0  0  0  0  0  0  0  0
  -22.7526  -30.6229   19.5541 C   0  0  0  0  0  0  0  0  0  0  0  0
  -23.7864   -8.1938   22.4260 C   0  0  0  0  0  0  0  0  0  0  0  0
  -22.2191   -9.7655   21.4717 C   0  0  0  0  0  0  0  0  0  0  0  0
  -22.6702  -29.2321   19.6071 C   0  0  0  0  0  0  0  0  0  0  0  0
  -21.5723   -6.3578   24.6490 C   0  0  0  0  0  0  0  0  0  0  0  0
  -21.4394   -4.9786   24.8094 C   0  0  0  0  0  0  0  0  0  0  0  0
  -24.6037  -29.1787   21.0486 C   0  0  0  0  0  0  0  0  0  0  0  0
  -21.6114  -24.4194   20.7213 C   0  0  0  0  0  0  0  0  0  0  0  0
  -23.5079  -24.2968   19.2297 C   0  0  0  0  0  0  0  0  0  0  0  0
  -20.9793   -4.7484   22.4488 C   0  0  0  0  0  0  0  0  0  0  0  0
  -24.4874   -9.6688   20.6456 C   0  0  0  0  0  0  0  0  0  0  0  0
  -25.8042   -9.6568   18.4607 C   0  0  0  0  0  0  0  0  0  0  0  0
  -28.3536  -36.7705   17.0839 C   0  0  0  0  0  0  0  0  0  0  0  0
  -23.7694  -31.3024   20.2402 C   0  0  0  0  0  0  0  0  0  0  0  0
  -27.4435  -35.7003   16.9900 C   0  0  0  0  0  0  0  0  0  0  0  0
  -24.6952  -30.5782   21.0047 C   0  0  0  0  0  0  0  0  0  0  0  0
  -22.5288  -25.0482   19.8795 C   0  0  0  0  0  0  0  0  0  0  0  0
  -21.6732  -23.0392   20.9133 C   0  0  0  0  0  0  0  0  0  0  0  0
  -23.5697  -22.9165   19.4217 C   0  0  0  0  0  0  0  0  0  0  0  0
  -22.5079   -8.7499   22.3833 C   0  0  0  0  0  0  0  0  0  0  0  0
  -23.5976  -28.5096   20.3521 C   0  0  0  0  0  0  0  0  0  0  0  0
  -21.4087   -6.9323   23.3885 C   0  0  0  0  0  0  0  0  0  0  0  0
  -22.6523  -22.2878   20.2635 C   0  0  0  0  0  0  0  0  0  0  0  0
  -21.1429   -4.1739   23.7093 C   0  0  0  0  0  0  0  0  0  0  0  0
  -21.1122   -6.1277   22.2884 C   0  0  0  0  0  0  0  0  0  0  0  0
  -25.5095  -10.1442   19.7481 C   0  0  0  0  0  0  0  0  0  0  0  0
  -26.8486  -10.4373   18.0289 C   0  0  0  0  0  0  0  0  0  0  0  0
  -25.1889   -8.5937   17.7213 C   0  0  0  0  0  0  0  0  0  0  0  0
  -26.1854  -33.1817   19.3831 C   0  0  0  0  0  0  0  0  0  0  0  0
  -26.5406  -33.5303   22.5885 C   0  0  0  0  0  0  0  0  0  0  0  0
  -26.0221  -32.2653   25.7155 C   0  0  0  0  0  0  0  0  0  0  0  0
  -28.6706  -15.9610   19.4504 C   0  0  0  0  0  0  0  0  0  0  0  0
  -29.6067  -36.6753   17.9178 C   0  0  0  0  0  0  0  0  0  0  0  0
  -23.8284  -32.8047   20.1946 C   0  0  0  0  0  0  0  0  0  0  0  0
  -25.7938  -31.2615   21.7760 C   0  0  0  0  0  0  0  0  0  0  0  0
  -29.5678  -35.5509   18.9495 C   0  0  0  0  0  0  0  0  0  0  0  0
  -30.5691  -12.9571   19.6719 C   0  0  0  0  0  0  0  0  0  0  0  0
  -22.1278  -17.0123   21.2634 C   0  0  0  0  0  0  0  0  0  0  0  0
  -29.0621  -34.2600   18.3134 C   0  0  0  0  0  0  0  0  0  0  0  0
  -29.5143  -11.8516   19.6004 C   0  0  0  0  0  0  0  0  0  0  0  0
  -22.0432  -18.4224   21.8106 C   0  0  0  0  0  0  0  0  0  0  0  0
  -30.0627  -14.1711   20.4477 C   0  0  0  0  0  0  0  0  0  0  0  0
  -27.7255  -13.6152   19.8981 C   0  0  0  0  0  0  0  0  0  0  0  0
  -22.9105  -17.1780   19.9748 C   0  0  0  0  0  0  0  0  0  0  0  0
  -27.6315  -34.4278   17.7873 C   0  0  1  0  0  0  0  0  0  0  0  0
  -25.2134  -33.3582   20.5152 C   0  0  1  0  0  0  0  0  0  0  0  0
  -28.1699  -12.3924   19.0775 C   0  0  2  0  0  0  0  0  0  0  0  0
  -23.4495  -18.9549   21.5767 C   0  0  2  0  0  0  0  0  0  0  0  0
  -20.6821  -22.3842   21.8182 C   0  0  0  0  0  0  0  0  0  0  0  0
  -24.6248  -22.1291   18.7170 C   0  0  0  0  0  0  0  0  0  0  0  0
  -26.4586  -32.7580   28.1371 C   0  0  0  0  0  0  0  0  0  0  0  0
  -27.5343  -17.7173   16.9574 C   0  0  0  0  0  0  0  0  0  0  0  0
  -29.4543  -32.6986   22.2300 C   0  0  0  0  0  0  0  0  0  0  0  0
  -29.5685  -32.2897   24.6974 C   0  0  0  0  0  0  0  0  0  0  0  0
  -29.0972  -34.5826   23.8354 C   0  0  0  0  0  0  0  0  0  0  0  0
  -23.1303  -32.3475   26.3398 C   0  0  0  0  0  0  0  0  0  0  0  0
  -22.4628  -26.5329   19.6732 C   0  0  0  0  0  0  0  0  0  1  0  0
  -23.5252  -20.4697   21.5238 C   0  0  0  0  0  0  0  0  0  0  0  0
  -25.6859  -18.0320   18.6406 C   0  0  0  0  0  0  0  0  0  0  0  0
  -25.2881  -18.0187   20.1124 C   0  0  0  0  0  0  0  0  0  0  0  0
  -27.3100  -32.8026   23.6643 C   0  0  1  0  0  0  0  0  0  0  0  0
  -25.4795  -32.9018   26.9823 C   0  0  2  0  0  0  0  0  0  0  0  0
  -27.1566  -17.6440   18.4333 C   0  0  1  0  0  0  0  0  0  0  0  0
  -28.8381  -33.0801   23.5908 C   0  0  0  0  0  0  0  0  0  0  0  0
  -26.3027  -11.1559   20.1106 N   0  0  0  0  0  0  0  0  0  0  0  0
  -27.1062  -11.3105   19.0445 N   0  0  0  0  0  0  0  0  0  0  0  0
  -25.8134  -32.7314   21.6948 N   0  0  0  0  0  0  0  0  0  0  0  0
  -28.7856  -14.6355   19.9007 N   0  0  0  0  0  0  0  0  0  0  0  0
  -27.5627  -10.4550   16.8834 N   0  0  0  0  0  0  0  0  0  0  0  0
  -24.1283   -7.8946   18.3136 N   0  0  0  0  0  0  0  0  0  0  0  0
  -26.6817  -34.3681   18.8776 N   0  0  0  0  0  0  0  0  0  0  0  0
  -26.6946  -33.1795   24.9322 N   0  0  0  0  0  0  0  0  0  0  0  0
  -27.4280  -16.3176   18.9409 N   0  0  0  0  0  0  0  0  0  0  0  0
  -23.8336  -18.3587   20.2286 N   0  3  1  0  0  0  0  0  0  0  0  0
  -24.1929  -32.2600   27.3744 N   0  3  0  0  0  0  0  0  0  0  0  0
  -25.5791   -8.2624   16.5761 O   0  0  0  0  0  0  0  0  0  0  0  0
  -26.4656  -32.0526   18.9978 O   0  0  0  0  0  0  0  0  0  0  0  0
  -26.5775  -34.7626   22.5472 O   0  0  0  0  0  0  0  0  0  0  0  0
  -25.8683  -31.0754   25.4492 O   0  0  0  0  0  0  0  0  0  0  0  0
  -29.6076  -16.7655   19.4939 O   0  0  0  0  0  0  0  0  0  0  0  0
  -21.5418   -8.3017   23.2308 O   0  0  0  0  0  0  0  0  0  0  0  0
  -23.5199  -27.1520   20.4050 O   0  0  0  0  0  0  0  0  0  1  0  0
  -22.7121  -20.9381   20.4508 O   0  0  0  0  0  0  0  0  0  0  0  0
  -21.0168   -2.8493   23.8632 F   0  0  0  0  0  0  0  0  0  0  0  0
  -20.9551   -6.6738   21.0748 F   0  0  0  0  0  0  0  0  0  0  0  0
  1  2  1  0  0  0  0
  1  5  2  0  0  0  0
  2  6  2  0  0  0  0
  3  8  2  0  0  0  0
  3 17  1  0  0  0  0
  4  9  1  0  0  0  0
  4 17  2  0  0  0  0
  5 19  1  0  0  0  0
  6 21  1  0  0  0  0
  7 10  2  0  0  0  0
  7 20  1  0  0  0  0
  8 26  1  0  0  0  0
  9 26  2  0  0  0  0
 10 27  1  0  0  0  0
 11 12  2  0  0  0  0
 11 28  1  0  0  0  0
 12 30  1  0  0  0  0
 13 22  1  0  0  0  0
 13 27  2  0  0  0  0
 14 23  1  0  0  0  0
 14 24  2  0  0  0  0
 15 23  2  0  0  0  0
 15 25  1  0  0  0  0
 16 30  2  0  0  0  0
 16 31  1  0  0  0  0
 17 32  1  0  0  0  0
 18 32  1  0  0  0  0
 18 33  2  0  0  0  0
 18 34  1  0  0  0  0
 19 21  2  0  0  0  0
 19 39  1  0  0  0  0
 20 22  2  0  0  0  0
 20 40  1  0  0  0  0
 21 51  1  0  0  0  0
 22 41  1  0  0  0  0
 23 63  1  0  0  0  0
 24 29  1  0  0  0  0
 24 55  1  0  0  0  0
 25 29  2  0  0  0  0
 25 56  1  0  0  0  0
 26 87  1  0  0  0  0
 27 88  1  0  0  0  0
 28 31  2  0  0  0  0
 28 87  1  0  0  0  0
 29 89  1  0  0  0  0
 30 90  1  0  0  0  0
 31 91  1  0  0  0  0
 32 71  2  0  0  0  0
 33 72  1  0  0  0  0
 33 75  1  0  0  0  0
 34 76  1  0  0  0  0
 34 82  2  0  0  0  0
 35 52  1  0  0  0  0
 35 77  1  0  0  0  0
 35 83  2  0  0  0  0
 36 67  1  0  0  0  0
 36 73  1  0  0  0  0
 36 84  2  0  0  0  0
 37 68  1  0  0  0  0
 37 78  1  0  0  0  0
 37 85  2  0  0  0  0
 38 74  1  0  0  0  0
 38 79  1  0  0  0  0
 38 86  2  0  0  0  0
 39 42  1  0  0  0  0
 40 52  1  0  0  0  0
 41 73  1  0  0  0  0
 42 45  1  0  0  0  0
 43 46  1  0  0  0  0
 43 48  1  0  0  0  0
 44 47  1  0  0  0  0
 44 50  1  0  0  0  0
 45 51  1  0  0  0  0
 46 53  1  0  0  0  0
 47 54  1  0  0  0  0
 48 74  1  0  0  0  0
 49 53  1  0  0  0  0
 49 74  1  0  0  0  0
 50 80  1  0  0  0  0
 51 77  1  0  0  0  0
 52 73  1  0  0  0  0
 53 72  1  0  0  0  0
 54 64  1  0  0  0  0
 54 80  1  0  0  0  0
 57 68  1  0  0  0  0
 58 69  1  0  0  0  0
 59 70  1  0  0  0  0
 60 70  1  0  0  0  0
 61 70  1  0  0  0  0
 62 81  1  0  0  0  0
 63 88  1  0  0  0  0
 64 89  1  0  0  0  0
 65 66  1  0  0  0  0
 65 69  1  0  0  0  0
 66 80  1  0  0  0  0
 67 70  1  0  0  0  0
 67 78  1  0  0  0  0
 68 81  1  0  0  0  0
 69 79  1  0  0  0  0
 71 72  1  0  0  0  0
M  CHG  2  80   1  81   1
M  ISO  4  38 100  63 101  79 100  88 101
M  END
> <Batch ID>
0146

> <Smiles>
CNC(C)C(=O)NC(C(=O)N1Cc2cc([101O:1][101CH2:1]c3cc(C)c(OCC4CCCN4CCC(C)[100NH:0][100C:0](=O)N4CCCC(n5nc(-c6ccc(Oc7ccc(F)cc7F)cc6)c(C(N)=O)c5N)C4)c(C)c3)ccc2CC1C(=O)NC1CCCc2ccccc21)C(C)(C)C

> <Shape>
0.206

> <Color>
0.081

> <Negative vol penalty>
0.000

$$$$

  -OEChem-04052321313D

 85 94  0     1  0  0  0  0  0999 V2000
  -18.5885  -32.2706   19.7043 C   0  0  0  0  0  0  0  0  0  0  0  0
  -19.8633  -31.8406   19.3500 C   0  0  0  0  0  0  0  0  0  0  0  0
  -23.7978   -9.9780   22.1846 C   0  0  0  0  0  0  0  0  0  0  0  0
  -23.5832   -9.5912   19.8095 C   0  0  0  0  0  0  0  0  0  0  0  0
  -18.1473  -32.1304   21.0194 C   0  0  0  0  0  0  0  0  0  0  0  0
  -20.6980  -31.2711   20.3110 C   0  0  0  0  0  0  0  0  0  0  0  0
  -24.7616  -26.7698   19.4562 C   0  0  0  0  0  0  0  0  0  0  0  0
  -22.8377   -8.9967   22.4312 C   0  0  0  0  0  0  0  0  0  0  0  0
  -22.6230   -8.6099   20.0560 C   0  0  0  0  0  0  0  0  0  0  0  0
  -26.1417  -26.7770   19.2586 C   0  0  0  0  0  0  0  0  0  0  0  0
  -20.7058   -6.3412   23.7035 C   0  0  0  0  0  0  0  0  0  0  0  0
  -20.9650   -5.4211   24.7192 C   0  0  0  0  0  0  0  0  0  0  0  0
  -26.4750  -26.3839   21.6152 C   0  0  0  0  0  0  0  0  0  0  0  0
  -22.9563   -4.6991   23.5571 C   0  0  0  0  0  0  0  0  0  0  0  0
  -24.1705  -10.2753   20.8737 C   0  0  0  0  0  0  0  0  0  0  0  0
  -26.5549  -11.1109   20.5213 C   0  0  0  0  0  0  0  0  0  0  0  0
  -18.9734  -31.5502   21.9949 C   0  0  0  0  0  0  0  0  0  0  0  0
  -24.2271  -26.5801   20.7387 C   0  0  0  0  0  0  0  0  0  0  0  0
  -20.2678  -31.1243   21.6407 C   0  0  0  0  0  0  0  0  0  0  0  0
  -25.0877  -26.3722   21.8260 C   0  0  0  0  0  0  0  0  0  0  0  0
  -22.2503   -8.3126   21.3670 C   0  0  0  0  0  0  0  0  0  0  0  0
  -26.9987  -26.5870   20.3387 C   0  0  0  0  0  0  0  0  0  0  0  0
  -21.5719   -6.4403   22.6145 C   0  0  0  0  0  0  0  0  0  0  0  0
  -22.0903   -4.6000   24.6461 C   0  0  0  0  0  0  0  0  0  0  0  0
  -22.6971   -5.6193   22.5413 C   0  0  0  0  0  0  0  0  0  0  0  0
  -25.1619  -11.2893   20.6184 C   0  0  0  0  0  0  0  0  0  0  0  0
  -27.0456  -12.3692   20.2712 C   0  0  0  0  0  0  0  0  0  0  0  0
  -27.3356   -9.9148   20.6459 C   0  0  0  0  0  0  0  0  0  0  0  0
  -22.4276  -28.3191   22.6986 C   0  0  0  0  0  0  0  0  0  0  0  0
  -22.4487  -25.6140   24.4886 C   0  0  0  0  0  0  0  0  0  0  0  0
  -24.0056  -22.6864   25.2961 C   0  0  0  0  0  0  0  0  0  0  0  0
  -27.0815  -17.8465   21.3444 C   0  0  0  0  0  0  0  0  0  0  0  0
  -18.4701  -31.4630   23.4140 C   0  0  0  0  0  0  0  0  0  0  0  0
  -22.7356  -26.5483   20.9308 C   0  0  0  0  0  0  0  0  0  0  0  0
  -24.5639  -26.1440   23.2196 C   0  0  0  0  0  0  0  0  0  0  0  0
  -19.2771  -30.5071   24.2888 C   0  0  0  0  0  0  0  0  0  0  0  0
  -24.6962  -16.6501   19.0285 C   0  0  0  0  0  0  0  0  0  0  0  0
  -29.4322  -16.6485   23.9483 C   0  0  0  0  0  0  0  0  0  0  0  0
  -20.7721  -30.7437   24.0997 C   0  0  0  0  0  0  0  0  0  0  0  0
  -24.6847  -15.1396   19.2443 C   0  0  0  0  0  0  0  0  0  0  0  0
  -30.3751  -17.3457   22.9706 C   0  0  0  0  0  0  0  0  0  0  0  0
  -30.3865  -21.4339   23.3048 C   0  0  0  0  0  0  0  0  0  0  0  0
  -29.4631  -21.0980   20.9889 C   0  0  0  0  0  0  0  0  0  0  0  0
  -24.8702  -17.3827   20.3517 C   0  0  0  0  0  0  0  0  0  0  0  0
  -28.2221  -16.3289   23.0815 C   0  0  0  0  0  0  0  0  0  0  0  0
  -26.1524  -15.4824   21.3005 C   0  0  0  0  0  0  0  0  0  0  0  0
  -31.2383  -22.5860   22.7951 C   0  0  0  0  0  0  0  0  0  0  0  0
  -30.3168  -22.2510   20.4846 C   0  0  0  0  0  0  0  0  0  0  0  0
  -21.1934  -30.4790   22.6492 C   0  0  1  0  0  0  0  0  0  0  0  0
  -22.3108  -26.8593   22.3626 C   0  0  1  0  0  0  0  0  0  0  0  0
  -25.9498  -14.6910   19.9916 C   0  0  1  0  0  0  0  0  0  0  0  0
  -30.0904  -20.4196   22.2041 C   0  0  0  0  0  0  0  0  0  0  0  0
  -29.4230  -18.1663   22.1093 C   0  0  1  0  0  0  0  0  0  0  0  0
  -23.8050  -20.7043   26.8221 C   0  0  0  0  0  0  0  0  0  0  0  0
  -23.4247  -27.3169   26.8247 C   0  0  0  0  0  0  0  0  0  0  0  0
  -24.1025  -25.2067   27.9891 C   0  0  0  0  0  0  0  0  0  0  0  0
  -21.7046  -25.6050   27.4287 C   0  0  0  0  0  0  0  0  0  0  0  0
  -23.8032  -20.8071   23.0187 C   0  0  0  0  0  0  0  0  0  0  0  0
  -30.3873  -25.3362   20.2996 C   0  0  0  0  0  0  0  0  0  0  0  0
  -31.2952  -24.4498   21.1388 C   0  0  0  0  0  0  0  0  0  0  0  0
  -29.1315  -25.7945   21.0307 C   0  0  0  0  0  0  0  0  0  1  0  0
  -23.3362  -25.0587   25.5763 C   0  0  1  0  0  0  0  0  0  0  0  0
  -23.4748  -21.2726   25.4507 C   0  0  2  0  0  0  0  0  0  0  0  0
  -23.1522  -25.8030   26.9289 C   0  0  0  0  0  0  0  0  0  0  0  0
  -24.7915  -12.5607   20.4443 N   0  0  0  0  0  0  0  0  0  0  0  0
  -25.9590  -13.1927   20.2354 N   0  0  0  0  0  0  0  0  0  0  0  0
  -23.0982  -26.1279   23.3573 N   0  0  0  0  0  0  0  0  0  0  0  0
  -26.0601  -16.9300   21.0745 N   0  0  0  0  0  0  0  0  0  0  0  0
  -28.1754  -17.4062   22.0902 N   0  0  0  0  0  0  0  0  0  0  0  0
  -28.2962  -12.8404   20.0807 N   0  0  0  0  0  0  0  0  0  0  0  0
  -26.6718   -8.7075   20.9033 N   0  0  0  0  0  0  0  0  0  0  0  0
  -21.2965  -29.0564   22.4044 N   0  0  0  0  0  0  0  0  0  0  0  0
  -23.0583  -23.6278   25.6390 N   0  0  0  0  0  0  0  0  0  0  0  0
  -30.5543  -23.2292   21.6114 N   0  3  0  0  0  0  0  0  0  0  0  0
  -24.0700  -20.3799   24.4163 N   0  3  0  0  0  0  0  0  0  0  0  0
  -28.5862   -9.9192   20.5488 O   0  0  0  0  0  0  0  0  0  0  0  0
  -23.4664  -28.7448   23.1898 O   0  0  0  0  0  0  0  0  0  0  0  0
  -21.2241  -25.5861   24.6342 O   0  0  0  0  0  0  0  0  0  0  0  0
  -25.1476  -22.9310   24.9133 O   0  0  0  0  0  0  0  0  0  0  0  0
  -26.9919  -19.0275   20.9819 O   0  0  0  0  0  0  0  0  0  0  0  0
  -21.3136   -7.3548   21.6072 O   0  0  0  0  0  0  0  0  0  0  0  0
  -28.3556  -26.5943   20.1474 O   0  0  0  0  0  0  0  0  0  1  0  0
  -29.2010  -19.4346   22.7175 O   0  0  0  0  0  0  0  0  0  0  0  0
  -22.3398   -3.7176   25.6223 F   0  0  0  0  0  0  0  0  0  0  0  0
  -23.5334   -5.7107   21.4982 F   0  0  0  0  0  0  0  0  0  0  0  0
  1  2  1  0  0  0  0
  1  5  2  0  0  0  0
  2  6  2  0  0  0  0
  3  8  2  0  0  0  0
  3 15  1  0  0  0  0
  4  9  1  0  0  0  0
  4 15  2  0  0  0  0
  5 17  1  0  0  0  0
  6 19  1  0  0  0  0
  7 10  2  0  0  0  0
  7 18  1  0  0  0  0
  8 21  1  0  0  0  0
  9 21  2  0  0  0  0
 10 22  1  0  0  0  0
 11 12  2  0  0  0  0
 11 23  1  0  0  0  0
 12 24  1  0  0  0  0
 13 20  1  0  0  0  0
 13 22  2  0  0  0  0
 14 24  2  0  0  0  0
 14 25  1  0  0  0  0
 15 26  1  0  0  0  0
 16 26  1  0  0  0  0
 16 27  2  0  0  0  0
 16 28  1  0  0  0  0
 17 19  2  0  0  0  0
 17 33  1  0  0  0  0
 18 20  2  0  0  0  0
 18 34  1  0  0  0  0
 19 49  1  0  0  0  0
 20 35  1  0  0  0  0
 21 81  1  0  0  0  0
 22 82  1  0  0  0  0
 23 25  2  0  0  0  0
 23 81  1  0  0  0  0
 24 84  1  0  0  0  0
 25 85  1  0  0  0  0
 26 65  2  0  0  0  0
 27 66  1  0  0  0  0
 27 70  1  0  0  0  0
 28 71  1  0  0  0  0
 28 76  2  0  0  0  0
 29 50  1  0  0  0  0
 29 72  1  0  0  0  0
 29 77  2  0  0  0  0
 30 62  1  0  0  0  0
 30 67  1  0  0  0  0
 30 78  2  0  0  0  0
 31 63  1  0  0  0  0
 31 73  1  0  0  0  0
 31 79  2  0  0  0  0
 32 68  1  0  0  0  0
 32 69  1  0  0  0  0
 32 80  2  0  0  0  0
 33 36  1  0  0  0  0
 34 50  1  0  0  0  0
 35 67  1  0  0  0  0
 36 39  1  0  0  0  0
 37 40  1  0  0  0  0
 37 44  1  0  0  0  0
 38 41  1  0  0  0  0
 38 45  1  0  0  0  0
 39 49  1  0  0  0  0
 40 51  1  0  0  0  0
 41 53  1  0  0  0  0
 42 47  1  0  0  0  0
 42 52  1  0  0  0  0
 43 48  1  0  0  0  0
 43 52  1  0  0  0  0
 44 68  1  0  0  0  0
 45 69  1  0  0  0  0
 46 51  1  0  0  0  0
 46 68  1  0  0  0  0
 47 74  1  0  0  0  0
 48 74  1  0  0  0  0
 49 72  1  0  0  0  0
 50 67  1  0  0  0  0
 51 66  1  0  0  0  0
 52 83  1  0  0  0  0
 53 69  1  0  0  0  0
 53 83  1  0  0  0  0
 54 63  1  0  0  0  0
 55 64  1  0  0  0  0
 56 64  1  0  0  0  0
 57 64  1  0  0  0  0
 58 75  1  0  0  0  0
 59 60  1  0  0  0  0
 59 61  1  0  0  0  0
 60 74  1  0  0  0  0
 61 82  1  0  0  0  0
 62 64  1  0  0  0  0
 62 73  1  0  0  0  0
 63 75  1  0  0  0  0
 65 66  1  0  0  0  0
M  CHG  2  74   1  75   1
M  ISO  4  32 100  61 101  69 100  82 101
M  END
> <Batch ID>
0146

> <Smiles>
CNC(C)C(=O)NC(C(=O)N1Cc2cc([101O:1][101CH2:1]CCN3CCC(OC4CCC[100N:0]4[100C:0](=O)N4CCCC(n5nc(-c6ccc(Oc7ccc(F)cc7F)cc6)c(C(N)=O)c5N)C4)CC3)ccc2CC1C(=O)NC1CCCc2ccccc21)C(C)(C)C

> <Shape>
0.218

> <Color>
0.119

> <Negative vol penalty>
0.000

$$$$

  -OEChem-04052321313D

 91101  0     1  0  0  0  0  0999 V2000
  -17.0637  -29.7529   24.5922 C   0  0  0  0  0  0  0  0  0  0  0  0
  -17.5143  -28.4772   24.2683 C   0  0  0  0  0  0  0  0  0  0  0  0
  -29.6120  -19.3681   22.7456 C   0  0  0  0  0  0  0  0  0  0  0  0
  -30.8998  -19.0605   20.7247 C   0  0  0  0  0  0  0  0  0  0  0  0
  -17.5647  -30.8617   23.9115 C   0  0  0  0  0  0  0  0  0  0  0  0
  -18.4656  -28.3095   23.2627 C   0  0  0  0  0  0  0  0  0  0  0  0
  -22.9261  -24.1172   23.0765 C   0  0  0  0  0  0  0  0  0  0  0  0
  -29.6298  -20.7486   22.5469 C   0  0  0  0  0  0  0  0  0  0  0  0
  -30.9176  -20.4410   20.5259 C   0  0  0  0  0  0  0  0  0  0  0  0
  -23.0310  -22.8874   22.4283 C   0  0  0  0  0  0  0  0  0  0  0  0
  -28.8152  -22.8149   19.3577 C   0  0  0  0  0  0  0  0  0  0  0  0
  -28.5490  -23.2866   18.0723 C   0  0  0  0  0  0  0  0  0  0  0  0
  -24.2051  -23.9526   20.6101 C   0  0  0  0  0  0  0  0  0  0  0  0
  -30.7263  -24.3316   18.0049 C   0  0  0  0  0  0  0  0  0  0  0  0
  -22.9131  -13.7217   23.7334 C   0  0  0  0  0  0  0  0  0  0  0  0
  -30.2471  -18.5240   21.8345 C   0  0  0  0  0  0  0  0  0  0  0  0
  -30.7424  -16.3915   23.1440 C   0  0  0  0  0  0  0  0  0  0  0  0
  -18.5297  -30.7083   22.9036 C   0  0  0  0  0  0  0  0  0  0  0  0
  -23.4512  -25.2779   22.4903 C   0  0  0  0  0  0  0  0  0  0  0  0
  -18.9791  -29.4171   22.5669 C   0  0  0  0  0  0  0  0  0  0  0  0
  -24.1078  -25.1956   21.2541 C   0  0  0  0  0  0  0  0  0  0  0  0
  -23.5845  -11.7143   22.9658 C   0  0  0  0  0  0  0  0  0  0  0  0
  -23.0894  -12.4055   24.0990 C   0  0  0  0  0  0  0  0  0  0  0  0
  -30.2826  -21.2850   21.4370 C   0  0  0  0  0  0  0  0  0  0  0  0
  -23.6680  -22.8054   21.1935 C   0  0  0  0  0  0  0  0  0  0  0  0
  -30.0369  -23.1017   19.9667 C   0  0  0  0  0  0  0  0  0  0  0  0
  -29.5046  -24.0449   17.3958 C   0  0  0  0  0  0  0  0  0  0  0  0
  -30.9925  -23.8600   19.2903 C   0  0  0  0  0  0  0  0  0  0  0  0
  -30.2295  -17.0979   22.0396 C   0  0  0  0  0  0  0  0  0  0  0  0
  -23.6958  -12.6292   21.9421 C   0  0  0  0  0  0  0  0  0  0  0  0
  -30.4800  -15.0735   22.8605 C   0  0  0  0  0  0  0  0  0  0  0  0
  -31.3974  -16.8828   24.3210 C   0  0  0  0  0  0  0  0  0  0  0  0
  -22.2264  -28.0308   21.4780 C   0  0  0  0  0  0  0  0  0  0  0  0
  -25.3449  -28.8083   21.0384 C   0  0  0  0  0  0  0  0  0  0  0  0
  -28.5492  -27.7526   20.5240 C   0  0  0  0  0  0  0  0  0  0  0  0
  -26.3743  -12.3788   19.4351 C   0  0  0  0  0  0  0  0  0  0  0  0
  -19.0069  -31.9325   22.1631 C   0  0  0  0  0  0  0  0  0  0  0  0
  -23.3534  -26.5923   23.2149 C   0  0  0  0  0  0  0  0  0  0  0  0
  -24.7063  -26.4087   20.5917 C   0  0  0  0  0  0  0  0  0  0  0  0
  -20.2891  -31.7018   21.3674 C   0  0  0  0  0  0  0  0  0  0  0  0
  -29.9124  -12.0776   19.1735 C   0  0  0  0  0  0  0  0  0  0  0  0
  -24.9219   -9.6540   23.8815 C   0  0  0  0  0  0  0  0  0  0  0  0
  -25.3228   -9.8207   22.4491 C   0  0  0  0  0  0  0  0  0  0  0  0
  -20.1964  -30.4049   20.5698 C   0  0  0  0  0  0  0  0  0  0  0  0
  -22.7009  -18.2224   21.7919 C   0  0  0  0  0  0  0  0  0  0  0  0
  -25.2247  -18.3764   21.8431 C   0  0  0  0  0  0  0  0  0  0  0  0
  -30.4411  -13.2664   19.9780 C   0  0  0  0  0  0  0  0  0  0  0  0
  -22.6388  -19.5510   21.0444 C   0  0  0  0  0  0  0  0  0  0  0  0
  -25.1555  -19.7049   21.0960 C   0  0  0  0  0  0  0  0  0  0  0  0
  -28.6328  -12.4314   18.4187 C   0  0  0  0  0  0  0  0  0  0  0  0
  -28.0870  -14.1885   20.0584 C   0  0  0  0  0  0  0  0  0  0  0  0
  -23.9293  -10.2331   22.8892 C   0  0  0  0  0  0  0  0  0  0  0  0
  -20.0284  -29.1966   21.4990 C   0  0  1  0  0  0  0  0  0  0  0  0
  -23.4714  -27.7968   22.2860 C   0  0  1  0  0  0  0  0  0  0  0  0
  -24.0187  -17.4830   21.5214 C   0  0  0  0  0  0  0  0  0  0  0  0
  -29.3455  -13.8640   20.8812 C   0  0  2  0  0  0  0  0  0  0  0  0
  -23.8412  -20.4350   21.3641 C   0  0  0  0  0  0  0  0  0  1  0  0
  -21.3189  -11.9347   25.8303 C   0  0  0  0  0  0  0  0  0  0  0  0
  -23.6795  -12.4503   26.5493 C   0  0  0  0  0  0  0  0  0  0  0  0
  -30.8760  -28.6216   20.1660 C   0  0  0  0  0  0  0  0  0  0  0  0
  -24.6291  -29.5331   18.1622 C   0  0  0  0  0  0  0  0  0  0  0  0
  -27.0708  -29.4701   17.6123 C   0  0  0  0  0  0  0  0  0  0  0  0
  -26.2107  -31.1189   19.2750 C   0  0  0  0  0  0  0  0  0  0  0  0
  -29.5479  -26.4205   22.9708 C   0  0  0  0  0  0  0  0  0  0  0  0
  -24.1578  -12.4503   20.5490 C   0  0  0  0  0  0  0  0  0  0  0  0
  -24.0818  -16.1832   22.3215 C   0  0  0  0  0  0  0  0  0  0  0  0
  -23.2435  -15.0932   21.6638 C   0  0  0  0  0  0  0  0  0  0  0  0
  -22.8091  -11.8326   25.4304 C   0  0  0  0  0  0  0  0  0  0  0  0
  -26.3307  -28.6729   19.9031 C   0  0  1  0  0  0  0  0  0  0  0  0
  -29.8572  -28.1427   21.1885 C   0  0  2  0  0  0  0  0  0  0  0  0
  -26.0474  -29.6760   18.7495 C   0  0  0  0  0  0  0  0  0  0  0  0
  -29.6828  -16.2951   21.1227 N   0  0  0  0  0  0  0  0  0  0  0  0
  -23.2852  -13.8462   22.4203 N   0  0  0  0  0  0  0  0  0  0  0  0
  -29.8507  -15.0706   21.6504 N   0  0  0  0  0  0  0  0  0  0  0  0
  -24.5794  -27.6721   21.3368 N   0  0  0  0  0  0  0  0  0  0  0  0
  -27.6342  -12.9914   19.3326 N   0  0  0  0  0  0  0  0  0  0  0  0
  -30.7285  -13.9282   23.5306 N   0  0  0  0  0  0  0  0  0  0  0  0
  -31.5864  -18.2653   24.4526 N   0  0  0  0  0  0  0  0  0  0  0  0
  -21.2960  -28.8412   22.1001 N   0  0  0  0  0  0  0  0  0  0  0  0
  -27.6570  -28.8036   20.4964 N   0  0  0  0  0  0  0  0  0  0  0  0
  -25.4893  -12.9693   20.3288 N   0  0  0  0  0  0  0  0  0  0  0  0
  -30.4349  -26.9787   21.9180 N   0  3  0  0  0  0  0  0  0  0  0  0
  -31.8178  -16.1172   25.2214 O   0  0  0  0  0  0  0  0  0  0  0  0
  -22.1186  -27.5156   20.3714 O   0  0  0  0  0  0  0  0  0  0  0  0
  -25.2623  -29.8803   21.6430 O   0  0  0  0  0  0  0  0  0  0  0  0
  -28.3413  -26.6291   20.0712 O   0  0  0  0  0  0  0  0  0  0  0  0
  -26.0633  -11.3765   18.7827 O   0  0  0  0  0  0  0  0  0  0  0  0
  -30.3000  -22.6321   21.2426 O   0  0  0  0  0  0  0  0  0  0  0  0
  -23.7712  -21.6063   20.5584 O   0  0  0  0  0  0  0  0  0  1  0  0
  -29.2494  -24.4964   16.1609 F   0  0  0  0  0  0  0  0  0  0  0  0
  -32.1684  -24.1377   19.8698 F   0  0  0  0  0  0  0  0  0  0  0  0
  1  2  1  0  0  0  0
  1  5  2  0  0  0  0
  2  6  2  0  0  0  0
  3  8  2  0  0  0  0
  3 16  1  0  0  0  0
  4  9  1  0  0  0  0
  4 16  2  0  0  0  0
  5 18  1  0  0  0  0
  6 20  1  0  0  0  0
  7 10  2  0  0  0  0
  7 19  1  0  0  0  0
  8 24  1  0  0  0  0
  9 24  2  0  0  0  0
 10 25  1  0  0  0  0
 11 12  2  0  0  0  0
 11 26  1  0  0  0  0
 12 27  1  0  0  0  0
 13 21  1  0  0  0  0
 13 25  2  0  0  0  0
 14 27  2  0  0  0  0
 14 28  1  0  0  0  0
 15 23  2  0  0  0  0
 15 73  1  0  0  0  0
 16 29  1  0  0  0  0
 17 29  1  0  0  0  0
 17 31  2  0  0  0  0
 17 32  1  0  0  0  0
 18 20  2  0  0  0  0
 18 37  1  0  0  0  0
 19 21  2  0  0  0  0
 19 38  1  0  0  0  0
 20 53  1  0  0  0  0
 21 39  1  0  0  0  0
 22 23  1  0  0  0  0
 22 30  2  0  0  0  0
 22 52  1  0  0  0  0
 23 68  1  0  0  0  0
 24 88  1  0  0  0  0
 25 89  1  0  0  0  0
 26 28  2  0  0  0  0
 26 88  1  0  0  0  0
 27 90  1  0  0  0  0
 28 91  1  0  0  0  0
 29 72  2  0  0  0  0
 30 65  1  0  0  0  0
 30 73  1  0  0  0  0
 31 74  1  0  0  0  0
 31 77  1  0  0  0  0
 32 78  1  0  0  0  0
 32 83  2  0  0  0  0
 33 54  1  0  0  0  0
 33 79  1  0  0  0  0
 33 84  2  0  0  0  0
 34 69  1  0  0  0  0
 34 75  1  0  0  0  0
 34 85  2  0  0  0  0
 35 70  1  0  0  0  0
 35 80  1  0  0  0  0
 35 86  2  0  0  0  0
 36 76  1  0  0  0  0
 36 81  1  0  0  0  0
 36 87  2  0  0  0  0
 37 40  1  0  0  0  0
 38 54  1  0  0  0  0
 39 75  1  0  0  0  0
 40 44  1  0  0  0  0
 41 47  1  0  0  0  0
 41 50  1  0  0  0  0
 42 43  1  0  0  0  0
 42 52  1  0  0  0  0
 43 52  1  0  0  0  0
 44 53  1  0  0  0  0
 45 48  1  0  0  0  0
 45 55  1  0  0  0  0
 46 49  1  0  0  0  0
 46 55  1  0  0  0  0
 47 56  1  0  0  0  0
 48 57  1  0  0  0  0
 49 57  1  0  0  0  0
 50 76  1  0  0  0  0
 51 56  1  0  0  0  0
 51 76  1  0  0  0  0
 53 79  1  0  0  0  0
 54 75  1  0  0  0  0
 55 66  1  0  0  0  0
 56 74  1  0  0  0  0
 57 89  1  0  0  0  0
 58 68  1  0  0  0  0
 59 68  1  0  0  0  0
 60 70  1  0  0  0  0
 61 71  1  0  0  0  0
 62 71  1  0  0  0  0
 63 71  1  0  0  0  0
 64 82  1  0  0  0  0
 65 81  1  0  0  0  0
 66 67  1  0  0  0  0
 67 73  1  0  0  0  0
 69 71  1  0  0  0  0
 69 80  1  0  0  0  0
 70 82  1  0  0  0  0
 72 74  1  0  0  0  0
M  CHG  1  82   1
M  ISO  4  36 100  57 101  81 100  89 101
M  END
> <Batch ID>
0146

> <Smiles>
CNC(C)C(=O)NC(C(=O)N1Cc2cc([101O:1][101CH:1]3CCC(CCn4cc(C(C)C)c(C5CC5)c4C[100NH:0][100C:0](=O)N4CCCC(n5nc(-c6ccc(Oc7ccc(F)cc7F)cc6)c(C(N)=O)c5N)C4)CC3)ccc2CC1C(=O)NC1CCCc2ccccc21)C(C)(C)C

> <Shape>
0.262

> <Color>
0.068

> <Negative vol penalty>
0.000

$$$$

  -OEChem-04052321313D

 91100  0     1  0  0  0  0  0999 V2000
  -24.6184  -38.3032   21.4309 C   0  0  0  0  0  0  0  0  0  0  0  0
  -23.6733  -37.3252   21.7238 C   0  0  0  0  0  0  0  0  0  0  0  0
  -23.3096  -10.5583   21.9646 C   0  0  0  0  0  0  0  0  0  0  0  0
  -24.7909   -8.7107   21.4859 C   0  0  0  0  0  0  0  0  0  0  0  0
  -25.5924  -38.0620   20.4629 C   0  0  0  0  0  0  0  0  0  0  0  0
  -23.7010  -36.1058   21.0480 C   0  0  0  0  0  0  0  0  0  0  0  0
  -22.2962  -29.1494   22.0234 C   0  0  0  0  0  0  0  0  0  0  0  0
  -22.2159   -9.6940   21.9162 C   0  0  0  0  0  0  0  0  0  0  0  0
  -23.6972   -7.8464   21.4376 C   0  0  0  0  0  0  0  0  0  0  0  0
  -21.5757  -28.1048   21.4460 C   0  0  0  0  0  0  0  0  0  0  0  0
  -21.3304   -5.0887   21.5448 C   0  0  0  0  0  0  0  0  0  0  0  0
  -21.4410   -3.8641   22.2034 C   0  0  0  0  0  0  0  0  0  0  0  0
  -23.3530  -27.7695   19.8497 C   0  0  0  0  0  0  0  0  0  0  0  0
  -21.7977   -5.0209   24.2943 C   0  0  0  0  0  0  0  0  0  0  0  0
  -26.2906  -21.8709   20.8402 C   0  0  0  0  0  0  0  0  0  0  0  0
  -24.5972  -10.0667   21.7494 C   0  0  0  0  0  0  0  0  0  0  0  0
  -26.5023  -11.2879   22.9270 C   0  0  0  0  0  0  0  0  0  0  0  0
  -25.6380  -36.8353   19.7818 C   0  0  0  0  0  0  0  0  0  0  0  0
  -23.5478  -29.5196   21.5106 C   0  0  0  0  0  0  0  0  0  0  0  0
  -24.6758  -35.8485   20.0691 C   0  0  0  0  0  0  0  0  0  0  0  0
  -24.0885  -28.8174   20.4240 C   0  0  0  0  0  0  0  0  0  0  0  0
  -26.8203  -19.1913   20.6535 C   0  0  0  0  0  0  0  0  0  0  0  0
  -25.2211  -20.9960   20.8183 C   0  0  0  0  0  0  0  0  0  0  0  0
  -25.4973  -19.6378   20.7269 C   0  0  0  0  0  0  0  0  0  0  0  0
  -22.4097   -8.3381   21.6527 C   0  0  0  0  0  0  0  0  0  0  0  0
  -22.1028  -27.4166   20.3571 C   0  0  0  0  0  0  0  0  0  0  0  0
  -21.4535   -6.2794   22.2609 C   0  0  0  0  0  0  0  0  0  0  0  0
  -21.6746   -3.8302   23.5782 C   0  0  0  0  0  0  0  0  0  0  0  0
  -21.6871   -6.2455   23.6356 C   0  0  0  0  0  0  0  0  0  0  0  0
  -25.7273  -10.9591   21.7987 C   0  0  0  0  0  0  0  0  0  0  0  0
  -27.8326  -20.1534   20.6870 C   0  0  0  0  0  0  0  0  0  0  0  0
  -27.4454  -12.1660   22.4517 C   0  0  0  0  0  0  0  0  0  0  0  0
  -26.3807  -10.8395   24.2834 C   0  0  0  0  0  0  0  0  0  0  0  0
  -24.7434  -32.1564   20.1984 C   0  0  0  0  0  0  0  0  0  0  0  0
  -27.5253  -30.4933   20.3319 C   0  0  0  0  0  0  0  0  0  0  0  0
  -29.0839  -27.4602   20.4662 C   0  0  0  0  0  0  0  0  0  0  0  0
  -28.9673  -16.4705   19.3907 C   0  0  0  0  0  0  0  0  0  0  0  0
  -26.6807  -36.6385   18.7099 C   0  0  0  0  0  0  0  0  0  0  0  0
  -24.3243  -30.6312   22.1617 C   0  0  0  0  0  0  0  0  0  0  0  0
  -25.4370  -29.1625   19.8487 C   0  0  0  0  0  0  0  0  0  0  0  0
  -27.1085  -17.7145   20.5936 C   0  0  0  0  0  0  0  0  0  0  0  0
  -26.8703  -35.1788   18.3055 C   0  0  0  0  0  0  0  0  0  0  0  0
  -28.7009  -13.4342   17.7295 C   0  0  0  0  0  0  0  0  0  0  0  0
  -25.5191  -34.5057   18.0863 C   0  0  0  0  0  0  0  0  0  0  0  0
  -27.9610  -12.5366   18.7201 C   0  0  0  0  0  0  0  0  0  0  0  0
  -28.1181  -14.8421   17.7322 C   0  0  0  0  0  0  0  0  0  0  0  0
  -27.3936  -14.6077   20.0871 C   0  0  0  0  0  0  0  0  0  0  0  0
  -24.6882  -34.5037   19.3751 C   0  0  1  0  0  0  0  0  0  0  0  0
  -29.2877  -19.7465   20.5945 C   0  0  1  0  0  0  0  0  0  0  0  0
  -25.3600  -31.2594   21.2342 C   0  0  1  0  0  0  0  0  0  0  0  0
  -27.9418  -13.1665   20.1234 C   0  0  1  0  0  0  0  0  0  0  0  0
  -29.5100  -18.2762   21.0131 C   0  0  1  0  0  0  0  0  0  0  0  0
  -24.3616  -18.6619   20.7175 C   0  0  0  0  0  0  0  0  0  0  0  0
  -29.7918  -20.0019   19.1685 C   0  0  0  0  0  0  0  0  0  0  0  0
  -31.3665  -26.4194   20.5272 C   0  0  0  0  0  0  0  0  0  0  0  0
  -27.8573  -31.0527   17.3508 C   0  0  0  0  0  0  0  0  0  0  0  0
  -29.5852  -29.2424   17.2746 C   0  0  0  0  0  0  0  0  0  0  0  0
  -29.9580  -31.2612   18.6917 C   0  0  0  0  0  0  0  0  0  0  0  0
  -28.5701  -26.2090   23.0986 C   0  0  0  0  0  0  0  0  0  0  0  0
  -29.6539  -16.4656   24.2219 C   0  0  0  0  0  0  0  0  0  0  0  0
  -23.8286  -21.5189   20.8966 C   0  0  0  0  0  0  0  0  0  0  0  0
  -29.4733  -18.0931   22.5362 C   0  0  0  0  0  0  0  0  0  0  0  0
  -23.0979  -21.5975   19.5412 C   0  0  0  0  0  0  0  0  0  0  0  0
  -21.6864  -22.1738   19.5985 C   0  0  0  0  0  0  0  0  0  0  0  0
  -20.3794  -24.2397   20.1108 C   0  0  0  0  0  0  0  0  0  0  0  0
  -20.5365  -25.6501   20.6440 C   0  0  0  0  0  0  0  0  0  1  0  0
  -28.2478  -29.5426   19.4083 C   0  0  1  0  0  0  0  0  0  0  0  0
  -30.2005  -26.9399   21.3532 C   0  0  2  0  0  0  0  0  0  0  0  0
  -28.8858  -30.2692   18.1907 C   0  0  0  0  0  0  0  0  0  0  0  0
  -27.5836  -21.4851   20.7770 N   0  0  0  0  0  0  0  0  0  0  0  0
  -26.1420  -11.5782   20.6901 N   0  0  0  0  0  0  0  0  0  0  0  0
  -27.1878  -12.3048   21.1196 N   0  0  0  0  0  0  0  0  0  0  0  0
  -26.1549  -30.2611   20.5160 N   0  0  0  0  0  0  0  0  0  0  0  0
  -28.5268  -17.3968   20.3544 N   0  0  0  0  0  0  0  0  0  0  0  0
  -28.1041  -15.4096   19.0805 N   0  0  0  0  0  0  0  0  0  0  0  0
  -28.4616  -12.8254   23.0475 N   0  0  0  0  0  0  0  0  0  0  0  0
  -25.3560   -9.9370   24.5994 N   0  0  0  0  0  0  0  0  0  0  0  0
  -25.1562  -33.4728   20.2766 N   0  0  0  0  0  0  0  0  0  0  0  0
  -29.2026  -28.8147   20.2372 N   0  0  0  0  0  0  0  0  0  0  0  0
  -29.7031  -25.8307   22.2153 N   0  3  0  0  0  0  0  0  0  0  0  0
  -21.7120  -23.5757   20.0768 N   0  3  0  0  0  0  0  0  0  0  0  0
  -27.1475  -11.2403   25.1916 O   0  0  0  0  0  0  0  0  0  0  0  0
  -23.9529  -31.6885   19.3874 O   0  0  0  0  0  0  0  0  0  0  0  0
  -28.1551  -31.4039   20.8757 O   0  0  0  0  0  0  0  0  0  0  0  0
  -28.1972  -26.7366   20.0180 O   0  0  0  0  0  0  0  0  0  0  0  0
  -30.0618  -16.5916   18.8257 O   0  0  0  0  0  0  0  0  0  0  0  0
  -21.3427   -7.4943   21.6057 O   0  0  0  0  0  0  0  0  0  0  0  0
  -21.3963  -26.3897   19.7871 O   0  0  0  0  0  0  0  0  0  1  0  0
  -29.6738  -16.7237   22.8214 O   0  0  0  0  0  0  0  0  0  0  0  0
  -21.7792   -2.6542   24.2108 F   0  0  0  0  0  0  0  0  0  0  0  0
  -21.8051   -7.3861   24.3291 F   0  0  0  0  0  0  0  0  0  0  0  0
  1  2  1  0  0  0  0
  1  5  2  0  0  0  0
  2  6  2  0  0  0  0
  3  8  2  0  0  0  0
  3 16  1  0  0  0  0
  4  9  1  0  0  0  0
  4 16  2  0  0  0  0
  5 18  1  0  0  0  0
  6 20  1  0  0  0  0
  7 10  2  0  0  0  0
  7 19  1  0  0  0  0
  8 25  1  0  0  0  0
  9 25  2  0  0  0  0
 10 26  1  0  0  0  0
 11 12  2  0  0  0  0
 11 27  1  0  0  0  0
 12 28  1  0  0  0  0
 13 21  1  0  0  0  0
 13 26  2  0  0  0  0
 14 28  2  0  0  0  0
 14 29  1  0  0  0  0
 15 23  1  0  0  0  0
 15 70  2  0  0  0  0
 16 30  1  0  0  0  0
 17 30  1  0  0  0  0
 17 32  2  0  0  0  0
 17 33  1  0  0  0  0
 18 20  2  0  0  0  0
 18 38  1  0  0  0  0
 19 21  2  0  0  0  0
 19 39  1  0  0  0  0
 20 48  1  0  0  0  0
 21 40  1  0  0  0  0
 22 24  1  0  0  0  0
 22 31  2  0  0  0  0
 22 41  1  0  0  0  0
 23 24  2  0  0  0  0
 23 61  1  0  0  0  0
 24 53  1  0  0  0  0
 25 87  1  0  0  0  0
 26 88  1  0  0  0  0
 27 29  2  0  0  0  0
 27 87  1  0  0  0  0
 28 90  1  0  0  0  0
 29 91  1  0  0  0  0
 30 71  2  0  0  0  0
 31 49  1  0  0  0  0
 31 70  1  0  0  0  0
 32 72  1  0  0  0  0
 32 76  1  0  0  0  0
 33 77  1  0  0  0  0
 33 82  2  0  0  0  0
 34 50  1  0  0  0  0
 34 78  1  0  0  0  0
 34 83  2  0  0  0  0
 35 67  1  0  0  0  0
 35 73  1  0  0  0  0
 35 84  2  0  0  0  0
 36 68  1  0  0  0  0
 36 79  1  0  0  0  0
 36 85  2  0  0  0  0
 37 74  1  0  0  0  0
 37 75  1  0  0  0  0
 37 86  2  0  0  0  0
 38 42  1  0  0  0  0
 39 50  1  0  0  0  0
 40 73  1  0  0  0  0
 41 74  1  0  0  0  0
 42 44  1  0  0  0  0
 43 45  1  0  0  0  0
 43 46  1  0  0  0  0
 44 48  1  0  0  0  0
 45 51  1  0  0  0  0
 46 75  1  0  0  0  0
 47 51  1  0  0  0  0
 47 75  1  0  0  0  0
 48 78  1  0  0  0  0
 49 52  1  0  0  0  0
 49 54  1  0  0  0  0
 50 73  1  0  0  0  0
 51 72  1  0  0  0  0
 52 62  1  0  0  0  0
 52 74  1  0  0  0  0
 55 68  1  0  0  0  0
 56 69  1  0  0  0  0
 57 69  1  0  0  0  0
 58 69  1  0  0  0  0
 59 80  1  0  0  0  0
 60 89  1  0  0  0  0
 61 63  1  0  0  0  0
 62 89  1  0  0  0  0
 63 64  1  0  0  0  0
 64 81  1  0  0  0  0
 65 66  1  0  0  0  0
 65 81  1  0  0  0  0
 66 88  1  0  0  0  0
 67 69  1  0  0  0  0
 67 79  1  0  0  0  0
 68 80  1  0  0  0  0
 71 72  1  0  0  0  0
M  CHG  2  80   1  81   1
M  ISO  4  37 100  66 101  74 100  88 101
M  END
> <Batch ID>
0146

> <Smiles>
CNC(C)C(=O)NC(C(=O)N1Cc2cc([101O:1][101CH2:1]CNCCCc3cnc4c(c3C)C[100N:0]([100C:0](=O)N3CCCC(n5nc(-c6ccc(Oc7ccc(F)cc7F)cc6)c(C(N)=O)c5N)C3)C(COC)C4C)ccc2CC1C(=O)NC1CCCc2ccccc21)C(C)(C)C

> <Shape>
0.265

> <Color>
0.093

> <Negative vol penalty>
0.000

$$$$

  -OEChem-04052321313D

 87 97  0     1  0  0  0  0  0999 V2000
  -25.5371  -31.0995   20.3995 C   0  0  0  0  0  0  0  0  0  0  0  0
  -25.3501  -29.8441   19.8321 C   0  0  0  0  0  0  0  0  0  0  0  0
  -29.0779  -22.5601   20.1577 C   0  0  0  0  0  0  0  0  0  0  0  0
  -27.2827  -21.9628   21.6602 C   0  0  0  0  0  0  0  0  0  0  0  0
  -24.8569  -31.4409   21.5666 C   0  0  0  0  0  0  0  0  0  0  0  0
  -24.4739  -28.9342   20.4247 C   0  0  0  0  0  0  0  0  0  0  0  0
  -23.1923  -23.1545   18.9824 C   0  0  0  0  0  0  0  0  0  0  0  0
  -28.5438  -23.8422   20.0292 C   0  0  0  0  0  0  0  0  0  0  0  0
  -26.7486  -23.2449   21.5318 C   0  0  0  0  0  0  0  0  0  0  0  0
  -23.6484  -21.8827   19.3261 C   0  0  0  0  0  0  0  0  0  0  0  0
  -28.4878  -26.7084   21.8222 C   0  0  0  0  0  0  0  0  0  0  0  0
  -29.3676  -27.7879   21.9006 C   0  0  0  0  0  0  0  0  0  0  0  0
  -20.6475  -13.9194   21.9120 C   0  0  0  0  0  0  0  0  0  0  0  0
  -21.8657  -21.6858   20.9392 C   0  0  0  0  0  0  0  0  0  0  0  0
  -28.7347  -28.4659   19.6698 C   0  0  0  0  0  0  0  0  0  0  0  0
  -20.3501  -12.8695   22.7658 C   0  0  0  0  0  0  0  0  0  0  0  0
  -28.4473  -21.6203   20.9731 C   0  0  0  0  0  0  0  0  0  0  0  0
  -29.9394  -19.8575   22.0565 C   0  0  0  0  0  0  0  0  0  0  0  0
  -23.9816  -30.5296   22.1800 C   0  0  0  0  0  0  0  0  0  0  0  0
  -22.0740  -23.7069   19.6233 C   0  0  0  0  0  0  0  0  0  0  0  0
  -23.7599  -29.2689   21.5895 C   0  0  0  0  0  0  0  0  0  0  0  0
  -21.3958  -22.9638   20.6000 C   0  0  0  0  0  0  0  0  0  0  0  0
  -22.9740  -13.4113   22.2491 C   0  0  0  0  0  0  0  0  0  0  0  0
  -27.3792  -24.1846   20.7163 C   0  0  0  0  0  0  0  0  0  0  0  0
  -22.9869  -21.1493   20.3066 C   0  0  0  0  0  0  0  0  0  0  0  0
  -27.7315  -26.5075   20.6675 C   0  0  0  0  0  0  0  0  0  0  0  0
  -21.9869  -14.1890   21.6539 C   0  0  0  0  0  0  0  0  0  0  0  0
  -29.4910  -28.6667   20.8245 C   0  0  0  0  0  0  0  0  0  0  0  0
  -27.8549  -27.3863   19.5913 C   0  0  0  0  0  0  0  0  0  0  0  0
  -28.9981  -20.2955   21.1058 C   0  0  0  0  0  0  0  0  0  0  0  0
  -22.5724  -12.3842   23.0879 C   0  0  0  0  0  0  0  0  0  0  0  0
  -30.1331  -18.5301   21.7616 C   0  0  0  0  0  0  0  0  0  0  0  0
  -30.5812  -20.5854   23.1120 C   0  0  0  0  0  0  0  0  0  0  0  0
  -21.5666  -26.2637   21.4423 C   0  0  0  0  0  0  0  0  0  0  0  0
  -18.4648  -25.3512   21.1814 C   0  0  0  0  0  0  0  0  0  0  0  0
  -16.2205  -22.8445   20.6099 C   0  0  0  0  0  0  0  0  0  0  0  0
  -26.7341  -14.4194   19.0415 C   0  0  0  0  0  0  0  0  0  0  0  0
  -23.2651  -30.9542   23.4377 C   0  0  0  0  0  0  0  0  0  0  0  0
  -21.5785  -25.0693   19.2222 C   0  0  0  0  0  0  0  0  0  0  0  0
  -20.1783  -23.5034   21.3035 C   0  0  0  0  0  0  0  0  0  0  0  0
  -22.7069  -29.7766   24.2302 C   0  0  0  0  0  0  0  0  0  0  0  0
  -30.0098  -15.4507   18.1020 C   0  0  0  0  0  0  0  0  0  0  0  0
  -21.9224  -28.8550   23.3085 C   0  0  0  0  0  0  0  0  0  0  0  0
  -23.5768  -11.3874   25.2493 C   0  0  0  0  0  0  0  0  0  0  0  0
  -24.6672  -12.1691   24.5859 C   0  0  0  0  0  0  0  0  0  0  0  0
  -30.2069  -16.7698   18.8511 C   0  0  0  0  0  0  0  0  0  0  0  0
  -25.2902  -12.5669   21.4779 C   0  0  0  0  0  0  0  0  0  0  0  0
  -28.5700  -15.2845   17.6211 C   0  0  0  0  0  0  0  0  0  0  0  0
  -27.7424  -16.7509   19.4207 C   0  0  0  0  0  0  0  0  0  0  0  0
  -24.4176  -13.6828   21.9843 C   0  0  1  0  0  0  0  0  0  0  0  0
  -22.8351  -28.2517   22.2334 C   0  0  1  0  0  0  0  0  0  0  0  0
  -23.5969  -11.5205   23.7510 C   0  0  0  0  0  0  0  0  0  0  0  0
  -20.7377  -25.7414   20.3032 C   0  0  1  0  0  0  0  0  0  0  0  0
  -29.1655  -16.9381   19.9738 C   0  0  2  0  0  0  0  0  0  0  0  0
  -24.9094  -13.6873   20.5560 C   0  0  1  0  0  0  0  0  0  0  0  0
  -13.7539  -22.3961   20.5000 C   0  0  0  0  0  0  0  0  0  0  0  0
  -18.3195  -25.4166   24.2284 C   0  0  0  0  0  0  0  0  0  0  0  0
  -16.2082  -24.0785   24.0871 C   0  0  0  0  0  0  0  0  0  0  0  0
  -16.3118  -26.3531   23.0680 C   0  0  0  0  0  0  0  0  0  0  0  0
  -16.3806  -22.0122   17.7743 C   0  0  0  0  0  0  0  0  0  0  0  0
  -22.8740  -17.5612   20.7133 C   0  0  0  0  0  0  0  0  0  0  0  0
  -22.4547  -18.9710   21.0991 C   0  0  0  0  0  0  0  0  0  1  0  0
  -21.8755  -16.5194   21.1930 C   0  0  0  0  0  0  0  0  0  0  0  0
  -17.5479  -24.4432   21.9650 C   0  0  1  0  0  0  0  0  0  0  0  0
  -14.9989  -22.7716   19.7116 C   0  0  2  0  0  0  0  0  0  0  0  0
  -17.1210  -25.0632   23.3254 C   0  0  0  0  0  0  0  0  0  0  0  0
  -21.2814  -12.0921   23.3625 N   0  0  0  0  0  0  0  0  0  0  0  0
  -28.6203  -19.3251   20.2693 N   0  0  0  0  0  0  0  0  0  0  0  0
  -29.3278  -18.2642   20.6935 N   0  0  0  0  0  0  0  0  0  0  0  0
  -19.7363  -24.8426   20.8808 N   0  0  0  0  0  0  0  0  0  0  0  0
  -27.6327  -15.4543   18.7340 N   0  0  0  0  0  0  0  0  0  0  0  0
  -30.9122  -17.5762   22.3143 N   0  0  0  0  0  0  0  0  0  0  0  0
  -30.2674  -21.9417   23.2750 N   0  0  0  0  0  0  0  0  0  0  0  0
  -22.0224  -27.5555   21.2605 N   0  0  0  0  0  0  0  0  0  0  0  0
  -16.4344  -24.1236   21.0783 N   0  0  0  0  0  0  0  0  0  0  0  0
  -25.8848  -14.6592   20.1148 N   0  0  0  0  0  0  0  0  0  0  0  0
  -15.2026  -21.7542   18.6419 N   0  3  0  0  0  0  0  0  0  0  0  0
  -31.4207  -20.0532   23.8771 O   0  0  0  0  0  0  0  0  0  0  0  0
  -21.7760  -25.5483   22.4150 O   0  0  0  0  0  0  0  0  0  0  0  0
  -18.0649  -26.4677   20.8421 O   0  0  0  0  0  0  0  0  0  0  0  0
  -16.9133  -21.8640   20.8730 O   0  0  0  0  0  0  0  0  0  0  0  0
  -26.6954  -13.3580   18.4099 O   0  0  0  0  0  0  0  0  0  0  0  0
  -26.8579  -25.4357   20.5914 O   0  0  0  0  0  0  0  0  0  0  0  0
  -23.4304  -19.9079   20.6445 O   0  0  0  0  0  0  0  0  0  1  0  0
  -22.3126  -15.2215   20.8134 O   0  0  0  0  0  0  0  0  0  0  0  0
  -30.3348  -29.7042   20.9005 F   0  0  0  0  0  0  0  0  0  0  0  0
  -27.1300  -27.1992   18.4798 F   0  0  0  0  0  0  0  0  0  0  0  0
  1  2  1  0  0  0  0
  1  5  2  0  0  0  0
  2  6  2  0  0  0  0
  3  8  2  0  0  0  0
  3 17  1  0  0  0  0
  4  9  1  0  0  0  0
  4 17  2  0  0  0  0
  5 19  1  0  0  0  0
  6 21  1  0  0  0  0
  7 10  2  0  0  0  0
  7 20  1  0  0  0  0
  8 24  1  0  0  0  0
  9 24  2  0  0  0  0
 10 25  1  0  0  0  0
 11 12  2  0  0  0  0
 11 26  1  0  0  0  0
 12 28  1  0  0  0  0
 13 16  2  0  0  0  0
 13 27  1  0  0  0  0
 14 22  1  0  0  0  0
 14 25  2  0  0  0  0
 15 28  2  0  0  0  0
 15 29  1  0  0  0  0
 16 67  1  0  0  0  0
 17 30  1  0  0  0  0
 18 30  1  0  0  0  0
 18 32  2  0  0  0  0
 18 33  1  0  0  0  0
 19 21  2  0  0  0  0
 19 38  1  0  0  0  0
 20 22  2  0  0  0  0
 20 39  1  0  0  0  0
 21 51  1  0  0  0  0
 22 40  1  0  0  0  0
 23 27  2  0  0  0  0
 23 31  1  0  0  0  0
 23 50  1  0  0  0  0
 24 83  1  0  0  0  0
 25 84  1  0  0  0  0
 26 29  2  0  0  0  0
 26 83  1  0  0  0  0
 27 85  1  0  0  0  0
 28 86  1  0  0  0  0
 29 87  1  0  0  0  0
 30 68  2  0  0  0  0
 31 52  1  0  0  0  0
 31 67  2  0  0  0  0
 32 69  1  0  0  0  0
 32 72  1  0  0  0  0
 33 73  1  0  0  0  0
 33 78  2  0  0  0  0
 34 53  1  0  0  0  0
 34 74  1  0  0  0  0
 34 79  2  0  0  0  0
 35 64  1  0  0  0  0
 35 70  1  0  0  0  0
 35 80  2  0  0  0  0
 36 65  1  0  0  0  0
 36 75  1  0  0  0  0
 36 81  2  0  0  0  0
 37 71  1  0  0  0  0
 37 76  1  0  0  0  0
 37 82  2  0  0  0  0
 38 41  1  0  0  0  0
 39 53  1  0  0  0  0
 40 70  1  0  0  0  0
 41 43  1  0  0  0  0
 42 46  1  0  0  0  0
 42 48  1  0  0  0  0
 43 51  1  0  0  0  0
 44 45  1  0  0  0  0
 44 52  1  0  0  0  0
 45 52  1  0  0  0  0
 46 54  1  0  0  0  0
 47 50  1  0  0  0  0
 47 55  1  0  0  0  0
 48 71  1  0  0  0  0
 49 54  1  0  0  0  0
 49 71  1  0  0  0  0
 50 55  1  0  0  0  0
 51 74  1  0  0  0  0
 53 70  1  0  0  0  0
 54 69  1  0  0  0  0
 55 76  1  0  0  0  0
 56 65  1  0  0  0  0
 57 66  1  0  0  0  0
 58 66  1  0  0  0  0
 59 66  1  0  0  0  0
 60 77  1  0  0  0  0
 61 62  1  0  0  0  0
 61 63  1  0  0  0  0
 62 84  1  0  0  0  0
 63 85  1  0  0  0  0
 64 66  1  0  0  0  0
 64 75  1  0  0  0  0
 65 77  1  0  0  0  0
 68 69  1  0  0  0  0
M  CHG  1  77   1
M  ISO  4  37 100  62 101  76 100  84 101
M  END
> <Batch ID>
0146

> <Smiles>
CNC(C)C(=O)NC(C(=O)N1Cc2cc([101O:1][101CH2:1]CCOc3ccnc(C4CC4)c3C3CC3[100NH:0][100C:0](=O)N3CCCC(n4nc(-c5ccc(Oc6ccc(F)cc6F)cc5)c(C(N)=O)c4N)C3)ccc2CC1C(=O)NC1CCCc2ccccc21)C(C)(C)C

> <Shape>
0.213

> <Color>
0.044

> <Negative vol penalty>
0.000

$$$$

  -OEChem-04052321313D

 85 93  0     1  0  0  0  0  0999 V2000
  -17.0022  -30.4682   23.3978 C   0  0  0  0  0  0  0  0  0  0  0  0
  -18.0046  -30.5926   24.3544 C   0  0  0  0  0  0  0  0  0  0  0  0
  -25.6301  -18.5951   20.4235 C   0  0  0  0  0  0  0  0  0  0  0  0
  -27.6952  -17.8009   21.3939 C   0  0  0  0  0  0  0  0  0  0  0  0
  -17.0860  -29.4704   22.4277 C   0  0  0  0  0  0  0  0  0  0  0  0
  -19.0909  -29.7185   24.3421 C   0  0  0  0  0  0  0  0  0  0  0  0
  -26.0946  -29.4958   25.8303 C   0  0  0  0  0  0  0  0  0  0  0  0
  -25.2078  -17.2779   20.2441 C   0  0  0  0  0  0  0  0  0  0  0  0
  -27.2729  -16.4837   21.2145 C   0  0  0  0  0  0  0  0  0  0  0  0
  -27.0167  -28.7506   26.5639 C   0  0  0  0  0  0  0  0  0  0  0  0
  -27.0815  -14.2519   18.6820 C   0  0  0  0  0  0  0  0  0  0  0  0
  -35.1650  -24.6461   24.4865 C   0  0  0  0  0  0  0  0  0  0  0  0
  -27.9995  -13.3430   18.1559 C   0  0  0  0  0  0  0  0  0  0  0  0
  -34.4433  -24.9249   25.6418 C   0  0  0  0  0  0  0  0  0  0  0  0
  -27.0954  -27.1152   24.7923 C   0  0  0  0  0  0  0  0  0  0  0  0
  -27.8129  -11.9979   20.1542 C   0  0  0  0  0  0  0  0  0  0  0  0
  -26.8738  -18.8566   20.9984 C   0  0  0  0  0  0  0  0  0  0  0  0
  -27.0956  -21.0333   22.3102 C   0  0  0  0  0  0  0  0  0  0  0  0
  -18.1787  -28.5897   22.3976 C   0  0  0  0  0  0  0  0  0  0  0  0
  -25.6571  -29.0500   24.5748 C   0  0  0  0  0  0  0  0  0  0  0  0
  -19.1888  -28.7071   23.3714 C   0  0  0  0  0  0  0  0  0  0  0  0
  -26.1697  -27.8579   24.0436 C   0  0  0  0  0  0  0  0  0  0  0  0
  -26.0292  -16.2222   20.6396 C   0  0  0  0  0  0  0  0  0  0  0  0
  -27.5151  -27.5586   26.0462 C   0  0  0  0  0  0  0  0  0  0  0  0
  -26.5292  -14.0339   19.9442 C   0  0  0  0  0  0  0  0  0  0  0  0
  -34.6763  -25.0581   23.2517 C   0  0  0  0  0  0  0  0  0  0  0  0
  -28.3651  -12.2160   18.8920 C   0  0  0  0  0  0  0  0  0  0  0  0
  -26.8949  -12.9069   20.6803 C   0  0  0  0  0  0  0  0  0  0  0  0
  -27.3109  -20.2171   21.1835 C   0  0  0  0  0  0  0  0  0  0  0  0
  -33.4705  -25.7402   23.2263 C   0  0  0  0  0  0  0  0  0  0  0  0
  -33.2480  -25.6131   25.5094 C   0  0  0  0  0  0  0  0  0  0  0  0
  -27.7033  -22.2235   21.9931 C   0  0  0  0  0  0  0  0  0  0  0  0
  -26.4079  -20.7416   23.5340 C   0  0  0  0  0  0  0  0  0  0  0  0
  -22.8493  -28.2039   23.3484 C   0  0  0  0  0  0  0  0  0  0  0  0
  -24.5434  -28.0432   20.5868 C   0  0  0  0  0  0  0  0  0  0  0  0
  -27.5730  -27.6529   19.0650 C   0  0  0  0  0  0  0  0  0  0  0  0
  -32.0164  -25.0794   19.8986 C   0  0  0  0  0  0  0  0  0  0  0  0
  -18.2020  -27.4969   21.3583 C   0  0  0  0  0  0  0  0  0  0  0  0
  -24.6822  -29.8790   23.7843 C   0  0  0  0  0  0  0  0  0  0  0  0
  -25.7473  -27.3460   22.6915 C   0  0  0  0  0  0  0  0  0  0  0  0
  -19.5733  -26.8486   21.1868 C   0  0  0  0  0  0  0  0  0  0  0  0
  -29.5662  -23.9011   17.5997 C   0  0  0  0  0  0  0  0  0  0  0  0
  -20.1831  -26.5216   22.5462 C   0  0  0  0  0  0  0  0  0  0  0  0
  -28.7478  -22.9009   18.4181 C   0  0  0  0  0  0  0  0  0  0  0  0
  -31.0462  -23.8590   17.9735 C   0  0  0  0  0  0  0  0  0  0  0  0
  -30.5084  -23.0269   20.2300 C   0  0  0  0  0  0  0  0  0  0  0  0
  -20.3953  -27.7936   23.3759 C   0  0  1  0  0  0  0  0  0  0  0  0
  -23.9172  -29.0695   22.7418 C   0  0  1  0  0  0  0  0  0  0  0  0
  -29.0007  -23.0719   19.9281 C   0  0  2  0  0  0  0  0  0  0  0  0
  -32.0682  -27.4857   22.0651 C   0  0  0  0  0  0  0  0  0  0  0  0
  -29.2472  -27.5707   17.1975 C   0  0  0  0  0  0  0  0  0  0  0  0
  -23.4870  -25.2004   20.2507 C   0  0  0  0  0  0  0  0  0  0  0  0
  -25.2779  -24.8111   18.5449 C   0  0  0  0  0  0  0  0  0  0  0  0
  -23.5353  -26.5511   18.1464 C   0  0  0  0  0  0  0  0  0  0  0  0
  -28.1125  -30.5560   19.2655 C   0  0  0  0  0  0  0  0  0  0  0  0
  -36.6046  -24.0812   22.2604 C   0  0  0  0  0  0  0  0  0  0  0  0
  -30.6007  -26.7970   27.7812 C   0  0  0  0  0  0  0  0  0  0  0  0
  -29.2859  -27.5465   27.6336 C   0  0  0  0  0  0  0  0  0  1  0  0
  -31.3002  -26.6069   26.4444 C   0  0  0  0  0  0  0  0  0  0  0  0
  -32.9016  -26.2045   21.9257 C   0  0  2  0  0  0  0  0  0  0  0  0
  -25.3308  -26.9686   19.8767 C   0  0  1  0  0  0  0  0  0  0  0  0
  -28.2503  -28.4348   17.9539 C   0  0  2  0  0  0  0  0  0  0  0  0
  -24.4145  -25.8912   19.2310 C   0  0  0  0  0  0  0  0  0  0  0  0
  -28.0013  -20.8365   20.2225 N   0  0  0  0  0  0  0  0  0  0  0  0
  -32.7412  -26.0294   24.3273 N   0  0  0  0  0  0  0  0  0  0  0  0
  -28.2250  -22.0546   20.7443 N   0  0  0  0  0  0  0  0  0  0  0  0
  -24.7874  -28.1890   21.9598 N   0  0  0  0  0  0  0  0  0  0  0  0
  -31.2173  -24.0287   19.4184 N   0  0  0  0  0  0  0  0  0  0  0  0
  -27.8369  -23.3876   22.6634 N   0  0  0  0  0  0  0  0  0  0  0  0
  -25.8419  -19.4697   23.6955 N   0  0  0  0  0  0  0  0  0  0  0  0
  -21.5705  -28.5045   22.9196 N   0  0  0  0  0  0  0  0  0  0  0  0
  -26.2008  -27.6583   18.9301 N   0  0  0  0  0  0  0  0  0  0  0  0
  -32.1204  -25.1726   21.2810 N   0  0  0  0  0  0  0  0  0  0  0  0
  -28.9767  -29.6088   18.5151 N   0  3  0  0  0  0  0  0  0  0  0  0
  -26.2843  -21.5894   24.4502 O   0  0  0  0  0  0  0  0  0  0  0  0
  -23.1624  -27.3272   24.1453 O   0  0  0  0  0  0  0  0  0  0  0  0
  -23.7465  -28.7326   19.9455 O   0  0  0  0  0  0  0  0  0  0  0  0
  -28.1989  -27.0904   19.9607 O   0  0  0  0  0  0  0  0  0  0  0  0
  -32.5900  -25.8786   19.1508 O   0  0  0  0  0  0  0  0  0  0  0  0
  -25.6173  -14.9367   20.4648 O   0  0  0  0  0  0  0  0  0  0  0  0
  -35.3731  -24.7907   22.1179 O   0  0  0  0  0  0  0  0  0  0  0  0
  -28.4147  -26.8289   26.7604 O   0  0  0  0  0  0  0  0  0  1  0  0
  -32.5183  -25.8995   26.6337 O   0  0  0  0  0  0  0  0  0  0  0  0
  -29.2455  -11.3425   18.3860 F   0  0  0  0  0  0  0  0  0  0  0  0
  -26.3668  -12.6914   21.8929 F   0  0  0  0  0  0  0  0  0  0  0  0
  1  2  1  0  0  0  0
  1  5  2  0  0  0  0
  2  6  2  0  0  0  0
  3  8  2  0  0  0  0
  3 17  1  0  0  0  0
  4  9  1  0  0  0  0
  4 17  2  0  0  0  0
  5 19  1  0  0  0  0
  6 21  1  0  0  0  0
  7 10  2  0  0  0  0
  7 20  1  0  0  0  0
  8 23  1  0  0  0  0
  9 23  2  0  0  0  0
 10 24  1  0  0  0  0
 11 13  2  0  0  0  0
 11 25  1  0  0  0  0
 12 14  2  0  0  0  0
 12 26  1  0  0  0  0
 13 27  1  0  0  0  0
 14 31  1  0  0  0  0
 15 22  1  0  0  0  0
 15 24  2  0  0  0  0
 16 27  2  0  0  0  0
 16 28  1  0  0  0  0
 17 29  1  0  0  0  0
 18 29  1  0  0  0  0
 18 32  2  0  0  0  0
 18 33  1  0  0  0  0
 19 21  2  0  0  0  0
 19 38  1  0  0  0  0
 20 22  2  0  0  0  0
 20 39  1  0  0  0  0
 21 47  1  0  0  0  0
 22 40  1  0  0  0  0
 23 80  1  0  0  0  0
 24 82  1  0  0  0  0
 25 28  2  0  0  0  0
 25 80  1  0  0  0  0
 26 30  2  0  0  0  0
 26 81  1  0  0  0  0
 27 84  1  0  0  0  0
 28 85  1  0  0  0  0
 29 64  2  0  0  0  0
 30 60  1  0  0  0  0
 30 65  1  0  0  0  0
 31 65  2  0  0  0  0
 31 83  1  0  0  0  0
 32 66  1  0  0  0  0
 32 69  1  0  0  0  0
 33 70  1  0  0  0  0
 33 75  2  0  0  0  0
 34 48  1  0  0  0  0
 34 71  1  0  0  0  0
 34 76  2  0  0  0  0
 35 61  1  0  0  0  0
 35 67  1  0  0  0  0
 35 77  2  0  0  0  0
 36 62  1  0  0  0  0
 36 72  1  0  0  0  0
 36 78  2  0  0  0  0
 37 68  1  0  0  0  0
 37 73  1  0  0  0  0
 37 79  2  0  0  0  0
 38 41  1  0  0  0  0
 39 48  1  0  0  0  0
 40 67  1  0  0  0  0
 41 43  1  0  0  0  0
 42 44  1  0  0  0  0
 42 45  1  0  0  0  0
 43 47  1  0  0  0  0
 44 49  1  0  0  0  0
 45 68  1  0  0  0  0
 46 49  1  0  0  0  0
 46 68  1  0  0  0  0
 47 71  1  0  0  0  0
 48 67  1  0  0  0  0
 49 66  1  0  0  0  0
 50 60  1  0  0  0  0
 51 62  1  0  0  0  0
 52 63  1  0  0  0  0
 53 63  1  0  0  0  0
 54 63  1  0  0  0  0
 55 74  1  0  0  0  0
 56 81  1  0  0  0  0
 57 58  1  0  0  0  0
 57 59  1  0  0  0  0
 58 82  1  0  0  0  0
 59 83  1  0  0  0  0
 60 73  1  0  0  0  0
 61 63  1  0  0  0  0
 61 72  1  0  0  0  0
 62 74  1  0  0  0  0
 64 66  1  0  0  0  0
M  CHG  1  74   1
M  ISO  4  37 100  58 101  73 100  82 101
M  END
> <Batch ID>
0146

> <Smiles>
CNC(C)C(=O)NC(C(=O)N1Cc2cc([101O:1][101CH2:1]CCOc3ccc(OC)c(C(C)[100NH:0][100C:0](=O)N4CCCC(n5nc(-c6ccc(Oc7ccc(F)cc7F)cc6)c(C(N)=O)c5N)C4)n3)ccc2CC1C(=O)NC1CCCc2ccccc21)C(C)(C)C

> <Shape>
0.233

> <Color>
0.080

> <Negative vol penalty>
0.000

$$$$

  -OEChem-04052321313D

 88 97  0     1  0  0  0  0  0999 V2000
  -17.1538  -32.6947   24.6291 C   0  0  0  0  0  0  0  0  0  0  0  0
  -18.0555  -33.3179   23.7724 C   0  0  0  0  0  0  0  0  0  0  0  0
  -22.8436  -10.3949   20.1758 C   0  0  0  0  0  0  0  0  0  0  0  0
  -24.5455   -9.3476   21.5336 C   0  0  0  0  0  0  0  0  0  0  0  0
  -17.6118  -31.7783   25.5748 C   0  0  0  0  0  0  0  0  0  0  0  0
  -19.4161  -33.0258   23.8617 C   0  0  0  0  0  0  0  0  0  0  0  0
  -24.3435  -30.4281   18.3845 C   0  0  0  0  0  0  0  0  0  0  0  0
  -21.8584   -9.9067   21.0340 C   0  0  0  0  0  0  0  0  0  0  0  0
  -23.5602   -8.8593   22.3919 C   0  0  0  0  0  0  0  0  0  0  0  0
  -25.2746  -29.8194   17.5426 C   0  0  0  0  0  0  0  0  0  0  0  0
  -21.3286   -6.3199   22.4344 C   0  0  0  0  0  0  0  0  0  0  0  0
  -21.4239   -4.9887   22.8399 C   0  0  0  0  0  0  0  0  0  0  0  0
  -27.0159  -21.6815   17.0872 C   0  0  0  0  0  0  0  0  0  0  0  0
  -26.4408  -28.9236   19.4624 C   0  0  0  0  0  0  0  0  0  0  0  0
  -21.5641   -5.7006   25.1443 C   0  0  0  0  0  0  0  0  0  0  0  0
  -26.7809  -20.3271   17.1747 C   0  0  0  0  0  0  0  0  0  0  0  0
  -24.1872  -10.1153   20.4256 C   0  0  0  0  0  0  0  0  0  0  0  0
  -25.3429  -10.3521   18.1637 C   0  0  0  0  0  0  0  0  0  0  0  0
  -18.9775  -31.4675   25.6691 C   0  0  0  0  0  0  0  0  0  0  0  0
  -24.4488  -30.2738   19.7696 C   0  0  0  0  0  0  0  0  0  0  0  0
  -19.8930  -32.1053   24.8103 C   0  0  0  0  0  0  0  0  0  0  0  0
  -25.5039  -29.5205   20.3101 C   0  0  0  0  0  0  0  0  0  0  0  0
  -28.3119  -21.9205   17.6073 C   0  0  0  0  0  0  0  0  0  0  0  0
  -22.2167   -9.1389   22.1420 C   0  0  0  0  0  0  0  0  0  0  0  0
  -26.3208  -29.0693   18.0803 C   0  0  0  0  0  0  0  0  0  0  0  0
  -21.3511   -7.3415   23.3839 C   0  0  0  0  0  0  0  0  0  0  0  0
  -21.5417   -4.6790   24.1948 C   0  0  0  0  0  0  0  0  0  0  0  0
  -21.4688   -7.0318   24.7389 C   0  0  0  0  0  0  0  0  0  0  0  0
  -25.2054  -10.6189   19.5391 C   0  0  0  0  0  0  0  0  0  0  0  0
  -28.8295  -20.7048   17.9965 C   0  0  0  0  0  0  0  0  0  0  0  0
  -26.4569  -11.0612   17.7861 C   0  0  0  0  0  0  0  0  0  0  0  0
  -24.5357   -9.5363   17.3043 C   0  0  0  0  0  0  0  0  0  0  0  0
  -23.0214  -31.0501   23.1513 C   0  0  0  0  0  0  0  0  0  0  0  0
  -23.9220  -28.1184   23.2159 C   0  0  0  0  0  0  0  0  0  0  0  0
  -24.6571  -24.8211   22.7415 C   0  0  0  0  0  0  0  0  0  0  0  0
  -29.1337  -15.9355   20.0056 C   0  0  0  0  0  0  0  0  0  0  0  0
  -19.4309  -30.5058   26.7388 C   0  0  0  0  0  0  0  0  0  0  0  0
  -23.5042  -30.9622   20.7170 C   0  0  0  0  0  0  0  0  0  0  0  0
  -25.5975  -29.4104   21.8075 C   0  0  0  0  0  0  0  0  0  0  0  0
  -20.8437  -29.9712   26.5181 C   0  0  0  0  0  0  0  0  0  0  0  0
  -30.5970  -12.7278   19.5102 C   0  0  0  0  0  0  0  0  0  0  0  0
  -21.7958  -31.1091   26.1641 C   0  0  0  0  0  0  0  0  0  0  0  0
  -29.3936  -11.7995   19.3373 C   0  0  0  0  0  0  0  0  0  0  0  0
  -29.4269  -25.4370   17.0280 C   0  0  0  0  0  0  0  0  0  0  0  0
  -27.3369  -24.8656   18.3348 C   0  0  0  0  0  0  0  0  0  0  0  0
  -28.8227  -26.7896   16.6587 C   0  0  0  0  0  0  0  0  0  0  0  0
  -26.7378  -26.2199   17.9636 C   0  0  0  0  0  0  0  0  0  0  0  0
  -30.3200  -13.8261   20.5343 C   0  0  0  0  0  0  0  0  0  0  0  0
  -27.8966  -13.6871   20.1084 C   0  0  0  0  0  0  0  0  0  0  0  0
  -21.3736  -31.7962   24.8598 C   0  0  1  0  0  0  0  0  0  0  0  0
  -23.2030  -30.1326   21.9780 C   0  0  1  0  0  0  0  0  0  0  0  0
  -28.1081  -12.5965   19.0445 C   0  0  2  0  0  0  0  0  0  0  0  0
  -28.3356  -24.3925   17.2760 C   0  0  0  0  0  0  0  0  0  0  0  0
  -27.8220  -27.2661   17.7094 C   0  0  0  0  0  0  0  0  0  1  0  0
  -30.3481  -21.0346   19.9811 C   0  0  0  0  0  0  0  0  0  0  0  0
  -31.3304  -20.7160   17.6814 C   0  0  0  0  0  0  0  0  0  0  0  0
  -24.6792  -22.6158   23.9388 C   0  0  0  0  0  0  0  0  0  0  0  0
  -26.4555  -28.9516   24.6962 C   0  0  0  0  0  0  0  0  0  0  0  0
  -26.9414  -26.5264   25.0841 C   0  0  0  0  0  0  0  0  0  0  0  0
  -24.8763  -27.5508   26.0372 C   0  0  0  0  0  0  0  0  0  0  0  0
  -22.7093  -23.6432   20.8501 C   0  0  0  0  0  0  0  0  0  0  0  0
  -28.0282  -18.3264   17.9836 C   0  0  0  0  0  0  0  0  0  0  0  0
  -27.8105  -17.9601   19.4494 C   0  0  0  0  0  0  0  0  0  0  0  0
  -30.1376  -20.3718   18.6013 C   0  0  0  0  0  0  0  0  0  0  0  0
  -25.0200  -27.1394   23.5468 C   0  0  1  0  0  0  0  0  0  0  0  0
  -23.8751  -23.5589   23.0575 C   0  0  2  0  0  0  0  0  0  0  0  0
  -25.8197  -27.5520   24.8146 C   0  0  0  0  0  0  0  0  0  0  0  0
  -26.1562  -11.4338   20.0038 N   0  0  0  0  0  0  0  0  0  0  0  0
  -27.8903  -19.7434   17.7287 N   0  0  0  0  0  0  0  0  0  0  0  0
  -26.9018  -11.6850   18.9144 N   0  0  0  0  0  0  0  0  0  0  0  0
  -24.2602  -29.1891   22.3795 N   0  0  0  0  0  0  0  0  0  0  0  0
  -29.0886  -14.5449   20.1980 N   0  0  0  0  0  0  0  0  0  0  0  0
  -27.0895  -11.2056   16.6023 N   0  0  0  0  0  0  0  0  0  0  0  0
  -23.4278   -8.8779   17.8551 N   0  0  0  0  0  0  0  0  0  0  0  0
  -28.9391  -23.1495   17.7058 N   0  0  0  0  0  0  0  0  0  0  0  0
  -21.7624  -30.9961   23.7182 N   0  0  0  0  0  0  0  0  0  0  0  0
  -24.3842  -25.8297   23.6413 N   0  0  0  0  0  0  0  0  0  0  0  0
  -27.9236  -16.5377   19.6835 N   0  0  0  0  0  0  0  0  0  0  0  0
  -23.5213  -22.8405   21.8006 N   0  3  0  0  0  0  0  0  0  0  0  0
  -24.7989   -9.3822   16.0875 O   0  0  0  0  0  0  0  0  0  0  0  0
  -23.9548  -31.7547   23.5174 O   0  0  0  0  0  0  0  0  0  0  0  0
  -22.7957  -27.9441   23.6894 O   0  0  0  0  0  0  0  0  0  0  0  0
  -25.4352  -24.9029   21.7936 O   0  0  0  0  0  0  0  0  0  0  0  0
  -30.1762  -16.5911   20.1077 O   0  0  0  0  0  0  0  0  0  0  0  0
  -21.2555   -8.6626   22.9798 O   0  0  0  0  0  0  0  0  0  0  0  0
  -27.2237  -28.4741   17.2525 O   0  0  0  0  0  0  0  0  0  1  0  0
  -21.6317   -3.4006   24.5842 F   0  0  0  0  0  0  0  0  0  0  0  0
  -21.4898   -8.0089   25.6558 F   0  0  0  0  0  0  0  0  0  0  0  0
  1  2  1  0  0  0  0
  1  5  2  0  0  0  0
  2  6  2  0  0  0  0
  3  8  2  0  0  0  0
  3 17  1  0  0  0  0
  4  9  1  0  0  0  0
  4 17  2  0  0  0  0
  5 19  1  0  0  0  0
  6 21  1  0  0  0  0
  7 10  2  0  0  0  0
  7 20  1  0  0  0  0
  8 24  1  0  0  0  0
  9 24  2  0  0  0  0
 10 25  1  0  0  0  0
 11 12  2  0  0  0  0
 11 26  1  0  0  0  0
 12 27  1  0  0  0  0
 13 16  2  0  0  0  0
 13 23  1  0  0  0  0
 14 22  1  0  0  0  0
 14 25  2  0  0  0  0
 15 27  2  0  0  0  0
 15 28  1  0  0  0  0
 16 69  1  0  0  0  0
 17 29  1  0  0  0  0
 18 29  1  0  0  0  0
 18 31  2  0  0  0  0
 18 32  1  0  0  0  0
 19 21  2  0  0  0  0
 19 37  1  0  0  0  0
 20 22  2  0  0  0  0
 20 38  1  0  0  0  0
 21 50  1  0  0  0  0
 22 39  1  0  0  0  0
 23 30  2  0  0  0  0
 23 75  1  0  0  0  0
 24 85  1  0  0  0  0
 25 86  1  0  0  0  0
 26 28  2  0  0  0  0
 26 85  1  0  0  0  0
 27 87  1  0  0  0  0
 28 88  1  0  0  0  0
 29 68  2  0  0  0  0
 30 64  1  0  0  0  0
 30 69  1  0  0  0  0
 31 70  1  0  0  0  0
 31 73  1  0  0  0  0
 32 74  1  0  0  0  0
 32 80  2  0  0  0  0
 33 51  1  0  0  0  0
 33 76  1  0  0  0  0
 33 81  2  0  0  0  0
 34 65  1  0  0  0  0
 34 71  1  0  0  0  0
 34 82  2  0  0  0  0
 35 66  1  0  0  0  0
 35 77  1  0  0  0  0
 35 83  2  0  0  0  0
 36 72  1  0  0  0  0
 36 78  1  0  0  0  0
 36 84  2  0  0  0  0
 37 40  1  0  0  0  0
 38 51  1  0  0  0  0
 39 71  1  0  0  0  0
 40 42  1  0  0  0  0
 41 43  1  0  0  0  0
 41 48  1  0  0  0  0
 42 50  1  0  0  0  0
 43 52  1  0  0  0  0
 44 46  1  0  0  0  0
 44 53  1  0  0  0  0
 45 47  1  0  0  0  0
 45 53  1  0  0  0  0
 46 54  1  0  0  0  0
 47 54  1  0  0  0  0
 48 72  1  0  0  0  0
 49 52  1  0  0  0  0
 49 72  1  0  0  0  0
 50 76  1  0  0  0  0
 51 71  1  0  0  0  0
 52 70  1  0  0  0  0
 53 75  1  0  0  0  0
 54 86  1  0  0  0  0
 55 64  1  0  0  0  0
 56 64  1  0  0  0  0
 57 66  1  0  0  0  0
 58 67  1  0  0  0  0
 59 67  1  0  0  0  0
 60 67  1  0  0  0  0
 61 79  1  0  0  0  0
 62 63  1  0  0  0  0
 62 69  1  0  0  0  0
 63 78  1  0  0  0  0
 65 67  1  0  0  0  0
 65 77  1  0  0  0  0
 66 79  1  0  0  0  0
 68 70  1  0  0  0  0
M  CHG  1  79   1
M  ISO  4  36 100  54 101  78 100  86 101
M  END
> <Batch ID>
0146

> <Smiles>
CNC(C)C(=O)NC(C(=O)N1Cc2cc([101O:1][101CH:1]3CCC(Nc4ccn(CC[100NH:0][100C:0](=O)N5CCCC(n6nc(-c7ccc(Oc8ccc(F)cc8F)cc7)c(C(N)=O)c6N)C5)c4C(C)C)CC3)ccc2CC1C(=O)NC1CCCc2ccccc21)C(C)(C)C

> <Shape>
0.224

> <Color>
0.093

> <Negative vol penalty>
0.000

$$$$

  -OEChem-04052321313D

 91101  0     1  0  0  0  0  0999 V2000
  -21.4857  -29.4966   29.5573 C   0  0  0  0  0  0  0  0  0  0  0  0
  -21.6546  -28.1641   29.1948 C   0  0  0  0  0  0  0  0  0  0  0  0
  -22.9998   -9.9085   19.9823 C   0  0  0  0  0  0  0  0  0  0  0  0
  -23.7044   -9.9641   22.2926 C   0  0  0  0  0  0  0  0  0  0  0  0
  -21.5403  -30.4945   28.5852 C   0  0  0  0  0  0  0  0  0  0  0  0
  -21.8771  -27.8287   27.8597 C   0  0  0  0  0  0  0  0  0  0  0  0
  -25.3924  -23.2826   25.7427 C   0  0  0  0  0  0  0  0  0  0  0  0
  -22.2219   -8.7813   20.2466 C   0  0  0  0  0  0  0  0  0  0  0  0
  -22.9265   -8.8369   22.5569 C   0  0  0  0  0  0  0  0  0  0  0  0
  -25.0941  -21.9951   25.2989 C   0  0  0  0  0  0  0  0  0  0  0  0
  -23.1487   -5.4941   22.1020 C   0  0  0  0  0  0  0  0  0  0  0  0
  -23.7213   -4.4757   22.8639 C   0  0  0  0  0  0  0  0  0  0  0  0
  -25.0692  -22.7921   23.0222 C   0  0  0  0  0  0  0  0  0  0  0  0
  -21.9842   -4.7397   24.5223 C   0  0  0  0  0  0  0  0  0  0  0  0
  -29.5692  -17.6848   26.6979 C   0  0  0  0  0  0  0  0  0  0  0  0
  -23.7411  -10.4999   21.0052 C   0  0  0  0  0  0  0  0  0  0  0  0
  -24.1479  -13.0116   20.8216 C   0  0  0  0  0  0  0  0  0  0  0  0
  -21.7733  -30.1720   27.2389 C   0  0  0  0  0  0  0  0  0  0  0  0
  -25.5208  -24.3385   24.8289 C   0  0  0  0  0  0  0  0  0  0  0  0
  -21.9336  -28.8232   26.8685 C   0  0  0  0  0  0  0  0  0  0  0  0
  -25.3717  -24.0916   23.4567 C   0  0  0  0  0  0  0  0  0  0  0  0
  -29.8190  -17.0112   25.5131 C   0  0  0  0  0  0  0  0  0  0  0  0
  -30.9467  -16.2003   25.4508 C   0  0  0  0  0  0  0  0  0  0  0  0
  -31.7785  -16.0893   26.5595 C   0  0  0  0  0  0  0  0  0  0  0  0
  -22.1852   -8.2455   21.5339 C   0  0  0  0  0  0  0  0  0  0  0  0
  -24.9296  -21.7502   23.9387 C   0  0  0  0  0  0  0  0  0  0  0  0
  -21.9938   -6.1354   22.5502 C   0  0  0  0  0  0  0  0  0  0  0  0
  -23.1390   -4.0984   24.0740 C   0  0  0  0  0  0  0  0  0  0  0  0
  -21.4116   -5.7581   23.7603 C   0  0  0  0  0  0  0  0  0  0  0  0
  -24.5453  -11.6640   20.7327 C   0  0  0  0  0  0  0  0  0  0  0  0
  -31.4410  -16.8043   27.6974 C   0  0  0  0  0  0  0  0  0  0  0  0
  -25.2666  -13.7238   20.4642 C   0  0  0  0  0  0  0  0  0  0  0  0
  -22.8808  -13.5697   21.1942 C   0  0  0  0  0  0  0  0  0  0  0  0
  -23.9900  -27.0812   24.3407 C   0  0  0  0  0  0  0  0  0  0  0  0
  -26.3424  -27.5557   22.1582 C   0  0  0  0  0  0  0  0  0  0  0  0
  -28.6905  -26.1971   20.0877 C   0  0  0  0  0  0  0  0  0  0  0  0
  -30.8401  -14.4804   20.9351 C   0  0  0  0  0  0  0  0  0  0  0  0
  -21.7769  -31.2812   26.2169 C   0  0  0  0  0  0  0  0  0  0  0  0
  -25.8692  -25.7164   25.3215 C   0  0  0  0  0  0  0  0  0  0  0  0
  -25.5193  -25.1867   22.4332 C   0  0  0  0  0  0  0  0  0  0  0  0
  -22.3900  -30.8748   24.8793 C   0  0  0  0  0  0  0  0  0  0  0  0
  -29.6154  -12.2421   18.4007 C   0  0  0  0  0  0  0  0  0  0  0  0
  -21.8432  -29.5236   24.4299 C   0  0  0  0  0  0  0  0  0  0  0  0
  -28.1754  -11.9563   18.8137 C   0  0  0  0  0  0  0  0  0  0  0  0
  -27.4842  -16.6738   24.7244 C   0  0  0  0  0  0  0  0  0  0  0  0
  -28.8479  -18.6343   23.8977 C   0  0  0  0  0  0  0  0  0  0  0  0
  -30.5071  -12.4177   19.6227 C   0  0  0  0  0  0  0  0  0  0  0  0
  -30.1808  -14.5319   23.4694 C   0  0  0  0  0  0  0  0  0  0  0  0
  -31.3260  -16.1769   22.7797 C   0  0  0  0  0  0  0  0  0  0  0  0
  -28.5949  -13.2630   20.9580 C   0  0  0  0  0  0  0  0  0  0  0  0
  -26.4949  -16.8949   23.5874 C   0  0  0  0  0  0  0  0  0  0  0  0
  -27.8483  -18.8402   22.7668 C   0  0  0  0  0  0  0  0  0  0  0  0
  -28.8953  -17.1655   24.3555 C   0  0  0  0  0  0  0  0  0  0  0  0
  -31.2799  -15.4068   24.1195 C   0  0  0  0  0  0  0  0  0  0  0  0
  -22.2017  -28.4217   25.4343 C   0  0  1  0  0  0  0  0  0  0  0  0
  -25.4694  -26.8187   24.3455 C   0  0  1  0  0  0  0  0  0  0  0  0
  -27.6575  -13.0560   19.7518 C   0  0  2  0  0  0  0  0  0  0  0  0
  -32.6540  -13.7412   26.6414 C   0  0  0  0  0  0  0  0  0  0  0  0
  -30.4343  -26.8352   18.3997 C   0  0  0  0  0  0  0  0  0  0  0  0
  -24.1534  -28.0759   20.0972 C   0  0  0  0  0  0  0  0  0  0  0  0
  -25.8679  -27.7623   18.2999 C   0  0  0  0  0  0  0  0  0  0  0  0
  -26.1156  -29.6192   19.9471 C   0  0  0  0  0  0  0  0  0  0  0  0
  -30.8626  -25.0122   21.7117 C   0  0  0  0  0  0  0  0  0  0  0  0
  -32.9934  -15.2232   26.5106 C   0  0  0  0  0  0  0  0  0  0  0  0
  -25.4345  -18.6522   22.1723 C   0  0  0  0  0  0  0  0  0  0  0  0
  -25.1041  -20.1313   22.2053 C   0  0  0  0  0  0  0  0  0  1  0  0
  -26.5216  -27.2379   20.6933 C   0  0  1  0  0  0  0  0  0  0  0  0
  -30.1533  -26.5359   19.8640 C   0  0  2  0  0  0  0  0  0  0  0  0
  -25.6599  -28.1534   19.7786 C   0  0  0  0  0  0  0  0  0  0  0  0
  -30.3540  -17.6020   27.7955 N   0  0  0  0  0  0  0  0  0  0  0  0
  -25.8170  -11.5258   20.3487 N   0  0  0  0  0  0  0  0  0  0  0  0
  -26.2285  -12.7956   20.1931 N   0  0  0  0  0  0  0  0  0  0  0  0
  -25.8542  -26.5181   22.9650 N   0  0  0  0  0  0  0  0  0  0  0  0
  -29.9924  -13.4397   20.5392 N   0  0  0  0  0  0  0  0  0  0  0  0
  -30.6704  -15.0162   22.1899 N   0  0  0  0  0  0  0  0  0  0  0  0
  -32.2847  -16.6958   28.8311 N   0  0  0  0  0  0  0  0  0  0  0  0
  -25.5114  -15.0471   20.3584 N   0  0  0  0  0  0  0  0  0  0  0  0
  -21.8390  -12.6952   21.5321 N   0  0  0  0  0  0  0  0  0  0  0  0
  -23.5819  -28.0183   25.2706 N   0  0  0  0  0  0  0  0  0  0  0  0
  -27.9551  -27.3114   20.4321 N   0  0  0  0  0  0  0  0  0  0  0  0
  -26.4870  -18.3555   23.2050 N   0  3  0  0  0  0  0  0  0  0  0  0
  -31.0188  -25.3984   20.2857 N   0  3  0  0  0  0  0  0  0  0  0  0
  -22.6737  -14.8068   21.2105 O   0  0  0  0  0  0  0  0  0  0  0  0
  -23.2721  -26.4793   23.5508 O   0  0  0  0  0  0  0  0  0  0  0  0
  -26.6318  -28.6809   22.5727 O   0  0  0  0  0  0  0  0  0  0  0  0
  -28.2443  -25.0585   19.9653 O   0  0  0  0  0  0  0  0  0  0  0  0
  -31.7442  -14.9014   20.2013 O   0  0  0  0  0  0  0  0  0  0  0  0
  -21.4261   -7.1457   21.7923 O   0  0  0  0  0  0  0  0  0  0  0  0
  -24.6357  -20.4855   23.4997 O   0  0  0  0  0  0  0  0  0  1  0  0
  -23.6881   -3.1194   24.8049 F   0  0  0  0  0  0  0  0  0  0  0  0
  -20.3015   -6.3697   24.1955 F   0  0  0  0  0  0  0  0  0  0  0  0
  1  2  1  0  0  0  0
  1  5  2  0  0  0  0
  2  6  2  0  0  0  0
  3  8  2  0  0  0  0
  3 16  1  0  0  0  0
  4  9  1  0  0  0  0
  4 16  2  0  0  0  0
  5 18  1  0  0  0  0
  6 20  1  0  0  0  0
  7 10  2  0  0  0  0
  7 19  1  0  0  0  0
  8 25  1  0  0  0  0
  9 25  2  0  0  0  0
 10 26  1  0  0  0  0
 11 12  2  0  0  0  0
 11 27  1  0  0  0  0
 12 28  1  0  0  0  0
 13 21  1  0  0  0  0
 13 26  2  0  0  0  0
 14 28  2  0  0  0  0
 14 29  1  0  0  0  0
 15 22  2  0  0  0  0
 15 70  1  0  0  0  0
 16 30  1  0  0  0  0
 17 30  1  0  0  0  0
 17 32  2  0  0  0  0
 17 33  1  0  0  0  0
 18 20  2  0  0  0  0
 18 38  1  0  0  0  0
 19 21  2  0  0  0  0
 19 39  1  0  0  0  0
 20 55  1  0  0  0  0
 21 40  1  0  0  0  0
 22 23  1  0  0  0  0
 22 53  1  0  0  0  0
 23 24  2  0  0  0  0
 23 54  1  0  0  0  0
 24 31  1  0  0  0  0
 24 64  1  0  0  0  0
 25 88  1  0  0  0  0
 26 89  1  0  0  0  0
 27 29  2  0  0  0  0
 27 88  1  0  0  0  0
 28 90  1  0  0  0  0
 29 91  1  0  0  0  0
 30 71  2  0  0  0  0
 31 70  2  0  0  0  0
 31 76  1  0  0  0  0
 32 72  1  0  0  0  0
 32 77  1  0  0  0  0
 33 78  1  0  0  0  0
 33 83  2  0  0  0  0
 34 56  1  0  0  0  0
 34 79  1  0  0  0  0
 34 84  2  0  0  0  0
 35 67  1  0  0  0  0
 35 73  1  0  0  0  0
 35 85  2  0  0  0  0
 36 68  1  0  0  0  0
 36 80  1  0  0  0  0
 36 86  2  0  0  0  0
 37 74  1  0  0  0  0
 37 75  1  0  0  0  0
 37 87  2  0  0  0  0
 38 41  1  0  0  0  0
 39 56  1  0  0  0  0
 40 73  1  0  0  0  0
 41 43  1  0  0  0  0
 42 44  1  0  0  0  0
 42 47  1  0  0  0  0
 43 55  1  0  0  0  0
 44 57  1  0  0  0  0
 45 51  1  0  0  0  0
 45 53  1  0  0  0  0
 46 52  1  0  0  0  0
 46 53  1  0  0  0  0
 47 74  1  0  0  0  0
 48 54  1  0  0  0  0
 48 75  1  0  0  0  0
 49 54  1  0  0  0  0
 49 75  1  0  0  0  0
 50 57  1  0  0  0  0
 50 74  1  0  0  0  0
 51 81  1  0  0  0  0
 52 81  1  0  0  0  0
 55 79  1  0  0  0  0
 56 73  1  0  0  0  0
 57 72  1  0  0  0  0
 58 64  1  0  0  0  0
 59 68  1  0  0  0  0
 60 69  1  0  0  0  0
 61 69  1  0  0  0  0
 62 69  1  0  0  0  0
 63 82  1  0  0  0  0
 65 66  1  0  0  0  0
 65 81  1  0  0  0  0
 66 89  1  0  0  0  0
 67 69  1  0  0  0  0
 67 80  1  0  0  0  0
 68 82  1  0  0  0  0
 71 72  1  0  0  0  0
M  CHG  2  81   1  82   1
M  ISO  4  37 100  66 101  75 100  89 101
M  END
> <Batch ID>
0146

> <Smiles>
CCc1c(N)ncc(C2CCN(C[101CH2:1][101O:1]c3ccc4c(c3)CN(C(=O)C(NC(=O)C(C)NC)C(C)(C)C)C(C(=O)NC3CCCc5ccccc53)C4)CC2)c1C1C[100N:0]([100C:0](=O)N2CCCC(n3nc(-c4ccc(Oc5ccc(F)cc5F)cc4)c(C(N)=O)c3N)C2)C1

> <Shape>
0.231

> <Color>
0.180

> <Negative vol penalty>
0.000

$$$$

  -OEChem-04052321313D

 92102  0     1  0  0  0  0  0999 V2000
  -14.3901  -28.3667   23.7809 C   0  0  0  0  0  0  0  0  0  0  0  0
  -15.6182  -27.7672   24.0412 C   0  0  0  0  0  0  0  0  0  0  0  0
  -22.6507  -10.2845   20.1957 C   0  0  0  0  0  0  0  0  0  0  0  0
  -24.2179   -9.5339   21.8742 C   0  0  0  0  0  0  0  0  0  0  0  0
  -13.2146  -27.6271   23.9039 C   0  0  0  0  0  0  0  0  0  0  0  0
  -15.6714  -26.4279   24.4259 C   0  0  0  0  0  0  0  0  0  0  0  0
  -20.0270  -22.3617   23.0114 C   0  0  0  0  0  0  0  0  0  0  0  0
  -21.8796   -9.1411   20.4043 C   0  0  0  0  0  0  0  0  0  0  0  0
  -23.4468   -8.3904   22.0828 C   0  0  0  0  0  0  0  0  0  0  0  0
  -21.1359  -21.8924   23.7142 C   0  0  0  0  0  0  0  0  0  0  0  0
  -19.3079   -6.5952   20.7511 C   0  0  0  0  0  0  0  0  0  0  0  0
  -17.9261   -6.7548   20.8542 C   0  0  0  0  0  0  0  0  0  0  0  0
  -26.4778  -19.0922   27.2086 C   0  0  0  0  0  0  0  0  0  0  0  0
  -19.8532  -19.9881   24.4543 C   0  0  0  0  0  0  0  0  0  0  0  0
  -25.4093  -19.6986   25.1328 C   0  0  0  0  0  0  0  0  0  0  0  0
  -18.2355   -8.1981   22.7669 C   0  0  0  0  0  0  0  0  0  0  0  0
  -23.8199  -10.4809   20.9307 C   0  0  0  0  0  0  0  0  0  0  0  0
  -24.2155  -13.0006   20.8818 C   0  0  0  0  0  0  0  0  0  0  0  0
  -13.2541  -26.2754   24.2809 C   0  0  0  0  0  0  0  0  0  0  0  0
  -18.8177  -21.6523   23.0337 C   0  0  0  0  0  0  0  0  0  0  0  0
  -14.4953  -25.6699   24.5554 C   0  0  0  0  0  0  0  0  0  0  0  0
  -25.4765  -19.7535   27.9361 C   0  0  0  0  0  0  0  0  0  0  0  0
  -18.7312  -20.4493   23.7489 C   0  0  0  0  0  0  0  0  0  0  0  0
  -24.4185  -20.3735   27.2473 C   0  0  0  0  0  0  0  0  0  0  0  0
  -24.4028  -20.3507   25.8443 C   0  0  0  0  0  0  0  0  0  0  0  0
  -26.4452  -19.0677   25.8148 C   0  0  0  0  0  0  0  0  0  0  0  0
  -22.2776   -8.1940   21.3478 C   0  0  0  0  0  0  0  0  0  0  0  0
  -21.0483  -20.7069   24.4381 C   0  0  0  0  0  0  0  0  0  0  0  0
  -20.1536   -7.2370   21.6559 C   0  0  0  0  0  0  0  0  0  0  0  0
  -17.3898   -7.5562   21.8620 C   0  0  0  0  0  0  0  0  0  0  0  0
  -19.6173   -8.0385   22.6638 C   0  0  0  0  0  0  0  0  0  0  0  0
  -24.6171  -11.6616   20.7153 C   0  0  0  0  0  0  0  0  0  0  0  0
  -25.3282  -13.7361   20.5540 C   0  0  0  0  0  0  0  0  0  0  0  0
  -22.9499  -13.5320   21.2959 C   0  0  0  0  0  0  0  0  0  0  0  0
  -15.8680  -22.2784   24.0393 C   0  0  0  0  0  0  0  0  0  0  0  0
  -15.2114  -19.4116   22.6709 C   0  0  0  0  0  0  0  0  0  0  0  0
  -16.3517  -16.3656   21.6373 C   0  0  0  0  0  0  0  0  0  0  0  0
  -30.7118  -14.7212   20.6838 C   0  0  0  0  0  0  0  0  0  0  0  0
  -11.9537  -25.5296   24.4465 C   0  0  0  0  0  0  0  0  0  0  0  0
  -17.6386  -22.1581   22.2486 C   0  0  0  0  0  0  0  0  0  0  0  0
  -25.5301  -19.7281   29.4440 C   0  0  0  0  0  0  0  0  0  0  0  0
  -23.3302  -21.1170   27.9790 C   0  0  0  0  0  0  0  0  0  0  0  0
  -17.4618  -19.6397   23.7884 C   0  0  0  0  0  0  0  0  0  0  0  0
  -12.1231  -24.0133   24.4954 C   0  0  0  0  0  0  0  0  0  0  0  0
  -23.2417  -20.7561   29.4612 C   0  0  0  0  0  0  0  0  0  0  0  0
  -29.6754  -12.3621   18.3785 C   0  0  0  0  0  0  0  0  0  0  0  0
  -13.2617  -23.6335   25.4368 C   0  0  0  0  0  0  0  0  0  0  0  0
  -28.2304  -12.0702   18.7827 C   0  0  0  0  0  0  0  0  0  0  0  0
  -29.1250  -17.8774   21.8004 C   0  0  0  0  0  0  0  0  0  0  0  0
  -28.5971  -16.0627   23.4669 C   0  0  0  0  0  0  0  0  0  0  0  0
  -30.5692  -12.4960   19.6062 C   0  0  0  0  0  0  0  0  0  0  0  0
  -30.3340  -17.0714   21.3337 C   0  0  0  0  0  0  0  0  0  0  0  0
  -29.8183  -15.2941   22.9730 C   0  0  0  0  0  0  0  0  0  0  0  0
  -28.6659  -13.2562   20.9900 C   0  0  0  0  0  0  0  0  0  0  0  0
  -14.5958  -24.2127   24.9509 C   0  0  1  0  0  0  0  0  0  0  0  0
  -16.3053  -21.6217   22.7606 C   0  0  1  0  0  0  0  0  0  0  0  0
  -24.6311  -20.7838   30.1049 C   0  0  1  0  0  0  0  0  0  0  0  0
  -28.7703  -17.5737   23.2618 C   0  0  0  0  0  0  0  0  0  0  0  0
  -27.7144  -13.1185   19.7845 C   0  0  2  0  0  0  0  0  0  0  0  0
  -15.5723  -14.2216   20.5916 C   0  0  0  0  0  0  0  0  0  0  0  0
  -25.9286  -20.5921   32.2459 C   0  0  0  0  0  0  0  0  0  0  0  0
  -23.6188  -21.5760   32.2614 C   0  0  0  0  0  0  0  0  0  0  0  0
  -13.9776  -18.5658   25.3303 C   0  0  0  0  0  0  0  0  0  0  0  0
  -14.0904  -16.1904   24.5476 C   0  0  0  0  0  0  0  0  0  0  0  0
  -12.6940  -17.8450   23.3087 C   0  0  0  0  0  0  0  0  0  0  0  0
  -18.1282  -16.7255   19.2978 C   0  0  0  0  0  0  0  0  0  0  0  0
  -23.3206  -21.0263   25.0629 C   0  0  0  0  0  0  0  0  0  1  0  0
  -27.5111  -18.3271   23.6838 C   0  0  0  0  0  0  0  0  0  0  0  0
  -15.2132  -17.9771   23.1411 C   0  0  1  0  0  0  0  0  0  0  0  0
  -16.1545  -15.6037   20.3392 C   0  0  2  0  0  0  0  0  0  0  0  0
  -24.5405  -20.5471   31.6109 C   0  0  0  0  0  0  0  0  0  0  0  0
  -14.0173  -17.6606   24.0830 C   0  0  0  0  0  0  0  0  0  0  0  0
  -25.8858  -11.5501   20.3128 N   0  0  0  0  0  0  0  0  0  0  0  0
  -26.2910  -12.8283   20.2236 N   0  0  0  0  0  0  0  0  0  0  0  0
  -16.3347  -20.1791   23.0098 N   0  0  0  0  0  0  0  0  0  0  0  0
  -30.0432  -13.4968   20.5343 N   0  0  0  0  0  0  0  0  0  0  0  0
  -30.1544  -15.6424   21.5860 N   0  0  0  0  0  0  0  0  0  0  0  0
  -25.5671  -15.0643   20.5189 N   0  0  0  0  0  0  0  0  0  0  0  0
  -22.7296  -13.7443   22.6636 N   0  0  0  0  0  0  0  0  0  0  0  0
  -27.4521  -18.4102   25.1044 N   0  0  0  0  0  0  0  0  0  0  0  0
  -15.1195  -23.4254   23.8553 N   0  0  0  0  0  0  0  0  0  0  0  0
  -15.2606  -17.1532   21.9380 N   0  0  0  0  0  0  0  0  0  0  0  0
  -17.4553  -15.4434   19.6299 N   0  3  0  0  0  0  0  0  0  0  0  0
  -22.0352  -13.7948   20.4787 O   0  0  0  0  0  0  0  0  0  0  0  0
  -16.1848  -21.7806   25.1133 O   0  0  0  0  0  0  0  0  0  0  0  0
  -14.2519  -19.8336   22.0206 O   0  0  0  0  0  0  0  0  0  0  0  0
  -17.3701  -16.2687   22.3184 O   0  0  0  0  0  0  0  0  0  0  0  0
  -31.7414  -14.9801   20.0481 O   0  0  0  0  0  0  0  0  0  0  0  0
  -21.5253   -7.0782   21.5518 O   0  0  0  0  0  0  0  0  0  0  0  0
  -22.1369  -20.2434   25.1305 O   0  0  0  0  0  0  0  0  0  1  0  0
  -16.0629   -7.7106   21.9600 F   0  0  0  0  0  0  0  0  0  0  0  0
  -20.4247   -8.6585   23.5352 F   0  0  0  0  0  0  0  0  0  0  0  0
  1  2  1  0  0  0  0
  1  5  2  0  0  0  0
  2  6  2  0  0  0  0
  3  8  2  0  0  0  0
  3 17  1  0  0  0  0
  4  9  1  0  0  0  0
  4 17  2  0  0  0  0
  5 19  1  0  0  0  0
  6 21  1  0  0  0  0
  7 10  2  0  0  0  0
  7 20  1  0  0  0  0
  8 27  1  0  0  0  0
  9 27  2  0  0  0  0
 10 28  1  0  0  0  0
 11 12  2  0  0  0  0
 11 29  1  0  0  0  0
 12 30  1  0  0  0  0
 13 22  2  0  0  0  0
 13 26  1  0  0  0  0
 14 23  1  0  0  0  0
 14 28  2  0  0  0  0
 15 25  1  0  0  0  0
 15 26  2  0  0  0  0
 16 30  2  0  0  0  0
 16 31  1  0  0  0  0
 17 32  1  0  0  0  0
 18 32  1  0  0  0  0
 18 33  2  0  0  0  0
 18 34  1  0  0  0  0
 19 21  2  0  0  0  0
 19 39  1  0  0  0  0
 20 23  2  0  0  0  0
 20 40  1  0  0  0  0
 21 55  1  0  0  0  0
 22 24  1  0  0  0  0
 22 41  1  0  0  0  0
 23 43  1  0  0  0  0
 24 25  2  0  0  0  0
 24 42  1  0  0  0  0
 25 67  1  0  0  0  0
 26 80  1  0  0  0  0
 27 89  1  0  0  0  0
 28 90  1  0  0  0  0
 29 31  2  0  0  0  0
 29 89  1  0  0  0  0
 30 91  1  0  0  0  0
 31 92  1  0  0  0  0
 32 73  2  0  0  0  0
 33 74  1  0  0  0  0
 33 78  1  0  0  0  0
 34 79  1  0  0  0  0
 34 84  2  0  0  0  0
 35 56  1  0  0  0  0
 35 81  1  0  0  0  0
 35 85  2  0  0  0  0
 36 69  1  0  0  0  0
 36 75  1  0  0  0  0
 36 86  2  0  0  0  0
 37 70  1  0  0  0  0
 37 82  1  0  0  0  0
 37 87  2  0  0  0  0
 38 76  1  0  0  0  0
 38 77  1  0  0  0  0
 38 88  2  0  0  0  0
 39 44  1  0  0  0  0
 40 56  1  0  0  0  0
 41 57  1  0  0  0  0
 42 45  1  0  0  0  0
 43 75  1  0  0  0  0
 44 47  1  0  0  0  0
 45 57  1  0  0  0  0
 46 48  1  0  0  0  0
 46 51  1  0  0  0  0
 47 55  1  0  0  0  0
 48 59  1  0  0  0  0
 49 52  1  0  0  0  0
 49 58  1  0  0  0  0
 50 53  1  0  0  0  0
 50 58  1  0  0  0  0
 51 76  1  0  0  0  0
 52 77  1  0  0  0  0
 53 77  1  0  0  0  0
 54 59  1  0  0  0  0
 54 76  1  0  0  0  0
 55 81  1  0  0  0  0
 56 75  1  0  0  0  0
 57 71  1  0  0  0  0
 58 68  1  0  0  0  0
 59 74  1  0  0  0  0
 60 70  1  0  0  0  0
 61 71  1  0  0  0  0
 62 71  1  0  0  0  0
 63 72  1  0  0  0  0
 64 72  1  0  0  0  0
 65 72  1  0  0  0  0
 66 83  1  0  0  0  0
 67 90  1  0  0  0  0
 68 80  1  0  0  0  0
 69 72  1  0  0  0  0
 69 82  1  0  0  0  0
 70 83  1  0  0  0  0
 73 74  1  0  0  0  0
M  CHG  1  83   1
M  ISO  4  38 100  67 101  77 100  90 101
M  END
> <Batch ID>
0146

> <Smiles>
CNC(C)C(=O)NC(C(=O)N1Cc2cc([101O:1][101CH2:1]c3cc(NCC4CC[100N:0]([100C:0](=O)N5CCCC(n6nc(-c7ccc(Oc8ccc(F)cc8F)cc7)c(C(N)=O)c6N)C5)CC4)cc4c3CCC(C(C)C)C4)ccc2CC1C(=O)NC1CCCc2ccccc21)C(C)(C)C

> <Shape>
0.149

> <Color>
0.169

> <Negative vol penalty>
0.000

$$$$

  -OEChem-04052321313D

 89 98  0     1  0  0  0  0  0999 V2000
  -16.4364  -28.6754   23.6649 C   0  0  0  0  0  0  0  0  0  0  0  0
  -17.3246  -27.7027   23.2172 C   0  0  0  0  0  0  0  0  0  0  0  0
  -23.0109  -10.7611   21.4398 C   0  0  0  0  0  0  0  0  0  0  0  0
  -24.5008   -8.8593   21.4588 C   0  0  0  0  0  0  0  0  0  0  0  0
  -16.9017  -29.9524   23.9762 C   0  0  0  0  0  0  0  0  0  0  0  0
  -18.6785  -28.0068   23.0793 C   0  0  0  0  0  0  0  0  0  0  0  0
  -28.9015  -20.3993   20.2797 C   0  0  0  0  0  0  0  0  0  0  0  0
  -23.4141  -24.2506   24.0643 C   0  0  0  0  0  0  0  0  0  0  0  0
  -27.9761  -21.0340   21.1080 C   0  0  0  0  0  0  0  0  0  0  0  0
  -21.9371   -9.9171   21.1567 C   0  0  0  0  0  0  0  0  0  0  0  0
  -23.4269   -8.0152   21.1758 C   0  0  0  0  0  0  0  0  0  0  0  0
  -24.2044  -23.4916   23.2023 C   0  0  0  0  0  0  0  0  0  0  0  0
  -20.8671   -6.5928   22.8623 C   0  0  0  0  0  0  0  0  0  0  0  0
  -20.7640   -5.4100   23.5943 C   0  0  0  0  0  0  0  0  0  0  0  0
  -25.8474  -25.2574   23.1633 C   0  0  0  0  0  0  0  0  0  0  0  0
  -26.3242  -20.9219   19.3485 C   0  0  0  0  0  0  0  0  0  0  0  0
  -20.9158   -4.1315   21.5499 C   0  0  0  0  0  0  0  0  0  0  0  0
  -24.2927  -10.2322   21.5908 C   0  0  0  0  0  0  0  0  0  0  0  0
  -25.8728  -11.4846   23.1537 C   0  0  0  0  0  0  0  0  0  0  0  0
  -18.2635  -30.2694   23.8513 C   0  0  0  0  0  0  0  0  0  0  0  0
  -23.8302  -25.5254   24.4744 C   0  0  0  0  0  0  0  0  0  0  0  0
  -19.1622  -29.2896   23.3879 C   0  0  0  0  0  0  0  0  0  0  0  0
  -28.5384  -20.0259   18.9857 C   0  0  0  0  0  0  0  0  0  0  0  0
  -25.0618  -26.0295   24.0327 C   0  0  0  0  0  0  0  0  0  0  0  0
  -26.6874  -21.2953   20.6425 C   0  0  0  0  0  0  0  0  0  0  0  0
  -22.1451   -8.5442   21.0247 C   0  0  0  0  0  0  0  0  0  0  0  0
  -25.4198  -23.9961   22.7493 C   0  0  0  0  0  0  0  0  0  0  0  0
  -20.9944   -6.5450   21.4740 C   0  0  0  0  0  0  0  0  0  0  0  0
  -27.2498  -20.2871   18.5201 C   0  0  0  0  0  0  0  0  0  0  0  0
  -20.7884   -4.1794   22.9381 C   0  0  0  0  0  0  0  0  0  0  0  0
  -21.0188   -5.3144   20.8179 C   0  0  0  0  0  0  0  0  0  0  0  0
  -25.4025  -11.1037   21.8827 C   0  0  0  0  0  0  0  0  0  0  0  0
  -26.9360  -12.3138   22.8920 C   0  0  0  0  0  0  0  0  0  0  0  0
  -25.3917  -11.1213   24.4545 C   0  0  0  0  0  0  0  0  0  0  0  0
  -22.6851  -28.4723   24.1454 C   0  0  0  0  0  0  0  0  0  0  0  0
  -31.3585  -21.0152   17.8099 C   0  0  0  0  0  0  0  0  0  0  0  0
  -25.1386  -29.2282   26.1282 C   0  0  0  0  0  0  0  0  0  0  0  0
  -28.2113  -28.4200   27.3739 C   0  0  0  0  0  0  0  0  0  0  0  0
  -29.2940  -16.3674   20.2730 C   0  0  0  0  0  0  0  0  0  0  0  0
  -18.7119  -31.6772   24.1545 C   0  0  0  0  0  0  0  0  0  0  0  0
  -22.9787  -26.3205   25.4258 C   0  0  0  0  0  0  0  0  0  0  0  0
  -25.5632  -27.3841   24.4595 C   0  0  0  0  0  0  0  0  0  0  0  0
  -20.2215  -31.8092   24.3387 C   0  0  0  0  0  0  0  0  0  0  0  0
  -29.3987  -13.2748   18.5902 C   0  0  0  0  0  0  0  0  0  0  0  0
  -20.9614  -31.0735   23.2260 C   0  0  0  0  0  0  0  0  0  0  0  0
  -28.3929  -12.4565   19.3984 C   0  0  0  0  0  0  0  0  0  0  0  0
  -28.9339  -14.7179   18.3845 C   0  0  0  0  0  0  0  0  0  0  0  0
  -31.8752  -18.8150   18.9445 C   0  0  0  0  0  0  0  0  0  0  0  0
  -31.1906  -17.8912   19.9428 C   0  0  0  0  0  0  0  0  0  0  0  0
  -29.4370  -17.8003   18.1762 C   0  0  0  0  0  0  0  0  0  0  0  0
  -27.5747  -14.5978   20.4488 C   0  0  0  0  0  0  0  0  0  0  0  0
  -29.5641  -19.3319   18.0941 C   0  0  2  0  0  0  0  0  0  0  0  0
  -20.6421  -29.5738   23.2490 C   0  0  1  0  0  0  0  0  0  0  0  0
  -23.2601  -27.8189   25.3701 C   0  0  1  0  0  0  0  0  0  0  0  0
  -28.0472  -13.1618   20.7213 C   0  0  1  0  0  0  0  0  0  0  0  0
  -32.8246  -21.3482   17.9321 C   0  0  0  0  0  0  0  0  0  0  0  0
  -25.9654  -18.2012   15.8761 C   0  0  0  0  0  0  0  0  0  0  0  0
  -29.9785  -29.2503   28.9503 C   0  0  0  0  0  0  0  0  0  0  0  0
  -26.0070  -31.2975   24.0608 C   0  0  0  0  0  0  0  0  0  0  0  0
  -28.2313  -31.4047   25.2050 C   0  0  0  0  0  0  0  0  0  0  0  0
  -26.1646  -32.0656   26.4356 C   0  0  0  0  0  0  0  0  0  0  0  0
  -27.9743  -26.0192   29.0883 C   0  0  0  0  0  0  0  0  0  0  0  0
  -25.6981  -21.9744   21.5281 C   0  0  0  0  0  0  0  0  0  1  0  0
  -25.7883  -19.0180   17.1383 C   0  0  0  0  0  0  0  0  0  0  0  0
  -26.5835  -29.6223   25.9390 C   0  0  1  0  0  0  0  0  0  0  0  0
  -28.7427  -28.3777   28.7953 C   0  0  2  0  0  0  0  0  0  0  0  0
  -26.7366  -31.0728   25.4003 C   0  0  0  0  0  0  0  0  0  0  0  0
  -26.1089  -11.6465   20.8875 N   0  0  0  0  0  0  0  0  0  0  0  0
  -27.0338  -12.3770   21.5331 N   0  0  0  0  0  0  0  0  0  0  0  0
  -24.6918  -28.1260   25.3857 N   0  0  0  0  0  0  0  0  0  0  0  0
  -30.9545  -19.7755   18.3214 N   0  0  0  0  0  0  0  0  0  0  0  0
  -28.5655  -15.3374   19.6641 N   0  0  0  0  0  0  0  0  0  0  0  0
  -29.9752  -17.2629   19.4320 N   0  0  0  0  0  0  0  0  0  0  0  0
  -27.7873  -12.9879   23.6940 N   0  0  0  0  0  0  0  0  0  0  0  0
  -24.2897  -10.2598   24.5428 N   0  0  0  0  0  0  0  0  0  0  0  0
  -21.3854  -28.9148   24.3015 N   0  0  0  0  0  0  0  0  0  0  0  0
  -27.2416  -29.3880   27.2198 N   0  0  0  0  0  0  0  0  0  0  0  0
  -29.1029  -26.9816   29.1723 N   0  3  0  0  0  0  0  0  0  0  0  0
  -25.9131  -11.5610   25.5073 O   0  0  0  0  0  0  0  0  0  0  0  0
  -23.3705  -28.5693   23.1341 O   0  0  0  0  0  0  0  0  0  0  0  0
  -30.5928  -21.8278   17.2851 O   0  0  0  0  0  0  0  0  0  0  0  0
  -24.4343  -29.8701   26.9114 O   0  0  0  0  0  0  0  0  0  0  0  0
  -28.6186  -27.6717   26.4880 O   0  0  0  0  0  0  0  0  0  0  0  0
  -29.3226  -16.4947   21.5041 O   0  0  0  0  0  0  0  0  0  0  0  0
  -21.0974   -7.7202   20.7487 O   0  0  0  0  0  0  0  0  0  0  0  0
  -26.1982  -23.2525   21.9015 O   0  0  0  0  0  0  0  0  0  1  0  0
  -26.8790  -19.9290   17.2589 O   0  0  0  0  0  0  0  0  0  0  0  0
  -20.6909   -3.0436   23.6414 F   0  0  0  0  0  0  0  0  0  0  0  0
  -21.1422   -5.2621   19.4845 F   0  0  0  0  0  0  0  0  0  0  0  0
  1  2  1  0  0  0  0
  1  5  2  0  0  0  0
  2  6  2  0  0  0  0
  3 10  2  0  0  0  0
  3 18  1  0  0  0  0
  4 11  1  0  0  0  0
  4 18  2  0  0  0  0
  5 20  1  0  0  0  0
  6 22  1  0  0  0  0
  7  9  2  0  0  0  0
  7 23  1  0  0  0  0
  8 12  2  0  0  0  0
  8 21  1  0  0  0  0
  9 25  1  0  0  0  0
 10 26  1  0  0  0  0
 11 26  2  0  0  0  0
 12 27  1  0  0  0  0
 13 14  2  0  0  0  0
 13 28  1  0  0  0  0
 14 30  1  0  0  0  0
 15 24  1  0  0  0  0
 15 27  2  0  0  0  0
 16 25  2  0  0  0  0
 16 29  1  0  0  0  0
 17 30  2  0  0  0  0
 17 31  1  0  0  0  0
 18 32  1  0  0  0  0
 19 32  1  0  0  0  0
 19 33  2  0  0  0  0
 19 34  1  0  0  0  0
 20 22  2  0  0  0  0
 20 40  1  0  0  0  0
 21 24  2  0  0  0  0
 21 41  1  0  0  0  0
 22 53  1  0  0  0  0
 23 29  2  0  0  0  0
 23 52  1  0  0  0  0
 24 42  1  0  0  0  0
 25 63  1  0  0  0  0
 26 85  1  0  0  0  0
 27 86  1  0  0  0  0
 28 31  2  0  0  0  0
 28 85  1  0  0  0  0
 29 87  1  0  0  0  0
 30 88  1  0  0  0  0
 31 89  1  0  0  0  0
 32 68  2  0  0  0  0
 33 69  1  0  0  0  0
 33 74  1  0  0  0  0
 34 75  1  0  0  0  0
 34 79  2  0  0  0  0
 35 54  1  0  0  0  0
 35 76  1  0  0  0  0
 35 80  2  0  0  0  0
 36 56  1  0  0  0  0
 36 71  1  0  0  0  0
 36 81  2  0  0  0  0
 37 65  1  0  0  0  0
 37 70  1  0  0  0  0
 37 82  2  0  0  0  0
 38 66  1  0  0  0  0
 38 77  1  0  0  0  0
 38 83  2  0  0  0  0
 39 72  1  0  0  0  0
 39 73  1  0  0  0  0
 39 84  2  0  0  0  0
 40 43  1  0  0  0  0
 41 54  1  0  0  0  0
 42 70  1  0  0  0  0
 43 45  1  0  0  0  0
 44 46  1  0  0  0  0
 44 47  1  0  0  0  0
 45 53  1  0  0  0  0
 46 55  1  0  0  0  0
 47 72  1  0  0  0  0
 48 49  1  0  0  0  0
 48 71  1  0  0  0  0
 49 73  1  0  0  0  0
 50 52  1  0  0  0  0
 50 73  1  0  0  0  0
 51 55  1  0  0  0  0
 51 72  1  0  0  0  0
 52 71  1  0  0  0  0
 53 76  1  0  0  0  0
 54 70  1  0  0  0  0
 55 69  1  0  0  0  0
 57 64  1  0  0  0  0
 58 66  1  0  0  0  0
 59 67  1  0  0  0  0
 60 67  1  0  0  0  0
 61 67  1  0  0  0  0
 62 78  1  0  0  0  0
 63 86  1  0  0  0  0
 64 87  1  0  0  0  0
 65 67  1  0  0  0  0
 65 77  1  0  0  0  0
 66 78  1  0  0  0  0
 68 69  1  0  0  0  0
M  CHG  1  78   1
M  ISO  4  39 100  63 101  73 100  86 101
M  END
> <Batch ID>
0146

> <Smiles>
CCOc1cc([101CH2:1][101O:1]c2ccc3c(c2)CN(C(=O)C(NC(=O)C(C)NC)C(C)(C)C)C(C(=O)NC2CCCc4ccccc42)C3)ccc1C1C[100N:0]([100C:0](=O)N2CCCC(n3nc(-c4ccc(Oc5ccc(F)cc5F)cc4)c(C(N)=O)c3N)C2)CCN1C(C)=O

> <Shape>
0.246

> <Color>
0.100

> <Negative vol penalty>
0.000

$$$$

  -OEChem-04052321313D

 87 96  0     1  0  0  0  0  0999 V2000
  -22.3071  -20.3942   12.6375 C   0  0  0  0  0  0  0  0  0  0  0  0
  -22.5879  -19.4547   13.6243 C   0  0  0  0  0  0  0  0  0  0  0  0
  -27.3579  -25.3544   17.8614 C   0  0  0  0  0  0  0  0  0  0  0  0
  -27.1958  -25.0867   20.2570 C   0  0  0  0  0  0  0  0  0  0  0  0
  -22.5585  -21.7455   12.8715 C   0  0  0  0  0  0  0  0  0  0  0  0
  -23.1215  -19.8658   14.8453 C   0  0  0  0  0  0  0  0  0  0  0  0
  -24.9953  -12.3333   21.6551 C   0  0  0  0  0  0  0  0  0  0  0  0
  -24.6160  -12.7798   19.3112 C   0  0  0  0  0  0  0  0  0  0  0  0
  -20.8671  -17.6428   18.7976 C   0  0  0  0  0  0  0  0  0  0  0  0
  -26.2446  -26.1945   17.8799 C   0  0  0  0  0  0  0  0  0  0  0  0
  -26.0825  -25.9268   20.2756 C   0  0  0  0  0  0  0  0  0  0  0  0
  -26.2614  -12.9108   21.5602 C   0  0  0  0  0  0  0  0  0  0  0  0
  -25.8821  -13.3573   19.2163 C   0  0  0  0  0  0  0  0  0  0  0  0
  -21.2372  -16.3299   19.0861 C   0  0  0  0  0  0  0  0  0  0  0  0
  -25.4679  -29.2477   20.1557 C   0  0  0  0  0  0  0  0  0  0  0  0
  -25.4169  -30.2318   21.1429 C   0  0  0  0  0  0  0  0  0  0  0  0
  -22.6901  -17.1308   20.8374 C   0  0  0  0  0  0  0  0  0  0  0  0
  -23.3666  -29.2753   21.9904 C   0  0  0  0  0  0  0  0  0  0  0  0
  -27.8335  -24.8004   19.0499 C   0  0  0  0  0  0  0  0  0  0  0  0
  -30.3336  -24.3065   19.1648 C   0  0  0  0  0  0  0  0  0  0  0  0
  -24.1726  -12.2678   20.5305 C   0  0  0  0  0  0  0  0  0  0  0  0
  -23.0864  -22.1745   14.0995 C   0  0  0  0  0  0  0  0  0  0  0  0
  -21.4149  -18.7120   19.5208 C   0  0  0  0  0  0  0  0  0  0  0  0
  -23.3815  -21.2239   15.0954 C   0  0  0  0  0  0  0  0  0  0  0  0
  -22.3233  -18.4561   20.5578 C   0  0  0  0  0  0  0  0  0  0  0  0
  -25.6069  -26.4808   19.0870 C   0  0  0  0  0  0  0  0  0  0  0  0
  -26.7049  -13.4228   20.3408 C   0  0  0  0  0  0  0  0  0  0  0  0
  -22.1510  -16.0739   20.1042 C   0  0  0  0  0  0  0  0  0  0  0  0
  -24.4682  -28.2775   20.0857 C   0  0  0  0  0  0  0  0  0  0  0  0
  -24.3663  -30.2456   22.0603 C   0  0  0  0  0  0  0  0  0  0  0  0
  -23.4176  -28.2913   21.0031 C   0  0  0  0  0  0  0  0  0  0  0  0
  -28.9831  -23.9320   19.0314 C   0  0  0  0  0  0  0  0  0  0  0  0
  -31.0276  -23.1243   19.0805 C   0  0  0  0  0  0  0  0  0  0  0  0
  -30.9091  -25.6067   19.3486 C   0  0  0  0  0  0  0  0  0  0  0  0
  -23.2066  -21.2327   18.7862 C   0  0  0  0  0  0  0  0  0  0  0  0
  -22.6732  -22.0256   21.8860 C   0  0  0  0  0  0  0  0  0  0  0  0
  -21.8895  -21.0001   25.0453 C   0  0  0  0  0  0  0  0  0  0  0  0
  -29.4835  -17.5603   20.3105 C   0  0  0  0  0  0  0  0  0  0  0  0
  -23.3855  -23.6405   14.2887 C   0  0  0  0  0  0  0  0  0  0  0  0
  -20.9850  -20.1206   19.2150 C   0  0  0  0  0  0  0  0  0  0  0  0
  -22.9250  -19.5674   21.3773 C   0  0  0  0  0  0  0  0  0  0  0  0
  -23.6017  -24.0348   15.7475 C   0  0  0  0  0  0  0  0  0  0  0  0
  -30.7621  -18.7559   17.1430 C   0  0  0  0  0  0  0  0  0  0  0  0
  -24.5368  -23.0450   16.4350 C   0  0  0  0  0  0  0  0  0  0  0  0
  -30.5744  -20.2670   17.2901 C   0  0  0  0  0  0  0  0  0  0  0  0
  -22.7328  -10.1966   21.0596 C   0  0  0  0  0  0  0  0  0  0  0  0
  -22.4594  -10.5637   19.6346 C   0  0  0  0  0  0  0  0  0  0  0  0
  -29.6072  -17.9906   17.7822 C   0  0  0  0  0  0  0  0  0  0  0  0
  -29.1795  -19.8309   19.3647 C   0  0  0  0  0  0  0  0  0  0  0  0
  -23.9376  -21.6335   16.4419 C   0  0  1  0  0  0  0  0  0  0  0  0
  -21.9961  -21.1668   19.6739 C   0  0  1  0  0  0  0  0  0  0  0  0
  -30.3259  -20.6604   18.7583 C   0  0  2  0  0  0  0  0  0  0  0  0
  -22.8202  -11.6505   20.6314 C   0  0  0  0  0  0  0  0  0  0  0  0
  -21.5650  -21.8722   27.3758 C   0  0  0  0  0  0  0  0  0  0  0  0
  -25.6971  -22.2664   22.2144 C   0  0  0  0  0  0  0  0  0  0  0  0
  -25.3637  -22.1919   24.6946 C   0  0  0  0  0  0  0  0  0  0  0  0
  -24.3776  -24.0550   23.3608 C   0  0  0  0  0  0  0  0  0  0  0  0
  -19.0707  -20.1009   25.1138 C   0  0  0  0  0  0  0  0  0  0  0  0
  -20.8329  -13.9819   22.9425 C   0  0  0  0  0  0  0  0  0  0  0  0
  -29.8068  -15.2336   21.1100 C   0  0  0  0  0  0  0  0  0  0  0  0
  -28.4522  -14.6220   21.4199 C   0  0  0  0  0  0  0  0  0  0  0  0
  -21.5462  -13.7742   20.1426 C   0  0  0  0  0  0  0  0  0  1  0  0
  -23.3674  -21.7432   23.1965 C   0  0  1  0  0  0  0  0  0  0  0  0
  -20.8894  -21.5296   26.0572 C   0  0  2  0  0  0  0  0  0  0  0  0
  -21.7298  -12.5795   21.0803 C   0  0  2  0  0  0  0  0  0  0  0  0
  -24.6918  -22.5431   23.3500 C   0  0  0  0  0  0  0  0  0  0  0  0
  -28.8264  -22.6149   18.8740 N   0  0  0  0  0  0  0  0  0  0  0  0
  -30.0874  -22.1515   18.9080 N   0  0  0  0  0  0  0  0  0  0  0  0
  -22.4779  -20.9279   21.0359 N   0  0  0  0  0  0  0  0  0  0  0  0
  -29.4356  -18.3980   19.1839 N   0  0  0  0  0  0  0  0  0  0  0  0
  -32.3444  -22.8324   19.1377 N   0  0  0  0  0  0  0  0  0  0  0  0
  -30.0520  -26.7137   19.4136 N   0  0  0  0  0  0  0  0  0  0  0  0
  -22.9206  -21.5211   17.4654 N   0  0  0  0  0  0  0  0  0  0  0  0
  -22.3858  -22.0060   24.2433 N   0  0  0  0  0  0  0  0  0  0  0  0
  -29.7237  -16.2163   20.0524 N   0  0  0  0  0  0  0  0  0  0  0  0
  -19.8320  -20.5131   26.3211 N   0  3  0  0  0  0  0  0  0  0  0  0
  -21.9266  -13.0984   22.4675 N   0  3  0  0  0  0  0  0  0  0  0  0
  -32.1480  -25.7836   19.4357 O   0  0  0  0  0  0  0  0  0  0  0  0
  -24.3179  -21.0378   19.2645 O   0  0  0  0  0  0  0  0  0  0  0  0
  -22.3109  -23.1765   21.6294 O   0  0  0  0  0  0  0  0  0  0  0  0
  -22.2021  -19.8135   24.9759 O   0  0  0  0  0  0  0  0  0  0  0  0
  -29.3290  -17.9800   21.4625 O   0  0  0  0  0  0  0  0  0  0  0  0
  -24.5207  -27.3007   19.1055 O   0  0  0  0  0  0  0  0  0  0  0  0
  -27.9393  -13.9885   20.2488 O   0  0  0  0  0  0  0  0  0  0  0  0
  -22.5144  -14.7935   20.3875 O   0  0  0  0  0  0  0  0  0  1  0  0
  -24.3183  -31.1897   23.0092 F   0  0  0  0  0  0  0  0  0  0  0  0
  -22.4549  -27.3611   20.9416 F   0  0  0  0  0  0  0  0  0  0  0  0
  1  2  1  0  0  0  0
  1  5  2  0  0  0  0
  2  6  2  0  0  0  0
  3 10  2  0  0  0  0
  3 19  1  0  0  0  0
  4 11  1  0  0  0  0
  4 19  2  0  0  0  0
  5 22  1  0  0  0  0
  6 24  1  0  0  0  0
  7 12  2  0  0  0  0
  7 21  1  0  0  0  0
  8 13  1  0  0  0  0
  8 21  2  0  0  0  0
  9 14  2  0  0  0  0
  9 23  1  0  0  0  0
 10 26  1  0  0  0  0
 11 26  2  0  0  0  0
 12 27  1  0  0  0  0
 13 27  2  0  0  0  0
 14 28  1  0  0  0  0
 15 16  2  0  0  0  0
 15 29  1  0  0  0  0
 16 30  1  0  0  0  0
 17 25  1  0  0  0  0
 17 28  2  0  0  0  0
 18 30  2  0  0  0  0
 18 31  1  0  0  0  0
 19 32  1  0  0  0  0
 20 32  1  0  0  0  0
 20 33  2  0  0  0  0
 20 34  1  0  0  0  0
 21 53  1  0  0  0  0
 22 24  2  0  0  0  0
 22 39  1  0  0  0  0
 23 25  2  0  0  0  0
 23 40  1  0  0  0  0
 24 50  1  0  0  0  0
 25 41  1  0  0  0  0
 26 83  1  0  0  0  0
 27 84  1  0  0  0  0
 28 85  1  0  0  0  0
 29 31  2  0  0  0  0
 29 83  1  0  0  0  0
 30 86  1  0  0  0  0
 31 87  1  0  0  0  0
 32 67  2  0  0  0  0
 33 68  1  0  0  0  0
 33 71  1  0  0  0  0
 34 72  1  0  0  0  0
 34 78  2  0  0  0  0
 35 51  1  0  0  0  0
 35 73  1  0  0  0  0
 35 79  2  0  0  0  0
 36 63  1  0  0  0  0
 36 69  1  0  0  0  0
 36 80  2  0  0  0  0
 37 64  1  0  0  0  0
 37 74  1  0  0  0  0
 37 81  2  0  0  0  0
 38 70  1  0  0  0  0
 38 75  1  0  0  0  0
 38 82  2  0  0  0  0
 39 42  1  0  0  0  0
 40 51  1  0  0  0  0
 41 69  1  0  0  0  0
 42 44  1  0  0  0  0
 43 45  1  0  0  0  0
 43 48  1  0  0  0  0
 44 50  1  0  0  0  0
 45 52  1  0  0  0  0
 46 47  1  0  0  0  0
 46 53  1  0  0  0  0
 47 53  1  0  0  0  0
 48 70  1  0  0  0  0
 49 52  1  0  0  0  0
 49 70  1  0  0  0  0
 50 73  1  0  0  0  0
 51 69  1  0  0  0  0
 52 68  1  0  0  0  0
 53 65  1  0  0  0  0
 54 64  1  0  0  0  0
 55 66  1  0  0  0  0
 56 66  1  0  0  0  0
 57 66  1  0  0  0  0
 58 76  1  0  0  0  0
 59 77  1  0  0  0  0
 60 61  1  0  0  0  0
 60 75  1  0  0  0  0
 61 84  1  0  0  0  0
 62 65  1  0  0  0  0
 62 85  1  0  0  0  0
 63 66  1  0  0  0  0
 63 74  1  0  0  0  0
 64 76  1  0  0  0  0
 65 77  1  0  0  0  0
 67 68  1  0  0  0  0
M  CHG  2  76   1  77   1
M  ISO  4  38 100  62 101  75 100  85 101
M  END
> <Batch ID>
0146

> <Smiles>
CNC(C)C(=O)NC(C(=O)N1Cc2cc([101O:1][101CH2:1]C(NC)C3(c4ccc(OCC[100NH:0][100C:0](=O)N5CCCC(n6nc(-c7ccc(Oc8ccc(F)cc8F)cc7)c(C(N)=O)c6N)C5)cc4)CC3)ccc2CC1C(=O)NC1CCCc2ccccc21)C(C)(C)C

> <Shape>
0.202

> <Color>
0.074

> <Negative vol penalty>
0.000

$$$$

  -OEChem-04052321313D

 86 95  0     1  0  0  0  0  0999 V2000
  -25.7652  -38.8362   24.3904 C   0  0  0  0  0  0  0  0  0  0  0  0
  -26.6630  -38.0746   23.6493 C   0  0  0  0  0  0  0  0  0  0  0  0
  -26.2724   -7.3371   21.1248 C   0  0  0  0  0  0  0  0  0  0  0  0
  -24.4652   -8.9047   21.4618 C   0  0  0  0  0  0  0  0  0  0  0  0
  -24.9836  -38.2300   25.3730 C   0  0  0  0  0  0  0  0  0  0  0  0
  -26.7805  -36.7063   23.8912 C   0  0  0  0  0  0  0  0  0  0  0  0
  -28.1312  -30.5355   20.5129 C   0  0  0  0  0  0  0  0  0  0  0  0
  -25.7365   -6.5076   22.1099 C   0  0  0  0  0  0  0  0  0  0  0  0
  -23.9293   -8.0752   22.4469 C   0  0  0  0  0  0  0  0  0  0  0  0
  -28.9639  -29.4206   20.5985 C   0  0  0  0  0  0  0  0  0  0  0  0
  -21.8880   -6.1976   24.7977 C   0  0  0  0  0  0  0  0  0  0  0  0
  -20.5130   -5.9645   24.7728 C   0  0  0  0  0  0  0  0  0  0  0  0
  -27.5055  -28.4670   22.2667 C   0  0  0  0  0  0  0  0  0  0  0  0
  -27.6104  -18.2101   20.4184 C   0  0  0  0  0  0  0  0  0  0  0  0
  -20.7153   -5.0077   22.5635 C   0  0  0  0  0  0  0  0  0  0  0  0
  -25.3873  -18.4819   20.6505 C   0  0  0  0  0  0  0  0  0  0  0  0
  -25.6367   -8.5357   20.8008 C   0  0  0  0  0  0  0  0  0  0  0  0
  -25.9095   -9.3667   18.4044 C   0  0  0  0  0  0  0  0  0  0  0  0
  -25.0847  -36.8519   25.6205 C   0  0  0  0  0  0  0  0  0  0  0  0
  -26.9833  -30.6296   21.3128 C   0  0  0  0  0  0  0  0  0  0  0  0
  -26.0005  -36.0814   24.8790 C   0  0  0  0  0  0  0  0  0  0  0  0
  -26.6585  -29.5830   22.1875 C   0  0  0  0  0  0  0  0  0  0  0  0
  -24.5650   -6.8766   22.7709 C   0  0  0  0  0  0  0  0  0  0  0  0
  -28.6526  -28.3874   21.4776 C   0  0  0  0  0  0  0  0  0  0  0  0
  -22.6767   -5.8359   23.7055 C   0  0  0  0  0  0  0  0  0  0  0  0
  -26.5774  -19.1694   20.5585 C   0  0  0  0  0  0  0  0  0  0  0  0
  -19.9266   -5.3695   23.6557 C   0  0  0  0  0  0  0  0  0  0  0  0
  -22.0903   -5.2409   22.5884 C   0  0  0  0  0  0  0  0  0  0  0  0
  -26.1900   -9.3933   19.7837 C   0  0  0  0  0  0  0  0  0  0  0  0
  -27.0201  -16.9655   20.4288 C   0  0  0  0  0  0  0  0  0  0  0  0
  -26.6824  -10.3724   17.8774 C   0  0  0  0  0  0  0  0  0  0  0  0
  -25.0289   -8.5097   17.6657 C   0  0  0  0  0  0  0  0  0  0  0  0
  -25.9861  -32.6224   23.5796 C   0  0  0  0  0  0  0  0  0  0  0  0
  -23.2592  -30.8783   23.3689 C   0  0  0  0  0  0  0  0  0  0  0  0
  -21.7636  -27.9310   22.5183 C   0  0  0  0  0  0  0  0  0  0  0  0
  -28.9708  -15.3920   20.1735 C   0  0  0  0  0  0  0  0  0  0  0  0
  -24.2531  -36.2499   26.7253 C   0  0  0  0  0  0  0  0  0  0  0  0
  -26.0811  -31.8268   21.1892 C   0  0  0  0  0  0  0  0  0  0  0  0
  -25.4268  -29.6263   23.0533 C   0  0  0  0  0  0  0  0  0  0  0  0
  -24.1680  -34.7270   26.6629 C   0  0  0  0  0  0  0  0  0  0  0  0
  -30.7773  -12.7370   18.6357 C   0  0  0  0  0  0  0  0  0  0  0  0
  -25.5501  -34.1241   26.4321 C   0  0  0  0  0  0  0  0  0  0  0  0
  -29.7784  -11.5776   18.6246 C   0  0  0  0  0  0  0  0  0  0  0  0
  -24.5721  -15.0508   19.5375 C   0  0  0  0  0  0  0  0  0  0  0  0
  -23.4932  -16.0777   19.6839 C   0  0  0  0  0  0  0  0  0  0  0  0
  -30.6515  -13.5818   19.9023 C   0  0  0  0  0  0  0  0  0  0  0  0
  -28.2978  -12.9096   20.1805 C   0  0  0  0  0  0  0  0  0  0  0  0
  -26.1388  -34.5899   25.0950 C   0  0  1  0  0  0  0  0  0  0  0  0
  -25.2139  -32.0514   22.4241 C   0  0  1  0  0  0  0  0  0  0  0  0
  -24.6721  -16.0911   20.6284 C   0  0  0  0  0  0  0  0  0  0  0  0
  -28.3424  -12.0684   18.8944 C   0  0  2  0  0  0  0  0  0  0  0  0
  -19.5281  -26.7912   22.4950 C   0  0  0  0  0  0  0  0  0  0  0  0
  -23.4503  -30.4472   26.3835 C   0  0  0  0  0  0  0  0  0  0  0  0
  -21.8007  -28.5783   26.1505 C   0  0  0  0  0  0  0  0  0  0  0  0
  -21.1411  -30.9052   25.5395 C   0  0  0  0  0  0  0  0  0  0  0  0
  -21.8273  -27.6118   19.5767 C   0  0  0  0  0  0  0  0  0  0  0  0
  -27.9274  -22.5871   20.5359 C   0  0  0  0  0  0  0  0  0  0  0  0
  -29.3059  -23.2178   20.4376 C   0  0  0  0  0  0  0  0  0  0  0  0
  -30.4545  -25.4356   20.4095 C   0  0  0  0  0  0  0  0  0  0  0  0
  -28.0079  -21.0680   20.4899 C   0  0  0  0  0  0  0  0  0  0  0  0
  -30.1785  -26.9260   20.3858 C   0  0  0  0  0  0  0  0  0  1  0  0
  -22.7316  -29.6337   24.0409 C   0  0  1  0  0  0  0  0  0  0  0  0
  -20.5181  -27.6318   21.7037 C   0  0  2  0  0  0  0  0  0  0  0  0
  -22.3053  -29.8908   25.5138 C   0  0  0  0  0  0  0  0  0  0  0  0
  -27.0724  -10.3406   20.1123 N   0  0  0  0  0  0  0  0  0  0  0  0
  -25.6686  -17.1430   20.5702 N   0  0  0  0  0  0  0  0  0  0  0  0
  -27.3531  -10.9186   18.9320 N   0  0  0  0  0  0  0  0  0  0  0  0
  -24.5796  -30.8207   22.9009 N   0  0  0  0  0  0  0  0  0  0  0  0
  -29.2651  -14.0146   20.0907 N   0  0  0  0  0  0  0  0  0  0  0  0
  -26.8471  -10.8338   16.6195 N   0  0  0  0  0  0  0  0  0  0  0  0
  -24.3098   -7.5296   18.3632 N   0  0  0  0  0  0  0  0  0  0  0  0
  -27.6152  -15.6842   20.3198 N   0  0  0  0  0  0  0  0  0  0  0  0
  -25.5393  -33.8614   23.9976 N   0  0  0  0  0  0  0  0  0  0  0  0
  -21.6599  -29.1321   23.1875 N   0  0  0  0  0  0  0  0  0  0  0  0
  -20.8771  -26.8903   20.4618 N   0  3  0  0  0  0  0  0  0  0  0  0
  -29.1658  -24.6990   20.4416 N   0  3  0  0  0  0  0  0  0  0  0  0
  -24.8965   -8.5994   16.4215 O   0  0  0  0  0  0  0  0  0  0  0  0
  -26.9175  -31.9853   24.0576 O   0  0  0  0  0  0  0  0  0  0  0  0
  -22.5245  -31.8627   23.2568 O   0  0  0  0  0  0  0  0  0  0  0  0
  -22.7303  -27.1731   22.5599 O   0  0  0  0  0  0  0  0  0  0  0  0
  -29.8533  -16.2502   20.0913 O   0  0  0  0  0  0  0  0  0  0  0  0
  -24.0417   -6.0673   23.7320 O   0  0  0  0  0  0  0  0  0  0  0  0
  -29.4640  -27.2983   21.5636 O   0  0  0  0  0  0  0  0  0  1  0  0
  -26.6955  -20.5344   20.5998 O   0  0  0  0  0  0  0  0  0  0  0  0
  -18.6065   -5.1443   23.6326 F   0  0  0  0  0  0  0  0  0  0  0  0
  -22.8429   -4.8901   21.5366 F   0  0  0  0  0  0  0  0  0  0  0  0
  1  2  1  0  0  0  0
  1  5  2  0  0  0  0
  2  6  2  0  0  0  0
  3  8  2  0  0  0  0
  3 17  1  0  0  0  0
  4  9  1  0  0  0  0
  4 17  2  0  0  0  0
  5 19  1  0  0  0  0
  6 21  1  0  0  0  0
  7 10  2  0  0  0  0
  7 20  1  0  0  0  0
  8 23  1  0  0  0  0
  9 23  2  0  0  0  0
 10 24  1  0  0  0  0
 11 12  2  0  0  0  0
 11 25  1  0  0  0  0
 12 27  1  0  0  0  0
 13 22  1  0  0  0  0
 13 24  2  0  0  0  0
 14 26  1  0  0  0  0
 14 30  2  0  0  0  0
 15 27  2  0  0  0  0
 15 28  1  0  0  0  0
 16 26  2  0  0  0  0
 16 66  1  0  0  0  0
 17 29  1  0  0  0  0
 18 29  1  0  0  0  0
 18 31  2  0  0  0  0
 18 32  1  0  0  0  0
 19 21  2  0  0  0  0
 19 37  1  0  0  0  0
 20 22  2  0  0  0  0
 20 38  1  0  0  0  0
 21 48  1  0  0  0  0
 22 39  1  0  0  0  0
 23 82  1  0  0  0  0
 24 83  1  0  0  0  0
 25 28  2  0  0  0  0
 25 82  1  0  0  0  0
 26 84  1  0  0  0  0
 27 85  1  0  0  0  0
 28 86  1  0  0  0  0
 29 65  2  0  0  0  0
 30 66  1  0  0  0  0
 30 72  1  0  0  0  0
 31 67  1  0  0  0  0
 31 70  1  0  0  0  0
 32 71  1  0  0  0  0
 32 77  2  0  0  0  0
 33 49  1  0  0  0  0
 33 73  1  0  0  0  0
 33 78  2  0  0  0  0
 34 62  1  0  0  0  0
 34 68  1  0  0  0  0
 34 79  2  0  0  0  0
 35 63  1  0  0  0  0
 35 74  1  0  0  0  0
 35 80  2  0  0  0  0
 36 69  1  0  0  0  0
 36 72  1  0  0  0  0
 36 81  2  0  0  0  0
 37 40  1  0  0  0  0
 38 49  1  0  0  0  0
 39 68  1  0  0  0  0
 40 42  1  0  0  0  0
 41 43  1  0  0  0  0
 41 46  1  0  0  0  0
 42 48  1  0  0  0  0
 43 51  1  0  0  0  0
 44 45  1  0  0  0  0
 44 50  1  0  0  0  0
 45 50  1  0  0  0  0
 46 69  1  0  0  0  0
 47 51  1  0  0  0  0
 47 69  1  0  0  0  0
 48 73  1  0  0  0  0
 49 68  1  0  0  0  0
 50 66  1  0  0  0  0
 51 67  1  0  0  0  0
 52 63  1  0  0  0  0
 53 64  1  0  0  0  0
 54 64  1  0  0  0  0
 55 64  1  0  0  0  0
 56 75  1  0  0  0  0
 57 58  1  0  0  0  0
 57 60  1  0  0  0  0
 58 76  1  0  0  0  0
 59 61  1  0  0  0  0
 59 76  1  0  0  0  0
 60 84  1  0  0  0  0
 61 83  1  0  0  0  0
 62 64  1  0  0  0  0
 62 74  1  0  0  0  0
 63 75  1  0  0  0  0
 65 67  1  0  0  0  0
M  CHG  2  75   1  76   1
M  ISO  4  36 100  61 101  72 100  83 101
M  END
> <Batch ID>
0146

> <Smiles>
CNC(C)C(=O)NC(C(=O)N1Cc2cc([101O:1][101CH2:1]CNCCCOc3cc([100NH:0][100C:0](=O)N4CCCC(n5nc(-c6ccc(Oc7ccc(F)cc7F)cc6)c(C(N)=O)c5N)C4)n(C4CC4)c3)ccc2CC1C(=O)NC1CCCc2ccccc21)C(C)(C)C

> <Shape>
0.302

> <Color>
0.064

> <Negative vol penalty>
0.000

$$$$

  -OEChem-04052321313D

 84 93  0     1  0  0  0  0  0999 V2000
  -26.7858  -34.8324   21.6032 C   0  0  0  0  0  0  0  0  0  0  0  0
  -27.0923  -33.4924   21.3891 C   0  0  0  0  0  0  0  0  0  0  0  0
  -22.3135  -13.7802   21.2059 C   0  0  0  0  0  0  0  0  0  0  0  0
  -23.0110  -15.7211   22.4642 C   0  0  0  0  0  0  0  0  0  0  0  0
  -25.6992  -35.1782   22.4055 C   0  0  0  0  0  0  0  0  0  0  0  0
  -26.3130  -32.4973   21.9782 C   0  0  0  0  0  0  0  0  0  0  0  0
  -24.9264  -27.0223   19.6103 C   0  0  0  0  0  0  0  0  0  0  0  0
  -30.5960  -20.2430   21.1431 C   0  0  0  0  0  0  0  0  0  0  0  0
  -29.5394  -21.1117   20.8706 C   0  0  0  0  0  0  0  0  0  0  0  0
  -21.3767  -13.4764   22.1936 C   0  0  0  0  0  0  0  0  0  0  0  0
  -22.0741  -15.4174   23.4520 C   0  0  0  0  0  0  0  0  0  0  0  0
  -25.4667  -25.7519   19.8053 C   0  0  0  0  0  0  0  0  0  0  0  0
  -18.7440  -15.7597   23.9139 C   0  0  0  0  0  0  0  0  0  0  0  0
  -17.9651  -16.8052   24.4097 C   0  0  0  0  0  0  0  0  0  0  0  0
  -23.7515  -25.2792   21.4343 C   0  0  0  0  0  0  0  0  0  0  0  0
  -29.8973  -18.8210   19.3191 C   0  0  0  0  0  0  0  0  0  0  0  0
  -18.8373  -16.4037   26.6267 C   0  0  0  0  0  0  0  0  0  0  0  0
  -23.1307  -14.9025   21.3411 C   0  0  0  0  0  0  0  0  0  0  0  0
  -23.9048  -16.0237   19.1844 C   0  0  0  0  0  0  0  0  0  0  0  0
  -24.9005  -34.1868   22.9969 C   0  0  0  0  0  0  0  0  0  0  0  0
  -23.7992  -27.4353   20.3350 C   0  0  0  0  0  0  0  0  0  0  0  0
  -25.2156  -32.8302   22.7903 C   0  0  0  0  0  0  0  0  0  0  0  0
  -23.1973  -26.5543   21.2448 C   0  0  0  0  0  0  0  0  0  0  0  0
  -30.7751  -19.0976   20.3673 C   0  0  0  0  0  0  0  0  0  0  0  0
  -28.8406  -19.6898   19.0466 C   0  0  0  0  0  0  0  0  0  0  0  0
  -28.6616  -20.8352   19.8224 C   0  0  0  0  0  0  0  0  0  0  0  0
  -21.2570  -14.2950   23.3167 C   0  0  0  0  0  0  0  0  0  0  0  0
  -24.8810  -24.8812   20.7195 C   0  0  0  0  0  0  0  0  0  0  0  0
  -19.5695  -15.0362   24.7746 C   0  0  0  0  0  0  0  0  0  0  0  0
  -18.0117  -17.1272   25.7661 C   0  0  0  0  0  0  0  0  0  0  0  0
  -19.6162  -15.3582   26.1309 C   0  0  0  0  0  0  0  0  0  0  0  0
  -24.0989  -15.2166   20.3213 C   0  0  0  0  0  0  0  0  0  0  0  0
  -25.1176  -16.0066   18.5400 C   0  0  0  0  0  0  0  0  0  0  0  0
  -22.7329  -16.7260   18.7496 C   0  0  0  0  0  0  0  0  0  0  0  0
  -23.2030  -29.7527   22.4273 C   0  0  0  0  0  0  0  0  0  0  0  0
  -20.1527  -28.6841   22.1520 C   0  0  0  0  0  0  0  0  0  0  0  0
  -18.0408  -26.1178   21.3767 C   0  0  0  0  0  0  0  0  0  0  0  0
  -30.7235  -15.0731   20.4251 C   0  0  0  0  0  0  0  0  0  0  0  0
  -23.7647  -34.6096   23.8948 C   0  0  0  0  0  0  0  0  0  0  0  0
  -23.2126  -28.7991   20.0935 C   0  0  0  0  0  0  0  0  0  0  0  0
  -21.9739  -26.9420   22.0330 C   0  0  0  0  0  0  0  0  0  0  0  0
  -22.7639  -33.4922   24.1781 C   0  0  0  0  0  0  0  0  0  0  0  0
  -28.9821  -13.2582   17.9051 C   0  0  0  0  0  0  0  0  0  0  0  0
  -23.4925  -32.2037   24.5465 C   0  0  0  0  0  0  0  0  0  0  0  0
  -27.5156  -13.6272   18.1360 C   0  0  0  0  0  0  0  0  0  0  0  0
  -29.7483  -13.1405   19.2208 C   0  0  0  0  0  0  0  0  0  0  0  0
  -28.1858  -14.6888   20.3320 C   0  0  0  0  0  0  0  0  0  0  0  0
  -27.5971  -23.1148   19.7969 C   0  0  0  0  0  0  0  0  0  0  0  0
  -26.2380  -21.5097   19.8603 C   0  0  0  0  0  0  0  0  0  0  0  0
  -24.3791  -31.7218   23.3919 C   0  0  1  0  0  0  0  0  0  0  0  0
  -22.3695  -29.3022   21.2612 C   0  0  1  0  0  0  0  0  0  0  0  0
  -27.3853  -14.8739   19.0315 C   0  0  2  0  0  0  0  0  0  0  0  0
  -26.0641  -23.0341   19.8005 C   0  0  0  0  0  0  0  0  0  1  0  0
  -27.9154  -19.3692   17.9180 C   0  0  0  0  0  0  0  0  0  0  0  0
  -15.6022  -25.5330   21.2842 C   0  0  0  0  0  0  0  0  0  0  0  0
  -20.1025  -28.4226   25.1916 C   0  0  0  0  0  0  0  0  0  0  0  0
  -18.0692  -26.9797   24.9642 C   0  0  0  0  0  0  0  0  0  0  0  0
  -18.0073  -29.3501   24.1896 C   0  0  0  0  0  0  0  0  0  0  0  0
  -18.1572  -25.5969   18.4657 C   0  0  0  0  0  0  0  0  0  0  0  0
  -31.9050  -18.1690   20.6589 C   0  0  0  0  0  0  0  0  0  0  0  0
  -31.5483  -17.0624   21.6586 C   0  0  0  0  0  0  0  0  0  0  0  0
  -19.3161  -27.6450   22.8586 C   0  0  1  0  0  0  0  0  0  0  0  0
  -16.7971  -26.0643   20.5079 C   0  0  2  0  0  0  0  0  0  0  0  0
  -18.8980  -28.0924   24.2877 C   0  0  0  0  0  0  0  0  0  0  0  0
  -25.3376  -14.7226   20.3976 N   0  0  0  0  0  0  0  0  0  0  0  0
  -25.9327  -15.2207   19.3004 N   0  0  0  0  0  0  0  0  0  0  0  0
  -27.6138  -21.7123   19.5652 N   0  0  0  0  0  0  0  0  0  0  0  0
  -21.4413  -28.2884   21.7662 N   0  0  0  0  0  0  0  0  0  0  0  0
  -29.5850  -14.3558   20.0222 N   0  0  0  0  0  0  0  0  0  0  0  0
  -25.5557  -16.5873   17.4028 N   0  0  0  0  0  0  0  0  0  0  0  0
  -21.5721  -16.6363   19.5300 N   0  0  0  0  0  0  0  0  0  0  0  0
  -23.5767  -31.0819   22.3715 N   0  0  0  0  0  0  0  0  0  0  0  0
  -18.1950  -27.3519   21.9723 N   0  0  0  0  0  0  0  0  0  0  0  0
  -30.4795  -16.2163   21.1763 N   0  0  0  0  0  0  0  0  0  0  0  0
  -17.0249  -25.1782   19.3315 N   0  3  0  0  0  0  0  0  0  0  0  0
  -22.7108  -17.3996   17.6916 O   0  0  0  0  0  0  0  0  0  0  0  0
  -23.4850  -28.9540   23.3129 O   0  0  0  0  0  0  0  0  0  0  0  0
  -19.6778  -29.8032   21.9435 O   0  0  0  0  0  0  0  0  0  0  0  0
  -18.7976  -25.1596   21.5164 O   0  0  0  0  0  0  0  0  0  0  0  0
  -31.8720  -14.7238   20.1322 O   0  0  0  0  0  0  0  0  0  0  0  0
  -20.3428  -13.9990   24.2807 O   0  0  0  0  0  0  0  0  0  0  0  0
  -25.4067  -23.6409   20.9123 O   0  0  0  0  0  0  0  0  0  1  0  0
  -17.2649  -18.1323   26.2418 F   0  0  0  0  0  0  0  0  0  0  0  0
  -20.4083  -14.6674   26.9624 F   0  0  0  0  0  0  0  0  0  0  0  0
  1  2  1  0  0  0  0
  1  5  2  0  0  0  0
  2  6  2  0  0  0  0
  3 10  2  0  0  0  0
  3 18  1  0  0  0  0
  4 11  1  0  0  0  0
  4 18  2  0  0  0  0
  5 20  1  0  0  0  0
  6 22  1  0  0  0  0
  7 12  2  0  0  0  0
  7 21  1  0  0  0  0
  8  9  2  0  0  0  0
  8 24  1  0  0  0  0
  9 26  1  0  0  0  0
 10 27  1  0  0  0  0
 11 27  2  0  0  0  0
 12 28  1  0  0  0  0
 13 14  2  0  0  0  0
 13 29  1  0  0  0  0
 14 30  1  0  0  0  0
 15 23  1  0  0  0  0
 15 28  2  0  0  0  0
 16 24  2  0  0  0  0
 16 25  1  0  0  0  0
 17 30  2  0  0  0  0
 17 31  1  0  0  0  0
 18 32  1  0  0  0  0
 19 32  1  0  0  0  0
 19 33  2  0  0  0  0
 19 34  1  0  0  0  0
 20 22  2  0  0  0  0
 20 39  1  0  0  0  0
 21 23  2  0  0  0  0
 21 40  1  0  0  0  0
 22 50  1  0  0  0  0
 23 41  1  0  0  0  0
 24 60  1  0  0  0  0
 25 26  2  0  0  0  0
 25 54  1  0  0  0  0
 26 67  1  0  0  0  0
 27 81  1  0  0  0  0
 28 82  1  0  0  0  0
 29 31  2  0  0  0  0
 29 81  1  0  0  0  0
 30 83  1  0  0  0  0
 31 84  1  0  0  0  0
 32 65  2  0  0  0  0
 33 66  1  0  0  0  0
 33 70  1  0  0  0  0
 34 71  1  0  0  0  0
 34 76  2  0  0  0  0
 35 51  1  0  0  0  0
 35 72  1  0  0  0  0
 35 77  2  0  0  0  0
 36 62  1  0  0  0  0
 36 68  1  0  0  0  0
 36 78  2  0  0  0  0
 37 63  1  0  0  0  0
 37 73  1  0  0  0  0
 37 79  2  0  0  0  0
 38 69  1  0  0  0  0
 38 74  1  0  0  0  0
 38 80  2  0  0  0  0
 39 42  1  0  0  0  0
 40 51  1  0  0  0  0
 41 68  1  0  0  0  0
 42 44  1  0  0  0  0
 43 45  1  0  0  0  0
 43 46  1  0  0  0  0
 44 50  1  0  0  0  0
 45 52  1  0  0  0  0
 46 69  1  0  0  0  0
 47 52  1  0  0  0  0
 47 69  1  0  0  0  0
 48 53  1  0  0  0  0
 48 67  1  0  0  0  0
 49 53  1  0  0  0  0
 49 67  1  0  0  0  0
 50 72  1  0  0  0  0
 51 68  1  0  0  0  0
 52 66  1  0  0  0  0
 53 82  1  0  0  0  0
 55 63  1  0  0  0  0
 56 64  1  0  0  0  0
 57 64  1  0  0  0  0
 58 64  1  0  0  0  0
 59 75  1  0  0  0  0
 60 61  1  0  0  0  0
 61 74  1  0  0  0  0
 62 64  1  0  0  0  0
 62 73  1  0  0  0  0
 63 75  1  0  0  0  0
 65 66  1  0  0  0  0
M  CHG  1  75   1
M  ISO  4  38 100  53 101  74 100  82 101
M  END
> <Batch ID>
0146

> <Smiles>
CNC(C)C(=O)NC(C(=O)N1Cc2cc([101O:1][101CH:1]3CN(c4ccc(CC[100NH:0][100C:0](=O)N5CCCC(n6nc(-c7ccc(Oc8ccc(F)cc8F)cc7)c(C(N)=O)c6N)C5)cc4C)C3)ccc2CC1C(=O)NC1CCCc2ccccc21)C(C)(C)C

> <Shape>
0.245

> <Color>
0.056

> <Negative vol penalty>
0.000

$$$$

  -OEChem-04052321313D

 94105  0     1  0  0  0  0  0999 V2000
  -18.9214  -26.3807   23.5326 C   0  0  0  0  0  0  0  0  0  0  0  0
  -20.0154  -26.2069   22.6910 C   0  0  0  0  0  0  0  0  0  0  0  0
  -25.4852   -6.5943   21.1816 C   0  0  0  0  0  0  0  0  0  0  0  0
  -25.1293   -8.8088   22.0796 C   0  0  0  0  0  0  0  0  0  0  0  0
  -18.2456  -27.6000   23.5527 C   0  0  0  0  0  0  0  0  0  0  0  0
  -20.4337  -27.2521   21.8682 C   0  0  0  0  0  0  0  0  0  0  0  0
  -25.4601  -27.8670   21.9120 C   0  0  0  0  0  0  0  0  0  0  0  0
  -24.1115   -6.3562   21.2244 C   0  0  0  0  0  0  0  0  0  0  0  0
  -23.7556   -8.5707   22.1223 C   0  0  0  0  0  0  0  0  0  0  0  0
  -26.2172  -26.9759   21.1527 C   0  0  0  0  0  0  0  0  0  0  0  0
  -21.7983   -5.5302   23.5462 C   0  0  0  0  0  0  0  0  0  0  0  0
  -21.3694   -4.3034   24.0529 C   0  0  0  0  0  0  0  0  0  0  0  0
  -29.3493  -18.6899   19.4777 C   0  0  0  0  0  0  0  0  0  0  0  0
  -26.4013  -28.6299   19.4063 C   0  0  0  0  0  0  0  0  0  0  0  0
  -27.9038  -20.4884   21.0457 C   0  0  0  0  0  0  0  0  0  0  0  0
  -20.3020   -3.8053   21.9434 C   0  0  0  0  0  0  0  0  0  0  0  0
  -25.9941   -7.8206   21.6093 C   0  0  0  0  0  0  0  0  0  0  0  0
  -28.4217   -7.3468   22.2336 C   0  0  0  0  0  0  0  0  0  0  0  0
  -18.6617  -28.6639   22.7368 C   0  0  0  0  0  0  0  0  0  0  0  0
  -25.1582  -29.1445   21.4186 C   0  0  0  0  0  0  0  0  0  0  0  0
  -19.7620  -28.4864   21.8764 C   0  0  0  0  0  0  0  0  0  0  0  0
  -28.8521  -18.2905   20.7182 C   0  0  0  0  0  0  0  0  0  0  0  0
  -25.6423  -29.5362   20.1623 C   0  0  0  0  0  0  0  0  0  0  0  0
  -28.4010  -20.8878   19.8051 C   0  0  0  0  0  0  0  0  0  0  0  0
  -29.1238  -19.9886   19.0211 C   0  0  0  0  0  0  0  0  0  0  0  0
  -23.2467   -7.3444   21.6947 C   0  0  0  0  0  0  0  0  0  0  0  0
  -26.6855  -27.3562   19.8984 C   0  0  0  0  0  0  0  0  0  0  0  0
  -21.4789   -5.8946   22.2381 C   0  0  0  0  0  0  0  0  0  0  0  0
  -28.1294  -19.1897   21.5022 C   0  0  0  0  0  0  0  0  0  0  0  0
  -20.6213   -3.4410   23.2515 C   0  0  0  0  0  0  0  0  0  0  0  0
  -20.7308   -5.0321   21.4368 C   0  0  0  0  0  0  0  0  0  0  0  0
  -27.4131   -8.0670   21.5659 C   0  0  0  0  0  0  0  0  0  0  0  0
  -29.5890   -7.9717   21.8682 C   0  0  0  0  0  0  0  0  0  0  0  0
  -28.3133   -6.2142   23.1060 C   0  0  0  0  0  0  0  0  0  0  0  0
  -22.4790  -30.6935   20.6934 C   0  0  0  0  0  0  0  0  0  0  0  0
  -24.5039  -33.1867   20.2396 C   0  0  0  0  0  0  0  0  0  0  0  0
  -27.6679  -34.2598   19.5436 C   0  0  0  0  0  0  0  0  0  0  0  0
  -30.9817  -13.3935   20.1046 C   0  0  0  0  0  0  0  0  0  0  0  0
  -17.8706  -29.9478   22.7585 C   0  0  0  0  0  0  0  0  0  0  0  0
  -24.3629  -30.1035   22.2614 C   0  0  0  0  0  0  0  0  0  0  0  0
  -25.3630  -30.9035   19.5959 C   0  0  0  0  0  0  0  0  0  0  0  0
  -18.6075  -31.1279   22.1302 C   0  0  0  0  0  0  0  0  0  0  0  0
  -31.5434  -10.4920   18.3118 C   0  0  0  0  0  0  0  0  0  0  0  0
  -29.2920  -23.2562   19.7182 C   0  0  0  0  0  0  0  0  0  0  0  0
  -26.7911  -22.8414   19.8293 C   0  0  0  0  0  0  0  0  0  0  0  0
  -19.2277  -30.7215   20.7972 C   0  0  0  0  0  0  0  0  0  0  0  0
  -29.1856  -17.6548   25.2873 C   0  0  0  0  0  0  0  0  0  0  0  0
  -29.0547  -18.8548   26.1833 C   0  0  0  0  0  0  0  0  0  0  0  0
  -30.6511   -9.4603   19.0015 C   0  0  0  0  0  0  0  0  0  0  0  0
  -29.0280  -24.6778   19.2286 C   0  0  0  0  0  0  0  0  0  0  0  0
  -26.5402  -24.2649   19.3385 C   0  0  0  0  0  0  0  0  0  0  0  0
  -28.4584  -15.8271   20.2730 C   0  0  0  0  0  0  0  0  0  0  0  0
  -30.6071  -16.5849   21.3768 C   0  0  0  0  0  0  0  0  0  0  0  0
  -30.8307  -11.8337   18.1876 C   0  0  0  0  0  0  0  0  0  0  0  0
  -28.7456  -14.3988   20.7448 C   0  0  0  0  0  0  0  0  0  0  0  0
  -30.8295  -15.1491   21.8434 C   0  0  0  0  0  0  0  0  0  0  0  0
  -29.4607  -11.3664   20.1932 C   0  0  0  0  0  0  0  0  0  0  0  0
  -29.1056  -16.8737   21.1977 C   0  0  0  0  0  0  0  0  0  0  0  0
  -28.1450  -22.3063   19.3299 C   0  0  0  0  0  0  0  0  0  0  0  0
  -20.2611  -29.6046   20.9873 C   0  0  1  0  0  0  0  0  0  0  0  0
  -23.6811  -31.1951   21.4422 C   0  0  1  0  0  0  0  0  0  0  0  0
  -28.0734  -18.6417   25.0642 C   0  0  0  0  0  0  0  0  0  0  0  0
  -30.1361   -9.9891   20.3519 C   0  0  1  0  0  0  0  0  0  0  0  0
  -27.6814  -25.2038   19.7223 C   0  0  0  0  0  0  0  0  0  1  0  0
  -29.6680  -20.3937   17.6906 C   0  0  0  0  0  0  0  0  0  0  0  0
  -29.0070  -36.3543   19.2013 C   0  0  0  0  0  0  0  0  0  0  0  0
  -23.2840  -33.5098   17.4616 C   0  0  0  0  0  0  0  0  0  0  0  0
  -25.2480  -34.9330   16.8409 C   0  0  0  0  0  0  0  0  0  0  0  0
  -23.7129  -35.6576   18.6688 C   0  0  0  0  0  0  0  0  0  0  0  0
  -29.4397  -33.6394   21.8316 C   0  0  0  0  0  0  0  0  0  0  0  0
  -28.0904  -19.5493   23.8527 C   0  0  0  0  0  0  0  0  0  0  0  0
  -25.2923  -33.7245   19.0699 C   0  0  1  0  0  0  0  0  0  0  0  0
  -28.5438  -35.3090   20.2041 C   0  0  2  0  0  0  0  0  0  0  0  0
  -24.3881  -34.4297   18.0199 C   0  0  0  0  0  0  0  0  0  0  0  0
  -27.8972   -9.0726   20.8321 N   0  0  0  0  0  0  0  0  0  0  0  0
  -29.2228   -8.9888   21.0366 N   0  0  0  0  0  0  0  0  0  0  0  0
  -24.5758  -31.8032   20.4553 N   0  0  0  0  0  0  0  0  0  0  0  0
  -30.3540  -12.2999   19.4896 N   0  0  0  0  0  0  0  0  0  0  0  0
  -30.1881  -14.1961   20.9380 N   0  0  0  0  0  0  0  0  0  0  0  0
  -30.8826   -7.7450   22.1805 N   0  0  0  0  0  0  0  0  0  0  0  0
  -28.1612   -6.4417   24.4805 N   0  0  0  0  0  0  0  0  0  0  0  0
  -21.5011  -30.1455   21.5014 N   0  0  0  0  0  0  0  0  0  0  0  0
  -26.3299  -34.5799   19.6357 N   0  0  0  0  0  0  0  0  0  0  0  0
  -29.7477  -34.6723   20.8093 N   0  3  0  0  0  0  0  0  0  0  0  0
  -28.3666   -5.0351   22.6811 O   0  0  0  0  0  0  0  0  0  0  0  0
  -22.4407  -30.7974   19.4729 O   0  0  0  0  0  0  0  0  0  0  0  0
  -23.8541  -33.9665   20.9406 O   0  0  0  0  0  0  0  0  0  0  0  0
  -28.1251  -33.2584   18.9971 O   0  0  0  0  0  0  0  0  0  0  0  0
  -32.1806  -13.6387   19.9211 O   0  0  0  0  0  0  0  0  0  0  0  0
  -21.9061   -7.1125   21.7363 O   0  0  0  0  0  0  0  0  0  0  0  0
  -27.4289  -26.4826   19.1501 O   0  0  0  0  0  0  0  0  0  1  0  0
  -27.6374  -18.8160   22.7165 O   0  0  0  0  0  0  0  0  0  0  0  0
  -20.2108   -2.2623   23.7377 F   0  0  0  0  0  0  0  0  0  0  0  0
  -20.4220   -5.3762   20.1790 F   0  0  0  0  0  0  0  0  0  0  0  0
  1  2  1  0  0  0  0
  1  5  2  0  0  0  0
  2  6  2  0  0  0  0
  3  8  2  0  0  0  0
  3 17  1  0  0  0  0
  4  9  1  0  0  0  0
  4 17  2  0  0  0  0
  5 19  1  0  0  0  0
  6 21  1  0  0  0  0
  7 10  2  0  0  0  0
  7 20  1  0  0  0  0
  8 26  1  0  0  0  0
  9 26  2  0  0  0  0
 10 27  1  0  0  0  0
 11 12  2  0  0  0  0
 11 28  1  0  0  0  0
 12 30  1  0  0  0  0
 13 22  2  0  0  0  0
 13 25  1  0  0  0  0
 14 23  1  0  0  0  0
 14 27  2  0  0  0  0
 15 24  1  0  0  0  0
 15 29  2  0  0  0  0
 16 30  2  0  0  0  0
 16 31  1  0  0  0  0
 17 32  1  0  0  0  0
 18 32  1  0  0  0  0
 18 33  2  0  0  0  0
 18 34  1  0  0  0  0
 19 21  2  0  0  0  0
 19 39  1  0  0  0  0
 20 23  2  0  0  0  0
 20 40  1  0  0  0  0
 21 60  1  0  0  0  0
 22 29  1  0  0  0  0
 22 58  1  0  0  0  0
 23 41  1  0  0  0  0
 24 25  2  0  0  0  0
 24 59  1  0  0  0  0
 25 65  1  0  0  0  0
 26 90  1  0  0  0  0
 27 91  1  0  0  0  0
 28 31  2  0  0  0  0
 28 90  1  0  0  0  0
 29 92  1  0  0  0  0
 30 93  1  0  0  0  0
 31 94  1  0  0  0  0
 32 75  2  0  0  0  0
 33 76  1  0  0  0  0
 33 80  1  0  0  0  0
 34 81  1  0  0  0  0
 34 85  2  0  0  0  0
 35 61  1  0  0  0  0
 35 82  1  0  0  0  0
 35 86  2  0  0  0  0
 36 72  1  0  0  0  0
 36 77  1  0  0  0  0
 36 87  2  0  0  0  0
 37 73  1  0  0  0  0
 37 83  1  0  0  0  0
 37 88  2  0  0  0  0
 38 78  1  0  0  0  0
 38 79  1  0  0  0  0
 38 89  2  0  0  0  0
 39 42  1  0  0  0  0
 40 61  1  0  0  0  0
 41 77  1  0  0  0  0
 42 46  1  0  0  0  0
 43 49  1  0  0  0  0
 43 54  1  0  0  0  0
 44 50  1  0  0  0  0
 44 59  1  0  0  0  0
 45 51  1  0  0  0  0
 45 59  1  0  0  0  0
 46 60  1  0  0  0  0
 47 48  1  0  0  0  0
 47 62  1  0  0  0  0
 48 62  1  0  0  0  0
 49 63  1  0  0  0  0
 50 64  1  0  0  0  0
 51 64  1  0  0  0  0
 52 55  1  0  0  0  0
 52 58  1  0  0  0  0
 53 56  1  0  0  0  0
 53 58  1  0  0  0  0
 54 78  1  0  0  0  0
 55 79  1  0  0  0  0
 56 79  1  0  0  0  0
 57 63  1  0  0  0  0
 57 78  1  0  0  0  0
 60 82  1  0  0  0  0
 61 77  1  0  0  0  0
 62 71  1  0  0  0  0
 63 76  1  0  0  0  0
 64 91  1  0  0  0  0
 66 73  1  0  0  0  0
 67 74  1  0  0  0  0
 68 74  1  0  0  0  0
 69 74  1  0  0  0  0
 70 84  1  0  0  0  0
 71 92  1  0  0  0  0
 72 74  1  0  0  0  0
 72 83  1  0  0  0  0
 73 84  1  0  0  0  0
 75 76  1  0  0  0  0
M  CHG  1  84   1
M  ISO  4  38 100  64 101  79 100  91 101
M  END
> <Batch ID>
0146

> <Smiles>
CNC(C)C(=O)NC(C(=O)N1Cc2cc([101O:1][101CH:1]3CCC(c4cc(OCC5CC5)c(C5CC[100N:0]([100C:0](=O)N6CCCC(n7nc(-c8ccc(Oc9ccc(F)cc9F)cc8)c(C(N)=O)c7N)C6)CC5)cc4C)CC3)ccc2CC1C(=O)NC1CCCc2ccccc21)C(C)(C)C

> <Shape>
0.255

> <Color>
0.085

> <Negative vol penalty>
0.000

$$$$

  -OEChem-04052321313D

 88 97  0     1  0  0  0  0  0999 V2000
  -28.3663  -33.6196   25.9671 C   0  0  0  0  0  0  0  0  0  0  0  0
  -28.3977  -32.3574   25.3828 C   0  0  0  0  0  0  0  0  0  0  0  0
  -25.3092   -9.9092   23.0205 C   0  0  0  0  0  0  0  0  0  0  0  0
  -24.0600   -9.0698   21.1305 C   0  0  0  0  0  0  0  0  0  0  0  0
  -27.1429  -34.2330   26.2334 C   0  0  0  0  0  0  0  0  0  0  0  0
  -27.2056  -31.7075   25.0654 C   0  0  0  0  0  0  0  0  0  0  0  0
  -27.3088  -29.5976   20.4629 C   0  0  0  0  0  0  0  0  0  0  0  0
  -24.4161   -9.2820   23.8893 C   0  0  0  0  0  0  0  0  0  0  0  0
  -23.1670   -8.4426   21.9992 C   0  0  0  0  0  0  0  0  0  0  0  0
  -27.9937  -28.3904   20.3311 C   0  0  0  0  0  0  0  0  0  0  0  0
  -23.0775   -5.6334   23.8757 C   0  0  0  0  0  0  0  0  0  0  0  0
  -22.7090   -4.3196   23.5864 C   0  0  0  0  0  0  0  0  0  0  0  0
  -25.8986  -27.1984   20.4251 C   0  0  0  0  0  0  0  0  0  0  0  0
  -30.5225  -22.5388   20.8092 C   0  0  0  0  0  0  0  0  0  0  0  0
  -30.3718  -24.2926   18.6449 C   0  0  0  0  0  0  0  0  0  0  0  0
  -20.3975   -5.0036   23.4248 C   0  0  0  0  0  0  0  0  0  0  0  0
  -25.1311   -9.8031   21.6411 C   0  0  0  0  0  0  0  0  0  0  0  0
  -27.2347   -9.9106   20.2020 C   0  0  0  0  0  0  0  0  0  0  0  0
  -25.9353  -33.5943   25.9103 C   0  0  0  0  0  0  0  0  0  0  0  0
  -25.9122  -29.6136   20.5880 C   0  0  0  0  0  0  0  0  0  0  0  0
  -25.9648  -32.3123   25.3289 C   0  0  0  0  0  0  0  0  0  0  0  0
  -25.1981  -28.4073   20.5558 C   0  0  0  0  0  0  0  0  0  0  0  0
  -30.9661  -22.1330   19.5506 C   0  0  0  0  0  0  0  0  0  0  0  0
  -29.9281  -24.6983   19.9036 C   0  0  0  0  0  0  0  0  0  0  0  0
  -23.3451   -8.5487   23.3787 C   0  0  0  0  0  0  0  0  0  0  0  0
  -27.2889  -27.1904   20.3151 C   0  0  0  0  0  0  0  0  0  0  0  0
  -22.1060   -6.6323   23.9396 C   0  0  0  0  0  0  0  0  0  0  0  0
  -30.8907  -23.0099   18.4685 C   0  0  0  0  0  0  0  0  0  0  0  0
  -30.0035  -23.8215   20.9857 C   0  0  0  0  0  0  0  0  0  0  0  0
  -21.3690   -4.0047   23.3610 C   0  0  0  0  0  0  0  0  0  0  0  0
  -20.7660   -6.3174   23.7141 C   0  0  0  0  0  0  0  0  0  0  0  0
  -26.0529  -10.4512   20.7432 C   0  0  0  0  0  0  0  0  0  0  0  0
  -27.7445  -10.9161   19.4174 C   0  0  0  0  0  0  0  0  0  0  0  0
  -27.8193   -8.6152   20.3915 C   0  0  0  0  0  0  0  0  0  0  0  0
  -23.8714  -30.5790   22.8256 C   0  0  0  0  0  0  0  0  0  0  0  0
  -21.6579  -29.8548   20.5677 C   0  0  0  0  0  0  0  0  0  0  0  0
  -20.8441  -28.0677   17.7765 C   0  0  0  0  0  0  0  0  0  0  0  0
  -29.0862  -16.0280   18.4747 C   0  0  0  0  0  0  0  0  0  0  0  0
  -24.6368  -34.2768   26.2605 C   0  0  0  0  0  0  0  0  0  0  0  0
  -25.1861  -30.9259   20.7025 C   0  0  0  0  0  0  0  0  0  0  0  0
  -23.6965  -28.3715   20.6662 C   0  0  0  0  0  0  0  0  0  0  0  0
  -23.4243  -33.6803   25.5503 C   0  0  0  0  0  0  0  0  0  0  0  0
  -25.7022  -15.2794   17.8985 C   0  0  0  0  0  0  0  0  0  0  0  0
  -23.4497  -32.1577   25.6385 C   0  0  0  0  0  0  0  0  0  0  0  0
  -25.5815  -13.9016   18.5491 C   0  0  0  0  0  0  0  0  0  0  0  0
  -26.5718  -16.2292   18.7242 C   0  0  0  0  0  0  0  0  0  0  0  0
  -28.4920  -18.4673   18.8226 C   0  0  0  0  0  0  0  0  0  0  0  0
  -30.2897  -17.8195   17.2617 C   0  0  0  0  0  0  0  0  0  0  0  0
  -27.7895  -14.3097   19.6999 C   0  0  0  0  0  0  0  0  0  0  0  0
  -29.4687  -19.3460   19.5977 C   0  0  0  0  0  0  0  0  0  0  0  0
  -31.2961  -18.6652   18.0248 C   0  0  0  0  0  0  0  0  0  0  0  0
  -24.6934  -31.5857   24.9474 C   0  0  1  0  0  0  0  0  0  0  0  0
  -23.8064  -30.7917   21.3396 C   0  0  1  0  0  0  0  0  0  0  0  0
  -26.9695  -13.3157   18.8631 C   0  0  1  0  0  0  0  0  0  0  0  0
  -18.9495  -27.6578   16.1828 C   0  0  0  0  0  0  0  0  0  0  0  0
  -20.2842  -28.1039   22.6551 C   0  0  0  0  0  0  0  0  0  0  0  0
  -19.0089  -27.0115   20.7981 C   0  0  0  0  0  0  0  0  0  0  0  0
  -18.7272  -29.4511   21.2356 C   0  0  0  0  0  0  0  0  0  0  0  0
  -22.4083  -29.0763   15.4754 C   0  0  0  0  0  0  0  0  0  0  0  0
  -31.2054  -23.5886   16.1833 C   0  0  0  0  0  0  0  0  0  0  0  0
  -29.6876  -23.2422   23.2706 C   0  0  0  0  0  0  0  0  0  0  0  0
  -31.5199  -20.7493   19.3788 C   0  0  0  0  0  0  0  0  0  0  0  0
  -29.3752  -26.0745   20.0740 C   0  0  0  0  0  0  0  0  0  1  0  0
  -20.8757  -28.6185   20.1952 C   0  0  1  0  0  0  0  0  0  0  0  0
  -20.1947  -28.4827   16.4686 C   0  0  2  0  0  0  0  0  0  0  0  0
  -19.7525  -28.2964   21.2208 C   0  0  0  0  0  0  0  0  0  0  0  0
  -25.8254  -11.7031   20.3369 N   0  0  0  0  0  0  0  0  0  0  0  0
  -26.8713  -11.9575   19.5322 N   0  0  0  0  0  0  0  0  0  0  0  0
  -23.0324  -29.6803   20.7827 N   0  0  0  0  0  0  0  0  0  0  0  0
  -27.8688  -15.6115   19.0337 N   0  0  0  0  0  0  0  0  0  0  0  0
  -29.1980  -17.3830   18.1294 N   0  0  0  0  0  0  0  0  0  0  0  0
  -28.8501  -11.0022   18.6476 N   0  0  0  0  0  0  0  0  0  0  0  0
  -27.1646   -7.7029   21.2302 N   0  0  0  0  0  0  0  0  0  0  0  0
  -24.5197  -31.5890   23.5106 N   0  0  0  0  0  0  0  0  0  0  0  0
  -20.3980  -28.8327   18.8334 N   0  0  0  0  0  0  0  0  0  0  0  0
  -30.5703  -19.8175   18.6792 N   0  3  0  0  0  0  0  0  0  0  0  0
  -21.1477  -28.3025   15.3370 N   0  3  0  0  0  0  0  0  0  0  0  0
  -28.8990   -8.2825   19.8465 O   0  0  0  0  0  0  0  0  0  0  0  0
  -23.3693  -29.5738   23.3147 O   0  0  0  0  0  0  0  0  0  0  0  0
  -21.0723  -30.9367   20.6574 O   0  0  0  0  0  0  0  0  0  0  0  0
  -21.6623  -27.1538   17.8534 O   0  0  0  0  0  0  0  0  0  0  0  0
  -30.0194  -15.2352   18.2951 O   0  0  0  0  0  0  0  0  0  0  0  0
  -22.4736   -7.9363   24.2261 O   0  0  0  0  0  0  0  0  0  0  0  0
  -31.3192  -22.6292   17.2323 O   0  0  0  0  0  0  0  0  0  0  0  0
  -29.5737  -24.2016   22.2216 O   0  0  0  0  0  0  0  0  0  0  0  0
  -27.9596  -26.0023   20.1863 O   0  0  0  0  0  0  0  0  0  1  0  0
  -21.0154   -2.7433   23.0817 F   0  0  0  0  0  0  0  0  0  0  0  0
  -19.8284   -7.2730   23.7729 F   0  0  0  0  0  0  0  0  0  0  0  0
  1  2  1  0  0  0  0
  1  5  2  0  0  0  0
  2  6  2  0  0  0  0
  3  8  2  0  0  0  0
  3 17  1  0  0  0  0
  4  9  1  0  0  0  0
  4 17  2  0  0  0  0
  5 19  1  0  0  0  0
  6 21  1  0  0  0  0
  7 10  2  0  0  0  0
  7 20  1  0  0  0  0
  8 25  1  0  0  0  0
  9 25  2  0  0  0  0
 10 26  1  0  0  0  0
 11 12  2  0  0  0  0
 11 27  1  0  0  0  0
 12 30  1  0  0  0  0
 13 22  1  0  0  0  0
 13 26  2  0  0  0  0
 14 23  2  0  0  0  0
 14 29  1  0  0  0  0
 15 24  1  0  0  0  0
 15 28  2  0  0  0  0
 16 30  2  0  0  0  0
 16 31  1  0  0  0  0
 17 32  1  0  0  0  0
 18 32  1  0  0  0  0
 18 33  2  0  0  0  0
 18 34  1  0  0  0  0
 19 21  2  0  0  0  0
 19 39  1  0  0  0  0
 20 22  2  0  0  0  0
 20 40  1  0  0  0  0
 21 52  1  0  0  0  0
 22 41  1  0  0  0  0
 23 28  1  0  0  0  0
 23 62  1  0  0  0  0
 24 29  2  0  0  0  0
 24 63  1  0  0  0  0
 25 83  1  0  0  0  0
 26 86  1  0  0  0  0
 27 31  2  0  0  0  0
 27 83  1  0  0  0  0
 28 84  1  0  0  0  0
 29 85  1  0  0  0  0
 30 87  1  0  0  0  0
 31 88  1  0  0  0  0
 32 67  2  0  0  0  0
 33 68  1  0  0  0  0
 33 72  1  0  0  0  0
 34 73  1  0  0  0  0
 34 78  2  0  0  0  0
 35 53  1  0  0  0  0
 35 74  1  0  0  0  0
 35 79  2  0  0  0  0
 36 64  1  0  0  0  0
 36 69  1  0  0  0  0
 36 80  2  0  0  0  0
 37 65  1  0  0  0  0
 37 75  1  0  0  0  0
 37 81  2  0  0  0  0
 38 70  1  0  0  0  0
 38 71  1  0  0  0  0
 38 82  2  0  0  0  0
 39 42  1  0  0  0  0
 40 53  1  0  0  0  0
 41 69  1  0  0  0  0
 42 44  1  0  0  0  0
 43 45  1  0  0  0  0
 43 46  1  0  0  0  0
 44 52  1  0  0  0  0
 45 54  1  0  0  0  0
 46 70  1  0  0  0  0
 47 50  1  0  0  0  0
 47 71  1  0  0  0  0
 48 51  1  0  0  0  0
 48 71  1  0  0  0  0
 49 54  1  0  0  0  0
 49 70  1  0  0  0  0
 50 76  1  0  0  0  0
 51 76  1  0  0  0  0
 52 74  1  0  0  0  0
 53 69  1  0  0  0  0
 54 68  1  0  0  0  0
 55 65  1  0  0  0  0
 56 66  1  0  0  0  0
 57 66  1  0  0  0  0
 58 66  1  0  0  0  0
 59 77  1  0  0  0  0
 60 84  1  0  0  0  0
 61 85  1  0  0  0  0
 62 76  1  0  0  0  0
 63 86  1  0  0  0  0
 64 66  1  0  0  0  0
 64 75  1  0  0  0  0
 65 77  1  0  0  0  0
 67 68  1  0  0  0  0
M  CHG  2  76   1  77   1
M  ISO  4  38 100  63 101  71 100  86 101
M  END
> <Batch ID>
0146

> <Smiles>
CNC(C)C(=O)NC(C(=O)N1Cc2cc([101O:1][101CH2:1]c3cc(OC)c(CN4CC[100N:0]([100C:0](=O)N5CCCC(n6nc(-c7ccc(Oc8ccc(F)cc8F)cc7)c(C(N)=O)c6N)C5)CC4)cc3OC)ccc2CC1C(=O)NC1CCCc2ccccc21)C(C)(C)C

> <Shape>
0.306

> <Color>
0.081

> <Negative vol penalty>
0.000

$$$$

  -OEChem-04052321313D

 89 98  0     1  0  0  0  0  0999 V2000
  -21.5725  -10.7156   21.1186 C   0  0  0  0  0  0  0  0  0  0  0  0
  -21.9345  -11.8419   21.8507 C   0  0  0  0  0  0  0  0  0  0  0  0
  -29.2364  -28.5511   21.4931 C   0  0  0  0  0  0  0  0  0  0  0  0
  -27.7776  -27.2140   22.8792 C   0  0  0  0  0  0  0  0  0  0  0  0
  -22.5209  -10.0617   20.3332 C   0  0  0  0  0  0  0  0  0  0  0  0
  -23.2455  -12.3142   21.7987 C   0  0  0  0  0  0  0  0  0  0  0  0
  -23.4782  -17.3443   21.2609 C   0  0  0  0  0  0  0  0  0  0  0  0
  -30.2683  -28.3823   22.4162 C   0  0  0  0  0  0  0  0  0  0  0  0
  -28.8096  -27.0451   23.8023 C   0  0  0  0  0  0  0  0  0  0  0  0
  -23.2525  -18.1174   22.3989 C   0  0  0  0  0  0  0  0  0  0  0  0
  -31.1677  -25.9616   26.3485 C   0  0  0  0  0  0  0  0  0  0  0  0
  -31.3793  -24.6808   26.8587 C   0  0  0  0  0  0  0  0  0  0  0  0
  -25.6323  -18.4069   22.6669 C   0  0  0  0  0  0  0  0  0  0  0  0
  -22.6012  -21.8858   25.8676 C   0  0  0  0  0  0  0  0  0  0  0  0
  -31.7983  -23.8603   24.6252 C   0  0  0  0  0  0  0  0  0  0  0  0
  -27.9910  -27.9670   21.7246 C   0  0  0  0  0  0  0  0  0  0  0  0
  -26.6281  -27.3199   19.6675 C   0  0  0  0  0  0  0  0  0  0  0  0
  -23.8418  -10.5319   20.2639 C   0  0  0  0  0  0  0  0  0  0  0  0
  -24.7853  -17.0871   20.8229 C   0  0  0  0  0  0  0  0  0  0  0  0
  -24.2127  -11.6652   21.0126 C   0  0  0  0  0  0  0  0  0  0  0  0
  -25.8719  -17.6323   21.5216 C   0  0  0  0  0  0  0  0  0  0  0  0
  -23.9776  -21.9336   25.6770 C   0  0  0  0  0  0  0  0  0  0  0  0
  -21.8149  -22.9693   25.4917 C   0  0  0  0  0  0  0  0  0  0  0  0
  -30.0549  -27.6293   23.5708 C   0  0  0  0  0  0  0  0  0  0  0  0
  -24.3297  -18.6464   23.1038 C   0  0  0  0  0  0  0  0  0  0  0  0
  -31.2713  -26.1918   24.9767 C   0  0  0  0  0  0  0  0  0  0  0  0
  -31.6946  -23.6301   25.9971 C   0  0  0  0  0  0  0  0  0  0  0  0
  -31.5866  -25.1412   24.1150 C   0  0  0  0  0  0  0  0  0  0  0  0
  -26.9245  -28.1415   20.7716 C   0  0  0  0  0  0  0  0  0  0  0  0
  -24.5147  -23.0785   25.1109 C   0  0  0  0  0  0  0  0  0  0  0  0
  -22.4488  -24.0679   24.9341 C   0  0  0  0  0  0  0  0  0  0  0  0
  -25.5328  -27.9095   19.0850 C   0  0  0  0  0  0  0  0  0  0  0  0
  -27.2841  -26.1302   19.2095 C   0  0  0  0  0  0  0  0  0  0  0  0
  -26.5484  -14.4703   20.4390 C   0  0  0  0  0  0  0  0  0  0  0  0
  -28.6633  -16.5576   19.1381 C   0  0  0  0  0  0  0  0  0  0  0  0
  -29.7996  -19.7677   18.9118 C   0  0  0  0  0  0  0  0  0  0  0  0
  -22.2427  -29.1889   22.7323 C   0  0  0  0  0  0  0  0  0  0  0  0
  -24.8434   -9.7640   19.4383 C   0  0  0  0  0  0  0  0  0  0  0  0
  -25.0111  -16.2735   19.5781 C   0  0  0  0  0  0  0  0  0  0  0  0
  -27.2937  -17.4026   21.0812 C   0  0  0  0  0  0  0  0  0  0  0  0
  -26.1193  -10.5485   19.1437 C   0  0  0  0  0  0  0  0  0  0  0  0
  -24.4580  -31.7081   21.5023 C   0  0  0  0  0  0  0  0  0  0  0  0
  -19.0459  -27.6206   22.0466 C   0  0  0  0  0  0  0  0  0  0  0  0
  -26.6387  -11.2186   20.4118 C   0  0  0  0  0  0  0  0  0  0  0  0
  -24.5675  -31.4355   20.0062 C   0  0  0  0  0  0  0  0  0  0  0  0
  -19.6809  -26.5137   22.8764 C   0  0  0  0  0  0  0  0  0  0  0  0
  -23.0542  -31.4028   22.0013 C   0  0  0  0  0  0  0  0  0  0  0  0
  -20.2531  -28.2987   21.4177 C   0  0  0  0  0  0  0  0  0  0  0  0
  -22.7740  -29.6300   20.2794 C   0  0  0  0  0  0  0  0  0  0  0  0
  -25.6188  -12.2225   20.9627 C   0  0  1  0  0  0  0  0  0  0  0  0
  -26.4010  -15.6477   19.5172 C   0  0  1  0  0  0  0  0  0  0  0  0
  -24.1255  -30.0115   19.6327 C   0  0  2  0  0  0  0  0  0  0  0  0
  -20.9508  -27.1701   23.4249 C   0  0  1  0  0  0  0  0  0  0  0  0
  -20.3392  -22.9148   25.6976 C   0  0  0  0  0  0  0  0  0  0  0  0
  -26.6237  -24.3331   25.6866 C   0  0  0  0  0  0  0  0  0  0  0  0
  -26.3401  -23.3309   23.3910 C   0  0  0  0  0  0  0  0  0  0  0  0
  -31.5664  -21.1580   17.7970 C   0  0  0  0  0  0  0  0  0  0  0  0
  -30.7460  -15.4654   21.0822 C   0  0  0  0  0  0  0  0  0  0  0  0
  -32.1519  -17.4798   20.5989 C   0  0  0  0  0  0  0  0  0  0  0  0
  -31.5962  -15.8803   18.7671 C   0  0  0  0  0  0  0  0  0  0  0  0
  -27.7812  -21.4271   17.5220 C   0  0  0  0  0  0  0  0  0  0  0  0
  -24.8254  -20.7759   26.0777 C   0  0  0  0  0  0  0  0  0  0  0  0
  -22.0725  -26.1593   23.6263 C   0  0  0  0  0  0  0  0  0  0  0  0
  -25.2605  -19.9118   24.8894 C   0  0  0  0  0  0  0  0  0  1  0  0
  -25.9869  -23.1851   24.8824 C   0  0  0  0  0  0  0  0  0  0  0  0
  -29.7933  -17.4056   19.6700 C   0  0  1  0  0  0  0  0  0  0  0  0
  -30.1417  -20.6329   17.7123 C   0  0  2  0  0  0  0  0  0  0  0  0
  -31.0452  -16.5607   20.0392 C   0  0  0  0  0  0  0  0  0  0  0  0
  -26.0854  -29.1744   20.8857 N   0  0  0  0  0  0  0  0  0  0  0  0
  -23.7831  -24.1508   24.7332 N   0  0  0  0  0  0  0  0  0  0  0  0
  -25.2510  -29.0059   19.8458 N   0  0  0  0  0  0  0  0  0  0  0  0
  -27.4630  -16.5952   19.8618 N   0  0  0  0  0  0  0  0  0  0  0  0
  -22.6478  -30.0328   21.6875 N   0  0  0  0  0  0  0  0  0  0  0  0
  -21.2940  -28.2056   22.4427 N   0  0  0  0  0  0  0  0  0  0  0  0
  -24.7931  -27.5920   18.0014 N   0  0  0  0  0  0  0  0  0  0  0  0
  -28.3945  -25.6618   19.9250 N   0  0  0  0  0  0  0  0  0  0  0  0
  -21.6638  -25.1584   24.5554 N   0  0  0  0  0  0  0  0  0  0  0  0
  -25.6507  -13.4486   20.1944 N   0  0  0  0  0  0  0  0  0  0  0  0
  -30.0412  -18.4329   18.6642 N   0  0  0  0  0  0  0  0  0  0  0  0
  -29.2155  -21.7978   17.6329 N   0  3  0  0  0  0  0  0  0  0  0  0
  -26.9071  -25.5102   18.1862 O   0  0  0  0  0  0  0  0  0  0  0  0
  -27.4134  -14.4869   21.3068 O   0  0  0  0  0  0  0  0  0  0  0  0
  -28.8368  -15.8922   18.1140 O   0  0  0  0  0  0  0  0  0  0  0  0
  -29.3653  -20.2300   19.9645 O   0  0  0  0  0  0  0  0  0  0  0  0
  -22.7006  -29.3144   23.8759 O   0  0  0  0  0  0  0  0  0  0  0  0
  -31.0617  -27.4641   24.4718 O   0  0  0  0  0  0  0  0  0  0  0  0
  -24.1107  -19.4062   24.2231 O   0  0  0  0  0  0  0  0  0  1  0  0
  -31.8993  -22.4006   26.4874 F   0  0  0  0  0  0  0  0  0  0  0  0
  -31.6887  -25.3564   22.7963 F   0  0  0  0  0  0  0  0  0  0  0  0
  1  2  1  0  0  0  0
  1  5  2  0  0  0  0
  2  6  2  0  0  0  0
  3  8  2  0  0  0  0
  3 16  1  0  0  0  0
  4  9  1  0  0  0  0
  4 16  2  0  0  0  0
  5 18  1  0  0  0  0
  6 20  1  0  0  0  0
  7 10  2  0  0  0  0
  7 19  1  0  0  0  0
  8 24  1  0  0  0  0
  9 24  2  0  0  0  0
 10 25  1  0  0  0  0
 11 12  2  0  0  0  0
 11 26  1  0  0  0  0
 12 27  1  0  0  0  0
 13 21  1  0  0  0  0
 13 25  2  0  0  0  0
 14 22  1  0  0  0  0
 14 23  2  0  0  0  0
 15 27  2  0  0  0  0
 15 28  1  0  0  0  0
 16 29  1  0  0  0  0
 17 29  1  0  0  0  0
 17 32  2  0  0  0  0
 17 33  1  0  0  0  0
 18 20  2  0  0  0  0
 18 38  1  0  0  0  0
 19 21  2  0  0  0  0
 19 39  1  0  0  0  0
 20 50  1  0  0  0  0
 21 40  1  0  0  0  0
 22 30  2  0  0  0  0
 22 62  1  0  0  0  0
 23 31  1  0  0  0  0
 23 54  1  0  0  0  0
 24 86  1  0  0  0  0
 25 87  1  0  0  0  0
 26 28  2  0  0  0  0
 26 86  1  0  0  0  0
 27 88  1  0  0  0  0
 28 89  1  0  0  0  0
 29 69  2  0  0  0  0
 30 65  1  0  0  0  0
 30 70  1  0  0  0  0
 31 70  2  0  0  0  0
 31 77  1  0  0  0  0
 32 71  1  0  0  0  0
 32 75  1  0  0  0  0
 33 76  1  0  0  0  0
 33 81  2  0  0  0  0
 34 51  1  0  0  0  0
 34 78  1  0  0  0  0
 34 82  2  0  0  0  0
 35 66  1  0  0  0  0
 35 72  1  0  0  0  0
 35 83  2  0  0  0  0
 36 67  1  0  0  0  0
 36 79  1  0  0  0  0
 36 84  2  0  0  0  0
 37 73  1  0  0  0  0
 37 74  1  0  0  0  0
 37 85  2  0  0  0  0
 38 41  1  0  0  0  0
 39 51  1  0  0  0  0
 40 72  1  0  0  0  0
 41 44  1  0  0  0  0
 42 45  1  0  0  0  0
 42 47  1  0  0  0  0
 43 46  1  0  0  0  0
 43 48  1  0  0  0  0
 44 50  1  0  0  0  0
 45 52  1  0  0  0  0
 46 53  1  0  0  0  0
 47 73  1  0  0  0  0
 48 74  1  0  0  0  0
 49 52  1  0  0  0  0
 49 73  1  0  0  0  0
 50 78  1  0  0  0  0
 51 72  1  0  0  0  0
 52 71  1  0  0  0  0
 53 63  1  0  0  0  0
 53 74  1  0  0  0  0
 55 65  1  0  0  0  0
 56 65  1  0  0  0  0
 57 67  1  0  0  0  0
 58 68  1  0  0  0  0
 59 68  1  0  0  0  0
 60 68  1  0  0  0  0
 61 80  1  0  0  0  0
 62 64  1  0  0  0  0
 63 77  1  0  0  0  0
 64 87  1  0  0  0  0
 66 68  1  0  0  0  0
 66 79  1  0  0  0  0
 67 80  1  0  0  0  0
 69 71  1  0  0  0  0
M  CHG  1  80   1
M  ISO  4  37 100  64 101  74 100  87 101
M  END
> <Batch ID>
0146

> <Smiles>
CNC(C)C(=O)NC(C(=O)N1Cc2cc([101O:1][101CH2:1]Cc3cc(C)c(NCC4CCC[100N:0]4[100C:0](=O)N4CCCC(n5nc(-c6ccc(Oc7ccc(F)cc7F)cc6)c(C(N)=O)c5N)C4)nc3C(C)C)ccc2CC1C(=O)NC1CCCc2ccccc21)C(C)(C)C

> <Shape>
0.226

> <Color>
0.056

> <Negative vol penalty>
0.000

$$$$

  -OEChem-04052321313D

 89 98  0     1  0  0  0  0  0999 V2000
  -30.0305  -33.8948   24.4875 C   0  0  0  0  0  0  0  0  0  0  0  0
  -30.2705  -32.5809   24.0984 C   0  0  0  0  0  0  0  0  0  0  0  0
  -23.1162   -9.7939   20.0025 C   0  0  0  0  0  0  0  0  0  0  0  0
  -23.8242   -9.9311   22.3084 C   0  0  0  0  0  0  0  0  0  0  0  0
  -28.7242  -34.3254   24.7159 C   0  0  0  0  0  0  0  0  0  0  0  0
  -29.2044  -31.6964   23.9386 C   0  0  0  0  0  0  0  0  0  0  0  0
  -28.7481  -27.1864   19.8206 C   0  0  0  0  0  0  0  0  0  0  0  0
  -22.3832   -8.6441   20.2959 C   0  0  0  0  0  0  0  0  0  0  0  0
  -23.0911   -8.7812   22.6018 C   0  0  0  0  0  0  0  0  0  0  0  0
  -28.9760  -25.8135   19.9040 C   0  0  0  0  0  0  0  0  0  0  0  0
  -19.4146   -7.8788   21.7223 C   0  0  0  0  0  0  0  0  0  0  0  0
  -18.1197   -7.7876   21.2118 C   0  0  0  0  0  0  0  0  0  0  0  0
  -26.6225  -25.4524   20.2910 C   0  0  0  0  0  0  0  0  0  0  0  0
  -28.2579  -19.7255   23.2268 C   0  0  0  0  0  0  0  0  0  0  0  0
  -25.4720  -19.7590   23.0845 C   0  0  0  0  0  0  0  0  0  0  0  0
  -18.7363   -5.7875   20.0049 C   0  0  0  0  0  0  0  0  0  0  0  0
  -23.8367  -10.4374   21.0088 C   0  0  0  0  0  0  0  0  0  0  0  0
  -24.1456  -12.9579   20.7650 C   0  0  0  0  0  0  0  0  0  0  0  0
  -27.6408  -33.4484   24.5495 C   0  0  0  0  0  0  0  0  0  0  0  0
  -27.4551  -27.7044   19.9829 C   0  0  0  0  0  0  0  0  0  0  0  0
  -27.8825  -32.1153   24.1663 C   0  0  0  0  0  0  0  0  0  0  0  0
  -26.3804  -26.8320   20.2066 C   0  0  0  0  0  0  0  0  0  0  0  0
  -27.5284  -18.5869   23.5688 C   0  0  0  0  0  0  0  0  0  0  0  0
  -26.1355  -18.6036   23.4976 C   0  0  0  0  0  0  0  0  0  0  0  0
  -26.2016  -20.8977   22.7426 C   0  0  0  0  0  0  0  0  0  0  0  0
  -22.3706   -8.1377   21.5956 C   0  0  0  0  0  0  0  0  0  0  0  0
  -27.9136  -24.9465   20.1421 C   0  0  0  0  0  0  0  0  0  0  0  0
  -20.3704   -6.9244   21.3740 C   0  0  0  0  0  0  0  0  0  0  0  0
  -27.5945  -20.8809   22.8137 C   0  0  0  0  0  0  0  0  0  0  0  0
  -17.7806   -6.7420   20.3532 C   0  0  0  0  0  0  0  0  0  0  0  0
  -20.0312   -5.8787   20.5154 C   0  0  0  0  0  0  0  0  0  0  0  0
  -24.5946  -11.6249   20.7062 C   0  0  0  0  0  0  0  0  0  0  0  0
  -25.2350  -13.7041   20.3870 C   0  0  0  0  0  0  0  0  0  0  0  0
  -22.8589  -13.4753   21.1288 C   0  0  0  0  0  0  0  0  0  0  0  0
  -26.0747  -29.6827   22.0528 C   0  0  0  0  0  0  0  0  0  0  0  0
  -23.5425  -29.3911   20.0465 C   0  0  0  0  0  0  0  0  0  0  0  0
  -21.9188  -27.5444   17.6800 C   0  0  0  0  0  0  0  0  0  0  0  0
  -30.6982  -14.8149   20.6412 C   0  0  0  0  0  0  0  0  0  0  0  0
  -26.2502  -33.9466   24.8538 C   0  0  0  0  0  0  0  0  0  0  0  0
  -27.2218  -29.1855   19.8635 C   0  0  0  0  0  0  0  0  0  0  0  0
  -24.9703  -27.3359   20.3677 C   0  0  0  0  0  0  0  0  0  0  0  0
  -25.1467  -33.0494   24.2991 C   0  0  0  0  0  0  0  0  0  0  0  0
  -29.6483  -12.2931   18.3576 C   0  0  0  0  0  0  0  0  0  0  0  0
  -25.4401  -31.5859   24.6135 C   0  0  0  0  0  0  0  0  0  0  0  0
  -28.2057  -12.0003   18.7739 C   0  0  0  0  0  0  0  0  0  0  0  0
  -28.4480  -17.1137   25.4842 C   0  0  0  0  0  0  0  0  0  0  0  0
  -30.5350  -12.5897   19.5650 C   0  0  0  0  0  0  0  0  0  0  0  0
  -28.5924  -13.3625   20.8700 C   0  0  0  0  0  0  0  0  0  0  0  0
  -28.2590  -17.3615   24.0082 C   0  0  2  0  0  0  0  0  0  0  0  0
  -26.7505  -31.1328   23.9584 C   0  0  1  0  0  0  0  0  0  0  0  0
  -25.9433  -29.6468   20.5564 C   0  0  1  0  0  0  0  0  0  0  0  0
  -29.6217  -17.5126   24.6401 C   0  0  2  0  0  0  0  0  0  0  0  0
  -27.6475  -13.1124   19.6822 C   0  0  2  0  0  0  0  0  0  0  0  0
  -25.3314  -17.3976   23.8584 C   0  0  0  0  0  0  0  0  0  0  0  0
  -25.4750  -22.1257   22.3025 C   0  0  0  0  0  0  0  0  0  0  0  0
  -19.8535  -27.5466   16.2545 C   0  0  0  0  0  0  0  0  0  0  0  0
  -31.6297  -16.3370   25.5240 C   0  0  0  0  0  0  0  0  0  0  0  0
  -21.8689  -28.6067   22.4742 C   0  0  0  0  0  0  0  0  0  0  0  0
  -20.1324  -27.7204   20.9036 C   0  0  0  0  0  0  0  0  0  0  0  0
  -20.7221  -30.1440   20.8692 C   0  0  0  0  0  0  0  0  0  0  0  0
  -23.5035  -27.5413   15.1805 C   0  0  0  0  0  0  0  0  0  0  0  0
  -31.4987  -16.9433   23.0694 C   0  0  0  0  0  0  0  0  0  0  0  0
  -30.7060  -17.0273   21.7656 C   0  0  0  0  0  0  0  0  0  0  0  0
  -29.4074  -23.1855   20.7108 C   0  0  0  0  0  0  0  0  0  1  0  0
  -29.2536  -21.8498   21.4121 C   0  0  0  0  0  0  0  0  0  0  0  0
  -22.3616  -28.4562   19.9443 C   0  0  1  0  0  0  0  0  0  0  0  0
  -21.3235  -27.9273   16.3370 C   0  0  2  0  0  0  0  0  0  0  0  0
  -30.6948  -16.5247   24.3359 C   0  0  2  0  0  0  0  0  0  0  0  0
  -21.2980  -28.7222   21.0468 C   0  0  0  0  0  0  0  0  0  0  0  0
  -25.8698  -11.5269   20.3210 N   0  0  0  0  0  0  0  0  0  0  0  0
  -26.2313  -12.8077   20.1343 N   0  0  0  0  0  0  0  0  0  0  0  0
  -24.7942  -28.7928   20.2490 N   0  0  0  0  0  0  0  0  0  0  0  0
  -29.9502  -13.6542   20.3841 N   0  0  0  0  0  0  0  0  0  0  0  0
  -25.4282  -15.0331   20.2494 N   0  0  0  0  0  0  0  0  0  0  0  0
  -21.8525  -12.5695   21.4908 N   0  0  0  0  0  0  0  0  0  0  0  0
  -26.5498  -30.8824   22.5472 N   0  0  0  0  0  0  0  0  0  0  0  0
  -21.8554  -28.5853   18.5821 N   0  0  0  0  0  0  0  0  0  0  0  0
  -30.0673  -15.7768   21.4205 N   0  0  0  0  0  0  0  0  0  0  0  0
  -22.0500  -27.2384   15.2331 N   0  3  0  0  0  0  0  0  0  0  0  0
  -22.6041  -14.7035   21.1169 O   0  0  0  0  0  0  0  0  0  0  0  0
  -25.7663  -28.6956   22.7102 O   0  0  0  0  0  0  0  0  0  0  0  0
  -23.3619  -30.6069   19.9430 O   0  0  0  0  0  0  0  0  0  0  0  0
  -22.3892  -26.4320   17.9073 O   0  0  0  0  0  0  0  0  0  0  0  0
  -31.8415  -14.9840   20.2038 O   0  0  0  0  0  0  0  0  0  0  0  0
  -21.6553   -7.0158   21.8823 O   0  0  0  0  0  0  0  0  0  0  0  0
  -28.1334  -23.6061   20.2246 O   0  0  0  0  0  0  0  0  0  1  0  0
  -28.3262  -21.9906   22.4814 O   0  0  0  0  0  0  0  0  0  0  0  0
  -16.5366   -6.6537   19.8643 F   0  0  0  0  0  0  0  0  0  0  0  0
  -20.9448   -4.9582   20.1782 F   0  0  0  0  0  0  0  0  0  0  0  0
  1  2  1  0  0  0  0
  1  5  2  0  0  0  0
  2  6  2  0  0  0  0
  3  8  2  0  0  0  0
  3 17  1  0  0  0  0
  4  9  1  0  0  0  0
  4 17  2  0  0  0  0
  5 19  1  0  0  0  0
  6 21  1  0  0  0  0
  7 10  2  0  0  0  0
  7 20  1  0  0  0  0
  8 26  1  0  0  0  0
  9 26  2  0  0  0  0
 10 27  1  0  0  0  0
 11 12  2  0  0  0  0
 11 28  1  0  0  0  0
 12 30  1  0  0  0  0
 13 22  1  0  0  0  0
 13 27  2  0  0  0  0
 14 23  2  0  0  0  0
 14 29  1  0  0  0  0
 15 24  2  0  0  0  0
 15 25  1  0  0  0  0
 16 30  2  0  0  0  0
 16 31  1  0  0  0  0
 17 32  1  0  0  0  0
 18 32  1  0  0  0  0
 18 33  2  0  0  0  0
 18 34  1  0  0  0  0
 19 21  2  0  0  0  0
 19 39  1  0  0  0  0
 20 22  2  0  0  0  0
 20 40  1  0  0  0  0
 21 50  1  0  0  0  0
 22 41  1  0  0  0  0
 23 24  1  0  0  0  0
 23 49  1  0  0  0  0
 24 54  1  0  0  0  0
 25 29  2  0  0  0  0
 25 55  1  0  0  0  0
 26 85  1  0  0  0  0
 27 86  1  0  0  0  0
 28 31  2  0  0  0  0
 28 85  1  0  0  0  0
 29 87  1  0  0  0  0
 30 88  1  0  0  0  0
 31 89  1  0  0  0  0
 32 70  2  0  0  0  0
 33 71  1  0  0  0  0
 33 74  1  0  0  0  0
 34 75  1  0  0  0  0
 34 80  2  0  0  0  0
 35 51  1  0  0  0  0
 35 76  1  0  0  0  0
 35 81  2  0  0  0  0
 36 66  1  0  0  0  0
 36 72  1  0  0  0  0
 36 82  2  0  0  0  0
 37 67  1  0  0  0  0
 37 77  1  0  0  0  0
 37 83  2  0  0  0  0
 38 73  1  0  0  0  0
 38 78  1  0  0  0  0
 38 84  2  0  0  0  0
 39 42  1  0  0  0  0
 40 51  1  0  0  0  0
 41 72  1  0  0  0  0
 42 44  1  0  0  0  0
 43 45  1  0  0  0  0
 43 47  1  0  0  0  0
 44 50  1  0  0  0  0
 45 53  1  0  0  0  0
 46 49  1  0  0  0  0
 46 52  1  0  0  0  0
 47 73  1  0  0  0  0
 48 53  1  0  0  0  0
 48 73  1  0  0  0  0
 49 52  1  0  0  0  0
 50 76  1  0  0  0  0
 51 72  1  0  0  0  0
 52 68  1  0  0  0  0
 53 71  1  0  0  0  0
 56 67  1  0  0  0  0
 57 68  1  0  0  0  0
 58 69  1  0  0  0  0
 59 69  1  0  0  0  0
 60 69  1  0  0  0  0
 61 79  1  0  0  0  0
 62 63  1  0  0  0  0
 62 68  1  0  0  0  0
 63 78  1  0  0  0  0
 64 65  1  0  0  0  0
 64 86  1  0  0  0  0
 65 87  1  0  0  0  0
 66 69  1  0  0  0  0
 66 77  1  0  0  0  0
 67 79  1  0  0  0  0
 70 71  1  0  0  0  0
M  CHG  1  79   1
M  ISO  4  38 100  64 101  78 100  86 101
M  END
> <Batch ID>
0146

> <Smiles>
CNC(C)C(=O)NC(C(=O)N1Cc2cc([101O:1][101CH2:1]COc3cc(C4CC4C(C)CC[100NH:0][100C:0](=O)N4CCCC(n5nc(-c6ccc(Oc7ccc(F)cc7F)cc6)c(C(N)=O)c5N)C4)c(C)cc3C)ccc2CC1C(=O)NC1CCCc2ccccc21)C(C)(C)C

> <Shape>
0.318

> <Color>
0.216

> <Negative vol penalty>
0.000

$$$$

  -OEChem-04052321313D

 85 94  0     1  0  0  0  0  0999 V2000
  -45.7675  -14.5280   32.3494 C   0  0  0  0  0  0  0  0  0  0  0  0
  -44.4045  -14.3106   32.1755 C   0  0  0  0  0  0  0  0  0  0  0  0
  -23.0012   -9.8939   19.9811 C   0  0  0  0  0  0  0  0  0  0  0  0
  -23.7312   -9.9435   22.2837 C   0  0  0  0  0  0  0  0  0  0  0  0
  -46.4173  -15.5075   31.5996 C   0  0  0  0  0  0  0  0  0  0  0  0
  -43.6902  -15.0734   31.2523 C   0  0  0  0  0  0  0  0  0  0  0  0
  -38.9839  -13.2184   27.8003 C   0  0  0  0  0  0  0  0  0  0  0  0
  -22.2367   -8.7582   20.2479 C   0  0  0  0  0  0  0  0  0  0  0  0
  -22.9666   -8.8078   22.5505 C   0  0  0  0  0  0  0  0  0  0  0  0
  -37.6040  -13.3557   27.9438 C   0  0  0  0  0  0  0  0  0  0  0  0
  -23.2141   -5.4696   22.0748 C   0  0  0  0  0  0  0  0  0  0  0  0
  -23.8045   -4.4525   22.8246 C   0  0  0  0  0  0  0  0  0  0  0  0
  -37.6541  -15.2961   26.5115 C   0  0  0  0  0  0  0  0  0  0  0  0
  -35.0740  -14.0817   25.1246 C   0  0  0  0  0  0  0  0  0  0  0  0
  -22.0839   -4.6915   24.5037 C   0  0  0  0  0  0  0  0  0  0  0  0
  -33.8615  -15.7607   26.2944 C   0  0  0  0  0  0  0  0  0  0  0  0
  -23.7485  -10.4866   20.9990 C   0  0  0  0  0  0  0  0  0  0  0  0
  -24.1303  -13.0028   20.8247 C   0  0  0  0  0  0  0  0  0  0  0  0
  -45.7125  -16.2762   30.6599 C   0  0  0  0  0  0  0  0  0  0  0  0
  -39.7121  -14.1270   27.0188 C   0  0  0  0  0  0  0  0  0  0  0  0
  -44.3308  -16.0651   30.4902 C   0  0  0  0  0  0  0  0  0  0  0  0
  -39.0428  -15.1667   26.3576 C   0  0  0  0  0  0  0  0  0  0  0  0
  -34.3123  -14.3613   23.9955 C   0  0  0  0  0  0  0  0  0  0  0  0
  -22.2193   -8.2152   21.5326 C   0  0  0  0  0  0  0  0  0  0  0  0
  -36.9392  -14.3963   27.3018 C   0  0  0  0  0  0  0  0  0  0  0  0
  -22.0586   -6.0979   22.5394 C   0  0  0  0  0  0  0  0  0  0  0  0
  -34.8501  -14.7900   26.3001 C   0  0  0  0  0  0  0  0  0  1  0  0
  -23.2394   -4.0634   24.0391 C   0  0  0  0  0  0  0  0  0  0  0  0
  -21.4935   -5.7088   23.7539 C   0  0  0  0  0  0  0  0  0  0  0  0
  -24.5389  -11.6594   20.7238 C   0  0  0  0  0  0  0  0  0  0  0  0
  -33.3474  -15.3509   24.0928 C   0  0  0  0  0  0  0  0  0  0  0  0
  -25.2384  -13.7272   20.4586 C   0  0  0  0  0  0  0  0  0  0  0  0
  -22.8625  -13.5472   21.2144 C   0  0  0  0  0  0  0  0  0  0  0  0
  -42.0490  -16.2052   27.5874 C   0  0  0  0  0  0  0  0  0  0  0  0
  -41.9974  -16.5517   24.3625 C   0  0  0  0  0  0  0  0  0  0  0  0
  -40.2419  -16.2868   21.4479 C   0  0  0  0  0  0  0  0  0  0  0  0
  -30.7341  -14.6684   20.6965 C   0  0  0  0  0  0  0  0  0  0  0  0
  -46.4485  -17.3558   29.9066 C   0  0  0  0  0  0  0  0  0  0  0  0
  -41.1964  -13.9494   26.8524 C   0  0  0  0  0  0  0  0  0  0  0  0
  -39.7756  -16.1566   25.4908 C   0  0  0  0  0  0  0  0  0  0  0  0
  -45.6948  -17.8650   28.6806 C   0  0  0  0  0  0  0  0  0  0  0  0
  -29.5915  -12.2457   18.3510 C   0  0  0  0  0  0  0  0  0  0  0  0
  -44.2344  -18.1376   29.0269 C   0  0  0  0  0  0  0  0  0  0  0  0
  -32.8666  -11.5680   22.7345 C   0  0  0  0  0  0  0  0  0  0  0  0
  -33.8983  -11.2735   21.6816 C   0  0  0  0  0  0  0  0  0  0  0  0
  -28.1442  -11.9837   18.7714 C   0  0  0  0  0  0  0  0  0  0  0  0
  -30.4961  -12.4810   19.5585 C   0  0  0  0  0  0  0  0  0  0  0  0
  -28.5879  -13.2728   20.9022 C   0  0  0  0  0  0  0  0  0  0  0  0
  -43.5265  -16.8553   29.4808 C   0  0  1  0  0  0  0  0  0  0  0  0
  -41.9105  -15.2355   26.4480 C   0  0  1  0  0  0  0  0  0  0  0  0
  -34.2651  -12.1000   22.8829 C   0  0  0  0  0  0  0  0  0  0  0  0
  -27.6266  -13.0851   19.7160 C   0  0  2  0  0  0  0  0  0  0  0  0
  -35.9600  -13.8227   22.1655 C   0  0  0  0  0  0  0  0  0  0  0  0
  -40.4535  -16.6788   18.9783 C   0  0  0  0  0  0  0  0  0  0  0  0
  -41.6925  -19.5537   24.8153 C   0  0  0  0  0  0  0  0  0  0  0  0
  -40.9656  -19.7692   22.4292 C   0  0  0  0  0  0  0  0  0  0  0  0
  -43.2537  -18.9313   22.9634 C   0  0  0  0  0  0  0  0  0  0  0  0
  -39.7803  -13.4280   20.8372 C   0  0  0  0  0  0  0  0  0  0  0  0
  -30.8166  -16.8463   21.8836 C   0  0  0  0  0  0  0  0  0  0  0  0
  -31.6051  -16.6812   23.1705 C   0  0  0  0  0  0  0  0  0  0  0  0
  -34.5425  -13.6085   22.7313 C   0  0  2  0  0  0  0  0  0  0  0  0
  -41.2564  -17.4423   23.3947 C   0  0  1  0  0  0  0  0  0  0  0  0
  -40.6017  -15.6712   20.1077 C   0  0  2  0  0  0  0  0  0  0  0  0
  -41.7782  -18.9068   23.4184 C   0  0  0  0  0  0  0  0  0  0  0  0
  -33.1018  -16.0605   25.2170 N   0  0  0  0  0  0  0  0  0  0  0  0
  -25.8075  -11.5349   20.3248 N   0  0  0  0  0  0  0  0  0  0  0  0
  -26.2056  -12.8094   20.1717 N   0  0  0  0  0  0  0  0  0  0  0  0
  -41.2270  -15.9446   25.3644 N   0  0  0  0  0  0  0  0  0  0  0  0
  -29.9498  -13.5381   20.4128 N   0  0  0  0  0  0  0  0  0  0  0  0
  -25.4700  -15.0533   20.3574 N   0  0  0  0  0  0  0  0  0  0  0  0
  -21.8325  -12.6615   21.5592 N   0  0  0  0  0  0  0  0  0  0  0  0
  -43.1950  -16.0298   28.3393 N   0  0  0  0  0  0  0  0  0  0  0  0
  -41.3508  -16.7955   22.0904 N   0  0  0  0  0  0  0  0  0  0  0  0
  -30.1382  -15.6256   21.5085 N   0  0  0  0  0  0  0  0  0  0  0  0
  -39.7172  -14.5072   19.8182 N   0  3  0  0  0  0  0  0  0  0  0  0
  -22.6443  -14.7823   21.2399 O   0  0  0  0  0  0  0  0  0  0  0  0
  -41.1813  -17.0511   27.7697 O   0  0  0  0  0  0  0  0  0  0  0  0
  -43.2137  -16.3945   24.2300 O   0  0  0  0  0  0  0  0  0  0  0  0
  -39.0917  -16.3170   21.8798 O   0  0  0  0  0  0  0  0  0  0  0  0
  -31.8784  -14.8162   20.2541 O   0  0  0  0  0  0  0  0  0  0  0  0
  -21.4732   -7.1071   21.7934 O   0  0  0  0  0  0  0  0  0  0  0  0
  -35.5924  -14.5330   27.4407 O   0  0  0  0  0  0  0  0  0  1  0  0
  -32.5761  -15.6556   23.0013 O   0  0  0  0  0  0  0  0  0  0  0  0
  -23.8056   -3.0855   24.7583 F   0  0  0  0  0  0  0  0  0  0  0  0
  -20.3828   -6.3078   24.2048 F   0  0  0  0  0  0  0  0  0  0  0  0
  1  2  1  0  0  0  0
  1  5  2  0  0  0  0
  2  6  2  0  0  0  0
  3  8  2  0  0  0  0
  3 17  1  0  0  0  0
  4  9  1  0  0  0  0
  4 17  2  0  0  0  0
  5 19  1  0  0  0  0
  6 21  1  0  0  0  0
  7 10  2  0  0  0  0
  7 20  1  0  0  0  0
  8 24  1  0  0  0  0
  9 24  2  0  0  0  0
 10 25  1  0  0  0  0
 11 12  2  0  0  0  0
 11 26  1  0  0  0  0
 12 28  1  0  0  0  0
 13 22  1  0  0  0  0
 13 25  2  0  0  0  0
 14 23  1  0  0  0  0
 14 27  2  0  0  0  0
 15 28  2  0  0  0  0
 15 29  1  0  0  0  0
 16 27  1  0  0  0  0
 16 65  2  0  0  0  0
 17 30  1  0  0  0  0
 18 30  1  0  0  0  0
 18 32  2  0  0  0  0
 18 33  1  0  0  0  0
 19 21  2  0  0  0  0
 19 38  1  0  0  0  0
 20 22  2  0  0  0  0
 20 39  1  0  0  0  0
 21 49  1  0  0  0  0
 22 40  1  0  0  0  0
 23 31  2  0  0  0  0
 23 61  1  0  0  0  0
 24 81  1  0  0  0  0
 25 82  1  0  0  0  0
 26 29  2  0  0  0  0
 26 81  1  0  0  0  0
 27 82  1  0  0  0  0
 28 84  1  0  0  0  0
 29 85  1  0  0  0  0
 30 66  2  0  0  0  0
 31 65  1  0  0  0  0
 31 83  1  0  0  0  0
 32 67  1  0  0  0  0
 32 70  1  0  0  0  0
 33 71  1  0  0  0  0
 33 76  2  0  0  0  0
 34 50  1  0  0  0  0
 34 72  1  0  0  0  0
 34 77  2  0  0  0  0
 35 62  1  0  0  0  0
 35 68  1  0  0  0  0
 35 78  2  0  0  0  0
 36 63  1  0  0  0  0
 36 73  1  0  0  0  0
 36 79  2  0  0  0  0
 37 69  1  0  0  0  0
 37 74  1  0  0  0  0
 37 80  2  0  0  0  0
 38 41  1  0  0  0  0
 39 50  1  0  0  0  0
 40 68  1  0  0  0  0
 41 43  1  0  0  0  0
 42 46  1  0  0  0  0
 42 47  1  0  0  0  0
 43 49  1  0  0  0  0
 44 45  1  0  0  0  0
 44 51  1  0  0  0  0
 45 51  1  0  0  0  0
 46 52  1  0  0  0  0
 47 69  1  0  0  0  0
 48 52  1  0  0  0  0
 48 69  1  0  0  0  0
 49 72  1  0  0  0  0
 50 68  1  0  0  0  0
 51 61  1  0  0  0  0
 52 67  1  0  0  0  0
 53 61  1  0  0  0  0
 54 63  1  0  0  0  0
 55 64  1  0  0  0  0
 56 64  1  0  0  0  0
 57 64  1  0  0  0  0
 58 75  1  0  0  0  0
 59 60  1  0  0  0  0
 59 74  1  0  0  0  0
 60 83  1  0  0  0  0
 62 64  1  0  0  0  0
 62 73  1  0  0  0  0
 63 75  1  0  0  0  0
 66 67  1  0  0  0  0
M  CHG  1  75   1
M  ISO  4  27 101  37 100  74 100  82 101
M  END
> <Batch ID>
0146

> <Smiles>
CNC(C)C(=O)NC(C(=O)N1Cc2cc([101O:1][101c:1]3cnc(OCC[100NH:0][100C:0](=O)N4CCCC(n5nc(-c6ccc(Oc7ccc(F)cc7F)cc6)c(C(N)=O)c5N)C4)c(C(C)C4CC4)c3)ccc2CC1C(=O)NC1CCCc2ccccc21)C(C)(C)C

> <Shape>
0.167

> <Color>
0.193

> <Negative vol penalty>
0.000

$$$$

  -OEChem-04052321313D

 89 99  0     1  0  0  0  0  0999 V2000
  -30.0891  -32.6608   25.1843 C   0  0  0  0  0  0  0  0  0  0  0  0
  -29.7982  -31.5011   24.4729 C   0  0  0  0  0  0  0  0  0  0  0  0
  -23.6853  -10.2562   22.1517 C   0  0  0  0  0  0  0  0  0  0  0  0
  -23.8724   -8.8988   20.1619 C   0  0  0  0  0  0  0  0  0  0  0  0
  -29.0829  -33.3100   25.8984 C   0  0  0  0  0  0  0  0  0  0  0  0
  -28.5011  -30.9894   24.4762 C   0  0  0  0  0  0  0  0  0  0  0  0
  -26.9531  -29.5897   19.8622 C   0  0  0  0  0  0  0  0  0  0  0  0
  -22.2953  -10.1602   22.0866 C   0  0  0  0  0  0  0  0  0  0  0  0
  -22.4824   -8.8028   20.0967 C   0  0  0  0  0  0  0  0  0  0  0  0
  -27.4247  -28.3716   19.3747 C   0  0  0  0  0  0  0  0  0  0  0  0
  -18.9942   -7.8997   19.6120 C   0  0  0  0  0  0  0  0  0  0  0  0
  -18.4413   -6.6452   19.3549 C   0  0  0  0  0  0  0  0  0  0  0  0
  -25.3390  -27.3258   19.9873 C   0  0  0  0  0  0  0  0  0  0  0  0
  -28.9355  -21.5935   19.8010 C   0  0  0  0  0  0  0  0  0  0  0  0
  -19.4801   -5.7774   21.3562 C   0  0  0  0  0  0  0  0  0  0  0  0
  -24.4739   -9.6255   21.1894 C   0  0  0  0  0  0  0  0  0  0  0  0
  -26.7915   -8.8585   21.9295 C   0  0  0  0  0  0  0  0  0  0  0  0
  -27.7707  -32.8113   25.9026 C   0  0  0  0  0  0  0  0  0  0  0  0
  -25.6729  -29.6827   20.4268 C   0  0  0  0  0  0  0  0  0  0  0  0
  -27.4767  -31.6318   25.1922 C   0  0  0  0  0  0  0  0  0  0  0  0
  -24.8525  -28.5468   20.4789 C   0  0  0  0  0  0  0  0  0  0  0  0
  -29.0217  -20.2448   20.1280 C   0  0  0  0  0  0  0  0  0  0  0  0
  -28.4152  -19.7763   21.2881 C   0  0  0  0  0  0  0  0  0  0  0  0
  -21.6938   -9.4335   21.0591 C   0  0  0  0  0  0  0  0  0  0  0  0
  -26.6187  -27.2388   19.4398 C   0  0  0  0  0  0  0  0  0  0  0  0
  -19.7900   -8.0931   20.7411 C   0  0  0  0  0  0  0  0  0  0  0  0
  -18.6843   -5.5840   20.2270 C   0  0  0  0  0  0  0  0  0  0  0  0
  -20.0330   -7.0320   21.6132 C   0  0  0  0  0  0  0  0  0  0  0  0
  -25.9098   -9.7248   21.2558 C   0  0  0  0  0  0  0  0  0  0  0  0
  -27.7397  -20.6898   22.0811 C   0  0  0  0  0  0  0  0  0  0  0  0
  -28.2366  -22.4256   20.6605 C   0  0  0  0  0  0  0  0  0  0  0  0
  -28.0382   -9.3820   21.6885 C   0  0  0  0  0  0  0  0  0  0  0  0
  -26.5089   -7.6853   22.7037 C   0  0  0  0  0  0  0  0  0  0  0  0
  -24.5369  -30.4405   23.2972 C   0  0  0  0  0  0  0  0  0  0  0  0
  -21.6719  -30.2159   21.7926 C   0  0  0  0  0  0  0  0  0  0  0  0
  -19.8475  -28.9267   19.2125 C   0  0  0  0  0  0  0  0  0  0  0  0
  -30.0856  -14.7384   20.4384 C   0  0  0  0  0  0  0  0  0  0  0  0
  -26.7269  -33.5214   26.7278 C   0  0  0  0  0  0  0  0  0  0  0  0
  -25.1688  -31.0098   20.9239 C   0  0  0  0  0  0  0  0  0  0  0  0
  -23.4627  -28.5981   21.0570 C   0  0  0  0  0  0  0  0  0  0  0  0
  -25.2963  -33.1225   26.3747 C   0  0  0  0  0  0  0  0  0  0  0  0
  -30.4826  -11.9263   18.4680 C   0  0  0  0  0  0  0  0  0  0  0  0
  -30.9872  -19.8337   18.5026 C   0  0  0  0  0  0  0  0  0  0  0  0
  -29.7292  -19.5664   17.7368 C   0  0  0  0  0  0  0  0  0  0  0  0
  -25.1763  -31.6058   26.2662 C   0  0  0  0  0  0  0  0  0  0  0  0
  -29.4452  -10.9478   19.0181 C   0  0  0  0  0  0  0  0  0  0  0  0
  -27.8113  -17.4045   20.6311 C   0  0  0  0  0  0  0  0  0  0  0  0
  -29.9403  -17.8550   21.9249 C   0  0  0  0  0  0  0  0  0  0  0  0
  -29.9176  -13.3404   18.4017 C   0  0  0  0  0  0  0  0  0  0  0  0
  -27.9205  -15.9246   21.0094 C   0  0  0  0  0  0  0  0  0  0  0  0
  -29.9849  -16.3748   22.2933 C   0  0  0  0  0  0  0  0  0  0  0  0
  -28.3681  -12.8800   20.2739 C   0  0  0  0  0  0  0  0  0  0  0  0
  -29.7675  -19.3223   19.2220 C   0  0  0  0  0  0  0  0  0  0  0  0
  -28.4916  -18.3108   21.6728 C   0  0  0  0  0  0  0  0  0  0  0  0
  -26.0763  -31.0595   25.1512 C   0  0  1  0  0  0  0  0  0  0  0  0
  -24.0444  -30.8770   21.9464 C   0  0  1  0  0  0  0  0  0  0  0  0
  -28.8902  -11.4320   20.3693 C   0  0  1  0  0  0  0  0  0  0  0  0
  -27.0682  -20.2461   23.3396 C   0  0  0  0  0  0  0  0  0  0  0  0
  -17.5226  -28.8909   18.2687 C   0  0  0  0  0  0  0  0  0  0  0  0
  -20.8156  -28.2710   23.9821 C   0  0  0  0  0  0  0  0  0  0  0  0
  -18.9189  -27.5589   22.5111 C   0  0  0  0  0  0  0  0  0  0  0  0
  -19.0604  -29.9192   23.3060 C   0  0  0  0  0  0  0  0  0  0  0  0
  -20.7352  -30.1583   16.6720 C   0  0  0  0  0  0  0  0  0  0  0  0
  -28.7581  -24.3299   19.1349 C   0  0  0  0  0  0  0  0  0  0  0  0
  -28.4833  -25.8207   19.0297 C   0  0  0  0  0  0  0  0  0  1  0  0
  -20.6796  -29.1060   21.5428 C   0  0  1  0  0  0  0  0  0  0  0  0
  -18.8799  -29.5763   18.2398 C   0  0  2  0  0  0  0  0  0  0  0  0
  -19.8955  -28.7121   22.8263 C   0  0  0  0  0  0  0  0  0  0  0  0
  -26.5427  -10.7230   20.6337 N   0  0  0  0  0  0  0  0  0  0  0  0
  -27.6344  -22.0071   21.7962 N   0  0  0  0  0  0  0  0  0  0  0  0
  -27.8353  -10.4873   20.9155 N   0  0  0  0  0  0  0  0  0  0  0  0
  -23.0175  -29.9173   21.5357 N   0  0  0  0  0  0  0  0  0  0  0  0
  -29.3978  -13.7619   19.7024 N   0  0  0  0  0  0  0  0  0  0  0  0
  -29.3183  -15.5594   21.2784 N   0  0  0  0  0  0  0  0  0  0  0  0
  -29.2773   -9.0002   22.0645 N   0  0  0  0  0  0  0  0  0  0  0  0
  -25.1731   -7.2874   22.8505 N   0  0  0  0  0  0  0  0  0  0  0  0
  -28.1558  -23.7972   20.3132 N   0  0  0  0  0  0  0  0  0  0  0  0
  -25.4727  -31.2896   23.8562 N   0  0  0  0  0  0  0  0  0  0  0  0
  -19.8352  -29.5538   20.4405 N   0  0  0  0  0  0  0  0  0  0  0  0
  -19.4142  -29.5024   16.8506 N   0  3  0  0  0  0  0  0  0  0  0  0
  -27.4129   -7.0192   23.2629 O   0  0  0  0  0  0  0  0  0  0  0  0
  -24.0990  -29.4103   23.7960 O   0  0  0  0  0  0  0  0  0  0  0  0
  -21.2672  -31.3099   22.1938 O   0  0  0  0  0  0  0  0  0  0  0  0
  -20.5420  -27.9576   18.9141 O   0  0  0  0  0  0  0  0  0  0  0  0
  -31.3130  -14.8693   20.3513 O   0  0  0  0  0  0  0  0  0  0  0  0
  -20.3375   -9.3394   20.9953 O   0  0  0  0  0  0  0  0  0  0  0  0
  -27.0800  -26.0401   18.9619 O   0  0  0  0  0  0  0  0  0  1  0  0
  -18.1521   -4.3797   19.9809 F   0  0  0  0  0  0  0  0  0  0  0  0
  -20.7957   -7.2120   22.7002 F   0  0  0  0  0  0  0  0  0  0  0  0
  1  2  1  0  0  0  0
  1  5  2  0  0  0  0
  2  6  2  0  0  0  0
  3  8  2  0  0  0  0
  3 16  1  0  0  0  0
  4  9  1  0  0  0  0
  4 16  2  0  0  0  0
  5 18  1  0  0  0  0
  6 20  1  0  0  0  0
  7 10  2  0  0  0  0
  7 19  1  0  0  0  0
  8 24  1  0  0  0  0
  9 24  2  0  0  0  0
 10 25  1  0  0  0  0
 11 12  2  0  0  0  0
 11 26  1  0  0  0  0
 12 27  1  0  0  0  0
 13 21  1  0  0  0  0
 13 25  2  0  0  0  0
 14 22  2  0  0  0  0
 14 31  1  0  0  0  0
 15 27  2  0  0  0  0
 15 28  1  0  0  0  0
 16 29  1  0  0  0  0
 17 29  1  0  0  0  0
 17 32  2  0  0  0  0
 17 33  1  0  0  0  0
 18 20  2  0  0  0  0
 18 38  1  0  0  0  0
 19 21  2  0  0  0  0
 19 39  1  0  0  0  0
 20 55  1  0  0  0  0
 21 40  1  0  0  0  0
 22 23  1  0  0  0  0
 22 53  1  0  0  0  0
 23 30  2  0  0  0  0
 23 54  1  0  0  0  0
 24 86  1  0  0  0  0
 25 87  1  0  0  0  0
 26 28  2  0  0  0  0
 26 86  1  0  0  0  0
 27 88  1  0  0  0  0
 28 89  1  0  0  0  0
 29 69  2  0  0  0  0
 30 58  1  0  0  0  0
 30 70  1  0  0  0  0
 31 70  2  0  0  0  0
 31 77  1  0  0  0  0
 32 71  1  0  0  0  0
 32 75  1  0  0  0  0
 33 76  1  0  0  0  0
 33 81  2  0  0  0  0
 34 56  1  0  0  0  0
 34 78  1  0  0  0  0
 34 82  2  0  0  0  0
 35 66  1  0  0  0  0
 35 72  1  0  0  0  0
 35 83  2  0  0  0  0
 36 67  1  0  0  0  0
 36 79  1  0  0  0  0
 36 84  2  0  0  0  0
 37 73  1  0  0  0  0
 37 74  1  0  0  0  0
 37 85  2  0  0  0  0
 38 41  1  0  0  0  0
 39 56  1  0  0  0  0
 40 72  1  0  0  0  0
 41 45  1  0  0  0  0
 42 46  1  0  0  0  0
 42 49  1  0  0  0  0
 43 44  1  0  0  0  0
 43 53  1  0  0  0  0
 44 53  1  0  0  0  0
 45 55  1  0  0  0  0
 46 57  1  0  0  0  0
 47 50  1  0  0  0  0
 47 54  1  0  0  0  0
 48 51  1  0  0  0  0
 48 54  1  0  0  0  0
 49 73  1  0  0  0  0
 50 74  1  0  0  0  0
 51 74  1  0  0  0  0
 52 57  1  0  0  0  0
 52 73  1  0  0  0  0
 55 78  1  0  0  0  0
 56 72  1  0  0  0  0
 57 71  1  0  0  0  0
 59 67  1  0  0  0  0
 60 68  1  0  0  0  0
 61 68  1  0  0  0  0
 62 68  1  0  0  0  0
 63 80  1  0  0  0  0
 64 65  1  0  0  0  0
 64 77  1  0  0  0  0
 65 87  1  0  0  0  0
 66 68  1  0  0  0  0
 66 79  1  0  0  0  0
 67 80  1  0  0  0  0
 69 71  1  0  0  0  0
M  CHG  1  80   1
M  ISO  4  37 100  65 101  74 100  87 101
M  END
> <Batch ID>
0146

> <Smiles>
CNC(C)C(=O)NC(C(=O)N1Cc2cc([101O:1][101CH2:1]CNc3cc(C4CC4)c(C4CC[100N:0]([100C:0](=O)N5CCCC(n6nc(-c7ccc(Oc8ccc(F)cc8F)cc7)c(C(N)=O)c6N)C5)CC4)c(C)n3)ccc2CC1C(=O)NC1CCCc2ccccc21)C(C)(C)C

> <Shape>
0.324

> <Color>
0.091

> <Negative vol penalty>
0.000

$$$$

  -OEChem-04052321313D

 86 95  0     1  0  0  0  0  0999 V2000
  -28.4596  -32.4118   20.1646 C   0  0  0  0  0  0  0  0  0  0  0  0
  -28.3774  -31.0669   20.5112 C   0  0  0  0  0  0  0  0  0  0  0  0
  -22.8583  -10.2853   20.0270 C   0  0  0  0  0  0  0  0  0  0  0  0
  -24.0051   -9.5705   22.0297 C   0  0  0  0  0  0  0  0  0  0  0  0
  -27.4265  -33.2832   20.5071 C   0  0  0  0  0  0  0  0  0  0  0  0
  -27.2624  -30.5930   21.2016 C   0  0  0  0  0  0  0  0  0  0  0  0
  -25.5177  -26.2303   19.3127 C   0  0  0  0  0  0  0  0  0  0  0  0
  -22.0660   -9.1382   20.0712 C   0  0  0  0  0  0  0  0  0  0  0  0
  -23.2128   -8.4234   22.0740 C   0  0  0  0  0  0  0  0  0  0  0  0
  -26.2109  -25.0684   19.6490 C   0  0  0  0  0  0  0  0  0  0  0  0
  -23.0926   -5.4176   20.5307 C   0  0  0  0  0  0  0  0  0  0  0  0
  -23.7265   -4.2016   20.7859 C   0  0  0  0  0  0  0  0  0  0  0  0
  -28.8374  -21.4779   21.9760 C   0  0  0  0  0  0  0  0  0  0  0  0
  -24.5545  -24.5745   21.3318 C   0  0  0  0  0  0  0  0  0  0  0  0
  -28.0524  -20.3752   19.9748 C   0  0  0  0  0  0  0  0  0  0  0  0
  -22.3735   -3.9118   22.7664 C   0  0  0  0  0  0  0  0  0  0  0  0
  -23.8279  -10.5015   21.0062 C   0  0  0  0  0  0  0  0  0  0  0  0
  -24.3760  -12.9305   21.5603 C   0  0  0  0  0  0  0  0  0  0  0  0
  -26.2939  -32.8177   21.1935 C   0  0  0  0  0  0  0  0  0  0  0  0
  -24.3416  -26.5793   19.9919 C   0  0  0  0  0  0  0  0  0  0  0  0
  -26.2138  -31.4592   21.5548 C   0  0  0  0  0  0  0  0  0  0  0  0
  -29.3741  -20.2730   22.4295 C   0  0  0  0  0  0  0  0  0  0  0  0
  -23.8469  -25.7401   21.0004 C   0  0  0  0  0  0  0  0  0  0  0  0
  -28.1764  -21.5290   20.7487 C   0  0  0  0  0  0  0  0  0  0  0  0
  -28.5893  -19.1702   20.4282 C   0  0  0  0  0  0  0  0  0  0  0  0
  -29.2501  -19.1192   21.6556 C   0  0  0  0  0  0  0  0  0  0  0  0
  -22.2433   -8.2072   21.0947 C   0  0  0  0  0  0  0  0  0  0  0  0
  -25.7309  -24.2418   20.6607 C   0  0  0  0  0  0  0  0  0  0  0  0
  -22.0992   -5.8808   21.3935 C   0  0  0  0  0  0  0  0  0  0  0  0
  -23.3670   -3.4487   21.9037 C   0  0  0  0  0  0  0  0  0  0  0  0
  -21.7396   -5.1279   22.5113 C   0  0  0  0  0  0  0  0  0  0  0  0
  -24.6470  -11.6860   20.9607 C   0  0  0  0  0  0  0  0  0  0  0  0
  -25.4524  -13.7149   21.2249 C   0  0  0  0  0  0  0  0  0  0  0  0
  -23.2518  -13.3408   22.3500 C   0  0  0  0  0  0  0  0  0  0  0  0
  -23.4426  -29.0283   21.8079 C   0  0  0  0  0  0  0  0  0  0  0  0
  -20.5523  -27.5617   21.6753 C   0  0  0  0  0  0  0  0  0  0  0  0
  -18.7845  -24.6795   21.2124 C   0  0  0  0  0  0  0  0  0  0  0  0
  -30.9549  -14.4310   20.6295 C   0  0  0  0  0  0  0  0  0  0  0  0
  -25.2242  -33.8067   21.5837 C   0  0  0  0  0  0  0  0  0  0  0  0
  -23.5911  -27.8222   19.5990 C   0  0  0  0  0  0  0  0  0  0  0  0
  -22.5779  -26.0593   21.7462 C   0  0  0  0  0  0  0  0  0  0  0  0
  -23.9057  -33.1509   21.9859 C   0  0  0  0  0  0  0  0  0  0  0  0
  -29.2012  -12.9232   17.9225 C   0  0  0  0  0  0  0  0  0  0  0  0
  -29.6186  -19.2726   24.7987 C   0  0  0  0  0  0  0  0  0  0  0  0
  -29.3499  -20.7348   24.9720 C   0  0  0  0  0  0  0  0  0  0  0  0
  -24.1569  -31.9914   22.9447 C   0  0  0  0  0  0  0  0  0  0  0  0
  -27.8408  -12.5642   18.5227 C   0  0  0  0  0  0  0  0  0  0  0  0
  -30.3308  -12.7371   18.9331 C   0  0  0  0  0  0  0  0  0  0  0  0
  -28.7771  -13.0822   20.8148 C   0  0  0  0  0  0  0  0  0  0  0  0
  -30.0767  -20.2474   23.7477 C   0  0  0  0  0  0  0  0  0  0  0  0
  -25.0092  -30.9023   22.2820 C   0  0  1  0  0  0  0  0  0  0  0  0
  -22.6818  -28.3463   20.7062 C   0  0  1  0  0  0  0  0  0  0  0  0
  -27.6000  -13.3074   19.8505 C   0  0  2  0  0  0  0  0  0  0  0  0
  -28.4407  -17.9508   19.5773 C   0  0  0  0  0  0  0  0  0  0  0  0
  -16.4390  -23.7873   21.2022 C   0  0  0  0  0  0  0  0  0  0  0  0
  -31.3222  -16.0637   23.9208 C   0  0  0  0  0  0  0  0  0  0  0  0
  -20.5094  -27.6463   24.7250 C   0  0  0  0  0  0  0  0  0  0  0  0
  -18.6744  -25.9437   24.6770 C   0  0  0  0  0  0  0  0  0  0  0  0
  -18.3232  -28.1831   23.6357 C   0  0  0  0  0  0  0  0  0  0  0  0
  -18.9899  -23.8469   18.3798 C   0  0  0  0  0  0  0  0  0  0  0  0
  -27.5989  -22.8251   20.2609 C   0  0  0  0  0  0  0  0  0  1  0  0
  -31.1285  -17.4847   21.8164 C   0  0  0  0  0  0  0  0  0  0  0  0
  -19.8462  -26.5140   22.5015 C   0  0  1  0  0  0  0  0  0  0  0  0
  -17.5647  -24.3714   20.3629 C   0  0  2  0  0  0  0  0  0  0  0  0
  -31.4352  -16.1026   22.3999 C   0  0  2  0  0  0  0  0  0  0  0  0
  -19.3633  -27.0665   23.8723 C   0  0  0  0  0  0  0  0  0  0  0  0
  -25.8047  -11.6757   20.2947 N   0  0  0  0  0  0  0  0  0  0  0  0
  -26.2707  -12.9235   20.4738 N   0  0  0  0  0  0  0  0  0  0  0  0
  -21.8835  -27.2889   21.3298 N   0  0  0  0  0  0  0  0  0  0  0  0
  -30.0415  -13.4684   20.1690 N   0  0  0  0  0  0  0  0  0  0  0  0
  -25.7692  -14.9976   21.5021 N   0  0  0  0  0  0  0  0  0  0  0  0
  -22.2346  -12.4092   22.5990 N   0  0  0  0  0  0  0  0  0  0  0  0
  -29.7939  -17.8966   22.1139 N   0  0  0  0  0  0  0  0  0  0  0  0
  -24.2010  -30.1036   21.3857 N   0  0  0  0  0  0  0  0  0  0  0  0
  -18.7781  -25.9832   21.6614 N   0  0  0  0  0  0  0  0  0  0  0  0
  -30.6011  -15.0824   21.8047 N   0  0  0  0  0  0  0  0  0  0  0  0
  -17.9115  -23.3918   19.2946 N   0  3  0  0  0  0  0  0  0  0  0  0
  -23.1443  -14.5040   22.8070 O   0  0  0  0  0  0  0  0  0  0  0  0
  -23.3473  -28.6110   22.9561 O   0  0  0  0  0  0  0  0  0  0  0  0
  -19.9429  -28.5813   21.3425 O   0  0  0  0  0  0  0  0  0  0  0  0
  -19.6540  -23.8459   21.4566 O   0  0  0  0  0  0  0  0  0  0  0  0
  -32.0053  -14.6945   20.0342 O   0  0  0  0  0  0  0  0  0  0  0  0
  -21.4702   -7.0878   21.1384 O   0  0  0  0  0  0  0  0  0  0  0  0
  -26.4060  -23.1074   20.9914 O   0  0  0  0  0  0  0  0  0  1  0  0
  -23.9748   -2.2803   22.1477 F   0  0  0  0  0  0  0  0  0  0  0  0
  -20.7851   -5.5671   23.3431 F   0  0  0  0  0  0  0  0  0  0  0  0
  1  2  1  0  0  0  0
  1  5  2  0  0  0  0
  2  6  2  0  0  0  0
  3  8  2  0  0  0  0
  3 17  1  0  0  0  0
  4  9  1  0  0  0  0
  4 17  2  0  0  0  0
  5 19  1  0  0  0  0
  6 21  1  0  0  0  0
  7 10  2  0  0  0  0
  7 20  1  0  0  0  0
  8 27  1  0  0  0  0
  9 27  2  0  0  0  0
 10 28  1  0  0  0  0
 11 12  2  0  0  0  0
 11 29  1  0  0  0  0
 12 30  1  0  0  0  0
 13 22  1  0  0  0  0
 13 24  2  0  0  0  0
 14 23  1  0  0  0  0
 14 28  2  0  0  0  0
 15 24  1  0  0  0  0
 15 25  2  0  0  0  0
 16 30  2  0  0  0  0
 16 31  1  0  0  0  0
 17 32  1  0  0  0  0
 18 32  1  0  0  0  0
 18 33  2  0  0  0  0
 18 34  1  0  0  0  0
 19 21  2  0  0  0  0
 19 39  1  0  0  0  0
 20 23  2  0  0  0  0
 20 40  1  0  0  0  0
 21 51  1  0  0  0  0
 22 26  2  0  0  0  0
 22 50  1  0  0  0  0
 23 41  1  0  0  0  0
 24 61  1  0  0  0  0
 25 26  1  0  0  0  0
 25 54  1  0  0  0  0
 26 73  1  0  0  0  0
 27 83  1  0  0  0  0
 28 84  1  0  0  0  0
 29 31  2  0  0  0  0
 29 83  1  0  0  0  0
 30 85  1  0  0  0  0
 31 86  1  0  0  0  0
 32 67  2  0  0  0  0
 33 68  1  0  0  0  0
 33 71  1  0  0  0  0
 34 72  1  0  0  0  0
 34 78  2  0  0  0  0
 35 52  1  0  0  0  0
 35 74  1  0  0  0  0
 35 79  2  0  0  0  0
 36 63  1  0  0  0  0
 36 69  1  0  0  0  0
 36 80  2  0  0  0  0
 37 64  1  0  0  0  0
 37 75  1  0  0  0  0
 37 81  2  0  0  0  0
 38 70  1  0  0  0  0
 38 76  1  0  0  0  0
 38 82  2  0  0  0  0
 39 42  1  0  0  0  0
 40 52  1  0  0  0  0
 41 69  1  0  0  0  0
 42 46  1  0  0  0  0
 43 47  1  0  0  0  0
 43 48  1  0  0  0  0
 44 45  1  0  0  0  0
 44 50  1  0  0  0  0
 45 50  1  0  0  0  0
 46 51  1  0  0  0  0
 47 53  1  0  0  0  0
 48 70  1  0  0  0  0
 49 53  1  0  0  0  0
 49 70  1  0  0  0  0
 51 74  1  0  0  0  0
 52 69  1  0  0  0  0
 53 68  1  0  0  0  0
 55 64  1  0  0  0  0
 56 65  1  0  0  0  0
 57 66  1  0  0  0  0
 58 66  1  0  0  0  0
 59 66  1  0  0  0  0
 60 77  1  0  0  0  0
 61 84  1  0  0  0  0
 62 65  1  0  0  0  0
 62 73  1  0  0  0  0
 63 66  1  0  0  0  0
 63 75  1  0  0  0  0
 64 77  1  0  0  0  0
 65 76  1  0  0  0  0
 67 68  1  0  0  0  0
M  CHG  1  77   1
M  ISO  4  38 100  61 101  76 100  84 101
M  END
> <Batch ID>
0146

> <Smiles>
CNC(C)C(=O)NC(C(=O)N1Cc2cc([101O:1][101CH2:1]c3cc(C)c(NCC(C)[100NH:0][100C:0](=O)N4CCCC(n5nc(-c6ccc(Oc7ccc(F)cc7F)cc6)c(C(N)=O)c5N)C4)c(C4CC4)c3)ccc2CC1C(=O)NC1CCCc2ccccc21)C(C)(C)C

> <Shape>
0.341

> <Color>
0.156

> <Negative vol penalty>
0.000

$$$$

  -OEChem-04052321313D

 85 94  0     1  0  0  0  0  0999 V2000
  -17.6180  -26.5021   20.4608 C   0  0  0  0  0  0  0  0  0  0  0  0
  -18.9766  -26.2032   20.4462 C   0  0  0  0  0  0  0  0  0  0  0  0
  -24.3825  -10.1212   22.6565 C   0  0  0  0  0  0  0  0  0  0  0  0
  -24.5275  -11.7186   24.4633 C   0  0  0  0  0  0  0  0  0  0  0  0
  -17.1982  -27.8289   20.5449 C   0  0  0  0  0  0  0  0  0  0  0  0
  -19.9163  -27.2312   20.5146 C   0  0  0  0  0  0  0  0  0  0  0  0
  -23.6704  -26.2193   23.7592 C   0  0  0  0  0  0  0  0  0  0  0  0
  -23.9336   -9.1499   23.5512 C   0  0  0  0  0  0  0  0  0  0  0  0
  -24.0785  -10.7473   25.3581 C   0  0  0  0  0  0  0  0  0  0  0  0
  -24.6677  -25.3462   23.3267 C   0  0  0  0  0  0  0  0  0  0  0  0
  -21.0401   -8.3375   25.1007 C   0  0  0  0  0  0  0  0  0  0  0  0
  -19.9525   -7.5540   24.7149 C   0  0  0  0  0  0  0  0  0  0  0  0
  -26.0949  -27.2285   22.8375 C   0  0  0  0  0  0  0  0  0  0  0  0
  -30.3355  -19.8104   20.7302 C   0  0  0  0  0  0  0  0  0  0  0  0
  -27.9292  -19.9850   20.6014 C   0  0  0  0  0  0  0  0  0  0  0  0
  -21.3139   -5.5677   24.9112 C   0  0  0  0  0  0  0  0  0  0  0  0
  -24.6795  -11.4056   23.1126 C   0  0  0  0  0  0  0  0  0  0  0  0
  -24.3578  -13.3149   21.4516 C   0  0  0  0  0  0  0  0  0  0  0  0
  -18.1331  -28.8731   20.6240 C   0  0  0  0  0  0  0  0  0  0  0  0
  -23.8742  -27.6062   23.7237 C   0  0  0  0  0  0  0  0  0  0  0  0
  -19.5085  -28.5734   20.5984 C   0  0  0  0  0  0  0  0  0  0  0  0
  -25.0996  -28.1169   23.2724 C   0  0  0  0  0  0  0  0  0  0  0  0
  -29.2691  -21.9696   20.9229 C   0  0  0  0  0  0  0  0  0  0  0  0
  -30.4266  -21.1916   20.9015 C   0  0  0  0  0  0  0  0  0  0  0  0
  -29.0868  -19.2070   20.5801 C   0  0  0  0  0  0  0  0  0  0  0  0
  -23.7815   -9.4629   24.9020 C   0  0  0  0  0  0  0  0  0  0  0  0
  -25.8791  -25.8509   22.8631 C   0  0  0  0  0  0  0  0  0  0  0  0
  -22.2646   -7.7362   25.3917 C   0  0  0  0  0  0  0  0  0  0  0  0
  -28.0203  -21.3663   20.7728 C   0  0  0  0  0  0  0  0  0  0  0  0
  -20.0894   -6.1691   24.6202 C   0  0  0  0  0  0  0  0  0  0  0  0
  -22.4015   -6.3513   25.2970 C   0  0  0  0  0  0  0  0  0  0  0  0
  -25.1439  -12.4092   22.1889 C   0  0  0  0  0  0  0  0  0  0  0  0
  -25.2663  -14.0499   20.7300 C   0  0  0  0  0  0  0  0  0  0  0  0
  -22.9335  -13.4772   21.4217 C   0  0  0  0  0  0  0  0  0  0  0  0
  -22.4869  -30.0395   22.2209 C   0  0  0  0  0  0  0  0  0  0  0  0
  -24.4888  -31.8094   24.0601 C   0  0  0  0  0  0  0  0  0  0  0  0
  -27.3866  -31.9767   25.8548 C   0  0  0  0  0  0  0  0  0  0  0  0
  -30.0435  -16.8867   20.3635 C   0  0  0  0  0  0  0  0  0  0  0  0
  -17.6316  -30.2949   20.6658 C   0  0  0  0  0  0  0  0  0  0  0  0
  -22.7984  -28.5336   24.2187 C   0  0  0  0  0  0  0  0  0  0  0  0
  -25.3758  -29.5970   23.2333 C   0  0  0  0  0  0  0  0  0  0  0  0
  -18.6893  -31.3009   21.1125 C   0  0  0  0  0  0  0  0  0  0  0  0
  -30.2248  -13.3503   19.9912 C   0  0  0  0  0  0  0  0  0  0  0  0
  -20.0042  -31.0538   20.3799 C   0  0  0  0  0  0  0  0  0  0  0  0
  -28.8545  -12.8648   20.4691 C   0  0  0  0  0  0  0  0  0  0  0  0
  -30.7231  -14.5388   20.8115 C   0  0  0  0  0  0  0  0  0  0  0  0
  -28.4143  -15.1787   21.3852 C   0  0  0  0  0  0  0  0  0  0  0  0
  -29.3608  -23.4391   21.1065 C   0  0  2  0  0  0  0  0  0  0  0  0
  -20.5581  -29.6592   20.6958 C   0  0  1  0  0  0  0  0  0  0  0  0
  -22.9219  -29.9463   23.6561 C   0  0  1  0  0  0  0  0  0  0  0  0
  -28.2372  -24.3175   20.5917 C   0  0  2  0  0  0  0  0  0  0  0  0
  -27.8416  -14.0239   20.5472 C   0  0  2  0  0  0  0  0  0  0  0  0
  -29.5856  -24.3690   19.9314 C   0  0  2  0  0  0  0  0  0  0  0  0
  -31.7765  -21.8119   21.0591 C   0  0  0  0  0  0  0  0  0  0  0  0
  -28.7735  -33.5671   27.2130 C   0  0  0  0  0  0  0  0  0  0  0  0
  -25.4539  -33.1533   21.4964 C   0  0  0  0  0  0  0  0  0  0  0  0
  -27.4375  -33.9985   22.7689 C   0  0  0  0  0  0  0  0  0  0  0  0
  -25.1389  -34.7046   23.4326 C   0  0  0  0  0  0  0  0  0  0  0  0
  -27.1339  -30.3051   28.2840 C   0  0  0  0  0  0  0  0  0  0  0  0
  -25.6468  -21.4071   20.6302 C   0  0  0  0  0  0  0  0  0  0  0  0
  -27.7605  -25.4739   21.4014 C   0  0  0  0  0  0  0  0  0  1  0  0
  -25.8942  -32.3388   23.9065 C   0  0  1  0  0  0  0  0  0  0  0  0
  -27.6809  -32.5098   27.2454 C   0  0  2  0  0  0  0  0  0  0  0  0
  -25.9755  -33.5209   22.8999 C   0  0  0  0  0  0  0  0  0  0  0  0
  -26.4513  -12.5538   21.9569 N   0  0  0  0  0  0  0  0  0  0  0  0
  -26.4937  -13.5587   21.0656 N   0  0  0  0  0  0  0  0  0  0  0  0
  -24.2903  -30.4633   23.7220 N   0  0  0  0  0  0  0  0  0  0  0  0
  -29.7135  -15.5994   20.8375 N   0  0  0  0  0  0  0  0  0  0  0  0
  -25.1272  -15.0619   19.8475 N   0  0  0  0  0  0  0  0  0  0  0  0
  -22.1485  -12.6388   22.2250 N   0  0  0  0  0  0  0  0  0  0  0  0
  -28.9939  -17.8038   20.4070 N   0  0  0  0  0  0  0  0  0  0  0  0
  -21.1803  -29.6466   22.0024 N   0  0  0  0  0  0  0  0  0  0  0  0
  -26.3563  -32.6660   25.2511 N   0  0  0  0  0  0  0  0  0  0  0  0
  -29.6971  -23.8102   18.5768 N   0  3  0  0  0  0  0  0  0  0  0  0
  -28.1233  -31.4040   28.1412 N   0  3  0  0  0  0  0  0  0  0  0  0
  -22.3727  -14.3293   20.6917 O   0  0  0  0  0  0  0  0  0  0  0  0
  -23.2777  -30.4398   21.3747 O   0  0  0  0  0  0  0  0  0  0  0  0
  -23.6012  -32.5607   24.4718 O   0  0  0  0  0  0  0  0  0  0  0  0
  -28.0110  -31.0447   25.3529 O   0  0  0  0  0  0  0  0  0  0  0  0
  -31.1662  -17.1483   19.9240 O   0  0  0  0  0  0  0  0  0  0  0  0
  -23.3432   -8.5154   25.7753 O   0  0  0  0  0  0  0  0  0  0  0  0
  -26.8778  -22.1088   20.7910 O   0  0  0  0  0  0  0  0  0  0  0  0
  -26.8539  -25.0010   22.4398 O   0  0  0  0  0  0  0  0  0  1  0  0
  -19.0445   -5.4167   24.2512 F   0  0  0  0  0  0  0  0  0  0  0  0
  -23.5750   -5.7678   25.5764 F   0  0  0  0  0  0  0  0  0  0  0  0
  1  2  1  0  0  0  0
  1  5  2  0  0  0  0
  2  6  2  0  0  0  0
  3  8  2  0  0  0  0
  3 17  1  0  0  0  0
  4  9  1  0  0  0  0
  4 17  2  0  0  0  0
  5 19  1  0  0  0  0
  6 21  1  0  0  0  0
  7 10  2  0  0  0  0
  7 20  1  0  0  0  0
  8 26  1  0  0  0  0
  9 26  2  0  0  0  0
 10 27  1  0  0  0  0
 11 12  2  0  0  0  0
 11 28  1  0  0  0  0
 12 30  1  0  0  0  0
 13 22  1  0  0  0  0
 13 27  2  0  0  0  0
 14 24  2  0  0  0  0
 14 25  1  0  0  0  0
 15 25  2  0  0  0  0
 15 29  1  0  0  0  0
 16 30  2  0  0  0  0
 16 31  1  0  0  0  0
 17 32  1  0  0  0  0
 18 32  1  0  0  0  0
 18 33  2  0  0  0  0
 18 34  1  0  0  0  0
 19 21  2  0  0  0  0
 19 39  1  0  0  0  0
 20 22  2  0  0  0  0
 20 40  1  0  0  0  0
 21 49  1  0  0  0  0
 22 41  1  0  0  0  0
 23 24  1  0  0  0  0
 23 29  2  0  0  0  0
 23 48  1  0  0  0  0
 24 54  1  0  0  0  0
 25 71  1  0  0  0  0
 26 81  1  0  0  0  0
 27 83  1  0  0  0  0
 28 31  2  0  0  0  0
 28 81  1  0  0  0  0
 29 82  1  0  0  0  0
 30 84  1  0  0  0  0
 31 85  1  0  0  0  0
 32 65  2  0  0  0  0
 33 66  1  0  0  0  0
 33 69  1  0  0  0  0
 34 70  1  0  0  0  0
 34 76  2  0  0  0  0
 35 50  1  0  0  0  0
 35 72  1  0  0  0  0
 35 77  2  0  0  0  0
 36 62  1  0  0  0  0
 36 67  1  0  0  0  0
 36 78  2  0  0  0  0
 37 63  1  0  0  0  0
 37 73  1  0  0  0  0
 37 79  2  0  0  0  0
 38 68  1  0  0  0  0
 38 71  1  0  0  0  0
 38 80  2  0  0  0  0
 39 42  1  0  0  0  0
 40 50  1  0  0  0  0
 41 67  1  0  0  0  0
 42 44  1  0  0  0  0
 43 45  1  0  0  0  0
 43 46  1  0  0  0  0
 44 49  1  0  0  0  0
 45 52  1  0  0  0  0
 46 68  1  0  0  0  0
 47 52  1  0  0  0  0
 47 68  1  0  0  0  0
 48 51  1  0  0  0  0
 48 53  1  0  0  0  0
 49 72  1  0  0  0  0
 50 67  1  0  0  0  0
 51 53  1  0  0  0  0
 51 61  1  0  0  0  0
 52 66  1  0  0  0  0
 53 74  1  0  0  0  0
 55 63  1  0  0  0  0
 56 64  1  0  0  0  0
 57 64  1  0  0  0  0
 58 64  1  0  0  0  0
 59 75  1  0  0  0  0
 60 82  1  0  0  0  0
 61 83  1  0  0  0  0
 62 64  1  0  0  0  0
 62 73  1  0  0  0  0
 63 75  1  0  0  0  0
 65 66  1  0  0  0  0
M  CHG  2  74   1  75   1
M  ISO  4  38 100  61 101  71 100  83 101
M  END
> <Batch ID>
0146

> <Smiles>
CNC(C)C(=O)NC(C(=O)N1Cc2cc([101O:1][101CH2:1]C3C(N)C3c3c(C)cc([100NH:0][100C:0](=O)N4CCCC(n5nc(-c6ccc(Oc7ccc(F)cc7F)cc6)c(C(N)=O)c5N)C4)cc3OC)ccc2CC1C(=O)NC1CCCc2ccccc21)C(C)(C)C

> <Shape>
0.287

> <Color>
0.103

> <Negative vol penalty>
0.000

$$$$

  -OEChem-04052321313D

 83 92  0     1  0  0  0  0  0999 V2000
  -41.3297  -29.0212   15.9769 C   0  0  0  0  0  0  0  0  0  0  0  0
  -41.3285  -27.6582   16.2557 C   0  0  0  0  0  0  0  0  0  0  0  0
  -23.1300   -9.8297   19.9992 C   0  0  0  0  0  0  0  0  0  0  0  0
  -23.8607   -9.9426   22.2993 C   0  0  0  0  0  0  0  0  0  0  0  0
  -40.4893  -29.8775   16.6871 C   0  0  0  0  0  0  0  0  0  0  0  0
  -40.4877  -27.1509   17.2456 C   0  0  0  0  0  0  0  0  0  0  0  0
  -30.3101  -18.5948   23.8484 C   0  0  0  0  0  0  0  0  0  0  0  0
  -36.6703  -21.3123   18.8749 C   0  0  0  0  0  0  0  0  0  0  0  0
  -29.7506  -17.6685   22.9690 C   0  0  0  0  0  0  0  0  0  0  0  0
  -22.4048   -8.6733   20.2864 C   0  0  0  0  0  0  0  0  0  0  0  0
  -23.1354   -8.7862   22.5865 C   0  0  0  0  0  0  0  0  0  0  0  0
  -36.4879  -20.3998   19.9131 C   0  0  0  0  0  0  0  0  0  0  0  0
  -19.9155   -7.9512   23.1823 C   0  0  0  0  0  0  0  0  0  0  0  0
  -19.1447   -7.9434   24.3448 C   0  0  0  0  0  0  0  0  0  0  0  0
  -31.9555  -16.8407   22.4425 C   0  0  0  0  0  0  0  0  0  0  0  0
  -35.0215  -21.9624   21.0209 C   0  0  0  0  0  0  0  0  0  0  0  0
  -20.4128   -6.0611   25.1729 C   0  0  0  0  0  0  0  0  0  0  0  0
  -23.8581  -10.4643   21.0057 C   0  0  0  0  0  0  0  0  0  0  0  0
  -24.1540  -12.9888   20.7886 C   0  0  0  0  0  0  0  0  0  0  0  0
  -39.6307  -29.3791   17.6796 C   0  0  0  0  0  0  0  0  0  0  0  0
  -36.0372  -22.5632   18.9073 C   0  0  0  0  0  0  0  0  0  0  0  0
  -31.6983  -18.6485   24.0371 C   0  0  0  0  0  0  0  0  0  0  0  0
  -39.6360  -28.0016   17.9707 C   0  0  0  0  0  0  0  0  0  0  0  0
  -32.5304  -17.7761   23.3151 C   0  0  0  0  0  0  0  0  0  0  0  0
  -35.1955  -22.8880   19.9806 C   0  0  0  0  0  0  0  0  0  0  0  0
  -30.5727  -16.7903   22.2683 C   0  0  0  0  0  0  0  0  0  0  0  0
  -22.4075   -8.1516   21.5800 C   0  0  0  0  0  0  0  0  0  0  0  0
  -35.6657  -20.7259   20.9877 C   0  0  0  0  0  0  0  0  0  0  0  0
  -20.9349   -7.0139   23.0150 C   0  0  0  0  0  0  0  0  0  0  0  0
  -19.3934   -6.9984   25.3401 C   0  0  0  0  0  0  0  0  0  0  0  0
  -21.1835   -6.0688   24.0103 C   0  0  0  0  0  0  0  0  0  0  0  0
  -24.6079  -11.6585   20.7095 C   0  0  0  0  0  0  0  0  0  0  0  0
  -25.2364  -13.7440   20.4085 C   0  0  0  0  0  0  0  0  0  0  0  0
  -22.8689  -13.4963   21.1715 C   0  0  0  0  0  0  0  0  0  0  0  0
  -37.0341  -25.5805   18.9816 C   0  0  0  0  0  0  0  0  0  0  0  0
  -33.8712  -26.2245   18.6605 C   0  0  0  0  0  0  0  0  0  0  0  0
  -30.6465  -25.1883   19.0787 C   0  0  0  0  0  0  0  0  0  0  0  0
  -30.6795  -14.9005   20.6058 C   0  0  0  0  0  0  0  0  0  0  0  0
  -38.7745  -30.3502   18.4534 C   0  0  0  0  0  0  0  0  0  0  0  0
  -36.2230  -23.5258   17.7666 C   0  0  0  0  0  0  0  0  0  0  0  0
  -34.0262  -17.7859   23.5115 C   0  0  0  0  0  0  0  0  0  0  0  0
  -34.4769  -24.2097   20.0531 C   0  0  0  0  0  0  0  0  0  0  0  0
  -32.2755  -19.6747   24.9723 C   0  0  0  0  0  0  0  0  0  0  0  0
  -37.6423  -29.6806   19.2281 C   0  0  0  0  0  0  0  0  0  0  0  0
  -29.6403  -12.3733   18.3232 C   0  0  0  0  0  0  0  0  0  0  0  0
  -38.1611  -28.4623   19.9853 C   0  0  0  0  0  0  0  0  0  0  0  0
  -28.2011  -12.0715   18.7470 C   0  0  0  0  0  0  0  0  0  0  0  0
  -30.5358  -12.6674   19.5254 C   0  0  0  0  0  0  0  0  0  0  0  0
  -28.5984  -13.4095   20.8539 C   0  0  0  0  0  0  0  0  0  0  0  0
  -38.7202  -27.4099   19.0202 C   0  0  1  0  0  0  0  0  0  0  0  0
  -35.9370  -24.9734   18.1537 C   0  0  1  0  0  0  0  0  0  0  0  0
  -27.6439  -13.1708   19.6726 C   0  0  2  0  0  0  0  0  0  0  0  0
  -34.5799  -19.0930   24.0970 C   0  0  1  0  0  0  0  0  0  0  0  0
  -28.2762  -25.9478   18.7590 C   0  0  0  0  0  0  0  0  0  0  0  0
  -34.1101  -28.0015   21.1292 C   0  0  0  0  0  0  0  0  0  0  0  0
  -31.6139  -27.9576   21.3168 C   0  0  0  0  0  0  0  0  0  0  0  0
  -32.6940  -28.9461   19.2971 C   0  0  0  0  0  0  0  0  0  0  0  0
  -34.3034  -20.5699   26.1425 C   0  0  0  0  0  0  0  0  0  0  0  0
  -30.0721  -22.9829   17.1905 C   0  0  0  0  0  0  0  0  0  0  0  0
  -34.6360  -20.2260   23.0723 C   0  0  0  0  0  0  0  0  0  1  0  0
  -32.7213  -26.4381   19.6151 C   0  0  1  0  0  0  0  0  0  0  0  0
  -29.4526  -25.2080   18.1413 C   0  0  2  0  0  0  0  0  0  0  0  0
  -32.7998  -27.8116   20.3394 C   0  0  0  0  0  0  0  0  0  0  0  0
  -25.8795  -11.5704   20.3104 N   0  0  0  0  0  0  0  0  0  0  0  0
  -26.2339  -12.8548   20.1352 N   0  0  0  0  0  0  0  0  0  0  0  0
  -34.6957  -25.1197   18.9166 N   0  0  0  0  0  0  0  0  0  0  0  0
  -29.9466  -13.7214   20.3541 N   0  0  0  0  0  0  0  0  0  0  0  0
  -25.4228  -15.0753   20.2847 N   0  0  0  0  0  0  0  0  0  0  0  0
  -21.8701  -12.5821   21.5329 N   0  0  0  0  0  0  0  0  0  0  0  0
  -30.0046  -15.8449   21.3788 N   0  0  0  0  0  0  0  0  0  0  0  0
  -37.6422  -26.6740   18.3951 N   0  0  0  0  0  0  0  0  0  0  0  0
  -31.5029  -26.2416   18.8370 N   0  0  0  0  0  0  0  0  0  0  0  0
  -33.7368  -19.4561   25.3059 N   0  3  1  0  0  0  0  0  0  0  0  0
  -29.0195  -23.8175   17.8249 N   0  3  0  0  0  0  0  0  0  0  0  0
  -22.6090  -14.7235   21.1767 O   0  0  0  0  0  0  0  0  0  0  0  0
  -37.3078  -25.0938   20.0724 O   0  0  0  0  0  0  0  0  0  0  0  0
  -34.0276  -27.0048   17.7180 O   0  0  0  0  0  0  0  0  0  0  0  0
  -30.8018  -24.3271   19.9416 O   0  0  0  0  0  0  0  0  0  0  0  0
  -31.8110  -15.0722   20.1452 O   0  0  0  0  0  0  0  0  0  0  0  0
  -21.6997   -7.0234   21.8606 O   0  0  0  0  0  0  0  0  0  0  0  0
  -35.4848  -19.8290   22.0121 O   0  0  0  0  0  0  0  0  0  1  0  0
  -18.6542   -6.9920   26.4571 F   0  0  0  0  0  0  0  0  0  0  0  0
  -22.1623   -5.1666   23.8558 F   0  0  0  0  0  0  0  0  0  0  0  0
  1  2  1  0  0  0  0
  1  5  2  0  0  0  0
  2  6  2  0  0  0  0
  3 10  2  0  0  0  0
  3 18  1  0  0  0  0
  4 11  1  0  0  0  0
  4 18  2  0  0  0  0
  5 20  1  0  0  0  0
  6 23  1  0  0  0  0
  7  9  2  0  0  0  0
  7 22  1  0  0  0  0
  8 12  2  0  0  0  0
  8 21  1  0  0  0  0
  9 26  1  0  0  0  0
 10 27  1  0  0  0  0
 11 27  2  0  0  0  0
 12 28  1  0  0  0  0
 13 14  2  0  0  0  0
 13 29  1  0  0  0  0
 14 30  1  0  0  0  0
 15 24  1  0  0  0  0
 15 26  2  0  0  0  0
 16 25  1  0  0  0  0
 16 28  2  0  0  0  0
 17 30  2  0  0  0  0
 17 31  1  0  0  0  0
 18 32  1  0  0  0  0
 19 32  1  0  0  0  0
 19 33  2  0  0  0  0
 19 34  1  0  0  0  0
 20 23  2  0  0  0  0
 20 39  1  0  0  0  0
 21 25  2  0  0  0  0
 21 40  1  0  0  0  0
 22 24  2  0  0  0  0
 22 43  1  0  0  0  0
 23 50  1  0  0  0  0
 24 41  1  0  0  0  0
 25 42  1  0  0  0  0
 26 70  1  0  0  0  0
 27 80  1  0  0  0  0
 28 81  1  0  0  0  0
 29 31  2  0  0  0  0
 29 80  1  0  0  0  0
 30 82  1  0  0  0  0
 31 83  1  0  0  0  0
 32 64  2  0  0  0  0
 33 65  1  0  0  0  0
 33 68  1  0  0  0  0
 34 69  1  0  0  0  0
 34 75  2  0  0  0  0
 35 51  1  0  0  0  0
 35 71  1  0  0  0  0
 35 76  2  0  0  0  0
 36 61  1  0  0  0  0
 36 66  1  0  0  0  0
 36 77  2  0  0  0  0
 37 62  1  0  0  0  0
 37 72  1  0  0  0  0
 37 78  2  0  0  0  0
 38 67  1  0  0  0  0
 38 70  1  0  0  0  0
 38 79  2  0  0  0  0
 39 44  1  0  0  0  0
 40 51  1  0  0  0  0
 41 53  1  0  0  0  0
 42 66  1  0  0  0  0
 43 73  1  0  0  0  0
 44 46  1  0  0  0  0
 45 47  1  0  0  0  0
 45 48  1  0  0  0  0
 46 50  1  0  0  0  0
 47 52  1  0  0  0  0
 48 67  1  0  0  0  0
 49 52  1  0  0  0  0
 49 67  1  0  0  0  0
 50 71  1  0  0  0  0
 51 66  1  0  0  0  0
 52 65  1  0  0  0  0
 53 60  1  0  0  0  0
 53 73  1  0  0  0  0
 54 62  1  0  0  0  0
 55 63  1  0  0  0  0
 56 63  1  0  0  0  0
 57 63  1  0  0  0  0
 58 73  1  0  0  0  0
 59 74  1  0  0  0  0
 60 81  1  0  0  0  0
 61 63  1  0  0  0  0
 61 72  1  0  0  0  0
 62 74  1  0  0  0  0
 64 65  1  0  0  0  0
M  CHG  2  73   1  74   1
M  ISO  4  38 100  60 101  70 100  81 101
M  END
> <Batch ID>
0146

> <Smiles>
CNC(C)C(=O)NC(C(=O)N1Cc2cc([101O:1][101CH2:1]C3Cc4cc([100NH:0][100C:0](=O)N5CCCC(n6nc(-c7ccc(Oc8ccc(F)cc8F)cc7)c(C(N)=O)c6N)C5)ccc4CN3C)ccc2CC1C(=O)NC1CCCc2ccccc21)C(C)(C)C

> <Shape>
0.211

> <Color>
0.192

> <Negative vol penalty>
0.000

$$$$

  -OEChem-04052321313D

 83 92  0     1  0  0  0  0  0999 V2000
  -27.2975  -33.5944   27.1171 C   0  0  0  0  0  0  0  0  0  0  0  0
  -27.6766  -32.4476   26.4268 C   0  0  0  0  0  0  0  0  0  0  0  0
  -23.4542   -9.2964   20.3947 C   0  0  0  0  0  0  0  0  0  0  0  0
  -23.0546  -10.9445   22.1154 C   0  0  0  0  0  0  0  0  0  0  0  0
  -25.9485  -33.9316   27.2185 C   0  0  0  0  0  0  0  0  0  0  0  0
  -26.7067  -31.6367   25.8384 C   0  0  0  0  0  0  0  0  0  0  0  0
  -27.2204  -28.4822   20.6143 C   0  0  0  0  0  0  0  0  0  0  0  0
  -22.6731   -8.3766   21.0943 C   0  0  0  0  0  0  0  0  0  0  0  0
  -22.2735  -10.0248   22.8150 C   0  0  0  0  0  0  0  0  0  0  0  0
  -27.5109  -27.1443   20.3512 C   0  0  0  0  0  0  0  0  0  0  0  0
  -21.0782   -5.4797   22.6070 C   0  0  0  0  0  0  0  0  0  0  0  0
  -21.5665   -4.1798   22.7391 C   0  0  0  0  0  0  0  0  0  0  0  0
  -25.1511  -26.6691   20.1937 C   0  0  0  0  0  0  0  0  0  0  0  0
  -28.6265  -22.6884   18.2479 C   0  0  0  0  0  0  0  0  0  0  0  0
  -27.9406  -22.1446   20.4996 C   0  0  0  0  0  0  0  0  0  0  0  0
  -23.5115   -5.0278   23.8945 C   0  0  0  0  0  0  0  0  0  0  0  0
  -23.6450  -10.5803   20.9053 C   0  0  0  0  0  0  0  0  0  0  0  0
  -24.0178  -12.4461   19.2060 C   0  0  0  0  0  0  0  0  0  0  0  0
  -24.9622  -33.1297   26.6228 C   0  0  0  0  0  0  0  0  0  0  0  0
  -25.8905  -28.9222   20.6800 C   0  0  0  0  0  0  0  0  0  0  0  0
  -25.3431  -31.9628   25.9331 C   0  0  0  0  0  0  0  0  0  0  0  0
  -24.8464  -28.0136   20.4553 C   0  0  0  0  0  0  0  0  0  0  0  0
  -28.4260  -20.3779   18.9248 C   0  0  0  0  0  0  0  0  0  0  0  0
  -28.2361  -23.0960   19.5234 C   0  0  0  0  0  0  0  0  0  0  0  0
  -28.7214  -21.3293   17.9485 C   0  0  0  0  0  0  0  0  0  0  0  0
  -28.0356  -20.7855   20.2004 C   0  0  0  0  0  0  0  0  0  0  0  0
  -22.0827   -8.7408   22.3044 C   0  0  0  0  0  0  0  0  0  0  0  0
  -26.4762  -26.2369   20.1437 C   0  0  0  0  0  0  0  0  0  0  0  0
  -21.8067   -6.5537   23.1185 C   0  0  0  0  0  0  0  0  0  0  0  0
  -22.7831   -3.9538   23.3829 C   0  0  0  0  0  0  0  0  0  0  0  0
  -23.0233   -6.3277   23.7623 C   0  0  0  0  0  0  0  0  0  0  0  0
  -24.4522  -11.5307   20.1833 C   0  0  0  0  0  0  0  0  0  0  0  0
  -25.1575  -13.1149   18.8312 C   0  0  0  0  0  0  0  0  0  0  0  0
  -22.7018  -12.6717   18.6836 C   0  0  0  0  0  0  0  0  0  0  0  0
  -24.0656  -30.2182   22.9369 C   0  0  0  0  0  0  0  0  0  0  0  0
  -21.9317  -30.4895   20.5088 C   0  0  0  0  0  0  0  0  0  0  0  0
  -20.8438  -29.3801   17.4704 C   0  0  0  0  0  0  0  0  0  0  0  0
  -29.9237  -15.7134   20.1257 C   0  0  0  0  0  0  0  0  0  0  0  0
  -23.5134  -33.5094   26.7996 C   0  0  0  0  0  0  0  0  0  0  0  0
  -25.5944  -30.3741   20.9384 C   0  0  0  0  0  0  0  0  0  0  0  0
  -23.4023  -28.4395   20.4951 C   0  0  0  0  0  0  0  0  0  0  0  0
  -22.5745  -32.7985   25.8284 C   0  0  0  0  0  0  0  0  0  0  0  0
  -30.0193  -12.1646   19.8541 C   0  0  0  0  0  0  0  0  0  0  0  0
  -22.8955  -31.3084   25.7697 C   0  0  0  0  0  0  0  0  0  0  0  0
  -28.5444  -11.7589   19.8413 C   0  0  0  0  0  0  0  0  0  0  0  0
  -29.8191  -18.3854   18.0517 C   0  0  0  0  0  0  0  0  0  0  0  0
  -30.2704  -13.3503   20.7831 C   0  0  0  0  0  0  0  0  0  0  0  0
  -27.9454  -14.1224   20.5148 C   0  0  0  0  0  0  0  0  0  0  0  0
  -28.5278  -18.9206   18.6039 C   0  0  1  0  0  0  0  0  0  0  0  0
  -24.3223  -31.0711   25.2602 C   0  0  1  0  0  0  0  0  0  0  0  0
  -24.1922  -30.6087   21.4915 C   0  0  1  0  0  0  0  0  0  0  0  0
  -27.6333  -12.9663   19.5493 C   0  0  2  0  0  0  0  0  0  0  0  0
  -29.4165  -18.0489   19.4570 C   0  0  1  0  0  0  0  0  0  0  0  0
  -29.1419  -20.9211   16.5743 C   0  0  0  0  0  0  0  0  0  0  0  0
  -27.7132  -19.7883   21.2651 C   0  0  0  0  0  0  0  0  0  0  0  0
  -19.0537  -29.7715   15.7559 C   0  0  0  0  0  0  0  0  0  0  0  0
  -19.9196  -29.0331   22.2809 C   0  0  0  0  0  0  0  0  0  0  0  0
  -18.5295  -28.6167   20.2407 C   0  0  0  0  0  0  0  0  0  0  0  0
  -18.9735  -30.9544   20.9894 C   0  0  0  0  0  0  0  0  0  0  0  0
  -22.8269  -30.1014   15.3952 C   0  0  0  0  0  0  0  0  0  0  0  0
  -28.1339  -24.5579   19.8453 C   0  0  0  0  0  0  0  0  0  1  0  0
  -20.8421  -29.6130   19.9402 C   0  0  1  0  0  0  0  0  0  0  0  0
  -20.4636  -30.1247   16.2033 C   0  0  2  0  0  0  0  0  0  0  0  0
  -19.5932  -29.5455   20.8639 C   0  0  0  0  0  0  0  0  0  0  0  0
  -25.7654  -11.6081   20.4148 N   0  0  0  0  0  0  0  0  0  0  0  0
  -26.1660  -12.5800   19.5775 N   0  0  0  0  0  0  0  0  0  0  0  0
  -23.1639  -29.8684   20.7576 N   0  0  0  0  0  0  0  0  0  0  0  0
  -29.3756  -14.4620   20.4523 N   0  0  0  0  0  0  0  0  0  0  0  0
  -25.3853  -14.1023   17.9393 N   0  0  0  0  0  0  0  0  0  0  0  0
  -21.6443  -11.8969   19.1792 N   0  0  0  0  0  0  0  0  0  0  0  0
  -24.3788  -31.2313   23.8229 N   0  0  0  0  0  0  0  0  0  0  0  0
  -20.5676  -30.1205   18.6003 N   0  0  0  0  0  0  0  0  0  0  0  0
  -29.0060  -16.7105   19.8189 N   0  0  0  0  0  0  0  0  0  0  0  0
  -21.4058  -29.7844   15.1000 N   0  3  0  0  0  0  0  0  0  0  0  0
  -22.4732  -13.5236   17.7917 O   0  0  0  0  0  0  0  0  0  0  0  0
  -23.7085  -29.0823   23.2268 O   0  0  0  0  0  0  0  0  0  0  0  0
  -21.7004  -31.6830   20.7178 O   0  0  0  0  0  0  0  0  0  0  0  0
  -21.3333  -28.2528   17.4590 O   0  0  0  0  0  0  0  0  0  0  0  0
  -31.1410  -15.9248   20.1036 O   0  0  0  0  0  0  0  0  0  0  0  0
  -21.3202   -7.8436   22.9873 O   0  0  0  0  0  0  0  0  0  0  0  0
  -26.7570  -24.9302   19.8873 O   0  0  0  0  0  0  0  0  0  1  0  0
  -23.2510   -2.7053   23.5111 F   0  0  0  0  0  0  0  0  0  0  0  0
  -23.7270   -7.3553   24.2569 F   0  0  0  0  0  0  0  0  0  0  0  0
  1  2  1  0  0  0  0
  1  5  2  0  0  0  0
  2  6  2  0  0  0  0
  3  8  2  0  0  0  0
  3 17  1  0  0  0  0
  4  9  1  0  0  0  0
  4 17  2  0  0  0  0
  5 19  1  0  0  0  0
  6 21  1  0  0  0  0
  7 10  2  0  0  0  0
  7 20  1  0  0  0  0
  8 27  1  0  0  0  0
  9 27  2  0  0  0  0
 10 28  1  0  0  0  0
 11 12  2  0  0  0  0
 11 29  1  0  0  0  0
 12 30  1  0  0  0  0
 13 22  1  0  0  0  0
 13 28  2  0  0  0  0
 14 24  1  0  0  0  0
 14 25  2  0  0  0  0
 15 24  2  0  0  0  0
 15 26  1  0  0  0  0
 16 30  2  0  0  0  0
 16 31  1  0  0  0  0
 17 32  1  0  0  0  0
 18 32  1  0  0  0  0
 18 33  2  0  0  0  0
 18 34  1  0  0  0  0
 19 21  2  0  0  0  0
 19 39  1  0  0  0  0
 20 22  2  0  0  0  0
 20 40  1  0  0  0  0
 21 50  1  0  0  0  0
 22 41  1  0  0  0  0
 23 25  1  0  0  0  0
 23 26  2  0  0  0  0
 23 49  1  0  0  0  0
 24 61  1  0  0  0  0
 25 54  1  0  0  0  0
 26 55  1  0  0  0  0
 27 80  1  0  0  0  0
 28 81  1  0  0  0  0
 29 31  2  0  0  0  0
 29 80  1  0  0  0  0
 30 82  1  0  0  0  0
 31 83  1  0  0  0  0
 32 65  2  0  0  0  0
 33 66  1  0  0  0  0
 33 69  1  0  0  0  0
 34 70  1  0  0  0  0
 34 75  2  0  0  0  0
 35 51  1  0  0  0  0
 35 71  1  0  0  0  0
 35 76  2  0  0  0  0
 36 62  1  0  0  0  0
 36 67  1  0  0  0  0
 36 77  2  0  0  0  0
 37 63  1  0  0  0  0
 37 72  1  0  0  0  0
 37 78  2  0  0  0  0
 38 68  1  0  0  0  0
 38 73  1  0  0  0  0
 38 79  2  0  0  0  0
 39 42  1  0  0  0  0
 40 51  1  0  0  0  0
 41 67  1  0  0  0  0
 42 44  1  0  0  0  0
 43 45  1  0  0  0  0
 43 47  1  0  0  0  0
 44 50  1  0  0  0  0
 45 52  1  0  0  0  0
 46 49  1  0  0  0  0
 46 53  1  0  0  0  0
 47 68  1  0  0  0  0
 48 52  1  0  0  0  0
 48 68  1  0  0  0  0
 49 53  1  0  0  0  0
 50 71  1  0  0  0  0
 51 67  1  0  0  0  0
 52 66  1  0  0  0  0
 53 73  1  0  0  0  0
 56 63  1  0  0  0  0
 57 64  1  0  0  0  0
 58 64  1  0  0  0  0
 59 64  1  0  0  0  0
 60 74  1  0  0  0  0
 61 81  1  0  0  0  0
 62 64  1  0  0  0  0
 62 72  1  0  0  0  0
 63 74  1  0  0  0  0
 65 66  1  0  0  0  0
M  CHG  1  74   1
M  ISO  4  38 100  61 101  73 100  81 101
M  END
> <Batch ID>
0146

> <Smiles>
CNC(C)C(=O)NC(C(=O)N1Cc2cc([101O:1][101CH2:1]c3cc(C)c(C4CC4[100NH:0][100C:0](=O)N4CCCC(n5nc(-c6ccc(Oc7ccc(F)cc7F)cc6)c(C(N)=O)c5N)C4)c(C)c3)ccc2CC1C(=O)NC1CCCc2ccccc21)C(C)(C)C

> <Shape>
0.309

> <Color>
0.107

> <Negative vol penalty>
0.000

$$$$

  -OEChem-04052321313D

 87 96  0     1  0  0  0  0  0999 V2000
  -16.7719  -29.1506   24.2379 C   0  0  0  0  0  0  0  0  0  0  0  0
  -17.3752  -28.2072   23.4124 C   0  0  0  0  0  0  0  0  0  0  0  0
  -30.5783  -13.0604   19.8950 C   0  0  0  0  0  0  0  0  0  0  0  0
  -28.3541  -13.4036   19.0161 C   0  0  0  0  0  0  0  0  0  0  0  0
  -17.2664  -30.4534   24.2834 C   0  0  0  0  0  0  0  0  0  0  0  0
  -18.4729  -28.5664   22.6311 C   0  0  0  0  0  0  0  0  0  0  0  0
  -26.0411  -20.4107   16.5643 C   0  0  0  0  0  0  0  0  0  0  0  0
  -22.1816  -25.1218   22.7905 C   0  0  0  0  0  0  0  0  0  0  0  0
  -25.9590  -19.0453   16.2918 C   0  0  0  0  0  0  0  0  0  0  0  0
  -30.3317  -11.6904   19.9840 C   0  0  0  0  0  0  0  0  0  0  0  0
  -28.1076  -12.0336   19.1051 C   0  0  0  0  0  0  0  0  0  0  0  0
  -22.0170  -23.9728   22.0183 C   0  0  0  0  0  0  0  0  0  0  0  0
  -26.7647   -8.6727   19.4379 C   0  0  0  0  0  0  0  0  0  0  0  0
  -25.5413   -8.2674   19.9714 C   0  0  0  0  0  0  0  0  0  0  0  0
  -23.4621  -24.9087   20.3286 C   0  0  0  0  0  0  0  0  0  0  0  0
  -24.7265  -18.7100   18.3426 C   0  0  0  0  0  0  0  0  0  0  0  0
  -26.0715   -9.3929   22.0425 C   0  0  0  0  0  0  0  0  0  0  0  0
  -29.5895  -13.9170   19.4111 C   0  0  0  0  0  0  0  0  0  0  0  0
  -30.3841  -16.0298   18.2227 C   0  0  0  0  0  0  0  0  0  0  0  0
  -18.3767  -30.8262   23.5094 C   0  0  0  0  0  0  0  0  0  0  0  0
  -22.9803  -26.1793   22.3319 C   0  0  0  0  0  0  0  0  0  0  0  0
  -18.9819  -29.8757   22.6652 C   0  0  0  0  0  0  0  0  0  0  0  0
  -25.4660  -20.9259   17.7261 C   0  0  0  0  0  0  0  0  0  0  0  0
  -23.6372  -26.0690   21.0981 C   0  0  0  0  0  0  0  0  0  0  0  0
  -25.3017  -18.1949   17.1809 C   0  0  0  0  0  0  0  0  0  0  0  0
  -29.0964  -11.1770   19.5890 C   0  0  0  0  0  0  0  0  0  0  0  0
  -22.6550  -23.8673   20.7858 C   0  0  0  0  0  0  0  0  0  0  0  0
  -27.6416   -9.4380   20.2068 C   0  0  0  0  0  0  0  0  0  0  0  0
  -24.8087  -20.0756   18.6151 C   0  0  0  0  0  0  0  0  0  0  0  0
  -25.1946   -8.6275   21.2736 C   0  0  0  0  0  0  0  0  0  0  0  0
  -27.2950   -9.7981   21.5090 C   0  0  0  0  0  0  0  0  0  0  0  0
  -29.8433  -15.3324   19.3195 C   0  0  0  0  0  0  0  0  0  0  0  0
  -30.4229  -17.3397   18.6339 C   0  0  0  0  0  0  0  0  0  0  0  0
  -30.8131  -15.5376   16.9462 C   0  0  0  0  0  0  0  0  0  0  0  0
  -22.4619  -29.2298   21.6044 C   0  0  0  0  0  0  0  0  0  0  0  0
  -25.6877  -29.2932   21.2682 C   0  0  0  0  0  0  0  0  0  0  0  0
  -28.5723  -27.5714   20.6671 C   0  0  0  0  0  0  0  0  0  0  0  0
  -28.0448  -21.7305   21.1260 C   0  0  0  0  0  0  0  0  0  0  0  0
  -18.8462  -32.2587   23.5563 C   0  0  0  0  0  0  0  0  0  0  0  0
  -23.1691  -27.4008   23.1890 C   0  0  0  0  0  0  0  0  0  0  0  0
  -24.5218  -27.1676   20.5697 C   0  0  0  0  0  0  0  0  0  0  0  0
  -20.2452  -32.4603   22.9797 C   0  0  0  0  0  0  0  0  0  0  0  0
  -29.7152  -19.3760   23.2099 C   0  0  0  0  0  0  0  0  0  0  0  0
  -20.3833  -31.7317   21.6467 C   0  0  0  0  0  0  0  0  0  0  0  0
  -29.9362  -18.1700   22.2951 C   0  0  0  0  0  0  0  0  0  0  0  0
  -25.1236  -23.4226   16.8922 C   0  0  0  0  0  0  0  0  0  0  0  0
  -28.3809  -20.0624   22.9263 C   0  0  0  0  0  0  0  0  0  0  0  0
  -28.3896  -19.2397   20.6032 C   0  0  0  0  0  0  0  0  0  0  0  0
  -25.5662  -22.4487   18.0151 C   0  0  2  0  0  0  0  0  0  0  0  0
  -20.1899  -30.2206   21.8214 C   0  0  1  0  0  0  0  0  0  0  0  0
  -23.5928  -28.6305   22.3916 C   0  0  1  0  0  0  0  0  0  0  0  0
  -26.2428  -24.3754   17.3736 C   0  0  1  0  0  0  0  0  0  0  0  0
  -26.9741  -23.1111   17.9138 C   0  0  1  0  0  0  0  0  0  0  0  0
  -29.7474  -18.5480   20.8136 C   0  0  2  0  0  0  0  0  0  0  0  0
  -25.2129  -16.7351   16.8890 C   0  0  0  0  0  0  0  0  0  0  0  0
  -26.9614  -25.1686   16.3005 C   0  0  0  0  0  0  0  0  0  0  0  0
  -31.0474  -27.9011   20.4166 C   0  0  0  0  0  0  0  0  0  0  0  0
  -25.2489  -30.4494   18.4789 C   0  0  0  0  0  0  0  0  0  0  0  0
  -27.6245  -29.8701   17.9410 C   0  0  0  0  0  0  0  0  0  0  0  0
  -27.1215  -31.5002   19.7610 C   0  0  0  0  0  0  0  0  0  0  0  0
  -29.1577  -25.8045   22.9680 C   0  0  0  0  0  0  0  0  0  0  0  0
  -27.7351  -23.2823   19.2142 C   0  0  0  0  0  0  0  0  0  0  0  0
  -22.2662  -21.5219   20.7243 C   0  0  0  0  0  0  0  0  0  1  0  0
  -22.8371  -20.3768   19.9104 C   0  0  0  0  0  0  0  0  0  0  0  0
  -26.6492  -29.0442   20.1314 C   0  0  1  0  0  0  0  0  0  0  0  0
  -29.9141  -27.5751   21.3769 C   0  0  2  0  0  0  0  0  0  0  0  0
  -26.6428  -30.1959   19.0869 C   0  0  0  0  0  0  0  0  0  0  0  0
  -29.5591  -16.1330   20.3501 N   0  0  0  0  0  0  0  0  0  0  0  0
  -29.9227  -17.3469   19.9028 N   0  0  0  0  0  0  0  0  0  0  0  0
  -24.6699  -28.3446   21.4416 N   0  0  0  0  0  0  0  0  0  0  0  0
  -28.2655  -20.3960   21.5046 N   0  0  0  0  0  0  0  0  0  0  0  0
  -30.8357  -18.4745   18.0304 N   0  0  0  0  0  0  0  0  0  0  0  0
  -30.7037  -14.1642   16.6885 N   0  0  0  0  0  0  0  0  0  0  0  0
  -21.3836  -29.6190   22.3760 N   0  0  0  0  0  0  0  0  0  0  0  0
  -27.9507  -28.7999   20.7435 N   0  0  0  0  0  0  0  0  0  0  0  0
  -27.9541  -21.9609   19.7588 N   0  0  0  0  0  0  0  0  0  0  0  0
  -30.1822  -26.2411   21.9848 N   0  3  0  0  0  0  0  0  0  0  0  0
  -31.2947  -16.2908   16.0663 O   0  0  0  0  0  0  0  0  0  0  0  0
  -22.5610  -29.3329   20.3874 O   0  0  0  0  0  0  0  0  0  0  0  0
  -25.8385  -30.2887   21.9808 O   0  0  0  0  0  0  0  0  0  0  0  0
  -28.1224  -26.5792   20.0982 O   0  0  0  0  0  0  0  0  0  0  0  0
  -27.9418  -22.6495   21.9456 O   0  0  0  0  0  0  0  0  0  0  0  0
  -28.8555   -9.8402   19.6755 O   0  0  0  0  0  0  0  0  0  0  0  0
  -22.4955  -22.7471   20.0297 O   0  0  0  0  0  0  0  0  0  1  0  0
  -24.2386  -20.5672   19.7598 O   0  0  0  0  0  0  0  0  0  0  0  0
  -24.0191   -8.2396   21.7852 F   0  0  0  0  0  0  0  0  0  0  0  0
  -28.1328  -10.5342   22.2521 F   0  0  0  0  0  0  0  0  0  0  0  0
  1  2  1  0  0  0  0
  1  5  2  0  0  0  0
  2  6  2  0  0  0  0
  3 10  2  0  0  0  0
  3 18  1  0  0  0  0
  4 11  1  0  0  0  0
  4 18  2  0  0  0  0
  5 20  1  0  0  0  0
  6 22  1  0  0  0  0
  7  9  2  0  0  0  0
  7 23  1  0  0  0  0
  8 12  2  0  0  0  0
  8 21  1  0  0  0  0
  9 25  1  0  0  0  0
 10 26  1  0  0  0  0
 11 26  2  0  0  0  0
 12 27  1  0  0  0  0
 13 14  2  0  0  0  0
 13 28  1  0  0  0  0
 14 30  1  0  0  0  0
 15 24  1  0  0  0  0
 15 27  2  0  0  0  0
 16 25  2  0  0  0  0
 16 29  1  0  0  0  0
 17 30  2  0  0  0  0
 17 31  1  0  0  0  0
 18 32  1  0  0  0  0
 19 32  1  0  0  0  0
 19 33  2  0  0  0  0
 19 34  1  0  0  0  0
 20 22  2  0  0  0  0
 20 39  1  0  0  0  0
 21 24  2  0  0  0  0
 21 40  1  0  0  0  0
 22 50  1  0  0  0  0
 23 29  2  0  0  0  0
 23 49  1  0  0  0  0
 24 41  1  0  0  0  0
 25 55  1  0  0  0  0
 26 83  1  0  0  0  0
 27 84  1  0  0  0  0
 28 31  2  0  0  0  0
 28 83  1  0  0  0  0
 29 85  1  0  0  0  0
 30 86  1  0  0  0  0
 31 87  1  0  0  0  0
 32 68  2  0  0  0  0
 33 69  1  0  0  0  0
 33 72  1  0  0  0  0
 34 73  1  0  0  0  0
 34 78  2  0  0  0  0
 35 51  1  0  0  0  0
 35 74  1  0  0  0  0
 35 79  2  0  0  0  0
 36 65  1  0  0  0  0
 36 70  1  0  0  0  0
 36 80  2  0  0  0  0
 37 66  1  0  0  0  0
 37 75  1  0  0  0  0
 37 81  2  0  0  0  0
 38 71  1  0  0  0  0
 38 76  1  0  0  0  0
 38 82  2  0  0  0  0
 39 42  1  0  0  0  0
 40 51  1  0  0  0  0
 41 70  1  0  0  0  0
 42 44  1  0  0  0  0
 43 45  1  0  0  0  0
 43 47  1  0  0  0  0
 44 50  1  0  0  0  0
 45 54  1  0  0  0  0
 46 49  1  0  0  0  0
 46 52  1  0  0  0  0
 47 71  1  0  0  0  0
 48 54  1  0  0  0  0
 48 71  1  0  0  0  0
 49 53  1  0  0  0  0
 50 74  1  0  0  0  0
 51 70  1  0  0  0  0
 52 53  1  0  0  0  0
 52 56  1  0  0  0  0
 53 62  1  0  0  0  0
 54 69  1  0  0  0  0
 57 66  1  0  0  0  0
 58 67  1  0  0  0  0
 59 67  1  0  0  0  0
 60 67  1  0  0  0  0
 61 77  1  0  0  0  0
 62 76  1  0  0  0  0
 63 64  1  0  0  0  0
 63 84  1  0  0  0  0
 64 85  1  0  0  0  0
 65 67  1  0  0  0  0
 65 75  1  0  0  0  0
 66 77  1  0  0  0  0
 68 69  1  0  0  0  0
M  CHG  1  77   1
M  ISO  4  38 100  63 101  76 100  84 101
M  END
> <Batch ID>
0146

> <Smiles>
CNC(C)C(=O)NC(C(=O)N1Cc2cc([101O:1][101CH2:1]COc3cc(C)ccc3C3CC(C)C3C[100NH:0][100C:0](=O)N3CCCC(n4nc(-c5ccc(Oc6ccc(F)cc6F)cc5)c(C(N)=O)c4N)C3)ccc2CC1C(=O)NC1CCCc2ccccc21)C(C)(C)C

> <Shape>
0.220

> <Color>
0.071

> <Negative vol penalty>
0.000

$$$$

  -OEChem-04052321313D

 89 98  0     1  0  0  0  0  0999 V2000
  -16.7722  -26.6051   25.2883 C   0  0  0  0  0  0  0  0  0  0  0  0
  -17.9858  -25.9263   25.2446 C   0  0  0  0  0  0  0  0  0  0  0  0
  -24.8700   -8.8421   22.3734 C   0  0  0  0  0  0  0  0  0  0  0  0
  -25.1871   -7.9169   20.1642 C   0  0  0  0  0  0  0  0  0  0  0  0
  -16.6110  -27.7893   24.5703 C   0  0  0  0  0  0  0  0  0  0  0  0
  -19.0385  -26.4308   24.4820 C   0  0  0  0  0  0  0  0  0  0  0  0
  -25.0142  -26.1015   25.7817 C   0  0  0  0  0  0  0  0  0  0  0  0
  -30.0213  -24.2256   18.7674 C   0  0  0  0  0  0  0  0  0  0  0  0
  -30.3651  -23.8383   20.0625 C   0  0  0  0  0  0  0  0  0  0  0  0
  -23.6079   -8.2519   22.4394 C   0  0  0  0  0  0  0  0  0  0  0  0
  -23.9249   -7.3267   20.2302 C   0  0  0  0  0  0  0  0  0  0  0  0
  -26.0223  -25.2415   25.3484 C   0  0  0  0  0  0  0  0  0  0  0  0
  -22.3209   -5.1852   23.0490 C   0  0  0  0  0  0  0  0  0  0  0  0
  -21.9742   -4.5264   24.2285 C   0  0  0  0  0  0  0  0  0  0  0  0
  -26.6622  -26.8486   23.6671 C   0  0  0  0  0  0  0  0  0  0  0  0
  -29.2053  -21.9966   18.3173 C   0  0  0  0  0  0  0  0  0  0  0  0
  -20.1037   -6.0279   24.5175 C   0  0  0  0  0  0  0  0  0  0  0  0
  -25.6596   -8.6746   21.2357 C   0  0  0  0  0  0  0  0  0  0  0  0
  -28.1872   -8.7231   21.5772 C   0  0  0  0  0  0  0  0  0  0  0  0
  -17.6654  -28.3137   23.8062 C   0  0  0  0  0  0  0  0  0  0  0  0
  -24.8151  -27.3390   25.1528 C   0  0  0  0  0  0  0  0  0  0  0  0
  -18.8908  -27.6224   23.7520 C   0  0  0  0  0  0  0  0  0  0  0  0
  -25.6525  -27.7236   24.0960 C   0  0  0  0  0  0  0  0  0  0  0  0
  -29.4413  -23.3048   17.8948 C   0  0  0  0  0  0  0  0  0  0  0  0
  -30.1291  -22.5301   20.4850 C   0  0  0  0  0  0  0  0  0  0  0  0
  -23.1353   -7.4942   21.3678 C   0  0  0  0  0  0  0  0  0  0  0  0
  -26.8447  -25.6138   24.2890 C   0  0  0  0  0  0  0  0  0  0  0  0
  -21.5589   -6.2654   22.6037 C   0  0  0  0  0  0  0  0  0  0  0  0
  -29.5492  -21.6092   19.6124 C   0  0  0  0  0  0  0  0  0  0  0  0
  -20.8656   -4.9477   24.9628 C   0  0  0  0  0  0  0  0  0  0  0  0
  -20.4503   -6.6868   23.3379 C   0  0  0  0  0  0  0  0  0  0  0  0
  -26.9632   -9.2845   21.1667 C   0  0  0  0  0  0  0  0  0  0  0  0
  -29.1192   -9.6941   21.3035 C   0  0  0  0  0  0  0  0  0  0  0  0
  -28.4574   -7.4387   22.1544 C   0  0  0  0  0  0  0  0  0  0  0  0
  -22.4260  -28.6756   23.5374 C   0  0  0  0  0  0  0  0  0  0  0  0
  -24.3480  -31.2873   23.6199 C   0  0  0  0  0  0  0  0  0  0  0  0
  -27.5039  -32.5542   23.9069 C   0  0  0  0  0  0  0  0  0  0  0  0
  -28.9273  -15.4590   20.9612 C   0  0  0  0  0  0  0  0  0  0  0  0
  -17.4285  -29.5720   23.0091 C   0  0  0  0  0  0  0  0  0  0  0  0
  -23.7404  -28.2667   25.6496 C   0  0  0  0  0  0  0  0  0  0  0  0
  -25.4932  -29.0500   23.4003 C   0  0  0  0  0  0  0  0  0  0  0  0
  -18.7142  -30.2373   22.5248 C   0  0  0  0  0  0  0  0  0  0  0  0
  -29.9685  -13.3549   18.3514 C   0  0  0  0  0  0  0  0  0  0  0  0
  -19.6549  -29.2017   21.9169 C   0  0  0  0  0  0  0  0  0  0  0  0
  -29.4313  -12.0025   18.8193 C   0  0  0  0  0  0  0  0  0  0  0  0
  -30.8989  -18.5006   20.1812 C   0  0  0  0  0  0  0  0  0  0  0  0
  -28.9136  -18.3809   18.6147 C   0  0  0  0  0  0  0  0  0  0  0  0
  -28.9783  -14.4891   18.6210 C   0  0  0  0  0  0  0  0  0  0  0  0
  -30.1534  -17.5904   21.1559 C   0  0  0  0  0  0  0  0  0  0  0  0
  -28.2126  -17.4771   19.6263 C   0  0  0  0  0  0  0  0  0  0  0  0
  -27.9858  -13.2158   20.4945 C   0  0  0  0  0  0  0  0  0  0  0  0
  -20.0643  -28.1510   22.9560 C   0  0  1  0  0  0  0  0  0  0  0  0
  -23.2964  -29.2823   24.6014 C   0  0  1  0  0  0  0  0  0  0  0  0
  -28.9833  -12.0649   20.2904 C   0  0  1  0  0  0  0  0  0  0  0  0
  -29.9560  -19.2880   19.2707 C   0  0  0  0  0  0  0  0  0  0  0  0
  -29.0732  -23.7197   16.5103 C   0  0  0  0  0  0  0  0  0  0  0  0
  -31.9963  -22.3237   22.1773 C   0  0  0  0  0  0  0  0  0  0  0  0
  -28.7637  -34.7244   23.8984 C   0  0  0  0  0  0  0  0  0  0  0  0
  -24.0630  -31.4381   20.5857 C   0  0  0  0  0  0  0  0  0  0  0  0
  -26.0402  -32.9735   20.5461 C   0  0  0  0  0  0  0  0  0  0  0  0
  -23.9641  -33.6472   21.7538 C   0  0  0  0  0  0  0  0  0  0  0  0
  -28.4840  -32.1298   26.6670 C   0  0  0  0  0  0  0  0  0  0  0  0
  -28.2757  -22.6189   22.8906 C   0  0  0  0  0  0  0  0  0  0  0  0
  -27.6048  -23.3765   24.0194 C   0  0  0  0  0  0  0  0  0  1  0  0
  -30.5049  -22.1328   21.8741 C   0  0  1  0  0  0  0  0  0  0  0  0
  -25.4375  -31.8414   22.7338 C   0  0  1  0  0  0  0  0  0  0  0  0
  -28.0634  -33.6816   24.7556 C   0  0  2  0  0  0  0  0  0  0  0  0
  -24.8782  -32.4491   21.4165 C   0  0  0  0  0  0  0  0  0  0  0  0
  -27.1018  -10.5166   20.6700 N   0  0  0  0  0  0  0  0  0  0  0  0
  -28.4239  -10.7375   20.7668 N   0  0  0  0  0  0  0  0  0  0  0  0
  -24.4241  -29.9195   23.9185 N   0  0  0  0  0  0  0  0  0  0  0  0
  -28.5502  -14.4833   20.0262 N   0  0  0  0  0  0  0  0  0  0  0  0
  -29.1743  -16.7508   20.4664 N   0  0  0  0  0  0  0  0  0  0  0  0
  -30.4575   -9.7486   21.4720 N   0  0  0  0  0  0  0  0  0  0  0  0
  -27.3842   -6.5630   22.3679 N   0  0  0  0  0  0  0  0  0  0  0  0
  -21.0780  -28.6836   23.8410 N   0  0  0  0  0  0  0  0  0  0  0  0
  -26.1909  -32.7838   23.5540 N   0  0  0  0  0  0  0  0  0  0  0  0
  -29.0445  -33.1490   25.7429 N   0  3  0  0  0  0  0  0  0  0  0  0
  -29.7344  -22.8694   22.9332 N   0  3  0  0  0  0  0  0  0  0  0  0
  -29.6141   -7.0847   22.4865 O   0  0  0  0  0  0  0  0  0  0  0  0
  -22.9394  -28.2342   22.5159 O   0  0  0  0  0  0  0  0  0  0  0  0
  -23.4662  -32.0419   24.0377 O   0  0  0  0  0  0  0  0  0  0  0  0
  -28.1666  -31.5701   23.5859 O   0  0  0  0  0  0  0  0  0  0  0  0
  -29.0407  -15.1940   22.1645 O   0  0  0  0  0  0  0  0  0  0  0  0
  -21.9039   -6.9180   21.4320 O   0  0  0  0  0  0  0  0  0  0  0  0
  -29.3094  -20.3207   20.0116 O   0  0  0  0  0  0  0  0  0  0  0  0
  -27.8361  -24.7700   23.8606 O   0  0  0  0  0  0  0  0  0  1  0  0
  -20.5320   -4.3140   26.0947 F   0  0  0  0  0  0  0  0  0  0  0  0
  -19.7138   -7.7232   22.9145 F   0  0  0  0  0  0  0  0  0  0  0  0
  1  2  1  0  0  0  0
  1  5  2  0  0  0  0
  2  6  2  0  0  0  0
  3 10  2  0  0  0  0
  3 18  1  0  0  0  0
  4 11  1  0  0  0  0
  4 18  2  0  0  0  0
  5 20  1  0  0  0  0
  6 22  1  0  0  0  0
  7 12  2  0  0  0  0
  7 21  1  0  0  0  0
  8  9  2  0  0  0  0
  8 24  1  0  0  0  0
  9 25  1  0  0  0  0
 10 26  1  0  0  0  0
 11 26  2  0  0  0  0
 12 27  1  0  0  0  0
 13 14  2  0  0  0  0
 13 28  1  0  0  0  0
 14 30  1  0  0  0  0
 15 23  1  0  0  0  0
 15 27  2  0  0  0  0
 16 24  2  0  0  0  0
 16 29  1  0  0  0  0
 17 30  2  0  0  0  0
 17 31  1  0  0  0  0
 18 32  1  0  0  0  0
 19 32  1  0  0  0  0
 19 33  2  0  0  0  0
 19 34  1  0  0  0  0
 20 22  2  0  0  0  0
 20 39  1  0  0  0  0
 21 23  2  0  0  0  0
 21 40  1  0  0  0  0
 22 52  1  0  0  0  0
 23 41  1  0  0  0  0
 24 56  1  0  0  0  0
 25 29  2  0  0  0  0
 25 65  1  0  0  0  0
 26 85  1  0  0  0  0
 27 87  1  0  0  0  0
 28 31  2  0  0  0  0
 28 85  1  0  0  0  0
 29 86  1  0  0  0  0
 30 88  1  0  0  0  0
 31 89  1  0  0  0  0
 32 69  2  0  0  0  0
 33 70  1  0  0  0  0
 33 74  1  0  0  0  0
 34 75  1  0  0  0  0
 34 80  2  0  0  0  0
 35 53  1  0  0  0  0
 35 76  1  0  0  0  0
 35 81  2  0  0  0  0
 36 66  1  0  0  0  0
 36 71  1  0  0  0  0
 36 82  2  0  0  0  0
 37 67  1  0  0  0  0
 37 77  1  0  0  0  0
 37 83  2  0  0  0  0
 38 72  1  0  0  0  0
 38 73  1  0  0  0  0
 38 84  2  0  0  0  0
 39 42  1  0  0  0  0
 40 53  1  0  0  0  0
 41 71  1  0  0  0  0
 42 44  1  0  0  0  0
 43 45  1  0  0  0  0
 43 48  1  0  0  0  0
 44 52  1  0  0  0  0
 45 54  1  0  0  0  0
 46 49  1  0  0  0  0
 46 55  1  0  0  0  0
 47 50  1  0  0  0  0
 47 55  1  0  0  0  0
 48 72  1  0  0  0  0
 49 73  1  0  0  0  0
 50 73  1  0  0  0  0
 51 54  1  0  0  0  0
 51 72  1  0  0  0  0
 52 76  1  0  0  0  0
 53 71  1  0  0  0  0
 54 70  1  0  0  0  0
 55 86  1  0  0  0  0
 57 65  1  0  0  0  0
 58 67  1  0  0  0  0
 59 68  1  0  0  0  0
 60 68  1  0  0  0  0
 61 68  1  0  0  0  0
 62 78  1  0  0  0  0
 63 64  1  0  0  0  0
 63 79  1  0  0  0  0
 64 87  1  0  0  0  0
 65 79  1  0  0  0  0
 66 68  1  0  0  0  0
 66 77  1  0  0  0  0
 67 78  1  0  0  0  0
 69 70  1  0  0  0  0
M  CHG  2  78   1  79   1
M  ISO  4  38 100  64 101  73 100  87 101
M  END
> <Batch ID>
0146

> <Smiles>
CNC(C)C(=O)NC(C(=O)N1Cc2cc([101O:1][101CH2:1]CNC(C)c3ccc(C)cc3OC3CC[100N:0]([100C:0](=O)N4CCCC(n5nc(-c6ccc(Oc7ccc(F)cc7F)cc6)c(C(N)=O)c5N)C4)CC3)ccc2CC1C(=O)NC1CCCc2ccccc21)C(C)(C)C

> <Shape>
0.284

> <Color>
0.103

> <Negative vol penalty>
0.000

$$$$

  -OEChem-04052321313D

 84 93  0     1  0  0  0  0  0999 V2000
  -26.7157  -33.9679   26.1655 C   0  0  0  0  0  0  0  0  0  0  0  0
  -27.1408  -32.8229   25.4995 C   0  0  0  0  0  0  0  0  0  0  0  0
  -25.1868  -13.5417   21.2989 C   0  0  0  0  0  0  0  0  0  0  0  0
  -25.9576  -13.2030   19.0344 C   0  0  0  0  0  0  0  0  0  0  0  0
  -25.3698  -34.1222   26.4951 C   0  0  0  0  0  0  0  0  0  0  0  0
  -26.2203  -31.8308   25.1637 C   0  0  0  0  0  0  0  0  0  0  0  0
  -26.8333  -30.1332   20.4321 C   0  0  0  0  0  0  0  0  0  0  0  0
  -25.0440  -12.1632   21.4565 C   0  0  0  0  0  0  0  0  0  0  0  0
  -25.8148  -11.8245   19.1919 C   0  0  0  0  0  0  0  0  0  0  0  0
  -27.8742  -29.2330   20.2085 C   0  0  0  0  0  0  0  0  0  0  0  0
  -22.8197   -9.7737   20.5804 C   0  0  0  0  0  0  0  0  0  0  0  0
  -21.6511   -9.3087   21.1835 C   0  0  0  0  0  0  0  0  0  0  0  0
  -26.2990  -27.4069   20.2653 C   0  0  0  0  0  0  0  0  0  0  0  0
  -27.3187  -25.1023   15.7274 C   0  0  0  0  0  0  0  0  0  0  0  0
  -22.9623   -8.2891   22.9380 C   0  0  0  0  0  0  0  0  0  0  0  0
  -25.6436  -14.0617   20.0878 C   0  0  0  0  0  0  0  0  0  0  0  0
  -26.9349  -16.2589   20.1978 C   0  0  0  0  0  0  0  0  0  0  0  0
  -24.4307  -33.1359   26.1545 C   0  0  0  0  0  0  0  0  0  0  0  0
  -25.5167  -29.6753   20.5851 C   0  0  0  0  0  0  0  0  0  0  0  0
  -24.8607  -31.9713   25.4902 C   0  0  0  0  0  0  0  0  0  0  0  0
  -25.2428  -28.3035   20.4882 C   0  0  0  0  0  0  0  0  0  0  0  0
  -27.9451  -24.2322   16.6127 C   0  0  0  0  0  0  0  0  0  0  0  0
  -27.2994  -23.0653   17.0058 C   0  0  0  0  0  0  0  0  0  0  0  0
  -25.3579  -11.3046   20.4030 C   0  0  0  0  0  0  0  0  0  0  0  0
  -27.6075  -27.8694   20.1279 C   0  0  0  0  0  0  0  0  0  0  0  0
  -24.0597   -9.4963   21.1561 C   0  0  0  0  0  0  0  0  0  0  0  0
  -21.7224   -8.5665   22.3623 C   0  0  0  0  0  0  0  0  0  0  0  0
  -24.1309   -8.7541   22.3349 C   0  0  0  0  0  0  0  0  0  0  0  0
  -25.7908  -15.4856   19.9243 C   0  0  0  0  0  0  0  0  0  0  0  0
  -26.0565  -24.7624   15.2678 C   0  0  0  0  0  0  0  0  0  0  0  0
  -26.0381  -22.8166   16.4892 C   0  0  0  0  0  0  0  0  0  0  0  0
  -26.5657  -17.5429   19.8792 C   0  0  0  0  0  0  0  0  0  0  0  0
  -28.2168  -15.8529   20.6953 C   0  0  0  0  0  0  0  0  0  0  0  0
  -23.3627  -29.7794   22.9203 C   0  0  0  0  0  0  0  0  0  0  0  0
  -21.4264  -28.4834   20.6635 C   0  0  0  0  0  0  0  0  0  0  0  0
  -21.1406  -26.6839   17.7779 C   0  0  0  0  0  0  0  0  0  0  0  0
  -24.1043  -21.2020   16.4799 C   0  0  0  0  0  0  0  0  0  0  0  0
  -22.9944  -33.3255   26.5737 C   0  0  0  0  0  0  0  0  0  0  0  0
  -24.4014  -30.6615   20.7992 C   0  0  0  0  0  0  0  0  0  0  0  0
  -23.8439  -27.7626   20.6252 C   0  0  0  0  0  0  0  0  0  0  0  0
  -22.0212  -32.3986   25.8499 C   0  0  0  0  0  0  0  0  0  0  0  0
  -22.0195  -19.4928   18.8057 C   0  0  0  0  0  0  0  0  0  0  0  0
  -22.5541  -30.9693   25.8379 C   0  0  0  0  0  0  0  0  0  0  0  0
  -22.9089  -18.3615   19.3266 C   0  0  0  0  0  0  0  0  0  0  0  0
  -29.7555  -26.0094   17.1076 C   0  0  0  0  0  0  0  0  0  0  0  0
  -22.2596  -19.7657   17.3219 C   0  0  0  0  0  0  0  0  0  0  0  0
  -24.5504  -18.8722   17.4740 C   0  0  0  0  0  0  0  0  0  0  0  0
  -29.2976  -24.5692   17.1211 C   0  0  1  0  0  0  0  0  0  0  0  0
  -23.8883  -30.8842   25.0869 C   0  0  1  0  0  0  0  0  0  0  0  0
  -23.1712  -30.0396   21.4529 C   0  0  1  0  0  0  0  0  0  0  0  0
  -24.3909  -18.6045   18.9796 C   0  0  2  0  0  0  0  0  0  0  0  0
  -29.4864  -25.3351   18.4281 C   0  0  1  0  0  0  0  0  0  0  0  0
  -27.9541  -22.1185   17.9573 C   0  0  0  0  0  0  0  0  0  0  0  0
  -25.3539  -25.6723   14.3161 C   0  0  0  0  0  0  0  0  0  0  0  0
  -30.6703  -24.9621   19.2826 C   0  0  0  0  0  0  0  0  0  0  0  0
  -19.4271  -25.7535   16.1980 C   0  0  0  0  0  0  0  0  0  0  0  0
  -20.7966  -26.2623   22.6584 C   0  0  0  0  0  0  0  0  0  0  0  0
  -19.8828  -24.9109   20.7592 C   0  0  0  0  0  0  0  0  0  0  0  0
  -18.8250  -27.0886   21.3605 C   0  0  0  0  0  0  0  0  0  0  0  0
  -22.1877  -28.2818   15.5175 C   0  0  0  0  0  0  0  0  0  0  0  0
  -28.3004  -25.7888   19.2077 C   0  0  0  0  0  0  0  0  0  1  0  0
  -21.0846  -27.0795   20.2263 C   0  0  1  0  0  0  0  0  0  0  0  0
  -20.3384  -26.9296   16.5127 C   0  0  2  0  0  0  0  0  0  0  0  0
  -20.1740  -26.3450   21.2504 C   0  0  0  0  0  0  0  0  0  0  0  0
  -24.7711  -16.2173   19.4672 N   0  0  0  0  0  0  0  0  0  0  0  0
  -25.3977  -23.6379   15.6272 N   0  0  0  0  0  0  0  0  0  0  0  0
  -25.2731  -17.4638   19.4512 N   0  0  0  0  0  0  0  0  0  0  0  0
  -22.7883  -28.7662   20.8398 N   0  0  0  0  0  0  0  0  0  0  0  0
  -23.6845  -19.9907   17.0691 N   0  0  0  0  0  0  0  0  0  0  0  0
  -27.2238  -18.7207   19.9263 N   0  0  0  0  0  0  0  0  0  0  0  0
  -28.4271  -14.4949   20.9707 N   0  0  0  0  0  0  0  0  0  0  0  0
  -25.3682  -21.6317   16.8830 N   0  0  0  0  0  0  0  0  0  0  0  0
  -23.6659  -30.9085   23.6570 N   0  0  0  0  0  0  0  0  0  0  0  0
  -20.5086  -27.1966   18.8910 N   0  0  0  0  0  0  0  0  0  0  0  0
  -21.2509  -27.1405   15.3535 N   0  3  0  0  0  0  0  0  0  0  0  0
  -29.1429  -16.6725   20.9053 O   0  0  0  0  0  0  0  0  0  0  0  0
  -23.2427  -28.6390   23.3524 O   0  0  0  0  0  0  0  0  0  0  0  0
  -20.5189  -29.3012   20.8350 O   0  0  0  0  0  0  0  0  0  0  0  0
  -22.2181  -26.0927   17.7791 O   0  0  0  0  0  0  0  0  0  0  0  0
  -23.3836  -21.8272   15.6977 O   0  0  0  0  0  0  0  0  0  0  0  0
  -25.2189   -9.9593   20.5565 O   0  0  0  0  0  0  0  0  0  0  0  0
  -28.6217  -26.9885   19.9103 O   0  0  0  0  0  0  0  0  0  1  0  0
  -20.6000   -8.1214   22.9422 F   0  0  0  0  0  0  0  0  0  0  0  0
  -25.3192   -8.4855   22.8933 F   0  0  0  0  0  0  0  0  0  0  0  0
  1  2  1  0  0  0  0
  1  5  2  0  0  0  0
  2  6  2  0  0  0  0
  3  8  2  0  0  0  0
  3 16  1  0  0  0  0
  4  9  1  0  0  0  0
  4 16  2  0  0  0  0
  5 18  1  0  0  0  0
  6 20  1  0  0  0  0
  7 10  2  0  0  0  0
  7 19  1  0  0  0  0
  8 24  1  0  0  0  0
  9 24  2  0  0  0  0
 10 25  1  0  0  0  0
 11 12  2  0  0  0  0
 11 26  1  0  0  0  0
 12 27  1  0  0  0  0
 13 21  1  0  0  0  0
 13 25  2  0  0  0  0
 14 22  1  0  0  0  0
 14 30  2  0  0  0  0
 15 27  2  0  0  0  0
 15 28  1  0  0  0  0
 16 29  1  0  0  0  0
 17 29  1  0  0  0  0
 17 32  2  0  0  0  0
 17 33  1  0  0  0  0
 18 20  2  0  0  0  0
 18 38  1  0  0  0  0
 19 21  2  0  0  0  0
 19 39  1  0  0  0  0
 20 49  1  0  0  0  0
 21 40  1  0  0  0  0
 22 23  2  0  0  0  0
 22 48  1  0  0  0  0
 23 31  1  0  0  0  0
 23 53  1  0  0  0  0
 24 81  1  0  0  0  0
 25 82  1  0  0  0  0
 26 28  2  0  0  0  0
 26 81  1  0  0  0  0
 27 83  1  0  0  0  0
 28 84  1  0  0  0  0
 29 65  2  0  0  0  0
 30 54  1  0  0  0  0
 30 66  1  0  0  0  0
 31 66  2  0  0  0  0
 31 72  1  0  0  0  0
 32 67  1  0  0  0  0
 32 70  1  0  0  0  0
 33 71  1  0  0  0  0
 33 76  2  0  0  0  0
 34 50  1  0  0  0  0
 34 73  1  0  0  0  0
 34 77  2  0  0  0  0
 35 62  1  0  0  0  0
 35 68  1  0  0  0  0
 35 78  2  0  0  0  0
 36 63  1  0  0  0  0
 36 74  1  0  0  0  0
 36 79  2  0  0  0  0
 37 69  1  0  0  0  0
 37 72  1  0  0  0  0
 37 80  2  0  0  0  0
 38 41  1  0  0  0  0
 39 50  1  0  0  0  0
 40 68  1  0  0  0  0
 41 43  1  0  0  0  0
 42 44  1  0  0  0  0
 42 46  1  0  0  0  0
 43 49  1  0  0  0  0
 44 51  1  0  0  0  0
 45 48  1  0  0  0  0
 45 52  1  0  0  0  0
 46 69  1  0  0  0  0
 47 51  1  0  0  0  0
 47 69  1  0  0  0  0
 48 52  1  0  0  0  0
 49 73  1  0  0  0  0
 50 68  1  0  0  0  0
 51 67  1  0  0  0  0
 52 55  1  0  0  0  0
 52 61  1  0  0  0  0
 56 63  1  0  0  0  0
 57 64  1  0  0  0  0
 58 64  1  0  0  0  0
 59 64  1  0  0  0  0
 60 75  1  0  0  0  0
 61 82  1  0  0  0  0
 62 64  1  0  0  0  0
 62 74  1  0  0  0  0
 63 75  1  0  0  0  0
 65 67  1  0  0  0  0
M  CHG  1  75   1
M  ISO  4  37 100  61 101  72 100  82 101
M  END
> <Batch ID>
0146

> <Smiles>
CNC(C)C(=O)NC(C(=O)N1Cc2cc([101O:1][101CH2:1]C3(C)CC3c3cc(C)nc([100NH:0][100C:0](=O)N4CCCC(n5nc(-c6ccc(Oc7ccc(F)cc7F)cc6)c(C(N)=O)c5N)C4)c3C)ccc2CC1C(=O)NC1CCCc2ccccc21)C(C)(C)C

> <Shape>
0.251

> <Color>
0.084

> <Negative vol penalty>
0.000

$$$$

  -OEChem-04052321313D

 91100  0     1  0  0  0  0  0999 V2000
  -21.0328  -10.0484   18.6182 C   0  0  0  0  0  0  0  0  0  0  0  0
  -21.5681  -11.1259   17.9197 C   0  0  0  0  0  0  0  0  0  0  0  0
  -20.8580  -25.5571   20.5928 C   0  0  0  0  0  0  0  0  0  0  0  0
  -21.5689  -26.3001   22.7790 C   0  0  0  0  0  0  0  0  0  0  0  0
  -21.2790   -9.9128   19.9838 C   0  0  0  0  0  0  0  0  0  0  0  0
  -22.3491  -12.0690   18.5867 C   0  0  0  0  0  0  0  0  0  0  0  0
  -27.9351  -16.4319   17.5482 C   0  0  0  0  0  0  0  0  0  0  0  0
  -19.5691  -26.0218   20.8539 C   0  0  0  0  0  0  0  0  0  0  0  0
  -20.2799  -26.7649   23.0402 C   0  0  0  0  0  0  0  0  0  0  0  0
  -28.2988  -17.7697   17.6955 C   0  0  0  0  0  0  0  0  0  0  0  0
  -17.2655  -28.4718   24.1437 C   0  0  0  0  0  0  0  0  0  0  0  0
  -17.1353  -29.7342   24.7226 C   0  0  0  0  0  0  0  0  0  0  0  0
  -28.7229  -17.3902   20.0397 C   0  0  0  0  0  0  0  0  0  0  0  0
  -18.2634  -30.7198   22.8270 C   0  0  0  0  0  0  0  0  0  0  0  0
  -21.8579  -25.6962   21.5554 C   0  0  0  0  0  0  0  0  0  0  0  0
  -24.2491  -25.9323   20.6986 C   0  0  0  0  0  0  0  0  0  0  0  0
  -22.0714  -10.8495   20.6659 C   0  0  0  0  0  0  0  0  0  0  0  0
  -27.9521  -15.5643   18.6498 C   0  0  0  0  0  0  0  0  0  0  0  0
  -22.6050  -11.9466   19.9630 C   0  0  0  0  0  0  0  0  0  0  0  0
  -28.3614  -16.0412   19.9032 C   0  0  0  0  0  0  0  0  0  0  0  0
  -29.6420  -24.1054   17.8608 C   0  0  0  0  0  0  0  0  0  0  0  0
  -29.2102  -22.8428   17.4294 C   0  0  0  0  0  0  0  0  0  0  0  0
  -19.2800  -26.6257   22.0776 C   0  0  0  0  0  0  0  0  0  0  0  0
  -28.6900  -18.2498   18.9419 C   0  0  0  0  0  0  0  0  0  0  0  0
  -17.8947  -28.3334   22.9064 C   0  0  0  0  0  0  0  0  0  0  0  0
  -30.2672  -24.2222   19.1069 C   0  0  0  0  0  0  0  0  0  0  0  0
  -17.6343  -30.8581   24.0642 C   0  0  0  0  0  0  0  0  0  0  0  0
  -18.3936  -29.4574   22.2481 C   0  0  0  0  0  0  0  0  0  0  0  0
  -23.1895  -25.2158   21.2864 C   0  0  0  0  0  0  0  0  0  0  0  0
  -29.4450  -21.7626   18.2808 C   0  0  0  0  0  0  0  0  0  0  0  0
  -30.4496  -23.0790   19.8673 C   0  0  0  0  0  0  0  0  0  0  0  0
  -25.2911  -25.0380   20.6647 C   0  0  0  0  0  0  0  0  0  0  0  0
  -24.2881  -27.2852   20.2256 C   0  0  0  0  0  0  0  0  0  0  0  0
  -25.7614  -13.8538   20.1920 C   0  0  0  0  0  0  0  0  0  0  0  0
  -28.3413  -12.7186   21.7975 C   0  0  0  0  0  0  0  0  0  0  0  0
  -31.5622  -13.2017   22.8170 C   0  0  0  0  0  0  0  0  0  0  0  0
  -28.4031  -21.0967   23.0991 C   0  0  0  0  0  0  0  0  0  0  0  0
  -22.2706  -10.6867   22.1520 C   0  0  0  0  0  0  0  0  0  0  0  0
  -27.5826  -14.1175   18.4688 C   0  0  0  0  0  0  0  0  0  0  0  0
  -29.3908  -25.3526   17.0539 C   0  0  0  0  0  0  0  0  0  0  0  0
  -28.4164  -15.1458   21.1131 C   0  0  0  0  0  0  0  0  0  0  0  0
  -23.4182  -11.5257   22.7082 C   0  0  0  0  0  0  0  0  0  0  0  0
  -28.9860  -25.0777   15.6070 C   0  0  0  0  0  0  0  0  0  0  0  0
  -25.3824  -20.0549   21.5286 C   0  0  0  0  0  0  0  0  0  0  0  0
  -23.3443  -12.9524   22.1738 C   0  0  0  0  0  0  0  0  0  0  0  0
  -24.6279  -21.3627   21.2831 C   0  0  0  0  0  0  0  0  0  0  0  0
  -26.1550  -20.0878   22.8455 C   0  0  0  0  0  0  0  0  0  0  0  0
  -26.3106  -22.5457   22.7554 C   0  0  0  0  0  0  0  0  0  0  0  0
  -28.5397  -22.6268   16.0889 C   0  0  1  0  0  0  0  0  0  0  0  0
  -23.4776  -12.9770   20.6463 C   0  0  1  0  0  0  0  0  0  0  0  0
  -27.1435  -13.4461   19.7664 C   0  0  1  0  0  0  0  0  0  0  0  0
  -27.9681  -23.9355   15.4883 C   0  0  1  0  0  0  0  0  0  0  0  0
  -25.5613  -22.5814   21.4124 C   0  0  2  0  0  0  0  0  0  0  0  0
  -29.5287  -21.9644   15.1174 C   0  0  0  0  0  0  0  0  0  0  0  0
  -33.3911  -12.1150   24.1480 C   0  0  0  0  0  0  0  0  0  0  0  0
  -26.2911  -25.7676   15.8537 C   0  0  0  0  0  0  0  0  0  0  0  0
  -25.5213  -23.3895   15.6182 C   0  0  0  0  0  0  0  0  0  0  0  0
  -31.0337  -23.4839   24.1065 C   0  0  0  0  0  0  0  0  0  0  0  0
  -26.9167  -13.4925   24.3823 C   0  0  0  0  0  0  0  0  0  0  0  0
  -29.1094  -13.2813   25.5722 C   0  0  0  0  0  0  0  0  0  0  0  0
  -28.0980  -11.2897   24.4616 C   0  0  0  0  0  0  0  0  0  0  0  0
  -33.3615  -13.0881   20.4700 C   0  0  0  0  0  0  0  0  0  0  0  0
  -28.9933  -20.3772   17.9231 C   0  0  0  0  0  0  0  0  0  1  0  0
  -31.3232  -22.0989   21.9890 C   0  0  0  0  0  0  0  0  0  0  0  0
  -29.0926  -13.1293   23.0408 C   0  0  1  0  0  0  0  0  0  0  0  0
  -32.7808  -12.2978   22.7671 C   0  0  2  0  0  0  0  0  0  0  0  0
  -26.6251  -24.3066   16.1317 C   0  0  0  0  0  0  0  0  0  0  0  0
  -30.5875  -22.2531   23.3231 C   0  0  2  0  0  0  0  0  0  0  0  0
  -28.3014  -12.8158   24.3420 C   0  0  0  0  0  0  0  0  0  0  0  0
  -23.5272  -23.9629   21.6030 N   0  0  0  0  0  0  0  0  0  0  0  0
  -30.0532  -21.8481   19.4849 N   0  0  0  0  0  0  0  0  0  0  0  0
  -24.8108  -23.8851   21.2125 N   0  0  0  0  0  0  0  0  0  0  0  0
  -28.0395  -13.7407   20.8865 N   0  0  0  0  0  0  0  0  0  0  0  0
  -27.0225  -21.2667   22.9040 N   0  0  0  0  0  0  0  0  0  0  0  0
  -26.5621  -25.1333   20.2198 N   0  0  0  0  0  0  0  0  0  0  0  0
  -23.1291  -28.0654   20.3365 N   0  0  0  0  0  0  0  0  0  0  0  0
  -31.0859  -23.2103   21.1270 N   0  0  0  0  0  0  0  0  0  0  0  0
  -24.8611  -12.8075   20.2569 N   0  0  0  0  0  0  0  0  0  0  0  0
  -30.3966  -12.4797   22.9632 N   0  0  0  0  0  0  0  0  0  0  0  0
  -29.1538  -22.2654   23.1359 N   0  0  0  0  0  0  0  0  0  0  0  0
  -33.8185  -12.8766   21.8676 N   0  3  0  0  0  0  0  0  0  0  0  0
  -25.3153  -27.7823   19.7047 O   0  0  0  0  0  0  0  0  0  0  0  0
  -25.5293  -15.0303   20.4444 O   0  0  0  0  0  0  0  0  0  0  0  0
  -28.0398  -11.5332   21.6370 O   0  0  0  0  0  0  0  0  0  0  0  0
  -31.6372  -14.4259   22.7382 O   0  0  0  0  0  0  0  0  0  0  0  0
  -28.9286  -19.9854   23.2255 O   0  0  0  0  0  0  0  0  0  0  0  0
  -30.6791  -25.4362   19.5674 O   0  0  0  0  0  0  0  0  0  0  0  0
  -18.0224  -27.0796   22.3327 O   0  0  0  0  0  0  0  0  0  0  0  0
  -29.0449  -19.5553   19.0885 O   0  0  0  0  0  0  0  0  0  1  0  0
  -17.5078  -32.0705   24.6196 F   0  0  0  0  0  0  0  0  0  0  0  0
  -18.9980  -29.3308   21.0588 F   0  0  0  0  0  0  0  0  0  0  0  0
  1  2  1  0  0  0  0
  1  5  2  0  0  0  0
  2  6  2  0  0  0  0
  3  8  2  0  0  0  0
  3 15  1  0  0  0  0
  4  9  1  0  0  0  0
  4 15  2  0  0  0  0
  5 17  1  0  0  0  0
  6 19  1  0  0  0  0
  7 10  2  0  0  0  0
  7 18  1  0  0  0  0
  8 23  1  0  0  0  0
  9 23  2  0  0  0  0
 10 24  1  0  0  0  0
 11 12  2  0  0  0  0
 11 25  1  0  0  0  0
 12 27  1  0  0  0  0
 13 20  1  0  0  0  0
 13 24  2  0  0  0  0
 14 27  2  0  0  0  0
 14 28  1  0  0  0  0
 15 29  1  0  0  0  0
 16 29  1  0  0  0  0
 16 32  2  0  0  0  0
 16 33  1  0  0  0  0
 17 19  2  0  0  0  0
 17 38  1  0  0  0  0
 18 20  2  0  0  0  0
 18 39  1  0  0  0  0
 19 50  1  0  0  0  0
 20 41  1  0  0  0  0
 21 22  1  0  0  0  0
 21 26  2  0  0  0  0
 21 40  1  0  0  0  0
 22 30  2  0  0  0  0
 22 49  1  0  0  0  0
 23 88  1  0  0  0  0
 24 89  1  0  0  0  0
 25 28  2  0  0  0  0
 25 88  1  0  0  0  0
 26 31  1  0  0  0  0
 26 87  1  0  0  0  0
 27 90  1  0  0  0  0
 28 91  1  0  0  0  0
 29 70  2  0  0  0  0
 30 63  1  0  0  0  0
 30 71  1  0  0  0  0
 31 71  2  0  0  0  0
 31 77  1  0  0  0  0
 32 72  1  0  0  0  0
 32 75  1  0  0  0  0
 33 76  1  0  0  0  0
 33 82  2  0  0  0  0
 34 51  1  0  0  0  0
 34 78  1  0  0  0  0
 34 83  2  0  0  0  0
 35 65  1  0  0  0  0
 35 73  1  0  0  0  0
 35 84  2  0  0  0  0
 36 66  1  0  0  0  0
 36 79  1  0  0  0  0
 36 85  2  0  0  0  0
 37 74  1  0  0  0  0
 37 80  1  0  0  0  0
 37 86  2  0  0  0  0
 38 42  1  0  0  0  0
 39 51  1  0  0  0  0
 40 43  1  0  0  0  0
 41 73  1  0  0  0  0
 42 45  1  0  0  0  0
 43 52  1  0  0  0  0
 44 46  1  0  0  0  0
 44 47  1  0  0  0  0
 45 50  1  0  0  0  0
 46 53  1  0  0  0  0
 47 74  1  0  0  0  0
 48 53  1  0  0  0  0
 48 74  1  0  0  0  0
 49 52  1  0  0  0  0
 49 54  1  0  0  0  0
 50 78  1  0  0  0  0
 51 73  1  0  0  0  0
 52 67  1  0  0  0  0
 53 72  1  0  0  0  0
 55 66  1  0  0  0  0
 56 67  1  0  0  0  0
 57 67  1  0  0  0  0
 58 68  1  0  0  0  0
 59 69  1  0  0  0  0
 60 69  1  0  0  0  0
 61 69  1  0  0  0  0
 62 81  1  0  0  0  0
 63 89  1  0  0  0  0
 64 68  1  0  0  0  0
 64 77  1  0  0  0  0
 65 69  1  0  0  0  0
 65 79  1  0  0  0  0
 66 81  1  0  0  0  0
 68 80  1  0  0  0  0
 70 72  1  0  0  0  0
M  CHG  1  81   1
M  ISO  4  37 100  63 101  80 100  89 101
M  END
> <Batch ID>
0146

> <Smiles>
CNC(C)C(=O)NC(C(=O)N1Cc2cc([101O:1][101CH2:1]c3nc(NCC(C)[100NH:0][100C:0](=O)N4CCCC(n5nc(-c6ccc(Oc7ccc(F)cc7F)cc6)c(C(N)=O)c5N)C4)c(O)c4c3C(C)C(C(C)C)CC4)ccc2CC1C(=O)NC1CCCc2ccccc21)C(C)(C)C

> <Shape>
0.229

> <Color>
0.057

> <Negative vol penalty>
0.000

$$$$

  -OEChem-04052321313D

 87 97  0     1  0  0  0  0  0999 V2000
  -43.9269  -19.4964   31.0616 C   0  0  0  0  0  0  0  0  0  0  0  0
  -42.5589  -19.7167   30.9379 C   0  0  0  0  0  0  0  0  0  0  0  0
  -22.9958   -9.8981   19.9885 C   0  0  0  0  0  0  0  0  0  0  0  0
  -23.7620   -9.9379   22.2794 C   0  0  0  0  0  0  0  0  0  0  0  0
  -44.7336  -19.4722   29.9246 C   0  0  0  0  0  0  0  0  0  0  0  0
  -41.9968  -19.9140   29.6771 C   0  0  0  0  0  0  0  0  0  0  0  0
  -36.4544  -18.1133   27.7944 C   0  0  0  0  0  0  0  0  0  0  0  0
  -22.2376   -8.7597   20.2618 C   0  0  0  0  0  0  0  0  0  0  0  0
  -23.0038   -8.7995   22.5528 C   0  0  0  0  0  0  0  0  0  0  0  0
  -35.2378  -18.7850   27.6821 C   0  0  0  0  0  0  0  0  0  0  0  0
  -23.2497   -5.4641   22.0569 C   0  0  0  0  0  0  0  0  0  0  0  0
  -23.8538   -4.4444   22.7924 C   0  0  0  0  0  0  0  0  0  0  0  0
  -35.6927  -19.2065   25.3508 C   0  0  0  0  0  0  0  0  0  0  0  0
  -30.3190  -19.7246   24.2378 C   0  0  0  0  0  0  0  0  0  0  0  0
  -22.1595   -4.6721   24.4996 C   0  0  0  0  0  0  0  0  0  0  0  0
  -23.7580  -10.4872   20.9973 C   0  0  0  0  0  0  0  0  0  0  0  0
  -24.1325  -13.0050   20.8292 C   0  0  0  0  0  0  0  0  0  0  0  0
  -44.1796  -19.6598   28.6485 C   0  0  0  0  0  0  0  0  0  0  0  0
  -37.3056  -17.9924   26.6866 C   0  0  0  0  0  0  0  0  0  0  0  0
  -42.7970  -19.8937   28.5221 C   0  0  0  0  0  0  0  0  0  0  0  0
  -36.9183  -18.5306   25.4510 C   0  0  0  0  0  0  0  0  0  0  0  0
  -30.8142  -17.8087   22.8709 C   0  0  0  0  0  0  0  0  0  0  0  0
  -30.1808  -19.0350   23.0383 C   0  0  0  0  0  0  0  0  0  0  0  0
  -22.2416   -8.2104   21.5440 C   0  0  0  0  0  0  0  0  0  0  0  0
  -34.8581  -19.3343   26.4609 C   0  0  0  0  0  0  0  0  0  0  0  0
  -22.1006   -6.0879   22.5428 C   0  0  0  0  0  0  0  0  0  0  0  0
  -23.3086   -4.0484   24.0137 C   0  0  0  0  0  0  0  0  0  0  0  0
  -21.5555   -5.6919   23.7642 C   0  0  0  0  0  0  0  0  0  0  0  0
  -24.5419  -11.6629   20.7154 C   0  0  0  0  0  0  0  0  0  0  0  0
  -31.5685  -17.3191   23.9250 C   0  0  0  0  0  0  0  0  0  0  0  0
  -31.0954  -19.1492   25.2307 C   0  0  0  0  0  0  0  0  0  0  0  0
  -25.2333  -13.7332   20.4493 C   0  0  0  0  0  0  0  0  0  0  0  0
  -22.8700  -13.5451   21.2416 C   0  0  0  0  0  0  0  0  0  0  0  0
  -30.7529  -14.6147   20.7171 C   0  0  0  0  0  0  0  0  0  0  0  0
  -40.2546  -18.9647   26.0070 C   0  0  0  0  0  0  0  0  0  0  0  0
  -39.8044  -17.1896   23.3296 C   0  0  0  0  0  0  0  0  0  0  0  0
  -37.6170  -15.7876   21.1168 C   0  0  0  0  0  0  0  0  0  0  0  0
  -45.0988  -19.6722   27.4528 C   0  0  0  0  0  0  0  0  0  0  0  0
  -38.6023  -17.2416   26.8175 C   0  0  0  0  0  0  0  0  0  0  0  0
  -37.7869  -18.4106   24.2265 C   0  0  0  0  0  0  0  0  0  0  0  0
  -44.3684  -19.5172   26.1214 C   0  0  0  0  0  0  0  0  0  0  0  0
  -29.5503  -12.2932   18.2582 C   0  0  0  0  0  0  0  0  0  0  0  0
  -43.1539  -20.4386   26.0683 C   0  0  0  0  0  0  0  0  0  0  0  0
  -33.4915  -15.7445   24.6298 C   0  0  0  0  0  0  0  0  0  0  0  0
  -33.6311  -15.9652   23.1560 C   0  0  0  0  0  0  0  0  0  0  0  0
  -28.1174  -12.0077   18.7064 C   0  0  0  0  0  0  0  0  0  0  0  0
  -29.3074  -16.7284   21.0716 C   0  0  0  0  0  0  0  0  0  0  0  0
  -30.4766  -12.5056   19.4514 C   0  0  0  0  0  0  0  0  0  0  0  0
  -28.5844  -13.2912   20.8418 C   0  0  0  0  0  0  0  0  0  0  0  0
  -30.6818  -17.0482   21.5929 C   0  0  2  0  0  0  0  0  0  0  0  0
  -42.1463  -20.0874   27.1696 C   0  0  1  0  0  0  0  0  0  0  0  0
  -32.2688  -16.0047   23.7930 C   0  0  0  0  0  0  0  0  0  0  0  0
  -30.1591  -15.6304   21.6389 C   0  0  2  0  0  0  0  0  0  0  0  0
  -39.6248  -17.6246   25.7520 C   0  0  1  0  0  0  0  0  0  0  0  0
  -27.6107  -13.0992   19.6658 C   0  0  2  0  0  0  0  0  0  0  0  0
  -29.0311  -21.6105   20.4019 C   0  0  0  0  0  0  0  0  0  0  0  0
  -36.8350  -14.3973   19.1795 C   0  0  0  0  0  0  0  0  0  0  0  0
  -40.5790  -19.6588   21.7132 C   0  0  0  0  0  0  0  0  0  0  0  0
  -39.5915  -18.5597   19.6920 C   0  0  0  0  0  0  0  0  0  0  0  0
  -41.5316  -17.5106   20.8574 C   0  0  0  0  0  0  0  0  0  0  0  0
  -37.3734  -13.3671   22.8024 C   0  0  0  0  0  0  0  0  0  0  0  0
  -29.3496  -19.6318   21.9507 C   0  0  0  0  0  0  0  0  0  0  0  0
  -31.2677  -19.8692   26.5461 C   0  0  0  0  0  0  0  0  0  0  0  0
  -29.8581  -21.0190   21.5325 C   0  0  0  0  0  0  0  0  0  0  0  0
  -32.6102  -19.5649   27.2021 C   0  0  0  0  0  0  0  0  0  1  0  0
  -39.2523  -17.4566   21.9501 C   0  0  1  0  0  0  0  0  0  0  0  0
  -37.5352  -14.3901   20.5295 C   0  0  2  0  0  0  0  0  0  0  0  0
  -40.2229  -18.3005   21.0765 C   0  0  0  0  0  0  0  0  0  0  0  0
  -25.8042  -11.5427   20.2958 N   0  0  0  0  0  0  0  0  0  0  0  0
  -31.7260  -17.9600   25.1048 N   0  0  0  0  0  0  0  0  0  0  0  0
  -26.1975  -12.8186   20.1426 N   0  0  0  0  0  0  0  0  0  0  0  0
  -29.9487  -13.5299   20.3530 N   0  0  0  0  0  0  0  0  0  0  0  0
  -39.0482  -17.6728   24.4068 N   0  0  0  0  0  0  0  0  0  0  0  0
  -25.4609  -15.0602   20.3508 N   0  0  0  0  0  0  0  0  0  0  0  0
  -21.8472  -12.6558   21.5983 N   0  0  0  0  0  0  0  0  0  0  0  0
  -41.3840  -18.9136   26.8015 N   0  0  0  0  0  0  0  0  0  0  0  0
  -38.9191  -16.1537   21.3846 N   0  0  0  0  0  0  0  0  0  0  0  0
  -36.7821  -13.4868   21.4448 N   0  3  0  0  0  0  0  0  0  0  0  0
  -22.6500  -14.7796   21.2765 O   0  0  0  0  0  0  0  0  0  0  0  0
  -31.9062  -14.7916   20.3335 O   0  0  0  0  0  0  0  0  0  0  0  0
  -39.7538  -19.9706   25.5178 O   0  0  0  0  0  0  0  0  0  0  0  0
  -40.8638  -16.5687   23.4473 O   0  0  0  0  0  0  0  0  0  0  0  0
  -36.6252  -16.4861   21.3145 O   0  0  0  0  0  0  0  0  0  0  0  0
  -21.5017   -7.0996   21.8111 O   0  0  0  0  0  0  0  0  0  0  0  0
  -33.6715  -19.9910   26.3487 O   0  0  0  0  0  0  0  0  0  1  0  0
  -23.8879   -3.0681   24.7191 F   0  0  0  0  0  0  0  0  0  0  0  0
  -20.4510   -6.2867   24.2355 F   0  0  0  0  0  0  0  0  0  0  0  0
  1  2  1  0  0  0  0
  1  5  2  0  0  0  0
  2  6  2  0  0  0  0
  3  8  2  0  0  0  0
  3 16  1  0  0  0  0
  4  9  1  0  0  0  0
  4 16  2  0  0  0  0
  5 18  1  0  0  0  0
  6 20  1  0  0  0  0
  7 10  2  0  0  0  0
  7 19  1  0  0  0  0
  8 24  1  0  0  0  0
  9 24  2  0  0  0  0
 10 25  1  0  0  0  0
 11 12  2  0  0  0  0
 11 26  1  0  0  0  0
 12 27  1  0  0  0  0
 13 21  1  0  0  0  0
 13 25  2  0  0  0  0
 14 23  1  0  0  0  0
 14 31  2  0  0  0  0
 15 27  2  0  0  0  0
 15 28  1  0  0  0  0
 16 29  1  0  0  0  0
 17 29  1  0  0  0  0
 17 32  2  0  0  0  0
 17 33  1  0  0  0  0
 18 20  2  0  0  0  0
 18 38  1  0  0  0  0
 19 21  2  0  0  0  0
 19 39  1  0  0  0  0
 20 51  1  0  0  0  0
 21 40  1  0  0  0  0
 22 23  2  0  0  0  0
 22 30  1  0  0  0  0
 22 50  1  0  0  0  0
 23 62  1  0  0  0  0
 24 84  1  0  0  0  0
 25 85  1  0  0  0  0
 26 28  2  0  0  0  0
 26 84  1  0  0  0  0
 27 86  1  0  0  0  0
 28 87  1  0  0  0  0
 29 69  2  0  0  0  0
 30 52  1  0  0  0  0
 30 70  2  0  0  0  0
 31 63  1  0  0  0  0
 31 70  1  0  0  0  0
 32 71  1  0  0  0  0
 32 74  1  0  0  0  0
 33 75  1  0  0  0  0
 33 79  2  0  0  0  0
 34 53  1  0  0  0  0
 34 72  1  0  0  0  0
 34 80  2  0  0  0  0
 35 54  1  0  0  0  0
 35 76  1  0  0  0  0
 35 81  2  0  0  0  0
 36 66  1  0  0  0  0
 36 73  1  0  0  0  0
 36 82  2  0  0  0  0
 37 67  1  0  0  0  0
 37 77  1  0  0  0  0
 37 83  2  0  0  0  0
 38 41  1  0  0  0  0
 39 54  1  0  0  0  0
 40 73  1  0  0  0  0
 41 43  1  0  0  0  0
 42 46  1  0  0  0  0
 42 48  1  0  0  0  0
 43 51  1  0  0  0  0
 44 45  1  0  0  0  0
 44 52  1  0  0  0  0
 45 52  1  0  0  0  0
 46 55  1  0  0  0  0
 47 50  1  0  0  0  0
 47 53  1  0  0  0  0
 48 72  1  0  0  0  0
 49 55  1  0  0  0  0
 49 72  1  0  0  0  0
 50 53  1  0  0  0  0
 51 76  1  0  0  0  0
 54 73  1  0  0  0  0
 55 71  1  0  0  0  0
 56 64  1  0  0  0  0
 57 67  1  0  0  0  0
 58 68  1  0  0  0  0
 59 68  1  0  0  0  0
 60 68  1  0  0  0  0
 61 78  1  0  0  0  0
 62 64  1  0  0  0  0
 63 65  1  0  0  0  0
 65 85  1  0  0  0  0
 66 68  1  0  0  0  0
 66 77  1  0  0  0  0
 67 78  1  0  0  0  0
 69 71  1  0  0  0  0
M  CHG  1  78   1
M  ISO  4  34 100  53 100  65 101  85 101
M  END
> <Batch ID>
0146

> <Smiles>
CCCc1cc(C[101CH2:1][101O:1]c2ccc3c(c2)CN(C(=O)C(NC(=O)C(C)NC)C(C)(C)C)C(C(=O)NC2CCCc4ccccc42)C3)nc(C2CC2)c1C1C[100CH:0]1[100C:0](=O)N1CCCC(n2nc(-c3ccc(Oc4ccc(F)cc4F)cc3)c(C(N)=O)c2N)C1

> <Shape>
0.190

> <Color>
0.200

> <Negative vol penalty>
0.000

$$$$

  -OEChem-04052321313D

 85 94  0     1  0  0  0  0  0999 V2000
  -32.2185  -15.6119   21.4135 C   0  0  0  0  0  0  0  0  0  0  0  0
  -31.2390  -16.5823   21.5990 C   0  0  0  0  0  0  0  0  0  0  0  0
  -29.5004  -25.8075   19.1910 C   0  0  0  0  0  0  0  0  0  0  0  0
  -27.2526  -25.0785   18.6880 C   0  0  0  0  0  0  0  0  0  0  0  0
  -31.8988  -14.4130   20.7776 C   0  0  0  0  0  0  0  0  0  0  0  0
  -29.9394  -16.3546   21.1477 C   0  0  0  0  0  0  0  0  0  0  0  0
  -24.7441  -18.2530   23.7766 C   0  0  0  0  0  0  0  0  0  0  0  0
  -22.4681  -27.9509   23.6347 C   0  0  0  0  0  0  0  0  0  0  0  0
  -29.9712  -24.5149   18.9608 C   0  0  0  0  0  0  0  0  0  0  0  0
  -27.7234  -23.7858   18.4577 C   0  0  0  0  0  0  0  0  0  0  0  0
  -23.9056  -19.3373   23.5216 C   0  0  0  0  0  0  0  0  0  0  0  0
  -22.0591  -26.6166   23.6841 C   0  0  0  0  0  0  0  0  0  0  0  0
  -28.2796  -20.2132   18.0878 C   0  0  0  0  0  0  0  0  0  0  0  0
  -27.5598  -19.1533   18.6392 C   0  0  0  0  0  0  0  0  0  0  0  0
  -22.4926  -17.9202   22.1746 C   0  0  0  0  0  0  0  0  0  0  0  0
  -20.4695  -27.0409   21.9299 C   0  0  0  0  0  0  0  0  0  0  0  0
  -27.9372  -20.0480   20.8515 C   0  0  0  0  0  0  0  0  0  0  0  0
  -28.1411  -26.0893   19.0546 C   0  0  0  0  0  0  0  0  0  0  0  0
  -27.5274  -28.4636   18.3518 C   0  0  0  0  0  0  0  0  0  0  0  0
  -30.5923  -14.1666   20.3270 C   0  0  0  0  0  0  0  0  0  0  0  0
  -24.4686  -16.9946   23.2226 C   0  0  0  0  0  0  0  0  0  0  0  0
  -29.6022  -15.1518   20.5041 C   0  0  0  0  0  0  0  0  0  0  0  0
  -23.3278  -16.8209   22.4261 C   0  0  0  0  0  0  0  0  0  0  0  0
  -20.8761  -28.3845   21.8634 C   0  0  0  0  0  0  0  0  0  0  0  0
  -21.9004  -28.8498   22.7150 C   0  0  0  0  0  0  0  0  0  0  0  0
  -29.0827  -23.5041   18.5941 C   0  0  0  0  0  0  0  0  0  0  0  0
  -22.7812  -19.1717   22.7182 C   0  0  0  0  0  0  0  0  0  0  0  0
  -21.0642  -26.1600   22.8287 C   0  0  0  0  0  0  0  0  0  0  0  0
  -28.8282  -21.1905   18.9182 C   0  0  0  0  0  0  0  0  0  0  0  0
  -27.3886  -19.0706   20.0210 C   0  0  0  0  0  0  0  0  0  0  0  0
  -28.6570  -21.1079   20.3000 C   0  0  0  0  0  0  0  0  0  0  0  0
  -27.6540  -27.4243   19.2929 C   0  0  0  0  0  0  0  0  0  0  0  0
  -27.0230  -29.5190   19.0716 C   0  0  0  0  0  0  0  0  0  0  0  0
  -27.8377  -28.4739   16.9520 C   0  0  0  0  0  0  0  0  0  0  0  0
  -25.9765  -15.0513   21.2092 C   0  0  0  0  0  0  0  0  0  0  0  0
  -23.5494  -13.0321   21.9533 C   0  0  0  0  0  0  0  0  0  0  0  0
  -20.3500  -12.6362   23.0733 C   0  0  0  0  0  0  0  0  0  0  0  0
  -23.4366  -30.7446   23.3314 C   0  0  0  0  0  0  0  0  0  0  0  0
  -30.3056  -12.8749   19.6030 C   0  0  0  0  0  0  0  0  0  0  0  0
  -25.3683  -15.8288   23.5290 C   0  0  0  0  0  0  0  0  0  0  0  0
  -20.1515  -29.2952   20.9054 C   0  0  0  0  0  0  0  0  0  0  0  0
  -22.9766  -15.4858   21.8241 C   0  0  0  0  0  0  0  0  0  0  0  0
  -28.8167  -12.5581   19.4890 C   0  0  0  0  0  0  0  0  0  0  0  0
  -20.8714  -30.6204   20.7051 C   0  0  0  0  0  0  0  0  0  0  0  0
  -26.8800  -30.7377   23.8556 C   0  0  0  0  0  0  0  0  0  0  0  0
  -28.0418  -13.7910   19.0347 C   0  0  0  0  0  0  0  0  0  0  0  0
  -27.4333  -29.9851   22.6454 C   0  0  0  0  0  0  0  0  0  0  0  0
  -25.5952  -30.0920   24.3624 C   0  0  0  0  0  0  0  0  0  0  0  0
  -25.0704  -29.2183   22.1090 C   0  0  0  0  0  0  0  0  0  0  0  0
  -28.1753  -14.9318   20.0507 C   0  0  1  0  0  0  0  0  0  0  0  0
  -25.2737  -14.7126   22.4933 C   0  0  1  0  0  0  0  0  0  0  0  0
  -26.3643  -29.8398   21.5475 C   0  0  2  0  0  0  0  0  0  0  0  0
  -21.3891  -31.1860   22.0272 C   0  0  1  0  0  0  0  0  0  0  0  0
  -20.2657  -31.6099   22.9792 C   0  0  0  0  0  0  0  0  0  0  0  0
  -18.6301  -10.8689   23.5382 C   0  0  0  0  0  0  0  0  0  0  0  0
  -23.0294  -12.7541   18.9596 C   0  0  0  0  0  0  0  0  0  0  0  0
  -20.7870  -11.7858   19.5097 C   0  0  0  0  0  0  0  0  0  0  0  0
  -22.8634  -10.6182   20.2500 C   0  0  0  0  0  0  0  0  0  0  0  0
  -20.2190  -13.3540   25.9415 C   0  0  0  0  0  0  0  0  0  0  0  0
  -21.3074  -22.5476   22.6566 C   0  0  0  0  0  0  0  0  0  0  0  0
  -22.3112  -21.4781   23.0577 C   0  0  0  0  0  0  0  0  0  1  0  0
  -21.6317  -23.8953   23.2817 C   0  0  0  0  0  0  0  0  0  0  0  0
  -22.1726  -12.7638   21.3951 C   0  0  1  0  0  0  0  0  0  0  0  0
  -19.7563  -11.7098   24.1191 C   0  0  2  0  0  0  0  0  0  0  0  0
  -22.2205  -12.0062   20.0382 C   0  0  0  0  0  0  0  0  0  0  0  0
  -27.2620  -27.7868   20.5172 N   0  0  0  0  0  0  0  0  0  0  0  0
  -26.8841  -29.0656   20.3504 N   0  0  0  0  0  0  0  0  0  0  0  0
  -22.3128  -30.2291   22.6604 N   0  0  0  0  0  0  0  0  0  0  0  0
  -23.8907  -14.3780   22.1478 N   0  0  0  0  0  0  0  0  0  0  0  0
  -24.6104  -29.9710   23.2873 N   0  0  0  0  0  0  0  0  0  0  0  0
  -26.6894  -30.7815   18.7291 N   0  0  0  0  0  0  0  0  0  0  0  0
  -28.3476  -27.3043   16.3721 N   0  0  0  0  0  0  0  0  0  0  0  0
  -27.3124  -14.6985   21.1889 N   0  0  0  0  0  0  0  0  0  0  0  0
  -21.4360  -12.0660   22.4434 N   0  0  0  0  0  0  0  0  0  0  0  0
  -19.2131  -12.4983   25.2611 N   0  3  0  0  0  0  0  0  0  0  0  0
  -27.6833  -29.4952   16.2402 O   0  0  0  0  0  0  0  0  0  0  0  0
  -25.3526  -15.5914   20.3032 O   0  0  0  0  0  0  0  0  0  0  0  0
  -24.2918  -12.0821   22.2140 O   0  0  0  0  0  0  0  0  0  0  0  0
  -19.8937  -13.7525   22.8362 O   0  0  0  0  0  0  0  0  0  0  0  0
  -23.4082  -31.8572   23.8716 O   0  0  0  0  0  0  0  0  0  0  0  0
  -29.5418  -22.2426   18.3692 O   0  0  0  0  0  0  0  0  0  0  0  0
  -21.9555  -20.2362   22.4654 O   0  0  0  0  0  0  0  0  0  1  0  0
  -20.6613  -24.8616   22.8801 O   0  0  0  0  0  0  0  0  0  0  0  0
  -26.6961  -18.0536   20.5503 F   0  0  0  0  0  0  0  0  0  0  0  0
  -29.1806  -22.0444   21.1028 F   0  0  0  0  0  0  0  0  0  0  0  0
  1  2  1  0  0  0  0
  1  5  2  0  0  0  0
  2  6  2  0  0  0  0
  3  9  2  0  0  0  0
  3 18  1  0  0  0  0
  4 10  1  0  0  0  0
  4 18  2  0  0  0  0
  5 20  1  0  0  0  0
  6 22  1  0  0  0  0
  7 11  2  0  0  0  0
  7 21  1  0  0  0  0
  8 12  2  0  0  0  0
  8 25  1  0  0  0  0
  9 26  1  0  0  0  0
 10 26  2  0  0  0  0
 11 27  1  0  0  0  0
 12 28  1  0  0  0  0
 13 14  2  0  0  0  0
 13 29  1  0  0  0  0
 14 30  1  0  0  0  0
 15 23  1  0  0  0  0
 15 27  2  0  0  0  0
 16 24  1  0  0  0  0
 16 28  2  0  0  0  0
 17 30  2  0  0  0  0
 17 31  1  0  0  0  0
 18 32  1  0  0  0  0
 19 32  1  0  0  0  0
 19 33  2  0  0  0  0
 19 34  1  0  0  0  0
 20 22  2  0  0  0  0
 20 39  1  0  0  0  0
 21 23  2  0  0  0  0
 21 40  1  0  0  0  0
 22 50  1  0  0  0  0
 23 42  1  0  0  0  0
 24 25  2  0  0  0  0
 24 41  1  0  0  0  0
 25 68  1  0  0  0  0
 26 81  1  0  0  0  0
 27 82  1  0  0  0  0
 28 83  1  0  0  0  0
 29 31  2  0  0  0  0
 29 81  1  0  0  0  0
 30 84  1  0  0  0  0
 31 85  1  0  0  0  0
 32 66  2  0  0  0  0
 33 67  1  0  0  0  0
 33 71  1  0  0  0  0
 34 72  1  0  0  0  0
 34 76  2  0  0  0  0
 35 51  1  0  0  0  0
 35 73  1  0  0  0  0
 35 77  2  0  0  0  0
 36 63  1  0  0  0  0
 36 69  1  0  0  0  0
 36 78  2  0  0  0  0
 37 64  1  0  0  0  0
 37 74  1  0  0  0  0
 37 79  2  0  0  0  0
 38 68  1  0  0  0  0
 38 70  1  0  0  0  0
 38 80  2  0  0  0  0
 39 43  1  0  0  0  0
 40 51  1  0  0  0  0
 41 44  1  0  0  0  0
 42 69  1  0  0  0  0
 43 46  1  0  0  0  0
 44 53  1  0  0  0  0
 45 47  1  0  0  0  0
 45 48  1  0  0  0  0
 46 50  1  0  0  0  0
 47 52  1  0  0  0  0
 48 70  1  0  0  0  0
 49 52  1  0  0  0  0
 49 70  1  0  0  0  0
 50 73  1  0  0  0  0
 51 69  1  0  0  0  0
 52 67  1  0  0  0  0
 53 54  1  0  0  0  0
 53 68  1  0  0  0  0
 55 64  1  0  0  0  0
 56 65  1  0  0  0  0
 57 65  1  0  0  0  0
 58 65  1  0  0  0  0
 59 75  1  0  0  0  0
 60 61  1  0  0  0  0
 60 62  1  0  0  0  0
 61 82  1  0  0  0  0
 62 83  1  0  0  0  0
 63 65  1  0  0  0  0
 63 74  1  0  0  0  0
 64 75  1  0  0  0  0
 66 67  1  0  0  0  0
M  CHG  1  75   1
M  ISO  4  38 100  61 101  68 100  82 101
M  END
> <Batch ID>
0146

> <Smiles>
CNC(C)C(=O)NC(C(=O)N1Cc2cc([101O:1][101CH2:1]CCOc3ccc4c(c3)CCC(C)[100N:0]4[100C:0](=O)N3CCCC(n4nc(-c5ccc(Oc6ccc(F)cc6F)cc5)c(C(N)=O)c4N)C3)ccc2CC1C(=O)NC1CCCc2ccccc21)C(C)(C)C

> <Shape>
0.272

> <Color>
0.055

> <Negative vol penalty>
0.000

$$$$

  -OEChem-04052321313D

 87 96  0     1  0  0  0  0  0999 V2000
  -28.0398  -38.3890   23.6241 C   0  0  0  0  0  0  0  0  0  0  0  0
  -28.0831  -37.3914   22.6553 C   0  0  0  0  0  0  0  0  0  0  0  0
  -22.6895  -10.2885   20.5068 C   0  0  0  0  0  0  0  0  0  0  0  0
  -24.5381   -9.0502   21.4484 C   0  0  0  0  0  0  0  0  0  0  0  0
  -27.6641  -38.0754   24.9296 C   0  0  0  0  0  0  0  0  0  0  0  0
  -27.7518  -36.0794   22.9919 C   0  0  0  0  0  0  0  0  0  0  0  0
  -24.7407  -30.1969   20.2267 C   0  0  0  0  0  0  0  0  0  0  0  0
  -21.8145   -9.6510   21.3862 C   0  0  0  0  0  0  0  0  0  0  0  0
  -23.6630   -8.4127   22.3279 C   0  0  0  0  0  0  0  0  0  0  0  0
  -24.9929  -28.8364   20.0562 C   0  0  0  0  0  0  0  0  0  0  0  0
  -21.4329   -5.8738   22.2199 C   0  0  0  0  0  0  0  0  0  0  0  0
  -21.5668   -4.4949   22.3814 C   0  0  0  0  0  0  0  0  0  0  0  0
  -24.2820  -28.4265   22.3246 C   0  0  0  0  0  0  0  0  0  0  0  0
  -24.7671  -23.8988   19.0120 C   0  0  0  0  0  0  0  0  0  0  0  0
  -26.7607  -24.1469   20.3540 C   0  0  0  0  0  0  0  0  0  0  0  0
  -21.9980   -4.8126   24.7373 C   0  0  0  0  0  0  0  0  0  0  0  0
  -24.0513   -9.9880   20.5378 C   0  0  0  0  0  0  0  0  0  0  0  0
  -24.9190  -10.6148   18.2222 C   0  0  0  0  0  0  0  0  0  0  0  0
  -27.3186  -36.7607   25.2801 C   0  0  0  0  0  0  0  0  0  0  0  0
  -24.2668  -30.6848   21.4530 C   0  0  0  0  0  0  0  0  0  0  0  0
  -27.3724  -35.7477   24.3037 C   0  0  0  0  0  0  0  0  0  0  0  0
  -24.0222  -29.7933   22.5073 C   0  0  0  0  0  0  0  0  0  0  0  0
  -26.0128  -21.9454   19.6973 C   0  0  0  0  0  0  0  0  0  0  0  0
  -25.6809  -24.7153   19.6782 C   0  0  0  0  0  0  0  0  0  0  0  0
  -24.9330  -22.5138   19.0215 C   0  0  0  0  0  0  0  0  0  0  0  0
  -22.3012   -8.7131   22.2968 C   0  0  0  0  0  0  0  0  0  0  0  0
  -24.7663  -27.9513   21.1061 C   0  0  0  0  0  0  0  0  0  0  0  0
  -21.5816   -6.7223   23.3171 C   0  0  0  0  0  0  0  0  0  0  0  0
  -26.9266  -22.7620   20.3635 C   0  0  0  0  0  0  0  0  0  0  0  0
  -21.8493   -3.9642   23.6401 C   0  0  0  0  0  0  0  0  0  0  0  0
  -21.8642   -6.1916   24.5758 C   0  0  0  0  0  0  0  0  0  0  0  0
  -24.9557  -10.6458   19.6292 C   0  0  0  0  0  0  0  0  0  0  0  0
  -25.9834  -11.3912   17.8338 C   0  0  0  0  0  0  0  0  0  0  0  0
  -24.0046   -9.9442   17.3448 C   0  0  0  0  0  0  0  0  0  0  0  0
  -25.3685  -32.7161   23.6357 C   0  0  0  0  0  0  0  0  0  0  0  0
  -22.4467  -32.2603   24.9691 C   0  0  0  0  0  0  0  0  0  0  0  0
  -19.7036  -30.2611   25.3232 C   0  0  0  0  0  0  0  0  0  0  0  0
  -28.9557  -15.8586   20.4906 C   0  0  0  0  0  0  0  0  0  0  0  0
  -26.9645  -36.4613   26.7152 C   0  0  0  0  0  0  0  0  0  0  0  0
  -23.9744  -32.1516   21.6123 C   0  0  0  0  0  0  0  0  0  0  0  0
  -23.4946  -30.2637   23.8373 C   0  0  0  0  0  0  0  0  0  0  0  0
  -26.2668  -35.1165   26.9026 C   0  0  0  0  0  0  0  0  0  0  0  0
  -30.3194  -12.7979   19.2868 C   0  0  0  0  0  0  0  0  0  0  0  0
  -26.1117  -19.8637   21.1342 C   0  0  0  0  0  0  0  0  0  0  0  0
  -27.5109  -20.0184   19.0264 C   0  0  0  0  0  0  0  0  0  0  0  0
  -26.9977  -34.0236   26.1293 C   0  0  0  0  0  0  0  0  0  0  0  0
  -29.0961  -11.8965   19.1111 C   0  0  0  0  0  0  0  0  0  0  0  0
  -26.2859  -18.3446   21.1351 C   0  0  0  0  0  0  0  0  0  0  0  0
  -27.6833  -18.4991   19.0323 C   0  0  0  0  0  0  0  0  0  0  0  0
  -30.1809  -13.7057   20.5070 C   0  0  0  0  0  0  0  0  0  0  0  0
  -27.7223  -13.6092   20.3673 C   0  0  0  0  0  0  0  0  0  0  0  0
  -26.1987  -20.4390   19.7102 C   0  0  0  0  0  0  0  0  0  0  0  0
  -26.9961  -34.3174   24.6242 C   0  0  1  0  0  0  0  0  0  0  0  0
  -23.9814  -32.6076   23.0682 C   0  0  1  0  0  0  0  0  0  0  0  0
  -27.7909  -12.7149   19.1175 C   0  0  2  0  0  0  0  0  0  0  0  0
  -27.5906  -17.9308   20.4500 C   0  0  0  0  0  0  0  0  0  0  0  0
  -23.9399  -21.6614   18.3017 C   0  0  0  0  0  0  0  0  0  0  0  0
  -17.4950  -30.1388   26.5082 C   0  0  0  0  0  0  0  0  0  0  0  0
  -23.8816  -31.5411   27.5641 C   0  0  0  0  0  0  0  0  0  0  0  0
  -21.7420  -30.5342   28.3865 C   0  0  0  0  0  0  0  0  0  0  0  0
  -21.8498  -32.9695   27.8568 C   0  0  0  0  0  0  0  0  0  0  0  0
  -18.2069  -30.1882   22.7710 C   0  0  0  0  0  0  0  0  0  0  0  0
  -28.8713  -23.1341   21.6809 C   0  0  0  0  0  0  0  0  0  0  0  0
  -25.5014  -26.2050   19.6688 C   0  0  0  0  0  0  0  0  0  1  0  0
  -21.8675  -31.2884   25.9685 C   0  0  1  0  0  0  0  0  0  0  0  0
  -18.2185  -30.5646   25.2402 C   0  0  2  0  0  0  0  0  0  0  0  0
  -22.3470  -31.5744   27.4197 C   0  0  0  0  0  0  0  0  0  0  0  0
  -25.9636  -11.3833   20.1026 N   0  0  0  0  0  0  0  0  0  0  0  0
  -26.5702  -11.8229   18.9869 N   0  0  0  0  0  0  0  0  0  0  0  0
  -23.2302  -31.7079   23.9459 N   0  0  0  0  0  0  0  0  0  0  0  0
  -28.9233  -14.4549   20.4511 N   0  0  0  0  0  0  0  0  0  0  0  0
  -26.4653  -11.7398   16.6220 N   0  0  0  0  0  0  0  0  0  0  0  0
  -24.3052   -8.6369   16.9389 N   0  0  0  0  0  0  0  0  0  0  0  0
  -25.7100  -33.9903   24.0468 N   0  0  0  0  0  0  0  0  0  0  0  0
  -20.4197  -31.3402   25.7965 N   0  0  0  0  0  0  0  0  0  0  0  0
  -27.7200  -16.4909   20.4265 N   0  0  0  0  0  0  0  0  0  0  0  0
  -17.6068  -29.8467   24.0863 N   0  3  0  0  0  0  0  0  0  0  0  0
  -22.9604  -10.4942   16.9198 O   0  0  0  0  0  0  0  0  0  0  0  0
  -26.0758  -31.7173   23.6974 O   0  0  0  0  0  0  0  0  0  0  0  0
  -22.2068  -33.4644   25.0876 O   0  0  0  0  0  0  0  0  0  0  0  0
  -20.1802  -29.1742   25.0038 O   0  0  0  0  0  0  0  0  0  0  0  0
  -30.0082  -16.5010   20.5713 O   0  0  0  0  0  0  0  0  0  0  0  0
  -21.4477   -8.0910   23.1553 O   0  0  0  0  0  0  0  0  0  0  0  0
  -27.9879  -22.2247   21.0280 O   0  0  0  0  0  0  0  0  0  0  0  0
  -25.0122  -26.6229   20.9425 O   0  0  0  0  0  0  0  0  0  1  0  0
  -21.9763   -2.6399   23.7953 F   0  0  0  0  0  0  0  0  0  0  0  0
  -22.0070   -7.0016   25.6338 F   0  0  0  0  0  0  0  0  0  0  0  0
  1  2  1  0  0  0  0
  1  5  2  0  0  0  0
  2  6  2  0  0  0  0
  3  8  2  0  0  0  0
  3 17  1  0  0  0  0
  4  9  1  0  0  0  0
  4 17  2  0  0  0  0
  5 19  1  0  0  0  0
  6 21  1  0  0  0  0
  7 10  2  0  0  0  0
  7 20  1  0  0  0  0
  8 26  1  0  0  0  0
  9 26  2  0  0  0  0
 10 27  1  0  0  0  0
 11 12  2  0  0  0  0
 11 28  1  0  0  0  0
 12 30  1  0  0  0  0
 13 22  1  0  0  0  0
 13 27  2  0  0  0  0
 14 24  1  0  0  0  0
 14 25  2  0  0  0  0
 15 24  2  0  0  0  0
 15 29  1  0  0  0  0
 16 30  2  0  0  0  0
 16 31  1  0  0  0  0
 17 32  1  0  0  0  0
 18 32  1  0  0  0  0
 18 33  2  0  0  0  0
 18 34  1  0  0  0  0
 19 21  2  0  0  0  0
 19 39  1  0  0  0  0
 20 22  2  0  0  0  0
 20 40  1  0  0  0  0
 21 53  1  0  0  0  0
 22 41  1  0  0  0  0
 23 25  1  0  0  0  0
 23 29  2  0  0  0  0
 23 52  1  0  0  0  0
 24 64  1  0  0  0  0
 25 57  1  0  0  0  0
 26 83  1  0  0  0  0
 27 85  1  0  0  0  0
 28 31  2  0  0  0  0
 28 83  1  0  0  0  0
 29 84  1  0  0  0  0
 30 86  1  0  0  0  0
 31 87  1  0  0  0  0
 32 68  2  0  0  0  0
 33 69  1  0  0  0  0
 33 72  1  0  0  0  0
 34 73  1  0  0  0  0
 34 78  2  0  0  0  0
 35 54  1  0  0  0  0
 35 74  1  0  0  0  0
 35 79  2  0  0  0  0
 36 65  1  0  0  0  0
 36 70  1  0  0  0  0
 36 80  2  0  0  0  0
 37 66  1  0  0  0  0
 37 75  1  0  0  0  0
 37 81  2  0  0  0  0
 38 71  1  0  0  0  0
 38 76  1  0  0  0  0
 38 82  2  0  0  0  0
 39 42  1  0  0  0  0
 40 54  1  0  0  0  0
 41 70  1  0  0  0  0
 42 46  1  0  0  0  0
 43 47  1  0  0  0  0
 43 50  1  0  0  0  0
 44 48  1  0  0  0  0
 44 52  1  0  0  0  0
 45 49  1  0  0  0  0
 45 52  1  0  0  0  0
 46 53  1  0  0  0  0
 47 55  1  0  0  0  0
 48 56  1  0  0  0  0
 49 56  1  0  0  0  0
 50 71  1  0  0  0  0
 51 55  1  0  0  0  0
 51 71  1  0  0  0  0
 53 74  1  0  0  0  0
 54 70  1  0  0  0  0
 55 69  1  0  0  0  0
 56 76  1  0  0  0  0
 58 66  1  0  0  0  0
 59 67  1  0  0  0  0
 60 67  1  0  0  0  0
 61 67  1  0  0  0  0
 62 77  1  0  0  0  0
 63 84  1  0  0  0  0
 64 85  1  0  0  0  0
 65 67  1  0  0  0  0
 65 75  1  0  0  0  0
 66 77  1  0  0  0  0
 68 69  1  0  0  0  0
M  CHG  1  77   1
M  ISO  4  38 100  64 101  76 100  85 101
M  END
> <Batch ID>
0146

> <Smiles>
CNC(C)C(=O)NC(C(=O)N1Cc2cc([101O:1][101CH2:1]c3cc(C)c(C4CCC([100NH:0][100C:0](=O)N5CCCC(n6nc(-c7ccc(Oc8ccc(F)cc8F)cc7)c(C(N)=O)c6N)C5)CC4)c(OC)c3)ccc2CC1C(=O)NC1CCCc2ccccc21)C(C)(C)C

> <Shape>
0.293

> <Color>
0.098

> <Negative vol penalty>
0.000

$$$$

  -OEChem-04052321313D

 81 90  0     1  0  0  0  0  0999 V2000
  -17.8300  -33.0066   24.2366 C   0  0  0  0  0  0  0  0  0  0  0  0
  -19.2011  -32.9380   24.4625 C   0  0  0  0  0  0  0  0  0  0  0  0
  -24.5006  -14.1677   20.4073 C   0  0  0  0  0  0  0  0  0  0  0  0
  -26.7771  -13.8981   21.1703 C   0  0  0  0  0  0  0  0  0  0  0  0
  -17.1356  -31.8714   23.8208 C   0  0  0  0  0  0  0  0  0  0  0  0
  -19.8782  -31.7337   24.2737 C   0  0  0  0  0  0  0  0  0  0  0  0
  -25.5948  -31.0106   22.1991 C   0  0  0  0  0  0  0  0  0  0  0  0
  -24.3957  -12.7878   20.2326 C   0  0  0  0  0  0  0  0  0  0  0  0
  -26.6722  -12.5182   20.9957 C   0  0  0  0  0  0  0  0  0  0  0  0
  -26.8088  -30.7957   22.8502 C   0  0  0  0  0  0  0  0  0  0  0  0
  -23.4096   -9.3021   19.9286 C   0  0  0  0  0  0  0  0  0  0  0  0
  -22.2523   -8.6760   20.3915 C   0  0  0  0  0  0  0  0  0  0  0  0
  -26.5730  -28.4216   22.4933 C   0  0  0  0  0  0  0  0  0  0  0  0
  -29.2992  -23.2268   23.0605 C   0  0  0  0  0  0  0  0  0  0  0  0
  -22.7382   -9.4351   22.6331 C   0  0  0  0  0  0  0  0  0  0  0  0
  -28.8845  -24.5289   21.1139 C   0  0  0  0  0  0  0  0  0  0  0  0
  -25.6914  -14.7229   20.8761 C   0  0  0  0  0  0  0  0  0  0  0  0
  -25.4985  -16.8839   22.2179 C   0  0  0  0  0  0  0  0  0  0  0  0
  -17.8062  -30.6550   23.6175 C   0  0  0  0  0  0  0  0  0  0  0  0
  -24.8542  -29.9299   21.6990 C   0  0  0  0  0  0  0  0  0  0  0  0
  -19.1918  -30.5808   23.8561 C   0  0  0  0  0  0  0  0  0  0  0  0
  -25.3512  -28.6257   21.8340 C   0  0  0  0  0  0  0  0  0  0  0  0
  -29.2359  -24.3920   23.8164 C   0  0  0  0  0  0  0  0  0  0  0  0
  -29.1212  -23.2879   21.6829 C   0  0  0  0  0  0  0  0  0  0  0  0
  -25.4815  -11.9631   20.5268 C   0  0  0  0  0  0  0  0  0  0  0  0
  -27.2966  -29.5009   22.9999 C   0  0  0  0  0  0  0  0  0  0  0  0
  -24.2312   -9.9947   20.8180 C   0  0  0  0  0  0  0  0  0  0  0  0
  -21.9166   -8.7425   21.7437 C   0  0  0  0  0  0  0  0  0  0  0  0
  -23.8955  -10.0612   22.1702 C   0  0  0  0  0  0  0  0  0  0  0  0
  -25.8005  -16.1482   21.0562 C   0  0  0  0  0  0  0  0  0  0  0  0
  -28.9942  -25.5837   23.1520 C   0  0  0  0  0  0  0  0  0  0  0  0
  -25.7675  -18.1873   21.8784 C   0  0  0  0  0  0  0  0  0  0  0  0
  -25.0178  -16.4297   23.4900 C   0  0  0  0  0  0  0  0  0  0  0  0
  -21.9724  -28.7232   22.2843 C   0  0  0  0  0  0  0  0  0  0  0  0
  -22.6954  -26.8012   19.7732 C   0  0  0  0  0  0  0  0  0  0  0  0
  -25.0993  -25.3491   17.8342 C   0  0  0  0  0  0  0  0  0  0  0  0
  -29.0228  -22.0295   19.5027 C   0  0  0  0  0  0  0  0  0  0  0  0
  -17.0049  -29.4430   23.2133 C   0  0  0  0  0  0  0  0  0  0  0  0
  -23.5596  -30.1807   20.9756 C   0  0  0  0  0  0  0  0  0  0  0  0
  -24.6044  -27.4330   21.2971 C   0  0  0  0  0  0  0  0  0  0  0  0
  -17.8603  -28.2990   22.6750 C   0  0  0  0  0  0  0  0  0  0  0  0
  -26.7623  -20.2813   17.3787 C   0  0  0  0  0  0  0  0  0  0  0  0
  -19.0638  -28.0602   23.5814 C   0  0  0  0  0  0  0  0  0  0  0  0
  -26.2857  -19.1107   18.2417 C   0  0  0  0  0  0  0  0  0  0  0  0
  -30.1921  -27.5970   24.2417 C   0  0  0  0  0  0  0  0  0  0  0  0
  -28.2348  -20.6050   17.6252 C   0  0  0  0  0  0  0  0  0  0  0  0
  -28.1186  -19.6537   19.8948 C   0  0  0  0  0  0  0  0  0  0  0  0
  -19.9659  -29.2989   23.6384 C   0  0  1  0  0  0  0  0  0  0  0  0
  -28.9190  -26.8504   23.9182 C   0  0  1  0  0  0  0  0  0  0  0  0
  -22.6388  -28.9644   20.9594 C   0  0  1  0  0  0  0  0  0  0  0  0
  -26.6243  -19.3325   19.7289 C   0  0  2  0  0  0  0  0  0  0  0  0
  -29.2445  -28.1550   23.2243 C   0  0  1  0  0  0  0  0  0  1  0  0
  -29.4240  -24.3298   25.2934 C   0  0  0  0  0  0  0  0  0  0  0  0
  -25.3844  -23.7997   15.8810 C   0  0  0  0  0  0  0  0  0  0  0  0
  -22.0500  -24.4212   21.5701 C   0  0  0  0  0  0  0  0  0  0  0  0
  -23.2378  -22.9495   19.9295 C   0  0  0  0  0  0  0  0  0  0  0  0
  -21.2077  -24.2160   19.2243 C   0  0  0  0  0  0  0  0  0  0  0  0
  -26.4575  -27.4331   16.2308 C   0  0  0  0  0  0  0  0  0  0  0  0
  -23.3731  -25.4619   19.6125 C   0  0  1  0  0  0  0  0  0  0  0  0
  -25.2524  -25.2474   16.3274 C   0  0  2  0  0  0  0  0  0  0  0  0
  -22.4805  -24.2842   20.0960 C   0  0  0  0  0  0  0  0  0  0  0  0
  -28.8161  -25.6825   21.8155 N   0  0  0  0  0  0  0  0  0  0  0  0
  -26.2285  -16.9202   20.0538 N   0  0  0  0  0  0  0  0  0  0  0  0
  -26.1973  -18.1545   20.5844 N   0  0  0  0  0  0  0  0  0  0  0  0
  -23.3402  -27.7293   20.6031 N   0  0  0  0  0  0  0  0  0  0  0  0
  -28.4799  -20.8066   19.0550 N   0  0  0  0  0  0  0  0  0  0  0  0
  -25.6760  -19.3469   22.5636 N   0  0  0  0  0  0  0  0  0  0  0  0
  -24.7946  -15.0576   23.6688 N   0  0  0  0  0  0  0  0  0  0  0  0
  -29.1811  -22.1183   20.8853 N   0  0  0  0  0  0  0  0  0  0  0  0
  -20.7732  -29.3917   22.4408 N   0  0  0  0  0  0  0  0  0  0  0  0
  -23.7735  -25.3724   18.2124 N   0  0  0  0  0  0  0  0  0  0  0  0
  -26.4642  -25.9899   15.8786 N   0  3  0  0  0  0  0  0  0  0  0  0
  -24.7773  -17.2190   24.4348 O   0  0  0  0  0  0  0  0  0  0  0  0
  -22.5059  -27.9841   23.1033 O   0  0  0  0  0  0  0  0  0  0  0  0
  -21.6368  -27.0186   19.1785 O   0  0  0  0  0  0  0  0  0  0  0  0
  -26.0597  -25.3988   18.5995 O   0  0  0  0  0  0  0  0  0  0  0  0
  -29.2995  -22.9420   18.7199 O   0  0  0  0  0  0  0  0  0  0  0  0
  -25.3794  -10.6165   20.3567 O   0  0  0  0  0  0  0  0  0  0  0  0
  -28.4809  -29.2883   23.6355 O   0  0  0  0  0  0  0  0  0  1  0  0
  -20.8045   -8.1424   22.1878 F   0  0  0  0  0  0  0  0  0  0  0  0
  -24.6803  -10.7261   23.0292 F   0  0  0  0  0  0  0  0  0  0  0  0
  1  2  1  0  0  0  0
  1  5  2  0  0  0  0
  2  6  2  0  0  0  0
  3  8  2  0  0  0  0
  3 17  1  0  0  0  0
  4  9  1  0  0  0  0
  4 17  2  0  0  0  0
  5 19  1  0  0  0  0
  6 21  1  0  0  0  0
  7 10  2  0  0  0  0
  7 20  1  0  0  0  0
  8 25  1  0  0  0  0
  9 25  2  0  0  0  0
 10 26  1  0  0  0  0
 11 12  2  0  0  0  0
 11 27  1  0  0  0  0
 12 28  1  0  0  0  0
 13 22  1  0  0  0  0
 13 26  2  0  0  0  0
 14 23  1  0  0  0  0
 14 24  2  0  0  0  0
 15 28  2  0  0  0  0
 15 29  1  0  0  0  0
 16 24  1  0  0  0  0
 16 62  2  0  0  0  0
 17 30  1  0  0  0  0
 18 30  1  0  0  0  0
 18 32  2  0  0  0  0
 18 33  1  0  0  0  0
 19 21  2  0  0  0  0
 19 38  1  0  0  0  0
 20 22  2  0  0  0  0
 20 39  1  0  0  0  0
 21 48  1  0  0  0  0
 22 40  1  0  0  0  0
 23 31  2  0  0  0  0
 23 53  1  0  0  0  0
 24 69  1  0  0  0  0
 25 78  1  0  0  0  0
 26 79  1  0  0  0  0
 27 29  2  0  0  0  0
 27 78  1  0  0  0  0
 28 80  1  0  0  0  0
 29 81  1  0  0  0  0
 30 63  2  0  0  0  0
 31 49  1  0  0  0  0
 31 62  1  0  0  0  0
 32 64  1  0  0  0  0
 32 67  1  0  0  0  0
 33 68  1  0  0  0  0
 33 73  2  0  0  0  0
 34 50  1  0  0  0  0
 34 70  1  0  0  0  0
 34 74  2  0  0  0  0
 35 59  1  0  0  0  0
 35 65  1  0  0  0  0
 35 75  2  0  0  0  0
 36 60  1  0  0  0  0
 36 71  1  0  0  0  0
 36 76  2  0  0  0  0
 37 66  1  0  0  0  0
 37 69  1  0  0  0  0
 37 77  2  0  0  0  0
 38 41  1  0  0  0  0
 39 50  1  0  0  0  0
 40 65  1  0  0  0  0
 41 43  1  0  0  0  0
 42 44  1  0  0  0  0
 42 46  1  0  0  0  0
 43 48  1  0  0  0  0
 44 51  1  0  0  0  0
 45 49  1  0  0  0  0
 45 52  1  0  0  0  0
 46 66  1  0  0  0  0
 47 51  1  0  0  0  0
 47 66  1  0  0  0  0
 48 70  1  0  0  0  0
 49 52  1  0  0  0  0
 50 65  1  0  0  0  0
 51 64  1  0  0  0  0
 52 79  1  0  0  0  0
 54 60  1  0  0  0  0
 55 61  1  0  0  0  0
 56 61  1  0  0  0  0
 57 61  1  0  0  0  0
 58 72  1  0  0  0  0
 59 61  1  0  0  0  0
 59 71  1  0  0  0  0
 60 72  1  0  0  0  0
 63 64  1  0  0  0  0
M  CHG  1  72   1
M  ISO  4  37 100  52 101  69 100  79 101
M  END
> <Batch ID>
0146

> <Smiles>
CNC(C)C(=O)NC(C(=O)N1Cc2cc([101O:1][101CH:1]3CC3c3ncc([100NH:0][100C:0](=O)N4CCCC(n5nc(-c6ccc(Oc7ccc(F)cc7F)cc6)c(C(N)=O)c5N)C4)cc3C)ccc2CC1C(=O)NC1CCCc2ccccc21)C(C)(C)C

> <Shape>
0.226

> <Color>
0.085

> <Negative vol penalty>
0.000

$$$$

  -OEChem-04052321313D

 88 97  0     1  0  0  0  0  0999 V2000
  -26.5209  -36.9777   24.1792 C   0  0  0  0  0  0  0  0  0  0  0  0
  -27.1967  -35.8981   23.6196 C   0  0  0  0  0  0  0  0  0  0  0  0
  -26.0238  -13.3226   21.6218 C   0  0  0  0  0  0  0  0  0  0  0  0
  -25.3237  -12.9417   19.3410 C   0  0  0  0  0  0  0  0  0  0  0  0
  -25.3334  -36.7683   24.8792 C   0  0  0  0  0  0  0  0  0  0  0  0
  -26.6861  -34.6082   23.7607 C   0  0  0  0  0  0  0  0  0  0  0  0
  -27.0085  -30.0540   19.6789 C   0  0  0  0  0  0  0  0  0  0  0  0
  -25.0417  -12.4397   22.0707 C   0  0  0  0  0  0  0  0  0  0  0  0
  -24.3416  -12.0587   19.7900 C   0  0  0  0  0  0  0  0  0  0  0  0
  -27.8640  -28.9596   19.5602 C   0  0  0  0  0  0  0  0  0  0  0  0
  -24.6117   -9.0929   22.2872 C   0  0  0  0  0  0  0  0  0  0  0  0
  -24.9750   -8.1570   23.2555 C   0  0  0  0  0  0  0  0  0  0  0  0
  -26.2471  -27.5796   20.7005 C   0  0  0  0  0  0  0  0  0  0  0  0
  -23.3201   -9.0709   24.7599 C   0  0  0  0  0  0  0  0  0  0  0  0
  -26.1648  -13.5736   20.2569 C   0  0  0  0  0  0  0  0  0  0  0  0
  -28.5047  -14.1741   19.4374 C   0  0  0  0  0  0  0  0  0  0  0  0
  -24.8029  -35.4763   25.0207 C   0  0  0  0  0  0  0  0  0  0  0  0
  -25.7683  -29.9218   20.3201 C   0  0  0  0  0  0  0  0  0  0  0  0
  -25.4911  -34.3812   24.4645 C   0  0  0  0  0  0  0  0  0  0  0  0
  -25.3766  -28.6732   20.8238 C   0  0  0  0  0  0  0  0  0  0  0  0
  -24.2006  -11.8077   21.1549 C   0  0  0  0  0  0  0  0  0  0  0  0
  -27.4846  -27.7229   20.0736 C   0  0  0  0  0  0  0  0  0  0  0  0
  -23.6025  -10.0179   22.5552 C   0  0  0  0  0  0  0  0  0  0  0  0
  -24.3293   -8.1459   24.4918 C   0  0  0  0  0  0  0  0  0  0  0  0
  -22.9568  -10.0068   23.7916 C   0  0  0  0  0  0  0  0  0  0  0  0
  -27.1787  -14.4860   19.7925 C   0  0  0  0  0  0  0  0  0  0  0  0
  -29.0531  -15.3777   19.0671 C   0  0  0  0  0  0  0  0  0  0  0  0
  -29.1803  -12.9095   19.4417 C   0  0  0  0  0  0  0  0  0  0  0  0
  -30.9998  -22.8515   19.9096 C   0  0  0  0  0  0  0  0  0  0  0  0
  -24.4290  -31.2064   22.9007 C   0  0  0  0  0  0  0  0  0  0  0  0
  -21.8134  -29.5877   21.8707 C   0  0  0  0  0  0  0  0  0  0  0  0
  -20.5410  -26.9915   20.0575 C   0  0  0  0  0  0  0  0  0  0  0  0
  -27.1969  -20.9471   20.6580 C   0  0  0  0  0  0  0  0  0  0  0  0
  -23.5411  -35.2939   25.8266 C   0  0  0  0  0  0  0  0  0  0  0  0
  -24.8455  -31.1056   20.4163 C   0  0  0  0  0  0  0  0  0  0  0  0
  -24.0471  -28.4738   21.5029 C   0  0  0  0  0  0  0  0  0  0  0  0
  -22.8706  -33.9398   25.6102 C   0  0  0  0  0  0  0  0  0  0  0  0
  -27.8956  -19.6260   17.2243 C   0  0  0  0  0  0  0  0  0  0  0  0
  -23.9010  -32.8170   25.6772 C   0  0  0  0  0  0  0  0  0  0  0  0
  -31.0210  -25.3180   19.9923 C   0  0  0  0  0  0  0  0  0  0  0  0
  -29.2329  -24.0905   18.6918 C   0  0  0  0  0  0  0  0  0  0  0  0
  -27.8252  -18.1203   17.4741 C   0  0  0  0  0  0  0  0  0  0  0  0
  -30.6453  -26.6188   19.2821 C   0  0  0  0  0  0  0  0  0  0  0  0
  -28.8563  -25.3915   17.9817 C   0  0  0  0  0  0  0  0  0  0  0  0
  -28.6034  -22.2667   23.6416 C   0  0  0  0  0  0  0  0  0  0  0  0
  -27.0154  -20.3910   18.2056 C   0  0  0  0  0  0  0  0  0  0  0  0
  -27.7146  -21.1275   23.1365 C   0  0  0  0  0  0  0  0  0  0  0  0
  -27.2505  -18.6000   19.8965 C   0  0  0  0  0  0  0  0  0  0  0  0
  -29.4633  -20.4430   21.5255 C   0  0  0  0  0  0  0  0  0  0  0  0
  -24.9560  -32.9699   24.5749 C   0  0  1  0  0  0  0  0  0  0  0  0
  -30.6970  -24.0956   19.1323 C   0  0  0  0  0  0  0  0  0  0  0  0
  -23.8256  -30.9782   21.5436 C   0  0  1  0  0  0  0  0  0  0  0  0
  -30.0963  -21.9693   23.4287 C   0  0  1  0  0  0  0  0  0  0  0  0
  -28.1445  -17.7914   18.9422 C   0  0  1  0  0  0  0  0  0  0  0  0
  -30.3844  -21.5865   21.9613 C   0  0  2  0  0  0  0  0  0  0  0  0
  -29.1863  -26.6239   18.8236 C   0  0  0  0  0  0  0  0  0  1  0  0
  -18.3679  -25.9017   19.4354 C   0  0  0  0  0  0  0  0  0  0  0  0
  -30.7003  -23.4076   25.3906 C   0  0  0  0  0  0  0  0  0  0  0  0
  -32.4335  -22.8433   23.6640 C   0  0  0  0  0  0  0  0  0  0  0  0
  -21.6481  -28.3368   24.6488 C   0  0  0  0  0  0  0  0  0  0  0  0
  -20.1081  -26.6051   23.7013 C   0  0  0  0  0  0  0  0  0  0  0  0
  -19.4451  -29.0098   23.6750 C   0  0  0  0  0  0  0  0  0  0  0  0
  -20.9770  -27.5015   17.1751 C   0  0  0  0  0  0  0  0  0  0  0  0
  -21.2525  -28.2052   22.1009 C   0  0  1  0  0  0  0  0  0  0  0  0
  -19.4165  -26.9295   19.0396 C   0  0  2  0  0  0  0  0  0  0  0  0
  -30.9583  -23.1360   23.9128 C   0  0  0  0  0  0  0  0  0  0  0  0
  -20.6394  -28.0431   23.5205 C   0  0  0  0  0  0  0  0  0  0  0  0
  -26.9015  -15.7859   19.6600 N   0  0  0  0  0  0  0  0  0  0  0  0
  -28.0610  -16.3014   19.2175 N   0  0  0  0  0  0  0  0  0  0  0  0
  -23.1825  -29.6631   21.5780 N   0  0  0  0  0  0  0  0  0  0  0  0
  -27.3144  -20.0323   19.5986 N   0  0  0  0  0  0  0  0  0  0  0  0
  -28.0529  -20.7630   21.7544 N   0  0  0  0  0  0  0  0  0  0  0  0
  -30.2824  -15.7254   18.6309 N   0  0  0  0  0  0  0  0  0  0  0  0
  -28.4689  -11.7733   19.8506 N   0  0  0  0  0  0  0  0  0  0  0  0
  -24.4255  -32.5284   23.3029 N   0  0  0  0  0  0  0  0  0  0  0  0
  -30.2534  -22.7131   21.0649 N   0  0  0  0  0  0  0  0  0  0  0  0
  -20.3126  -27.9596   21.0125 N   0  0  0  0  0  0  0  0  0  0  0  0
  -19.9519  -26.5621   17.6982 N   0  3  0  0  0  0  0  0  0  0  0  0
  -30.3841  -12.7932   19.1088 O   0  0  0  0  0  0  0  0  0  0  0  0
  -31.8475  -22.0705   19.4936 O   0  0  0  0  0  0  0  0  0  0  0  0
  -24.8641  -30.2534   23.5365 O   0  0  0  0  0  0  0  0  0  0  0  0
  -21.0629  -30.5642   21.9408 O   0  0  0  0  0  0  0  0  0  0  0  0
  -21.5219  -26.2524   20.0124 O   0  0  0  0  0  0  0  0  0  0  0  0
  -26.3705  -21.8675   20.6268 O   0  0  0  0  0  0  0  0  0  0  0  0
  -23.2424  -10.9459   21.5926 O   0  0  0  0  0  0  0  0  0  0  0  0
  -28.3235  -26.6463   19.9590 O   0  0  0  0  0  0  0  0  0  1  0  0
  -24.6773   -7.2461   25.4210 F   0  0  0  0  0  0  0  0  0  0  0  0
  -21.9858  -10.8922   24.0544 F   0  0  0  0  0  0  0  0  0  0  0  0
  1  2  1  0  0  0  0
  1  5  2  0  0  0  0
  2  6  2  0  0  0  0
  3  8  2  0  0  0  0
  3 15  1  0  0  0  0
  4  9  1  0  0  0  0
  4 15  2  0  0  0  0
  5 17  1  0  0  0  0
  6 19  1  0  0  0  0
  7 10  2  0  0  0  0
  7 18  1  0  0  0  0
  8 21  1  0  0  0  0
  9 21  2  0  0  0  0
 10 22  1  0  0  0  0
 11 12  2  0  0  0  0
 11 23  1  0  0  0  0
 12 24  1  0  0  0  0
 13 20  1  0  0  0  0
 13 22  2  0  0  0  0
 14 24  2  0  0  0  0
 14 25  1  0  0  0  0
 15 26  1  0  0  0  0
 16 26  1  0  0  0  0
 16 27  2  0  0  0  0
 16 28  1  0  0  0  0
 17 19  2  0  0  0  0
 17 34  1  0  0  0  0
 18 20  2  0  0  0  0
 18 35  1  0  0  0  0
 19 50  1  0  0  0  0
 20 36  1  0  0  0  0
 21 85  1  0  0  0  0
 22 86  1  0  0  0  0
 23 25  2  0  0  0  0
 23 85  1  0  0  0  0
 24 87  1  0  0  0  0
 25 88  1  0  0  0  0
 26 68  2  0  0  0  0
 27 69  1  0  0  0  0
 27 73  1  0  0  0  0
 28 74  1  0  0  0  0
 28 79  2  0  0  0  0
 29 51  1  0  0  0  0
 29 76  1  0  0  0  0
 29 80  2  0  0  0  0
 30 52  1  0  0  0  0
 30 75  1  0  0  0  0
 30 81  2  0  0  0  0
 31 64  1  0  0  0  0
 31 70  1  0  0  0  0
 31 82  2  0  0  0  0
 32 65  1  0  0  0  0
 32 77  1  0  0  0  0
 32 83  2  0  0  0  0
 33 71  1  0  0  0  0
 33 72  1  0  0  0  0
 33 84  2  0  0  0  0
 34 37  1  0  0  0  0
 35 52  1  0  0  0  0
 36 70  1  0  0  0  0
 37 39  1  0  0  0  0
 38 42  1  0  0  0  0
 38 46  1  0  0  0  0
 39 50  1  0  0  0  0
 40 43  1  0  0  0  0
 40 51  1  0  0  0  0
 41 44  1  0  0  0  0
 41 51  1  0  0  0  0
 42 54  1  0  0  0  0
 43 56  1  0  0  0  0
 44 56  1  0  0  0  0
 45 47  1  0  0  0  0
 45 53  1  0  0  0  0
 46 71  1  0  0  0  0
 47 72  1  0  0  0  0
 48 54  1  0  0  0  0
 48 71  1  0  0  0  0
 49 55  1  0  0  0  0
 49 72  1  0  0  0  0
 50 75  1  0  0  0  0
 52 70  1  0  0  0  0
 53 55  1  0  0  0  0
 53 66  1  0  0  0  0
 54 69  1  0  0  0  0
 55 76  1  0  0  0  0
 56 86  1  0  0  0  0
 57 65  1  0  0  0  0
 58 66  1  0  0  0  0
 59 66  1  0  0  0  0
 60 67  1  0  0  0  0
 61 67  1  0  0  0  0
 62 67  1  0  0  0  0
 63 78  1  0  0  0  0
 64 67  1  0  0  0  0
 64 77  1  0  0  0  0
 65 78  1  0  0  0  0
 68 69  1  0  0  0  0
M  CHG  1  78   1
M  ISO  4  33 100  56 101  72 100  86 101
M  END
> <Batch ID>
0146

> <Smiles>
CNC(C)C(=O)NC(C(=O)N1Cc2cc([101O:1][101CH:1]3CCC(C(=O)NC4C[100N:0]([100C:0](=O)N5CCCC(n6nc(-c7ccc(Oc8ccc(F)cc8F)cc7)c(C(N)=O)c6N)C5)CCC4C(C)C)CC3)ccc2CC1C(=O)NC1CCCc2ccccc21)C(C)(C)C

> <Shape>
0.329

> <Color>
0.064

> <Negative vol penalty>
0.000

$$$$

  -OEChem-04052321313D

 90 99  0     1  0  0  0  0  0999 V2000
  -29.6988  -31.6809   26.4221 C   0  0  0  0  0  0  0  0  0  0  0  0
  -29.2979  -30.5872   25.6616 C   0  0  0  0  0  0  0  0  0  0  0  0
  -24.0663   -9.4915   21.3603 C   0  0  0  0  0  0  0  0  0  0  0  0
  -24.6735  -10.5323   23.4544 C   0  0  0  0  0  0  0  0  0  0  0  0
  -28.7578  -32.6219   26.8379 C   0  0  0  0  0  0  0  0  0  0  0  0
  -27.9554  -30.4333   25.3172 C   0  0  0  0  0  0  0  0  0  0  0  0
  -27.3312  -29.1428   20.4603 C   0  0  0  0  0  0  0  0  0  0  0  0
  -24.5917  -22.4026   22.1552 C   0  0  0  0  0  0  0  0  0  0  0  0
  -23.6401   -8.3556   22.0485 C   0  0  0  0  0  0  0  0  0  0  0  0
  -24.2472   -9.3964   24.1426 C   0  0  0  0  0  0  0  0  0  0  0  0
  -27.5636  -27.8108   20.1204 C   0  0  0  0  0  0  0  0  0  0  0  0
  -20.9323   -7.3918   23.8295 C   0  0  0  0  0  0  0  0  0  0  0  0
  -19.7117   -6.8285   23.4575 C   0  0  0  0  0  0  0  0  0  0  0  0
  -24.8589  -22.8479   23.4497 C   0  0  0  0  0  0  0  0  0  0  0  0
  -25.1877  -27.3945   20.1523 C   0  0  0  0  0  0  0  0  0  0  0  0
  -26.9855  -23.7237   22.7094 C   0  0  0  0  0  0  0  0  0  0  0  0
  -20.8334   -4.7602   22.9089 C   0  0  0  0  0  0  0  0  0  0  0  0
  -24.5831  -10.5799   22.0633 C   0  0  0  0  0  0  0  0  0  0  0  0
  -24.2537  -12.8823   21.0154 C   0  0  0  0  0  0  0  0  0  0  0  0
  -27.4046  -32.4846   26.4903 C   0  0  0  0  0  0  0  0  0  0  0  0
  -26.0237  -29.6089   20.6597 C   0  0  0  0  0  0  0  0  0  0  0  0
  -26.9952  -31.3726   25.7299 C   0  0  0  0  0  0  0  0  0  0  0  0
  -24.9412  -28.7335   20.4921 C   0  0  0  0  0  0  0  0  0  0  0  0
  -25.5214  -22.6177   21.1378 C   0  0  0  0  0  0  0  0  0  0  0  0
  -26.7182  -23.2783   21.4149 C   0  0  0  0  0  0  0  0  0  0  0  0
  -23.7305   -8.3080   23.4396 C   0  0  0  0  0  0  0  0  0  0  0  0
  -26.4919  -26.9357   19.9692 C   0  0  0  0  0  0  0  0  0  0  0  0
  -22.1035   -6.6394   23.7411 C   0  0  0  0  0  0  0  0  0  0  0  0
  -19.6623   -5.5127   22.9973 C   0  0  0  0  0  0  0  0  0  0  0  0
  -22.0541   -5.3236   23.2808 C   0  0  0  0  0  0  0  0  0  0  0  0
  -26.0558  -23.5085   23.7269 C   0  0  0  0  0  0  0  0  0  0  0  0
  -25.0240  -11.7534   21.3529 C   0  0  0  0  0  0  0  0  0  0  0  0
  -25.1278  -13.7086   20.3522 C   0  0  0  0  0  0  0  0  0  0  0  0
  -22.8717  -13.1593   21.2778 C   0  0  0  0  0  0  0  0  0  0  0  0
  -24.4352  -30.8504   23.1171 C   0  0  0  0  0  0  0  0  0  0  0  0
  -22.1063  -31.2685   20.8982 C   0  0  0  0  0  0  0  0  0  0  0  0
  -20.7308  -30.3095   17.9258 C   0  0  0  0  0  0  0  0  0  0  0  0
  -30.1313  -16.1376   19.8938 C   0  0  0  0  0  0  0  0  0  0  0  0
  -26.4166  -33.5024   27.0028 C   0  0  0  0  0  0  0  0  0  0  0  0
  -25.7883  -31.0550   20.9997 C   0  0  0  0  0  0  0  0  0  0  0  0
  -23.5173  -29.1890   20.6751 C   0  0  0  0  0  0  0  0  0  0  0  0
  -25.0731  -33.4651   26.2791 C   0  0  0  0  0  0  0  0  0  0  0  0
  -29.7915  -12.8391   18.5972 C   0  0  0  0  0  0  0  0  0  0  0  0
  -24.5781  -32.0285   26.1459 C   0  0  0  0  0  0  0  0  0  0  0  0
  -28.4611  -12.3540   19.1756 C   0  0  0  0  0  0  0  0  0  0  0  0
  -29.6681  -19.1610   21.6440 C   0  0  0  0  0  0  0  0  0  0  0  0
  -30.5524  -13.7155   19.5897 C   0  0  0  0  0  0  0  0  0  0  0  0
  -28.4537  -14.3696   20.7039 C   0  0  0  0  0  0  0  0  0  0  0  0
  -28.8014  -20.7682   19.3927 C   0  0  0  0  0  0  0  0  0  0  0  0
  -25.5520  -31.1841   25.3153 C   0  0  1  0  0  0  0  0  0  0  0  0
  -24.4458  -31.2974   21.6826 C   0  0  1  0  0  0  0  0  0  0  0  0
  -27.6245  -13.5279   19.7189 C   0  0  2  0  0  0  0  0  0  0  0  0
  -29.5621  -18.5256   20.2576 C   0  0  2  0  0  0  0  0  0  0  0  0
  -28.5057  -19.2692   19.4424 C   0  0  2  0  0  0  0  0  0  0  0  0
  -29.9256  -20.6814   21.5571 C   0  0  2  0  0  0  0  0  0  0  0  0
  -25.2140  -22.1313   19.7596 C   0  0  0  0  0  0  0  0  0  0  0  0
  -30.0075  -21.2331   22.9879 C   0  0  0  0  0  0  0  0  0  0  0  0
  -18.8090  -30.8106   16.3917 C   0  0  0  0  0  0  0  0  0  0  0  0
  -20.2191  -29.7847   22.7816 C   0  0  0  0  0  0  0  0  0  0  0  0
  -18.6470  -29.4835   20.8565 C   0  0  0  0  0  0  0  0  0  0  0  0
  -19.2137  -31.7780   21.6544 C   0  0  0  0  0  0  0  0  0  0  0  0
  -22.5439  -31.0722   15.7145 C   0  0  0  0  0  0  0  0  0  0  0  0
  -29.0658  -22.7904   20.6509 C   0  0  0  0  0  0  0  0  0  0  0  0
  -27.9646  -25.0287   20.0823 C   0  0  0  0  0  0  0  0  0  1  0  0
  -27.7500  -23.5236   20.3199 C   0  0  2  0  0  0  0  0  0  0  0  0
  -20.9494  -30.4403   20.3935 C   0  0  1  0  0  0  0  0  0  0  0  0
  -20.2610  -31.1139   16.7271 C   0  0  2  0  0  0  0  0  0  0  0  0
  -19.7841  -30.3623   21.4199 C   0  0  0  0  0  0  0  0  0  0  0  0
  -26.2900  -11.8502   20.9383 N   0  0  0  0  0  0  0  0  0  0  0  0
  -26.3219  -13.0498   20.3333 N   0  0  0  0  0  0  0  0  0  0  0  0
  -23.3391  -30.6107   21.0133 N   0  0  0  0  0  0  0  0  0  0  0  0
  -29.7037  -14.8106   20.0653 N   0  0  0  0  0  0  0  0  0  0  0  0
  -28.8725  -21.3466   20.7506 N   0  0  1  0  0  0  0  0  0  0  0  0
  -24.9837  -14.9270   19.7892 N   0  0  0  0  0  0  0  0  0  0  0  0
  -22.1184  -12.2022   21.9711 N   0  0  0  0  0  0  0  0  0  0  0  0
  -25.3892  -31.4656   23.9051 N   0  0  0  0  0  0  0  0  0  0  0  0
  -20.5726  -31.0086   19.1037 N   0  0  0  0  0  0  0  0  0  0  0  0
  -29.2644  -17.1149   20.3673 N   0  0  0  0  0  0  0  0  0  0  0  0
  -28.4880  -18.7399   18.0509 N   0  3  0  0  0  0  0  0  0  0  0  0
  -21.0950  -30.7989   15.5329 N   0  3  0  0  0  0  0  0  0  0  0  0
  -22.3170  -14.2169   20.8941 O   0  0  0  0  0  0  0  0  0  0  0  0
  -23.6208  -30.0107   23.4823 O   0  0  0  0  0  0  0  0  0  0  0  0
  -21.9244  -32.4572   21.1732 O   0  0  0  0  0  0  0  0  0  0  0  0
  -21.1885  -29.1732   17.8274 O   0  0  0  0  0  0  0  0  0  0  0  0
  -31.2036  -16.4298   19.3537 O   0  0  0  0  0  0  0  0  0  0  0  0
  -23.3145   -7.1998   24.1115 O   0  0  0  0  0  0  0  0  0  0  0  0
  -26.7160  -25.6349   19.6382 O   0  0  0  0  0  0  0  0  0  1  0  0
  -18.4898   -4.9714   22.6416 F   0  0  0  0  0  0  0  0  0  0  0  0
  -23.1758   -4.5954   23.1948 F   0  0  0  0  0  0  0  0  0  0  0  0
  -26.3858  -24.0562   25.3243 Cl  0  0  0  0  0  0  0  0  0  0  0  0
  1  2  1  0  0  0  0
  1  5  2  0  0  0  0
  2  6  2  0  0  0  0
  3  9  2  0  0  0  0
  3 18  1  0  0  0  0
  4 10  1  0  0  0  0
  4 18  2  0  0  0  0
  5 20  1  0  0  0  0
  6 22  1  0  0  0  0
  7 11  2  0  0  0  0
  7 21  1  0  0  0  0
  8 14  2  0  0  0  0
  8 24  1  0  0  0  0
  9 26  1  0  0  0  0
 10 26  2  0  0  0  0
 11 27  1  0  0  0  0
 12 13  2  0  0  0  0
 12 28  1  0  0  0  0
 13 29  1  0  0  0  0
 14 31  1  0  0  0  0
 15 23  1  0  0  0  0
 15 27  2  0  0  0  0
 16 25  1  0  0  0  0
 16 31  2  0  0  0  0
 17 29  2  0  0  0  0
 17 30  1  0  0  0  0
 18 32  1  0  0  0  0
 19 32  1  0  0  0  0
 19 33  2  0  0  0  0
 19 34  1  0  0  0  0
 20 22  2  0  0  0  0
 20 39  1  0  0  0  0
 21 23  2  0  0  0  0
 21 40  1  0  0  0  0
 22 50  1  0  0  0  0
 23 41  1  0  0  0  0
 24 25  2  0  0  0  0
 24 56  1  0  0  0  0
 25 65  1  0  0  0  0
 26 86  1  0  0  0  0
 27 87  1  0  0  0  0
 28 30  2  0  0  0  0
 28 86  1  0  0  0  0
 29 88  1  0  0  0  0
 30 89  1  0  0  0  0
 31 90  1  0  0  0  0
 32 69  2  0  0  0  0
 33 70  1  0  0  0  0
 33 74  1  0  0  0  0
 34 75  1  0  0  0  0
 34 81  2  0  0  0  0
 35 51  1  0  0  0  0
 35 76  1  0  0  0  0
 35 82  2  0  0  0  0
 36 66  1  0  0  0  0
 36 71  1  0  0  0  0
 36 83  2  0  0  0  0
 37 67  1  0  0  0  0
 37 77  1  0  0  0  0
 37 84  2  0  0  0  0
 38 72  1  0  0  0  0
 38 78  1  0  0  0  0
 38 85  2  0  0  0  0
 39 42  1  0  0  0  0
 40 51  1  0  0  0  0
 41 71  1  0  0  0  0
 42 44  1  0  0  0  0
 43 45  1  0  0  0  0
 43 47  1  0  0  0  0
 44 50  1  0  0  0  0
 45 52  1  0  0  0  0
 46 53  1  0  0  0  0
 46 55  1  0  0  0  0
 47 72  1  0  0  0  0
 48 52  1  0  0  0  0
 48 72  1  0  0  0  0
 49 54  1  0  0  0  0
 49 73  1  0  0  0  0
 50 76  1  0  0  0  0
 51 71  1  0  0  0  0
 52 70  1  0  0  0  0
 53 54  1  0  0  0  0
 53 78  1  0  0  0  0
 54 79  1  0  0  0  0
 55 57  1  0  0  0  0
 55 73  1  0  0  0  0
 58 67  1  0  0  0  0
 59 68  1  0  0  0  0
 60 68  1  0  0  0  0
 61 68  1  0  0  0  0
 62 80  1  0  0  0  0
 63 65  1  0  0  0  0
 63 73  1  0  0  0  0
 64 65  1  0  0  0  0
 64 87  1  0  0  0  0
 66 68  1  0  0  0  0
 66 77  1  0  0  0  0
 67 80  1  0  0  0  0
 69 70  1  0  0  0  0
M  CHG  2  79   1  80   1
M  ISO  4  38 100  64 101  78 100  87 101
M  END
> <Batch ID>
0146

> <Smiles>
CNC(C)C(=O)NC(C(=O)N1Cc2cc([101O:1][101CH2:1]C(CN3CC(N)C([100NH:0][100C:0](=O)N4CCCC(n5nc(-c6ccc(Oc7ccc(F)cc7F)cc6)c(C(N)=O)c5N)C4)CC3C)c3cc(Cl)ccc3C)ccc2CC1C(=O)NC1CCCc2ccccc21)C(C)(C)C

> <Shape>
0.346

> <Color>
0.145

> <Negative vol penalty>
0.000

$$$$

  -OEChem-04052321313D

 85 94  0     1  0  0  0  0  0999 V2000
  -18.2900  -29.0068   18.9063 C   0  0  0  0  0  0  0  0  0  0  0  0
  -19.6056  -29.4589   18.9153 C   0  0  0  0  0  0  0  0  0  0  0  0
  -25.9238  -13.8200   19.3755 C   0  0  0  0  0  0  0  0  0  0  0  0
  -25.4414  -13.5882   21.7315 C   0  0  0  0  0  0  0  0  0  0  0  0
  -17.7428  -28.4347   20.0540 C   0  0  0  0  0  0  0  0  0  0  0  0
  -20.3745  -29.3403   20.0725 C   0  0  0  0  0  0  0  0  0  0  0  0
  -30.8699  -25.5888   20.0787 C   0  0  0  0  0  0  0  0  0  0  0  0
  -32.0216  -24.6861   18.1562 C   0  0  0  0  0  0  0  0  0  0  0  0
  -25.0435  -27.6182   19.1347 C   0  0  0  0  0  0  0  0  0  0  0  0
  -25.7633  -12.4447   19.2073 C   0  0  0  0  0  0  0  0  0  0  0  0
  -25.2808  -12.2129   21.5633 C   0  0  0  0  0  0  0  0  0  0  0  0
  -30.7383  -24.3032   20.6035 C   0  0  0  0  0  0  0  0  0  0  0  0
  -31.8901  -23.4005   18.6811 C   0  0  0  0  0  0  0  0  0  0  0  0
  -25.9671  -28.5286   18.6230 C   0  0  0  0  0  0  0  0  0  0  0  0
  -22.9019  -10.1069   20.4119 C   0  0  0  0  0  0  0  0  0  0  0  0
  -21.8020   -9.5048   21.0230 C   0  0  0  0  0  0  0  0  0  0  0  0
  -26.9100  -28.8014   20.8266 C   0  0  0  0  0  0  0  0  0  0  0  0
  -23.2863   -8.0886   22.2992 C   0  0  0  0  0  0  0  0  0  0  0  0
  -25.7629  -14.3918   20.6376 C   0  0  0  0  0  0  0  0  0  0  0  0
  -24.9353  -16.8039   20.7064 C   0  0  0  0  0  0  0  0  0  0  0  0
  -31.5115  -25.7803   18.8550 C   0  0  0  0  0  0  0  0  0  0  0  0
  -18.5084  -28.3003   21.2229 C   0  0  0  0  0  0  0  0  0  0  0  0
  -25.0392  -27.3003   20.5005 C   0  0  0  0  0  0  0  0  0  0  0  0
  -19.8366  -28.7672   21.2374 C   0  0  0  0  0  0  0  0  0  0  0  0
  -25.9869  -27.8847   21.3527 C   0  0  0  0  0  0  0  0  0  0  0  0
  -25.4418  -11.6411   20.3012 C   0  0  0  0  0  0  0  0  0  0  0  0
  -31.2484  -23.2090   19.9047 C   0  0  0  0  0  0  0  0  0  0  0  0
  -26.8987  -29.1226   19.4695 C   0  0  0  0  0  0  0  0  0  0  0  0
  -24.1940   -9.6998   20.7444 C   0  0  0  0  0  0  0  0  0  0  0  0
  -21.9943   -8.4957   21.9667 C   0  0  0  0  0  0  0  0  0  0  0  0
  -24.3862   -8.6907   21.6880 C   0  0  0  0  0  0  0  0  0  0  0  0
  -25.9291  -15.8124   20.8121 C   0  0  0  0  0  0  0  0  0  0  0  0
  -25.5966  -17.9810   20.9585 C   0  0  0  0  0  0  0  0  0  0  0  0
  -23.5393  -16.6726   20.4071 C   0  0  0  0  0  0  0  0  0  0  0  0
  -22.9452  -27.6175   22.8708 C   0  0  0  0  0  0  0  0  0  0  0  0
  -25.1595  -25.9271   24.5326 C   0  0  0  0  0  0  0  0  0  0  0  0
  -28.4188  -24.9757   24.8771 C   0  0  0  0  0  0  0  0  0  0  0  0
  -29.9502  -21.2587   20.0444 C   0  0  0  0  0  0  0  0  0  0  0  0
  -17.8586  -27.7184   22.4533 C   0  0  0  0  0  0  0  0  0  0  0  0
  -24.0536  -26.2960   21.0320 C   0  0  0  0  0  0  0  0  0  0  0  0
  -26.0373  -27.5618   22.8229 C   0  0  0  0  0  0  0  0  0  0  0  0
  -18.8579  -27.2883   23.5242 C   0  0  0  0  0  0  0  0  0  0  0  0
  -30.2368  -18.8464   22.7525 C   0  0  0  0  0  0  0  0  0  0  0  0
  -19.9049  -28.3754   23.7449 C   0  0  0  0  0  0  0  0  0  0  0  0
  -29.0753  -17.9002   22.4498 C   0  0  0  0  0  0  0  0  0  0  0  0
  -31.1522  -27.4281   16.8963 C   0  0  0  0  0  0  0  0  0  0  0  0
  -30.8704  -19.3854   21.4730 C   0  0  0  0  0  0  0  0  0  0  0  0
  -28.7298  -19.1059   20.2500 C   0  0  0  0  0  0  0  0  0  0  0  0
  -31.6510  -27.1468   18.2964 C   0  0  1  0  0  0  0  0  0  0  0  0
  -20.7103  -28.6334   22.4658 C   0  0  1  0  0  0  0  0  0  0  0  0
  -23.8083  -26.4353   22.5312 C   0  0  1  0  0  0  0  0  0  0  0  0
  -28.0478  -18.5678   21.5188 C   0  0  1  0  0  0  0  0  0  0  0  0
  -30.4102  -27.9837   18.0731 C   0  0  1  0  0  0  0  0  0  0  0  0
  -31.2918  -32.2239   17.7058 C   0  0  0  0  0  0  0  0  0  0  0  0
  -30.3997  -23.7452   25.8040 C   0  0  0  0  0  0  0  0  0  0  0  0
  -25.1019  -28.1475   26.6246 C   0  0  0  0  0  0  0  0  0  0  0  0
  -27.2487  -27.2433   27.5422 C   0  0  0  0  0  0  0  0  0  0  0  0
  -25.1923  -25.8314   27.5637 C   0  0  0  0  0  0  0  0  0  0  0  0
  -28.0069  -22.6926   23.0395 C   0  0  0  0  0  0  0  0  0  0  0  0
  -29.8442  -31.7572   17.7795 C   0  0  0  0  0  0  0  0  0  0  0  0
  -28.2087  -29.8349   17.6168 C   0  0  0  0  0  0  0  0  0  1  0  0
  -26.3658  -26.2785   25.3694 C   0  0  1  0  0  0  0  0  0  0  0  0
  -29.0518  -23.6161   25.1117 C   0  0  2  0  0  0  0  0  0  0  0  0
  -29.6585  -30.2777   17.4315 C   0  0  2  0  0  0  0  0  0  0  0  0
  -25.9753  -26.8829   26.7477 C   0  0  0  0  0  0  0  0  0  0  0  0
  -27.1303  -16.3158   21.1081 N   0  0  0  0  0  0  0  0  0  0  0  0
  -26.8957  -17.6365   21.1905 N   0  0  0  0  0  0  0  0  0  0  0  0
  -25.0488  -26.5787   23.2960 N   0  0  0  0  0  0  0  0  0  0  0  0
  -29.8575  -19.9748   20.5916 N   0  0  0  0  0  0  0  0  0  0  0  0
  -25.1877  -19.2669   21.0020 N   0  0  0  0  0  0  0  0  0  0  0  0
  -23.0236  -15.3903   20.1746 N   0  0  0  0  0  0  0  0  0  0  0  0
  -21.6995  -27.5947   22.2732 N   0  0  0  0  0  0  0  0  0  0  0  0
  -27.1704  -25.0646   25.4557 N   0  0  0  0  0  0  0  0  0  0  0  0
  -30.5129  -29.4428   18.3268 N   0  3  0  0  0  0  0  0  0  0  0  0
  -29.2549  -22.9086   23.8159 N   0  3  0  0  0  0  0  0  0  0  0  0
  -22.7753  -17.6646   20.3316 O   0  0  0  0  0  0  0  0  0  0  0  0
  -23.3769  -28.4853   23.6206 O   0  0  0  0  0  0  0  0  0  0  0  0
  -24.3493  -25.0995   24.9571 O   0  0  0  0  0  0  0  0  0  0  0  0
  -28.9776  -25.8708   24.2469 O   0  0  0  0  0  0  0  0  0  0  0  0
  -29.1036  -21.7584   19.3043 O   0  0  0  0  0  0  0  0  0  0  0  0
  -25.2849  -10.2991   20.1374 O   0  0  0  0  0  0  0  0  0  0  0  0
  -31.1188  -21.9202   20.4322 O   0  0  0  0  0  0  0  0  0  0  0  0
  -27.8009  -30.0121   18.9728 O   0  0  0  0  0  0  0  0  0  1  0  0
  -20.9380   -7.9187   22.5546 F   0  0  0  0  0  0  0  0  0  0  0  0
  -25.6251   -8.2963   22.0124 F   0  0  0  0  0  0  0  0  0  0  0  0
  1  2  1  0  0  0  0
  1  5  2  0  0  0  0
  2  6  2  0  0  0  0
  3 10  2  0  0  0  0
  3 19  1  0  0  0  0
  4 11  1  0  0  0  0
  4 19  2  0  0  0  0
  5 22  1  0  0  0  0
  6 24  1  0  0  0  0
  7 12  2  0  0  0  0
  7 21  1  0  0  0  0
  8 13  1  0  0  0  0
  8 21  2  0  0  0  0
  9 14  2  0  0  0  0
  9 23  1  0  0  0  0
 10 26  1  0  0  0  0
 11 26  2  0  0  0  0
 12 27  1  0  0  0  0
 13 27  2  0  0  0  0
 14 28  1  0  0  0  0
 15 16  2  0  0  0  0
 15 29  1  0  0  0  0
 16 30  1  0  0  0  0
 17 25  1  0  0  0  0
 17 28  2  0  0  0  0
 18 30  2  0  0  0  0
 18 31  1  0  0  0  0
 19 32  1  0  0  0  0
 20 32  1  0  0  0  0
 20 33  2  0  0  0  0
 20 34  1  0  0  0  0
 21 49  1  0  0  0  0
 22 24  2  0  0  0  0
 22 39  1  0  0  0  0
 23 25  2  0  0  0  0
 23 40  1  0  0  0  0
 24 50  1  0  0  0  0
 25 41  1  0  0  0  0
 26 81  1  0  0  0  0
 27 82  1  0  0  0  0
 28 83  1  0  0  0  0
 29 31  2  0  0  0  0
 29 81  1  0  0  0  0
 30 84  1  0  0  0  0
 31 85  1  0  0  0  0
 32 66  2  0  0  0  0
 33 67  1  0  0  0  0
 33 70  1  0  0  0  0
 34 71  1  0  0  0  0
 34 76  2  0  0  0  0
 35 51  1  0  0  0  0
 35 72  1  0  0  0  0
 35 77  2  0  0  0  0
 36 62  1  0  0  0  0
 36 68  1  0  0  0  0
 36 78  2  0  0  0  0
 37 63  1  0  0  0  0
 37 73  1  0  0  0  0
 37 79  2  0  0  0  0
 38 69  1  0  0  0  0
 38 80  2  0  0  0  0
 38 82  1  0  0  0  0
 39 42  1  0  0  0  0
 40 51  1  0  0  0  0
 41 68  1  0  0  0  0
 42 44  1  0  0  0  0
 43 45  1  0  0  0  0
 43 47  1  0  0  0  0
 44 50  1  0  0  0  0
 45 52  1  0  0  0  0
 46 49  1  0  0  0  0
 46 53  1  0  0  0  0
 47 69  1  0  0  0  0
 48 52  1  0  0  0  0
 48 69  1  0  0  0  0
 49 53  1  0  0  0  0
 50 72  1  0  0  0  0
 51 68  1  0  0  0  0
 52 67  1  0  0  0  0
 53 74  1  0  0  0  0
 54 60  1  0  0  0  0
 55 63  1  0  0  0  0
 56 65  1  0  0  0  0
 57 65  1  0  0  0  0
 58 65  1  0  0  0  0
 59 75  1  0  0  0  0
 60 64  1  0  0  0  0
 61 64  1  0  0  0  0
 61 83  1  0  0  0  0
 62 65  1  0  0  0  0
 62 73  1  0  0  0  0
 63 75  1  0  0  0  0
 64 74  1  0  0  0  0
 66 67  1  0  0  0  0
M  CHG  2  74   1  75   1
M  ISO  4  38 100  61 101  82 100  83 101
M  END
> <Batch ID>
0146

> <Smiles>
CCC(NC1CC1c1ccc([100O:0][100C:0](=O)N2CCCC(n3nc(-c4ccc(Oc5ccc(F)cc5F)cc4)c(C(N)=O)c3N)C2)cc1)[101CH2:1][101O:1]c1ccc2c(c1)CN(C(=O)C(NC(=O)C(C)NC)C(C)(C)C)C(C(=O)NC1CCCc3ccccc31)C2

> <Shape>
0.206

> <Color>
0.090

> <Negative vol penalty>
0.000

$$$$

  -OEChem-04052321313D

 87 97  0     1  0  0  0  0  0999 V2000
  -17.1611  -27.4306   24.2060 C   0  0  0  0  0  0  0  0  0  0  0  0
  -18.0088  -26.7821   23.3136 C   0  0  0  0  0  0  0  0  0  0  0  0
  -23.0050  -10.3429   20.8735 C   0  0  0  0  0  0  0  0  0  0  0  0
  -24.6439   -8.9517   21.9760 C   0  0  0  0  0  0  0  0  0  0  0  0
  -17.2181  -28.8174   24.3373 C   0  0  0  0  0  0  0  0  0  0  0  0
  -18.9133  -27.5203   22.5512 C   0  0  0  0  0  0  0  0  0  0  0  0
  -23.5258  -25.4324   22.4487 C   0  0  0  0  0  0  0  0  0  0  0  0
  -22.1219   -9.2644   20.8252 C   0  0  0  0  0  0  0  0  0  0  0  0
  -23.7608   -7.8731   21.9278 C   0  0  0  0  0  0  0  0  0  0  0  0
  -23.7123  -24.3416   21.6006 C   0  0  0  0  0  0  0  0  0  0  0  0
  -21.0467   -6.8002   23.6316 C   0  0  0  0  0  0  0  0  0  0  0  0
  -20.9037   -6.0296   24.7854 C   0  0  0  0  0  0  0  0  0  0  0  0
  -28.5049  -22.5920   15.8877 C   0  0  0  0  0  0  0  0  0  0  0  0
  -24.7375  -25.7930   19.9692 C   0  0  0  0  0  0  0  0  0  0  0  0
  -27.8445  -20.4560   17.5562 C   0  0  0  0  0  0  0  0  0  0  0  0
  -21.6592   -4.0791   23.5763 C   0  0  0  0  0  0  0  0  0  0  0  0
  -24.2661  -10.1866   21.4488 C   0  0  0  0  0  0  0  0  0  0  0  0
  -25.2995  -12.2556   22.5254 C   0  0  0  0  0  0  0  0  0  0  0  0
  -18.1305  -29.5721   23.5831 C   0  0  0  0  0  0  0  0  0  0  0  0
  -23.9347  -26.7156   22.0582 C   0  0  0  0  0  0  0  0  0  0  0  0
  -18.9817  -28.9187   22.6716 C   0  0  0  0  0  0  0  0  0  0  0  0
  -28.8513  -21.2905   15.5247 C   0  0  0  0  0  0  0  0  0  0  0  0
  -24.5575  -26.8980   20.8152 C   0  0  0  0  0  0  0  0  0  0  0  0
  -28.5211  -20.2225   16.3589 C   0  0  0  0  0  0  0  0  0  0  0  0
  -27.8283  -22.8255   17.0849 C   0  0  0  0  0  0  0  0  0  0  0  0
  -22.4997   -8.0295   21.3524 C   0  0  0  0  0  0  0  0  0  0  0  0
  -24.3156  -24.5223   20.3595 C   0  0  0  0  0  0  0  0  0  0  0  0
  -21.4959   -6.2103   22.4501 C   0  0  0  0  0  0  0  0  0  0  0  0
  -27.4981  -21.7575   17.9192 C   0  0  0  0  0  0  0  0  0  0  0  0
  -21.2100   -4.6690   24.7578 C   0  0  0  0  0  0  0  0  0  0  0  0
  -21.8022   -4.8497   22.4225 C   0  0  0  0  0  0  0  0  0  0  0  0
  -25.1790  -11.3003   21.4985 C   0  0  0  0  0  0  0  0  0  0  0  0
  -26.2999  -13.0943   22.0985 C   0  0  0  0  0  0  0  0  0  0  0  0
  -24.5722  -12.3743   23.7553 C   0  0  0  0  0  0  0  0  0  0  0  0
  -22.4554  -29.4819   21.5452 C   0  0  0  0  0  0  0  0  0  0  0  0
  -25.4837  -30.5896   21.1920 C   0  0  0  0  0  0  0  0  0  0  0  0
  -28.7472  -29.9169   20.4545 C   0  0  0  0  0  0  0  0  0  0  0  0
  -28.4653  -16.1699   18.0730 C   0  0  0  0  0  0  0  0  0  0  0  0
  -18.1226  -31.0736   23.7249 C   0  0  0  0  0  0  0  0  0  0  0  0
  -23.7506  -27.8774   22.9957 C   0  0  0  0  0  0  0  0  0  0  0  0
  -25.0327  -28.2518   20.3574 C   0  0  0  0  0  0  0  0  0  0  0  0
  -19.3686  -31.7458   23.1539 C   0  0  0  0  0  0  0  0  0  0  0  0
  -29.5797  -12.6597   18.2956 C   0  0  0  0  0  0  0  0  0  0  0  0
  -28.9720  -21.5840   12.9608 C   0  0  0  0  0  0  0  0  0  0  0  0
  -28.9953  -20.1117   13.2295 C   0  0  0  0  0  0  0  0  0  0  0  0
  -19.6928  -31.1843   21.7732 C   0  0  0  0  0  0  0  0  0  0  0  0
  -28.5012  -12.0662   19.1971 C   0  0  0  0  0  0  0  0  0  0  0  0
  -30.3142  -18.4921   15.6785 C   0  0  0  0  0  0  0  0  0  0  0  0
  -29.0286  -13.7611   17.3909 C   0  0  0  0  0  0  0  0  0  0  0  0
  -27.2405  -14.2480   19.0370 C   0  0  0  0  0  0  0  0  0  0  0  0
  -29.5759  -21.0659   14.2387 C   0  0  0  0  0  0  0  0  0  0  0  0
  -28.8802  -18.8205   15.9918 C   0  0  1  0  0  0  0  0  0  0  0  0
  -19.9936  -29.6824   21.8451 C   0  0  1  0  0  0  0  0  0  0  0  0
  -23.7398  -29.2255   22.2816 C   0  0  1  0  0  0  0  0  0  0  0  0
  -27.7864  -13.1722   19.9884 C   0  0  1  0  0  0  0  0  0  0  0  0
  -29.7034  -18.0017   16.9578 C   0  0  1  0  0  0  0  0  0  0  0  0
  -27.4650  -24.2250   17.4577 C   0  0  0  0  0  0  0  0  0  0  0  0
  -30.9819  -31.0321   20.2102 C   0  0  0  0  0  0  0  0  0  0  0  0
  -24.6222  -31.7189   18.4916 C   0  0  0  0  0  0  0  0  0  0  0  0
  -27.0427  -31.9608   17.8990 C   0  0  0  0  0  0  0  0  0  0  0  0
  -26.1005  -33.2283   19.8299 C   0  0  0  0  0  0  0  0  0  0  0  0
  -29.9275  -28.2872   22.6247 C   0  0  0  0  0  0  0  0  0  0  0  0
  -24.6890  -22.1839   20.1400 C   0  0  0  0  0  0  0  0  0  1  0  0
  -25.5702  -21.3336   19.2455 C   0  0  0  0  0  0  0  0  0  0  0  0
  -26.4420  -30.7315   20.0342 C   0  0  1  0  0  0  0  0  0  0  0  0
  -30.0382  -30.3028   21.1537 C   0  0  2  0  0  0  0  0  0  0  0  0
  -26.0412  -31.8846   19.0712 C   0  0  0  0  0  0  0  0  0  0  0  0
  -26.0345  -11.5116   20.4947 N   0  0  0  0  0  0  0  0  0  0  0  0
  -26.7019  -12.6094   20.8888 N   0  0  0  0  0  0  0  0  0  0  0  0
  -24.8246  -29.3575   21.3069 N   0  0  0  0  0  0  0  0  0  0  0  0
  -28.2933  -14.7766   18.1609 N   0  0  0  0  0  0  0  0  0  0  0  0
  -26.8660  -14.1920   22.6435 N   0  0  0  0  0  0  0  0  0  0  0  0
  -23.5778  -11.4278   24.0374 N   0  0  0  0  0  0  0  0  0  0  0  0
  -21.3317  -29.4584   22.3490 N   0  0  0  0  0  0  0  0  0  0  0  0
  -27.7706  -30.8762   20.6192 N   0  0  0  0  0  0  0  0  0  0  0  0
  -29.4210  -16.6061   17.1624 N   0  0  0  0  0  0  0  0  0  0  0  0
  -30.7325  -29.0881   21.6668 N   0  3  0  0  0  0  0  0  0  0  0  0
  -24.7861  -13.3020   24.5720 O   0  0  0  0  0  0  0  0  0  0  0  0
  -22.4822  -29.6875   20.3374 O   0  0  0  0  0  0  0  0  0  0  0  0
  -25.3312  -31.5346   21.9701 O   0  0  0  0  0  0  0  0  0  0  0  0
  -28.6192  -28.8709   19.8220 O   0  0  0  0  0  0  0  0  0  0  0  0
  -27.8116  -16.9697   18.7518 O   0  0  0  0  0  0  0  0  0  0  0  0
  -21.6381   -6.9769   21.3057 O   0  0  0  0  0  0  0  0  0  0  0  0
  -24.4982  -23.4595   19.5294 O   0  0  0  0  0  0  0  0  0  1  0  0
  -26.8342  -21.9692   19.0988 O   0  0  0  0  0  0  0  0  0  0  0  0
  -21.0740   -3.9294   25.8663 F   0  0  0  0  0  0  0  0  0  0  0  0
  -22.2354   -4.2777   21.2907 F   0  0  0  0  0  0  0  0  0  0  0  0
  1  2  1  0  0  0  0
  1  5  2  0  0  0  0
  2  6  2  0  0  0  0
  3  8  2  0  0  0  0
  3 17  1  0  0  0  0
  4  9  1  0  0  0  0
  4 17  2  0  0  0  0
  5 19  1  0  0  0  0
  6 21  1  0  0  0  0
  7 10  2  0  0  0  0
  7 20  1  0  0  0  0
  8 26  1  0  0  0  0
  9 26  2  0  0  0  0
 10 27  1  0  0  0  0
 11 12  2  0  0  0  0
 11 28  1  0  0  0  0
 12 30  1  0  0  0  0
 13 22  2  0  0  0  0
 13 25  1  0  0  0  0
 14 23  1  0  0  0  0
 14 27  2  0  0  0  0
 15 24  2  0  0  0  0
 15 29  1  0  0  0  0
 16 30  2  0  0  0  0
 16 31  1  0  0  0  0
 17 32  1  0  0  0  0
 18 32  1  0  0  0  0
 18 33  2  0  0  0  0
 18 34  1  0  0  0  0
 19 21  2  0  0  0  0
 19 39  1  0  0  0  0
 20 23  2  0  0  0  0
 20 40  1  0  0  0  0
 21 53  1  0  0  0  0
 22 24  1  0  0  0  0
 22 51  1  0  0  0  0
 23 41  1  0  0  0  0
 24 52  1  0  0  0  0
 25 29  2  0  0  0  0
 25 57  1  0  0  0  0
 26 83  1  0  0  0  0
 27 84  1  0  0  0  0
 28 31  2  0  0  0  0
 28 83  1  0  0  0  0
 29 85  1  0  0  0  0
 30 86  1  0  0  0  0
 31 87  1  0  0  0  0
 32 68  2  0  0  0  0
 33 69  1  0  0  0  0
 33 72  1  0  0  0  0
 34 73  1  0  0  0  0
 34 78  2  0  0  0  0
 35 54  1  0  0  0  0
 35 74  1  0  0  0  0
 35 79  2  0  0  0  0
 36 65  1  0  0  0  0
 36 70  1  0  0  0  0
 36 80  2  0  0  0  0
 37 66  1  0  0  0  0
 37 75  1  0  0  0  0
 37 81  2  0  0  0  0
 38 71  1  0  0  0  0
 38 76  1  0  0  0  0
 38 82  2  0  0  0  0
 39 42  1  0  0  0  0
 40 54  1  0  0  0  0
 41 70  1  0  0  0  0
 42 46  1  0  0  0  0
 43 47  1  0  0  0  0
 43 49  1  0  0  0  0
 44 45  1  0  0  0  0
 44 51  1  0  0  0  0
 45 51  1  0  0  0  0
 46 53  1  0  0  0  0
 47 55  1  0  0  0  0
 48 52  1  0  0  0  0
 48 56  1  0  0  0  0
 49 71  1  0  0  0  0
 50 55  1  0  0  0  0
 50 71  1  0  0  0  0
 52 56  1  0  0  0  0
 53 74  1  0  0  0  0
 54 70  1  0  0  0  0
 55 69  1  0  0  0  0
 56 76  1  0  0  0  0
 58 66  1  0  0  0  0
 59 67  1  0  0  0  0
 60 67  1  0  0  0  0
 61 67  1  0  0  0  0
 62 77  1  0  0  0  0
 63 64  1  0  0  0  0
 63 84  1  0  0  0  0
 64 85  1  0  0  0  0
 65 67  1  0  0  0  0
 65 75  1  0  0  0  0
 66 77  1  0  0  0  0
 68 69  1  0  0  0  0
M  CHG  1  77   1
M  ISO  4  38 100  63 101  76 100  84 101
M  END
> <Batch ID>
0146

> <Smiles>
CNC(C)C(=O)NC(C(=O)N1Cc2cc([101O:1][101CH2:1]COc3cc(C4CC4[100NH:0][100C:0](=O)N4CCCC(n5nc(-c6ccc(Oc7ccc(F)cc7F)cc6)c(C(N)=O)c5N)C4)c(C4CC4)cc3C)ccc2CC1C(=O)NC1CCCc2ccccc21)C(C)(C)C

> <Shape>
0.253

> <Color>
0.111

> <Negative vol penalty>
0.000

$$$$

  -OEChem-04052321313D

 91100  0     1  0  0  0  0  0999 V2000
  -31.1731  -26.5469   16.4363 C   0  0  0  0  0  0  0  0  0  0  0  0
  -29.7960  -26.3612   16.5035 C   0  0  0  0  0  0  0  0  0  0  0  0
  -22.8234  -10.3186   22.8132 C   0  0  0  0  0  0  0  0  0  0  0  0
  -23.5984  -10.1705   20.5297 C   0  0  0  0  0  0  0  0  0  0  0  0
  -31.8771  -26.9505   17.5700 C   0  0  0  0  0  0  0  0  0  0  0  0
  -29.1223  -26.5780   17.7050 C   0  0  0  0  0  0  0  0  0  0  0  0
  -23.4666  -28.8219   18.4012 C   0  0  0  0  0  0  0  0  0  0  0  0
  -22.1947   -9.0806   22.6801 C   0  0  0  0  0  0  0  0  0  0  0  0
  -22.9698   -8.9325   20.3966 C   0  0  0  0  0  0  0  0  0  0  0  0
  -22.2340  -28.2077   18.6181 C   0  0  0  0  0  0  0  0  0  0  0  0
  -23.0837   -5.8185   22.7193 C   0  0  0  0  0  0  0  0  0  0  0  0
  -23.2407   -4.8971   23.7547 C   0  0  0  0  0  0  0  0  0  0  0  0
  -22.4753  -28.5744   20.9901 C   0  0  0  0  0  0  0  0  0  0  0  0
  -18.2839  -21.0184   25.0042 C   0  0  0  0  0  0  0  0  0  0  0  0
  -20.8486   -4.8689   24.0923 C   0  0  0  0  0  0  0  0  0  0  0  0
  -23.5252  -10.8636   21.7379 C   0  0  0  0  0  0  0  0  0  0  0  0
  -25.4921  -12.3855   22.3059 C   0  0  0  0  0  0  0  0  0  0  0  0
  -31.2103  -27.1817   18.7835 C   0  0  0  0  0  0  0  0  0  0  0  0
  -24.2192  -29.3080   19.4800 C   0  0  0  0  0  0  0  0  0  0  0  0
  -29.8182  -26.9838   18.8564 C   0  0  0  0  0  0  0  0  0  0  0  0
  -23.7161  -29.1967   20.7840 C   0  0  0  0  0  0  0  0  0  0  0  0
  -18.5664  -21.7030   23.8222 C   0  0  0  0  0  0  0  0  0  0  0  0
  -17.9372  -22.9184   23.5527 C   0  0  0  0  0  0  0  0  0  0  0  0
  -17.0253  -23.4491   24.4651 C   0  0  0  0  0  0  0  0  0  0  0  0
  -16.7427  -22.7644   25.6471 C   0  0  0  0  0  0  0  0  0  0  0  0
  -22.2680   -8.3875   21.4718 C   0  0  0  0  0  0  0  0  0  0  0  0
  -21.7394  -28.0813   19.9129 C   0  0  0  0  0  0  0  0  0  0  0  0
  -21.8092   -6.2651   22.3704 C   0  0  0  0  0  0  0  0  0  0  0  0
  -17.3719  -21.5490   25.9166 C   0  0  0  0  0  0  0  0  0  0  0  0
  -22.1232   -4.4223   24.4411 C   0  0  0  0  0  0  0  0  0  0  0  0
  -20.6916   -5.7903   23.0569 C   0  0  0  0  0  0  0  0  0  0  0  0
  -24.1742  -12.1427   21.8746 C   0  0  0  0  0  0  0  0  0  0  0  0
  -25.6220  -13.7520   22.2606 C   0  0  0  0  0  0  0  0  0  0  0  0
  -26.5081  -11.4585   22.7113 C   0  0  0  0  0  0  0  0  0  0  0  0
  -27.0806  -28.6483   20.6970 C   0  0  0  0  0  0  0  0  0  0  0  0
  -26.4267  -31.1927   22.5997 C   0  0  0  0  0  0  0  0  0  0  0  0
  -24.0771  -33.2106   24.0331 C   0  0  0  0  0  0  0  0  0  0  0  0
  -21.7474  -18.1020   22.7327 C   0  0  0  0  0  0  0  0  0  0  0  0
  -32.0206  -27.5712   19.9944 C   0  0  0  0  0  0  0  0  0  0  0  0
  -25.5348  -29.9919   19.2269 C   0  0  0  0  0  0  0  0  0  0  0  0
  -24.4757  -29.7202   21.9745 C   0  0  0  0  0  0  0  0  0  0  0  0
  -31.1788  -28.1420   21.1327 C   0  0  0  0  0  0  0  0  0  0  0  0
  -23.9843  -17.6064   19.9752 C   0  0  0  0  0  0  0  0  0  0  0  0
  -29.9492  -27.2725   21.3753 C   0  0  0  0  0  0  0  0  0  0  0  0
  -24.3903  -16.1487   20.1774 C   0  0  0  0  0  0  0  0  0  0  0  0
  -18.9257  -20.1827   21.8013 C   0  0  0  0  0  0  0  0  0  0  0  0
  -22.5151  -17.8536   20.3234 C   0  0  0  0  0  0  0  0  0  0  0  0
  -20.1302  -19.4175   21.2724 C   0  0  0  0  0  0  0  0  0  0  0  0
  -22.5439  -15.9220   21.8758 C   0  0  0  0  0  0  0  0  0  0  0  0
  -19.5568  -21.1056   22.8512 C   0  0  2  0  0  0  0  0  0  0  0  0
  -29.0482  -27.2328   20.1351 C   0  0  1  0  0  0  0  0  0  0  0  0
  -26.4532  -29.9902   20.4451 C   0  0  1  0  0  0  0  0  0  0  0  0
  -24.0334  -15.6758   21.5960 C   0  0  1  0  0  0  0  0  0  0  0  0
  -20.6344  -20.2058   23.4958 C   0  0  2  0  0  0  0  0  0  0  0  0
  -16.3501  -24.7527   24.1768 C   0  0  0  0  0  0  0  0  0  0  0  0
  -15.7659  -23.3270   26.6303 C   0  0  0  0  0  0  0  0  0  0  0  0
  -21.4690  -21.9757   25.0521 C   0  0  0  0  0  0  0  0  0  0  0  0
  -23.8455  -35.1822   25.5681 C   0  0  0  0  0  0  0  0  0  0  0  0
  -27.0153  -29.3949   24.9937 C   0  0  0  0  0  0  0  0  0  0  0  0
  -25.8726  -31.0794   26.4513 C   0  0  0  0  0  0  0  0  0  0  0  0
  -27.9247  -31.7167   25.1842 C   0  0  0  0  0  0  0  0  0  0  0  0
  -22.7698  -34.8378   21.9349 C   0  0  0  0  0  0  0  0  0  0  0  0
  -17.7976  -19.6322   27.2583 C   0  0  0  0  0  0  0  0  0  0  0  0
  -18.2429  -23.6507   22.2844 C   0  0  0  0  0  0  0  0  0  0  0  0
  -21.8394  -21.0139   23.9705 C   0  0  0  0  0  0  0  0  0  0  0  0
  -19.1718  -24.8627   22.4638 C   0  0  0  0  0  0  0  0  0  0  0  0
  -19.4075  -25.6295   21.1617 C   0  0  0  0  0  0  0  0  0  0  0  0
  -20.3619  -26.7982   21.3662 C   0  0  0  0  0  0  0  0  0  1  0  0
  -25.7513  -31.3825   23.9365 C   0  0  1  0  0  0  0  0  0  0  0  0
  -23.9673  -34.7219   24.1238 C   0  0  2  0  0  0  0  0  0  0  0  0
  -26.6273  -30.8817   25.1194 C   0  0  0  0  0  0  0  0  0  0  0  0
  -23.5140  -13.2651   21.5773 N   0  0  0  0  0  0  0  0  0  0  0  0
  -24.4207  -14.2263   21.8222 N   0  0  0  0  0  0  0  0  0  0  0  0
  -25.7600  -30.3753   21.6761 N   0  0  0  0  0  0  0  0  0  0  0  0
  -22.1845  -17.3251   21.6522 N   0  0  0  0  0  0  0  0  0  0  0  0
  -20.9919  -19.2420   22.4433 N   0  0  0  0  0  0  0  0  0  0  0  0
  -26.6455  -14.5823   22.5533 N   0  0  0  0  0  0  0  0  0  0  0  0
  -26.2071  -10.0897   22.6987 N   0  0  0  0  0  0  0  0  0  0  0  0
  -28.2761  -28.4525   20.0321 N   0  0  0  0  0  0  0  0  0  0  0  0
  -25.3914  -32.7941   24.0152 N   0  0  0  0  0  0  0  0  0  0  0  0
  -22.7705  -35.2002   23.3756 N   0  3  0  0  0  0  0  0  0  0  0  0
  -27.6436  -11.8340   23.0896 O   0  0  0  0  0  0  0  0  0  0  0  0
  -26.5222  -27.8503   21.4406 O   0  0  0  0  0  0  0  0  0  0  0  0
  -27.5025  -31.7551   22.3805 O   0  0  0  0  0  0  0  0  0  0  0  0
  -23.0951  -32.4730   23.9867 O   0  0  0  0  0  0  0  0  0  0  0  0
  -21.9944  -17.7772   23.9014 O   0  0  0  0  0  0  0  0  0  0  0  0
  -21.6549   -7.1793   21.3417 O   0  0  0  0  0  0  0  0  0  0  0  0
  -17.1087  -20.8660   27.0657 O   0  0  0  0  0  0  0  0  0  0  0  0
  -20.5280  -27.4772   20.1290 O   0  0  0  0  0  0  0  0  0  1  0  0
  -22.2740   -3.5364   25.4344 F   0  0  0  0  0  0  0  0  0  0  0  0
  -19.4645   -6.2148   22.7254 F   0  0  0  0  0  0  0  0  0  0  0  0
  1  2  1  0  0  0  0
  1  5  2  0  0  0  0
  2  6  2  0  0  0  0
  3  8  2  0  0  0  0
  3 16  1  0  0  0  0
  4  9  1  0  0  0  0
  4 16  2  0  0  0  0
  5 18  1  0  0  0  0
  6 20  1  0  0  0  0
  7 10  2  0  0  0  0
  7 19  1  0  0  0  0
  8 26  1  0  0  0  0
  9 26  2  0  0  0  0
 10 27  1  0  0  0  0
 11 12  2  0  0  0  0
 11 28  1  0  0  0  0
 12 30  1  0  0  0  0
 13 21  1  0  0  0  0
 13 27  2  0  0  0  0
 14 22  1  0  0  0  0
 14 29  2  0  0  0  0
 15 30  2  0  0  0  0
 15 31  1  0  0  0  0
 16 32  1  0  0  0  0
 17 32  1  0  0  0  0
 17 33  2  0  0  0  0
 17 34  1  0  0  0  0
 18 20  2  0  0  0  0
 18 39  1  0  0  0  0
 19 21  2  0  0  0  0
 19 40  1  0  0  0  0
 20 51  1  0  0  0  0
 21 41  1  0  0  0  0
 22 23  2  0  0  0  0
 22 50  1  0  0  0  0
 23 24  1  0  0  0  0
 23 64  1  0  0  0  0
 24 25  2  0  0  0  0
 24 55  1  0  0  0  0
 25 29  1  0  0  0  0
 25 56  1  0  0  0  0
 26 87  1  0  0  0  0
 27 89  1  0  0  0  0
 28 31  2  0  0  0  0
 28 87  1  0  0  0  0
 29 88  1  0  0  0  0
 30 90  1  0  0  0  0
 31 91  1  0  0  0  0
 32 72  2  0  0  0  0
 33 73  1  0  0  0  0
 33 77  1  0  0  0  0
 34 78  1  0  0  0  0
 34 82  2  0  0  0  0
 35 52  1  0  0  0  0
 35 79  1  0  0  0  0
 35 83  2  0  0  0  0
 36 69  1  0  0  0  0
 36 74  1  0  0  0  0
 36 84  2  0  0  0  0
 37 70  1  0  0  0  0
 37 80  1  0  0  0  0
 37 85  2  0  0  0  0
 38 75  1  0  0  0  0
 38 76  1  0  0  0  0
 38 86  2  0  0  0  0
 39 42  1  0  0  0  0
 40 52  1  0  0  0  0
 41 74  1  0  0  0  0
 42 44  1  0  0  0  0
 43 45  1  0  0  0  0
 43 47  1  0  0  0  0
 44 51  1  0  0  0  0
 45 53  1  0  0  0  0
 46 48  1  0  0  0  0
 46 50  1  0  0  0  0
 47 75  1  0  0  0  0
 48 76  1  0  0  0  0
 49 53  1  0  0  0  0
 49 75  1  0  0  0  0
 50 54  1  0  0  0  0
 51 79  1  0  0  0  0
 52 74  1  0  0  0  0
 53 73  1  0  0  0  0
 54 65  1  0  0  0  0
 54 76  1  0  0  0  0
 57 65  1  0  0  0  0
 58 70  1  0  0  0  0
 59 71  1  0  0  0  0
 60 71  1  0  0  0  0
 61 71  1  0  0  0  0
 62 81  1  0  0  0  0
 63 88  1  0  0  0  0
 64 66  1  0  0  0  0
 66 67  1  0  0  0  0
 67 68  1  0  0  0  0
 68 89  1  0  0  0  0
 69 71  1  0  0  0  0
 69 80  1  0  0  0  0
 70 81  1  0  0  0  0
 72 73  1  0  0  0  0
M  CHG  1  81   1
M  ISO  4  38 100  68 101  76 100  89 101
M  END
> <Batch ID>
0146

> <Smiles>
CCC1C(c2cc(OC)c(C)c(C)c2CCC[101CH2:1][101O:1]c2ccc3c(c2)CN(C(=O)C(NC(=O)C(C)NC)C(C)(C)C)C(C(=O)NC2CCCc4ccccc42)C3)CC[100N:0]1[100C:0](=O)N1CCCC(n2nc(-c3ccc(Oc4ccc(F)cc4F)cc3)c(C(N)=O)c2N)C1

> <Shape>
0.252

> <Color>
0.095

> <Negative vol penalty>
0.000

$$$$

  -OEChem-04052321313D

 91101  0     1  0  0  0  0  0999 V2000
  -17.7783  -31.8424   16.6023 C   0  0  0  0  0  0  0  0  0  0  0  0
  -18.5275  -30.6812   16.7633 C   0  0  0  0  0  0  0  0  0  0  0  0
  -25.1658   -7.6411   22.0893 C   0  0  0  0  0  0  0  0  0  0  0  0
  -24.4267   -8.0165   19.8200 C   0  0  0  0  0  0  0  0  0  0  0  0
  -18.3915  -33.0886   16.7234 C   0  0  0  0  0  0  0  0  0  0  0  0
  -19.8907  -30.7657   17.0443 C   0  0  0  0  0  0  0  0  0  0  0  0
  -25.0739  -27.3582   20.6275 C   0  0  0  0  0  0  0  0  0  0  0  0
  -23.8729   -7.2594   22.4473 C   0  0  0  0  0  0  0  0  0  0  0  0
  -23.1337   -7.6348   20.1779 C   0  0  0  0  0  0  0  0  0  0  0  0
  -26.3520  -26.8357   20.4350 C   0  0  0  0  0  0  0  0  0  0  0  0
  -21.9138   -4.5191   22.1551 C   0  0  0  0  0  0  0  0  0  0  0  0
  -21.7696   -3.3759   22.9411 C   0  0  0  0  0  0  0  0  0  0  0  0
  -27.2879  -29.0432   20.7001 C   0  0  0  0  0  0  0  0  0  0  0  0
  -31.8360  -21.2430   20.5332 C   0  0  0  0  0  0  0  0  0  0  0  0
  -20.7017   -4.6935   24.6617 C   0  0  0  0  0  0  0  0  0  0  0  0
  -25.4427   -8.0197   20.7756 C   0  0  0  0  0  0  0  0  0  0  0  0
  -27.9491   -7.6384   20.4925 C   0  0  0  0  0  0  0  0  0  0  0  0
  -19.7609  -33.1885   17.0156 C   0  0  0  0  0  0  0  0  0  0  0  0
  -24.8919  -28.7312   20.8473 C   0  0  0  0  0  0  0  0  0  0  0  0
  -20.5230  -32.0145   17.1681 C   0  0  0  0  0  0  0  0  0  0  0  0
  -26.0067  -29.5803   20.8977 C   0  0  0  0  0  0  0  0  0  0  0  0
  -31.0430  -19.1227   19.7210 C   0  0  0  0  0  0  0  0  0  0  0  0
  -22.8568   -7.2562   21.4916 C   0  0  0  0  0  0  0  0  0  0  0  0
  -27.4590  -27.6786   20.4684 C   0  0  0  0  0  0  0  0  0  0  0  0
  -21.4520   -5.7496   22.6224 C   0  0  0  0  0  0  0  0  0  0  0  0
  -32.0306  -19.8797   20.3412 C   0  0  0  0  0  0  0  0  0  0  0  0
  -21.1636   -3.4630   24.1943 C   0  0  0  0  0  0  0  0  0  0  0  0
  -20.8459   -5.8367   23.8757 C   0  0  0  0  0  0  0  0  0  0  0  0
  -26.7780   -8.4147   20.4053 C   0  0  0  0  0  0  0  0  0  0  0  0
  -30.6457  -21.7969   20.0904 C   0  0  0  0  0  0  0  0  0  0  0  0
  -29.8881  -19.7714   19.3146 C   0  0  0  0  0  0  0  0  0  0  0  0
  -28.9428   -8.4619   20.0224 C   0  0  0  0  0  0  0  0  0  0  0  0
  -28.1232   -6.2931   20.9568 C   0  0  0  0  0  0  0  0  0  0  0  0
  -23.3798  -31.0677   19.3118 C   0  0  0  0  0  0  0  0  0  0  0  0
  -24.2115  -32.7967   21.9274 C   0  0  0  0  0  0  0  0  0  0  0  0
  -26.3173  -33.2035   24.5820 C   0  0  0  0  0  0  0  0  0  0  0  0
  -29.2686  -14.4099   19.9022 C   0  0  0  0  0  0  0  0  0  0  0  0
  -20.3892  -34.5576   17.0903 C   0  0  0  0  0  0  0  0  0  0  0  0
  -23.5090  -29.2751   21.0798 C   0  0  0  0  0  0  0  0  0  0  0  0
  -25.8668  -31.0585   21.1505 C   0  0  0  0  0  0  0  0  0  0  0  0
  -21.7610  -34.5625   17.7601 C   0  0  0  0  0  0  0  0  0  0  0  0
  -29.7020  -12.1108   17.0493 C   0  0  0  0  0  0  0  0  0  0  0  0
  -22.6276  -33.4340   17.2102 C   0  0  0  0  0  0  0  0  0  0  0  0
  -29.1891  -23.5476   21.1969 C   0  0  0  0  0  0  0  0  0  0  0  0
  -30.2477  -24.0161   18.9388 C   0  0  0  0  0  0  0  0  0  0  0  0
  -29.0514  -10.8424   17.5933 C   0  0  0  0  0  0  0  0  0  0  0  0
  -28.9549  -25.0436   21.3902 C   0  0  0  0  0  0  0  0  0  0  0  0
  -30.0085  -25.5096   19.1443 C   0  0  0  0  0  0  0  0  0  0  0  0
  -31.5512  -16.7774   20.6771 C   0  0  0  0  0  0  0  0  0  0  0  0
  -29.0168  -13.3745   17.5678 C   0  0  0  0  0  0  0  0  0  0  0  0
  -28.2748  -12.1640   19.5996 C   0  0  0  0  0  0  0  0  0  0  0  0
  -31.2243  -17.6583   19.5017 C   0  0  1  0  0  0  0  0  0  0  0  0
  -21.9991  -32.0652   17.4981 C   0  0  1  0  0  0  0  0  0  0  0  0
  -30.3987  -23.2820   20.2831 C   0  0  0  0  0  0  0  0  0  0  0  0
  -23.3963  -30.7675   20.7840 C   0  0  1  0  0  0  0  0  0  0  0  0
  -28.9811  -10.8839   19.1275 C   0  0  1  0  0  0  0  0  0  0  0  0
  -30.1899  -16.7036   20.0510 C   0  0  1  0  0  0  0  0  0  0  0  0
  -28.8101  -25.7696   20.0539 C   0  0  0  0  0  0  0  0  0  1  0  0
  -35.4272  -18.6851   20.1779 C   0  0  0  0  0  0  0  0  0  0  0  0
  -26.7700  -34.7303   26.5213 C   0  0  0  0  0  0  0  0  0  0  0  0
  -25.4606  -34.8332   20.0294 C   0  0  0  0  0  0  0  0  0  0  0  0
  -26.6897  -35.7983   21.9854 C   0  0  0  0  0  0  0  0  0  0  0  0
  -24.1957  -35.8295   21.9430 C   0  0  0  0  0  0  0  0  0  0  0  0
  -25.8506  -31.0384   26.5450 C   0  0  0  0  0  0  0  0  0  0  0  0
  -27.7330  -19.7918   18.3091 C   0  0  0  0  0  0  0  0  0  0  0  0
  -34.4033  -19.7999   20.2002 C   0  0  0  0  0  0  0  0  0  0  0  0
  -25.4017  -33.6392   22.3178 C   0  0  1  0  0  0  0  0  0  0  0  0
  -26.0460  -33.4788   26.0500 C   0  0  2  0  0  0  0  0  0  0  0  0
  -25.4397  -34.9975   21.5622 C   0  0  0  0  0  0  0  0  0  0  0  0
  -27.0050   -9.6375   19.9183 N   0  0  0  0  0  0  0  0  0  0  0  0
  -29.6632  -21.0937   19.4838 N   0  0  0  0  0  0  0  0  0  0  0  0
  -28.3303   -9.6358   19.6953 N   0  0  0  0  0  0  0  0  0  0  0  0
  -24.4935  -31.5434   21.3656 N   0  0  0  0  0  0  0  0  0  0  0  0
  -28.9023  -13.3650   19.0347 N   0  0  0  0  0  0  0  0  0  0  0  0
  -30.2719   -8.2892   19.8612 N   0  0  0  0  0  0  0  0  0  0  0  0
  -28.0115   -5.2470   20.0308 N   0  0  0  0  0  0  0  0  0  0  0  0
  -22.2232  -31.6861   18.8767 N   0  0  0  0  0  0  0  0  0  0  0  0
  -25.3540  -33.7647   23.7705 N   0  0  0  0  0  0  0  0  0  0  0  0
  -29.7787  -15.5514   19.2942 N   0  0  0  0  0  0  0  0  0  0  0  0
  -26.4998  -32.3307   26.8848 N   0  3  0  0  0  0  0  0  0  0  0  0
  -28.3543   -6.0256   22.1604 O   0  0  0  0  0  0  0  0  0  0  0  0
  -24.3454  -30.7622   18.6220 O   0  0  0  0  0  0  0  0  0  0  0  0
  -23.0733  -33.2315   22.1204 O   0  0  0  0  0  0  0  0  0  0  0  0
  -27.2887  -32.5585   24.1936 O   0  0  0  0  0  0  0  0  0  0  0  0
  -29.1454  -14.3356   21.1298 O   0  0  0  0  0  0  0  0  0  0  0  0
  -21.5951   -6.8835   21.8406 O   0  0  0  0  0  0  0  0  0  0  0  0
  -28.7076  -27.1713   20.2801 O   0  0  0  0  0  0  0  0  0  1  0  0
  -33.1906  -19.3057   20.7656 O   0  0  0  0  0  0  0  0  0  0  0  0
  -28.8897  -19.0617   18.6993 O   0  0  0  0  0  0  0  0  0  0  0  0
  -21.0238   -2.3648   24.9484 F   0  0  0  0  0  0  0  0  0  0  0  0
  -20.3992   -7.0159   24.3295 F   0  0  0  0  0  0  0  0  0  0  0  0
  1  2  1  0  0  0  0
  1  5  2  0  0  0  0
  2  6  2  0  0  0  0
  3  8  2  0  0  0  0
  3 16  1  0  0  0  0
  4  9  1  0  0  0  0
  4 16  2  0  0  0  0
  5 18  1  0  0  0  0
  6 20  1  0  0  0  0
  7 10  2  0  0  0  0
  7 19  1  0  0  0  0
  8 23  1  0  0  0  0
  9 23  2  0  0  0  0
 10 24  1  0  0  0  0
 11 12  2  0  0  0  0
 11 25  1  0  0  0  0
 12 27  1  0  0  0  0
 13 21  1  0  0  0  0
 13 24  2  0  0  0  0
 14 26  1  0  0  0  0
 14 30  2  0  0  0  0
 15 27  2  0  0  0  0
 15 28  1  0  0  0  0
 16 29  1  0  0  0  0
 17 29  1  0  0  0  0
 17 32  2  0  0  0  0
 17 33  1  0  0  0  0
 18 20  2  0  0  0  0
 18 38  1  0  0  0  0
 19 21  2  0  0  0  0
 19 39  1  0  0  0  0
 20 53  1  0  0  0  0
 21 40  1  0  0  0  0
 22 26  2  0  0  0  0
 22 31  1  0  0  0  0
 22 52  1  0  0  0  0
 23 86  1  0  0  0  0
 24 87  1  0  0  0  0
 25 28  2  0  0  0  0
 25 86  1  0  0  0  0
 26 88  1  0  0  0  0
 27 90  1  0  0  0  0
 28 91  1  0  0  0  0
 29 70  2  0  0  0  0
 30 54  1  0  0  0  0
 30 71  1  0  0  0  0
 31 71  2  0  0  0  0
 31 89  1  0  0  0  0
 32 72  1  0  0  0  0
 32 75  1  0  0  0  0
 33 76  1  0  0  0  0
 33 81  2  0  0  0  0
 34 55  1  0  0  0  0
 34 77  1  0  0  0  0
 34 82  2  0  0  0  0
 35 67  1  0  0  0  0
 35 73  1  0  0  0  0
 35 83  2  0  0  0  0
 36 68  1  0  0  0  0
 36 78  1  0  0  0  0
 36 84  2  0  0  0  0
 37 74  1  0  0  0  0
 37 79  1  0  0  0  0
 37 85  2  0  0  0  0
 38 41  1  0  0  0  0
 39 55  1  0  0  0  0
 40 73  1  0  0  0  0
 41 43  1  0  0  0  0
 42 46  1  0  0  0  0
 42 50  1  0  0  0  0
 43 53  1  0  0  0  0
 44 47  1  0  0  0  0
 44 54  1  0  0  0  0
 45 48  1  0  0  0  0
 45 54  1  0  0  0  0
 46 56  1  0  0  0  0
 47 58  1  0  0  0  0
 48 58  1  0  0  0  0
 49 52  1  0  0  0  0
 49 57  1  0  0  0  0
 50 74  1  0  0  0  0
 51 56  1  0  0  0  0
 51 74  1  0  0  0  0
 52 57  1  0  0  0  0
 53 77  1  0  0  0  0
 55 73  1  0  0  0  0
 56 72  1  0  0  0  0
 57 79  1  0  0  0  0
 58 87  1  0  0  0  0
 59 66  1  0  0  0  0
 60 68  1  0  0  0  0
 61 69  1  0  0  0  0
 62 69  1  0  0  0  0
 63 69  1  0  0  0  0
 64 80  1  0  0  0  0
 65 89  1  0  0  0  0
 66 88  1  0  0  0  0
 67 69  1  0  0  0  0
 67 78  1  0  0  0  0
 68 80  1  0  0  0  0
 70 72  1  0  0  0  0
M  CHG  1  80   1
M  ISO  4  37 100  58 101  79 100  87 101
M  END
> <Batch ID>
0146

> <Smiles>
CCOc1cc(C2CC[101CH:1]([101O:1]c3ccc4c(c3)CN(C(=O)C(NC(=O)C(C)NC)C(C)(C)C)C(C(=O)NC3CCCc5ccccc53)C4)CC2)nc(OC)c1C1CC1[100NH:0][100C:0](=O)N1CCCC(n2nc(-c3ccc(Oc4ccc(F)cc4F)cc3)c(C(N)=O)c2N)C1

> <Shape>
0.279

> <Color>
0.102

> <Negative vol penalty>
0.000

$$$$

  -OEChem-04052321313D

 84 92  0     1  0  0  0  0  0999 V2000
  -29.1968  -36.7633   17.5029 C   0  0  0  0  0  0  0  0  0  0  0  0
  -28.8902  -35.4980   17.0127 C   0  0  0  0  0  0  0  0  0  0  0  0
  -24.7594   -8.4838   21.6083 C   0  0  0  0  0  0  0  0  0  0  0  0
  -23.1512   -9.7081   20.2847 C   0  0  0  0  0  0  0  0  0  0  0  0
  -29.4244  -36.9450   18.8664 C   0  0  0  0  0  0  0  0  0  0  0  0
  -28.8119  -34.4134   17.8856 C   0  0  0  0  0  0  0  0  0  0  0  0
  -25.2843  -28.2506   18.8305 C   0  0  0  0  0  0  0  0  0  0  0  0
  -23.7283   -8.0000   22.4136 C   0  0  0  0  0  0  0  0  0  0  0  0
  -22.1201   -9.2243   21.0900 C   0  0  0  0  0  0  0  0  0  0  0  0
  -25.5244  -26.8951   19.0512 C   0  0  0  0  0  0  0  0  0  0  0  0
  -21.3588   -5.5936   22.2486 C   0  0  0  0  0  0  0  0  0  0  0  0
  -21.3701   -4.2365   22.5708 C   0  0  0  0  0  0  0  0  0  0  0  0
  -25.8590  -27.3427   21.3979 C   0  0  0  0  0  0  0  0  0  0  0  0
  -21.4928   -4.7948   24.9182 C   0  0  0  0  0  0  0  0  0  0  0  0
  -24.4708   -9.3379   20.5439 C   0  0  0  0  0  0  0  0  0  0  0  0
  -26.0491   -9.2481   18.5417 C   0  0  0  0  0  0  0  0  0  0  0  0
  -29.3395  -35.8639   19.7578 C   0  0  0  0  0  0  0  0  0  0  0  0
  -25.3407  -29.1655   19.8918 C   0  0  0  0  0  0  0  0  0  0  0  0
  -29.0399  -34.5806   19.2621 C   0  0  0  0  0  0  0  0  0  0  0  0
  -25.6167  -28.7089   21.1885 C   0  0  0  0  0  0  0  0  0  0  0  0
  -22.4087   -8.3703   22.1544 C   0  0  0  0  0  0  0  0  0  0  0  0
  -25.8146  -26.4414   20.3346 C   0  0  0  0  0  0  0  0  0  0  0  0
  -21.4145   -6.5513   23.2613 C   0  0  0  0  0  0  0  0  0  0  0  0
  -21.4371   -3.8371   23.9056 C   0  0  0  0  0  0  0  0  0  0  0  0
  -21.4815   -6.1519   24.5960 C   0  0  0  0  0  0  0  0  0  0  0  0
  -25.5355   -9.8384   19.7120 C   0  0  0  0  0  0  0  0  0  0  0  0
  -27.0395  -10.1062   18.1305 C   0  0  0  0  0  0  0  0  0  0  0  0
  -27.9472  -19.2091   16.3465 C   0  0  0  0  0  0  0  0  0  0  0  0
  -27.8628  -18.1102   17.2704 C   0  0  0  0  0  0  0  0  0  0  0  0
  -28.8133  -20.2018   16.5728 C   0  0  0  0  0  0  0  0  0  0  0  0
  -28.6410  -18.0629   18.3602 C   0  0  0  0  0  0  0  0  0  0  0  0
  -29.6205  -19.1700   18.6303 C   0  0  0  0  0  0  0  0  0  0  0  0
  -25.6650   -8.0329   17.8849 C   0  0  0  0  0  0  0  0  0  0  0  0
  -27.1307  -31.7020   20.5741 C   0  0  0  0  0  0  0  0  0  0  0  0
  -25.0736  -31.9972   23.0648 C   0  0  0  0  0  0  0  0  0  0  0  0
  -22.8613  -30.4995   25.1884 C   0  0  0  0  0  0  0  0  0  0  0  0
  -27.7181  -15.9467   19.1193 C   0  0  0  0  0  0  0  0  0  0  0  0
  -29.6401  -36.1006   21.2166 C   0  0  0  0  0  0  0  0  0  0  0  0
  -25.0530  -30.6205   19.6417 C   0  0  0  0  0  0  0  0  0  0  0  0
  -25.6690  -29.6474   22.3653 C   0  0  0  0  0  0  0  0  0  0  0  0
  -29.1696  -34.9691   22.1269 C   0  0  0  0  0  0  0  0  0  0  0  0
  -30.1860  -13.2784   19.7891 C   0  0  0  0  0  0  0  0  0  0  0  0
  -29.5734  -33.6163   21.5493 C   0  0  0  0  0  0  0  0  0  0  0  0
  -29.2896  -12.0438   19.7900 C   0  0  0  0  0  0  0  0  0  0  0  0
  -29.4669  -14.5099   20.3382 C   0  0  0  0  0  0  0  0  0  0  0  0
  -27.2813  -13.5671   19.6474 C   0  0  0  0  0  0  0  0  0  0  0  0
  -28.9216  -33.3839   20.1808 C   0  0  1  0  0  0  0  0  0  0  0  0
  -25.6431  -31.5382   20.7080 C   0  0  1  0  0  0  0  0  0  0  0  0
  -27.9726  -12.3303   19.0531 C   0  0  2  0  0  0  0  0  0  0  0  0
  -21.3670  -30.9905   27.1437 C   0  0  0  0  0  0  0  0  0  0  0  0
  -27.5071  -32.0652   24.9043 C   0  0  0  0  0  0  0  0  0  0  0  0
  -25.9771  -31.5989   26.8304 C   0  0  0  0  0  0  0  0  0  0  0  0
  -25.7029  -33.6914   25.5004 C   0  0  0  0  0  0  0  0  0  0  0  0
  -20.4384  -29.7096   23.6835 C   0  0  0  0  0  0  0  0  0  0  0  0
  -29.8272  -22.5621   18.3573 C   0  0  0  0  0  0  0  0  0  0  0  0
  -30.5646  -21.3173   17.8707 C   0  0  0  0  0  0  0  0  0  0  0  0
  -29.1210  -22.3325   19.6876 C   0  0  0  0  0  0  0  0  0  0  0  0
  -27.6065  -23.4566   21.3251 C   0  0  0  0  0  0  0  0  0  0  0  0
  -26.9366  -24.7843   21.6196 C   0  0  0  0  0  0  0  0  0  1  0  0
  -25.0287  -31.4779   24.4816 C   0  0  1  0  0  0  0  0  0  0  0  0
  -21.4632  -30.8941   25.6291 C   0  0  2  0  0  0  0  0  0  0  0  0
  -26.0549  -32.1907   25.4069 C   0  0  0  0  0  0  0  0  0  0  0  0
  -26.1492  -10.9829   20.0243 N   0  0  0  0  0  0  0  0  0  0  0  0
  -27.0586  -11.1187   19.0441 N   0  0  0  0  0  0  0  0  0  0  0  0
  -29.6506  -20.2157   17.6836 N   0  0  0  0  0  0  0  0  0  0  0  0
  -25.3868  -31.0615   22.0687 N   0  0  0  0  0  0  0  0  0  0  0  0
  -28.1775  -14.7304   19.6635 N   0  0  0  0  0  0  0  0  0  0  0  0
  -27.8874  -10.0859   17.0802 N   0  0  0  0  0  0  0  0  0  0  0  0
  -24.6283   -7.2714   18.4415 N   0  0  0  0  0  0  0  0  0  0  0  0
  -28.5810  -17.0310   19.2541 N   0  0  0  0  0  0  0  0  0  0  0  0
  -27.5346  -33.0026   20.3399 N   0  0  0  0  0  0  0  0  0  0  0  0
  -23.6424  -31.6032   24.9186 N   0  0  0  0  0  0  0  0  0  0  0  0
  -20.4686  -29.8893   25.1579 N   0  3  0  0  0  0  0  0  0  0  0  0
  -28.3895  -23.5708   20.0688 N   0  3  0  0  0  0  0  0  0  0  0  0
  -30.3337  -19.1227   19.6323 O   0  0  0  0  0  0  0  0  0  0  0  0
  -26.2356   -7.6256   16.8447 O   0  0  0  0  0  0  0  0  0  0  0  0
  -27.8583  -30.7214   20.6773 O   0  0  0  0  0  0  0  0  0  0  0  0
  -24.8324  -33.1875   22.8491 O   0  0  0  0  0  0  0  0  0  0  0  0
  -23.2252  -29.3292   25.0965 O   0  0  0  0  0  0  0  0  0  0  0  0
  -26.6174  -16.0505   18.5658 O   0  0  0  0  0  0  0  0  0  0  0  0
  -21.4023   -7.8982   22.9398 O   0  0  0  0  0  0  0  0  0  0  0  0
  -26.0499  -25.1189   20.5527 O   0  0  0  0  0  0  0  0  0  1  0  0
  -21.4465   -2.5339   24.2149 F   0  0  0  0  0  0  0  0  0  0  0  0
  -21.5340   -7.0673   25.5733 F   0  0  0  0  0  0  0  0  0  0  0  0
  1  2  1  0  0  0  0
  1  5  2  0  0  0  0
  2  6  2  0  0  0  0
  3  8  2  0  0  0  0
  3 15  1  0  0  0  0
  4  9  1  0  0  0  0
  4 15  2  0  0  0  0
  5 17  1  0  0  0  0
  6 19  1  0  0  0  0
  7 10  2  0  0  0  0
  7 18  1  0  0  0  0
  8 21  1  0  0  0  0
  9 21  2  0  0  0  0
 10 22  1  0  0  0  0
 11 12  2  0  0  0  0
 11 23  1  0  0  0  0
 12 24  1  0  0  0  0
 13 20  1  0  0  0  0
 13 22  2  0  0  0  0
 14 24  2  0  0  0  0
 14 25  1  0  0  0  0
 15 26  1  0  0  0  0
 16 26  1  0  0  0  0
 16 27  2  0  0  0  0
 16 33  1  0  0  0  0
 17 19  2  0  0  0  0
 17 38  1  0  0  0  0
 18 20  2  0  0  0  0
 18 39  1  0  0  0  0
 19 47  1  0  0  0  0
 20 40  1  0  0  0  0
 21 81  1  0  0  0  0
 22 82  1  0  0  0  0
 23 25  2  0  0  0  0
 23 81  1  0  0  0  0
 24 83  1  0  0  0  0
 25 84  1  0  0  0  0
 26 63  2  0  0  0  0
 27 64  1  0  0  0  0
 27 68  1  0  0  0  0
 28 29  1  0  0  0  0
 28 30  2  0  0  0  0
 29 31  2  0  0  0  0
 30 65  1  0  0  0  0
 31 32  1  0  0  0  0
 31 70  1  0  0  0  0
 32 65  1  0  0  0  0
 32 75  2  0  0  0  0
 33 69  1  0  0  0  0
 33 76  2  0  0  0  0
 34 48  1  0  0  0  0
 34 71  1  0  0  0  0
 34 77  2  0  0  0  0
 35 60  1  0  0  0  0
 35 66  1  0  0  0  0
 35 78  2  0  0  0  0
 36 61  1  0  0  0  0
 36 72  1  0  0  0  0
 36 79  2  0  0  0  0
 37 67  1  0  0  0  0
 37 70  1  0  0  0  0
 37 80  2  0  0  0  0
 38 41  1  0  0  0  0
 39 48  1  0  0  0  0
 40 66  1  0  0  0  0
 41 43  1  0  0  0  0
 42 44  1  0  0  0  0
 42 45  1  0  0  0  0
 43 47  1  0  0  0  0
 44 49  1  0  0  0  0
 45 67  1  0  0  0  0
 46 49  1  0  0  0  0
 46 67  1  0  0  0  0
 47 71  1  0  0  0  0
 48 66  1  0  0  0  0
 49 64  1  0  0  0  0
 50 61  1  0  0  0  0
 51 62  1  0  0  0  0
 52 62  1  0  0  0  0
 53 62  1  0  0  0  0
 54 73  1  0  0  0  0
 55 56  1  0  0  0  0
 55 57  1  0  0  0  0
 56 65  1  0  0  0  0
 57 74  1  0  0  0  0
 58 59  1  0  0  0  0
 58 74  1  0  0  0  0
 59 82  1  0  0  0  0
 60 62  1  0  0  0  0
 60 72  1  0  0  0  0
 61 73  1  0  0  0  0
 63 64  1  0  0  0  0
M  CHG  2  73   1  74   1
M  ISO  4  37 100  59 101  70 100  82 101
M  END
> <Batch ID>
0146

> <Smiles>
CNC(C)C(=O)NC(C(=O)N1Cc2cc([101O:1][101CH2:1]CNCCCn3cccc([100NH:0][100C:0](=O)N4CCCC(n5nc(-c6ccc(Oc7ccc(F)cc7F)cc6)c(C(N)=O)c5N)C4)c3=O)ccc2CC1C(=O)NC1CCCc2ccccc21)C(C)(C)C

> <Shape>
0.271

> <Color>
0.089

> <Negative vol penalty>
0.000

$$$$

  -OEChem-04052321313D

 90 99  0     1  0  0  0  0  0999 V2000
  -26.6668  -29.9059   14.1939 C   0  0  0  0  0  0  0  0  0  0  0  0
  -27.3259  -28.7560   14.6167 C   0  0  0  0  0  0  0  0  0  0  0  0
  -23.5857  -10.8450   23.2560 C   0  0  0  0  0  0  0  0  0  0  0  0
  -24.0781   -9.4671   21.3335 C   0  0  0  0  0  0  0  0  0  0  0  0
  -26.3222  -30.8904   15.1189 C   0  0  0  0  0  0  0  0  0  0  0  0
  -27.6418  -28.5905   15.9647 C   0  0  0  0  0  0  0  0  0  0  0  0
  -27.7135  -23.3369   19.1111 C   0  0  0  0  0  0  0  0  0  0  0  0
  -22.9688   -9.7588   23.8765 C   0  0  0  0  0  0  0  0  0  0  0  0
  -23.4612   -8.3808   21.9541 C   0  0  0  0  0  0  0  0  0  0  0  0
  -28.7475  -22.4747   19.4737 C   0  0  0  0  0  0  0  0  0  0  0  0
  -20.0008   -8.1503   23.7080 C   0  0  0  0  0  0  0  0  0  0  0  0
  -18.7729   -8.3725   24.3313 C   0  0  0  0  0  0  0  0  0  0  0  0
  -28.8851  -23.5547   21.6263 C   0  0  0  0  0  0  0  0  0  0  0  0
  -30.7288  -14.0397   26.5999 C   0  0  0  0  0  0  0  0  0  0  0  0
  -30.5494  -16.3748   26.0067 C   0  0  0  0  0  0  0  0  0  0  0  0
  -19.7157   -7.6660   26.4406 C   0  0  0  0  0  0  0  0  0  0  0  0
  -24.1403  -10.6992   21.9844 C   0  0  0  0  0  0  0  0  0  0  0  0
  -24.1898  -13.0567   21.0109 C   0  0  0  0  0  0  0  0  0  0  0  0
  -26.6254  -30.7326   16.4805 C   0  0  0  0  0  0  0  0  0  0  0  0
  -27.2642  -24.3232   20.0009 C   0  0  0  0  0  0  0  0  0  0  0  0
  -27.3021  -29.5745   16.9087 C   0  0  0  0  0  0  0  0  0  0  0  0
  -27.8436  -24.4265   21.2736 C   0  0  0  0  0  0  0  0  0  0  0  0
  -30.3929  -15.3500   26.9400 C   0  0  0  0  0  0  0  0  0  0  0  0
  -31.2214  -13.7540   25.3265 C   0  0  0  0  0  0  0  0  0  0  0  0
  -31.3779  -14.7788   24.3932 C   0  0  0  0  0  0  0  0  0  0  0  0
  -31.0420  -16.0892   24.7333 C   0  0  0  0  0  0  0  0  0  0  0  0
  -22.9065   -8.5267   23.2256 C   0  0  0  0  0  0  0  0  0  0  0  0
  -29.3354  -22.5854   20.7303 C   0  0  0  0  0  0  0  0  0  0  0  0
  -21.0862   -7.6859   24.4510 C   0  0  0  0  0  0  0  0  0  0  0  0
  -18.6304   -8.1304   25.6976 C   0  0  0  0  0  0  0  0  0  0  0  0
  -20.9436   -7.4438   25.8173 C   0  0  0  0  0  0  0  0  0  0  0  0
  -24.7772  -11.8211   21.3426 C   0  0  0  0  0  0  0  0  0  0  0  0
  -25.2045  -13.7728   20.4244 C   0  0  0  0  0  0  0  0  0  0  0  0
  -22.8470  -13.5160   21.2148 C   0  0  0  0  0  0  0  0  0  0  0  0
  -27.1623  -27.5000   19.9631 C   0  0  0  0  0  0  0  0  0  0  0  0
  -25.5188  -27.0917   22.7298 C   0  0  0  0  0  0  0  0  0  0  0  0
  -24.8289  -25.1153   25.4252 C   0  0  0  0  0  0  0  0  0  0  0  0
  -31.1696  -13.5018   20.8649 C   0  0  0  0  0  0  0  0  0  0  0  0
  -26.2748  -31.8456   17.4360 C   0  0  0  0  0  0  0  0  0  0  0  0
  -26.1299  -25.2280   19.6047 C   0  0  0  0  0  0  0  0  0  0  0  0
  -27.3840  -25.4552   22.2731 C   0  0  0  0  0  0  0  0  0  0  0  0
  -26.3120  -31.4235   18.9026 C   0  0  0  0  0  0  0  0  0  0  0  0
  -29.2256  -13.1882   17.8986 C   0  0  0  0  0  0  0  0  0  0  0  0
  -27.5830  -30.6338   19.1988 C   0  0  0  0  0  0  0  0  0  0  0  0
  -27.8121  -12.9137   18.4150 C   0  0  0  0  0  0  0  0  0  0  0  0
  -30.2850  -12.5180   18.7706 C   0  0  0  0  0  0  0  0  0  0  0  0
  -28.7832  -12.5628   20.7242 C   0  0  0  0  0  0  0  0  0  0  0  0
  -32.0783  -18.2526   24.1289 C   0  0  0  0  0  0  0  0  0  0  0  0
  -30.6917  -18.0292   21.5760 C   0  0  0  0  0  0  0  0  0  0  0  0
  -27.6398  -29.3473   18.3662 C   0  0  1  0  0  0  0  0  0  0  0  0
  -26.0996  -26.5308   20.3980 C   0  0  1  0  0  0  0  0  0  0  0  0
  -27.6831  -13.2645   19.9095 C   0  0  2  0  0  0  0  0  0  0  0  0
  -30.1201  -17.3633   22.8273 C   0  0  2  0  0  0  0  0  0  0  0  0
  -32.6370  -18.9168   22.8632 C   0  0  2  0  0  0  0  0  0  0  0  0
  -29.8683  -15.6554   28.3022 C   0  0  0  0  0  0  0  0  0  0  0  0
  -31.5737  -12.3425   24.9879 C   0  0  0  0  0  0  0  0  0  0  0  0
  -28.9841  -18.1804   23.4536 C   0  0  0  0  0  0  0  0  0  0  0  0
  -33.4200  -20.1725   23.2452 C   0  0  0  0  0  0  0  0  0  0  0  0
  -23.4748  -25.0670   27.5374 C   0  0  0  0  0  0  0  0  0  0  0  0
  -27.5100  -28.9919   24.0469 C   0  0  0  0  0  0  0  0  0  0  0  0
  -26.7128  -28.1721   26.2741 C   0  0  0  0  0  0  0  0  0  0  0  0
  -25.1301  -29.3335   24.7351 C   0  0  0  0  0  0  0  0  0  0  0  0
  -23.3098  -22.7368   24.5342 C   0  0  0  0  0  0  0  0  0  0  0  0
  -31.9074  -14.4681   23.0285 C   0  0  0  0  0  0  0  0  0  0  0  0
  -31.9195  -19.9761   20.6702 C   0  0  0  0  0  0  0  0  0  0  0  0
  -30.7524  -20.7744   20.1235 C   0  0  0  0  0  0  0  0  0  1  0  0
  -25.8914  -26.9854   24.1889 C   0  0  1  0  0  0  0  0  0  0  0  0
  -23.5139  -24.7027   26.0614 C   0  0  2  0  0  0  0  0  0  0  0  0
  -26.3213  -28.3525   24.7919 C   0  0  0  0  0  0  0  0  0  0  0  0
  -26.0652  -11.7527   20.9955 N   0  0  0  0  0  0  0  0  0  0  0  0
  -26.2954  -12.9544   20.4395 N   0  0  0  0  0  0  0  0  0  0  0  0
  -31.1909  -17.1312   23.8101 N   0  0  2  0  0  0  0  0  0  0  0  0
  -26.2760  -26.3208   21.8364 N   0  0  0  0  0  0  0  0  0  0  0  0
  -30.1079  -12.8930   20.1756 N   0  0  0  0  0  0  0  0  0  0  0  0
  -25.2610  -15.0164   19.9023 N   0  0  0  0  0  0  0  0  0  0  0  0
  -21.9320  -12.6525   21.8324 N   0  0  0  0  0  0  0  0  0  0  0  0
  -26.7730  -28.3380   18.9357 N   0  0  0  0  0  0  0  0  0  0  0  0
  -24.7505  -26.3695   24.8577 N   0  0  0  0  0  0  0  0  0  0  0  0
  -30.9159  -13.8309   22.1908 N   0  0  0  0  0  0  0  0  0  0  0  0
  -31.4892  -19.2633   21.9296 N   0  3  1  0  0  0  0  0  0  0  0  0
  -23.3166  -23.2309   25.9352 N   0  3  0  0  0  0  0  0  0  0  0  0
  -22.4654  -14.6523   20.8451 O   0  0  0  0  0  0  0  0  0  0  0  0
  -28.2540  -27.4893   20.5196 O   0  0  0  0  0  0  0  0  0  0  0  0
  -24.5856  -27.8260   22.3960 O   0  0  0  0  0  0  0  0  0  0  0  0
  -25.8271  -24.3983   25.4341 O   0  0  0  0  0  0  0  0  0  0  0  0
  -32.2610  -13.7395   20.3362 O   0  0  0  0  0  0  0  0  0  0  0  0
  -22.3048   -7.4665   23.8310 O   0  0  0  0  0  0  0  0  0  0  0  0
  -30.3452  -21.7456   21.0865 O   0  0  0  0  0  0  0  0  0  1  0  0
  -17.4516   -8.3453   26.2963 F   0  0  0  0  0  0  0  0  0  0  0  0
  -21.9831   -6.9987   26.5366 F   0  0  0  0  0  0  0  0  0  0  0  0
  1  2  1  0  0  0  0
  1  5  2  0  0  0  0
  2  6  2  0  0  0  0
  3  8  2  0  0  0  0
  3 17  1  0  0  0  0
  4  9  1  0  0  0  0
  4 17  2  0  0  0  0
  5 19  1  0  0  0  0
  6 21  1  0  0  0  0
  7 10  2  0  0  0  0
  7 20  1  0  0  0  0
  8 27  1  0  0  0  0
  9 27  2  0  0  0  0
 10 28  1  0  0  0  0
 11 12  2  0  0  0  0
 11 29  1  0  0  0  0
 12 30  1  0  0  0  0
 13 22  1  0  0  0  0
 13 28  2  0  0  0  0
 14 23  1  0  0  0  0
 14 24  2  0  0  0  0
 15 23  2  0  0  0  0
 15 26  1  0  0  0  0
 16 30  2  0  0  0  0
 16 31  1  0  0  0  0
 17 32  1  0  0  0  0
 18 32  1  0  0  0  0
 18 33  2  0  0  0  0
 18 34  1  0  0  0  0
 19 21  2  0  0  0  0
 19 39  1  0  0  0  0
 20 22  2  0  0  0  0
 20 40  1  0  0  0  0
 21 50  1  0  0  0  0
 22 41  1  0  0  0  0
 23 55  1  0  0  0  0
 24 25  1  0  0  0  0
 24 56  1  0  0  0  0
 25 26  2  0  0  0  0
 25 64  1  0  0  0  0
 26 72  1  0  0  0  0
 27 87  1  0  0  0  0
 28 88  1  0  0  0  0
 29 31  2  0  0  0  0
 29 87  1  0  0  0  0
 30 89  1  0  0  0  0
 31 90  1  0  0  0  0
 32 70  2  0  0  0  0
 33 71  1  0  0  0  0
 33 75  1  0  0  0  0
 34 76  1  0  0  0  0
 34 82  2  0  0  0  0
 35 51  1  0  0  0  0
 35 77  1  0  0  0  0
 35 83  2  0  0  0  0
 36 67  1  0  0  0  0
 36 73  1  0  0  0  0
 36 84  2  0  0  0  0
 37 68  1  0  0  0  0
 37 78  1  0  0  0  0
 37 85  2  0  0  0  0
 38 74  1  0  0  0  0
 38 79  1  0  0  0  0
 38 86  2  0  0  0  0
 39 42  1  0  0  0  0
 40 51  1  0  0  0  0
 41 73  1  0  0  0  0
 42 44  1  0  0  0  0
 43 45  1  0  0  0  0
 43 46  1  0  0  0  0
 44 50  1  0  0  0  0
 45 52  1  0  0  0  0
 46 74  1  0  0  0  0
 47 52  1  0  0  0  0
 47 74  1  0  0  0  0
 48 54  1  0  0  0  0
 48 72  1  0  0  0  0
 49 53  1  0  0  0  0
 49 80  1  0  0  0  0
 50 77  1  0  0  0  0
 51 73  1  0  0  0  0
 52 71  1  0  0  0  0
 53 57  1  0  0  0  0
 53 72  1  0  0  0  0
 54 58  1  0  0  0  0
 54 80  1  0  0  0  0
 59 68  1  0  0  0  0
 60 69  1  0  0  0  0
 61 69  1  0  0  0  0
 62 69  1  0  0  0  0
 63 81  1  0  0  0  0
 64 79  1  0  0  0  0
 65 66  1  0  0  0  0
 65 80  1  0  0  0  0
 66 88  1  0  0  0  0
 67 69  1  0  0  0  0
 67 78  1  0  0  0  0
 68 81  1  0  0  0  0
 70 71  1  0  0  0  0
M  CHG  2  80   1  81   1
M  ISO  4  38 100  66 101  79 100  88 101
M  END
> <Batch ID>
0146

> <Smiles>
CNC(C)C(=O)NC(C(=O)N1Cc2cc([101O:1][101CH2:1]CN3CC(C)N(c4cc(C)cc(C)c4C[100NH:0][100C:0](=O)N4CCCC(n5nc(-c6ccc(Oc7ccc(F)cc7F)cc6)c(C(N)=O)c5N)C4)CC3C)ccc2CC1C(=O)NC1CCCc2ccccc21)C(C)(C)C

> <Shape>
0.197

> <Color>
0.139

> <Negative vol penalty>
0.000

$$$$

  -OEChem-04052321312D

  0  0  0     0  0  0  0  0  0999 V2000
M  END
$$$$

  -OEChem-04052321313D

 89 99  0     1  0  0  0  0  0999 V2000
  -32.1775  -18.9288   23.2958 C   0  0  0  0  0  0  0  0  0  0  0  0
  -30.8362  -19.2947   23.3072 C   0  0  0  0  0  0  0  0  0  0  0  0
  -27.6239  -23.5683   18.6172 C   0  0  0  0  0  0  0  0  0  0  0  0
  -26.4960  -22.6991   20.5689 C   0  0  0  0  0  0  0  0  0  0  0  0
  -32.5580  -17.7073   22.7442 C   0  0  0  0  0  0  0  0  0  0  0  0
  -29.8739  -18.4341   22.7779 C   0  0  0  0  0  0  0  0  0  0  0  0
  -25.1604  -19.6991   23.3994 C   0  0  0  0  0  0  0  0  0  0  0  0
  -17.9299  -27.9240   22.4227 C   0  0  0  0  0  0  0  0  0  0  0  0
  -28.5419  -22.5200   18.6808 C   0  0  0  0  0  0  0  0  0  0  0  0
  -27.4139  -21.6508   20.6325 C   0  0  0  0  0  0  0  0  0  0  0  0
  -24.5661  -20.7549   22.7096 C   0  0  0  0  0  0  0  0  0  0  0  0
  -30.9667  -19.8714   18.1151 C   0  0  0  0  0  0  0  0  0  0  0  0
  -31.2865  -19.2164   16.9259 C   0  0  0  0  0  0  0  0  0  0  0  0
  -18.3737  -26.7612   21.8027 C   0  0  0  0  0  0  0  0  0  0  0  0
  -23.4645  -19.1767   21.2552 C   0  0  0  0  0  0  0  0  0  0  0  0
  -28.9694  -18.5918   16.6468 C   0  0  0  0  0  0  0  0  0  0  0  0
  -26.6010  -23.6579   19.5613 C   0  0  0  0  0  0  0  0  0  0  0  0
  -24.4303  -24.7598   18.7986 C   0  0  0  0  0  0  0  0  0  0  0  0
  -31.6006  -16.8374   22.1969 C   0  0  0  0  0  0  0  0  0  0  0  0
  -24.9194  -18.3723   23.0148 C   0  0  0  0  0  0  0  0  0  0  0  0
  -30.2354  -17.1864   22.2384 C   0  0  0  0  0  0  0  0  0  0  0  0
  -18.8368  -28.7377   23.0924 C   0  0  0  0  0  0  0  0  0  0  0  0
  -24.0549  -18.1058   21.9434 C   0  0  0  0  0  0  0  0  0  0  0  0
  -28.4368  -21.5612   19.6884 C   0  0  0  0  0  0  0  0  0  0  0  0
  -23.7203  -20.4939   21.6355 C   0  0  0  0  0  0  0  0  0  0  0  0
  -29.6483  -19.8866   18.5702 C   0  0  0  0  0  0  0  0  0  0  0  0
  -30.2879  -18.5766   16.1917 C   0  0  0  0  0  0  0  0  0  0  0  0
  -28.6496  -19.2468   17.8361 C   0  0  0  0  0  0  0  0  0  0  0  0
  -25.6528  -24.7409   19.4964 C   0  0  0  0  0  0  0  0  0  0  0  0
  -20.1661  -28.3474   23.1130 C   0  0  0  0  0  0  0  0  0  0  0  0
  -19.7237  -26.4595   21.8808 C   0  0  0  0  0  0  0  0  0  0  0  0
  -23.9091  -26.0048   19.0528 C   0  0  0  0  0  0  0  0  0  0  0  0
  -23.8205  -23.7428   17.9926 C   0  0  0  0  0  0  0  0  0  0  0  0
  -26.7239  -15.9833   21.9470 C   0  0  0  0  0  0  0  0  0  0  0  0
  -21.9581  -27.2990   25.3532 C   0  0  0  0  0  0  0  0  0  0  0  0
  -23.9700  -14.2928   22.2309 C   0  0  0  0  0  0  0  0  0  0  0  0
  -20.5591  -14.3086   22.3409 C   0  0  0  0  0  0  0  0  0  0  0  0
  -23.5223  -29.8611   23.2950 C   0  0  0  0  0  0  0  0  0  0  0  0
  -32.0670  -15.5241   21.6198 C   0  0  0  0  0  0  0  0  0  0  0  0
  -25.5470  -17.2437   23.7861 C   0  0  0  0  0  0  0  0  0  0  0  0
  -23.7476  -16.6985   21.5036 C   0  0  0  0  0  0  0  0  0  0  0  0
  -31.0400  -14.8847   20.6910 C   0  0  0  0  0  0  0  0  0  0  0  0
  -25.7487  -30.3444   20.5445 C   0  0  0  0  0  0  0  0  0  0  0  0
  -18.6564  -30.1878   25.2228 C   0  0  0  0  0  0  0  0  0  0  0  0
  -17.2574  -29.8991   24.7762 C   0  0  0  0  0  0  0  0  0  0  0  0
  -29.6762  -14.8569   21.3646 C   0  0  0  0  0  0  0  0  0  0  0  0
  -25.8601  -28.9458   19.9340 C   0  0  0  0  0  0  0  0  0  0  0  0
  -25.6456  -30.2876   22.0667 C   0  0  0  0  0  0  0  0  0  0  0  0
  -24.6692  -28.0159   21.9633 C   0  0  0  0  0  0  0  0  0  0  0  0
  -18.3653  -29.9846   23.7585 C   0  0  0  0  0  0  0  0  0  0  0  0
  -29.1745  -16.2800   21.6408 C   0  0  1  0  0  0  0  0  0  0  0  0
  -21.1872  -29.1992   23.8269 C   0  0  1  0  0  0  0  0  0  0  0  0
  -25.6370  -15.9492   22.9839 C   0  0  1  0  0  0  0  0  0  0  0  0
  -22.0627  -28.6768   24.9198 C   0  0  2  0  0  0  0  0  0  0  0  0
  -24.7213  -28.0337   20.4266 C   0  0  2  0  0  0  0  0  0  0  0  0
  -18.5876  -12.7691   22.5423 C   0  0  0  0  0  0  0  0  0  0  0  0
  -24.3354  -13.4481   19.3218 C   0  0  0  0  0  0  0  0  0  0  0  0
  -21.9352  -12.7363   19.2998 C   0  0  0  0  0  0  0  0  0  0  0  0
  -23.5489  -11.6278   20.8457 C   0  0  0  0  0  0  0  0  0  0  0  0
  -19.6645  -15.5944   24.8519 C   0  0  0  0  0  0  0  0  0  0  0  0
  -21.6629  -23.4256   21.1026 C   0  0  0  0  0  0  0  0  0  0  0  0
  -22.8666  -22.7127   21.6986 C   0  0  0  0  0  0  0  0  0  1  0  0
  -21.3166  -24.6936   21.8671 C   0  0  0  0  0  0  0  0  0  0  0  0
  -22.8002  -13.9948   21.3244 C   0  0  1  0  0  0  0  0  0  0  0  0
  -19.5789  -13.6457   23.2918 C   0  0  2  0  0  0  0  0  0  0  0  0
  -23.1621  -12.9785   20.2047 C   0  0  0  0  0  0  0  0  0  0  0  0
  -25.8939  -25.8832   20.1451 N   0  0  0  0  0  0  0  0  0  0  0  0
  -20.6346  -27.2253   22.5223 N   0  0  0  0  0  0  0  0  0  0  0  0
  -24.8158  -26.6317   19.8559 N   0  0  0  0  0  0  0  0  0  0  0  0
  -24.3904  -15.6293   22.2854 N   0  0  0  0  0  0  0  0  0  0  0  0
  -24.5697  -29.3877   22.4812 N   0  0  0  0  0  0  0  0  0  0  0  0
  -22.5715  -28.8875   23.5977 N   0  0  0  0  0  0  0  0  0  0  0  0
  -22.7681  -26.6136   18.6654 N   0  0  0  0  0  0  0  0  0  0  0  0
  -24.4916  -22.5224   17.8361 N   0  0  0  0  0  0  0  0  0  0  0  0
  -27.9859  -16.2104   22.4620 N   0  0  0  0  0  0  0  0  0  0  0  0
  -21.7101  -13.5639   22.1930 N   0  0  0  0  0  0  0  0  0  0  0  0
  -18.8151  -14.6766   24.0500 N   0  3  0  0  0  0  0  0  0  0  0  0
  -23.0002  -26.6041   25.1968 O   0  5  0  0  0  0  0  0  0  0  0  0
  -22.7209  -23.9173   17.4147 O   0  0  0  0  0  0  0  0  0  0  0  0
  -26.4389  -15.8146   20.7672 O   0  0  0  0  0  0  0  0  0  0  0  0
  -20.8339  -26.9778   25.8307 O   0  0  0  0  0  0  0  0  0  0  0  0
  -24.4870  -13.3750   22.8727 O   0  0  0  0  0  0  0  0  0  0  0  0
  -20.3254  -15.3780   21.7820 O   0  0  0  0  0  0  0  0  0  0  0  0
  -23.4482  -31.0254   23.6964 O   0  0  0  0  0  0  0  0  0  0  0  0
  -29.3322  -20.5380   19.7507 O   0  0  0  0  0  0  0  0  0  0  0  0
  -23.1395  -21.5226   20.9600 O   0  0  0  0  0  0  0  0  0  1  0  0
  -20.1856  -25.3194   21.2763 O   0  0  0  0  0  0  0  0  0  0  0  0
  -30.5949  -17.9489   15.0489 F   0  0  0  0  0  0  0  0  0  0  0  0
  -27.3810  -19.2590   18.2676 F   0  0  0  0  0  0  0  0  0  0  0  0
  1  2  1  0  0  0  0
  1  5  2  0  0  0  0
  2  6  2  0  0  0  0
  3  9  2  0  0  0  0
  3 17  1  0  0  0  0
  4 10  1  0  0  0  0
  4 17  2  0  0  0  0
  5 19  1  0  0  0  0
  6 21  1  0  0  0  0
  7 11  2  0  0  0  0
  7 20  1  0  0  0  0
  8 14  2  0  0  0  0
  8 22  1  0  0  0  0
  9 24  1  0  0  0  0
 10 24  2  0  0  0  0
 11 25  1  0  0  0  0
 12 13  2  0  0  0  0
 12 26  1  0  0  0  0
 13 27  1  0  0  0  0
 14 31  1  0  0  0  0
 15 23  1  0  0  0  0
 15 25  2  0  0  0  0
 16 27  2  0  0  0  0
 16 28  1  0  0  0  0
 17 29  1  0  0  0  0
 18 29  1  0  0  0  0
 18 32  2  0  0  0  0
 18 33  1  0  0  0  0
 19 21  2  0  0  0  0
 19 39  1  0  0  0  0
 20 23  2  0  0  0  0
 20 40  1  0  0  0  0
 21 51  1  0  0  0  0
 22 30  2  0  0  0  0
 22 50  1  0  0  0  0
 23 41  1  0  0  0  0
 24 85  1  0  0  0  0
 25 86  1  0  0  0  0
 26 28  2  0  0  0  0
 26 85  1  0  0  0  0
 27 88  1  0  0  0  0
 28 89  1  0  0  0  0
 29 67  2  0  0  0  0
 30 52  1  0  0  0  0
 30 68  1  0  0  0  0
 31 68  2  0  0  0  0
 31 87  1  0  0  0  0
 32 69  1  0  0  0  0
 32 73  1  0  0  0  0
 33 74  1  0  0  0  0
 33 79  2  0  0  0  0
 34 53  1  0  0  0  0
 34 75  1  0  0  0  0
 34 80  2  0  0  0  0
 35 54  1  0  0  0  0
 35 78  1  0  0  0  0
 35 81  2  0  0  0  0
 36 64  1  0  0  0  0
 36 70  1  0  0  0  0
 36 82  2  0  0  0  0
 37 65  1  0  0  0  0
 37 76  1  0  0  0  0
 37 83  2  0  0  0  0
 38 71  1  0  0  0  0
 38 72  1  0  0  0  0
 38 84  2  0  0  0  0
 39 42  1  0  0  0  0
 40 53  1  0  0  0  0
 41 70  1  0  0  0  0
 42 46  1  0  0  0  0
 43 47  1  0  0  0  0
 43 48  1  0  0  0  0
 44 45  1  0  0  0  0
 44 50  1  0  0  0  0
 45 50  1  0  0  0  0
 46 51  1  0  0  0  0
 47 55  1  0  0  0  0
 48 71  1  0  0  0  0
 49 55  1  0  0  0  0
 49 71  1  0  0  0  0
 51 75  1  0  0  0  0
 52 54  1  0  0  0  0
 52 72  1  0  0  0  0
 53 70  1  0  0  0  0
 54 72  1  0  0  0  0
 55 69  1  0  0  0  0
 56 65  1  0  0  0  0
 57 66  1  0  0  0  0
 58 66  1  0  0  0  0
 59 66  1  0  0  0  0
 60 77  1  0  0  0  0
 61 62  1  0  0  0  0
 61 63  1  0  0  0  0
 62 86  1  0  0  0  0
 63 87  1  0  0  0  0
 64 66  1  0  0  0  0
 64 76  1  0  0  0  0
 65 77  1  0  0  0  0
 67 69  1  0  0  0  0
M  CHG  2  77   1  78  -1
M  ISO  4  38 100  62 101  72 100  86 101
M  END
> <Batch ID>
0146

> <Smiles>
CNC(C)C(=O)NC(C(=O)N1Cc2cc([101O:1][101CH2:1]CCOc3ccc(C4CC4)c(C4C(C(=O)O)[100N:0]4[100C:0](=O)N4CCCC(n5nc(-c6ccc(Oc7ccc(F)cc7F)cc6)c(C(N)=O)c5N)C4)n3)ccc2CC1C(=O)NC1CCCc2ccccc21)C(C)(C)C

> <Shape>
0.215

> <Color>
0.060

> <Negative vol penalty>
0.000

$$$$

  -OEChem-04052321313D

 86 95  0     1  0  0  0  0  0999 V2000
  -18.8233  -33.0239   20.5067 C   0  0  0  0  0  0  0  0  0  0  0  0
  -20.1437  -32.7486   20.1659 C   0  0  0  0  0  0  0  0  0  0  0  0
  -24.2817  -11.8000   20.2578 C   0  0  0  0  0  0  0  0  0  0  0  0
  -25.2410  -12.5159   22.3564 C   0  0  0  0  0  0  0  0  0  0  0  0
  -18.2742  -32.4742   21.6643 C   0  0  0  0  0  0  0  0  0  0  0  0
  -20.9161  -31.9242   20.9833 C   0  0  0  0  0  0  0  0  0  0  0  0
  -25.2519  -27.9862   19.1947 C   0  0  0  0  0  0  0  0  0  0  0  0
  -33.8453  -24.3188   18.3693 C   0  0  0  0  0  0  0  0  0  0  0  0
  -24.4239  -10.4681   20.6471 C   0  0  0  0  0  0  0  0  0  0  0  0
  -25.3831  -11.1840   22.7458 C   0  0  0  0  0  0  0  0  0  0  0  0
  -26.6421  -28.0797   19.1472 C   0  0  0  0  0  0  0  0  0  0  0  0
  -32.8725  -25.2298   18.7806 C   0  0  0  0  0  0  0  0  0  0  0  0
  -24.2018   -6.8880   21.2375 C   0  0  0  0  0  0  0  0  0  0  0  0
  -23.1253   -6.0292   21.0160 C   0  0  0  0  0  0  0  0  0  0  0  0
  -26.7833  -26.9803   21.2898 C   0  0  0  0  0  0  0  0  0  0  0  0
  -31.2497  -23.4438   18.8985 C   0  0  0  0  0  0  0  0  0  0  0  0
  -21.7326   -7.4113   22.4256 C   0  0  0  0  0  0  0  0  0  0  0  0
  -24.6903  -12.8239   21.1124 C   0  0  0  0  0  0  0  0  0  0  0  0
  -23.4344  -15.0370   20.9325 C   0  0  0  0  0  0  0  0  0  0  0  0
  -19.0373  -31.6349   22.4913 C   0  0  0  0  0  0  0  0  0  0  0  0
  -24.6153  -27.3978   20.2971 C   0  0  0  0  0  0  0  0  0  0  0  0
  -20.3771  -31.3639   22.1539 C   0  0  0  0  0  0  0  0  0  0  0  0
  -25.3849  -26.8783   21.3477 C   0  0  0  0  0  0  0  0  0  0  0  0
  -32.2225  -22.5328   18.4871 C   0  0  0  0  0  0  0  0  0  0  0  0
  -33.5203  -22.9702   18.2225 C   0  0  0  0  0  0  0  0  0  0  0  0
  -24.9746  -10.1602   21.8911 C   0  0  0  0  0  0  0  0  0  0  0  0
  -27.4079  -27.5793   20.1961 C   0  0  0  0  0  0  0  0  0  0  0  0
  -31.5747  -24.7924   19.0452 C   0  0  0  0  0  0  0  0  0  0  0  0
  -24.0437   -8.0085   22.0531 C   0  0  0  0  0  0  0  0  0  0  0  0
  -21.8907   -6.2908   21.6100 C   0  0  0  0  0  0  0  0  0  0  0  0
  -22.8091   -8.2701   22.6471 C   0  0  0  0  0  0  0  0  0  0  0  0
  -24.5442  -14.1998   20.7106 C   0  0  0  0  0  0  0  0  0  0  0  0
  -23.7889  -16.2354   20.3626 C   0  0  0  0  0  0  0  0  0  0  0  0
  -22.1940  -14.7565   21.5946 C   0  0  0  0  0  0  0  0  0  0  0  0
  -22.5671  -28.4089   22.5075 C   0  0  0  0  0  0  0  0  0  0  0  0
  -22.5595  -25.2825   23.3722 C   0  0  0  0  0  0  0  0  0  0  0  0
  -24.1777  -22.2778   23.3914 C   0  0  0  0  0  0  0  0  0  0  0  0
  -29.0553  -18.7028   19.3470 C   0  0  0  0  0  0  0  0  0  0  0  0
  -18.4148  -31.1021   23.7574 C   0  0  0  0  0  0  0  0  0  0  0  0
  -23.1160  -27.2806   20.3208 C   0  0  0  0  0  0  0  0  0  0  0  0
  -24.7510  -26.2190   22.5444 C   0  0  0  0  0  0  0  0  0  0  0  0
  -19.1860  -29.9367   24.3718 C   0  0  0  0  0  0  0  0  0  0  0  0
  -26.4988  -18.0633   16.8665 C   0  0  0  0  0  0  0  0  0  0  0  0
  -20.6787  -30.2476   24.4141 C   0  0  0  0  0  0  0  0  0  0  0  0
  -25.5991  -17.0712   17.6058 C   0  0  0  0  0  0  0  0  0  0  0  0
  -32.1116  -20.1490   19.4762 C   0  0  0  0  0  0  0  0  0  0  0  0
  -27.9702  -17.8240   17.1923 C   0  0  0  0  0  0  0  0  0  0  0  0
  -27.3941  -16.8640   19.3877 C   0  0  0  0  0  0  0  0  0  0  0  0
  -31.8520  -21.0947   18.3355 C   0  0  1  0  0  0  0  0  0  0  0  0
  -21.2395  -30.4543   23.0019 C   0  0  1  0  0  0  0  0  0  0  0  0
  -22.5511  -27.1237   21.7293 C   0  0  1  0  0  0  0  0  0  0  0  0
  -25.8922  -17.0682   19.1179 C   0  0  2  0  0  0  0  0  0  0  0  0
  -30.7029  -20.5476   19.1491 C   0  0  1  0  0  0  0  0  0  0  0  0
  -35.7472  -21.9296   18.7807 C   0  0  0  0  0  0  0  0  0  0  0  0
  -35.1166  -22.3430   16.3752 C   0  0  0  0  0  0  0  0  0  0  0  0
  -23.9381  -19.9165   24.2064 C   0  0  0  0  0  0  0  0  0  0  0  0
  -23.2408  -26.1932   26.2035 C   0  0  0  0  0  0  0  0  0  0  0  0
  -23.9134  -23.8385   26.7243 C   0  0  0  0  0  0  0  0  0  0  0  0
  -21.5584  -24.3471   26.0780 C   0  0  0  0  0  0  0  0  0  0  0  0
  -24.2693  -21.1954   20.6384 C   0  0  0  0  0  0  0  0  0  0  0  0
  -29.3764  -27.6479   18.8633 C   0  0  0  0  0  0  0  0  0  1  0  0
  -30.7533  -27.0232   18.9788 C   0  0  0  0  0  0  0  0  0  0  0  0
  -34.5800  -22.0148   17.7804 C   0  0  0  0  0  0  0  0  0  0  0  0
  -23.3725  -24.4331   24.3191 C   0  0  1  0  0  0  0  0  0  0  0  0
  -23.7041  -20.8765   23.0504 C   0  0  2  0  0  0  0  0  0  0  0  0
  -23.0334  -24.7171   25.8097 C   0  0  0  0  0  0  0  0  0  0  0  0
  -25.5299  -14.8143   20.0510 N   0  0  0  0  0  0  0  0  0  0  0  0
  -25.0406  -16.0502   19.8535 N   0  0  0  0  0  0  0  0  0  0  0  0
  -23.2814  -26.1341   22.5241 N   0  0  0  0  0  0  0  0  0  0  0  0
  -28.1846  -17.8520   18.6460 N   0  0  0  0  0  0  0  0  0  0  0  0
  -23.1488  -17.4188   20.2523 N   0  0  0  0  0  0  0  0  0  0  0  0
  -21.9937  -13.4739   22.1229 N   0  0  0  0  0  0  0  0  0  0  0  0
  -21.4324  -29.1802   22.3433 N   0  0  0  0  0  0  0  0  0  0  0  0
  -23.1595  -23.0487   23.9111 N   0  0  0  0  0  0  0  0  0  0  0  0
  -29.7724  -19.6044   18.5700 N   0  0  0  0  0  0  0  0  0  0  0  0
  -24.4312  -20.3602   21.8563 N   0  3  0  0  0  0  0  0  0  0  0  0
  -21.2834  -15.6129   21.6999 O   0  0  0  0  0  0  0  0  0  0  0  0
  -23.5364  -28.6799   23.2065 O   0  0  0  0  0  0  0  0  0  0  0  0
  -21.3296  -25.1883   23.3797 O   0  0  0  0  0  0  0  0  0  0  0  0
  -25.3361  -22.6501   23.2178 O   0  0  0  0  0  0  0  0  0  0  0  0
  -29.1807  -18.6654   20.5758 O   0  0  0  0  0  0  0  0  0  0  0  0
  -25.1132   -8.8607   22.2714 O   0  0  0  0  0  0  0  0  0  0  0  0
  -28.7650  -27.6699   20.1526 O   0  0  0  0  0  0  0  0  0  1  0  0
  -30.6196  -25.6876   19.4495 O   0  0  0  0  0  0  0  0  0  0  0  0
  -20.8566   -5.4668   21.3960 F   0  0  0  0  0  0  0  0  0  0  0  0
  -22.6508   -9.3457   23.4307 F   0  0  0  0  0  0  0  0  0  0  0  0
  1  2  1  0  0  0  0
  1  5  2  0  0  0  0
  2  6  2  0  0  0  0
  3  9  2  0  0  0  0
  3 18  1  0  0  0  0
  4 10  1  0  0  0  0
  4 18  2  0  0  0  0
  5 20  1  0  0  0  0
  6 22  1  0  0  0  0
  7 11  2  0  0  0  0
  7 21  1  0  0  0  0
  8 12  2  0  0  0  0
  8 25  1  0  0  0  0
  9 26  1  0  0  0  0
 10 26  2  0  0  0  0
 11 27  1  0  0  0  0
 12 28  1  0  0  0  0
 13 14  2  0  0  0  0
 13 29  1  0  0  0  0
 14 30  1  0  0  0  0
 15 23  1  0  0  0  0
 15 27  2  0  0  0  0
 16 24  1  0  0  0  0
 16 28  2  0  0  0  0
 17 30  2  0  0  0  0
 17 31  1  0  0  0  0
 18 32  1  0  0  0  0
 19 32  1  0  0  0  0
 19 33  2  0  0  0  0
 19 34  1  0  0  0  0
 20 22  2  0  0  0  0
 20 39  1  0  0  0  0
 21 23  2  0  0  0  0
 21 40  1  0  0  0  0
 22 50  1  0  0  0  0
 23 41  1  0  0  0  0
 24 25  2  0  0  0  0
 24 49  1  0  0  0  0
 25 63  1  0  0  0  0
 26 82  1  0  0  0  0
 27 83  1  0  0  0  0
 28 84  1  0  0  0  0
 29 31  2  0  0  0  0
 29 82  1  0  0  0  0
 30 85  1  0  0  0  0
 31 86  1  0  0  0  0
 32 67  2  0  0  0  0
 33 68  1  0  0  0  0
 33 71  1  0  0  0  0
 34 72  1  0  0  0  0
 34 77  2  0  0  0  0
 35 51  1  0  0  0  0
 35 73  1  0  0  0  0
 35 78  2  0  0  0  0
 36 64  1  0  0  0  0
 36 69  1  0  0  0  0
 36 79  2  0  0  0  0
 37 65  1  0  0  0  0
 37 74  1  0  0  0  0
 37 80  2  0  0  0  0
 38 70  1  0  0  0  0
 38 75  1  0  0  0  0
 38 81  2  0  0  0  0
 39 42  1  0  0  0  0
 40 51  1  0  0  0  0
 41 69  1  0  0  0  0
 42 44  1  0  0  0  0
 43 45  1  0  0  0  0
 43 47  1  0  0  0  0
 44 50  1  0  0  0  0
 45 52  1  0  0  0  0
 46 49  1  0  0  0  0
 46 53  1  0  0  0  0
 47 70  1  0  0  0  0
 48 52  1  0  0  0  0
 48 70  1  0  0  0  0
 49 53  1  0  0  0  0
 50 73  1  0  0  0  0
 51 69  1  0  0  0  0
 52 68  1  0  0  0  0
 53 75  1  0  0  0  0
 54 63  1  0  0  0  0
 55 63  1  0  0  0  0
 56 65  1  0  0  0  0
 57 66  1  0  0  0  0
 58 66  1  0  0  0  0
 59 66  1  0  0  0  0
 60 76  1  0  0  0  0
 61 62  1  0  0  0  0
 61 83  1  0  0  0  0
 62 84  1  0  0  0  0
 64 66  1  0  0  0  0
 64 74  1  0  0  0  0
 65 76  1  0  0  0  0
 67 68  1  0  0  0  0
M  CHG  1  76   1
M  ISO  4  38 100  61 101  75 100  83 101
M  END
> <Batch ID>
0146

> <Smiles>
CNC(C)C(=O)NC(C(=O)N1Cc2cc([101O:1][101CH2:1]COc3ccc(C(C)C)c(C4CC4[100NH:0][100C:0](=O)N4CCCC(n5nc(-c6ccc(Oc7ccc(F)cc7F)cc6)c(C(N)=O)c5N)C4)c3)ccc2CC1C(=O)NC1CCCc2ccccc21)C(C)(C)C

> <Shape>
0.204

> <Color>
0.105

> <Negative vol penalty>
0.000

$$$$

  -OEChem-04052321313D

 81 90  0     1  0  0  0  0  0999 V2000
  -30.2364  -23.8185   18.9156 C   0  0  0  0  0  0  0  0  0  0  0  0
  -28.8478  -23.8924   18.9593 C   0  0  0  0  0  0  0  0  0  0  0  0
  -27.8707  -14.8762   19.6059 C   0  0  0  0  0  0  0  0  0  0  0  0
  -25.7849  -15.5637   20.6127 C   0  0  0  0  0  0  0  0  0  0  0  0
  -30.9988  -24.4718   19.8830 C   0  0  0  0  0  0  0  0  0  0  0  0
  -28.2208  -24.6187   19.9710 C   0  0  0  0  0  0  0  0  0  0  0  0
  -23.0354  -27.8451   19.5152 C   0  0  0  0  0  0  0  0  0  0  0  0
  -27.5154  -13.5391   19.7826 C   0  0  0  0  0  0  0  0  0  0  0  0
  -25.4295  -14.2265   20.7894 C   0  0  0  0  0  0  0  0  0  0  0  0
  -21.7153  -27.5518   19.8544 C   0  0  0  0  0  0  0  0  0  0  0  0
  -24.2036  -11.7062   18.9011 C   0  0  0  0  0  0  0  0  0  0  0  0
  -22.9040  -11.3321   18.5597 C   0  0  0  0  0  0  0  0  0  0  0  0
  -22.4903  -24.8202   23.9681 C   0  0  0  0  0  0  0  0  0  0  0  0
  -23.8271  -24.3360   24.0606 C   0  0  0  0  0  0  0  0  0  0  0  0
  -22.0151  -28.6760   21.9676 C   0  0  0  0  0  0  0  0  0  0  0  0
  -22.5116  -10.6192   20.8345 C   0  0  0  0  0  0  0  0  0  0  0  0
  -27.0055  -15.8886   20.0210 C   0  0  0  0  0  0  0  0  0  0  0  0
  -27.6501  -17.9229   18.6233 C   0  0  0  0  0  0  0  0  0  0  0  0
  -30.3811  -25.2146   20.9016 C   0  0  0  0  0  0  0  0  0  0  0  0
  -23.8599  -28.5477   20.4056 C   0  0  0  0  0  0  0  0  0  0  0  0
  -28.9757  -25.2815   20.9537 C   0  0  0  0  0  0  0  0  0  0  0  0
  -23.3445  -28.9792   21.6362 C   0  0  0  0  0  0  0  0  0  0  0  0
  -26.2948  -13.2142   20.3744 C   0  0  0  0  0  0  0  0  0  0  0  0
  -21.2058  -27.9648   21.0820 C   0  0  0  0  0  0  0  0  0  0  0  0
  -24.6573  -11.5368   20.2092 C   0  0  0  0  0  0  0  0  0  0  0  0
  -22.0580  -10.7886   19.5264 C   0  0  0  0  0  0  0  0  0  0  0  0
  -23.8113  -10.9933   21.1759 C   0  0  0  0  0  0  0  0  0  0  0  0
  -27.3723  -17.2701   19.8392 C   0  0  0  0  0  0  0  0  0  0  0  0
  -21.7027  -24.0167   23.1733 C   0  0  0  0  0  0  0  0  0  0  0  0
  -27.9436  -19.2146   18.9864 C   0  0  0  0  0  0  0  0  0  0  0  0
  -24.0103  -23.1806   23.3331 C   0  0  0  0  0  0  0  0  0  0  0  0
  -27.6435  -17.4078   17.2853 C   0  0  0  0  0  0  0  0  0  0  0  0
  -26.5645  -27.9000   21.9449 C   0  0  0  0  0  0  0  0  0  0  0  0
  -26.3573  -31.0170   22.8188 C   0  0  0  0  0  0  0  0  0  0  0  0
  -24.3893  -33.7578   23.3306 C   0  0  0  0  0  0  0  0  0  0  0  0
  -26.4303  -22.5773   23.6882 C   0  0  0  0  0  0  0  0  0  0  0  0
  -31.2458  -25.8646   21.9525 C   0  0  0  0  0  0  0  0  0  0  0  0
  -25.2736  -28.8794   20.0135 C   0  0  0  0  0  0  0  0  0  0  0  0
  -24.1823  -29.7540   22.6191 C   0  0  0  0  0  0  0  0  0  0  0  0
  -30.5142  -26.9232   22.7738 C   0  0  0  0  0  0  0  0  0  0  0  0
  -29.7298  -21.7686   22.6224 C   0  0  0  0  0  0  0  0  0  0  0  0
  -29.1532  -26.4025   23.2248 C   0  0  0  0  0  0  0  0  0  0  0  0
  -29.5244  -20.5865   21.6723 C   0  0  0  0  0  0  0  0  0  0  0  0
  -18.3885  -25.9653   22.3660 C   0  0  0  0  0  0  0  0  0  0  0  0
  -28.7609  -21.7227   23.8025 C   0  0  0  0  0  0  0  0  0  0  0  0
  -27.1385  -20.4156   22.4878 C   0  0  0  0  0  0  0  0  0  0  0  0
  -28.2594  -26.0801   22.0212 C   0  0  1  0  0  0  0  0  0  0  0  0
  -26.1775  -29.1531   21.2117 C   0  0  1  0  0  0  0  0  0  0  0  0
  -19.7869  -25.6090   22.7887 C   0  0  2  0  0  0  0  0  0  0  0  0
  -28.0484  -20.4536   21.2491 C   0  0  2  0  0  0  0  0  0  0  0  0
  -19.5518  -26.3012   21.4728 C   0  0  2  0  0  0  0  0  0  1  0  0
  -19.3518  -23.3260   23.7653 C   0  0  0  0  0  0  0  0  0  0  0  0
  -24.4997  -36.1498   24.0812 C   0  0  0  0  0  0  0  0  0  0  0  0
  -26.6266  -30.0934   25.7144 C   0  0  0  0  0  0  0  0  0  0  0  0
  -25.7901  -32.3402   26.4357 C   0  0  0  0  0  0  0  0  0  0  0  0
  -27.9218  -32.1578   25.1531 C   0  0  0  0  0  0  0  0  0  0  0  0
  -23.3825  -34.7424   20.7275 C   0  0  0  0  0  0  0  0  0  0  0  0
  -20.2209  -24.1845   22.8179 C   0  0  2  0  0  0  0  0  0  0  0  0
  -25.7240  -31.7657   23.9666 C   0  0  1  0  0  0  0  0  0  0  0  0
  -24.5412  -35.2031   22.8918 C   0  0  2  0  0  0  0  0  0  0  0  0
  -26.5001  -31.5730   25.3000 C   0  0  0  0  0  0  0  0  0  0  0  0
  -27.4798  -18.0801   20.8957 N   0  0  0  0  0  0  0  0  0  0  0  0
  -27.8285  -19.2553   20.3448 N   0  0  0  0  0  0  0  0  0  0  0  0
  -25.5603  -30.0484   22.1924 N   0  0  0  0  0  0  0  0  0  0  0  0
  -27.3817  -21.6007   23.3252 N   0  0  0  0  0  0  0  0  0  0  0  0
  -28.2864  -20.3083   18.2730 N   0  0  0  0  0  0  0  0  0  0  0  0
  -28.8299  -16.8665   16.7718 N   0  0  0  0  0  0  0  0  0  0  0  0
  -25.1606  -22.3741   23.1485 N   0  0  0  0  0  0  0  0  0  0  0  0
  -27.7087  -27.2954   21.4606 N   0  0  0  0  0  0  0  0  0  0  0  0
  -25.6123  -33.1550   23.5356 N   0  0  0  0  0  0  0  0  0  0  0  0
  -23.4449  -35.5778   21.9544 N   0  3  0  0  0  0  0  0  0  0  0  0
  -26.6202  -17.4420   16.5605 O   0  0  0  0  0  0  0  0  0  0  0  0
  -25.8767  -27.5113   22.8818 O   0  0  0  0  0  0  0  0  0  0  0  0
  -27.5139  -31.2868   22.4856 O   0  0  0  0  0  0  0  0  0  0  0  0
  -23.2950  -33.2186   23.4804 O   0  0  0  0  0  0  0  0  0  0  0  0
  -26.7273  -23.5391   24.4016 O   0  0  0  0  0  0  0  0  0  0  0  0
  -25.9476  -11.9095   20.5468 O   0  0  0  0  0  0  0  0  0  0  0  0
  -19.9178  -27.6793   21.4160 O   0  0  0  0  0  0  0  0  0  1  0  0
  -20.8094  -10.4307   19.1987 F   0  0  0  0  0  0  0  0  0  0  0  0
  -24.2411  -10.8292   22.4346 F   0  0  0  0  0  0  0  0  0  0  0  0
  -22.5745  -22.6846   22.5427 S   0  0  0  0  0  0  0  0  0  0  0  0
  1  2  1  0  0  0  0
  1  5  2  0  0  0  0
  2  6  2  0  0  0  0
  3  8  2  0  0  0  0
  3 17  1  0  0  0  0
  4  9  1  0  0  0  0
  4 17  2  0  0  0  0
  5 19  1  0  0  0  0
  6 21  1  0  0  0  0
  7 10  2  0  0  0  0
  7 20  1  0  0  0  0
  8 23  1  0  0  0  0
  9 23  2  0  0  0  0
 10 24  1  0  0  0  0
 11 12  2  0  0  0  0
 11 25  1  0  0  0  0
 12 26  1  0  0  0  0
 13 14  1  0  0  0  0
 13 29  2  0  0  0  0
 14 31  2  0  0  0  0
 15 22  1  0  0  0  0
 15 24  2  0  0  0  0
 16 26  2  0  0  0  0
 16 27  1  0  0  0  0
 17 28  1  0  0  0  0
 18 28  1  0  0  0  0
 18 30  2  0  0  0  0
 18 32  1  0  0  0  0
 19 21  2  0  0  0  0
 19 37  1  0  0  0  0
 20 22  2  0  0  0  0
 20 38  1  0  0  0  0
 21 47  1  0  0  0  0
 22 39  1  0  0  0  0
 23 77  1  0  0  0  0
 24 78  1  0  0  0  0
 25 27  2  0  0  0  0
 25 77  1  0  0  0  0
 26 79  1  0  0  0  0
 27 80  1  0  0  0  0
 28 62  2  0  0  0  0
 29 58  1  0  0  0  0
 29 81  1  0  0  0  0
 30 63  1  0  0  0  0
 30 66  1  0  0  0  0
 31 68  1  0  0  0  0
 31 81  1  0  0  0  0
 32 67  1  0  0  0  0
 32 72  2  0  0  0  0
 33 48  1  0  0  0  0
 33 69  1  0  0  0  0
 33 73  2  0  0  0  0
 34 59  1  0  0  0  0
 34 64  1  0  0  0  0
 34 74  2  0  0  0  0
 35 60  1  0  0  0  0
 35 70  1  0  0  0  0
 35 75  2  0  0  0  0
 36 65  1  0  0  0  0
 36 68  1  0  0  0  0
 36 76  2  0  0  0  0
 37 40  1  0  0  0  0
 38 48  1  0  0  0  0
 39 64  1  0  0  0  0
 40 42  1  0  0  0  0
 41 43  1  0  0  0  0
 41 45  1  0  0  0  0
 42 47  1  0  0  0  0
 43 50  1  0  0  0  0
 44 49  1  0  0  0  0
 44 51  1  0  0  0  0
 45 65  1  0  0  0  0
 46 50  1  0  0  0  0
 46 65  1  0  0  0  0
 47 69  1  0  0  0  0
 48 64  1  0  0  0  0
 49 51  1  0  0  0  0
 49 58  1  0  0  0  0
 50 63  1  0  0  0  0
 51 78  1  0  0  0  0
 52 58  1  0  0  0  0
 53 60  1  0  0  0  0
 54 61  1  0  0  0  0
 55 61  1  0  0  0  0
 56 61  1  0  0  0  0
 57 71  1  0  0  0  0
 59 61  1  0  0  0  0
 59 70  1  0  0  0  0
 60 71  1  0  0  0  0
 62 63  1  0  0  0  0
M  CHG  1  71   1
M  ISO  4  36 100  51 101  68 100  78 101
M  END
> <Batch ID>
0146

> <Smiles>
CNC(C)C(=O)NC(C(=O)N1Cc2cc([101O:1][101CH:1]3CC3C(C)c3ccc([100NH:0][100C:0](=O)N4CCCC(n5nc(-c6ccc(Oc7ccc(F)cc7F)cc6)c(C(N)=O)c5N)C4)s3)ccc2CC1C(=O)NC1CCCc2ccccc21)C(C)(C)C

> <Shape>
0.280

> <Color>
0.056

> <Negative vol penalty>
0.000

$$$$

  -OEChem-04052321313D

 86 94  0     1  0  0  0  0  0999 V2000
  -16.8439  -28.7263   23.8791 C   0  0  0  0  0  0  0  0  0  0  0  0
  -17.4719  -27.9746   22.8913 C   0  0  0  0  0  0  0  0  0  0  0  0
  -26.3390  -18.7057   15.2907 C   0  0  0  0  0  0  0  0  0  0  0  0
  -27.8785  -10.9103   20.0266 C   0  0  0  0  0  0  0  0  0  0  0  0
  -25.9469  -11.8840   21.1025 C   0  0  0  0  0  0  0  0  0  0  0  0
  -17.3754  -29.9576   24.2602 C   0  0  0  0  0  0  0  0  0  0  0  0
  -18.6314  -28.4543   22.2831 C   0  0  0  0  0  0  0  0  0  0  0  0
  -22.2087  -24.8971   21.8430 C   0  0  0  0  0  0  0  0  0  0  0  0
  -27.0633  -19.5835   16.0895 C   0  0  0  0  0  0  0  0  0  0  0  0
  -27.4617   -9.6409   20.4271 C   0  0  0  0  0  0  0  0  0  0  0  0
  -25.5300  -10.6146   21.5029 C   0  0  0  0  0  0  0  0  0  0  0  0
  -22.0608  -23.9694   20.8128 C   0  0  0  0  0  0  0  0  0  0  0  0
  -23.9744   -7.9534   20.1176 C   0  0  0  0  0  0  0  0  0  0  0  0
  -22.6274   -7.6326   19.9504 C   0  0  0  0  0  0  0  0  0  0  0  0
  -23.6473  -25.2051   19.4805 C   0  0  0  0  0  0  0  0  0  0  0  0
  -22.4170   -7.2749   22.3305 C   0  0  0  0  0  0  0  0  0  0  0  0
  -24.9613  -18.6821   15.4370 C   0  0  0  0  0  0  0  0  0  0  0  0
  -27.1212  -12.0319   20.3644 C   0  0  0  0  0  0  0  0  0  0  0  0
  -27.2212  -14.0095   18.7560 C   0  0  0  0  0  0  0  0  0  0  0  0
  -18.5474  -30.4483   23.6632 C   0  0  0  0  0  0  0  0  0  0  0  0
  -23.0702  -25.9936   21.6952 C   0  0  0  0  0  0  0  0  0  0  0  0
  -19.1784  -29.6940   22.6556 C   0  0  0  0  0  0  0  0  0  0  0  0
  -23.8063  -26.1439   20.5113 C   0  0  0  0  0  0  0  0  0  0  0  0
  -26.3973  -20.3995   16.9973 C   0  0  0  0  0  0  0  0  0  0  0  0
  -26.2874   -9.4930   21.1652 C   0  0  0  0  0  0  0  0  0  0  0  0
  -22.7780  -24.1249   19.6302 C   0  0  0  0  0  0  0  0  0  0  0  0
  -24.5429   -7.9349   21.3913 C   0  0  0  0  0  0  0  0  0  0  0  0
  -21.8486   -7.2934   21.0568 C   0  0  0  0  0  0  0  0  0  0  0  0
  -23.7641   -7.5957   22.4977 C   0  0  0  0  0  0  0  0  0  0  0  0
  -27.5515  -13.3436   19.9515 C   0  0  0  0  0  0  0  0  0  0  0  0
  -25.0170  -20.3002   17.0670 C   0  0  0  0  0  0  0  0  0  0  0  0
  -27.8753  -15.2142   18.8420 C   0  0  0  0  0  0  0  0  0  0  0  0
  -26.3967  -13.5778   17.6654 C   0  0  0  0  0  0  0  0  0  0  0  0
  -22.7005  -29.1506   21.6797 C   0  0  0  0  0  0  0  0  0  0  0  0
  -25.9421  -29.1387   21.5591 C   0  0  0  0  0  0  0  0  0  0  0  0
  -28.8047  -27.4712   20.7397 C   0  0  0  0  0  0  0  0  0  0  0  0
  -29.3860  -19.7355   21.7439 C   0  0  0  0  0  0  0  0  0  0  0  0
  -19.0580  -31.8064   24.0748 C   0  0  0  0  0  0  0  0  0  0  0  0
  -23.2388  -26.9708   22.8262 C   0  0  0  0  0  0  0  0  0  0  0  0
  -24.7596  -27.2926   20.3106 C   0  0  0  0  0  0  0  0  0  0  0  0
  -20.4989  -32.0711   23.6459 C   0  0  0  0  0  0  0  0  0  0  0  0
  -31.4014  -16.8212   22.0933 C   0  0  0  0  0  0  0  0  0  0  0  0
  -20.7047  -31.6684   22.1890 C   0  0  0  0  0  0  0  0  0  0  0  0
  -30.5498  -15.7112   21.4745 C   0  0  0  0  0  0  0  0  0  0  0  0
  -30.5440  -17.8401   22.8407 C   0  0  0  0  0  0  0  0  0  0  0  0
  -28.5924  -17.3129   21.4311 C   0  0  0  0  0  0  0  0  0  0  0  0
  -20.4517  -30.1692   21.9900 C   0  0  1  0  0  0  0  0  0  0  0  0
  -23.7551  -28.3313   22.3684 C   0  0  1  0  0  0  0  0  0  0  0  0
  -29.4074  -16.2917   20.6193 C   0  0  2  0  0  0  0  0  0  0  0  0
  -31.3004  -27.7332   20.7207 C   0  0  0  0  0  0  0  0  0  0  0  0
  -25.7325  -30.9341   19.1010 C   0  0  0  0  0  0  0  0  0  0  0  0
  -28.1196  -30.3853   18.5827 C   0  0  0  0  0  0  0  0  0  0  0  0
  -27.5454  -31.5667   20.7033 C   0  0  0  0  0  0  0  0  0  0  0  0
  -29.1745  -25.1899   22.5884 C   0  0  0  0  0  0  0  0  0  0  0  0
  -29.6494  -23.9265   18.2689 C   0  0  0  0  0  0  0  0  0  0  0  0
  -28.5172  -21.1499   18.0783 C   0  0  0  0  0  0  0  0  0  0  0  0
  -28.1314  -21.5253   20.5684 C   0  0  0  0  0  0  0  0  0  0  0  0
  -22.3198  -21.8798   18.9936 C   0  0  0  0  0  0  0  0  0  1  0  0
  -22.9082  -20.9311   17.9673 C   0  0  0  0  0  0  0  0  0  0  0  0
  -26.9707  -29.1173   20.4544 C   0  0  1  0  0  0  0  0  0  0  0  0
  -30.0942  -27.2457   21.5083 C   0  0  2  0  0  0  0  0  0  0  0  0
  -28.8929  -21.9636   19.3166 C   0  0  2  0  0  0  0  0  0  0  0  0
  -27.0727  -30.4802   19.7131 C   0  0  0  0  0  0  0  0  0  0  0  0
  -24.2793  -19.4595   16.3076 N   0  0  0  0  0  0  0  0  0  0  0  0
  -28.3533  -14.0652   20.7391 N   0  0  0  0  0  0  0  0  0  0  0  0
  -28.5323  -15.1971   20.0370 N   0  0  0  0  0  0  0  0  0  0  0  0
  -24.8850  -28.2249   21.4431 N   0  0  0  0  0  0  0  0  0  0  0  0
  -29.4805  -18.3530   21.9736 N   0  0  0  0  0  0  0  0  0  0  0  0
  -27.9468  -16.2758   18.0112 N   0  0  0  0  0  0  0  0  0  0  0  0
  -25.8004  -12.3116   17.7390 N   0  0  0  0  0  0  0  0  0  0  0  0
  -27.1173  -21.2927   17.8106 N   0  0  0  0  0  0  0  0  0  0  0  0
  -21.5849  -29.3991   22.4563 N   0  0  0  0  0  0  0  0  0  0  0  0
  -28.2188  -28.6756   21.0673 N   0  0  0  0  0  0  0  0  0  0  0  0
  -28.3536  -20.1367   20.9049 N   0  0  0  0  0  0  0  0  0  0  0  0
  -30.2774  -25.7954   21.7985 N   0  3  0  0  0  0  0  0  0  0  0  0
  -26.2080  -14.2870   16.6480 O   0  0  0  0  0  0  0  0  0  0  0  0
  -22.8859  -29.5305   20.5295 O   0  0  0  0  0  0  0  0  0  0  0  0
  -26.0755  -29.9320   22.4943 O   0  0  0  0  0  0  0  0  0  0  0  0
  -28.3634  -26.6617   19.9269 O   0  0  0  0  0  0  0  0  0  0  0  0
  -30.1673  -20.5513   22.2448 O   0  0  0  0  0  0  0  0  0  0  0  0
  -25.8802   -8.2544   21.5559 O   0  0  0  0  0  0  0  0  0  0  0  0
  -22.6350  -23.2212   18.6228 O   0  0  0  0  0  0  0  0  0  1  0  0
  -24.3221  -21.0851   17.9490 O   0  0  0  0  0  0  0  0  0  0  0  0
  -28.6266  -23.3424   19.0601 O   0  0  0  0  0  0  0  0  0  0  0  0
  -20.5546   -6.9868   20.8962 F   0  0  0  0  0  0  0  0  0  0  0  0
  -24.3043   -7.5774   23.7240 F   0  0  0  0  0  0  0  0  0  0  0  0
  1  2  1  0  0  0  0
  1  6  2  0  0  0  0
  2  7  2  0  0  0  0
  3  9  2  0  0  0  0
  3 17  1  0  0  0  0
  4 10  2  0  0  0  0
  4 18  1  0  0  0  0
  5 11  1  0  0  0  0
  5 18  2  0  0  0  0
  6 20  1  0  0  0  0
  7 22  1  0  0  0  0
  8 12  2  0  0  0  0
  8 21  1  0  0  0  0
  9 24  1  0  0  0  0
 10 25  1  0  0  0  0
 11 25  2  0  0  0  0
 12 26  1  0  0  0  0
 13 14  2  0  0  0  0
 13 27  1  0  0  0  0
 14 28  1  0  0  0  0
 15 23  1  0  0  0  0
 15 26  2  0  0  0  0
 16 28  2  0  0  0  0
 16 29  1  0  0  0  0
 17 64  2  0  0  0  0
 18 30  1  0  0  0  0
 19 30  1  0  0  0  0
 19 32  2  0  0  0  0
 19 33  1  0  0  0  0
 20 22  2  0  0  0  0
 20 38  1  0  0  0  0
 21 23  2  0  0  0  0
 21 39  1  0  0  0  0
 22 47  1  0  0  0  0
 23 40  1  0  0  0  0
 24 31  2  0  0  0  0
 24 71  1  0  0  0  0
 25 81  1  0  0  0  0
 26 82  1  0  0  0  0
 27 29  2  0  0  0  0
 27 81  1  0  0  0  0
 28 85  1  0  0  0  0
 29 86  1  0  0  0  0
 30 65  2  0  0  0  0
 31 64  1  0  0  0  0
 31 83  1  0  0  0  0
 32 66  1  0  0  0  0
 32 69  1  0  0  0  0
 33 70  1  0  0  0  0
 33 76  2  0  0  0  0
 34 48  1  0  0  0  0
 34 72  1  0  0  0  0
 34 77  2  0  0  0  0
 35 60  1  0  0  0  0
 35 67  1  0  0  0  0
 35 78  2  0  0  0  0
 36 61  1  0  0  0  0
 36 73  1  0  0  0  0
 36 79  2  0  0  0  0
 37 68  1  0  0  0  0
 37 74  1  0  0  0  0
 37 80  2  0  0  0  0
 38 41  1  0  0  0  0
 39 48  1  0  0  0  0
 40 67  1  0  0  0  0
 41 43  1  0  0  0  0
 42 44  1  0  0  0  0
 42 45  1  0  0  0  0
 43 47  1  0  0  0  0
 44 49  1  0  0  0  0
 45 68  1  0  0  0  0
 46 49  1  0  0  0  0
 46 68  1  0  0  0  0
 47 72  1  0  0  0  0
 48 67  1  0  0  0  0
 49 66  1  0  0  0  0
 50 61  1  0  0  0  0
 51 63  1  0  0  0  0
 52 63  1  0  0  0  0
 53 63  1  0  0  0  0
 54 75  1  0  0  0  0
 55 84  1  0  0  0  0
 56 62  1  0  0  0  0
 56 71  1  0  0  0  0
 57 62  1  0  0  0  0
 57 74  1  0  0  0  0
 58 59  1  0  0  0  0
 58 82  1  0  0  0  0
 59 83  1  0  0  0  0
 60 63  1  0  0  0  0
 60 73  1  0  0  0  0
 61 75  1  0  0  0  0
 62 84  1  0  0  0  0
 65 66  1  0  0  0  0
M  CHG  1  75   1
M  ISO  4  37 100  58 101  74 100  82 101
M  END
> <Batch ID>
0146

> <Smiles>
CNC(C)C(=O)NC(C(=O)N1Cc2cc([101O:1][101CH2:1]COc3ncccc3NCC(C[100NH:0][100C:0](=O)N3CCCC(n4nc(-c5ccc(Oc6ccc(F)cc6F)cc5)c(C(N)=O)c4N)C3)OC)ccc2CC1C(=O)NC1CCCc2ccccc21)C(C)(C)C

> <Shape>
0.264

> <Color>
0.068

> <Negative vol penalty>
0.000

$$$$

  -OEChem-04052321313D

 85 94  0     1  0  0  0  0  0999 V2000
  -17.5015  -33.2996   25.0459 C   0  0  0  0  0  0  0  0  0  0  0  0
  -18.6400  -32.7907   25.6624 C   0  0  0  0  0  0  0  0  0  0  0  0
  -23.1220   -9.8901   21.4693 C   0  0  0  0  0  0  0  0  0  0  0  0
  -23.8990  -10.7942   23.5707 C   0  0  0  0  0  0  0  0  0  0  0  0
  -16.7911  -32.5143   24.1390 C   0  0  0  0  0  0  0  0  0  0  0  0
  -19.0684  -31.4956   25.3731 C   0  0  0  0  0  0  0  0  0  0  0  0
  -25.0480  -27.5983   24.7642 C   0  0  0  0  0  0  0  0  0  0  0  0
  -22.3804   -8.9294   22.1568 C   0  0  0  0  0  0  0  0  0  0  0  0
  -23.1574   -9.8335   24.2582 C   0  0  0  0  0  0  0  0  0  0  0  0
  -25.6121  -26.4114   25.2298 C   0  0  0  0  0  0  0  0  0  0  0  0
  -22.9561   -5.9896   23.7221 C   0  0  0  0  0  0  0  0  0  0  0  0
  -23.0163   -4.6741   23.2622 C   0  0  0  0  0  0  0  0  0  0  0  0
  -24.3510  -25.1746   23.5869 C   0  0  0  0  0  0  0  0  0  0  0  0
  -20.6291   -4.6949   22.8904 C   0  0  0  0  0  0  0  0  0  0  0  0
  -29.4196  -19.0691   19.9601 C   0  0  0  0  0  0  0  0  0  0  0  0
  -23.8814  -10.8225   22.1762 C   0  0  0  0  0  0  0  0  0  0  0  0
  -24.2214  -13.0973   21.0728 C   0  0  0  0  0  0  0  0  0  0  0  0
  -17.2164  -31.2124   23.8311 C   0  0  0  0  0  0  0  0  0  0  0  0
  -24.1213  -27.5811   23.7119 C   0  0  0  0  0  0  0  0  0  0  0  0
  -18.3623  -30.6916   24.4621 C   0  0  0  0  0  0  0  0  0  0  0  0
  -23.7785  -26.3629   23.1082 C   0  0  0  0  0  0  0  0  0  0  0  0
  -28.9527  -19.5487   22.5848 C   0  0  0  0  0  0  0  0  0  0  0  0
  -30.0100  -18.2353   20.9098 C   0  0  0  0  0  0  0  0  0  0  0  0
  -29.7728  -18.4875   22.2591 C   0  0  0  0  0  0  0  0  0  0  0  0
  -22.3981   -8.9011   23.5512 C   0  0  0  0  0  0  0  0  0  0  0  0
  -25.2615  -25.1990   24.6431 C   0  0  0  0  0  0  0  0  0  0  0  0
  -21.7324   -6.6577   23.7663 C   0  0  0  0  0  0  0  0  0  0  0  0
  -21.8528   -4.0268   22.8463 C   0  0  0  0  0  0  0  0  0  0  0  0
  -20.5690   -6.0104   23.3504 C   0  0  0  0  0  0  0  0  0  0  0  0
  -24.6481  -11.8148   21.4666 C   0  0  0  0  0  0  0  0  0  0  0  0
  -28.4132  -20.3238   21.5649 C   0  0  0  0  0  0  0  0  0  0  0  0
  -25.3105  -13.6413   20.4370 C   0  0  0  0  0  0  0  0  0  0  0  0
  -22.9539  -13.7394   21.2647 C   0  0  0  0  0  0  0  0  0  0  0  0
  -21.0704  -28.4151   23.3960 C   0  0  0  0  0  0  0  0  0  0  0  0
  -21.6132  -27.7370   20.2706 C   0  0  0  0  0  0  0  0  0  0  0  0
  -23.4596  -26.0467   17.9510 C   0  0  0  0  0  0  0  0  0  0  0  0
  -30.7952  -14.6383   20.1720 C   0  0  0  0  0  0  0  0  0  0  0  0
  -16.3892  -30.3843   22.8800 C   0  0  0  0  0  0  0  0  0  0  0  0
  -23.5421  -28.8728   23.2036 C   0  0  0  0  0  0  0  0  0  0  0  0
  -28.5577  -20.0605   23.9294 C   0  0  0  0  0  0  0  0  0  0  0  0
  -22.8038  -26.2925   21.9621 C   0  0  0  0  0  0  0  0  0  0  0  0
  -27.5973  -21.4530   22.1261 C   0  0  0  0  0  0  0  0  0  0  0  0
  -17.1222  -29.1566   22.3454 C   0  0  0  0  0  0  0  0  0  0  0  0
  -29.6406  -11.5116   18.9200 C   0  0  0  0  0  0  0  0  0  0  0  0
  -17.8185  -28.4139   23.4813 C   0  0  0  0  0  0  0  0  0  0  0  0
  -28.2065  -11.4150   19.4435 C   0  0  0  0  0  0  0  0  0  0  0  0
  -30.5666  -12.1834   19.9315 C   0  0  0  0  0  0  0  0  0  0  0  0
  -28.6750  -13.4048   20.9335 C   0  0  0  0  0  0  0  0  0  0  0  0
  -18.8726  -29.3003   24.1556 C   0  0  1  0  0  0  0  0  0  0  0  0
  -22.2196  -28.6855   22.4665 C   0  0  1  0  0  0  0  0  0  0  0  0
  -27.3518  -20.9567   23.5672 C   0  0  2  0  0  0  0  0  0  0  0  0
  -27.6921  -12.7847   19.9256 C   0  0  2  0  0  0  0  0  0  0  0  0
  -30.3810  -17.6398   23.3232 C   0  0  0  0  0  0  0  0  0  0  0  0
  -23.6419  -25.6625   15.4778 C   0  0  0  0  0  0  0  0  0  0  0  0
  -26.9494  -21.5492   25.9643 C   0  0  0  0  0  0  0  0  0  0  0  0
  -19.1972  -25.8768   20.3840 C   0  0  0  0  0  0  0  0  0  0  0  0
  -19.9878  -24.8339   18.2496 C   0  0  0  0  0  0  0  0  0  0  0  0
  -19.3612  -27.2480   18.2989 C   0  0  0  0  0  0  0  0  0  0  0  0
  -26.1930  -27.1777   17.8595 C   0  0  0  0  0  0  0  0  0  0  0  0
  -30.8695  -17.1015   20.4656 C   0  0  0  0  0  0  0  0  0  0  0  0
  -25.9716  -22.9837   24.1491 C   0  0  0  0  0  0  0  0  0  1  0  0
  -21.5056  -26.5011   19.4105 C   0  0  1  0  0  0  0  0  0  0  0  0
  -24.1111  -26.5003   16.6571 C   0  0  2  0  0  0  0  0  0  0  0  0
  -27.1525  -22.0969   24.5532 C   0  0  2  0  0  0  0  0  0  0  0  0
  -20.0299  -26.1157   19.1086 C   0  0  0  0  0  0  0  0  0  0  0  0
  -28.6212  -20.1237   20.2529 N   0  0  0  0  0  0  0  0  0  0  0  0
  -25.9098  -11.5593   21.1105 N   0  0  0  0  0  0  0  0  0  0  0  0
  -26.2853  -12.6886   20.4863 N   0  0  0  0  0  0  0  0  0  0  0  0
  -22.2598  -27.5819   21.5049 N   0  0  0  0  0  0  0  0  0  0  0  0
  -30.0223  -13.4785   20.3468 N   0  0  0  0  0  0  0  0  0  0  0  0
  -25.5199  -14.8369   19.8460 N   0  0  0  0  0  0  0  0  0  0  0  0
  -21.9448  -13.0381   21.9387 N   0  0  0  0  0  0  0  0  0  0  0  0
  -20.0700  -29.3670   23.3454 N   0  0  0  0  0  0  0  0  0  0  0  0
  -22.3108  -26.7597   18.2217 N   0  0  0  0  0  0  0  0  0  0  0  0
  -30.2020  -15.8245   20.5863 N   0  0  0  0  0  0  0  0  0  0  0  0
  -25.5937  -26.3847   16.7554 N   0  3  0  0  0  0  0  0  0  0  0  0
  -22.7176  -14.8945   20.8363 O   0  0  0  0  0  0  0  0  0  0  0  0
  -21.0892  -27.4160   24.1053 O   0  0  0  0  0  0  0  0  0  0  0  0
  -21.1471  -28.8025   19.8592 O   0  0  0  0  0  0  0  0  0  0  0  0
  -23.9213  -25.1472   18.6496 O   0  0  0  0  0  0  0  0  0  0  0  0
  -31.9276  -14.6188   19.6779 O   0  0  0  0  0  0  0  0  0  0  0  0
  -21.6744   -7.9639   24.2224 O   0  0  0  0  0  0  0  0  0  0  0  0
  -25.8101  -24.0389   25.0960 O   0  0  0  0  0  0  0  0  0  1  0  0
  -21.9110   -2.7641   22.4032 F   0  0  0  0  0  0  0  0  0  0  0  0
  -19.3906   -6.6475   23.3894 F   0  0  0  0  0  0  0  0  0  0  0  0
  1  2  1  0  0  0  0
  1  5  2  0  0  0  0
  2  6  2  0  0  0  0
  3  8  2  0  0  0  0
  3 16  1  0  0  0  0
  4  9  1  0  0  0  0
  4 16  2  0  0  0  0
  5 18  1  0  0  0  0
  6 20  1  0  0  0  0
  7 10  2  0  0  0  0
  7 19  1  0  0  0  0
  8 25  1  0  0  0  0
  9 25  2  0  0  0  0
 10 26  1  0  0  0  0
 11 12  2  0  0  0  0
 11 27  1  0  0  0  0
 12 28  1  0  0  0  0
 13 21  1  0  0  0  0
 13 26  2  0  0  0  0
 14 28  2  0  0  0  0
 14 29  1  0  0  0  0
 15 23  1  0  0  0  0
 15 66  2  0  0  0  0
 16 30  1  0  0  0  0
 17 30  1  0  0  0  0
 17 32  2  0  0  0  0
 17 33  1  0  0  0  0
 18 20  2  0  0  0  0
 18 38  1  0  0  0  0
 19 21  2  0  0  0  0
 19 39  1  0  0  0  0
 20 49  1  0  0  0  0
 21 41  1  0  0  0  0
 22 24  1  0  0  0  0
 22 31  2  0  0  0  0
 22 40  1  0  0  0  0
 23 24  2  0  0  0  0
 23 60  1  0  0  0  0
 24 53  1  0  0  0  0
 25 82  1  0  0  0  0
 26 83  1  0  0  0  0
 27 29  2  0  0  0  0
 27 82  1  0  0  0  0
 28 84  1  0  0  0  0
 29 85  1  0  0  0  0
 30 67  2  0  0  0  0
 31 42  1  0  0  0  0
 31 66  1  0  0  0  0
 32 68  1  0  0  0  0
 32 71  1  0  0  0  0
 33 72  1  0  0  0  0
 33 77  2  0  0  0  0
 34 50  1  0  0  0  0
 34 73  1  0  0  0  0
 34 78  2  0  0  0  0
 35 62  1  0  0  0  0
 35 69  1  0  0  0  0
 35 79  2  0  0  0  0
 36 63  1  0  0  0  0
 36 74  1  0  0  0  0
 36 80  2  0  0  0  0
 37 70  1  0  0  0  0
 37 75  1  0  0  0  0
 37 81  2  0  0  0  0
 38 43  1  0  0  0  0
 39 50  1  0  0  0  0
 40 51  1  0  0  0  0
 41 69  1  0  0  0  0
 42 51  1  0  0  0  0
 43 45  1  0  0  0  0
 44 46  1  0  0  0  0
 44 47  1  0  0  0  0
 45 49  1  0  0  0  0
 46 52  1  0  0  0  0
 47 70  1  0  0  0  0
 48 52  1  0  0  0  0
 48 70  1  0  0  0  0
 49 73  1  0  0  0  0
 50 69  1  0  0  0  0
 51 64  1  0  0  0  0
 52 68  1  0  0  0  0
 54 63  1  0  0  0  0
 55 64  1  0  0  0  0
 56 65  1  0  0  0  0
 57 65  1  0  0  0  0
 58 65  1  0  0  0  0
 59 76  1  0  0  0  0
 60 75  1  0  0  0  0
 61 64  1  0  0  0  0
 61 83  1  0  0  0  0
 62 65  1  0  0  0  0
 62 74  1  0  0  0  0
 63 76  1  0  0  0  0
 67 68  1  0  0  0  0
M  CHG  1  76   1
M  ISO  4  37 100  61 101  75 100  83 101
M  END
> <Batch ID>
0146

> <Smiles>
CNC(C)C(=O)NC(C(=O)N1Cc2cc([101O:1][101CH2:1]C(C)C3Cc4ncc(C[100NH:0][100C:0](=O)N5CCCC(n6nc(-c7ccc(Oc8ccc(F)cc8F)cc7)c(C(N)=O)c6N)C5)c(C)c4C3)ccc2CC1C(=O)NC1CCCc2ccccc21)C(C)(C)C

> <Shape>
0.268

> <Color>
0.176

> <Negative vol penalty>
0.000

$$$$

  -OEChem-04052321313D

 84 93  0     1  0  0  0  0  0999 V2000
  -17.4393  -24.3054   22.8206 C   0  0  0  0  0  0  0  0  0  0  0  0
  -18.4057  -24.0450   21.8543 C   0  0  0  0  0  0  0  0  0  0  0  0
  -27.3447  -16.8712   21.2819 C   0  0  0  0  0  0  0  0  0  0  0  0
  -28.9998  -16.5806   19.5460 C   0  0  0  0  0  0  0  0  0  0  0  0
  -17.3580  -25.5707   23.4004 C   0  0  0  0  0  0  0  0  0  0  0  0
  -19.2908  -25.0503   21.4664 C   0  0  0  0  0  0  0  0  0  0  0  0
  -24.0720  -23.4122   21.1471 C   0  0  0  0  0  0  0  0  0  0  0  0
  -26.5606  -15.8744   20.7013 C   0  0  0  0  0  0  0  0  0  0  0  0
  -28.2157  -15.5837   18.9654 C   0  0  0  0  0  0  0  0  0  0  0  0
  -24.4194  -22.6789   20.0134 C   0  0  0  0  0  0  0  0  0  0  0  0
  -26.5065  -12.4953   20.5918 C   0  0  0  0  0  0  0  0  0  0  0  0
  -25.9503  -11.5341   21.4359 C   0  0  0  0  0  0  0  0  0  0  0  0
  -25.4212  -24.6515   19.0519 C   0  0  0  0  0  0  0  0  0  0  0  0
  -23.7366  -12.1908   20.7249 C   0  0  0  0  0  0  0  0  0  0  0  0
  -28.5642  -17.2244   20.7043 C   0  0  0  0  0  0  0  0  0  0  0  0
  -30.3724  -18.0894   22.2822 C   0  0  0  0  0  0  0  0  0  0  0  0
  -18.2488  -26.5892   23.0264 C   0  0  0  0  0  0  0  0  0  0  0  0
  -24.3874  -24.7756   21.2372 C   0  0  0  0  0  0  0  0  0  0  0  0
  -19.2205  -26.3309   22.0408 C   0  0  0  0  0  0  0  0  0  0  0  0
  -25.0790  -25.3993   20.1889 C   0  0  0  0  0  0  0  0  0  0  0  0
  -26.9961  -15.2306   19.5431 C   0  0  0  0  0  0  0  0  0  0  0  0
  -25.0916  -23.2992   18.9643 C   0  0  0  0  0  0  0  0  0  0  0  0
  -25.6777  -13.3043   19.8144 C   0  0  0  0  0  0  0  0  0  0  0  0
  -24.5654  -11.3819   21.5024 C   0  0  0  0  0  0  0  0  0  0  0  0
  -24.2928  -13.1521   19.8809 C   0  0  0  0  0  0  0  0  0  0  0  0
  -29.3743  -18.2545   21.3032 C   0  0  0  0  0  0  0  0  0  0  0  0
  -30.8397  -19.3600   22.5138 C   0  0  0  0  0  0  0  0  0  0  0  0
  -30.8358  -16.8943   22.9247 C   0  0  0  0  0  0  0  0  0  0  0  0
  -28.4167  -21.9417   15.6757 C   0  0  0  0  0  0  0  0  0  0  0  0
  -22.6996  -27.4555   21.5075 C   0  0  0  0  0  0  0  0  0  0  0  0
  -25.6299  -28.8076   21.8345 C   0  0  0  0  0  0  0  0  0  0  0  0
  -28.9864  -28.6266   21.2445 C   0  0  0  0  0  0  0  0  0  0  0  0
  -30.9297  -24.3401   19.1909 C   0  0  0  0  0  0  0  0  0  0  0  0
  -18.0918  -27.9549   23.6469 C   0  0  0  0  0  0  0  0  0  0  0  0
  -24.0293  -25.5462   22.4783 C   0  0  0  0  0  0  0  0  0  0  0  0
  -25.4587  -26.8557   20.2452 C   0  0  0  0  0  0  0  0  0  0  0  0
  -19.3082  -28.8562   23.4514 C   0  0  0  0  0  0  0  0  0  0  0  0
  -29.4522  -23.9376   22.4052 C   0  0  0  0  0  0  0  0  0  0  0  0
  -19.7820  -28.8065   22.0023 C   0  0  0  0  0  0  0  0  0  0  0  0
  -29.3548  -22.4206   22.5756 C   0  0  0  0  0  0  0  0  0  0  0  0
  -30.7855  -20.8226   13.8589 C   0  0  0  0  0  0  0  0  0  0  0  0
  -30.3757  -21.4890   12.5806 C   0  0  0  0  0  0  0  0  0  0  0  0
  -26.3918  -23.5150   15.7636 C   0  0  0  0  0  0  0  0  0  0  0  0
  -29.1963  -24.3608   20.9605 C   0  0  0  0  0  0  0  0  0  0  0  0
  -29.9395  -22.1635   20.1280 C   0  0  0  0  0  0  0  0  0  0  0  0
  -20.2145  -27.3881   21.6116 C   0  0  1  0  0  0  0  0  0  0  0  0
  -26.9947  -22.1513   15.9690 C   0  0  2  0  0  0  0  0  0  0  0  0
  -23.9455  -27.0513   22.2437 C   0  0  1  0  0  0  0  0  0  0  0  0
  -30.2453  -21.6836   21.5572 C   0  0  2  0  0  0  0  0  0  0  0  0
  -26.6048  -22.9951   17.1550 C   0  0  2  0  0  0  0  0  0  1  0  0
  -30.1399  -22.1908   13.9006 C   0  0  0  0  0  0  0  0  0  0  0  0
  -31.4097  -29.2670   21.3656 C   0  0  0  0  0  0  0  0  0  0  0  0
  -24.8652  -30.7119   19.5764 C   0  0  0  0  0  0  0  0  0  0  0  0
  -27.2893  -31.2900   19.3367 C   0  0  0  0  0  0  0  0  0  0  0  0
  -26.0967  -31.7823   21.4717 C   0  0  0  0  0  0  0  0  0  0  0  0
  -29.3960  -27.0610   23.7224 C   0  0  0  0  0  0  0  0  0  0  0  0
  -31.0209  -23.3645   14.2317 C   0  0  0  0  0  0  0  0  0  0  0  0
  -32.6692  -24.1564   17.4304 C   0  0  0  0  0  0  0  0  0  0  0  0
  -32.0338  -24.4122   16.0754 C   0  0  0  0  0  0  0  0  0  0  0  0
  -26.6521  -29.3863   20.8862 C   0  0  1  0  0  0  0  0  0  0  0  0
  -30.1822  -28.8398   22.1551 C   0  0  2  0  0  0  0  0  0  0  0  0
  -26.2171  -30.7657   20.3156 C   0  0  0  0  0  0  0  0  0  0  0  0
  -29.2160  -19.5295   20.9382 N   0  0  0  0  0  0  0  0  0  0  0  0
  -30.1208  -20.1772   21.6918 N   0  0  0  0  0  0  0  0  0  0  0  0
  -25.0810  -27.5680   21.4770 N   0  0  0  0  0  0  0  0  0  0  0  0
  -30.0737  -23.6264   20.0457 N   0  0  0  0  0  0  0  0  0  0  0  0
  -31.7911  -19.8469   23.3385 N   0  0  0  0  0  0  0  0  0  0  0  0
  -30.2471  -15.6732   22.5689 N   0  0  0  0  0  0  0  0  0  0  0  0
  -21.5276  -27.0952   22.1449 N   0  0  0  0  0  0  0  0  0  0  0  0
  -28.7878  -22.3114   14.3970 N   0  0  0  0  0  0  0  0  0  0  0  0
  -27.9159  -29.4127   21.6147 N   0  0  0  0  0  0  0  0  0  0  0  0
  -31.7323  -23.5672   18.3608 N   0  0  0  0  0  0  0  0  0  0  0  0
  -30.5075  -27.5824   22.8858 N   0  3  0  0  0  0  0  0  0  0  0  0
  -31.7335  -16.9109   23.8006 O   0  0  0  0  0  0  0  0  0  0  0  0
  -29.1498  -21.4766   16.5405 O   0  0  0  0  0  0  0  0  0  0  0  0
  -22.7944  -28.0514   20.4410 O   0  0  0  0  0  0  0  0  0  0  0  0
  -25.3348  -29.4291   22.8583 O   0  0  0  0  0  0  0  0  0  0  0  0
  -29.0019  -27.8438   20.2970 O   0  0  0  0  0  0  0  0  0  0  0  0
  -30.9793  -25.5747   19.1730 O   0  0  0  0  0  0  0  0  0  0  0  0
  -26.2315  -14.2576   18.9764 O   0  0  0  0  0  0  0  0  0  0  0  0
  -25.4313  -22.5859   17.8563 O   0  0  0  0  0  0  0  0  0  1  0  0
  -31.5833  -23.1821   15.5258 O   0  0  0  0  0  0  0  0  0  0  0  0
  -24.0315  -10.4577   22.3118 F   0  0  0  0  0  0  0  0  0  0  0  0
  -23.4916  -13.9255   19.1356 F   0  0  0  0  0  0  0  0  0  0  0  0
  1  2  1  0  0  0  0
  1  5  2  0  0  0  0
  2  6  2  0  0  0  0
  3  8  2  0  0  0  0
  3 15  1  0  0  0  0
  4  9  1  0  0  0  0
  4 15  2  0  0  0  0
  5 17  1  0  0  0  0
  6 19  1  0  0  0  0
  7 10  2  0  0  0  0
  7 18  1  0  0  0  0
  8 21  1  0  0  0  0
  9 21  2  0  0  0  0
 10 22  1  0  0  0  0
 11 12  2  0  0  0  0
 11 23  1  0  0  0  0
 12 24  1  0  0  0  0
 13 20  1  0  0  0  0
 13 22  2  0  0  0  0
 14 24  2  0  0  0  0
 14 25  1  0  0  0  0
 15 26  1  0  0  0  0
 16 26  1  0  0  0  0
 16 27  2  0  0  0  0
 16 28  1  0  0  0  0
 17 19  2  0  0  0  0
 17 34  1  0  0  0  0
 18 20  2  0  0  0  0
 18 35  1  0  0  0  0
 19 46  1  0  0  0  0
 20 36  1  0  0  0  0
 21 80  1  0  0  0  0
 22 81  1  0  0  0  0
 23 25  2  0  0  0  0
 23 80  1  0  0  0  0
 24 83  1  0  0  0  0
 25 84  1  0  0  0  0
 26 63  2  0  0  0  0
 27 64  1  0  0  0  0
 27 67  1  0  0  0  0
 28 68  1  0  0  0  0
 28 74  2  0  0  0  0
 29 47  1  0  0  0  0
 29 70  1  0  0  0  0
 29 75  2  0  0  0  0
 30 48  1  0  0  0  0
 30 69  1  0  0  0  0
 30 76  2  0  0  0  0
 31 60  1  0  0  0  0
 31 65  1  0  0  0  0
 31 77  2  0  0  0  0
 32 61  1  0  0  0  0
 32 71  1  0  0  0  0
 32 78  2  0  0  0  0
 33 66  1  0  0  0  0
 33 72  1  0  0  0  0
 33 79  2  0  0  0  0
 34 37  1  0  0  0  0
 35 48  1  0  0  0  0
 36 65  1  0  0  0  0
 37 39  1  0  0  0  0
 38 40  1  0  0  0  0
 38 44  1  0  0  0  0
 39 46  1  0  0  0  0
 40 49  1  0  0  0  0
 41 42  1  0  0  0  0
 41 51  1  0  0  0  0
 42 51  1  0  0  0  0
 43 47  1  0  0  0  0
 43 50  1  0  0  0  0
 44 66  1  0  0  0  0
 45 49  1  0  0  0  0
 45 66  1  0  0  0  0
 46 69  1  0  0  0  0
 47 50  1  0  0  0  0
 48 65  1  0  0  0  0
 49 64  1  0  0  0  0
 50 81  1  0  0  0  0
 51 57  1  0  0  0  0
 51 70  1  0  0  0  0
 52 61  1  0  0  0  0
 53 62  1  0  0  0  0
 54 62  1  0  0  0  0
 55 62  1  0  0  0  0
 56 73  1  0  0  0  0
 57 82  1  0  0  0  0
 58 59  1  0  0  0  0
 58 72  1  0  0  0  0
 59 82  1  0  0  0  0
 60 62  1  0  0  0  0
 60 71  1  0  0  0  0
 61 73  1  0  0  0  0
 63 64  1  0  0  0  0
M  CHG  1  73   1
M  ISO  4  33 100  50 101  72 100  81 101
M  END
> <Batch ID>
0146

> <Smiles>
CNC(C)C(=O)NC(C(=O)N1Cc2cc([101O:1][101CH:1]3CC3C(=O)NC3(COCC[100NH:0][100C:0](=O)N4CCCC(n5nc(-c6ccc(Oc7ccc(F)cc7F)cc6)c(C(N)=O)c5N)C4)CC3)ccc2CC1C(=O)NC1CCCc2ccccc21)C(C)(C)C

> <Shape>
0.230

> <Color>
0.059

> <Negative vol penalty>
0.000

$$$$

  -OEChem-04052321313D

 83 93  0     1  0  0  0  0  0999 V2000
  -16.6251  -25.9422   24.5871 C   0  0  0  0  0  0  0  0  0  0  0  0
  -17.7846  -25.5566   23.9220 C   0  0  0  0  0  0  0  0  0  0  0  0
  -24.4696  -10.6161   23.3303 C   0  0  0  0  0  0  0  0  0  0  0  0
  -24.2982  -12.4349   24.9113 C   0  0  0  0  0  0  0  0  0  0  0  0
  -16.2697  -27.2893   24.6422 C   0  0  0  0  0  0  0  0  0  0  0  0
  -18.5888  -26.5178   23.3107 C   0  0  0  0  0  0  0  0  0  0  0  0
  -23.5144  -25.8144   24.2531 C   0  0  0  0  0  0  0  0  0  0  0  0
  -24.0013   -9.7293   24.2997 C   0  0  0  0  0  0  0  0  0  0  0  0
  -23.8298  -11.5481   25.8807 C   0  0  0  0  0  0  0  0  0  0  0  0
  -24.1657  -24.8182   23.5271 C   0  0  0  0  0  0  0  0  0  0  0  0
  -21.0271   -8.8650   25.6563 C   0  0  0  0  0  0  0  0  0  0  0  0
  -20.0496   -7.9456   25.2758 C   0  0  0  0  0  0  0  0  0  0  0  0
  -25.0673  -26.4954   22.0461 C   0  0  0  0  0  0  0  0  0  0  0  0
  -21.5277   -6.1287   25.8686 C   0  0  0  0  0  0  0  0  0  0  0  0
  -25.8689  -21.5499   19.9613 C   0  0  0  0  0  0  0  0  0  0  0  0
  -24.6181  -11.9689   23.6361 C   0  0  0  0  0  0  0  0  0  0  0  0
  -24.3343  -13.6175   21.7101 C   0  0  0  0  0  0  0  0  0  0  0  0
  -17.0750  -28.2685   24.0395 C   0  0  0  0  0  0  0  0  0  0  0  0
  -23.6261  -27.1599   23.8739 C   0  0  0  0  0  0  0  0  0  0  0  0
  -18.2431  -27.8791   23.3566 C   0  0  0  0  0  0  0  0  0  0  0  0
  -24.4186  -27.5071   22.7705 C   0  0  0  0  0  0  0  0  0  0  0  0
  -27.4562  -21.2829   21.5830 C   0  0  0  0  0  0  0  0  0  0  0  0
  -26.2132  -21.9100   21.2553 C   0  0  0  0  0  0  0  0  0  0  0  0
  -23.6814  -10.1953   25.5749 C   0  0  0  0  0  0  0  0  0  0  0  0
  -24.9400  -25.1583   22.4216 C   0  0  0  0  0  0  0  0  0  0  0  0
  -22.2550   -8.4162   26.1430 C   0  0  0  0  0  0  0  0  0  0  0  0
  -20.2998   -6.5775   25.3820 C   0  0  0  0  0  0  0  0  0  0  0  0
  -22.5052   -7.0481   26.2491 C   0  0  0  0  0  0  0  0  0  0  0  0
  -25.1024  -12.8854   22.6353 C   0  0  0  0  0  0  0  0  0  0  0  0
  -27.8195  -20.5619   20.4760 C   0  0  0  0  0  0  0  0  0  0  0  0
  -25.2574  -14.3335   20.9878 C   0  0  0  0  0  0  0  0  0  0  0  0
  -22.9134  -13.6477   21.5207 C   0  0  0  0  0  0  0  0  0  0  0  0
  -21.5827  -29.3957   22.9097 C   0  0  0  0  0  0  0  0  0  0  0  0
  -24.1939  -31.3111   23.0976 C   0  0  0  0  0  0  0  0  0  0  0  0
  -27.5956  -31.5836   23.0648 C   0  0  0  0  0  0  0  0  0  0  0  0
  -29.8361  -17.5143   20.7381 C   0  0  0  0  0  0  0  0  0  0  0  0
  -16.6250  -29.7073   24.0850 C   0  0  0  0  0  0  0  0  0  0  0  0
  -22.9390  -28.2251   24.6836 C   0  0  0  0  0  0  0  0  0  0  0  0
  -24.5872  -28.9388   22.3343 C   0  0  0  0  0  0  0  0  0  0  0  0
  -17.7281  -30.7019   23.7327 C   0  0  0  0  0  0  0  0  0  0  0  0
  -30.3012  -13.9856   20.8286 C   0  0  0  0  0  0  0  0  0  0  0  0
  -28.6078  -22.7678   23.4108 C   0  0  0  0  0  0  0  0  0  0  0  0
  -29.6682  -21.8632   22.8654 C   0  0  0  0  0  0  0  0  0  0  0  0
  -18.4736  -30.2509   22.4807 C   0  0  0  0  0  0  0  0  0  0  0  0
  -28.9291  -13.4461   21.2363 C   0  0  0  0  0  0  0  0  0  0  0  0
  -28.6129  -19.6673   18.4514 C   0  0  0  0  0  0  0  0  0  0  0  0
  -27.1244  -20.0314   18.2913 C   0  0  0  0  0  0  0  0  0  0  0  0
  -30.6213  -15.3029   21.5315 C   0  0  0  0  0  0  0  0  0  0  0  0
  -28.2235  -15.8122   21.7863 C   0  0  0  0  0  0  0  0  0  0  0  0
  -28.2230  -21.3927   22.8899 C   0  0  0  0  0  0  0  0  0  0  0  0
  -19.1544  -28.8948   22.7024 C   0  0  1  0  0  0  0  0  0  0  0  0
  -28.8971  -19.6821   19.9778 C   0  0  2  0  0  0  0  0  0  0  0  0
  -22.7061  -29.5136   23.9007 C   0  0  1  0  0  0  0  0  0  0  0  0
  -27.8322  -14.5135   21.0607 C   0  0  2  0  0  0  0  0  0  0  0  0
  -29.4371  -33.2829   23.2013 C   0  0  0  0  0  0  0  0  0  0  0  0
  -23.6350  -32.1446   20.2162 C   0  0  0  0  0  0  0  0  0  0  0  0
  -25.9635  -33.0573   20.1020 C   0  0  0  0  0  0  0  0  0  0  0  0
  -24.3294  -34.0130   21.7265 C   0  0  0  0  0  0  0  0  0  0  0  0
  -28.7015  -30.3585   25.5215 C   0  0  0  0  0  0  0  0  0  0  0  0
  -25.4123  -22.8084   22.1513 C   0  0  0  0  0  0  0  0  0  1  0  0
  -25.2947  -31.7143   22.1465 C   0  0  1  0  0  0  0  0  0  0  0  0
  -28.5560  -32.3196   23.9814 C   0  0  2  0  0  0  0  0  0  0  0  0
  -24.8011  -32.7050   21.0546 C   0  0  0  0  0  0  0  0  0  0  0  0
  -26.4125  -13.1151   22.5138 N   0  0  0  0  0  0  0  0  0  0  0  0
  -26.8548  -20.7397   19.5277 N   0  0  0  0  0  0  0  0  0  0  0  0
  -26.4749  -13.9994   21.5038 N   0  0  0  0  0  0  0  0  0  0  0  0
  -23.8904  -29.9435   23.1544 N   0  0  0  0  0  0  0  0  0  0  0  0
  -29.5426  -16.2722   21.3246 N   0  0  0  0  0  0  0  0  0  0  0  0
  -25.1383  -15.2098   19.9678 N   0  0  0  0  0  0  0  0  0  0  0  0
  -22.1118  -12.8508   22.3494 N   0  0  0  0  0  0  0  0  0  0  0  0
  -20.3675  -29.0585   23.4744 N   0  0  0  0  0  0  0  0  0  0  0  0
  -26.3806  -32.2291   22.9737 N   0  0  0  0  0  0  0  0  0  0  0  0
  -28.7553  -18.3717   20.5722 N   0  0  0  0  0  0  0  0  0  0  0  0
  -29.4356  -31.3513   24.6953 N   0  3  0  0  0  0  0  0  0  0  0  0
  -22.3719  -14.3477   20.6317 O   0  0  0  0  0  0  0  0  0  0  0  0
  -21.8020  -29.5972   21.7210 O   0  0  0  0  0  0  0  0  0  0  0  0
  -23.6292  -32.1769   23.7709 O   0  0  0  0  0  0  0  0  0  0  0  0
  -27.8946  -30.5422   22.4846 O   0  0  0  0  0  0  0  0  0  0  0  0
  -30.9760  -17.8334   20.3833 O   0  0  0  0  0  0  0  0  0  0  0  0
  -23.2241   -9.3302   26.5211 O   0  0  0  0  0  0  0  0  0  0  0  0
  -25.5762  -24.1879   21.7108 O   0  0  0  0  0  0  0  0  0  1  0  0
  -19.3605   -5.6948   25.0180 F   0  0  0  0  0  0  0  0  0  0  0  0
  -23.6824   -6.6110   26.7170 F   0  0  0  0  0  0  0  0  0  0  0  0
  1  2  1  0  0  0  0
  1  5  2  0  0  0  0
  2  6  2  0  0  0  0
  3  8  2  0  0  0  0
  3 16  1  0  0  0  0
  4  9  1  0  0  0  0
  4 16  2  0  0  0  0
  5 18  1  0  0  0  0
  6 20  1  0  0  0  0
  7 10  2  0  0  0  0
  7 19  1  0  0  0  0
  8 24  1  0  0  0  0
  9 24  2  0  0  0  0
 10 25  1  0  0  0  0
 11 12  2  0  0  0  0
 11 26  1  0  0  0  0
 12 27  1  0  0  0  0
 13 21  1  0  0  0  0
 13 25  2  0  0  0  0
 14 27  2  0  0  0  0
 14 28  1  0  0  0  0
 15 23  2  0  0  0  0
 15 65  1  0  0  0  0
 16 29  1  0  0  0  0
 17 29  1  0  0  0  0
 17 31  2  0  0  0  0
 17 32  1  0  0  0  0
 18 20  2  0  0  0  0
 18 37  1  0  0  0  0
 19 21  2  0  0  0  0
 19 38  1  0  0  0  0
 20 51  1  0  0  0  0
 21 39  1  0  0  0  0
 22 23  1  0  0  0  0
 22 30  2  0  0  0  0
 22 50  1  0  0  0  0
 23 60  1  0  0  0  0
 24 80  1  0  0  0  0
 25 81  1  0  0  0  0
 26 28  2  0  0  0  0
 26 80  1  0  0  0  0
 27 82  1  0  0  0  0
 28 83  1  0  0  0  0
 29 64  2  0  0  0  0
 30 52  1  0  0  0  0
 30 65  1  0  0  0  0
 31 66  1  0  0  0  0
 31 69  1  0  0  0  0
 32 70  1  0  0  0  0
 32 75  2  0  0  0  0
 33 53  1  0  0  0  0
 33 71  1  0  0  0  0
 33 76  2  0  0  0  0
 34 61  1  0  0  0  0
 34 67  1  0  0  0  0
 34 77  2  0  0  0  0
 35 62  1  0  0  0  0
 35 72  1  0  0  0  0
 35 78  2  0  0  0  0
 36 68  1  0  0  0  0
 36 73  1  0  0  0  0
 36 79  2  0  0  0  0
 37 40  1  0  0  0  0
 38 53  1  0  0  0  0
 39 67  1  0  0  0  0
 40 44  1  0  0  0  0
 41 45  1  0  0  0  0
 41 48  1  0  0  0  0
 42 43  1  0  0  0  0
 42 50  1  0  0  0  0
 43 50  1  0  0  0  0
 44 51  1  0  0  0  0
 45 54  1  0  0  0  0
 46 47  1  0  0  0  0
 46 52  1  0  0  0  0
 47 65  1  0  0  0  0
 48 68  1  0  0  0  0
 49 54  1  0  0  0  0
 49 68  1  0  0  0  0
 51 71  1  0  0  0  0
 52 73  1  0  0  0  0
 53 67  1  0  0  0  0
 54 66  1  0  0  0  0
 55 62  1  0  0  0  0
 56 63  1  0  0  0  0
 57 63  1  0  0  0  0
 58 63  1  0  0  0  0
 59 74  1  0  0  0  0
 60 81  1  0  0  0  0
 61 63  1  0  0  0  0
 61 72  1  0  0  0  0
 62 74  1  0  0  0  0
 64 66  1  0  0  0  0
M  CHG  1  74   1
M  ISO  4  36 100  60 101  73 100  81 101
M  END
> <Batch ID>
0146

> <Smiles>
CNC(C)C(=O)NC(C(=O)N1Cc2cc([101O:1][101CH2:1]c3cn4c(c3C3CC3)C([100NH:0][100C:0](=O)N3CCCC(n5nc(-c6ccc(Oc7ccc(F)cc7F)cc6)c(C(N)=O)c5N)C3)CC4)ccc2CC1C(=O)NC1CCCc2ccccc21)C(C)(C)C

> <Shape>
0.237

> <Color>
0.124

> <Negative vol penalty>
0.000

$$$$

  -OEChem-04052321313D

 85 94  0     1  0  0  0  0  0999 V2000
  -16.7892  -28.2861   23.4066 C   0  0  0  0  0  0  0  0  0  0  0  0
  -17.5177  -28.0752   22.2403 C   0  0  0  0  0  0  0  0  0  0  0  0
  -26.7335  -11.7481   21.6165 C   0  0  0  0  0  0  0  0  0  0  0  0
  -26.4053  -12.1165   19.2514 C   0  0  0  0  0  0  0  0  0  0  0  0
  -17.2045  -29.2530   24.3213 C   0  0  0  0  0  0  0  0  0  0  0  0
  -18.6613  -28.8319   21.9875 C   0  0  0  0  0  0  0  0  0  0  0  0
  -27.2831  -20.0458   14.7608 C   0  0  0  0  0  0  0  0  0  0  0  0
  -27.0495  -21.9926   16.1723 C   0  0  0  0  0  0  0  0  0  0  0  0
  -22.5246  -26.0155   20.3178 C   0  0  0  0  0  0  0  0  0  0  0  0
  -27.8607  -19.3466   15.8206 C   0  0  0  0  0  0  0  0  0  0  0  0
  -27.6271  -21.2934   17.2321 C   0  0  0  0  0  0  0  0  0  0  0  0
  -25.6123  -10.9188   21.6429 C   0  0  0  0  0  0  0  0  0  0  0  0
  -25.2841  -11.2871   19.2778 C   0  0  0  0  0  0  0  0  0  0  0  0
  -22.4961  -25.6247   18.9797 C   0  0  0  0  0  0  0  0  0  0  0  0
  -24.8476   -7.7360   20.7956 C   0  0  0  0  0  0  0  0  0  0  0  0
  -24.9517   -6.5270   21.4834 C   0  0  0  0  0  0  0  0  0  0  0  0
  -24.0371  -27.3990   18.4351 C   0  0  0  0  0  0  0  0  0  0  0  0
  -23.1526   -7.2047   22.9467 C   0  0  0  0  0  0  0  0  0  0  0  0
  -27.1300  -12.3470   20.4207 C   0  0  0  0  0  0  0  0  0  0  0  0
  -29.6211  -12.8243   20.1484 C   0  0  0  0  0  0  0  0  0  0  0  0
  -26.8776  -21.3688   14.9366 C   0  0  0  0  0  0  0  0  0  0  0  0
  -18.3592  -30.0152   24.0841 C   0  0  0  0  0  0  0  0  0  0  0  0
  -23.3024  -27.1095   20.7234 C   0  0  0  0  0  0  0  0  0  0  0  0
  -19.0917  -29.8109   22.8992 C   0  0  0  0  0  0  0  0  0  0  0  0
  -24.0757  -27.8000   19.7792 C   0  0  0  0  0  0  0  0  0  0  0  0
  -28.0327  -19.9704   17.0563 C   0  0  0  0  0  0  0  0  0  0  0  0
  -24.8876  -10.6883   20.4736 C   0  0  0  0  0  0  0  0  0  0  0  0
  -23.2501  -26.3183   18.0377 C   0  0  0  0  0  0  0  0  0  0  0  0
  -23.8961   -8.6794   21.1834 C   0  0  0  0  0  0  0  0  0  0  0  0
  -24.1041   -6.2614   22.5590 C   0  0  0  0  0  0  0  0  0  0  0  0
  -23.0486   -8.4138   22.2589 C   0  0  0  0  0  0  0  0  0  0  0  0
  -28.2878  -13.2042   20.3929 C   0  0  0  0  0  0  0  0  0  0  0  0
  -30.3327  -13.9962   20.2314 C   0  0  0  0  0  0  0  0  0  0  0  0
  -30.1675  -11.5281   19.8712 C   0  0  0  0  0  0  0  0  0  0  0  0
  -22.6853  -29.9322   22.0483 C   0  0  0  0  0  0  0  0  0  0  0  0
  -25.9198  -30.1426   22.1750 C   0  0  0  0  0  0  0  0  0  0  0  0
  -24.5282  -25.1599   14.8482 C   0  0  0  0  0  0  0  0  0  0  0  0
  -28.9386  -29.1518   20.9293 C   0  0  0  0  0  0  0  0  0  0  0  0
  -28.8621  -19.7310   19.4229 C   0  0  0  0  0  0  0  0  0  0  0  0
  -18.7422  -31.0816   25.0795 C   0  0  0  0  0  0  0  0  0  0  0  0
  -23.3431  -27.5017   22.1749 C   0  0  0  0  0  0  0  0  0  0  0  0
  -24.9431  -28.9687   20.1667 C   0  0  0  0  0  0  0  0  0  0  0  0
  -20.1752  -31.5816   24.9154 C   0  0  0  0  0  0  0  0  0  0  0  0
  -30.2521  -18.2834   22.3639 C   0  0  0  0  0  0  0  0  0  0  0  0
  -20.4762  -31.8671   23.4476 C   0  0  0  0  0  0  0  0  0  0  0  0
  -30.0329  -16.7816   22.1672 C   0  0  0  0  0  0  0  0  0  0  0  0
  -27.0039  -22.2049   12.4933 C   0  0  0  0  0  0  0  0  0  0  0  0
  -29.0849  -19.1033   21.8170 C   0  0  0  0  0  0  0  0  0  0  0  0
  -28.5043  -17.3140   20.2262 C   0  0  0  0  0  0  0  0  0  0  0  0
  -26.2637  -22.1121   13.8100 C   0  0  2  0  0  0  0  0  0  0  0  0
  -20.3515  -30.5945   22.6011 C   0  0  1  0  0  0  0  0  0  0  0  0
  -23.7700  -28.9504   22.3906 C   0  0  1  0  0  0  0  0  0  0  0  0
  -26.8824  -23.4203   13.3635 C   0  0  2  0  0  0  0  0  0  0  0  0
  -29.6834  -16.4501   20.7031 C   0  0  2  0  0  0  0  0  0  0  0  0
  -31.4042  -29.5251   21.2107 C   0  0  0  0  0  0  0  0  0  0  0  0
  -25.6775  -32.8179   20.7280 C   0  0  0  0  0  0  0  0  0  0  0  0
  -28.1210  -32.6754   20.2017 C   0  0  0  0  0  0  0  0  0  0  0  0
  -27.3623  -32.7802   22.5758 C   0  0  0  0  0  0  0  0  0  0  0  0
  -29.4058  -26.3147   21.6305 C   0  0  0  0  0  0  0  0  0  0  0  0
  -24.4016  -26.1777   15.9615 C   0  0  0  0  0  0  0  0  0  1  0  0
  -26.0119  -24.5563   12.9457 C   0  0  0  0  0  0  0  0  0  0  0  0
  -26.9946  -30.6594   21.2495 C   0  0  1  0  0  0  0  0  0  0  0  0
  -30.2068  -28.6805   21.6179 C   0  0  2  0  0  0  0  0  0  0  0  0
  -27.0211  -32.2125   21.1808 C   0  0  0  0  0  0  0  0  0  0  0  0
  -28.1575  -14.5149   20.6146 N   0  0  0  0  0  0  0  0  0  0  0  0
  -29.4181  -14.9688   20.5099 N   0  0  0  0  0  0  0  0  0  0  0  0
  -24.9444  -29.3178   21.5970 N   0  0  0  0  0  0  0  0  0  0  0  0
  -28.8140  -18.7386   20.4247 N   0  0  0  0  0  0  0  0  0  0  0  0
  -31.6454  -14.2792   20.0925 N   0  0  0  0  0  0  0  0  0  0  0  0
  -29.2955  -10.4320   19.8222 N   0  0  0  0  0  0  0  0  0  0  0  0
  -28.6196  -19.2604   18.1329 N   0  0  0  0  0  0  0  0  0  0  0  0
  -21.5203  -29.7581   22.7708 N   0  0  0  0  0  0  0  0  0  0  0  0
  -25.6568  -25.3837   14.0754 N   0  0  0  0  0  0  0  0  0  0  0  0
  -28.2455  -30.0598   21.7015 N   0  0  0  0  0  0  0  0  0  0  0  0
  -30.4910  -27.2609   21.2646 N   0  3  0  0  0  0  0  0  0  0  0  0
  -31.3950  -11.3447   19.6889 O   0  0  0  0  0  0  0  0  0  0  0  0
  -22.8906  -30.7854   21.1930 O   0  0  0  0  0  0  0  0  0  0  0  0
  -25.9487  -30.4533   23.3685 O   0  0  0  0  0  0  0  0  0  0  0  0
  -23.7123  -24.2583   14.6763 O   0  0  0  0  0  0  0  0  0  0  0  0
  -28.5989  -28.7570   19.8161 O   0  0  0  0  0  0  0  0  0  0  0  0
  -29.1276  -20.9067   19.6864 O   0  0  0  0  0  0  0  0  0  0  0  0
  -23.7936   -9.8789   20.4990 O   0  0  0  0  0  0  0  0  0  0  0  0
  -23.2236  -25.9394   16.7309 O   0  0  0  0  0  0  0  0  0  1  0  0
  -24.2031   -5.0997   23.2184 F   0  0  0  0  0  0  0  0  0  0  0  0
  -22.1318   -9.3157   22.6353 F   0  0  0  0  0  0  0  0  0  0  0  0
  1  2  1  0  0  0  0
  1  5  2  0  0  0  0
  2  6  2  0  0  0  0
  3 12  2  0  0  0  0
  3 19  1  0  0  0  0
  4 13  1  0  0  0  0
  4 19  2  0  0  0  0
  5 22  1  0  0  0  0
  6 24  1  0  0  0  0
  7 10  2  0  0  0  0
  7 21  1  0  0  0  0
  8 11  1  0  0  0  0
  8 21  2  0  0  0  0
  9 14  2  0  0  0  0
  9 23  1  0  0  0  0
 10 26  1  0  0  0  0
 11 26  2  0  0  0  0
 12 27  1  0  0  0  0
 13 27  2  0  0  0  0
 14 28  1  0  0  0  0
 15 16  2  0  0  0  0
 15 29  1  0  0  0  0
 16 30  1  0  0  0  0
 17 25  1  0  0  0  0
 17 28  2  0  0  0  0
 18 30  2  0  0  0  0
 18 31  1  0  0  0  0
 19 32  1  0  0  0  0
 20 32  1  0  0  0  0
 20 33  2  0  0  0  0
 20 34  1  0  0  0  0
 21 50  1  0  0  0  0
 22 24  2  0  0  0  0
 22 40  1  0  0  0  0
 23 25  2  0  0  0  0
 23 41  1  0  0  0  0
 24 51  1  0  0  0  0
 25 42  1  0  0  0  0
 26 71  1  0  0  0  0
 27 82  1  0  0  0  0
 28 83  1  0  0  0  0
 29 31  2  0  0  0  0
 29 82  1  0  0  0  0
 30 84  1  0  0  0  0
 31 85  1  0  0  0  0
 32 65  2  0  0  0  0
 33 66  1  0  0  0  0
 33 69  1  0  0  0  0
 34 70  1  0  0  0  0
 34 76  2  0  0  0  0
 35 52  1  0  0  0  0
 35 72  1  0  0  0  0
 35 77  2  0  0  0  0
 36 62  1  0  0  0  0
 36 67  1  0  0  0  0
 36 78  2  0  0  0  0
 37 60  1  0  0  0  0
 37 73  1  0  0  0  0
 37 79  2  0  0  0  0
 38 63  1  0  0  0  0
 38 74  1  0  0  0  0
 38 80  2  0  0  0  0
 39 68  1  0  0  0  0
 39 71  1  0  0  0  0
 39 81  2  0  0  0  0
 40 43  1  0  0  0  0
 41 52  1  0  0  0  0
 42 67  1  0  0  0  0
 43 45  1  0  0  0  0
 44 46  1  0  0  0  0
 44 48  1  0  0  0  0
 45 51  1  0  0  0  0
 46 54  1  0  0  0  0
 47 50  1  0  0  0  0
 47 53  1  0  0  0  0
 48 68  1  0  0  0  0
 49 54  1  0  0  0  0
 49 68  1  0  0  0  0
 50 53  1  0  0  0  0
 51 72  1  0  0  0  0
 52 67  1  0  0  0  0
 53 61  1  0  0  0  0
 54 66  1  0  0  0  0
 55 63  1  0  0  0  0
 56 64  1  0  0  0  0
 57 64  1  0  0  0  0
 58 64  1  0  0  0  0
 59 75  1  0  0  0  0
 60 83  1  0  0  0  0
 61 73  1  0  0  0  0
 62 64  1  0  0  0  0
 62 74  1  0  0  0  0
 63 75  1  0  0  0  0
 65 66  1  0  0  0  0
M  CHG  1  75   1
M  ISO  4  39 100  60 101  71 100  83 101
M  END
> <Batch ID>
0146

> <Smiles>
CNC(C)C(=O)NC(C(=O)N1Cc2cc([101O:1][101CH2:1]C(=O)NCC3CC3c3ccc([100NH:0][100C:0](=O)N4CCCC(n5nc(-c6ccc(Oc7ccc(F)cc7F)cc6)c(C(N)=O)c5N)C4)cc3)ccc2CC1C(=O)NC1CCCc2ccccc21)C(C)(C)C

> <Shape>
0.281

> <Color>
0.065

> <Negative vol penalty>
0.000

$$$$

  -OEChem-04052321313D

 86 95  0     1  0  0  0  0  0999 V2000
  -30.0551  -32.3236   27.0267 C   0  0  0  0  0  0  0  0  0  0  0  0
  -30.0741  -30.9568   27.2856 C   0  0  0  0  0  0  0  0  0  0  0  0
  -23.0973   -9.9183   21.2866 C   0  0  0  0  0  0  0  0  0  0  0  0
  -23.8369  -10.6773   23.4578 C   0  0  0  0  0  0  0  0  0  0  0  0
  -29.2846  -32.8225   25.9773 C   0  0  0  0  0  0  0  0  0  0  0  0
  -29.3218  -30.0882   26.4957 C   0  0  0  0  0  0  0  0  0  0  0  0
  -32.5152  -19.5839   21.8810 C   0  0  0  0  0  0  0  0  0  0  0  0
  -31.9122  -25.9507   25.1484 C   0  0  0  0  0  0  0  0  0  0  0  0
  -33.3924  -20.6416   22.1205 C   0  0  0  0  0  0  0  0  0  0  0  0
  -22.3462   -8.9122   21.8942 C   0  0  0  0  0  0  0  0  0  0  0  0
  -23.0858   -9.6712   24.0654 C   0  0  0  0  0  0  0  0  0  0  0  0
  -32.0521  -24.9471   26.1061 C   0  0  0  0  0  0  0  0  0  0  0  0
  -22.9013   -5.8727   23.2645 C   0  0  0  0  0  0  0  0  0  0  0  0
  -22.9719   -4.5919   22.7169 C   0  0  0  0  0  0  0  0  0  0  0  0
  -32.3745  -19.1628   24.2558 C   0  0  0  0  0  0  0  0  0  0  0  0
  -30.2596  -23.7128   25.0656 C   0  0  0  0  0  0  0  0  0  0  0  0
  -20.5913   -4.6359   22.3069 C   0  0  0  0  0  0  0  0  0  0  0  0
  -23.8427  -10.8008   22.0684 C   0  0  0  0  0  0  0  0  0  0  0  0
  -24.1967  -13.1460   21.1289 C   0  0  0  0  0  0  0  0  0  0  0  0
  -32.0062  -18.8445   22.9486 C   0  0  0  0  0  0  0  0  0  0  0  0
  -28.5300  -31.9585   25.1681 C   0  0  0  0  0  0  0  0  0  0  0  0
  -30.9361  -25.8478   24.1469 C   0  0  0  0  0  0  0  0  0  0  0  0
  -28.5394  -30.5762   25.4353 C   0  0  0  0  0  0  0  0  0  0  0  0
  -30.1111  -24.7152   24.0949 C   0  0  0  0  0  0  0  0  0  0  0  0
  -33.7607  -20.9599   23.4277 C   0  0  0  0  0  0  0  0  0  0  0  0
  -22.3404   -8.7886   23.2835 C   0  0  0  0  0  0  0  0  0  0  0  0
  -31.2238  -23.8293   26.0665 C   0  0  0  0  0  0  0  0  0  0  0  0
  -21.6757   -6.5352   23.3335 C   0  0  0  0  0  0  0  0  0  0  0  0
  -33.2517  -20.2204   24.4954 C   0  0  0  0  0  0  0  0  0  0  0  0
  -21.8169   -3.9734   22.2380 C   0  0  0  0  0  0  0  0  0  0  0  0
  -20.5207   -5.9168   22.8546 C   0  0  0  0  0  0  0  0  0  0  0  0
  -24.6193  -11.8400   21.4413 C   0  0  0  0  0  0  0  0  0  0  0  0
  -25.2953  -13.7332   20.5504 C   0  0  0  0  0  0  0  0  0  0  0  0
  -22.9249  -13.7724   21.3427 C   0  0  0  0  0  0  0  0  0  0  0  0
  -28.3826  -27.5507   23.3200 C   0  0  0  0  0  0  0  0  0  0  0  0
  -28.3044  -25.4918   20.8145 C   0  0  0  0  0  0  0  0  0  0  0  0
  -29.1501  -22.4385   19.5461 C   0  0  0  0  0  0  0  0  0  0  0  0
  -30.7841  -14.7163   20.4831 C   0  0  0  0  0  0  0  0  0  0  0  0
  -27.6754  -32.5494   24.0748 C   0  0  0  0  0  0  0  0  0  0  0  0
  -30.8158  -26.9263   23.1054 C   0  0  0  0  0  0  0  0  0  0  0  0
  -29.0612  -24.5472   23.0282 C   0  0  0  0  0  0  0  0  0  0  0  0
  -27.2010  -31.5222   23.0502 C   0  0  0  0  0  0  0  0  0  0  0  0
  -29.6401  -11.7527   18.9367 C   0  0  0  0  0  0  0  0  0  0  0  0
  -26.6633  -30.2784   23.7508 C   0  0  0  0  0  0  0  0  0  0  0  0
  -28.2100  -11.5911   19.4446 C   0  0  0  0  0  0  0  0  0  0  0  0
  -31.1141  -16.5119   23.6645 C   0  0  0  0  0  0  0  0  0  0  0  0
  -30.5448  -12.2996   20.0326 C   0  0  0  0  0  0  0  0  0  0  0  0
  -30.3735  -15.4129   22.9143 C   0  0  0  0  0  0  0  0  0  0  0  0
  -31.2631  -16.9884   21.3431 C   0  0  0  0  0  0  0  0  0  0  0  0
  -28.6422  -13.4883   21.0897 C   0  0  0  0  0  0  0  0  0  0  0  0
  -31.0543  -17.6980   22.6883 C   0  0  2  0  0  0  0  0  0  0  0  0
  -27.7561  -29.5994   24.5852 C   0  0  1  0  0  0  0  0  0  0  0  0
  -29.4451  -26.9607   22.4364 C   0  0  1  0  0  0  0  0  0  0  0  0
  -27.6873  -12.9156   20.0220 C   0  0  2  0  0  0  0  0  0  0  0  0
  -34.7018  -22.0942   23.6651 C   0  0  0  0  0  0  0  0  0  0  0  0
  -29.4017  -20.6135   17.8422 C   0  0  0  0  0  0  0  0  0  0  0  0
  -25.4041  -24.8986   21.5540 C   0  0  0  0  0  0  0  0  0  0  0  0
  -25.5282  -22.8542   20.1141 C   0  0  0  0  0  0  0  0  0  0  0  0
  -25.8320  -25.1127   19.0993 C   0  0  0  0  0  0  0  0  0  0  0  0
  -31.7778  -23.4709   18.6582 C   0  0  0  0  0  0  0  0  0  0  0  0
  -32.8291  -21.1910   27.9627 C   0  0  0  0  0  0  0  0  0  0  0  0
  -32.6585  -22.6437   27.5470 C   0  0  0  0  0  0  0  0  0  1  0  0
  -32.6381  -20.2384   26.7930 C   0  0  0  0  0  0  0  0  0  0  0  0
  -27.6633  -24.1504   20.5527 C   0  0  1  0  0  0  0  0  0  0  0  0
  -29.7798  -22.0359   18.2248 C   0  0  2  0  0  0  0  0  0  0  0  0
  -26.1253  -24.2577   20.3514 C   0  0  0  0  0  0  0  0  0  0  0  0
  -25.8873  -11.6105   21.0901 N   0  0  0  0  0  0  0  0  0  0  0  0
  -26.2710  -12.7802   20.5510 N   0  0  0  0  0  0  0  0  0  0  0  0
  -28.9781  -25.6318   22.0361 N   0  0  0  0  0  0  0  0  0  0  0  0
  -30.0242  -13.5467   20.5959 N   0  0  0  0  0  0  0  0  0  0  0  0
  -30.6902  -15.6564   21.5085 N   0  0  0  0  0  0  0  0  0  0  0  0
  -25.5122  -14.9665   20.0461 N   0  0  0  0  0  0  0  0  0  0  0  0
  -21.9060  -13.0257   21.9500 N   0  0  0  0  0  0  0  0  0  0  0  0
  -28.6471  -28.8430   23.7317 N   0  0  0  0  0  0  0  0  0  0  0  0
  -28.3755  -23.5720   19.4184 N   0  0  0  0  0  0  0  0  0  0  0  0
  -31.2651  -22.1202   18.3119 N   0  3  0  0  0  0  0  0  0  0  0  0
  -22.6935  -14.9538   20.9904 O   0  0  0  0  0  0  0  0  0  0  0  0
  -27.3953  -26.8834   23.6057 O   0  0  0  0  0  0  0  0  0  0  0  0
  -28.2168  -26.3803   19.9633 O   0  0  0  0  0  0  0  0  0  0  0  0
  -29.3247  -21.8082   20.5867 O   0  0  0  0  0  0  0  0  0  0  0  0
  -31.5483  -14.8964   19.5253 O   0  0  0  0  0  0  0  0  0  0  0  0
  -21.6073   -7.8071   23.8768 O   0  0  0  0  0  0  0  0  0  0  0  0
  -31.3588  -22.8415   27.0071 O   0  0  0  0  0  0  0  0  0  1  0  0
  -33.6003  -20.5187   25.7783 O   0  0  0  0  0  0  0  0  0  0  0  0
  -21.8851   -2.7440   21.7107 F   0  0  0  0  0  0  0  0  0  0  0  0
  -19.3406   -6.5487   22.9171 F   0  0  0  0  0  0  0  0  0  0  0  0
  1  2  1  0  0  0  0
  1  5  2  0  0  0  0
  2  6  2  0  0  0  0
  3 10  2  0  0  0  0
  3 18  1  0  0  0  0
  4 11  1  0  0  0  0
  4 18  2  0  0  0  0
  5 21  1  0  0  0  0
  6 23  1  0  0  0  0
  7  9  2  0  0  0  0
  7 20  1  0  0  0  0
  8 12  2  0  0  0  0
  8 22  1  0  0  0  0
  9 25  1  0  0  0  0
 10 26  1  0  0  0  0
 11 26  2  0  0  0  0
 12 27  1  0  0  0  0
 13 14  2  0  0  0  0
 13 28  1  0  0  0  0
 14 30  1  0  0  0  0
 15 20  2  0  0  0  0
 15 29  1  0  0  0  0
 16 24  1  0  0  0  0
 16 27  2  0  0  0  0
 17 30  2  0  0  0  0
 17 31  1  0  0  0  0
 18 32  1  0  0  0  0
 19 32  1  0  0  0  0
 19 33  2  0  0  0  0
 19 34  1  0  0  0  0
 20 51  1  0  0  0  0
 21 23  2  0  0  0  0
 21 39  1  0  0  0  0
 22 24  2  0  0  0  0
 22 40  1  0  0  0  0
 23 52  1  0  0  0  0
 24 41  1  0  0  0  0
 25 29  2  0  0  0  0
 25 55  1  0  0  0  0
 26 82  1  0  0  0  0
 27 83  1  0  0  0  0
 28 31  2  0  0  0  0
 28 82  1  0  0  0  0
 29 84  1  0  0  0  0
 30 85  1  0  0  0  0
 31 86  1  0  0  0  0
 32 67  2  0  0  0  0
 33 68  1  0  0  0  0
 33 72  1  0  0  0  0
 34 73  1  0  0  0  0
 34 77  2  0  0  0  0
 35 53  1  0  0  0  0
 35 74  1  0  0  0  0
 35 78  2  0  0  0  0
 36 64  1  0  0  0  0
 36 69  1  0  0  0  0
 36 79  2  0  0  0  0
 37 65  1  0  0  0  0
 37 75  1  0  0  0  0
 37 80  2  0  0  0  0
 38 70  1  0  0  0  0
 38 71  1  0  0  0  0
 38 81  2  0  0  0  0
 39 42  1  0  0  0  0
 40 53  1  0  0  0  0
 41 69  1  0  0  0  0
 42 44  1  0  0  0  0
 43 45  1  0  0  0  0
 43 47  1  0  0  0  0
 44 52  1  0  0  0  0
 45 54  1  0  0  0  0
 46 48  1  0  0  0  0
 46 51  1  0  0  0  0
 47 70  1  0  0  0  0
 48 71  1  0  0  0  0
 49 51  1  0  0  0  0
 49 71  1  0  0  0  0
 50 54  1  0  0  0  0
 50 70  1  0  0  0  0
 52 74  1  0  0  0  0
 53 69  1  0  0  0  0
 54 68  1  0  0  0  0
 56 65  1  0  0  0  0
 57 66  1  0  0  0  0
 58 66  1  0  0  0  0
 59 66  1  0  0  0  0
 60 76  1  0  0  0  0
 61 62  1  0  0  0  0
 61 63  1  0  0  0  0
 62 83  1  0  0  0  0
 63 84  1  0  0  0  0
 64 66  1  0  0  0  0
 64 75  1  0  0  0  0
 65 76  1  0  0  0  0
 67 68  1  0  0  0  0
M  CHG  1  76   1
M  ISO  4  38 100  62 101  71 100  83 101
M  END
> <Batch ID>
0146

> <Smiles>
CNC(C)C(=O)NC(C(=O)N1Cc2cc([101O:1][101CH2:1]CCOc3cc(C4CC[100N:0]([100C:0](=O)N5CCCC(n6nc(-c7ccc(Oc8ccc(F)cc8F)cc7)c(C(N)=O)c6N)C5)C4)ccc3C)ccc2CC1C(=O)NC1CCCc2ccccc21)C(C)(C)C

> <Shape>
0.244

> <Color>
0.170

> <Negative vol penalty>
0.000

$$$$

  -OEChem-04052321313D

 87 96  0     1  0  0  0  0  0999 V2000
  -27.5568  -35.1223   14.7129 C   0  0  0  0  0  0  0  0  0  0  0  0
  -27.6721  -33.7749   15.0397 C   0  0  0  0  0  0  0  0  0  0  0  0
  -22.9085   -9.6366   19.9843 C   0  0  0  0  0  0  0  0  0  0  0  0
  -24.4040   -9.2532   21.8426 C   0  0  0  0  0  0  0  0  0  0  0  0
  -27.5951  -36.0879   15.7180 C   0  0  0  0  0  0  0  0  0  0  0  0
  -27.8269  -33.3925   16.3717 C   0  0  0  0  0  0  0  0  0  0  0  0
  -25.6097  -28.3421   19.0332 C   0  0  0  0  0  0  0  0  0  0  0  0
  -22.3054   -8.4001   20.2144 C   0  0  0  0  0  0  0  0  0  0  0  0
  -23.8009   -8.0167   22.0728 C   0  0  0  0  0  0  0  0  0  0  0  0
  -26.1867  -27.1084   19.3311 C   0  0  0  0  0  0  0  0  0  0  0  0
  -20.9789   -6.8553   23.5248 C   0  0  0  0  0  0  0  0  0  0  0  0
  -20.6665   -6.5238   24.8431 C   0  0  0  0  0  0  0  0  0  0  0  0
  -26.6433  -27.8703   21.5740 C   0  0  0  0  0  0  0  0  0  0  0  0
  -29.3077  -23.3735   20.5613 C   0  0  0  0  0  0  0  0  0  0  0  0
  -27.1310  -22.3318   20.6788 C   0  0  0  0  0  0  0  0  0  0  0  0
  -22.1032   -4.5869   24.6965 C   0  0  0  0  0  0  0  0  0  0  0  0
  -23.9578  -10.0631   20.7984 C   0  0  0  0  0  0  0  0  0  0  0  0
  -23.9653  -12.6055   20.5887 C   0  0  0  0  0  0  0  0  0  0  0  0
  -27.7407  -35.7165   17.0639 C   0  0  0  0  0  0  0  0  0  0  0  0
  -25.5549  -29.3547   20.0018 C   0  0  0  0  0  0  0  0  0  0  0  0
  -27.8685  -34.3541   17.3955 C   0  0  0  0  0  0  0  0  0  0  0  0
  -26.0628  -29.1151   21.2866 C   0  0  0  0  0  0  0  0  0  0  0  0
  -29.0978  -21.0993   21.3494 C   0  0  0  0  0  0  0  0  0  0  0  0
  -27.9266  -23.4371   20.3769 C   0  0  0  0  0  0  0  0  0  0  0  0
  -29.8934  -22.2046   21.0475 C   0  0  0  0  0  0  0  0  0  0  0  0
  -27.7167  -21.1629   21.1651 C   0  0  0  0  0  0  0  0  0  0  0  0
  -22.7516   -7.5901   21.2587 C   0  0  0  0  0  0  0  0  0  0  0  0
  -26.7062  -26.8733   20.6008 C   0  0  0  0  0  0  0  0  0  0  0  0
  -21.8535   -6.0527   22.7922 C   0  0  0  0  0  0  0  0  0  0  0  0
  -21.2287   -5.3896   25.4290 C   0  0  0  0  0  0  0  0  0  0  0  0
  -22.4156   -4.9185   23.3781 C   0  0  0  0  0  0  0  0  0  0  0  0
  -24.5815  -11.3401   20.5608 C   0  0  0  0  0  0  0  0  0  0  0  0
  -24.9783  -13.4872   20.3005 C   0  0  0  0  0  0  0  0  0  0  0  0
  -22.5993  -12.9529   20.8516 C   0  0  0  0  0  0  0  0  0  0  0  0
  -26.7499  -32.2898   20.2486 C   0  0  0  0  0  0  0  0  0  0  0  0
  -24.9474  -32.3765   22.9441 C   0  0  0  0  0  0  0  0  0  0  0  0
  -23.3841  -30.6532   25.4408 C   0  0  0  0  0  0  0  0  0  0  0  0
  -30.2220  -15.2691   20.9891 C   0  0  0  0  0  0  0  0  0  0  0  0
  -27.8241  -36.7990   18.1107 C   0  0  0  0  0  0  0  0  0  0  0  0
  -24.9052  -30.6708   19.6728 C   0  0  0  0  0  0  0  0  0  0  0  0
  -26.0103  -30.1620   22.3681 C   0  0  0  0  0  0  0  0  0  0  0  0
  -27.6147  -36.2876   19.5337 C   0  0  0  0  0  0  0  0  0  0  0  0
  -29.6785  -12.6667   18.6208 C   0  0  0  0  0  0  0  0  0  0  0  0
  -28.4408  -35.0282   19.7754 C   0  0  0  0  0  0  0  0  0  0  0  0
  -28.2562  -12.1902   18.9209 C   0  0  0  0  0  0  0  0  0  0  0  0
  -29.2859  -19.4825   23.3162 C   0  0  0  0  0  0  0  0  0  0  0  0
  -30.4241  -13.0556   19.8955 C   0  0  0  0  0  0  0  0  0  0  0  0
  -28.3041  -13.5617   21.0459 C   0  0  0  0  0  0  0  0  0  0  0  0
  -29.7348  -19.8287   21.8785 C   0  0  1  0  0  0  0  0  0  0  0  0
  -28.0129  -33.8982   18.8313 C   0  0  1  0  0  0  0  0  0  0  0  0
  -25.3658  -31.8078   20.5796 C   0  0  1  0  0  0  0  0  0  0  0  0
  -29.1760  -17.9497   23.3899 C   0  0  1  0  0  0  0  0  0  0  0  0
  -27.4936  -13.2114   19.7862 C   0  0  2  0  0  0  0  0  0  0  0  0
  -29.8638  -17.4497   22.1185 C   0  0  2  0  0  0  0  0  0  0  0  0
  -29.5021  -18.5249   21.0958 C   0  0  2  0  0  0  0  0  0  0  0  0
  -31.3746  -22.1628   21.2370 C   0  0  0  0  0  0  0  0  0  0  0  0
  -26.8426  -19.9932   21.4809 C   0  0  0  0  0  0  0  0  0  0  0  0
  -29.7744  -17.3770   24.6665 C   0  0  0  0  0  0  0  0  0  0  0  0
  -22.0239  -30.9997   27.5209 C   0  0  0  0  0  0  0  0  0  0  0  0
  -27.4697  -33.1931   24.4545 C   0  0  0  0  0  0  0  0  0  0  0  0
  -26.2999  -32.6017   26.5876 C   0  0  0  0  0  0  0  0  0  0  0  0
  -25.4011  -34.4216   25.1374 C   0  0  0  0  0  0  0  0  0  0  0  0
  -21.0780  -29.1764   24.3183 C   0  0  0  0  0  0  0  0  0  0  0  0
  -27.2967  -24.6942   19.8533 C   0  0  0  0  0  0  0  0  0  1  0  0
  -25.1725  -32.0163   24.3928 C   0  0  1  0  0  0  0  0  0  0  0  0
  -21.9849  -30.7652   26.0188 C   0  0  2  0  0  0  0  0  0  0  0  0
  -26.0887  -33.0389   25.1223 C   0  0  0  0  0  0  0  0  0  0  0  0
  -25.8850  -11.4075   20.2771 N   0  0  0  0  0  0  0  0  0  0  0  0
  -26.0961  -12.7259   20.1241 N   0  0  0  0  0  0  0  0  0  0  0  0
  -25.3708  -31.4348   21.9956 N   0  0  0  0  0  0  0  0  0  0  0  0
  -29.6481  -14.0274   20.6697 N   0  0  0  0  0  0  0  0  0  0  0  0
  -25.0130  -14.8316   20.1833 N   0  0  0  0  0  0  0  0  0  0  0  0
  -22.2190  -13.2131   22.1752 N   0  0  0  0  0  0  0  0  0  0  0  0
  -26.7846  -33.2896   19.2955 N   0  0  0  0  0  0  0  0  0  0  0  0
  -23.8484  -31.8699   24.9875 N   0  0  0  0  0  0  0  0  0  0  0  0
  -29.4163  -16.1339   21.7197 N   0  0  0  0  0  0  0  0  0  0  0  0
  -21.2152  -29.5161   25.7580 N   0  3  0  0  0  0  0  0  0  0  0  0
  -21.7378  -13.0143   19.9419 O   0  0  0  0  0  0  0  0  0  0  0  0
  -27.7149  -31.7924   20.8171 O   0  0  0  0  0  0  0  0  0  0  0  0
  -24.4092  -33.4507   22.6647 O   0  0  0  0  0  0  0  0  0  0  0  0
  -24.0047  -29.5932   25.3991 O   0  0  0  0  0  0  0  0  0  0  0  0
  -31.3655  -15.5857   20.6440 O   0  0  0  0  0  0  0  0  0  0  0  0
  -30.3611  -18.4648   19.9693 O   0  0  0  0  0  0  0  0  0  0  0  0
  -22.1632   -6.3836   21.4837 O   0  0  0  0  0  0  0  0  0  0  0  0
  -27.2705  -25.6702   20.8940 O   0  0  0  0  0  0  0  0  0  1  0  0
  -20.9298   -5.0722   26.6955 F   0  0  0  0  0  0  0  0  0  0  0  0
  -23.2573   -4.1441   22.6797 F   0  0  0  0  0  0  0  0  0  0  0  0
  1  2  1  0  0  0  0
  1  5  2  0  0  0  0
  2  6  2  0  0  0  0
  3  8  2  0  0  0  0
  3 17  1  0  0  0  0
  4  9  1  0  0  0  0
  4 17  2  0  0  0  0
  5 19  1  0  0  0  0
  6 21  1  0  0  0  0
  7 10  2  0  0  0  0
  7 20  1  0  0  0  0
  8 27  1  0  0  0  0
  9 27  2  0  0  0  0
 10 28  1  0  0  0  0
 11 12  2  0  0  0  0
 11 29  1  0  0  0  0
 12 30  1  0  0  0  0
 13 22  1  0  0  0  0
 13 28  2  0  0  0  0
 14 24  1  0  0  0  0
 14 25  2  0  0  0  0
 15 24  2  0  0  0  0
 15 26  1  0  0  0  0
 16 30  2  0  0  0  0
 16 31  1  0  0  0  0
 17 32  1  0  0  0  0
 18 32  1  0  0  0  0
 18 33  2  0  0  0  0
 18 34  1  0  0  0  0
 19 21  2  0  0  0  0
 19 39  1  0  0  0  0
 20 22  2  0  0  0  0
 20 40  1  0  0  0  0
 21 50  1  0  0  0  0
 22 41  1  0  0  0  0
 23 25  1  0  0  0  0
 23 26  2  0  0  0  0
 23 49  1  0  0  0  0
 24 64  1  0  0  0  0
 25 56  1  0  0  0  0
 26 57  1  0  0  0  0
 27 84  1  0  0  0  0
 28 85  1  0  0  0  0
 29 31  2  0  0  0  0
 29 84  1  0  0  0  0
 30 86  1  0  0  0  0
 31 87  1  0  0  0  0
 32 68  2  0  0  0  0
 33 69  1  0  0  0  0
 33 72  1  0  0  0  0
 34 73  1  0  0  0  0
 34 78  2  0  0  0  0
 35 51  1  0  0  0  0
 35 74  1  0  0  0  0
 35 79  2  0  0  0  0
 36 65  1  0  0  0  0
 36 70  1  0  0  0  0
 36 80  2  0  0  0  0
 37 66  1  0  0  0  0
 37 75  1  0  0  0  0
 37 81  2  0  0  0  0
 38 71  1  0  0  0  0
 38 76  1  0  0  0  0
 38 82  2  0  0  0  0
 39 42  1  0  0  0  0
 40 51  1  0  0  0  0
 41 70  1  0  0  0  0
 42 44  1  0  0  0  0
 43 45  1  0  0  0  0
 43 47  1  0  0  0  0
 44 50  1  0  0  0  0
 45 53  1  0  0  0  0
 46 49  1  0  0  0  0
 46 52  1  0  0  0  0
 47 71  1  0  0  0  0
 48 53  1  0  0  0  0
 48 71  1  0  0  0  0
 49 55  1  0  0  0  0
 50 74  1  0  0  0  0
 51 70  1  0  0  0  0
 52 54  1  0  0  0  0
 52 58  1  0  0  0  0
 53 69  1  0  0  0  0
 54 55  1  0  0  0  0
 54 76  1  0  0  0  0
 55 83  1  0  0  0  0
 59 66  1  0  0  0  0
 60 67  1  0  0  0  0
 61 67  1  0  0  0  0
 62 67  1  0  0  0  0
 63 77  1  0  0  0  0
 64 85  1  0  0  0  0
 65 67  1  0  0  0  0
 65 75  1  0  0  0  0
 66 77  1  0  0  0  0
 68 69  1  0  0  0  0
M  CHG  1  77   1
M  ISO  4  38 100  64 101  76 100  85 101
M  END
> <Batch ID>
0146

> <Smiles>
CNC(C)C(=O)NC(C(=O)N1Cc2cc([101O:1][101CH2:1]c3cc(C)c(C4CC(C)C([100NH:0][100C:0](=O)N5CCCC(n6nc(-c7ccc(Oc8ccc(F)cc8F)cc7)c(C(N)=O)c6N)C5)C4O)c(C)c3)ccc2CC1C(=O)NC1CCCc2ccccc21)C(C)(C)C

> <Shape>
0.349

> <Color>
0.189

> <Negative vol penalty>
0.000

$$$$

  -OEChem-04052321313D

 90 99  0     1  0  0  0  0  0999 V2000
  -17.9274  -33.2930   17.5436 C   0  0  0  0  0  0  0  0  0  0  0  0
  -19.2182  -33.1033   17.0607 C   0  0  0  0  0  0  0  0  0  0  0  0
  -26.0156  -10.1286   21.5558 C   0  0  0  0  0  0  0  0  0  0  0  0
  -25.0732  -10.5136   23.7468 C   0  0  0  0  0  0  0  0  0  0  0  0
  -17.7304  -33.6953   18.8639 C   0  0  0  0  0  0  0  0  0  0  0  0
  -20.3129  -33.3168   17.8976 C   0  0  0  0  0  0  0  0  0  0  0  0
  -25.0379  -28.0476   19.2400 C   0  0  0  0  0  0  0  0  0  0  0  0
  -24.9251   -9.3228   21.2283 C   0  0  0  0  0  0  0  0  0  0  0  0
  -23.9827   -9.7079   23.4193 C   0  0  0  0  0  0  0  0  0  0  0  0
  -26.1003  -27.1541   19.3783 C   0  0  0  0  0  0  0  0  0  0  0  0
  -23.2998   -6.4030   23.2133 C   0  0  0  0  0  0  0  0  0  0  0  0
  -22.8784   -5.4675   24.1582 C   0  0  0  0  0  0  0  0  0  0  0  0
  -27.2126  -28.6918   20.8770 C   0  0  0  0  0  0  0  0  0  0  0  0
  -30.2522  -20.6727   19.4970 C   0  0  0  0  0  0  0  0  0  0  0  0
  -28.3261  -20.1792   20.8694 C   0  0  0  0  0  0  0  0  0  0  0  0
  -20.7067   -6.5235   24.2352 C   0  0  0  0  0  0  0  0  0  0  0  0
  -26.0897  -10.7240   22.8151 C   0  0  0  0  0  0  0  0  0  0  0  0
  -28.5722  -11.1793   23.1856 C   0  0  0  0  0  0  0  0  0  0  0  0
  -18.8229  -33.9045   19.7202 C   0  0  0  0  0  0  0  0  0  0  0  0
  -25.0517  -29.2615   19.9327 C   0  0  0  0  0  0  0  0  0  0  0  0
  -20.1304  -33.7235   19.2303 C   0  0  0  0  0  0  0  0  0  0  0  0
  -26.1454  -29.5854   20.7522 C   0  0  0  0  0  0  0  0  0  0  0  0
  -30.5990  -19.3216   19.4979 C   0  0  0  0  0  0  0  0  0  0  0  0
  -28.6727  -18.8281   20.8702 C   0  0  0  0  0  0  0  0  0  0  0  0
  -29.1158  -21.1015   20.1828 C   0  0  0  0  0  0  0  0  0  0  0  0
  -23.9087   -9.1125   22.1601 C   0  0  0  0  0  0  0  0  0  0  0  0
  -27.1850  -27.4755   20.1945 C   0  0  0  0  0  0  0  0  0  0  0  0
  -22.4247   -7.3989   22.7795 C   0  0  0  0  0  0  0  0  0  0  0  0
  -29.8092  -18.3993   20.1844 C   0  0  0  0  0  0  0  0  0  0  0  0
  -21.5818   -5.5277   24.6691 C   0  0  0  0  0  0  0  0  0  0  0  0
  -21.1282   -7.4591   23.2904 C   0  0  0  0  0  0  0  0  0  0  0  0
  -27.2161  -11.5559   23.1541 C   0  0  0  0  0  0  0  0  0  0  0  0
  -29.2368  -12.3204   23.5632 C   0  0  0  0  0  0  0  0  0  0  0  0
  -29.1770   -9.9113   22.8990 C   0  0  0  0  0  0  0  0  0  0  0  0
  -23.2773  -32.4745   20.7100 C   0  0  0  0  0  0  0  0  0  0  0  0
  -27.8075  -18.1383   23.0928 C   0  0  0  0  0  0  0  0  0  0  0  0
  -24.5236  -31.4876   23.3336 C   0  0  0  0  0  0  0  0  0  0  0  0
  -25.6935  -29.8454   26.0853 C   0  0  0  0  0  0  0  0  0  0  0  0
  -18.5618  -34.3847   21.1259 C   0  0  0  0  0  0  0  0  0  0  0  0
  -23.9578  -30.2809   19.7655 C   0  0  0  0  0  0  0  0  0  0  0  0
  -26.1334  -30.9175   21.4511 C   0  0  0  0  0  0  0  0  0  0  0  0
  -19.7619  -34.2270   22.0561 C   0  0  0  0  0  0  0  0  0  0  0  0
  -28.6586  -16.3425   26.0745 C   0  0  0  0  0  0  0  0  0  0  0  0
  -21.0322  -34.7315   21.3789 C   0  0  0  0  0  0  0  0  0  0  0  0
  -28.4809  -14.8783   25.6748 C   0  0  0  0  0  0  0  0  0  0  0  0
  -28.6880  -24.6363   19.0339 C   0  0  0  0  0  0  0  0  0  0  0  0
  -28.2794  -24.4867   21.4952 C   0  0  0  0  0  0  0  0  0  0  0  0
  -27.6309  -17.2372   25.3887 C   0  0  0  0  0  0  0  0  0  0  0  0
  -28.4909  -23.1282   18.9069 C   0  0  0  0  0  0  0  0  0  0  0  0
  -28.0771  -22.9798   21.3702 C   0  0  0  0  0  0  0  0  0  0  0  0
  -27.4408  -15.6536   23.4972 C   0  0  0  0  0  0  0  0  0  0  0  0
  -21.3424  -33.9210   20.1146 C   0  0  1  0  0  0  0  0  0  0  0  0
  -23.6623  -31.0661   21.0560 C   0  0  1  0  0  0  0  0  0  0  0  0
  -28.4788  -14.7195   24.1441 C   0  0  2  0  0  0  0  0  0  0  0  0
  -27.9074  -25.2134   20.2079 C   0  0  0  0  0  0  0  0  0  1  0  0
  -31.8200  -18.8819   18.7593 C   0  0  0  0  0  0  0  0  0  0  0  0
  -26.3691  -17.8121   21.1004 C   0  0  0  0  0  0  0  0  0  0  0  0
  -25.8919  -30.0699   28.5768 C   0  0  0  0  0  0  0  0  0  0  0  0
  -26.8106  -33.4726   22.9689 C   0  0  0  0  0  0  0  0  0  0  0  0
  -27.5588  -32.9294   25.2956 C   0  0  0  0  0  0  0  0  0  0  0  0
  -25.3147  -33.9501   24.9153 C   0  0  0  0  0  0  0  0  0  0  0  0
  -24.0607  -27.4212   26.5501 C   0  0  0  0  0  0  0  0  0  0  0  0
  -32.0997  -13.5157   19.6037 C   0  0  0  0  0  0  0  0  0  0  0  0
  -31.0071  -16.6302   21.2290 C   0  0  0  0  0  0  0  0  0  0  0  0
  -31.2449  -15.1408   21.0704 C   0  0  0  0  0  0  0  0  0  0  0  0
  -27.8150  -17.8562   21.6115 C   0  0  1  0  0  0  0  0  0  0  0  0
  -25.7040  -31.5367   24.2704 C   0  0  1  0  0  0  0  0  0  0  0  0
  -25.0501  -29.5408   27.4261 C   0  0  2  0  0  0  0  0  0  0  0  0
  -26.3444  -32.9517   24.3430 C   0  0  0  0  0  0  0  0  0  0  0  0
  -27.0288  -12.8362   23.4855 N   0  0  0  0  0  0  0  0  0  0  0  0
  -28.2759  -13.2739   23.7289 N   0  0  0  0  0  0  0  0  0  0  0  0
  -28.7683  -22.4584   20.1825 N   0  0  0  0  0  0  0  0  0  0  0  0
  -24.7925  -31.1887   21.9924 N   0  0  0  0  0  0  0  0  0  0  0  0
  -27.6446  -17.0405   23.9381 N   0  0  0  0  0  0  0  0  0  0  0  0
  -30.5437  -12.5911   23.7665 N   0  0  0  0  0  0  0  0  0  0  0  0
  -28.3480   -8.8448   22.5253 N   0  0  0  0  0  0  0  0  0  0  0  0
  -21.9283  -32.6446   20.4636 N   0  0  0  0  0  0  0  0  0  0  0  0
  -25.2286  -31.0294   25.5530 N   0  0  0  0  0  0  0  0  0  0  0  0
  -24.8876  -28.0697   27.6002 N   0  3  0  0  0  0  0  0  0  0  0  0
  -30.4143   -9.7251   22.9879 O   0  0  0  0  0  0  0  0  0  0  0  0
  -24.1397  -33.3442   20.6706 O   0  0  0  0  0  0  0  0  0  0  0  0
  -27.9453  -19.2998   23.4852 O   0  0  0  0  0  0  0  0  0  0  0  0
  -23.3933  -31.7132   23.7751 O   0  0  0  0  0  0  0  0  0  0  0  0
  -26.5280  -29.1088   25.5642 O   0  0  0  0  0  0  0  0  0  0  0  0
  -22.8443   -8.3265   21.8408 O   0  0  0  0  0  0  0  0  0  0  0  0
  -28.2167  -26.5967   20.3286 O   0  0  0  0  0  0  0  0  0  1  0  0
  -30.1471  -17.0778   20.1840 O   0  0  0  0  0  0  0  0  0  0  0  0
  -31.8335  -14.8977   19.7985 O   0  0  0  0  0  0  0  0  0  0  0  0
  -21.1768   -4.6283   25.5753 F   0  0  0  0  0  0  0  0  0  0  0  0
  -20.2826   -8.4128   22.8765 F   0  0  0  0  0  0  0  0  0  0  0  0
  1  2  1  0  0  0  0
  1  5  2  0  0  0  0
  2  6  2  0  0  0  0
  3  8  2  0  0  0  0
  3 17  1  0  0  0  0
  4  9  1  0  0  0  0
  4 17  2  0  0  0  0
  5 19  1  0  0  0  0
  6 21  1  0  0  0  0
  7 10  2  0  0  0  0
  7 20  1  0  0  0  0
  8 26  1  0  0  0  0
  9 26  2  0  0  0  0
 10 27  1  0  0  0  0
 11 12  2  0  0  0  0
 11 28  1  0  0  0  0
 12 30  1  0  0  0  0
 13 22  1  0  0  0  0
 13 27  2  0  0  0  0
 14 23  2  0  0  0  0
 14 25  1  0  0  0  0
 15 24  1  0  0  0  0
 15 25  2  0  0  0  0
 16 30  2  0  0  0  0
 16 31  1  0  0  0  0
 17 32  1  0  0  0  0
 18 32  1  0  0  0  0
 18 33  2  0  0  0  0
 18 34  1  0  0  0  0
 19 21  2  0  0  0  0
 19 39  1  0  0  0  0
 20 22  2  0  0  0  0
 20 40  1  0  0  0  0
 21 52  1  0  0  0  0
 22 41  1  0  0  0  0
 23 29  1  0  0  0  0
 23 56  1  0  0  0  0
 24 29  2  0  0  0  0
 24 66  1  0  0  0  0
 25 72  1  0  0  0  0
 26 85  1  0  0  0  0
 27 86  1  0  0  0  0
 28 31  2  0  0  0  0
 28 85  1  0  0  0  0
 29 87  1  0  0  0  0
 30 89  1  0  0  0  0
 31 90  1  0  0  0  0
 32 70  2  0  0  0  0
 33 71  1  0  0  0  0
 33 75  1  0  0  0  0
 34 76  1  0  0  0  0
 34 80  2  0  0  0  0
 35 53  1  0  0  0  0
 35 77  1  0  0  0  0
 35 81  2  0  0  0  0
 36 66  1  0  0  0  0
 36 74  1  0  0  0  0
 36 82  2  0  0  0  0
 37 67  1  0  0  0  0
 37 73  1  0  0  0  0
 37 83  2  0  0  0  0
 38 68  1  0  0  0  0
 38 78  1  0  0  0  0
 38 84  2  0  0  0  0
 39 42  1  0  0  0  0
 40 53  1  0  0  0  0
 41 73  1  0  0  0  0
 42 44  1  0  0  0  0
 43 45  1  0  0  0  0
 43 48  1  0  0  0  0
 44 52  1  0  0  0  0
 45 54  1  0  0  0  0
 46 49  1  0  0  0  0
 46 55  1  0  0  0  0
 47 50  1  0  0  0  0
 47 55  1  0  0  0  0
 48 74  1  0  0  0  0
 49 72  1  0  0  0  0
 50 72  1  0  0  0  0
 51 54  1  0  0  0  0
 51 74  1  0  0  0  0
 52 77  1  0  0  0  0
 53 73  1  0  0  0  0
 54 71  1  0  0  0  0
 55 86  1  0  0  0  0
 57 66  1  0  0  0  0
 58 68  1  0  0  0  0
 59 69  1  0  0  0  0
 60 69  1  0  0  0  0
 61 69  1  0  0  0  0
 62 79  1  0  0  0  0
 63 88  1  0  0  0  0
 64 65  1  0  0  0  0
 64 87  1  0  0  0  0
 65 88  1  0  0  0  0
 67 69  1  0  0  0  0
 67 78  1  0  0  0  0
 68 79  1  0  0  0  0
 70 71  1  0  0  0  0
M  CHG  1  79   1
M  ISO  4  36 100  55 101  66 100  86 101
M  END
> <Batch ID>
0146

> <Smiles>
CNC(C)C(=O)NC(C(=O)N1Cc2cc([101O:1][101CH:1]3CCN(c4cc(C)c(OCCOC)c([100CH:0](C)[100C:0](=O)N5CCCC(n6nc(-c7ccc(Oc8ccc(F)cc8F)cc7)c(C(N)=O)c6N)C5)c4)CC3)ccc2CC1C(=O)NC1CCCc2ccccc21)C(C)(C)C

> <Shape>
0.257

> <Color>
0.102

> <Negative vol penalty>
0.000

$$$$

  -OEChem-04052321313D

 87 96  0     1  0  0  0  0  0999 V2000
  -20.7612   -9.4662   24.2239 C   0  0  0  0  0  0  0  0  0  0  0  0
  -21.8717  -10.2144   24.6013 C   0  0  0  0  0  0  0  0  0  0  0  0
  -26.2220  -28.1477   18.9426 C   0  0  0  0  0  0  0  0  0  0  0  0
  -26.7662  -28.3267   21.2897 C   0  0  0  0  0  0  0  0  0  0  0  0
  -20.7100   -8.8873   22.9566 C   0  0  0  0  0  0  0  0  0  0  0  0
  -22.9323  -10.3832   23.7118 C   0  0  0  0  0  0  0  0  0  0  0  0
  -24.5881  -15.1661   23.5481 C   0  0  0  0  0  0  0  0  0  0  0  0
  -25.0309  -28.8383   19.1660 C   0  0  0  0  0  0  0  0  0  0  0  0
  -25.5751  -29.0174   21.5131 C   0  0  0  0  0  0  0  0  0  0  0  0
  -25.4062  -15.5928   24.5932 C   0  0  0  0  0  0  0  0  0  0  0  0
  -22.8487  -31.1432   22.6384 C   0  0  0  0  0  0  0  0  0  0  0  0
  -22.9003  -32.2843   23.4388 C   0  0  0  0  0  0  0  0  0  0  0  0
  -27.3477  -15.2630   23.2000 C   0  0  0  0  0  0  0  0  0  0  0  0
  -31.8395  -21.8691   27.4717 C   0  0  0  0  0  0  0  0  0  0  0  0
  -31.2924  -20.0641   28.9640 C   0  0  0  0  0  0  0  0  0  0  0  0
  -24.4509  -33.3008   21.8898 C   0  0  0  0  0  0  0  0  0  0  0  0
  -27.0896  -27.8918   20.0044 C   0  0  0  0  0  0  0  0  0  0  0  0
  -29.5725  -27.7278   19.4421 C   0  0  0  0  0  0  0  0  0  0  0  0
  -21.7662   -9.0571   22.0476 C   0  0  0  0  0  0  0  0  0  0  0  0
  -25.1454  -14.7736   22.3226 C   0  0  0  0  0  0  0  0  0  0  0  0
  -22.8957   -9.8049   22.4316 C   0  0  0  0  0  0  0  0  0  0  0  0
  -26.5343  -14.8342   22.1400 C   0  0  0  0  0  0  0  0  0  0  0  0
  -32.0239  -21.2128   28.6835 C   0  0  0  0  0  0  0  0  0  0  0  0
  -24.7075  -29.2732   20.4513 C   0  0  0  0  0  0  0  0  0  0  0  0
  -26.7865  -15.6385   24.4202 C   0  0  0  0  0  0  0  0  0  0  0  0
  -23.5983  -31.0807   21.4637 C   0  0  0  0  0  0  0  0  0  0  0  0
  -23.7014  -33.3631   23.0645 C   0  0  0  0  0  0  0  0  0  0  0  0
  -24.3994  -32.1596   21.0893 C   0  0  0  0  0  0  0  0  0  0  0  0
  -28.3199  -27.1779   19.7743 C   0  0  0  0  0  0  0  0  0  0  0  0
  -30.9188  -21.3405   26.5814 C   0  0  0  0  0  0  0  0  0  0  0  0
  -30.3961  -19.6163   28.0069 C   0  0  0  0  0  0  0  0  0  0  0  0
  -30.4061  -26.6418   19.3325 C   0  0  0  0  0  0  0  0  0  0  0  0
  -29.9489  -29.0979   19.2499 C   0  0  0  0  0  0  0  0  0  0  0  0
  -25.2017  -12.0736   20.6461 C   0  0  0  0  0  0  0  0  0  0  0  0
  -26.6474  -13.9414   18.4227 C   0  0  0  0  0  0  0  0  0  0  0  0
  -28.4699  -16.7436   17.7348 C   0  0  0  0  0  0  0  0  0  0  0  0
  -30.2179  -21.1389   21.6739 C   0  0  0  0  0  0  0  0  0  0  0  0
  -21.6864   -8.3727   20.7060 C   0  0  0  0  0  0  0  0  0  0  0  0
  -24.2472  -14.3413   21.1962 C   0  0  0  0  0  0  0  0  0  0  0  0
  -27.1807  -14.4430   20.8371 C   0  0  0  0  0  0  0  0  0  0  0  0
  -22.6869   -8.9118   19.6868 C   0  0  0  0  0  0  0  0  0  0  0  0
  -30.4073  -21.9990   18.2524 C   0  0  0  0  0  0  0  0  0  0  0  0
  -24.0711   -9.0415   20.3146 C   0  0  0  0  0  0  0  0  0  0  0  0
  -29.9795  -23.4634   18.2082 C   0  0  0  0  0  0  0  0  0  0  0  0
  -29.2581  -22.4890   24.9466 C   0  0  0  0  0  0  0  0  0  0  0  0
  -29.5955  -21.2292   19.2855 C   0  0  0  0  0  0  0  0  0  0  0  0
  -29.2930  -22.7423   23.4454 C   0  0  0  0  0  0  0  0  0  0  0  0
  -30.9956  -21.1587   24.0248 C   0  0  0  0  0  0  0  0  0  0  0  0
  -29.2899  -23.2747   20.6540 C   0  0  0  0  0  0  0  0  0  0  0  0
  -24.0551  -10.0313   21.4857 C   0  0  1  0  0  0  0  0  0  0  0  0
  -30.6924  -22.0282   25.2532 C   0  0  2  0  0  0  0  0  0  0  0  0
  -24.9602  -13.4754   20.1621 C   0  0  1  0  0  0  0  0  0  0  0  0
  -30.0686  -24.0961   19.6056 C   0  0  2  0  0  0  0  0  0  0  0  0
  -33.0019  -21.7386   29.6780 C   0  0  0  0  0  0  0  0  0  0  0  0
  -29.6141  -18.4951   16.3490 C   0  0  0  0  0  0  0  0  0  0  0  0
  -28.9505  -15.6645   27.9981 C   0  0  0  0  0  0  0  0  0  0  0  0
  -28.9060  -11.8912   18.3507 C   0  0  0  0  0  0  0  0  0  0  0  0
  -30.3276  -13.6009   17.2001 C   0  0  0  0  0  0  0  0  0  0  0  0
  -28.2362  -12.7844   16.1129 C   0  0  0  0  0  0  0  0  0  0  0  0
  -26.0050  -18.3708   17.5469 C   0  0  0  0  0  0  0  0  0  0  0  0
  -26.9486  -16.4285   26.6576 C   0  0  0  0  0  0  0  0  0  1  0  0
  -28.7578  -18.0698   27.2452 C   0  0  0  0  0  0  0  0  0  0  0  0
  -28.0744  -14.3237   18.1119 C   0  0  1  0  0  0  0  0  0  0  0  0
  -28.2892  -17.8320   16.6921 C   0  0  2  0  0  0  0  0  0  0  0  0
  -27.9926  -16.8256   27.7051 C   0  0  2  0  0  0  0  0  0  0  0  0
  -28.8743  -13.1557   17.4692 C   0  0  0  0  0  0  0  0  0  0  0  0
  -28.3503  -25.8460   19.8693 N   0  0  0  0  0  0  0  0  0  0  0  0
  -30.1898  -20.2270   26.8186 N   0  0  0  0  0  0  0  0  0  0  0  0
  -29.6322  -25.5499   19.5952 N   0  0  0  0  0  0  0  0  0  0  0  0
  -26.2606  -14.0211   19.7680 N   0  0  0  0  0  0  0  0  0  0  0  0
  -29.6638  -21.8552   20.6073 N   0  0  0  0  0  0  0  0  0  0  0  0
  -30.2270  -21.7432   22.9305 N   0  0  0  0  0  0  0  0  0  0  0  0
  -31.7183  -26.5238   19.0380 N   0  0  0  0  0  0  0  0  0  0  0  0
  -28.9682  -30.0877   19.4010 N   0  0  0  0  0  0  0  0  0  0  0  0
  -24.0511  -11.3933   20.9964 N   0  0  0  0  0  0  0  0  0  0  0  0
  -28.0048  -15.5252   17.2873 N   0  0  0  0  0  0  0  0  0  0  0  0
  -27.3552  -18.8795   17.1933 N   0  3  0  0  0  0  0  0  0  0  0  0
  -31.1164  -29.4332   18.9368 O   0  0  0  0  0  0  0  0  0  0  0  0
  -26.3471  -11.6408   20.6966 O   0  0  0  0  0  0  0  0  0  0  0  0
  -25.9013  -13.5921   17.5046 O   0  0  0  0  0  0  0  0  0  0  0  0
  -28.9767  -16.9526   18.8349 O   0  0  0  0  0  0  0  0  0  0  0  0
  -30.6502  -19.9886   21.5201 O   0  0  0  0  0  0  0  0  0  0  0  0
  -23.5455  -29.9474   20.6697 O   0  0  0  0  0  0  0  0  0  0  0  0
  -27.5931  -16.0570   25.4462 O   0  0  0  0  0  0  0  0  0  1  0  0
  -29.6632  -18.4865   28.2603 O   0  0  0  0  0  0  0  0  0  0  0  0
  -23.7496  -34.4595   23.8324 F   0  0  0  0  0  0  0  0  0  0  0  0
  -25.1208  -32.1059   19.9613 F   0  0  0  0  0  0  0  0  0  0  0  0
  1  2  1  0  0  0  0
  1  5  2  0  0  0  0
  2  6  2  0  0  0  0
  3  8  2  0  0  0  0
  3 17  1  0  0  0  0
  4  9  1  0  0  0  0
  4 17  2  0  0  0  0
  5 19  1  0  0  0  0
  6 21  1  0  0  0  0
  7 10  2  0  0  0  0
  7 20  1  0  0  0  0
  8 24  1  0  0  0  0
  9 24  2  0  0  0  0
 10 25  1  0  0  0  0
 11 12  2  0  0  0  0
 11 26  1  0  0  0  0
 12 27  1  0  0  0  0
 13 22  1  0  0  0  0
 13 25  2  0  0  0  0
 14 23  1  0  0  0  0
 14 30  2  0  0  0  0
 15 23  2  0  0  0  0
 15 31  1  0  0  0  0
 16 27  2  0  0  0  0
 16 28  1  0  0  0  0
 17 29  1  0  0  0  0
 18 29  1  0  0  0  0
 18 32  2  0  0  0  0
 18 33  1  0  0  0  0
 19 21  2  0  0  0  0
 19 38  1  0  0  0  0
 20 22  2  0  0  0  0
 20 39  1  0  0  0  0
 21 50  1  0  0  0  0
 22 40  1  0  0  0  0
 23 54  1  0  0  0  0
 24 83  1  0  0  0  0
 25 84  1  0  0  0  0
 26 28  2  0  0  0  0
 26 83  1  0  0  0  0
 27 86  1  0  0  0  0
 28 87  1  0  0  0  0
 29 67  2  0  0  0  0
 30 51  1  0  0  0  0
 30 68  1  0  0  0  0
 31 68  2  0  0  0  0
 31 85  1  0  0  0  0
 32 69  1  0  0  0  0
 32 73  1  0  0  0  0
 33 74  1  0  0  0  0
 33 78  2  0  0  0  0
 34 52  1  0  0  0  0
 34 75  1  0  0  0  0
 34 79  2  0  0  0  0
 35 63  1  0  0  0  0
 35 70  1  0  0  0  0
 35 80  2  0  0  0  0
 36 64  1  0  0  0  0
 36 76  1  0  0  0  0
 36 81  2  0  0  0  0
 37 71  1  0  0  0  0
 37 72  1  0  0  0  0
 37 82  2  0  0  0  0
 38 41  1  0  0  0  0
 39 52  1  0  0  0  0
 40 70  1  0  0  0  0
 41 43  1  0  0  0  0
 42 44  1  0  0  0  0
 42 46  1  0  0  0  0
 43 50  1  0  0  0  0
 44 53  1  0  0  0  0
 45 47  1  0  0  0  0
 45 51  1  0  0  0  0
 46 71  1  0  0  0  0
 47 72  1  0  0  0  0
 48 51  1  0  0  0  0
 48 72  1  0  0  0  0
 49 53  1  0  0  0  0
 49 71  1  0  0  0  0
 50 75  1  0  0  0  0
 52 70  1  0  0  0  0
 53 69  1  0  0  0  0
 55 64  1  0  0  0  0
 56 65  1  0  0  0  0
 57 66  1  0  0  0  0
 58 66  1  0  0  0  0
 59 66  1  0  0  0  0
 60 77  1  0  0  0  0
 61 65  1  0  0  0  0
 61 84  1  0  0  0  0
 62 65  1  0  0  0  0
 62 85  1  0  0  0  0
 63 66  1  0  0  0  0
 63 76  1  0  0  0  0
 64 77  1  0  0  0  0
 67 69  1  0  0  0  0
M  CHG  1  77   1
M  ISO  4  37 100  61 101  72 100  84 101
M  END
> <Batch ID>
0146

> <Smiles>
CNC(C)C(=O)NC(C(=O)N1Cc2cc([101O:1][101CH2:1]C(C)COc3cc(C)cc(C4CC[100N:0]([100C:0](=O)N5CCCC(n6nc(-c7ccc(Oc8ccc(F)cc8F)cc7)c(C(N)=O)c6N)C5)C4)n3)ccc2CC1C(=O)NC1CCCc2ccccc21)C(C)(C)C

> <Shape>
0.225

> <Color>
0.060

> <Negative vol penalty>
0.000

$$$$

  -OEChem-04052321313D

 84 93  0     1  0  0  0  0  0999 V2000
  -23.3131  -38.4649   23.4830 C   0  0  0  0  0  0  0  0  0  0  0  0
  -24.2871  -37.9814   22.6152 C   0  0  0  0  0  0  0  0  0  0  0  0
  -24.5321   -9.6304   21.5816 C   0  0  0  0  0  0  0  0  0  0  0  0
  -24.7951  -10.8095   23.6739 C   0  0  0  0  0  0  0  0  0  0  0  0
  -23.2379  -37.9760   24.7866 C   0  0  0  0  0  0  0  0  0  0  0  0
  -25.1871  -37.0095   23.0508 C   0  0  0  0  0  0  0  0  0  0  0  0
  -26.7572  -29.9568   20.0807 C   0  0  0  0  0  0  0  0  0  0  0  0
  -24.1955   -8.4697   22.2780 C   0  0  0  0  0  0  0  0  0  0  0  0
  -24.4584   -9.6487   24.3703 C   0  0  0  0  0  0  0  0  0  0  0  0
  -27.0075  -28.6272   19.7407 C   0  0  0  0  0  0  0  0  0  0  0  0
  -21.4810   -7.2059   23.8487 C   0  0  0  0  0  0  0  0  0  0  0  0
  -20.3861   -6.4713   23.3935 C   0  0  0  0  0  0  0  0  0  0  0  0
  -28.7729  -21.2499   19.2409 C   0  0  0  0  0  0  0  0  0  0  0  0
  -28.3727  -21.4066   21.6183 C   0  0  0  0  0  0  0  0  0  0  0  0
  -27.6261  -28.1475   22.0288 C   0  0  0  0  0  0  0  0  0  0  0  0
  -21.8172   -4.5572   23.0398 C   0  0  0  0  0  0  0  0  0  0  0  0
  -24.8320  -10.8003   22.2796 C   0  0  0  0  0  0  0  0  0  0  0  0
  -24.3038  -13.0028   21.1058 C   0  0  0  0  0  0  0  0  0  0  0  0
  -24.1313  -36.9905   25.2354 C   0  0  0  0  0  0  0  0  0  0  0  0
  -26.9259  -30.3837   21.4008 C   0  0  0  0  0  0  0  0  0  0  0  0
  -25.1245  -36.5079   24.3619 C   0  0  0  0  0  0  0  0  0  0  0  0
  -28.5491  -22.0235   20.3798 C   0  0  0  0  0  0  0  0  0  0  0  0
  -27.3650  -29.4752   22.3778 C   0  0  0  0  0  0  0  0  0  0  0  0
  -28.8201  -19.8594   19.3405 C   0  0  0  0  0  0  0  0  0  0  0  0
  -28.4199  -20.0160   21.7179 C   0  0  0  0  0  0  0  0  0  0  0  0
  -28.6436  -19.2425   20.5790 C   0  0  0  0  0  0  0  0  0  0  0  0
  -24.1586   -8.4788   23.6723 C   0  0  0  0  0  0  0  0  0  0  0  0
  -27.4411  -27.7248   20.7123 C   0  0  0  0  0  0  0  0  0  0  0  0
  -22.7441   -6.6161   23.8993 C   0  0  0  0  0  0  0  0  0  0  0  0
  -20.5541   -5.1470   22.9891 C   0  0  0  0  0  0  0  0  0  0  0  0
  -22.9122   -5.2918   23.4949 C   0  0  0  0  0  0  0  0  0  0  0  0
  -25.1803  -11.9995   21.5608 C   0  0  0  0  0  0  0  0  0  0  0  0
  -25.1207  -13.9182   20.4883 C   0  0  0  0  0  0  0  0  0  0  0  0
  -22.8787  -13.0988   21.2303 C   0  0  0  0  0  0  0  0  0  0  0  0
  -26.7187  -33.2131   23.8559 C   0  0  0  0  0  0  0  0  0  0  0  0
  -25.6510  -30.7159   25.2821 C   0  0  0  0  0  0  0  0  0  0  0  0
  -24.1615  -27.8384   26.3491 C   0  0  0  0  0  0  0  0  0  0  0  0
  -29.7592  -16.9952   20.3516 C   0  0  0  0  0  0  0  0  0  0  0  0
  -24.0410  -36.5269   26.6677 C   0  0  0  0  0  0  0  0  0  0  0  0
  -26.7273  -31.8208   21.7996 C   0  0  0  0  0  0  0  0  0  0  0  0
  -27.5659  -29.9872   23.7779 C   0  0  0  0  0  0  0  0  0  0  0  0
  -24.7943  -35.2265   26.9356 C   0  0  0  0  0  0  0  0  0  0  0  0
  -30.0091  -13.6333   19.2060 C   0  0  0  0  0  0  0  0  0  0  0  0
  -29.5600  -24.2685   21.1130 C   0  0  0  0  0  0  0  0  0  0  0  0
  -26.1858  -35.2775   26.3128 C   0  0  0  0  0  0  0  0  0  0  0  0
  -28.7030  -12.9911   19.6791 C   0  0  0  0  0  0  0  0  0  0  0  0
  -28.7824  -25.1397   22.0979 C   0  0  0  0  0  0  0  0  0  0  0  0
  -27.1374  -24.1091   20.7130 C   0  0  0  0  0  0  0  0  0  0  0  0
  -30.5454  -14.6415   20.2207 C   0  0  0  0  0  0  0  0  0  0  0  0
  -28.2810  -15.0315   21.1094 C   0  0  0  0  0  0  0  0  0  0  0  0
  -28.4976  -23.5311   20.2718 C   0  0  2  0  0  0  0  0  0  0  0  0
  -26.1030  -35.4357   24.7897 C   0  0  1  0  0  0  0  0  0  0  0  0
  -26.1510  -31.9793   23.2180 C   0  0  1  0  0  0  0  0  0  0  0  0
  -27.6680  -14.0564   20.0910 C   0  0  2  0  0  0  0  0  0  0  0  0
  -27.4774  -25.4371   21.3756 C   0  0  2  0  0  0  0  0  0  1  0  0
  -29.0610  -19.0575   18.1023 C   0  0  0  0  0  0  0  0  0  0  0  0
  -28.2277  -19.3840   23.0587 C   0  0  0  0  0  0  0  0  0  0  0  0
  -22.9941  -26.8440   28.3355 C   0  0  0  0  0  0  0  0  0  0  0  0
  -28.3345  -30.4034   26.6980 C   0  0  0  0  0  0  0  0  0  0  0  0
  -27.2917  -28.6358   28.1321 C   0  0  0  0  0  0  0  0  0  0  0  0
  -26.4202  -30.9720   28.2035 C   0  0  0  0  0  0  0  0  0  0  0  0
  -21.6739  -27.3910   24.8093 C   0  0  0  0  0  0  0  0  0  0  0  0
  -25.9592  -29.5387   26.1725 C   0  0  1  0  0  0  0  0  0  0  0  0
  -22.8228  -27.5852   27.0187 C   0  0  2  0  0  0  0  0  0  0  0  0
  -27.0013  -29.8851   27.2732 C   0  0  0  0  0  0  0  0  0  0  0  0
  -26.4562  -12.2534   21.2580 N   0  0  0  0  0  0  0  0  0  0  0  0
  -26.3874  -13.4265   20.6061 N   0  0  0  0  0  0  0  0  0  0  0  0
  -26.4580  -30.8809   24.1498 N   0  0  0  0  0  0  0  0  0  0  0  0
  -29.5118  -15.6219   20.5603 N   0  0  0  0  0  0  0  0  0  0  0  0
  -24.8718  -15.0876   19.8614 N   0  0  0  0  0  0  0  0  0  0  0  0
  -22.1953  -12.0711   21.8945 N   0  0  0  0  0  0  0  0  0  0  0  0
  -28.6917  -17.8300   20.6804 N   0  0  0  0  0  0  0  0  0  0  0  0
  -25.7731  -34.1714   24.1675 N   0  0  0  0  0  0  0  0  0  0  0  0
  -24.6775  -29.0710   26.6890 N   0  0  0  0  0  0  0  0  0  0  0  0
  -21.9457  -26.7701   26.1313 N   0  3  0  0  0  0  0  0  0  0  0  0
  -22.2287  -14.0592   20.7520 O   0  0  0  0  0  0  0  0  0  0  0  0
  -27.9257  -33.2907   24.0528 O   0  0  0  0  0  0  0  0  0  0  0  0
  -24.7241  -31.4733   25.5829 O   0  0  0  0  0  0  0  0  0  0  0  0
  -24.6976  -27.0226   25.6024 O   0  0  0  0  0  0  0  0  0  0  0  0
  -30.8289  -17.3987   19.8879 O   0  0  0  0  0  0  0  0  0  0  0  0
  -23.8300   -7.3464   24.3522 O   0  0  0  0  0  0  0  0  0  0  0  0
  -27.6792  -26.4272   20.3746 O   0  0  0  0  0  0  0  0  0  1  0  0
  -19.5023   -4.4413   22.5535 F   0  0  0  0  0  0  0  0  0  0  0  0
  -24.1229   -4.7194   23.5424 F   0  0  0  0  0  0  0  0  0  0  0  0
  1  2  1  0  0  0  0
  1  5  2  0  0  0  0
  2  6  2  0  0  0  0
  3  8  2  0  0  0  0
  3 17  1  0  0  0  0
  4  9  1  0  0  0  0
  4 17  2  0  0  0  0
  5 19  1  0  0  0  0
  6 21  1  0  0  0  0
  7 10  2  0  0  0  0
  7 20  1  0  0  0  0
  8 27  1  0  0  0  0
  9 27  2  0  0  0  0
 10 28  1  0  0  0  0
 11 12  2  0  0  0  0
 11 29  1  0  0  0  0
 12 30  1  0  0  0  0
 13 22  1  0  0  0  0
 13 24  2  0  0  0  0
 14 22  2  0  0  0  0
 14 25  1  0  0  0  0
 15 23  1  0  0  0  0
 15 28  2  0  0  0  0
 16 30  2  0  0  0  0
 16 31  1  0  0  0  0
 17 32  1  0  0  0  0
 18 32  1  0  0  0  0
 18 33  2  0  0  0  0
 18 34  1  0  0  0  0
 19 21  2  0  0  0  0
 19 39  1  0  0  0  0
 20 23  2  0  0  0  0
 20 40  1  0  0  0  0
 21 52  1  0  0  0  0
 22 51  1  0  0  0  0
 23 41  1  0  0  0  0
 24 26  1  0  0  0  0
 24 56  1  0  0  0  0
 25 26  2  0  0  0  0
 25 57  1  0  0  0  0
 26 72  1  0  0  0  0
 27 81  1  0  0  0  0
 28 82  1  0  0  0  0
 29 31  2  0  0  0  0
 29 81  1  0  0  0  0
 30 83  1  0  0  0  0
 31 84  1  0  0  0  0
 32 66  2  0  0  0  0
 33 67  1  0  0  0  0
 33 70  1  0  0  0  0
 34 71  1  0  0  0  0
 34 76  2  0  0  0  0
 35 53  1  0  0  0  0
 35 73  1  0  0  0  0
 35 77  2  0  0  0  0
 36 63  1  0  0  0  0
 36 68  1  0  0  0  0
 36 78  2  0  0  0  0
 37 64  1  0  0  0  0
 37 74  1  0  0  0  0
 37 79  2  0  0  0  0
 38 69  1  0  0  0  0
 38 72  1  0  0  0  0
 38 80  2  0  0  0  0
 39 42  1  0  0  0  0
 40 53  1  0  0  0  0
 41 68  1  0  0  0  0
 42 45  1  0  0  0  0
 43 46  1  0  0  0  0
 43 49  1  0  0  0  0
 44 47  1  0  0  0  0
 44 51  1  0  0  0  0
 45 52  1  0  0  0  0
 46 54  1  0  0  0  0
 47 55  1  0  0  0  0
 48 51  1  0  0  0  0
 48 55  1  0  0  0  0
 49 69  1  0  0  0  0
 50 54  1  0  0  0  0
 50 69  1  0  0  0  0
 52 73  1  0  0  0  0
 53 68  1  0  0  0  0
 54 67  1  0  0  0  0
 55 82  1  0  0  0  0
 58 64  1  0  0  0  0
 59 65  1  0  0  0  0
 60 65  1  0  0  0  0
 61 65  1  0  0  0  0
 62 75  1  0  0  0  0
 63 65  1  0  0  0  0
 63 74  1  0  0  0  0
 64 75  1  0  0  0  0
 66 67  1  0  0  0  0
M  CHG  1  75   1
M  ISO  4  38 100  55 101  72 100  82 101
M  END
> <Batch ID>
0146

> <Smiles>
CNC(C)C(=O)NC(C(=O)N1Cc2cc([101O:1][101CH:1]3CCC(c4cc(C)c([100NH:0][100C:0](=O)N5CCCC(n6nc(-c7ccc(Oc8ccc(F)cc8F)cc7)c(C(N)=O)c6N)C5)c(C)c4)C3)ccc2CC1C(=O)NC1CCCc2ccccc21)C(C)(C)C

> <Shape>
0.332

> <Color>
0.131

> <Negative vol penalty>
0.000

$$$$

  -OEChem-04052321313D

 86 95  0     1  0  0  0  0  0999 V2000
  -27.5844  -31.1421   14.3018 C   0  0  0  0  0  0  0  0  0  0  0  0
  -27.7405  -29.8524   14.7995 C   0  0  0  0  0  0  0  0  0  0  0  0
  -23.8319   -9.7469   21.3354 C   0  0  0  0  0  0  0  0  0  0  0  0
  -24.3987  -10.7244   23.4709 C   0  0  0  0  0  0  0  0  0  0  0  0
  -27.6381  -32.2336   15.1677 C   0  0  0  0  0  0  0  0  0  0  0  0
  -27.9515  -29.6535   16.1635 C   0  0  0  0  0  0  0  0  0  0  0  0
  -25.9414  -24.9669   19.5547 C   0  0  0  0  0  0  0  0  0  0  0  0
  -23.3209   -8.6235   21.9853 C   0  0  0  0  0  0  0  0  0  0  0  0
  -23.8876   -9.6010   24.1208 C   0  0  0  0  0  0  0  0  0  0  0  0
  -26.5552  -23.7936   19.9910 C   0  0  0  0  0  0  0  0  0  0  0  0
  -20.4944   -7.7697   23.6331 C   0  0  0  0  0  0  0  0  0  0  0  0
  -19.2647   -7.2738   23.2001 C   0  0  0  0  0  0  0  0  0  0  0  0
  -27.0760  -24.8551   22.0937 C   0  0  0  0  0  0  0  0  0  0  0  0
  -27.6317  -19.2663   21.9158 C   0  0  0  0  0  0  0  0  0  0  0  0
  -30.4046  -19.1962   22.2142 C   0  0  0  0  0  0  0  0  0  0  0  0
  -20.3057   -5.1605   22.6640 C   0  0  0  0  0  0  0  0  0  0  0  0
  -24.3709  -10.7974   22.0782 C   0  0  0  0  0  0  0  0  0  0  0  0
  -24.2011  -13.1289   21.0570 C   0  0  0  0  0  0  0  0  0  0  0  0
  -27.8402  -32.0473   16.5443 C   0  0  0  0  0  0  0  0  0  0  0  0
  -25.8997  -26.0984   20.3819 C   0  0  0  0  0  0  0  0  0  0  0  0
  -28.0093  -30.7436   17.0484 C   0  0  0  0  0  0  0  0  0  0  0  0
  -26.4587  -26.0407   21.6665 C   0  0  0  0  0  0  0  0  0  0  0  0
  -28.4106  -20.3238   21.4462 C   0  0  0  0  0  0  0  0  0  0  0  0
  -28.2392  -18.1737   22.5347 C   0  0  0  0  0  0  0  0  0  0  0  0
  -29.7970  -20.2887   21.5953 C   0  0  0  0  0  0  0  0  0  0  0  0
  -23.3487   -8.5505   23.3779 C   0  0  0  0  0  0  0  0  0  0  0  0
  -27.1252  -23.7384   21.2595 C   0  0  0  0  0  0  0  0  0  0  0  0
  -21.6298   -6.9610   23.5815 C   0  0  0  0  0  0  0  0  0  0  0  0
  -29.6256  -18.1387   22.6839 C   0  0  0  0  0  0  0  0  0  0  0  0
  -19.1703   -5.9692   22.7156 C   0  0  0  0  0  0  0  0  0  0  0  0
  -21.5354   -5.6564   23.0970 C   0  0  0  0  0  0  0  0  0  0  0  0
  -24.8995  -11.9579   21.4075 C   0  0  0  0  0  0  0  0  0  0  0  0
  -25.1427  -13.9203   20.4458 C   0  0  0  0  0  0  0  0  0  0  0  0
  -22.8244  -13.4707   21.2654 C   0  0  0  0  0  0  0  0  0  0  0  0
  -27.0393  -29.0596   20.1911 C   0  0  0  0  0  0  0  0  0  0  0  0
  -25.3338  -29.4750   22.9189 C   0  0  0  0  0  0  0  0  0  0  0  0
  -23.8992  -28.0741   25.6805 C   0  0  0  0  0  0  0  0  0  0  0  0
  -31.1117  -14.1920   20.8305 C   0  0  0  0  0  0  0  0  0  0  0  0
  -27.9380  -33.2609   17.4344 C   0  0  0  0  0  0  0  0  0  0  0  0
  -25.2103  -27.3480   19.9067 C   0  0  0  0  0  0  0  0  0  0  0  0
  -26.4227  -27.2214   22.6009 C   0  0  0  0  0  0  0  0  0  0  0  0
  -27.7912  -32.9403   18.9197 C   0  0  0  0  0  0  0  0  0  0  0  0
  -29.1786  -13.6440   17.8912 C   0  0  0  0  0  0  0  0  0  0  0  0
  -28.6524  -31.7383   19.2940 C   0  0  0  0  0  0  0  0  0  0  0  0
  -25.7220  -18.0801   24.7793 C   0  0  0  0  0  0  0  0  0  0  0  0
  -25.6934  -16.5908   24.9822 C   0  0  0  0  0  0  0  0  0  0  0  0
  -27.7997  -13.2554   18.4274 C   0  0  0  0  0  0  0  0  0  0  0  0
  -30.3010  -13.0895   18.7656 C   0  0  0  0  0  0  0  0  0  0  0  0
  -28.8178  -13.0411   20.7332 C   0  0  0  0  0  0  0  0  0  0  0  0
  -28.2152  -30.4855   18.5253 C   0  0  1  0  0  0  0  0  0  0  0  0
  -25.6787  -28.6032   20.6363 C   0  0  1  0  0  0  0  0  0  0  0  0
  -26.9425  -17.2564   24.4747 C   0  0  0  0  0  0  0  0  0  0  0  0
  -27.6525  -13.6245   19.9158 C   0  0  2  0  0  0  0  0  0  0  0  0
  -30.6519  -21.4089   21.1006 C   0  0  0  0  0  0  0  0  0  0  0  0
  -22.6078  -28.6721   27.7474 C   0  0  0  0  0  0  0  0  0  0  0  0
  -27.8908  -30.5273   24.2091 C   0  0  0  0  0  0  0  0  0  0  0  0
  -26.8118  -30.2061   26.4454 C   0  0  0  0  0  0  0  0  0  0  0  0
  -25.8222  -31.8013   24.8026 C   0  0  0  0  0  0  0  0  0  0  0  0
  -21.5865  -26.4228   24.8536 C   0  0  0  0  0  0  0  0  0  0  0  0
  -27.3901  -17.0501   23.0307 C   0  0  0  0  0  0  0  0  0  0  0  0
  -27.7352  -21.4893   20.7852 C   0  0  0  0  0  0  0  0  0  1  0  0
  -31.7783  -15.2654   22.9665 C   0  0  0  0  0  0  0  0  0  0  0  0
  -31.5581  -16.7638   22.8596 C   0  0  0  0  0  0  0  0  0  0  0  0
  -25.6187  -29.3148   24.3928 C   0  0  1  0  0  0  0  0  0  0  0  0
  -22.5197  -28.2389   26.2923 C   0  0  2  0  0  0  0  0  0  0  0  0
  -26.5384  -30.4406   24.9444 C   0  0  0  0  0  0  0  0  0  0  0  0
  -26.1854  -11.9975   21.0486 N   0  0  0  0  0  0  0  0  0  0  0  0
  -26.3026  -13.2030   20.4662 N   0  0  0  0  0  0  0  0  0  0  0  0
  -25.7429  -28.4224   22.0880 N   0  0  0  0  0  0  0  0  0  0  0  0
  -30.1029  -13.4766   20.1645 N   0  0  0  0  0  0  0  0  0  0  0  0
  -25.0834  -15.1528   19.8982 N   0  0  0  0  0  0  0  0  0  0  0  0
  -21.9955  -12.5421   21.9096 N   0  0  0  0  0  0  0  0  0  0  0  0
  -27.0179  -29.9240   19.1132 N   0  0  0  0  0  0  0  0  0  0  0  0
  -24.3204  -29.2270   25.0523 N   0  0  0  0  0  0  0  0  0  0  0  0
  -30.8408  -14.5249   22.1520 N   0  0  0  0  0  0  0  0  0  0  0  0
  -21.7682  -26.9535   26.2293 N   0  3  0  0  0  0  0  0  0  0  0  0
  -22.3396  -14.5604   20.8768 O   0  0  0  0  0  0  0  0  0  0  0  0
  -28.0347  -28.6586   20.7827 O   0  0  0  0  0  0  0  0  0  0  0  0
  -24.7627  -30.4932   22.5206 O   0  0  0  0  0  0  0  0  0  0  0  0
  -24.5407  -27.0284   25.7558 O   0  0  0  0  0  0  0  0  0  0  0  0
  -32.1729  -14.5150   20.2860 O   0  0  0  0  0  0  0  0  0  0  0  0
  -22.8498   -7.4545   24.0124 O   0  0  0  0  0  0  0  0  0  0  0  0
  -27.7256  -22.5947   21.6876 O   0  0  0  0  0  0  0  0  0  1  0  0
  -30.2348  -17.0798   23.2872 O   0  0  0  0  0  0  0  0  0  0  0  0
  -17.9891   -5.4927   22.3013 F   0  0  0  0  0  0  0  0  0  0  0  0
  -22.6225   -4.8744   23.0461 F   0  0  0  0  0  0  0  0  0  0  0  0
  1  2  1  0  0  0  0
  1  5  2  0  0  0  0
  2  6  2  0  0  0  0
  3  8  2  0  0  0  0
  3 17  1  0  0  0  0
  4  9  1  0  0  0  0
  4 17  2  0  0  0  0
  5 19  1  0  0  0  0
  6 21  1  0  0  0  0
  7 10  2  0  0  0  0
  7 20  1  0  0  0  0
  8 26  1  0  0  0  0
  9 26  2  0  0  0  0
 10 27  1  0  0  0  0
 11 12  2  0  0  0  0
 11 28  1  0  0  0  0
 12 30  1  0  0  0  0
 13 22  1  0  0  0  0
 13 27  2  0  0  0  0
 14 23  1  0  0  0  0
 14 24  2  0  0  0  0
 15 25  1  0  0  0  0
 15 29  2  0  0  0  0
 16 30  2  0  0  0  0
 16 31  1  0  0  0  0
 17 32  1  0  0  0  0
 18 32  1  0  0  0  0
 18 33  2  0  0  0  0
 18 34  1  0  0  0  0
 19 21  2  0  0  0  0
 19 39  1  0  0  0  0
 20 22  2  0  0  0  0
 20 40  1  0  0  0  0
 21 50  1  0  0  0  0
 22 41  1  0  0  0  0
 23 25  2  0  0  0  0
 23 61  1  0  0  0  0
 24 29  1  0  0  0  0
 24 60  1  0  0  0  0
 25 54  1  0  0  0  0
 26 82  1  0  0  0  0
 27 83  1  0  0  0  0
 28 31  2  0  0  0  0
 28 82  1  0  0  0  0
 29 84  1  0  0  0  0
 30 85  1  0  0  0  0
 31 86  1  0  0  0  0
 32 67  2  0  0  0  0
 33 68  1  0  0  0  0
 33 71  1  0  0  0  0
 34 72  1  0  0  0  0
 34 77  2  0  0  0  0
 35 51  1  0  0  0  0
 35 73  1  0  0  0  0
 35 78  2  0  0  0  0
 36 64  1  0  0  0  0
 36 69  1  0  0  0  0
 36 79  2  0  0  0  0
 37 65  1  0  0  0  0
 37 74  1  0  0  0  0
 37 80  2  0  0  0  0
 38 70  1  0  0  0  0
 38 75  1  0  0  0  0
 38 81  2  0  0  0  0
 39 42  1  0  0  0  0
 40 51  1  0  0  0  0
 41 69  1  0  0  0  0
 42 44  1  0  0  0  0
 43 47  1  0  0  0  0
 43 48  1  0  0  0  0
 44 50  1  0  0  0  0
 45 46  1  0  0  0  0
 45 52  1  0  0  0  0
 46 52  1  0  0  0  0
 47 53  1  0  0  0  0
 48 70  1  0  0  0  0
 49 53  1  0  0  0  0
 49 70  1  0  0  0  0
 50 73  1  0  0  0  0
 51 69  1  0  0  0  0
 52 60  1  0  0  0  0
 53 68  1  0  0  0  0
 55 65  1  0  0  0  0
 56 66  1  0  0  0  0
 57 66  1  0  0  0  0
 58 66  1  0  0  0  0
 59 76  1  0  0  0  0
 61 83  1  0  0  0  0
 62 63  1  0  0  0  0
 62 75  1  0  0  0  0
 63 84  1  0  0  0  0
 64 66  1  0  0  0  0
 64 74  1  0  0  0  0
 65 76  1  0  0  0  0
 67 68  1  0  0  0  0
M  CHG  1  76   1
M  ISO  4  38 100  61 101  75 100  83 101
M  END
> <Batch ID>
0146

> <Smiles>
CNC(C)C(=O)NC(C(=O)N1Cc2cc([101O:1][101CH2:1]c3cc(CC4CC4)c(OCC[100NH:0][100C:0](=O)N4CCCC(n5nc(-c6ccc(Oc7ccc(F)cc7F)cc6)c(C(N)=O)c5N)C4)cc3C)ccc2CC1C(=O)NC1CCCc2ccccc21)C(C)(C)C

> <Shape>
0.252

> <Color>
0.148

> <Negative vol penalty>
0.000

$$$$

  -OEChem-04052321313D

 85 94  0     1  0  0  0  0  0999 V2000
  -21.8505  -12.0729   18.7714 C   0  0  0  0  0  0  0  0  0  0  0  0
  -21.9947  -13.4557   18.7221 C   0  0  0  0  0  0  0  0  0  0  0  0
  -25.4150  -27.8504   22.2680 C   0  0  0  0  0  0  0  0  0  0  0  0
  -25.0070  -28.8999   20.1305 C   0  0  0  0  0  0  0  0  0  0  0  0
  -22.7895  -11.2990   19.4520 C   0  0  0  0  0  0  0  0  0  0  0  0
  -23.0776  -14.0656   19.3544 C   0  0  0  0  0  0  0  0  0  0  0  0
  -25.2671  -17.6075   16.4724 C   0  0  0  0  0  0  0  0  0  0  0  0
  -26.6280  -27.3527   21.7922 C   0  0  0  0  0  0  0  0  0  0  0  0
  -26.2201  -28.4024   19.6546 C   0  0  0  0  0  0  0  0  0  0  0  0
  -24.6289  -18.8442   16.3886 C   0  0  0  0  0  0  0  0  0  0  0  0
  -27.6789  -24.8048   19.8357 C   0  0  0  0  0  0  0  0  0  0  0  0
  -27.9837  -23.4715   20.1095 C   0  0  0  0  0  0  0  0  0  0  0  0
  -26.1683  -19.7421   18.0143 C   0  0  0  0  0  0  0  0  0  0  0  0
  -29.9682  -24.1692   21.2978 C   0  0  0  0  0  0  0  0  0  0  0  0
  -24.6044  -28.6239   21.4371 C   0  0  0  0  0  0  0  0  0  0  0  0
  -23.1315  -30.3690   22.5742 C   0  0  0  0  0  0  0  0  0  0  0  0
  -23.8897  -11.8989   20.0847 C   0  0  0  0  0  0  0  0  0  0  0  0
  -26.3558  -17.4256   17.3374 C   0  0  0  0  0  0  0  0  0  0  0  0
  -24.0316  -13.2991   20.0452 C   0  0  0  0  0  0  0  0  0  0  0  0
  -26.8203  -18.5029   18.1054 C   0  0  0  0  0  0  0  0  0  0  0  0
  -27.0306  -27.6288   20.4855 C   0  0  0  0  0  0  0  0  0  0  0  0
  -25.0776  -19.9109   17.1617 C   0  0  0  0  0  0  0  0  0  0  0  0
  -28.5188  -25.8203   20.2929 C   0  0  0  0  0  0  0  0  0  0  0  0
  -29.1283  -23.1536   20.8405 C   0  0  0  0  0  0  0  0  0  0  0  0
  -29.6634  -25.5025   21.0239 C   0  0  0  0  0  0  0  0  0  0  0  0
  -23.3509  -29.1378   21.9279 C   0  0  0  0  0  0  0  0  0  0  0  0
  -21.7836  -30.3832   22.8375 C   0  0  0  0  0  0  0  0  0  0  0  0
  -24.0629  -31.4072   22.9067 C   0  0  0  0  0  0  0  0  0  0  0  0
  -26.9308  -15.5825   19.8625 C   0  0  0  0  0  0  0  0  0  0  0  0
  -29.9152  -16.8269   19.6024 C   0  0  0  0  0  0  0  0  0  0  0  0
  -31.9076  -19.3721   18.5075 C   0  0  0  0  0  0  0  0  0  0  0  0
  -20.3952  -25.6519   20.3581 C   0  0  0  0  0  0  0  0  0  0  0  0
  -24.8532  -11.0252   20.8483 C   0  0  0  0  0  0  0  0  0  0  0  0
  -27.0502  -16.0926   17.3965 C   0  0  0  0  0  0  0  0  0  0  0  0
  -27.9977  -18.3651   19.0345 C   0  0  0  0  0  0  0  0  0  0  0  0
  -26.1749  -11.7159   21.1740 C   0  0  0  0  0  0  0  0  0  0  0  0
  -19.9573  -26.5886   23.7783 C   0  0  0  0  0  0  0  0  0  0  0  0
  -18.7597  -25.8121   17.1256 C   0  0  0  0  0  0  0  0  0  0  0  0
  -25.9239  -13.1149   21.7278 C   0  0  0  0  0  0  0  0  0  0  0  0
  -24.5813  -25.7048   16.6754 C   0  0  0  0  0  0  0  0  0  0  0  0
  -25.3627  -25.0630   15.5331 C   0  0  0  0  0  0  0  0  0  0  0  0
  -19.5198  -28.0483   23.7307 C   0  0  0  0  0  0  0  0  0  0  0  0
  -20.1965  -25.6314   16.6566 C   0  0  0  0  0  0  0  0  0  0  0  0
  -23.1286  -23.6518   16.8333 C   0  0  0  0  0  0  0  0  0  0  0  0
  -19.3793  -25.8173   22.6019 C   0  0  0  0  0  0  0  0  0  0  0  0
  -18.9325  -26.5161   18.4626 C   0  0  0  0  0  0  0  0  0  0  0  0
  -19.4194  -27.8577   21.1802 C   0  0  0  0  0  0  0  0  0  0  0  0
  -25.2062  -13.9954   20.6977 C   0  0  1  0  0  0  0  0  0  0  0  0
  -27.8258  -15.8799   18.6928 C   0  0  1  0  0  0  0  0  0  0  0  0
  -23.1435  -25.1819   16.7340 C   0  0  1  0  0  0  0  0  0  0  0  0
  -25.3570  -23.5277   15.6196 C   0  0  1  0  0  0  0  0  0  0  0  0
  -23.9071  -22.9892   15.6824 C   0  0  1  0  0  0  0  0  0  0  0  0
  -19.8522  -28.7197   22.3886 C   0  0  2  0  0  0  0  0  0  0  0  0
  -20.9506  -25.3101   17.9500 C   0  0  1  0  0  0  0  0  0  0  0  0
  -26.1472  -22.9514   14.4412 C   0  0  0  0  0  0  0  0  0  0  0  0
  -34.3009  -20.1259   18.4750 C   0  0  0  0  0  0  0  0  0  0  0  0
  -23.1056  -25.5031   19.2237 C   0  0  0  0  0  0  0  0  0  0  0  0
  -29.6967  -17.6390   22.5354 C   0  0  0  0  0  0  0  0  0  0  0  0
  -31.6409  -19.1764   22.1823 C   0  0  0  0  0  0  0  0  0  0  0  0
  -31.9248  -16.7177   21.8712 C   0  0  0  0  0  0  0  0  0  0  0  0
  -31.9972  -19.3448   15.5495 C   0  0  0  0  0  0  0  0  0  0  0  0
  -23.8530  -21.4672   15.8448 C   0  0  0  0  0  0  0  0  0  1  0  0
  -30.6193  -18.0413   20.1578 C   0  0  1  0  0  0  0  0  0  0  0  0
  -33.2123  -19.3676   17.7316 C   0  0  2  0  0  0  0  0  0  0  0  0
  -22.3900  -25.8067   17.9078 C   0  0  1  0  0  0  0  0  0  0  0  0
  -30.9470  -17.8960   21.6707 C   0  0  0  0  0  0  0  0  0  0  0  0
  -22.2320  -28.4216   21.7893 N   0  0  0  0  0  0  0  0  0  0  0  0
  -21.2966  -29.2053   22.3522 N   0  0  0  0  0  0  0  0  0  0  0  0
  -28.6392  -17.0402   19.0617 N   0  0  0  0  0  0  0  0  0  0  0  0
  -19.7325  -26.4282   21.3203 N   0  0  0  0  0  0  0  0  0  0  0  0
  -20.1644  -25.9481   19.0128 N   0  0  0  0  0  0  0  0  0  0  0  0
  -20.9792  -31.2882   23.4346 N   0  0  0  0  0  0  0  0  0  0  0  0
  -25.4103  -31.2309   22.5638 N   0  0  0  0  0  0  0  0  0  0  0  0
  -26.1390  -14.4626   19.6947 N   0  0  0  0  0  0  0  0  0  0  0  0
  -31.7876  -18.2584   19.3115 N   0  0  0  0  0  0  0  0  0  0  0  0
  -33.0237  -20.0040   16.3973 N   0  3  0  0  0  0  0  0  0  0  0  0
  -23.7134  -32.4527   23.5052 O   0  0  0  0  0  0  0  0  0  0  0  0
  -26.9578  -16.3141   20.8453 O   0  0  0  0  0  0  0  0  0  0  0  0
  -30.4795  -15.7306   19.6402 O   0  0  0  0  0  0  0  0  0  0  0  0
  -31.0794  -20.2753   18.4129 O   0  0  0  0  0  0  0  0  0  0  0  0
  -21.1520  -24.7283   20.6857 O   0  0  0  0  0  0  0  0  0  0  0  0
  -28.2144  -27.1436   20.0209 O   0  0  0  0  0  0  0  0  0  0  0  0
  -24.4500  -21.1306   17.0815 O   0  0  0  0  0  0  0  0  0  1  0  0
  -29.4201  -21.8733   21.1047 F   0  0  0  0  0  0  0  0  0  0  0  0
  -30.4734  -26.4738   21.4668 F   0  0  0  0  0  0  0  0  0  0  0  0
  1  2  1  0  0  0  0
  1  5  2  0  0  0  0
  2  6  2  0  0  0  0
  3  8  2  0  0  0  0
  3 15  1  0  0  0  0
  4  9  1  0  0  0  0
  4 15  2  0  0  0  0
  5 17  1  0  0  0  0
  6 19  1  0  0  0  0
  7 10  2  0  0  0  0
  7 18  1  0  0  0  0
  8 21  1  0  0  0  0
  9 21  2  0  0  0  0
 10 22  1  0  0  0  0
 11 12  2  0  0  0  0
 11 23  1  0  0  0  0
 12 24  1  0  0  0  0
 13 20  1  0  0  0  0
 13 22  2  0  0  0  0
 14 24  2  0  0  0  0
 14 25  1  0  0  0  0
 15 26  1  0  0  0  0
 16 26  1  0  0  0  0
 16 27  2  0  0  0  0
 16 28  1  0  0  0  0
 17 19  2  0  0  0  0
 17 33  1  0  0  0  0
 18 20  2  0  0  0  0
 18 34  1  0  0  0  0
 19 48  1  0  0  0  0
 20 35  1  0  0  0  0
 21 82  1  0  0  0  0
 22 83  1  0  0  0  0
 23 25  2  0  0  0  0
 23 82  1  0  0  0  0
 24 84  1  0  0  0  0
 25 85  1  0  0  0  0
 26 67  2  0  0  0  0
 27 68  1  0  0  0  0
 27 72  1  0  0  0  0
 28 73  1  0  0  0  0
 28 77  2  0  0  0  0
 29 49  1  0  0  0  0
 29 74  1  0  0  0  0
 29 78  2  0  0  0  0
 30 63  1  0  0  0  0
 30 69  1  0  0  0  0
 30 79  2  0  0  0  0
 31 64  1  0  0  0  0
 31 75  1  0  0  0  0
 31 80  2  0  0  0  0
 32 70  1  0  0  0  0
 32 71  1  0  0  0  0
 32 81  2  0  0  0  0
 33 36  1  0  0  0  0
 34 49  1  0  0  0  0
 35 69  1  0  0  0  0
 36 39  1  0  0  0  0
 37 42  1  0  0  0  0
 37 45  1  0  0  0  0
 38 43  1  0  0  0  0
 38 46  1  0  0  0  0
 39 48  1  0  0  0  0
 40 41  1  0  0  0  0
 40 50  1  0  0  0  0
 41 51  1  0  0  0  0
 42 53  1  0  0  0  0
 43 54  1  0  0  0  0
 44 50  1  0  0  0  0
 44 52  1  0  0  0  0
 45 70  1  0  0  0  0
 46 71  1  0  0  0  0
 47 53  1  0  0  0  0
 47 70  1  0  0  0  0
 48 74  1  0  0  0  0
 49 69  1  0  0  0  0
 50 65  1  0  0  0  0
 51 52  1  0  0  0  0
 51 55  1  0  0  0  0
 52 62  1  0  0  0  0
 53 68  1  0  0  0  0
 54 65  1  0  0  0  0
 54 71  1  0  0  0  0
 56 64  1  0  0  0  0
 57 65  1  0  0  0  0
 58 66  1  0  0  0  0
 59 66  1  0  0  0  0
 60 66  1  0  0  0  0
 61 76  1  0  0  0  0
 62 83  1  0  0  0  0
 63 66  1  0  0  0  0
 63 75  1  0  0  0  0
 64 76  1  0  0  0  0
 67 68  1  0  0  0  0
M  CHG  1  76   1
M  ISO  4  32 100  62 101  71 100  83 101
M  END
> <Batch ID>
0146

> <Smiles>
CNC(C)C(=O)NC(C(=O)N1Cc2cc([101O:1][101CH2:1]C3CC(C(C)C4CCC[100N:0]4[100C:0](=O)N4CCCC(n5nc(-c6ccc(Oc7ccc(F)cc7F)cc6)c(C(N)=O)c5N)C4)CCC3C)ccc2CC1C(=O)NC1CCCc2ccccc21)C(C)(C)C

> <Shape>
0.225

> <Color>
0.081

> <Negative vol penalty>
0.000

$$$$

  -OEChem-04052321313D

 89 98  0     1  0  0  0  0  0999 V2000
  -23.7938  -14.1182   16.4872 C   0  0  0  0  0  0  0  0  0  0  0  0
  -24.1788  -15.3903   16.8983 C   0  0  0  0  0  0  0  0  0  0  0  0
  -23.0671   -9.8931   19.9334 C   0  0  0  0  0  0  0  0  0  0  0  0
  -23.8368   -9.8775   22.2235 C   0  0  0  0  0  0  0  0  0  0  0  0
  -23.0493  -13.9600   15.3191 C   0  0  0  0  0  0  0  0  0  0  0  0
  -23.8204  -16.5049   16.1408 C   0  0  0  0  0  0  0  0  0  0  0  0
  -22.0918  -20.3169   18.9914 C   0  0  0  0  0  0  0  0  0  0  0  0
  -22.3183   -8.7418   20.1771 C   0  0  0  0  0  0  0  0  0  0  0  0
  -23.0879   -8.7262   22.4673 C   0  0  0  0  0  0  0  0  0  0  0  0
  -23.0380  -21.0880   19.6651 C   0  0  0  0  0  0  0  0  0  0  0  0
  -21.0945   -5.9886   23.7901 C   0  0  0  0  0  0  0  0  0  0  0  0
  -20.3430   -5.9393   24.9641 C   0  0  0  0  0  0  0  0  0  0  0  0
  -22.8684  -22.7800   17.9541 C   0  0  0  0  0  0  0  0  0  0  0  0
  -28.6667  -20.2863   19.8248 C   0  0  0  0  0  0  0  0  0  0  0  0
  -19.1054   -7.8889   24.2537 C   0  0  0  0  0  0  0  0  0  0  0  0
  -23.8264  -10.4609   20.9565 C   0  0  0  0  0  0  0  0  0  0  0  0
  -24.1808  -12.9852   20.8556 C   0  0  0  0  0  0  0  0  0  0  0  0
  -22.6733  -15.0740   14.5520 C   0  0  0  0  0  0  0  0  0  0  0  0
  -21.5339  -20.7673   17.7863 C   0  0  0  0  0  0  0  0  0  0  0  0
  -23.0713  -16.3612   14.9606 C   0  0  0  0  0  0  0  0  0  0  0  0
  -21.9134  -22.0139   17.2684 C   0  0  0  0  0  0  0  0  0  0  0  0
  -22.3287   -8.1584   21.4441 C   0  0  0  0  0  0  0  0  0  0  0  0
  -23.4286  -22.3184   19.1450 C   0  0  0  0  0  0  0  0  0  0  0  0
  -20.8515   -6.9880   22.8478 C   0  0  0  0  0  0  0  0  0  0  0  0
  -28.1614  -20.9642   18.6881 C   0  0  0  0  0  0  0  0  0  0  0  0
  -19.3484   -6.8895   25.1959 C   0  0  0  0  0  0  0  0  0  0  0  0
  -19.8570   -7.9382   23.0796 C   0  0  0  0  0  0  0  0  0  0  0  0
  -24.6005  -11.6499   20.7052 C   0  0  0  0  0  0  0  0  0  0  0  0
  -28.4777  -20.2058   17.5826 C   0  0  0  0  0  0  0  0  0  0  0  0
  -29.2766  -19.1344   19.3794 C   0  0  0  0  0  0  0  0  0  0  0  0
  -25.2753  -13.7319   20.4937 C   0  0  0  0  0  0  0  0  0  0  0  0
  -22.9148  -13.5041   21.2841 C   0  0  0  0  0  0  0  0  0  0  0  0
  -21.5113  -19.7064   14.7900 C   0  0  0  0  0  0  0  0  0  0  0  0
  -19.4542  -22.1744   14.3436 C   0  0  0  0  0  0  0  0  0  0  0  0
  -18.3142  -25.2197   15.3799 C   0  0  0  0  0  0  0  0  0  0  0  0
  -30.7650  -14.7211   20.6669 C   0  0  0  0  0  0  0  0  0  0  0  0
  -21.9088  -14.8491   13.2716 C   0  0  0  0  0  0  0  0  0  0  0  0
  -20.4947  -19.9358   17.0856 C   0  0  0  0  0  0  0  0  0  0  0  0
  -21.3295  -22.5519   15.9885 C   0  0  0  0  0  0  0  0  0  0  0  0
  -21.2496  -16.1131   12.7257 C   0  0  0  0  0  0  0  0  0  0  0  0
  -29.6049  -12.3620   18.2657 C   0  0  0  0  0  0  0  0  0  0  0  0
  -22.2324  -17.2796   12.7473 C   0  0  0  0  0  0  0  0  0  0  0  0
  -26.6851  -20.7956   15.7630 C   0  0  0  0  0  0  0  0  0  0  0  0
  -27.3546  -19.5358   15.3102 C   0  0  0  0  0  0  0  0  0  0  0  0
  -28.1678  -12.0722   18.7024 C   0  0  0  0  0  0  0  0  0  0  0  0
  -30.5283  -12.5683   19.4644 C   0  0  0  0  0  0  0  0  0  0  0  0
  -28.6363  -13.2979   20.8650 C   0  0  0  0  0  0  0  0  0  0  0  0
  -22.6806  -17.5968   14.1791 C   0  0  1  0  0  0  0  0  0  0  0  0
  -28.1326  -20.5438   16.1297 C   0  0  0  0  0  0  0  0  0  0  0  0
  -20.3728  -20.2593   15.5998 C   0  0  1  0  0  0  0  0  0  0  0  0
  -27.6562  -13.1379   19.6902 C   0  0  2  0  0  0  0  0  0  0  0  0
  -16.6515  -27.0049   14.7921 C   0  0  0  0  0  0  0  0  0  0  0  0
  -28.9981  -16.7029   17.4291 C   0  0  0  0  0  0  0  0  0  0  0  0
  -31.1875  -17.9525   17.2030 C   0  0  0  0  0  0  0  0  0  0  0  0
  -21.2625  -23.1066   12.0696 C   0  0  0  0  0  0  0  0  0  0  0  0
  -20.1147  -25.3297   12.1612 C   0  0  0  0  0  0  0  0  0  0  0  0
  -18.8136  -23.2788   11.5925 C   0  0  0  0  0  0  0  0  0  0  0  0
  -16.8959  -24.9104   17.9590 C   0  0  0  0  0  0  0  0  0  0  0  0
  -26.5276  -24.1110   19.6877 C   0  0  0  0  0  0  0  0  0  0  0  0
  -30.0796  -18.1072   21.5068 C   0  0  0  0  0  0  0  0  0  0  0  0
  -30.8473  -16.8611   21.9209 C   0  0  0  0  0  0  0  0  0  0  0  0
  -25.1824  -23.9185   19.0051 C   0  0  0  0  0  0  0  0  0  1  0  0
  -27.2479  -22.7900   19.9078 C   0  0  0  0  0  0  0  0  0  0  0  0
  -19.5960  -23.6304   13.9708 C   0  0  1  0  0  0  0  0  0  0  0  0
  -16.9081  -25.7455   15.6050 C   0  0  2  0  0  0  0  0  0  0  0  0
  -29.6619  -18.0524   17.1481 C   0  0  0  0  0  0  0  0  0  0  0  0
  -19.9593  -23.8256   12.4716 C   0  0  0  0  0  0  0  0  0  0  0  0
  -25.8631  -11.5509   20.2807 N   0  0  0  0  0  0  0  0  0  0  0  0
  -29.1558  -19.0960   18.0148 N   0  0  0  0  0  0  0  0  0  0  0  0
  -26.2461  -12.8335   20.1612 N   0  0  0  0  0  0  0  0  0  0  0  0
  -20.3217  -21.6990   15.3371 N   0  0  0  0  0  0  0  0  0  0  0  0
  -29.9868  -13.5924   20.3610 N   0  0  0  0  0  0  0  0  0  0  0  0
  -25.4923  -15.0629   20.4307 N   0  0  0  0  0  0  0  0  0  0  0  0
  -21.8996  -12.5975   21.6183 N   0  0  0  0  0  0  0  0  0  0  0  0
  -29.9070  -18.1485   20.0542 N   0  0  0  0  0  0  0  0  0  0  0  0
  -21.6510  -18.3346   14.8792 N   0  0  0  0  0  0  0  0  0  0  0  0
  -18.3523  -24.2780   14.3734 N   0  0  0  0  0  0  0  0  0  0  0  0
  -30.1743  -15.6461   21.5190 N   0  0  0  0  0  0  0  0  0  0  0  0
  -16.6991  -26.0653   17.0455 N   0  3  0  0  0  0  0  0  0  0  0  0
  -22.6852  -14.7354   21.3525 O   0  0  0  0  0  0  0  0  0  0  0  0
  -22.2103  -20.4679   14.1318 O   0  0  0  0  0  0  0  0  0  0  0  0
  -18.6001  -21.4862   13.7792 O   0  0  0  0  0  0  0  0  0  0  0  0
  -19.2826  -25.6083   16.0292 O   0  0  0  0  0  0  0  0  0  0  0  0
  -31.8999  -14.8944   20.2098 O   0  0  0  0  0  0  0  0  0  0  0  0
  -21.5979   -7.0351   21.6824 O   0  0  0  0  0  0  0  0  0  0  0  0
  -24.3524  -23.0728   19.8002 O   0  0  0  0  0  0  0  0  0  1  0  0
  -27.4804  -22.1533   18.6587 O   0  0  0  0  0  0  0  0  0  0  0  0
  -18.6258   -6.8412   26.3227 F   0  0  0  0  0  0  0  0  0  0  0  0
  -19.6182   -8.9000   22.1776 F   0  0  0  0  0  0  0  0  0  0  0  0
  1  2  1  0  0  0  0
  1  5  2  0  0  0  0
  2  6  2  0  0  0  0
  3  8  2  0  0  0  0
  3 16  1  0  0  0  0
  4  9  1  0  0  0  0
  4 16  2  0  0  0  0
  5 18  1  0  0  0  0
  6 20  1  0  0  0  0
  7 10  2  0  0  0  0
  7 19  1  0  0  0  0
  8 22  1  0  0  0  0
  9 22  2  0  0  0  0
 10 23  1  0  0  0  0
 11 12  2  0  0  0  0
 11 24  1  0  0  0  0
 12 26  1  0  0  0  0
 13 21  1  0  0  0  0
 13 23  2  0  0  0  0
 14 25  1  0  0  0  0
 14 30  2  0  0  0  0
 15 26  2  0  0  0  0
 15 27  1  0  0  0  0
 16 28  1  0  0  0  0
 17 28  1  0  0  0  0
 17 31  2  0  0  0  0
 17 32  1  0  0  0  0
 18 20  2  0  0  0  0
 18 37  1  0  0  0  0
 19 21  2  0  0  0  0
 19 38  1  0  0  0  0
 20 48  1  0  0  0  0
 21 39  1  0  0  0  0
 22 85  1  0  0  0  0
 23 86  1  0  0  0  0
 24 27  2  0  0  0  0
 24 85  1  0  0  0  0
 25 29  2  0  0  0  0
 25 87  1  0  0  0  0
 26 88  1  0  0  0  0
 27 89  1  0  0  0  0
 28 68  2  0  0  0  0
 29 49  1  0  0  0  0
 29 69  1  0  0  0  0
 30 69  1  0  0  0  0
 30 75  1  0  0  0  0
 31 70  1  0  0  0  0
 31 73  1  0  0  0  0
 32 74  1  0  0  0  0
 32 80  2  0  0  0  0
 33 50  1  0  0  0  0
 33 76  1  0  0  0  0
 33 81  2  0  0  0  0
 34 64  1  0  0  0  0
 34 71  1  0  0  0  0
 34 82  2  0  0  0  0
 35 65  1  0  0  0  0
 35 77  1  0  0  0  0
 35 83  2  0  0  0  0
 36 72  1  0  0  0  0
 36 78  1  0  0  0  0
 36 84  2  0  0  0  0
 37 40  1  0  0  0  0
 38 50  1  0  0  0  0
 39 71  1  0  0  0  0
 40 42  1  0  0  0  0
 41 45  1  0  0  0  0
 41 46  1  0  0  0  0
 42 48  1  0  0  0  0
 43 44  1  0  0  0  0
 43 49  1  0  0  0  0
 44 49  1  0  0  0  0
 45 51  1  0  0  0  0
 46 72  1  0  0  0  0
 47 51  1  0  0  0  0
 47 72  1  0  0  0  0
 48 76  1  0  0  0  0
 50 71  1  0  0  0  0
 51 70  1  0  0  0  0
 52 65  1  0  0  0  0
 53 66  1  0  0  0  0
 54 66  1  0  0  0  0
 55 67  1  0  0  0  0
 56 67  1  0  0  0  0
 57 67  1  0  0  0  0
 58 79  1  0  0  0  0
 59 62  1  0  0  0  0
 59 63  1  0  0  0  0
 60 61  1  0  0  0  0
 60 75  1  0  0  0  0
 61 78  1  0  0  0  0
 62 86  1  0  0  0  0
 63 87  1  0  0  0  0
 64 67  1  0  0  0  0
 64 77  1  0  0  0  0
 65 79  1  0  0  0  0
 66 69  1  0  0  0  0
 68 70  1  0  0  0  0
M  CHG  1  79   1
M  ISO  4  36 100  62 101  78 100  86 101
M  END
> <Batch ID>
0146

> <Smiles>
CNC(C)C(=O)NC(C(=O)N1Cc2cc([101O:1][101CH2:1]CCOc3cc(NCC[100NH:0][100C:0](=O)N4CCCC(n5nc(-c6ccc(Oc7ccc(F)cc7F)cc6)c(C(N)=O)c5N)C4)n(C(C)C)c3C3CC3)ccc2CC1C(=O)NC1CCCc2ccccc21)C(C)(C)C

> <Shape>
0.196

> <Color>
0.189

> <Negative vol penalty>
0.000

$$$$

  -OEChem-04052321313D

 88 96  0     1  0  0  0  0  0999 V2000
  -27.3247  -29.3549   11.6243 C   0  0  0  0  0  0  0  0  0  0  0  0
  -26.8647  -28.2692   12.3626 C   0  0  0  0  0  0  0  0  0  0  0  0
  -23.3615   -9.8328   19.9296 C   0  0  0  0  0  0  0  0  0  0  0  0
  -24.3936   -9.5016   22.0887 C   0  0  0  0  0  0  0  0  0  0  0  0
  -28.2574  -30.2296   12.1802 C   0  0  0  0  0  0  0  0  0  0  0  0
  -27.3380  -28.0569   13.6569 C   0  0  0  0  0  0  0  0  0  0  0  0
  -25.2451  -25.5188   20.0204 C   0  0  0  0  0  0  0  0  0  0  0  0
  -22.8951   -8.5184   19.9508 C   0  0  0  0  0  0  0  0  0  0  0  0
  -23.9272   -8.1872   22.1101 C   0  0  0  0  0  0  0  0  0  0  0  0
  -25.6372  -24.6046   20.9972 C   0  0  0  0  0  0  0  0  0  0  0  0
  -21.0212   -6.5873   22.7550 C   0  0  0  0  0  0  0  0  0  0  0  0
  -20.4434   -6.1254   23.9375 C   0  0  0  0  0  0  0  0  0  0  0  0
  -27.1879  -26.2261   21.8835 C   0  0  0  0  0  0  0  0  0  0  0  0
  -30.6854  -17.5071   24.4734 C   0  0  0  0  0  0  0  0  0  0  0  0
  -28.5594  -16.3669   24.6040 C   0  0  0  0  0  0  0  0  0  0  0  0
  -22.1229   -4.3945   24.0821 C   0  0  0  0  0  0  0  0  0  0  0  0
  -24.1108  -10.3244   20.9985 C   0  0  0  0  0  0  0  0  0  0  0  0
  -28.6597  -18.7679   24.8529 C   0  0  0  0  0  0  0  0  0  0  0  0
  -23.9355  -12.8259   21.4670 C   0  0  0  0  0  0  0  0  0  0  0  0
  -28.7351  -30.0334   13.4855 C   0  0  0  0  0  0  0  0  0  0  0  0
  -25.8302  -26.7918   19.9610 C   0  0  0  0  0  0  0  0  0  0  0  0
  -28.2790  -28.9290   14.2303 C   0  0  0  0  0  0  0  0  0  0  0  0
  -26.7996  -27.1555   20.9066 C   0  0  0  0  0  0  0  0  0  0  0  0
  -30.0436  -18.7277   24.6828 C   0  0  0  0  0  0  0  0  0  0  0  0
  -27.9176  -17.5875   24.8135 C   0  0  0  0  0  0  0  0  0  0  0  0
  -23.1780   -7.6956   21.0411 C   0  0  0  0  0  0  0  0  0  0  0  0
  -26.6109  -24.9571   21.9272 C   0  0  0  0  0  0  0  0  0  0  0  0
  -22.1498   -5.9528   22.2360 C   0  0  0  0  0  0  0  0  0  0  0  0
  -29.9432  -16.3267   24.4339 C   0  0  0  0  0  0  0  0  0  0  0  0
  -20.9942   -5.0290   24.6011 C   0  0  0  0  0  0  0  0  0  0  0  0
  -22.7007   -4.8564   22.8995 C   0  0  0  0  0  0  0  0  0  0  0  0
  -24.5934  -11.6819   20.9768 C   0  0  0  0  0  0  0  0  0  0  0  0
  -24.8046  -13.8580   21.2108 C   0  0  0  0  0  0  0  0  0  0  0  0
  -27.5098  -20.8146   23.8763 C   0  0  0  0  0  0  0  0  0  0  0  0
  -26.8765  -21.9867   24.0224 C   0  0  0  0  0  0  0  0  0  0  0  0
  -27.9818  -20.0682   25.0739 C   0  0  0  0  0  0  0  0  0  0  0  0
  -22.6533  -12.9449   22.0976 C   0  0  0  0  0  0  0  0  0  0  0  0
  -27.5644  -28.3653   17.8114 C   0  0  0  0  0  0  0  0  0  0  0  0
  -27.2122  -30.8222   19.8999 C   0  0  0  0  0  0  0  0  0  0  0  0
  -26.6215  -31.8394   23.1036 C   0  0  0  0  0  0  0  0  0  0  0  0
  -30.7424  -14.1022   20.4801 C   0  0  0  0  0  0  0  0  0  0  0  0
  -29.7784  -30.9787   14.0265 C   0  0  0  0  0  0  0  0  0  0  0  0
  -25.3769  -27.7759   18.9176 C   0  0  0  0  0  0  0  0  0  0  0  0
  -27.4440  -28.5168   20.8983 C   0  0  0  0  0  0  0  0  0  0  0  0
  -29.9482  -30.8962   15.5413 C   0  0  0  0  0  0  0  0  0  0  0  0
  -28.2553  -15.1806   18.1719 C   0  0  0  0  0  0  0  0  0  0  0  0
  -30.0358  -29.4410   15.9902 C   0  0  0  0  0  0  0  0  0  0  0  0
  -26.9754  -14.5095   18.6733 C   0  0  0  0  0  0  0  0  0  0  0  0
  -29.4749  -14.2810   18.3592 C   0  0  0  0  0  0  0  0  0  0  0  0
  -28.3880  -13.1061   20.2333 C   0  0  0  0  0  0  0  0  0  0  0  0
  -28.7500  -28.6793   15.6466 C   0  0  1  0  0  0  0  0  0  0  0  0
  -26.4090  -28.8628   18.6331 C   0  0  1  0  0  0  0  0  0  0  0  0
  -27.1394  -13.9970   20.1168 C   0  0  2  0  0  0  0  0  0  0  0  0
  -30.8657  -19.9751   24.7194 C   0  0  0  0  0  0  0  0  0  0  0  0
  -26.4320  -33.9091   24.5099 C   0  0  0  0  0  0  0  0  0  0  0  0
  -30.2493  -31.1151   19.8739 C   0  0  0  0  0  0  0  0  0  0  0  0
  -30.0637  -32.5003   21.9512 C   0  0  0  0  0  0  0  0  0  0  0  0
  -28.9923  -33.2769   19.8365 C   0  0  0  0  0  0  0  0  0  0  0  0
  -25.6502  -16.6447   24.3712 C   0  0  0  0  0  0  0  0  0  0  0  0
  -23.8156  -31.2333   23.8236 C   0  0  0  0  0  0  0  0  0  0  0  0
  -26.3609  -22.7886   22.8712 C   0  0  0  0  0  0  0  0  0  1  0  0
  -31.8799  -13.8547   22.6719 C   0  0  0  0  0  0  0  0  0  0  0  0
  -31.7615  -15.1571   23.4431 C   0  0  0  0  0  0  0  0  0  0  0  0
  -27.9841  -31.3292   21.0942 C   0  0  1  0  0  0  0  0  0  0  0  0
  -25.6809  -32.8874   23.6704 C   0  0  2  0  0  0  0  0  0  0  0  0
  -29.3118  -32.0290   20.6882 C   0  0  0  0  0  0  0  0  0  0  0  0
  -25.7882  -11.9607   20.4490 N   0  0  0  0  0  0  0  0  0  0  0  0
  -25.8880  -13.2917   20.6060 N   0  0  0  0  0  0  0  0  0  0  0  0
  -26.9717  -29.4417   19.8547 N   0  0  0  0  0  0  0  0  0  0  0  0
  -29.5737  -13.8307   19.7497 N   0  0  0  0  0  0  0  0  0  0  0  0
  -24.7403  -15.1858   21.4460 N   0  0  0  0  0  0  0  0  0  0  0  0
  -21.8900  -11.7843   22.2837 N   0  0  0  0  0  0  0  0  0  0  0  0
  -26.5148  -17.6040   24.9824 N   0  0  0  0  0  0  0  0  0  0  0  0
  -27.7035  -29.0017   16.5928 N   0  0  0  0  0  0  0  0  0  0  0  0
  -27.0652  -32.1795   21.8431 N   0  0  0  0  0  0  0  0  0  0  0  0
  -30.7512  -13.6462   21.7926 N   0  0  0  0  0  0  0  0  0  0  0  0
  -24.6454  -32.2445   24.5279 N   0  3  0  0  0  0  0  0  0  0  0  0
  -27.8076  -20.4769   26.2165 O   0  0  0  0  0  0  0  0  0  0  0  0
  -22.1911  -14.0500   22.4699 O   0  0  0  0  0  0  0  0  0  0  0  0
  -28.2779  -27.4713   18.2512 O   0  0  0  0  0  0  0  0  0  0  0  0
  -26.8305  -31.6226   19.0425 O   0  0  0  0  0  0  0  0  0  0  0  0
  -26.9346  -30.8227   23.7190 O   0  0  0  0  0  0  0  0  0  0  0  0
  -31.7046  -14.7110   19.9998 O   0  0  0  0  0  0  0  0  0  0  0  0
  -22.7228   -6.4131   21.0623 O   0  0  0  0  0  0  0  0  0  0  0  0
  -26.9960  -24.0665   22.8813 O   0  0  0  0  0  0  0  0  0  1  0  0
  -30.5703  -15.1364   24.2281 O   0  0  0  0  0  0  0  0  0  0  0  0
  -20.4401   -4.5865   25.7375 F   0  0  0  0  0  0  0  0  0  0  0  0
  -23.7855   -4.2435   22.4064 F   0  0  0  0  0  0  0  0  0  0  0  0
  1  2  1  0  0  0  0
  1  5  2  0  0  0  0
  2  6  2  0  0  0  0
  3  8  2  0  0  0  0
  3 17  1  0  0  0  0
  4  9  1  0  0  0  0
  4 17  2  0  0  0  0
  5 20  1  0  0  0  0
  6 22  1  0  0  0  0
  7 10  2  0  0  0  0
  7 21  1  0  0  0  0
  8 26  1  0  0  0  0
  9 26  2  0  0  0  0
 10 27  1  0  0  0  0
 11 12  2  0  0  0  0
 11 28  1  0  0  0  0
 12 30  1  0  0  0  0
 13 23  1  0  0  0  0
 13 27  2  0  0  0  0
 14 24  2  0  0  0  0
 14 29  1  0  0  0  0
 15 25  1  0  0  0  0
 15 29  2  0  0  0  0
 16 30  2  0  0  0  0
 16 31  1  0  0  0  0
 17 32  1  0  0  0  0
 18 24  1  0  0  0  0
 18 25  2  0  0  0  0
 18 36  1  0  0  0  0
 19 32  1  0  0  0  0
 19 33  2  0  0  0  0
 19 37  1  0  0  0  0
 20 22  2  0  0  0  0
 20 42  1  0  0  0  0
 21 23  2  0  0  0  0
 21 43  1  0  0  0  0
 22 51  1  0  0  0  0
 23 44  1  0  0  0  0
 24 54  1  0  0  0  0
 25 73  1  0  0  0  0
 26 84  1  0  0  0  0
 27 85  1  0  0  0  0
 28 31  2  0  0  0  0
 28 84  1  0  0  0  0
 29 86  1  0  0  0  0
 30 87  1  0  0  0  0
 31 88  1  0  0  0  0
 32 67  2  0  0  0  0
 33 68  1  0  0  0  0
 33 71  1  0  0  0  0
 34 35  2  0  0  0  0
 34 36  1  0  0  0  0
 35 61  1  0  0  0  0
 36 78  2  0  0  0  0
 37 72  1  0  0  0  0
 37 79  2  0  0  0  0
 38 52  1  0  0  0  0
 38 74  1  0  0  0  0
 38 80  2  0  0  0  0
 39 64  1  0  0  0  0
 39 69  1  0  0  0  0
 39 81  2  0  0  0  0
 40 65  1  0  0  0  0
 40 75  1  0  0  0  0
 40 82  2  0  0  0  0
 41 70  1  0  0  0  0
 41 76  1  0  0  0  0
 41 83  2  0  0  0  0
 42 45  1  0  0  0  0
 43 52  1  0  0  0  0
 44 69  1  0  0  0  0
 45 47  1  0  0  0  0
 46 48  1  0  0  0  0
 46 49  1  0  0  0  0
 47 51  1  0  0  0  0
 48 53  1  0  0  0  0
 49 70  1  0  0  0  0
 50 53  1  0  0  0  0
 50 70  1  0  0  0  0
 51 74  1  0  0  0  0
 52 69  1  0  0  0  0
 53 68  1  0  0  0  0
 55 65  1  0  0  0  0
 56 66  1  0  0  0  0
 57 66  1  0  0  0  0
 58 66  1  0  0  0  0
 59 73  1  0  0  0  0
 60 77  1  0  0  0  0
 61 85  1  0  0  0  0
 62 63  1  0  0  0  0
 62 76  1  0  0  0  0
 63 86  1  0  0  0  0
 64 66  1  0  0  0  0
 64 75  1  0  0  0  0
 65 77  1  0  0  0  0
 67 68  1  0  0  0  0
M  CHG  1  77   1
M  ISO  4  41 100  61 101  76 100  85 101
M  END
> <Batch ID>
0146

> <Smiles>
CNc1cc(OCC[100NH:0][100C:0](=O)N2CCCC(n3nc(-c4ccc(Oc5ccc(F)cc5F)cc4)c(C(N)=O)c3N)C2)cc(C)c1C(=O)C=C[101CH2:1][101O:1]c1ccc2c(c1)CN(C(=O)C(NC(=O)C(C)NC)C(C)(C)C)C(C(=O)NC1CCCc3ccccc31)C2

> <Shape>
0.222

> <Color>
0.123

> <Negative vol penalty>
0.000

$$$$

  -OEChem-04052321313D

 87 96  0     1  0  0  0  0  0999 V2000
  -31.5874  -24.8042   16.5894 C   0  0  0  0  0  0  0  0  0  0  0  0
  -30.5430  -24.3972   17.4136 C   0  0  0  0  0  0  0  0  0  0  0  0
  -26.6479  -18.8898   19.7313 C   0  0  0  0  0  0  0  0  0  0  0  0
  -25.4071  -17.5640   18.1377 C   0  0  0  0  0  0  0  0  0  0  0  0
  -32.2823  -25.9787   16.8752 C   0  0  0  0  0  0  0  0  0  0  0  0
  -30.1937  -25.1640   18.5246 C   0  0  0  0  0  0  0  0  0  0  0  0
  -25.1854  -25.7649   18.9732 C   0  0  0  0  0  0  0  0  0  0  0  0
  -26.0536  -20.0481   19.2305 C   0  0  0  0  0  0  0  0  0  0  0  0
  -24.8127  -18.7222   17.6369 C   0  0  0  0  0  0  0  0  0  0  0  0
  -24.4597  -24.6940   19.4932 C   0  0  0  0  0  0  0  0  0  0  0  0
  -25.6501  -21.2529   15.5572 C   0  0  0  0  0  0  0  0  0  0  0  0
  -25.5774  -21.3970   14.1717 C   0  0  0  0  0  0  0  0  0  0  0  0
  -24.4104  -25.7806   21.6463 C   0  0  0  0  0  0  0  0  0  0  0  0
  -22.5847  -20.2054   21.3100 C   0  0  0  0  0  0  0  0  0  0  0  0
  -23.1679  -21.5084   14.3098 C   0  0  0  0  0  0  0  0  0  0  0  0
  -26.3247  -17.6478   19.1849 C   0  0  0  0  0  0  0  0  0  0  0  0
  -28.3128  -16.1468   19.7344 C   0  0  0  0  0  0  0  0  0  0  0  0
  -31.9349  -26.7653   17.9847 C   0  0  0  0  0  0  0  0  0  0  0  0
  -25.5391  -26.8485   19.7901 C   0  0  0  0  0  0  0  0  0  0  0  0
  -30.8854  -26.3495   18.8261 C   0  0  0  0  0  0  0  0  0  0  0  0
  -25.1384  -26.8652   21.1337 C   0  0  0  0  0  0  0  0  0  0  0  0
  -22.2376  -21.5668   21.1285 C   0  0  0  0  0  0  0  0  0  0  0  0
  -25.1359  -19.9643   18.1833 C   0  0  0  0  0  0  0  0  0  0  0  0
  -24.0746  -24.7004   20.8306 C   0  0  0  0  0  0  0  0  0  0  0  0
  -24.4817  -21.2365   16.3190 C   0  0  0  0  0  0  0  0  0  0  0  0
  -24.3364  -21.5247   13.5480 C   0  0  0  0  0  0  0  0  0  0  0  0
  -23.2407  -21.3643   15.6953 C   0  0  0  0  0  0  0  0  0  0  0  0
  -26.9387  -16.4510   19.7015 C   0  0  0  0  0  0  0  0  0  0  0  0
  -21.0028  -21.7574   21.7083 C   0  0  0  0  0  0  0  0  0  0  0  0
  -21.5513  -19.6052   21.9951 C   0  0  0  0  0  0  0  0  0  0  0  0
  -28.3756  -14.9046   20.3172 C   0  0  0  0  0  0  0  0  0  0  0  0
  -29.4324  -16.9181   19.2791 C   0  0  0  0  0  0  0  0  0  0  0  0
  -28.2841  -28.1266   20.7570 C   0  0  0  0  0  0  0  0  0  0  0  0
  -26.3347  -30.3862   22.0282 C   0  0  0  0  0  0  0  0  0  0  0  0
  -23.2378  -31.2153   23.1982 C   0  0  0  0  0  0  0  0  0  0  0  0
  -23.0189  -14.2491   21.4729 C   0  0  0  0  0  0  0  0  0  0  0  0
  -32.7459  -28.0022   18.2801 C   0  0  0  0  0  0  0  0  0  0  0  0
  -26.2991  -28.0083   19.2073 C   0  0  0  0  0  0  0  0  0  0  0  0
  -25.4755  -28.0141   22.0474 C   0  0  0  0  0  0  0  0  0  0  0  0
  -32.0692  -28.9537   19.2634 C   0  0  0  0  0  0  0  0  0  0  0  0
  -25.1305  -12.1959   19.4499 C   0  0  0  0  0  0  0  0  0  0  0  0
  -21.9231  -14.7094   24.8988 C   0  0  0  0  0  0  0  0  0  0  0  0
  -31.5232  -28.1836   20.4616 C   0  0  0  0  0  0  0  0  0  0  0  0
  -26.4545  -12.1350   20.2036 C   0  0  0  0  0  0  0  0  0  0  0  0
  -21.6331  -16.1057   24.3665 C   0  0  0  0  0  0  0  0  0  0  0  0
  -23.9613  -12.2238   20.4221 C   0  0  0  0  0  0  0  0  0  0  0  0
  -23.0746  -14.2504   24.0177 C   0  0  0  0  0  0  0  0  0  0  0  0
  -25.3368  -13.4115   22.1201 C   0  0  0  0  0  0  0  0  0  0  0  0
  -30.4606  -27.1673   20.0265 C   0  0  1  0  0  0  0  0  0  0  0  0
  -27.0481  -28.8208   20.2590 C   0  0  1  0  0  0  0  0  0  0  0  0
  -26.5971  -13.2643   21.2365 C   0  0  2  0  0  0  0  0  0  0  0  0
  -21.8359  -15.9553   22.8563 C   0  0  1  0  0  0  0  0  0  0  0  0
  -20.1761  -22.9790   21.8086 C   0  0  0  0  0  0  0  0  0  0  0  0
  -21.9591  -33.1247   24.2063 C   0  0  0  0  0  0  0  0  0  0  0  0
  -19.5627  -19.9251   24.3838 C   0  0  0  0  0  0  0  0  0  0  0  0
  -18.4433  -19.3474   22.1884 C   0  0  0  0  0  0  0  0  0  0  0  0
  -27.7251  -29.9032   24.7009 C   0  0  0  0  0  0  0  0  0  0  0  0
  -25.8276  -31.0897   25.8233 C   0  0  0  0  0  0  0  0  0  0  0  0
  -27.2624  -32.3061   24.1849 C   0  0  0  0  0  0  0  0  0  0  0  0
  -21.3208  -31.2734   20.9442 C   0  0  0  0  0  0  0  0  0  0  0  0
  -23.0549  -22.5872   20.4427 C   0  0  0  0  0  0  0  0  0  1  0  0
  -22.3324  -17.2460   22.2175 C   0  0  0  0  0  0  0  0  0  0  0  0
  -25.6278  -30.5676   23.3497 C   0  0  1  0  0  0  0  0  0  0  0  0
  -22.3424  -32.4092   22.9202 C   0  0  2  0  0  0  0  0  0  0  0  0
  -19.3433  -20.3395   22.9275 C   0  0  0  0  0  0  0  0  0  0  0  0
  -26.6059  -30.9439   24.4983 C   0  0  0  0  0  0  0  0  0  0  0  0
  -26.1831  -15.4803   20.2217 N   0  0  0  0  0  0  0  0  0  0  0  0
  -20.5951  -20.5581   22.2317 N   0  0  0  0  0  0  0  0  0  0  0  0
  -27.0855  -14.5539   20.5870 N   0  0  0  0  0  0  0  0  0  0  0  0
  -26.2254  -29.1217   21.4324 N   0  0  0  0  0  0  0  0  0  0  0  0
  -24.0707  -13.3258   21.3782 N   0  0  0  0  0  0  0  0  0  0  0  0
  -22.7919  -14.8506   22.7129 N   0  0  0  0  0  0  0  0  0  0  0  0
  -29.4079  -14.0891   20.6199 N   0  0  0  0  0  0  0  0  0  0  0  0
  -29.8644  -16.7520   17.9562 N   0  0  0  0  0  0  0  0  0  0  0  0
  -21.3832  -18.2886   22.4273 N   0  0  0  0  0  0  0  0  0  0  0  0
  -29.2017  -27.8322   19.7666 N   0  0  0  0  0  0  0  0  0  0  0  0
  -24.5733  -31.5487   23.1173 N   0  0  0  0  0  0  0  0  0  0  0  0
  -21.0932  -31.9716   22.2356 N   0  3  0  0  0  0  0  0  0  0  0  0
  -30.0422  -17.7184   20.0282 O   0  0  0  0  0  0  0  0  0  0  0  0
  -28.3976  -27.8778   21.9515 O   0  0  0  0  0  0  0  0  0  0  0  0
  -26.9548  -31.3337   21.5391 O   0  0  0  0  0  0  0  0  0  0  0  0
  -22.7966  -30.0995   23.4644 O   0  0  0  0  0  0  0  0  0  0  0  0
  -22.3073  -14.5171   20.4957 O   0  0  0  0  0  0  0  0  0  0  0  0
  -24.5556  -21.0942   17.6945 O   0  0  0  0  0  0  0  0  0  0  0  0
  -23.3631  -23.6507   21.3435 O   0  0  0  0  0  0  0  0  0  1  0  0
  -24.2668  -21.6646   12.2177 F   0  0  0  0  0  0  0  0  0  0  0  0
  -22.1148  -21.3505   16.4219 F   0  0  0  0  0  0  0  0  0  0  0  0
  1  2  1  0  0  0  0
  1  5  2  0  0  0  0
  2  6  2  0  0  0  0
  3  8  2  0  0  0  0
  3 16  1  0  0  0  0
  4  9  1  0  0  0  0
  4 16  2  0  0  0  0
  5 18  1  0  0  0  0
  6 20  1  0  0  0  0
  7 10  2  0  0  0  0
  7 19  1  0  0  0  0
  8 23  1  0  0  0  0
  9 23  2  0  0  0  0
 10 24  1  0  0  0  0
 11 12  2  0  0  0  0
 11 25  1  0  0  0  0
 12 26  1  0  0  0  0
 13 21  1  0  0  0  0
 13 24  2  0  0  0  0
 14 22  1  0  0  0  0
 14 30  2  0  0  0  0
 15 26  2  0  0  0  0
 15 27  1  0  0  0  0
 16 28  1  0  0  0  0
 17 28  1  0  0  0  0
 17 31  2  0  0  0  0
 17 32  1  0  0  0  0
 18 20  2  0  0  0  0
 18 37  1  0  0  0  0
 19 21  2  0  0  0  0
 19 38  1  0  0  0  0
 20 49  1  0  0  0  0
 21 39  1  0  0  0  0
 22 29  2  0  0  0  0
 22 61  1  0  0  0  0
 23 84  1  0  0  0  0
 24 85  1  0  0  0  0
 25 27  2  0  0  0  0
 25 84  1  0  0  0  0
 26 86  1  0  0  0  0
 27 87  1  0  0  0  0
 28 67  2  0  0  0  0
 29 53  1  0  0  0  0
 29 68  1  0  0  0  0
 30 68  1  0  0  0  0
 30 75  1  0  0  0  0
 31 69  1  0  0  0  0
 31 73  1  0  0  0  0
 32 74  1  0  0  0  0
 32 79  2  0  0  0  0
 33 50  1  0  0  0  0
 33 76  1  0  0  0  0
 33 80  2  0  0  0  0
 34 63  1  0  0  0  0
 34 70  1  0  0  0  0
 34 81  2  0  0  0  0
 35 64  1  0  0  0  0
 35 77  1  0  0  0  0
 35 82  2  0  0  0  0
 36 71  1  0  0  0  0
 36 72  1  0  0  0  0
 36 83  2  0  0  0  0
 37 40  1  0  0  0  0
 38 50  1  0  0  0  0
 39 70  1  0  0  0  0
 40 43  1  0  0  0  0
 41 44  1  0  0  0  0
 41 46  1  0  0  0  0
 42 45  1  0  0  0  0
 42 47  1  0  0  0  0
 43 49  1  0  0  0  0
 44 51  1  0  0  0  0
 45 52  1  0  0  0  0
 46 71  1  0  0  0  0
 47 72  1  0  0  0  0
 48 51  1  0  0  0  0
 48 71  1  0  0  0  0
 49 76  1  0  0  0  0
 50 70  1  0  0  0  0
 51 69  1  0  0  0  0
 52 62  1  0  0  0  0
 52 72  1  0  0  0  0
 54 64  1  0  0  0  0
 55 65  1  0  0  0  0
 56 65  1  0  0  0  0
 57 66  1  0  0  0  0
 58 66  1  0  0  0  0
 59 66  1  0  0  0  0
 60 78  1  0  0  0  0
 61 85  1  0  0  0  0
 62 75  1  0  0  0  0
 63 66  1  0  0  0  0
 63 77  1  0  0  0  0
 64 78  1  0  0  0  0
 65 68  1  0  0  0  0
 67 69  1  0  0  0  0
M  CHG  1  78   1
M  ISO  4  36 100  61 101  72 100  85 101
M  END
> <Batch ID>
0146

> <Smiles>
CNC(C)C(=O)NC(C(=O)N1Cc2cc([101O:1][101CH2:1]c3cc(NCC4CCC[100N:0]4[100C:0](=O)N4CCCC(n5nc(-c6ccc(Oc7ccc(F)cc7F)cc6)c(C(N)=O)c5N)C4)n(C(C)C)c3C)ccc2CC1C(=O)NC1CCCc2ccccc21)C(C)(C)C

> <Shape>
0.204

> <Color>
0.093

> <Negative vol penalty>
0.000

$$$$
