
  -OEChem-04052321333D

 87 96  0     1  0  0  0  0  0999 V2000
  -18.1320  -25.3396   22.0229 C   0  0  0  0  0  0  0  0  0  0  0  0
  -19.3671  -25.4409   21.3908 C   0  0  0  0  0  0  0  0  0  0  0  0
  -23.0150  -14.1647   23.0756 C   0  0  0  0  0  0  0  0  0  0  0  0
  -24.0517  -12.1063   23.8004 C   0  0  0  0  0  0  0  0  0  0  0  0
  -17.5049  -26.4844   22.5128 C   0  0  0  0  0  0  0  0  0  0  0  0
  -19.9754  -26.6874   21.2472 C   0  0  0  0  0  0  0  0  0  0  0  0
  -24.9068  -26.5864   22.3944 C   0  0  0  0  0  0  0  0  0  0  0  0
  -22.3069  -14.2305   24.2755 C   0  0  0  0  0  0  0  0  0  0  0  0
  -23.3436  -12.1721   25.0003 C   0  0  0  0  0  0  0  0  0  0  0  0
  -25.7728  -26.0615   21.4361 C   0  0  0  0  0  0  0  0  0  0  0  0
  -20.2124  -11.5019   26.0853 C   0  0  0  0  0  0  0  0  0  0  0  0
  -19.6042  -10.3334   26.5438 C   0  0  0  0  0  0  0  0  0  0  0  0
  -26.3572  -28.2983   20.7476 C   0  0  0  0  0  0  0  0  0  0  0  0
  -20.9275  -10.4369   28.5625 C   0  0  0  0  0  0  0  0  0  0  0  0
  -23.8874  -13.1025   22.8380 C   0  0  0  0  0  0  0  0  0  0  0  0
  -24.0834  -12.9641   20.2983 C   0  0  0  0  0  0  0  0  0  0  0  0
  -18.1103  -27.7444   22.3837 C   0  0  0  0  0  0  0  0  0  0  0  0
  -24.7510  -27.9735   22.5293 C   0  0  0  0  0  0  0  0  0  0  0  0
  -19.3552  -27.8504   21.7346 C   0  0  0  0  0  0  0  0  0  0  0  0
  -25.4905  -28.8384   21.7100 C   0  0  0  0  0  0  0  0  0  0  0  0
  -22.4712  -13.2343   25.2379 C   0  0  0  0  0  0  0  0  0  0  0  0
  -26.4960  -26.9174   20.6106 C   0  0  0  0  0  0  0  0  0  0  0  0
  -21.1782  -12.1379   26.8653 C   0  0  0  0  0  0  0  0  0  0  0  0
  -19.9617   -9.8009   27.7825 C   0  0  0  0  0  0  0  0  0  0  0  0
  -21.5357  -11.6054   28.1039 C   0  0  0  0  0  0  0  0  0  0  0  0
  -24.6188  -13.0336   21.5985 C   0  0  0  0  0  0  0  0  0  0  0  0
  -25.1828  -12.9172   19.4764 C   0  0  0  0  0  0  0  0  0  0  0  0
  -22.7148  -12.9437   19.8717 C   0  0  0  0  0  0  0  0  0  0  0  0
  -22.3232  -29.9998   22.2077 C   0  0  0  0  0  0  0  0  0  0  0  0
  -24.4758  -32.1488   23.3349 C   0  0  0  0  0  0  0  0  0  0  0  0
  -27.7475  -33.0220   23.7597 C   0  0  0  0  0  0  0  0  0  0  0  0
  -30.8337  -14.7910   20.1147 C   0  0  0  0  0  0  0  0  0  0  0  0
  -17.3721  -28.9595   22.8870 C   0  0  0  0  0  0  0  0  0  0  0  0
  -23.8330  -28.5243   23.5858 C   0  0  0  0  0  0  0  0  0  0  0  0
  -25.3744  -30.3354   21.8284 C   0  0  0  0  0  0  0  0  0  0  0  0
  -18.2573  -30.1951   23.0275 C   0  0  0  0  0  0  0  0  0  0  0  0
  -29.7447  -11.4767   19.4032 C   0  0  0  0  0  0  0  0  0  0  0  0
  -30.4850  -19.7297   16.1190 C   0  0  0  0  0  0  0  0  0  0  0  0
  -19.1202  -30.3779   21.7830 C   0  0  0  0  0  0  0  0  0  0  0  0
  -28.2180  -22.8006   19.0917 C   0  0  0  0  0  0  0  0  0  0  0  0
  -30.1773  -23.9779   20.1739 C   0  0  0  0  0  0  0  0  0  0  0  0
  -28.2592  -11.4936   19.7678 C   0  0  0  0  0  0  0  0  0  0  0  0
  -27.5170  -24.1433   18.9090 C   0  0  0  0  0  0  0  0  0  0  0  0
  -29.4705  -25.3173   19.9888 C   0  0  0  0  0  0  0  0  0  0  0  0
  -30.4484  -21.0454   16.8690 C   0  0  0  0  0  0  0  0  0  0  0  0
  -30.5694  -12.3397   20.3555 C   0  0  0  0  0  0  0  0  0  0  0  0
  -28.6105  -13.7460   20.8641 C   0  0  0  0  0  0  0  0  0  0  0  0
  -31.1574  -18.7833   17.0951 C   0  0  0  0  0  0  0  0  0  0  0  0
  -20.0583  -29.1817   21.5816 C   0  0  1  0  0  0  0  0  0  0  0  0
  -23.3651  -29.9456   23.2890 C   0  0  1  0  0  0  0  0  0  0  0  0
  -29.7448  -22.9584   19.1110 C   0  0  0  0  0  0  0  0  0  0  0  0
  -27.7302  -12.9346   19.8982 C   0  0  2  0  0  0  0  0  0  0  0  0
  -27.9521  -25.1553   19.9655 C   0  0  0  0  0  0  0  0  0  1  0  0
  -30.0318  -20.6186   18.2691 C   0  0  2  0  0  0  0  0  0  0  0  0
  -29.1936  -34.8541   24.6814 C   0  0  0  0  0  0  0  0  0  0  0  0
  -31.9401  -21.7757   19.4026 C   0  0  0  0  0  0  0  0  0  0  0  0
  -31.6851  -17.7667   21.1375 C   0  0  0  0  0  0  0  0  0  0  0  0
  -23.8514  -33.8673   20.8922 C   0  0  0  0  0  0  0  0  0  0  0  0
  -25.9442  -35.1614   21.3545 C   0  0  0  0  0  0  0  0  0  0  0  0
  -24.0961  -35.1423   23.0298 C   0  0  0  0  0  0  0  0  0  0  0  0
  -29.0014  -31.2008   25.7268 C   0  0  0  0  0  0  0  0  0  0  0  0
  -30.0062  -18.3045   19.2914 C   0  0  0  0  0  0  0  0  0  0  0  0
  -25.5003  -33.0644   22.7095 C   0  0  1  0  0  0  0  0  0  0  0  0
  -28.5051  -33.5298   24.9732 C   0  0  2  0  0  0  0  0  0  0  0  0
  -30.4232  -21.6106   19.3489 C   0  0  1  0  0  0  0  0  0  0  0  0
  -30.9392  -17.2617   19.9061 C   0  0  2  0  0  0  0  0  0  0  0  0
  -24.8490  -34.2807   21.9927 C   0  0  0  0  0  0  0  0  0  0  0  0
  -25.9544  -13.0312   21.6069 N   0  0  0  0  0  0  0  0  0  0  0  0
  -26.2676  -12.9596   20.3020 N   0  0  0  0  0  0  0  0  0  0  0  0
  -24.4590  -30.8253   22.8722 N   0  0  0  0  0  0  0  0  0  0  0  0
  -30.0162  -13.6940   20.4329 N   0  0  0  0  0  0  0  0  0  0  0  0
  -25.3178  -12.8443   18.1351 N   0  0  0  0  0  0  0  0  0  0  0  0
  -22.0744  -11.7040   19.7398 N   0  0  0  0  0  0  0  0  0  0  0  0
  -21.1858  -29.2658   22.4851 N   0  0  0  0  0  0  0  0  0  0  0  0
  -26.4291  -33.4258   23.7749 N   0  0  0  0  0  0  0  0  0  0  0  0
  -30.2293  -16.0387   20.2077 N   0  0  0  0  0  0  0  0  0  0  0  0
  -30.7674  -19.3000   18.4703 N   0  3  1  0  0  0  0  0  0  0  0  0
  -29.5416  -32.5424   25.3872 N   0  3  0  0  0  0  0  0  0  0  0  0
  -22.0834  -13.9929   19.5993 O   0  0  0  0  0  0  0  0  0  0  0  0
  -22.5349  -30.6599   21.1972 O   0  0  0  0  0  0  0  0  0  0  0  0
  -23.7230  -32.5897   24.2070 O   0  0  0  0  0  0  0  0  0  0  0  0
  -28.2735  -32.3389   22.8838 O   0  0  0  0  0  0  0  0  0  0  0  0
  -32.0133  -14.6673   19.7678 O   0  0  0  0  0  0  0  0  0  0  0  0
  -21.7805  -13.2984   26.4090 O   0  0  0  0  0  0  0  0  0  0  0  0
  -27.3415  -26.4076   19.6740 O   0  0  0  0  0  0  0  0  0  1  0  0
  -19.3765   -8.6796   28.2234 F   0  0  0  0  0  0  0  0  0  0  0  0
  -22.4621  -12.2125   28.8583 F   0  0  0  0  0  0  0  0  0  0  0  0
  1  2  1  0  0  0  0
  1  5  2  0  0  0  0
  2  6  2  0  0  0  0
  3  8  2  0  0  0  0
  3 15  1  0  0  0  0
  4  9  1  0  0  0  0
  4 15  2  0  0  0  0
  5 17  1  0  0  0  0
  6 19  1  0  0  0  0
  7 10  2  0  0  0  0
  7 18  1  0  0  0  0
  8 21  1  0  0  0  0
  9 21  2  0  0  0  0
 10 22  1  0  0  0  0
 11 12  2  0  0  0  0
 11 23  1  0  0  0  0
 12 24  1  0  0  0  0
 13 20  1  0  0  0  0
 13 22  2  0  0  0  0
 14 24  2  0  0  0  0
 14 25  1  0  0  0  0
 15 26  1  0  0  0  0
 16 26  1  0  0  0  0
 16 27  2  0  0  0  0
 16 28  1  0  0  0  0
 17 19  2  0  0  0  0
 17 33  1  0  0  0  0
 18 20  2  0  0  0  0
 18 34  1  0  0  0  0
 19 49  1  0  0  0  0
 20 35  1  0  0  0  0
 21 84  1  0  0  0  0
 22 85  1  0  0  0  0
 23 25  2  0  0  0  0
 23 84  1  0  0  0  0
 24 86  1  0  0  0  0
 25 87  1  0  0  0  0
 26 68  2  0  0  0  0
 27 69  1  0  0  0  0
 27 72  1  0  0  0  0
 28 73  1  0  0  0  0
 28 79  2  0  0  0  0
 29 50  1  0  0  0  0
 29 74  1  0  0  0  0
 29 80  2  0  0  0  0
 30 63  1  0  0  0  0
 30 70  1  0  0  0  0
 30 81  2  0  0  0  0
 31 64  1  0  0  0  0
 31 75  1  0  0  0  0
 31 82  2  0  0  0  0
 32 71  1  0  0  0  0
 32 76  1  0  0  0  0
 32 83  2  0  0  0  0
 33 36  1  0  0  0  0
 34 50  1  0  0  0  0
 35 70  1  0  0  0  0
 36 39  1  0  0  0  0
 37 42  1  0  0  0  0
 37 46  1  0  0  0  0
 38 45  1  0  0  0  0
 38 48  1  0  0  0  0
 39 49  1  0  0  0  0
 40 43  1  0  0  0  0
 40 51  1  0  0  0  0
 41 44  1  0  0  0  0
 41 51  1  0  0  0  0
 42 52  1  0  0  0  0
 43 53  1  0  0  0  0
 44 53  1  0  0  0  0
 45 54  1  0  0  0  0
 46 71  1  0  0  0  0
 47 52  1  0  0  0  0
 47 71  1  0  0  0  0
 48 77  1  0  0  0  0
 49 74  1  0  0  0  0
 50 70  1  0  0  0  0
 51 65  1  0  0  0  0
 52 69  1  0  0  0  0
 53 85  1  0  0  0  0
 54 65  1  0  0  0  0
 54 77  1  0  0  0  0
 55 64  1  0  0  0  0
 56 65  1  0  0  0  0
 57 66  1  0  0  0  0
 58 67  1  0  0  0  0
 59 67  1  0  0  0  0
 60 67  1  0  0  0  0
 61 78  1  0  0  0  0
 62 66  1  0  0  0  0
 62 77  1  0  0  0  0
 63 67  1  0  0  0  0
 63 75  1  0  0  0  0
 64 78  1  0  0  0  0
 66 76  1  0  0  0  0
 68 69  1  0  0  0  0
M  CHG  2  77   1  78   1
M  ISO  4  32 100  53 101  76 100  85 101
M  END
> <Batch ID>
0147

> <Smiles>
CNC(C)C(=O)NC(C(=O)N1Cc2cc([101O:1][101CH:1]3CCC(C(C)C4CCCN4CC(C)[100NH:0][100C:0](=O)N4CCCC(n5nc(-c6ccc(Oc7ccc(F)cc7F)cc6)c(C(N)=O)c5N)C4)CC3)ccc2CC1C(=O)NC1CCCc2ccccc21)C(C)(C)C

> <Shape>
0.284

> <Color>
0.102

> <Negative vol penalty>
0.000

$$$$

  -OEChem-04052321333D

 90 99  0     1  0  0  0  0  0999 V2000
  -29.1376  -32.6434   25.8293 C   0  0  0  0  0  0  0  0  0  0  0  0
  -29.0035  -31.4487   25.1293 C   0  0  0  0  0  0  0  0  0  0  0  0
  -22.8649  -11.6875   22.4741 C   0  0  0  0  0  0  0  0  0  0  0  0
  -24.3263   -9.7647   22.4079 C   0  0  0  0  0  0  0  0  0  0  0  0
  -28.0049  -33.3009   26.3074 C   0  0  0  0  0  0  0  0  0  0  0  0
  -27.7365  -30.9101   24.9079 C   0  0  0  0  0  0  0  0  0  0  0  0
  -27.1210  -29.2833   20.1519 C   0  0  0  0  0  0  0  0  0  0  0  0
  -28.8281  -19.4301   21.7041 C   0  0  0  0  0  0  0  0  0  0  0  0
  -22.2087  -11.1506   23.5816 C   0  0  0  0  0  0  0  0  0  0  0  0
  -23.6700   -9.2278   23.5155 C   0  0  0  0  0  0  0  0  0  0  0  0
  -27.6929  -28.0559   19.8197 C   0  0  0  0  0  0  0  0  0  0  0  0
  -20.7873   -7.5771   24.1448 C   0  0  0  0  0  0  0  0  0  0  0  0
  -20.4480   -6.2248   24.1044 C   0  0  0  0  0  0  0  0  0  0  0  0
  -28.5870  -18.0778   21.4883 C   0  0  0  0  0  0  0  0  0  0  0  0
  -25.5418  -26.9930   20.0694 C   0  0  0  0  0  0  0  0  0  0  0  0
  -21.8057   -5.8257   26.0626 C   0  0  0  0  0  0  0  0  0  0  0  0
  -23.9237  -10.9945   21.8872 C   0  0  0  0  0  0  0  0  0  0  0  0
  -24.0380  -11.8670   19.4928 C   0  0  0  0  0  0  0  0  0  0  0  0
  -26.7227  -32.7751   26.0834 C   0  0  0  0  0  0  0  0  0  0  0  0
  -25.7551  -29.3731   20.4564 C   0  0  0  0  0  0  0  0  0  0  0  0
  -26.5856  -31.5605   25.3846 C   0  0  0  0  0  0  0  0  0  0  0  0
  -30.0759  -19.9648   21.4035 C   0  0  0  0  0  0  0  0  0  0  0  0
  -24.9545  -28.2232   20.4025 C   0  0  0  0  0  0  0  0  0  0  0  0
  -22.6112   -9.9208   24.1024 C   0  0  0  0  0  0  0  0  0  0  0  0
  -26.9038  -26.9101   19.7813 C   0  0  0  0  0  0  0  0  0  0  0  0
  -21.6359   -8.0538   25.1441 C   0  0  0  0  0  0  0  0  0  0  0  0
  -20.9571   -5.3491   25.0633 C   0  0  0  0  0  0  0  0  0  0  0  0
  -22.1450   -7.1780   26.1030 C   0  0  0  0  0  0  0  0  0  0  0  0
  -24.6017  -11.5482   20.7427 C   0  0  0  0  0  0  0  0  0  0  0  0
  -29.6188  -17.3092   20.9741 C   0  0  0  0  0  0  0  0  0  0  0  0
  -31.0411  -19.1116   20.8933 C   0  0  0  0  0  0  0  0  0  0  0  0
  -25.0889  -12.3580   18.7573 C   0  0  0  0  0  0  0  0  0  0  0  0
  -22.6853  -11.7316   19.0373 C   0  0  0  0  0  0  0  0  0  0  0  0
  -24.0797  -30.2276   23.0188 C   0  0  0  0  0  0  0  0  0  0  0  0
  -21.5599  -29.8787   21.0060 C   0  0  0  0  0  0  0  0  0  0  0  0
  -20.5364  -27.5501   18.4472 C   0  0  0  0  0  0  0  0  0  0  0  0
  -30.2466  -14.9784   20.2532 C   0  0  0  0  0  0  0  0  0  0  0  0
  -25.5310  -33.4972   26.6604 C   0  0  0  0  0  0  0  0  0  0  0  0
  -25.1482  -30.7091   20.7867 C   0  0  0  0  0  0  0  0  0  0  0  0
  -23.4790  -28.2695   20.7012 C   0  0  0  0  0  0  0  0  0  0  0  0
  -24.2000  -33.0534   26.0589 C   0  0  0  0  0  0  0  0  0  0  0  0
  -29.8460  -12.0095   18.3290 C   0  0  0  0  0  0  0  0  0  0  0  0
  -24.1224  -31.5312   25.9989 C   0  0  0  0  0  0  0  0  0  0  0  0
  -28.4025  -11.5867   18.6111 C   0  0  0  0  0  0  0  0  0  0  0  0
  -29.1297  -22.2582   22.2221 C   0  0  0  0  0  0  0  0  0  0  0  0
  -30.7637  -22.2144   20.3462 C   0  0  0  0  0  0  0  0  0  0  0  0
  -30.5146  -12.6052   19.5667 C   0  0  0  0  0  0  0  0  0  0  0  0
  -28.3309  -13.2781   20.4875 C   0  0  0  0  0  0  0  0  0  0  0  0
  -27.9791  -22.4207   21.2310 C   0  0  0  0  0  0  0  0  0  0  0  0
  -29.6244  -22.3444   19.3406 C   0  0  0  0  0  0  0  0  0  0  0  0
  -25.2265  -30.9574   25.1028 C   0  0  1  0  0  0  0  0  0  0  0  0
  -23.8502  -30.5959   21.5803 C   0  0  1  0  0  0  0  0  0  0  0  0
  -27.5950  -12.7318   19.2531 C   0  0  2  0  0  0  0  0  0  0  0  0
  -30.3397  -21.4671   21.6440 C   0  0  0  0  0  0  0  0  0  0  0  0
  -19.0612  -27.8730   16.4430 C   0  0  0  0  0  0  0  0  0  0  0  0
  -31.8485  -23.0185   22.9387 C   0  0  0  0  0  0  0  0  0  0  0  0
  -31.1196  -20.8436   23.9596 C   0  0  0  0  0  0  0  0  0  0  0  0
  -19.3375  -28.8788   22.8421 C   0  0  0  0  0  0  0  0  0  0  0  0
  -18.3811  -27.6345   20.8914 C   0  0  0  0  0  0  0  0  0  0  0  0
  -18.5424  -30.1229   20.8235 C   0  0  0  0  0  0  0  0  0  0  0  0
  -33.3786  -18.8621   20.0572 C   0  0  0  0  0  0  0  0  0  0  0  0
  -22.6258  -26.5525   16.6039 C   0  0  0  0  0  0  0  0  0  0  0  0
  -27.3699  -23.3515   19.0008 C   0  0  0  0  0  0  0  0  0  0  0  0
  -26.5925  -24.5775   19.4377 C   0  0  0  0  0  0  0  0  0  1  0  0
  -20.6482  -28.7383   20.6221 C   0  0  1  0  0  0  0  0  0  0  0  0
  -20.4929  -27.8049   16.9514 C   0  0  2  0  0  0  0  0  0  0  0  0
  -31.4954  -21.5599   22.6667 C   0  0  0  0  0  0  0  0  0  0  0  0
  -19.2541  -28.8390   21.3031 C   0  0  0  0  0  0  0  0  0  0  0  0
  -25.9093  -11.8142   20.8016 N   0  0  0  0  0  0  0  0  0  0  0  0
  -30.8440  -17.7929   20.6700 N   0  0  0  0  0  0  0  0  0  0  0  0
  -26.1760  -12.3052   19.5793 N   0  0  0  0  0  0  0  0  0  0  0  0
  -22.9335  -29.5980   21.0251 N   0  0  0  0  0  0  0  0  0  0  0  0
  -29.6952  -13.6867   20.1179 N   0  0  0  0  0  0  0  0  0  0  0  0
  -25.1800  -12.8254   17.4941 N   0  0  0  0  0  0  0  0  0  0  0  0
  -22.3044  -10.5311   18.4224 N   0  0  0  0  0  0  0  0  0  0  0  0
  -29.3635  -15.9322   20.7581 N   0  0  0  0  0  0  0  0  0  0  0  0
  -32.3144  -19.6520   20.5848 N   0  0  0  0  0  0  0  0  0  0  0  0
  -24.8799  -31.1195   23.7071 N   0  0  0  0  0  0  0  0  0  0  0  0
  -20.6015  -28.7262   19.1640 N   0  0  0  0  0  0  0  0  0  0  0  0
  -28.4825  -23.0944   19.9795 N   0  3  0  0  0  0  0  0  0  0  0  0
  -21.2001  -26.7162   16.2197 N   0  3  0  0  0  0  0  0  0  0  0  0
  -21.8437  -12.6541   19.1568 O   0  0  0  0  0  0  0  0  0  0  0  0
  -23.5673  -29.2105   23.4713 O   0  0  0  0  0  0  0  0  0  0  0  0
  -21.0718  -30.9799   21.2720 O   0  0  0  0  0  0  0  0  0  0  0  0
  -20.5111  -26.4208   18.9316 O   0  0  0  0  0  0  0  0  0  0  0  0
  -31.4077  -15.2267   19.9184 O   0  0  0  0  0  0  0  0  0  0  0  0
  -21.9712   -9.3968   25.1833 O   0  0  0  0  0  0  0  0  0  0  0  0
  -27.4596  -25.7107   19.4580 O   0  0  0  0  0  0  0  0  0  1  0  0
  -20.6300   -4.0507   25.0253 F   0  0  0  0  0  0  0  0  0  0  0  0
  -22.9598   -7.6303   27.0660 F   0  0  0  0  0  0  0  0  0  0  0  0
  1  2  1  0  0  0  0
  1  5  2  0  0  0  0
  2  6  2  0  0  0  0
  3  9  2  0  0  0  0
  3 17  1  0  0  0  0
  4 10  1  0  0  0  0
  4 17  2  0  0  0  0
  5 19  1  0  0  0  0
  6 21  1  0  0  0  0
  7 11  2  0  0  0  0
  7 20  1  0  0  0  0
  8 14  2  0  0  0  0
  8 22  1  0  0  0  0
  9 24  1  0  0  0  0
 10 24  2  0  0  0  0
 11 25  1  0  0  0  0
 12 13  2  0  0  0  0
 12 26  1  0  0  0  0
 13 27  1  0  0  0  0
 14 30  1  0  0  0  0
 15 23  1  0  0  0  0
 15 25  2  0  0  0  0
 16 27  2  0  0  0  0
 16 28  1  0  0  0  0
 17 29  1  0  0  0  0
 18 29  1  0  0  0  0
 18 32  2  0  0  0  0
 18 33  1  0  0  0  0
 19 21  2  0  0  0  0
 19 38  1  0  0  0  0
 20 23  2  0  0  0  0
 20 39  1  0  0  0  0
 21 51  1  0  0  0  0
 22 31  2  0  0  0  0
 22 54  1  0  0  0  0
 23 40  1  0  0  0  0
 24 87  1  0  0  0  0
 25 88  1  0  0  0  0
 26 28  2  0  0  0  0
 26 87  1  0  0  0  0
 27 89  1  0  0  0  0
 28 90  1  0  0  0  0
 29 69  2  0  0  0  0
 30 70  2  0  0  0  0
 30 76  1  0  0  0  0
 31 70  1  0  0  0  0
 31 77  1  0  0  0  0
 32 71  1  0  0  0  0
 32 74  1  0  0  0  0
 33 75  1  0  0  0  0
 33 82  2  0  0  0  0
 34 52  1  0  0  0  0
 34 78  1  0  0  0  0
 34 83  2  0  0  0  0
 35 65  1  0  0  0  0
 35 72  1  0  0  0  0
 35 84  2  0  0  0  0
 36 66  1  0  0  0  0
 36 79  1  0  0  0  0
 36 85  2  0  0  0  0
 37 73  1  0  0  0  0
 37 76  1  0  0  0  0
 37 86  2  0  0  0  0
 38 41  1  0  0  0  0
 39 52  1  0  0  0  0
 40 72  1  0  0  0  0
 41 43  1  0  0  0  0
 42 44  1  0  0  0  0
 42 47  1  0  0  0  0
 43 51  1  0  0  0  0
 44 53  1  0  0  0  0
 45 49  1  0  0  0  0
 45 54  1  0  0  0  0
 46 50  1  0  0  0  0
 46 54  1  0  0  0  0
 47 73  1  0  0  0  0
 48 53  1  0  0  0  0
 48 73  1  0  0  0  0
 49 80  1  0  0  0  0
 50 80  1  0  0  0  0
 51 78  1  0  0  0  0
 52 72  1  0  0  0  0
 53 71  1  0  0  0  0
 54 67  1  0  0  0  0
 55 66  1  0  0  0  0
 56 67  1  0  0  0  0
 57 67  1  0  0  0  0
 58 68  1  0  0  0  0
 59 68  1  0  0  0  0
 60 68  1  0  0  0  0
 61 77  1  0  0  0  0
 62 81  1  0  0  0  0
 63 64  1  0  0  0  0
 63 80  1  0  0  0  0
 64 88  1  0  0  0  0
 65 68  1  0  0  0  0
 65 79  1  0  0  0  0
 66 81  1  0  0  0  0
 69 71  1  0  0  0  0
M  CHG  2  80   1  81   1
M  ISO  4  37 100  64 101  76 100  88 101
M  END
> <Batch ID>
0147

> <Smiles>
CNc1nc([100NH:0][100C:0](=O)N2CCCC(n3nc(-c4ccc(Oc5ccc(F)cc5F)cc4)c(C(N)=O)c3N)C2)ccc1C1(C(C)C)CCN(C[101CH2:1][101O:1]c2ccc3c(c2)CN(C(=O)C(NC(=O)C(C)NC)C(C)(C)C)C(C(=O)NC2CCCc4ccccc42)C3)CC1

> <Shape>
0.325

> <Color>
0.106

> <Negative vol penalty>
0.000

$$$$

  -OEChem-04052321333D

 86 95  0     1  0  0  0  0  0999 V2000
  -18.1551  -28.1636   22.4769 C   0  0  0  0  0  0  0  0  0  0  0  0
  -18.0874  -26.8253   22.1031 C   0  0  0  0  0  0  0  0  0  0  0  0
  -30.0415  -23.7687   19.3166 C   0  0  0  0  0  0  0  0  0  0  0  0
  -28.6279  -23.7950   21.2757 C   0  0  0  0  0  0  0  0  0  0  0  0
  -19.3507  -28.6908   22.9632 C   0  0  0  0  0  0  0  0  0  0  0  0
  -19.2157  -26.0136   22.2143 C   0  0  0  0  0  0  0  0  0  0  0  0
  -19.3421  -20.0621   23.6530 C   0  0  0  0  0  0  0  0  0  0  0  0
  -29.8330  -25.1375   19.1477 C   0  0  0  0  0  0  0  0  0  0  0  0
  -28.4194  -25.1639   21.1069 C   0  0  0  0  0  0  0  0  0  0  0  0
  -19.4395  -18.9105   22.8733 C   0  0  0  0  0  0  0  0  0  0  0  0
  -26.5220  -27.1733   19.1593 C   0  0  0  0  0  0  0  0  0  0  0  0
  -25.2177  -27.6507   19.2873 C   0  0  0  0  0  0  0  0  0  0  0  0
  -21.8220  -18.8653   23.2483 C   0  0  0  0  0  0  0  0  0  0  0  0
  -21.3346  -10.9231   23.2781 C   0  0  0  0  0  0  0  0  0  0  0  0
  -25.9172  -29.0724   21.1113 C   0  0  0  0  0  0  0  0  0  0  0  0
  -29.4390  -23.0975   20.3806 C   0  0  0  0  0  0  0  0  0  0  0  0
  -30.6747  -21.0642   21.3006 C   0  0  0  0  0  0  0  0  0  0  0  0
  -20.4917  -27.8827   23.0895 C   0  0  0  0  0  0  0  0  0  0  0  0
  -20.4874  -20.6312   24.2283 C   0  0  0  0  0  0  0  0  0  0  0  0
  -20.4281  -26.5307   22.7015 C   0  0  0  0  0  0  0  0  0  0  0  0
  -21.7361  -20.0227   24.0370 C   0  0  0  0  0  0  0  0  0  0  0  0
  -23.2593  -11.7232   22.0279 C   0  0  0  0  0  0  0  0  0  0  0  0
  -22.7462  -13.0320   22.0842 C   0  0  0  0  0  0  0  0  0  0  0  0
  -22.5503  -10.6787   22.6403 C   0  0  0  0  0  0  0  0  0  0  0  0
  -20.8167  -12.2143   23.3158 C   0  0  0  0  0  0  0  0  0  0  0  0
  -29.0220  -25.8351   20.0428 C   0  0  0  0  0  0  0  0  0  0  0  0
  -20.6799  -18.3135   22.6684 C   0  0  0  0  0  0  0  0  0  0  0  0
  -27.5239  -27.6453   20.0073 C   0  0  0  0  0  0  0  0  0  0  0  0
  -21.5167  -13.2629   22.7202 C   0  0  0  0  0  0  0  0  0  0  0  0
  -24.9153  -28.6003   20.2633 C   0  0  0  0  0  0  0  0  0  0  0  0
  -27.2215  -28.5948   20.9833 C   0  0  0  0  0  0  0  0  0  0  0  0
  -29.6535  -21.6834   20.5552 C   0  0  0  0  0  0  0  0  0  0  0  0
  -30.4413  -19.7190   21.1513 C   0  0  0  0  0  0  0  0  0  0  0  0
  -31.7390  -21.6525   22.0601 C   0  0  0  0  0  0  0  0  0  0  0  0
  -21.9829  -23.4229   23.9572 C   0  0  0  0  0  0  0  0  0  0  0  0
  -23.8004  -22.2415   26.3703 C   0  0  0  0  0  0  0  0  0  0  0  0
  -24.9865  -19.5073   28.0330 C   0  0  0  0  0  0  0  0  0  0  0  0
  -26.0771  -16.0763   20.8407 C   0  0  0  0  0  0  0  0  0  0  0  0
  -21.7746  -28.5090   23.5758 C   0  0  0  0  0  0  0  0  0  0  0  0
  -20.3618  -21.8584   25.0888 C   0  0  0  0  0  0  0  0  0  0  0  0
  -24.5866  -11.4236   21.3779 C   0  0  0  0  0  0  0  0  0  0  0  0
  -23.4559  -14.1882   21.4216 C   0  0  0  0  0  0  0  0  0  0  0  0
  -22.9932  -20.5827   24.6493 C   0  0  0  0  0  0  0  0  0  0  0  0
  -22.8220  -27.4891   24.0151 C   0  0  0  0  0  0  0  0  0  0  0  0
  -25.0663  -12.5315   20.4402 C   0  0  0  0  0  0  0  0  0  0  0  0
  -27.9690  -16.9520   17.8825 C   0  0  0  0  0  0  0  0  0  0  0  0
  -22.9464  -26.3731   22.9827 C   0  0  0  0  0  0  0  0  0  0  0  0
  -28.7004  -18.2113   18.3510 C   0  0  0  0  0  0  0  0  0  0  0  0
  -26.5551  -16.8896   18.4527 C   0  0  0  0  0  0  0  0  0  0  0  0
  -27.2160  -18.2348   20.4091 C   0  0  0  0  0  0  0  0  0  0  0  0
  -21.6238  -25.6122   22.8307 C   0  0  1  0  0  0  0  0  0  0  0  0
  -21.6644  -22.6444   25.2023 C   0  0  1  0  0  0  0  0  0  0  0  0
  -28.6592  -18.3453   19.8848 C   0  0  2  0  0  0  0  0  0  0  0  0
  -24.9279  -13.8944   21.1166 C   0  0  1  0  0  0  0  0  0  0  0  0
  -23.0698   -9.2757   22.6416 C   0  0  0  0  0  0  0  0  0  0  0  0
  -19.5107  -12.4554   23.9988 C   0  0  0  0  0  0  0  0  0  0  0  0
  -26.4823  -18.8571   29.9401 C   0  0  0  0  0  0  0  0  0  0  0  0
  -26.2489  -22.8344   24.6489 C   0  0  0  0  0  0  0  0  0  0  0  0
  -27.5793  -21.3333   26.1471 C   0  0  0  0  0  0  0  0  0  0  0  0
  -26.5173  -23.3923   27.0719 C   0  0  0  0  0  0  0  0  0  0  0  0
  -22.7625  -18.2005   29.4839 C   0  0  0  0  0  0  0  0  0  0  0  0
  -19.6506  -16.3149   21.8926 C   0  0  0  0  0  0  0  0  0  1  0  0
  -20.1306  -14.8921   21.6809 C   0  0  0  0  0  0  0  0  0  0  0  0
  -25.0634  -21.4187   26.4533 C   0  0  1  0  0  0  0  0  0  0  0  0
  -25.0591  -19.1821   29.5140 C   0  0  2  0  0  0  0  0  0  0  0  0
  -26.3290  -22.2350   26.0670 C   0  0  0  0  0  0  0  0  0  0  0  0
  -28.8326  -20.8037   19.9753 N   0  0  0  0  0  0  0  0  0  0  0  0
  -29.3377  -19.6181   20.3563 N   0  0  0  0  0  0  0  0  0  0  0  0
  -22.8195  -21.7875   25.4773 N   0  0  0  0  0  0  0  0  0  0  0  0
  -26.5875  -17.0040   19.9176 N   0  0  0  0  0  0  0  0  0  0  0  0
  -31.0745  -18.6243   21.6238 N   0  0  0  0  0  0  0  0  0  0  0  0
  -31.8325  -23.0501   22.1079 N   0  0  0  0  0  0  0  0  0  0  0  0
  -21.4398  -24.6933   23.9336 N   0  0  0  0  0  0  0  0  0  0  0  0
  -25.0999  -20.8618   27.8013 N   0  0  0  0  0  0  0  0  0  0  0  0
  -25.4919  -14.9410   20.2935 N   0  0  0  0  0  0  0  0  0  0  0  0
  -24.1946  -18.0101   29.8300 N   0  3  0  0  0  0  0  0  0  0  0  0
  -32.5919  -20.9591   22.6647 O   0  0  0  0  0  0  0  0  0  0  0  0
  -22.6717  -22.9095   23.0833 O   0  0  0  0  0  0  0  0  0  0  0  0
  -23.6855  -23.2459   27.0771 O   0  0  0  0  0  0  0  0  0  0  0  0
  -24.8471  -18.6455   27.1678 O   0  0  0  0  0  0  0  0  0  0  0  0
  -26.1428  -16.2445   22.0632 O   0  0  0  0  0  0  0  0  0  0  0  0
  -28.8185  -27.1708   19.8785 O   0  0  0  0  0  0  0  0  0  0  0  0
  -20.7779  -17.1898   21.9072 O   0  0  0  0  0  0  0  0  0  1  0  0
  -20.9860  -14.5255   22.7566 O   0  0  0  0  0  0  0  0  0  0  0  0
  -23.6630  -29.0599   20.3851 F   0  0  0  0  0  0  0  0  0  0  0  0
  -28.1800  -29.0529   21.8001 F   0  0  0  0  0  0  0  0  0  0  0  0
  1  2  1  0  0  0  0
  1  5  2  0  0  0  0
  2  6  2  0  0  0  0
  3  8  2  0  0  0  0
  3 16  1  0  0  0  0
  4  9  1  0  0  0  0
  4 16  2  0  0  0  0
  5 18  1  0  0  0  0
  6 20  1  0  0  0  0
  7 10  2  0  0  0  0
  7 19  1  0  0  0  0
  8 26  1  0  0  0  0
  9 26  2  0  0  0  0
 10 27  1  0  0  0  0
 11 12  2  0  0  0  0
 11 28  1  0  0  0  0
 12 30  1  0  0  0  0
 13 21  1  0  0  0  0
 13 27  2  0  0  0  0
 14 24  1  0  0  0  0
 14 25  2  0  0  0  0
 15 30  2  0  0  0  0
 15 31  1  0  0  0  0
 16 32  1  0  0  0  0
 17 32  1  0  0  0  0
 17 33  2  0  0  0  0
 17 34  1  0  0  0  0
 18 20  2  0  0  0  0
 18 39  1  0  0  0  0
 19 21  2  0  0  0  0
 19 40  1  0  0  0  0
 20 51  1  0  0  0  0
 21 43  1  0  0  0  0
 22 23  1  0  0  0  0
 22 24  2  0  0  0  0
 22 41  1  0  0  0  0
 23 29  2  0  0  0  0
 23 42  1  0  0  0  0
 24 55  1  0  0  0  0
 25 29  1  0  0  0  0
 25 56  1  0  0  0  0
 26 82  1  0  0  0  0
 27 83  1  0  0  0  0
 28 31  2  0  0  0  0
 28 82  1  0  0  0  0
 29 84  1  0  0  0  0
 30 85  1  0  0  0  0
 31 86  1  0  0  0  0
 32 67  2  0  0  0  0
 33 68  1  0  0  0  0
 33 71  1  0  0  0  0
 34 72  1  0  0  0  0
 34 77  2  0  0  0  0
 35 52  1  0  0  0  0
 35 73  1  0  0  0  0
 35 78  2  0  0  0  0
 36 64  1  0  0  0  0
 36 69  1  0  0  0  0
 36 79  2  0  0  0  0
 37 65  1  0  0  0  0
 37 74  1  0  0  0  0
 37 80  2  0  0  0  0
 38 70  1  0  0  0  0
 38 75  1  0  0  0  0
 38 81  2  0  0  0  0
 39 44  1  0  0  0  0
 40 52  1  0  0  0  0
 41 45  1  0  0  0  0
 42 54  1  0  0  0  0
 43 69  1  0  0  0  0
 44 47  1  0  0  0  0
 45 54  1  0  0  0  0
 46 48  1  0  0  0  0
 46 49  1  0  0  0  0
 47 51  1  0  0  0  0
 48 53  1  0  0  0  0
 49 70  1  0  0  0  0
 50 53  1  0  0  0  0
 50 70  1  0  0  0  0
 51 73  1  0  0  0  0
 52 69  1  0  0  0  0
 53 68  1  0  0  0  0
 54 75  1  0  0  0  0
 57 65  1  0  0  0  0
 58 66  1  0  0  0  0
 59 66  1  0  0  0  0
 60 66  1  0  0  0  0
 61 76  1  0  0  0  0
 62 63  1  0  0  0  0
 62 83  1  0  0  0  0
 63 84  1  0  0  0  0
 64 66  1  0  0  0  0
 64 74  1  0  0  0  0
 65 76  1  0  0  0  0
 67 68  1  0  0  0  0
M  CHG  1  76   1
M  ISO  4  38 100  62 101  75 100  83 101
M  END
> <Batch ID>
0147

> <Smiles>
CNC(C)C(=O)NC(C(=O)N1Cc2cc([101O:1][101CH2:1]COc3c(C)cc(C)c4c3CC([100NH:0][100C:0](=O)N3CCCC(n5nc(-c6ccc(Oc7ccc(F)cc7F)cc6)c(C(N)=O)c5N)C3)CC4)ccc2CC1C(=O)NC1CCCc2ccccc21)C(C)(C)C

> <Shape>
0.223

> <Color>
0.083

> <Negative vol penalty>
0.000

$$$$

  -OEChem-04052321333D

 89 98  0     1  0  0  0  0  0999 V2000
  -26.4083  -32.5866   22.6531 C   0  0  0  0  0  0  0  0  0  0  0  0
  -26.7412  -31.3556   23.2092 C   0  0  0  0  0  0  0  0  0  0  0  0
  -23.1180   -9.8379   19.8869 C   0  0  0  0  0  0  0  0  0  0  0  0
  -23.9062   -9.7785   22.1700 C   0  0  0  0  0  0  0  0  0  0  0  0
  -26.3797  -32.7395   21.2676 C   0  0  0  0  0  0  0  0  0  0  0  0
  -27.0444  -30.2764   22.3799 C   0  0  0  0  0  0  0  0  0  0  0  0
  -31.1409  -27.7309   23.9242 C   0  0  0  0  0  0  0  0  0  0  0  0
  -22.4151   -8.6520   20.0987 C   0  0  0  0  0  0  0  0  0  0  0  0
  -23.2032   -8.5925   22.3818 C   0  0  0  0  0  0  0  0  0  0  0  0
  -30.9789  -26.8532   24.9952 C   0  0  0  0  0  0  0  0  0  0  0  0
  -20.0104   -7.6658   22.9883 C   0  0  0  0  0  0  0  0  0  0  0  0
  -19.2700   -7.5545   24.1652 C   0  0  0  0  0  0  0  0  0  0  0  0
  -30.8653  -25.0018   23.4529 C   0  0  0  0  0  0  0  0  0  0  0  0
  -31.2955  -19.4901   22.9634 C   0  0  0  0  0  0  0  0  0  0  0  0
  -20.5827   -5.6310   24.8090 C   0  0  0  0  0  0  0  0  0  0  0  0
  -23.8637  -10.4012   20.9226 C   0  0  0  0  0  0  0  0  0  0  0  0
  -24.1221  -12.9390   20.9003 C   0  0  0  0  0  0  0  0  0  0  0  0
  -26.6922  -31.6642   20.4210 C   0  0  0  0  0  0  0  0  0  0  0  0
  -31.1555  -27.2511   22.6066 C   0  0  0  0  0  0  0  0  0  0  0  0
  -27.0186  -30.4146   20.9817 C   0  0  0  0  0  0  0  0  0  0  0  0
  -31.0303  -25.8752   22.3671 C   0  0  0  0  0  0  0  0  0  0  0  0
  -30.0489  -19.0249   23.3671 C   0  0  0  0  0  0  0  0  0  0  0  0
  -29.5887  -17.7965   22.9058 C   0  0  0  0  0  0  0  0  0  0  0  0
  -22.4576   -8.0293   21.3462 C   0  0  0  0  0  0  0  0  0  0  0  0
  -30.8381  -25.4887   24.7595 C   0  0  0  0  0  0  0  0  0  0  0  0
  -21.0369   -6.7597   22.7217 C   0  0  0  0  0  0  0  0  0  0  0  0
  -19.5562   -6.5371   25.0755 C   0  0  0  0  0  0  0  0  0  0  0  0
  -21.3231   -5.7424   23.6321 C   0  0  0  0  0  0  0  0  0  0  0  0
  -24.5905  -11.6260   20.7042 C   0  0  0  0  0  0  0  0  0  0  0  0
  -32.0373  -18.6954   22.1044 C   0  0  0  0  0  0  0  0  0  0  0  0
  -30.4068  -17.0778   22.0492 C   0  0  0  0  0  0  0  0  0  0  0  0
  -25.1847  -13.7378   20.5551 C   0  0  0  0  0  0  0  0  0  0  0  0
  -22.8410  -13.3957   21.3540 C   0  0  0  0  0  0  0  0  0  0  0  0
  -29.3434  -27.7033   20.0345 C   0  0  0  0  0  0  0  0  0  0  0  0
  -31.6281  -25.9104   18.5895 C   0  0  0  0  0  0  0  0  0  0  0  0
  -34.1017  -23.5786   18.8901 C   0  0  0  0  0  0  0  0  0  0  0  0
  -30.6160  -14.9545   20.7097 C   0  0  0  0  0  0  0  0  0  0  0  0
  -26.6016  -31.8648   18.9290 C   0  0  0  0  0  0  0  0  0  0  0  0
  -31.3579  -28.2079   21.4638 C   0  0  0  0  0  0  0  0  0  0  0  0
  -31.0595  -25.3072   20.9724 C   0  0  0  0  0  0  0  0  0  0  0  0
  -27.3009  -30.7725   18.1239 C   0  0  0  0  0  0  0  0  0  0  0  0
  -29.5504  -12.6016   18.2591 C   0  0  0  0  0  0  0  0  0  0  0  0
  -26.9281  -29.3935   18.6591 C   0  0  0  0  0  0  0  0  0  0  0  0
  -28.1265  -12.2460   18.6929 C   0  0  0  0  0  0  0  0  0  0  0  0
  -29.9683  -20.0681   25.6237 C   0  0  0  0  0  0  0  0  0  0  0  0
  -28.8991  -21.2135   23.6409 C   0  0  0  0  0  0  0  0  0  0  0  0
  -30.4728  -12.8123   19.4585 C   0  0  0  0  0  0  0  0  0  0  0  0
  -28.5610  -13.4182   20.8893 C   0  0  0  0  0  0  0  0  0  0  0  0
  -29.1919  -20.9853   26.5599 C   0  0  0  0  0  0  0  0  0  0  0  0
  -28.1306  -22.1217   24.5923 C   0  0  0  0  0  0  0  0  0  0  0  0
  -29.2260  -19.8607   24.2936 C   0  0  0  0  0  0  0  0  0  0  0  0
  -27.3779  -29.2269   20.1156 C   0  0  1  0  0  0  0  0  0  0  0  0
  -30.8422  -27.6676   20.1336 C   0  0  1  0  0  0  0  0  0  0  0  0
  -27.5795  -13.2601   19.7166 C   0  0  2  0  0  0  0  0  0  0  0  0
  -28.2537  -17.2797   23.3305 C   0  0  0  0  0  0  0  0  0  0  0  0
  -33.3792  -19.1637   21.6492 C   0  0  0  0  0  0  0  0  0  0  0  0
  -35.7650  -22.2844   17.5277 C   0  0  0  0  0  0  0  0  0  0  0  0
  -29.3920  -24.0877   17.5957 C   0  0  0  0  0  0  0  0  0  0  0  0
  -31.1261  -22.3560   17.0832 C   0  0  0  0  0  0  0  0  0  0  0  0
  -31.1805  -24.5579   15.9121 C   0  0  0  0  0  0  0  0  0  0  0  0
  -36.3899  -24.7585   20.3498 C   0  0  0  0  0  0  0  0  0  0  0  0
  -28.2679  -23.2891   26.7907 C   0  0  0  0  0  0  0  0  0  0  0  0
  -30.0273  -25.1359   26.9672 C   0  0  0  0  0  0  0  0  0  1  0  0
  -31.8366  -24.4345   18.3506 C   0  0  1  0  0  0  0  0  0  0  0  0
  -35.5202  -23.5396   18.3507 C   0  0  2  0  0  0  0  0  0  0  0  0
  -29.3059  -23.9873   27.6650 C   0  0  1  0  0  0  0  0  0  0  0  0
  -30.8813  -23.8696   17.2617 C   0  0  0  0  0  0  0  0  0  0  0  0
  -25.8524  -11.5885   20.2681 N   0  0  0  0  0  0  0  0  0  0  0  0
  -31.6236  -17.4970   21.6351 N   0  0  0  0  0  0  0  0  0  0  0  0
  -26.1859  -12.8878   20.1872 N   0  0  0  0  0  0  0  0  0  0  0  0
  -31.2535  -26.2839   19.8880 N   0  0  0  0  0  0  0  0  0  0  0  0
  -29.8919  -13.7884   20.3829 N   0  0  0  0  0  0  0  0  0  0  0  0
  -25.3510  -15.0773   20.5333 N   0  0  0  0  0  0  0  0  0  0  0  0
  -21.8634  -12.4411   21.6659 N   0  0  0  0  0  0  0  0  0  0  0  0
  -29.9495  -15.8244   21.5719 N   0  0  0  0  0  0  0  0  0  0  0  0
  -28.8000  -28.9656   20.1786 N   0  0  0  0  0  0  0  0  0  0  0  0
  -33.2538  -24.2662   18.0478 N   0  0  0  0  0  0  0  0  0  0  0  0
  -28.9127  -22.3119   25.8786 N   0  3  0  0  0  0  0  0  0  0  0  0
  -36.5016  -23.5652   19.4719 N   0  3  0  0  0  0  0  0  0  0  0  0
  -22.5658  -14.6147   21.4635 O   0  0  0  0  0  0  0  0  0  0  0  0
  -28.7258  -26.6629   19.8401 O   0  0  0  0  0  0  0  0  0  0  0  0
  -31.7984  -26.7034   17.6601 O   0  0  0  0  0  0  0  0  0  0  0  0
  -33.7775  -23.0486   19.9505 O   0  0  0  0  0  0  0  0  0  0  0  0
  -31.7331  -15.1786   20.2365 O   0  0  0  0  0  0  0  0  0  0  0  0
  -28.6746  -24.4977   28.8403 O   0  0  0  0  0  0  0  0  0  0  0  0
  -21.7716   -6.8721   21.5533 O   0  0  0  0  0  0  0  0  0  0  0  0
  -30.6792  -24.6299   25.8030 O   0  0  0  0  0  0  0  0  0  1  0  0
  -18.8461   -6.4312   26.2064 F   0  0  0  0  0  0  0  0  0  0  0  0
  -22.3088   -4.8697   23.3820 F   0  0  0  0  0  0  0  0  0  0  0  0
  1  2  1  0  0  0  0
  1  5  2  0  0  0  0
  2  6  2  0  0  0  0
  3  8  2  0  0  0  0
  3 16  1  0  0  0  0
  4  9  1  0  0  0  0
  4 16  2  0  0  0  0
  5 18  1  0  0  0  0
  6 20  1  0  0  0  0
  7 10  2  0  0  0  0
  7 19  1  0  0  0  0
  8 24  1  0  0  0  0
  9 24  2  0  0  0  0
 10 25  1  0  0  0  0
 11 12  2  0  0  0  0
 11 26  1  0  0  0  0
 12 27  1  0  0  0  0
 13 21  1  0  0  0  0
 13 25  2  0  0  0  0
 14 22  1  0  0  0  0
 14 30  2  0  0  0  0
 15 27  2  0  0  0  0
 15 28  1  0  0  0  0
 16 29  1  0  0  0  0
 17 29  1  0  0  0  0
 17 32  2  0  0  0  0
 17 33  1  0  0  0  0
 18 20  2  0  0  0  0
 18 38  1  0  0  0  0
 19 21  2  0  0  0  0
 19 39  1  0  0  0  0
 20 52  1  0  0  0  0
 21 40  1  0  0  0  0
 22 23  2  0  0  0  0
 22 51  1  0  0  0  0
 23 31  1  0  0  0  0
 23 55  1  0  0  0  0
 24 86  1  0  0  0  0
 25 87  1  0  0  0  0
 26 28  2  0  0  0  0
 26 86  1  0  0  0  0
 27 88  1  0  0  0  0
 28 89  1  0  0  0  0
 29 68  2  0  0  0  0
 30 56  1  0  0  0  0
 30 69  1  0  0  0  0
 31 69  2  0  0  0  0
 31 75  1  0  0  0  0
 32 70  1  0  0  0  0
 32 73  1  0  0  0  0
 33 74  1  0  0  0  0
 33 80  2  0  0  0  0
 34 53  1  0  0  0  0
 34 76  1  0  0  0  0
 34 81  2  0  0  0  0
 35 64  1  0  0  0  0
 35 71  1  0  0  0  0
 35 82  2  0  0  0  0
 36 65  1  0  0  0  0
 36 77  1  0  0  0  0
 36 83  2  0  0  0  0
 37 72  1  0  0  0  0
 37 75  1  0  0  0  0
 37 84  2  0  0  0  0
 38 41  1  0  0  0  0
 39 53  1  0  0  0  0
 40 71  1  0  0  0  0
 41 43  1  0  0  0  0
 42 44  1  0  0  0  0
 42 47  1  0  0  0  0
 43 52  1  0  0  0  0
 44 54  1  0  0  0  0
 45 49  1  0  0  0  0
 45 51  1  0  0  0  0
 46 50  1  0  0  0  0
 46 51  1  0  0  0  0
 47 72  1  0  0  0  0
 48 54  1  0  0  0  0
 48 72  1  0  0  0  0
 49 78  1  0  0  0  0
 50 78  1  0  0  0  0
 52 76  1  0  0  0  0
 53 71  1  0  0  0  0
 54 70  1  0  0  0  0
 57 65  1  0  0  0  0
 58 67  1  0  0  0  0
 59 67  1  0  0  0  0
 60 67  1  0  0  0  0
 61 79  1  0  0  0  0
 62 66  1  0  0  0  0
 62 78  1  0  0  0  0
 63 66  1  0  0  0  0
 63 87  1  0  0  0  0
 64 67  1  0  0  0  0
 64 77  1  0  0  0  0
 65 79  1  0  0  0  0
 66 85  1  0  0  0  0
 68 70  1  0  0  0  0
M  CHG  2  78   1  79   1
M  ISO  4  37 100  63 101  75 100  87 101
M  END
> <Batch ID>
0147

> <Smiles>
CNC(C)C(=O)NC(C(=O)N1Cc2cc([101O:1][101CH2:1]C(O)CN3CCC(c4cc(C)nc([100NH:0][100C:0](=O)N5CCCC(n6nc(-c7ccc(Oc8ccc(F)cc8F)cc7)c(C(N)=O)c6N)C5)c4C)CC3)ccc2CC1C(=O)NC1CCCc2ccccc21)C(C)(C)C

> <Shape>
0.274

> <Color>
0.191

> <Negative vol penalty>
0.000

$$$$

  -OEChem-04052321333D

 77 85  0     1  0  0  0  0  0999 V2000
  -23.6858  -27.9110   28.8372 C   0  0  0  0  0  0  0  0  0  0  0  0
  -24.3705  -26.7681   28.4366 C   0  0  0  0  0  0  0  0  0  0  0  0
  -23.0012   -9.8864   19.9831 C   0  0  0  0  0  0  0  0  0  0  0  0
  -23.7234   -9.9440   22.2879 C   0  0  0  0  0  0  0  0  0  0  0  0
  -23.4020  -28.9130   27.9102 C   0  0  0  0  0  0  0  0  0  0  0  0
  -24.7707  -26.6261   27.1084 C   0  0  0  0  0  0  0  0  0  0  0  0
  -29.8609  -23.8991   25.0689 C   0  0  0  0  0  0  0  0  0  0  0  0
  -22.2355   -8.7518   20.2513 C   0  0  0  0  0  0  0  0  0  0  0  0
  -22.9577   -8.8094   22.5562 C   0  0  0  0  0  0  0  0  0  0  0  0
  -30.1015  -22.6250   24.5564 C   0  0  0  0  0  0  0  0  0  0  0  0
  -23.2061   -5.4695   22.0931 C   0  0  0  0  0  0  0  0  0  0  0  0
  -23.7937   -4.4549   22.8486 C   0  0  0  0  0  0  0  0  0  0  0  0
  -29.8863  -23.4923   22.3157 C   0  0  0  0  0  0  0  0  0  0  0  0
  -22.0675   -4.7003   24.5210 C   0  0  0  0  0  0  0  0  0  0  0  0
  -31.8495  -17.4600   21.6589 C   0  0  0  0  0  0  0  0  0  0  0  0
  -29.9358  -17.8238   22.6788 C   0  0  0  0  0  0  0  0  0  0  0  0
  -23.7452  -10.4825   21.0013 C   0  0  0  0  0  0  0  0  0  0  0  0
  -24.1281  -12.9980   20.8194 C   0  0  0  0  0  0  0  0  0  0  0  0
  -23.8075  -28.7876   26.5721 C   0  0  0  0  0  0  0  0  0  0  0  0
  -29.6199  -24.9790   24.2074 C   0  0  0  0  0  0  0  0  0  0  0  0
  -24.4909  -27.6268   26.1624 C   0  0  0  0  0  0  0  0  0  0  0  0
  -29.6454  -24.7796   22.8197 C   0  0  0  0  0  0  0  0  0  0  0  0
  -30.5856  -16.8919   21.9070 C   0  0  0  0  0  0  0  0  0  0  0  0
  -22.2137   -8.2133   21.5379 C   0  0  0  0  0  0  0  0  0  0  0  0
  -30.1113  -22.4209   23.1796 C   0  0  0  0  0  0  0  0  0  0  0  0
  -22.0492   -6.0997   22.5516 C   0  0  0  0  0  0  0  0  0  0  0  0
  -23.2244   -4.0702   24.0625 C   0  0  0  0  0  0  0  0  0  0  0  0
  -21.4799   -5.7150   23.7655 C   0  0  0  0  0  0  0  0  0  0  0  0
  -24.5368  -11.6542   20.7247 C   0  0  0  0  0  0  0  0  0  0  0  0
  -25.2376  -13.7209   20.4545 C   0  0  0  0  0  0  0  0  0  0  0  0
  -22.8591  -13.5441   21.2029 C   0  0  0  0  0  0  0  0  0  0  0  0
  -27.1810  -26.9581   23.7192 C   0  0  0  0  0  0  0  0  0  0  0  0
  -29.2771  -28.4259   21.7257 C   0  0  0  0  0  0  0  0  0  0  0  0
  -32.0666  -28.1936   19.7733 C   0  0  0  0  0  0  0  0  0  0  0  0
  -30.7157  -14.6884   20.6928 C   0  0  0  0  0  0  0  0  0  0  0  0
  -23.4364  -29.8758   25.5961 C   0  0  0  0  0  0  0  0  0  0  0  0
  -29.3885  -26.3524   24.7755 C   0  0  0  0  0  0  0  0  0  0  0  0
  -29.4126  -25.9098   21.8517 C   0  0  0  0  0  0  0  0  0  0  0  0
  -24.2242  -29.8170   24.2898 C   0  0  0  0  0  0  0  0  0  0  0  0
  -29.6030  -12.2282   18.3720 C   0  0  0  0  0  0  0  0  0  0  0  0
  -24.2603  -28.3900   23.7520 C   0  0  0  0  0  0  0  0  0  0  0  0
  -28.1522  -11.9701   18.7850 C   0  0  0  0  0  0  0  0  0  0  0  0
  -30.5017  -12.4758   19.5822 C   0  0  0  0  0  0  0  0  0  0  0  0
  -28.5838  -13.2661   20.9112 C   0  0  0  0  0  0  0  0  0  0  0  0
  -24.9634  -27.4472   24.7360 C   0  0  1  0  0  0  0  0  0  0  0  0
  -28.6458  -27.2781   23.8170 C   0  0  1  0  0  0  0  0  0  0  0  0
  -27.6279  -13.0756   19.7223 C   0  0  2  0  0  0  0  0  0  0  0  0
  -33.5141  -29.5503   18.2366 C   0  0  0  0  0  0  0  0  0  0  0  0
  -27.1614  -28.2015   19.5386 C   0  0  0  0  0  0  0  0  0  0  0  0
  -28.9522  -28.6756   17.8544 C   0  0  0  0  0  0  0  0  0  0  0  0
  -28.3869  -30.3811   19.5848 C   0  0  0  0  0  0  0  0  0  0  0  0
  -34.4432  -27.8254   21.4982 C   0  0  0  0  0  0  0  0  0  0  0  0
  -30.5743  -20.1220   23.6138 C   0  0  0  0  0  0  0  0  0  1  0  0
  -29.6371  -28.2917   20.2658 C   0  0  1  0  0  0  0  0  0  0  0  0
  -33.2968  -29.0764   19.6653 C   0  0  2  0  0  0  0  0  0  0  0  0
  -28.5369  -28.8656   19.3289 C   0  0  0  0  0  0  0  0  0  0  0  0
  -31.9960  -18.6600   22.2268 N   0  0  0  0  0  0  0  0  0  0  0  0
  -25.8067  -11.5280   20.3304 N   0  0  0  0  0  0  0  0  0  0  0  0
  -30.8156  -18.8536   22.8394 N   0  0  0  0  0  0  0  0  0  0  0  0
  -26.2055  -12.8018   20.1741 N   0  0  0  0  0  0  0  0  0  0  0  0
  -29.1845  -27.2327   22.4561 N   0  0  0  0  0  0  0  0  0  0  0  0
  -29.9445  -13.5383   20.4220 N   0  0  0  0  0  0  0  0  0  0  0  0
  -25.4698  -15.0465   20.3493 N   0  0  0  0  0  0  0  0  0  0  0  0
  -21.8278  -12.6598   21.5474 N   0  0  0  0  0  0  0  0  0  0  0  0
  -30.0694  -15.6450   21.4750 N   0  0  0  0  0  0  0  0  0  0  0  0
  -26.3991  -27.6099   24.6536 N   0  0  0  0  0  0  0  0  0  0  0  0
  -30.9439  -28.9208   20.1081 N   0  0  0  0  0  0  0  0  0  0  0  0
  -34.5102  -28.3296   20.1024 N   0  3  0  0  0  0  0  0  0  0  0  0
  -22.6411  -14.7793   21.2232 O   0  0  0  0  0  0  0  0  0  0  0  0
  -26.7889  -26.1787   22.8586 O   0  0  0  0  0  0  0  0  0  0  0  0
  -29.0921  -29.5486   22.2022 O   0  0  0  0  0  0  0  0  0  0  0  0
  -32.0976  -26.9808   19.5766 O   0  0  0  0  0  0  0  0  0  0  0  0
  -31.8548  -14.8274   20.2399 O   0  0  0  0  0  0  0  0  0  0  0  0
  -21.4665   -7.1063   21.8001 O   0  0  0  0  0  0  0  0  0  0  0  0
  -30.3453  -21.1782   22.6768 O   0  0  0  0  0  0  0  0  0  1  0  0
  -23.7880   -3.0948   24.7871 F   0  0  0  0  0  0  0  0  0  0  0  0
  -20.3678   -6.3159   24.2106 F   0  0  0  0  0  0  0  0  0  0  0  0
  1  2  1  0  0  0  0
  1  5  2  0  0  0  0
  2  6  2  0  0  0  0
  3  8  2  0  0  0  0
  3 17  1  0  0  0  0
  4  9  1  0  0  0  0
  4 17  2  0  0  0  0
  5 19  1  0  0  0  0
  6 21  1  0  0  0  0
  7 10  2  0  0  0  0
  7 20  1  0  0  0  0
  8 24  1  0  0  0  0
  9 24  2  0  0  0  0
 10 25  1  0  0  0  0
 11 12  2  0  0  0  0
 11 26  1  0  0  0  0
 12 27  1  0  0  0  0
 13 22  1  0  0  0  0
 13 25  2  0  0  0  0
 14 27  2  0  0  0  0
 14 28  1  0  0  0  0
 15 23  1  0  0  0  0
 15 57  2  0  0  0  0
 16 23  2  0  0  0  0
 16 59  1  0  0  0  0
 17 29  1  0  0  0  0
 18 29  1  0  0  0  0
 18 30  2  0  0  0  0
 18 31  1  0  0  0  0
 19 21  2  0  0  0  0
 19 36  1  0  0  0  0
 20 22  2  0  0  0  0
 20 37  1  0  0  0  0
 21 45  1  0  0  0  0
 22 38  1  0  0  0  0
 23 65  1  0  0  0  0
 24 74  1  0  0  0  0
 25 75  1  0  0  0  0
 26 28  2  0  0  0  0
 26 74  1  0  0  0  0
 27 76  1  0  0  0  0
 28 77  1  0  0  0  0
 29 58  2  0  0  0  0
 30 60  1  0  0  0  0
 30 63  1  0  0  0  0
 31 64  1  0  0  0  0
 31 69  2  0  0  0  0
 32 46  1  0  0  0  0
 32 66  1  0  0  0  0
 32 70  2  0  0  0  0
 33 54  1  0  0  0  0
 33 61  1  0  0  0  0
 33 71  2  0  0  0  0
 34 55  1  0  0  0  0
 34 67  1  0  0  0  0
 34 72  2  0  0  0  0
 35 62  1  0  0  0  0
 35 65  1  0  0  0  0
 35 73  2  0  0  0  0
 36 39  1  0  0  0  0
 37 46  1  0  0  0  0
 38 61  1  0  0  0  0
 39 41  1  0  0  0  0
 40 42  1  0  0  0  0
 40 43  1  0  0  0  0
 41 45  1  0  0  0  0
 42 47  1  0  0  0  0
 43 62  1  0  0  0  0
 44 47  1  0  0  0  0
 44 62  1  0  0  0  0
 45 66  1  0  0  0  0
 46 61  1  0  0  0  0
 47 60  1  0  0  0  0
 48 55  1  0  0  0  0
 49 56  1  0  0  0  0
 50 56  1  0  0  0  0
 51 56  1  0  0  0  0
 52 68  1  0  0  0  0
 53 59  1  0  0  0  0
 53 75  1  0  0  0  0
 54 56  1  0  0  0  0
 54 67  1  0  0  0  0
 55 68  1  0  0  0  0
 57 59  1  0  0  0  0
 58 60  1  0  0  0  0
M  CHG  1  68   1
M  ISO  4  35 100  53 101  65 100  75 101
M  END
> <Batch ID>
0147

> <Smiles>
CNC(C)C(=O)NC(C(=O)N1Cc2cc([101O:1][101CH2:1]n3cc([100NH:0][100C:0](=O)N4CCCC(n5nc(-c6ccc(Oc7ccc(F)cc7F)cc6)c(C(N)=O)c5N)C4)cn3)ccc2CC1C(=O)NC1CCCc2ccccc21)C(C)(C)C

> <Shape>
0.230

> <Color>
0.202

> <Negative vol penalty>
0.000

$$$$

  -OEChem-04052321333D

 83 91  0     1  0  0  0  0  0999 V2000
  -16.8603  -29.0697   24.3451 C   0  0  0  0  0  0  0  0  0  0  0  0
  -17.5096  -28.0581   23.6447 C   0  0  0  0  0  0  0  0  0  0  0  0
  -25.5029   -9.0901   21.5338 C   0  0  0  0  0  0  0  0  0  0  0  0
  -25.1881  -10.5308   23.4475 C   0  0  0  0  0  0  0  0  0  0  0  0
  -17.2588  -30.3957   24.1817 C   0  0  0  0  0  0  0  0  0  0  0  0
  -18.5572  -28.3721   22.7797 C   0  0  0  0  0  0  0  0  0  0  0  0
  -22.5118  -25.2528   23.3048 C   0  0  0  0  0  0  0  0  0  0  0  0
  -25.5691   -7.9823   22.3787 C   0  0  0  0  0  0  0  0  0  0  0  0
  -25.2542   -9.4229   24.2925 C   0  0  0  0  0  0  0  0  0  0  0  0
  -22.4121  -23.9934   22.7152 C   0  0  0  0  0  0  0  0  0  0  0  0
  -23.2102   -6.9190   25.2786 C   0  0  0  0  0  0  0  0  0  0  0  0
  -22.2609   -6.8243   26.2962 C   0  0  0  0  0  0  0  0  0  0  0  0
  -23.7400  -24.7656   20.8553 C   0  0  0  0  0  0  0  0  0  0  0  0
  -23.8310  -20.3289   20.6433 C   0  0  0  0  0  0  0  0  0  0  0  0
  -24.0269   -6.8379   27.9449 C   0  0  0  0  0  0  0  0  0  0  0  0
  -25.8236  -21.0558   22.3598 C   0  0  0  0  0  0  0  0  0  0  0  0
  -25.3124  -10.3644   22.0682 C   0  0  0  0  0  0  0  0  0  0  0  0
  -24.0933  -12.0542   20.5966 C   0  0  0  0  0  0  0  0  0  0  0  0
  -18.3181  -30.7252   23.3215 C   0  0  0  0  0  0  0  0  0  0  0  0
  -23.2184  -26.2830   22.6678 C   0  0  0  0  0  0  0  0  0  0  0  0
  -18.9694  -29.7040   22.6036 C   0  0  0  0  0  0  0  0  0  0  0  0
  -23.8494  -26.0365   21.4401 C   0  0  0  0  0  0  0  0  0  0  0  0
  -24.8227  -19.4092   20.9657 C   0  0  0  0  0  0  0  0  0  0  0  0
  -25.4447   -8.1486   23.7580 C   0  0  0  0  0  0  0  0  0  0  0  0
  -23.0237  -23.7505   21.4889 C   0  0  0  0  0  0  0  0  0  0  0  0
  -24.5678   -6.9730   25.5941 C   0  0  0  0  0  0  0  0  0  0  0  0
  -25.8420  -19.7719   21.8392 C   0  0  0  0  0  0  0  0  0  0  0  0
  -22.6692   -6.7838   27.6293 C   0  0  0  0  0  0  0  0  0  0  0  0
  -24.9762   -6.9325   26.9273 C   0  0  0  0  0  0  0  0  0  0  0  0
  -25.2446  -11.5093   21.1960 C   0  0  0  0  0  0  0  0  0  0  0  0
  -23.9031  -21.5883   21.2166 C   0  0  0  0  0  0  0  0  0  1  0  0
  -24.5578  -13.1229   19.8695 C   0  0  0  0  0  0  0  0  0  0  0  0
  -22.7261  -11.6322   20.6888 C   0  0  0  0  0  0  0  0  0  0  0  0
  -22.4587  -29.1490   21.5221 C   0  0  0  0  0  0  0  0  0  0  0  0
  -25.6612  -29.3836   21.0625 C   0  0  0  0  0  0  0  0  0  0  0  0
  -28.6479  -27.7944   20.6142 C   0  0  0  0  0  0  0  0  0  0  0  0
  -29.4016  -16.6053   20.3804 C   0  0  0  0  0  0  0  0  0  0  0  0
  -18.6822  -32.1777   23.1415 C   0  0  0  0  0  0  0  0  0  0  0  0
  -23.3392  -27.6282   23.3298 C   0  0  0  0  0  0  0  0  0  0  0  0
  -24.6368  -27.1028   20.7250 C   0  0  0  0  0  0  0  0  0  0  0  0
  -20.0471  -32.3874   22.4909 C   0  0  0  0  0  0  0  0  0  0  0  0
  -28.4474  -14.6669   17.5505 C   0  0  0  0  0  0  0  0  0  0  0  0
  -20.2037  -31.4804   21.2744 C   0  0  0  0  0  0  0  0  0  0  0  0
  -27.4145  -13.6870   18.1098 C   0  0  0  0  0  0  0  0  0  0  0  0
  -29.5662  -14.9409   18.5532 C   0  0  0  0  0  0  0  0  0  0  0  0
  -28.0774  -14.4056   20.4428 C   0  0  0  0  0  0  0  0  0  0  0  0
  -20.1264  -30.0022   21.6749 C   0  0  1  0  0  0  0  0  0  0  0  0
  -23.6506  -28.7523   22.3464 C   0  0  1  0  0  0  0  0  0  0  0  0
  -26.8999  -14.1413   19.4890 C   0  0  2  0  0  0  0  0  0  0  0  0
  -24.8993  -18.0683   18.8327 C   0  0  0  0  0  0  0  0  0  0  0  0
  -23.5175  -17.2607   20.7803 C   0  0  0  0  0  0  0  0  0  0  0  0
  -31.0847  -28.2528   20.2280 C   0  0  0  0  0  0  0  0  0  0  0  0
  -25.0663  -30.0805   18.1521 C   0  0  0  0  0  0  0  0  0  0  0  0
  -27.4632  -29.5926   17.6182 C   0  0  0  0  0  0  0  0  0  0  0  0
  -26.8893  -31.4361   19.1978 C   0  0  0  0  0  0  0  0  0  0  0  0
  -29.4212  -26.4327   23.1256 C   0  0  0  0  0  0  0  0  0  0  0  0
  -29.1211  -18.1793   22.2786 C   0  0  0  0  0  0  0  0  0  0  0  0
  -28.1706  -19.2894   21.8674 C   0  0  0  0  0  0  0  0  0  0  0  0
  -24.7786  -18.0424   20.3678 C   0  0  0  0  0  0  0  0  0  0  0  0
  -26.6085  -29.0356   19.9398 C   0  0  1  0  0  0  0  0  0  0  0  0
  -30.0038  -27.9957   21.2664 C   0  0  2  0  0  0  0  0  0  0  0  0
  -26.4904  -30.0164   18.7393 C   0  0  0  0  0  0  0  0  0  0  0  0
  -24.8772  -21.9767   22.0699 N   0  0  0  0  0  0  0  0  0  0  0  0
  -26.3569  -12.1766   20.8773 N   0  0  0  0  0  0  0  0  0  0  0  0
  -25.9066  -13.1518   20.0696 N   0  0  0  0  0  0  0  0  0  0  0  0
  -24.7207  -28.4034   21.4097 N   0  0  0  0  0  0  0  0  0  0  0  0
  -29.0112  -15.3693   19.8394 N   0  0  0  0  0  0  0  0  0  0  0  0
  -23.9400  -14.0313   19.0849 N   0  0  0  0  0  0  0  0  0  0  0  0
  -22.4236  -10.5150   21.4792 N   0  0  0  0  0  0  0  0  0  0  0  0
  -21.3751  -29.5731   22.2674 N   0  0  0  0  0  0  0  0  0  0  0  0
  -27.9399  -28.9749   20.5332 N   0  0  0  0  0  0  0  0  0  0  0  0
  -28.8237  -16.9379   21.5995 N   0  0  0  0  0  0  0  0  0  0  0  0
  -30.3849  -26.7882   22.0524 N   0  3  0  0  0  0  0  0  0  0  0  0
  -21.8024  -12.2183   20.0751 O   0  0  0  0  0  0  0  0  0  0  0  0
  -22.5182  -29.0770   20.3002 O   0  0  0  0  0  0  0  0  0  0  0  0
  -25.7570  -30.4818   21.6161 O   0  0  0  0  0  0  0  0  0  0  0  0
  -28.2574  -26.7002   20.2132 O   0  0  0  0  0  0  0  0  0  0  0  0
  -30.2017  -17.3593   19.8161 O   0  0  0  0  0  0  0  0  0  0  0  0
  -25.5090   -7.0678   24.5828 O   0  0  0  0  0  0  0  0  0  0  0  0
  -22.9274  -22.5223   20.9108 O   0  0  0  0  0  0  0  0  0  1  0  0
  -26.8304  -18.9073   22.1817 O   0  0  0  0  0  0  0  0  0  0  0  0
  -21.7574   -6.6945   28.6065 F   0  0  0  0  0  0  0  0  0  0  0  0
  -26.2790   -6.9853   27.2366 F   0  0  0  0  0  0  0  0  0  0  0  0
  1  2  1  0  0  0  0
  1  5  2  0  0  0  0
  2  6  2  0  0  0  0
  3  8  2  0  0  0  0
  3 17  1  0  0  0  0
  4  9  1  0  0  0  0
  4 17  2  0  0  0  0
  5 19  1  0  0  0  0
  6 21  1  0  0  0  0
  7 10  2  0  0  0  0
  7 20  1  0  0  0  0
  8 24  1  0  0  0  0
  9 24  2  0  0  0  0
 10 25  1  0  0  0  0
 11 12  2  0  0  0  0
 11 26  1  0  0  0  0
 12 28  1  0  0  0  0
 13 22  1  0  0  0  0
 13 25  2  0  0  0  0
 14 23  2  0  0  0  0
 14 31  1  0  0  0  0
 15 28  2  0  0  0  0
 15 29  1  0  0  0  0
 16 27  2  0  0  0  0
 16 63  1  0  0  0  0
 17 30  1  0  0  0  0
 18 30  1  0  0  0  0
 18 32  2  0  0  0  0
 18 33  1  0  0  0  0
 19 21  2  0  0  0  0
 19 38  1  0  0  0  0
 20 22  2  0  0  0  0
 20 39  1  0  0  0  0
 21 47  1  0  0  0  0
 22 40  1  0  0  0  0
 23 27  1  0  0  0  0
 23 59  1  0  0  0  0
 24 79  1  0  0  0  0
 25 80  1  0  0  0  0
 26 29  2  0  0  0  0
 26 79  1  0  0  0  0
 27 81  1  0  0  0  0
 28 82  1  0  0  0  0
 29 83  1  0  0  0  0
 30 64  2  0  0  0  0
 31 63  2  0  0  0  0
 31 80  1  0  0  0  0
 32 65  1  0  0  0  0
 32 68  1  0  0  0  0
 33 69  1  0  0  0  0
 33 74  2  0  0  0  0
 34 48  1  0  0  0  0
 34 70  1  0  0  0  0
 34 75  2  0  0  0  0
 35 60  1  0  0  0  0
 35 66  1  0  0  0  0
 35 76  2  0  0  0  0
 36 61  1  0  0  0  0
 36 71  1  0  0  0  0
 36 77  2  0  0  0  0
 37 67  1  0  0  0  0
 37 72  1  0  0  0  0
 37 78  2  0  0  0  0
 38 41  1  0  0  0  0
 39 48  1  0  0  0  0
 40 66  1  0  0  0  0
 41 43  1  0  0  0  0
 42 44  1  0  0  0  0
 42 45  1  0  0  0  0
 43 47  1  0  0  0  0
 44 49  1  0  0  0  0
 45 67  1  0  0  0  0
 46 49  1  0  0  0  0
 46 67  1  0  0  0  0
 47 70  1  0  0  0  0
 48 66  1  0  0  0  0
 49 65  1  0  0  0  0
 50 59  1  0  0  0  0
 51 59  1  0  0  0  0
 52 61  1  0  0  0  0
 53 62  1  0  0  0  0
 54 62  1  0  0  0  0
 55 62  1  0  0  0  0
 56 73  1  0  0  0  0
 57 58  1  0  0  0  0
 57 72  1  0  0  0  0
 58 81  1  0  0  0  0
 60 62  1  0  0  0  0
 60 71  1  0  0  0  0
 61 73  1  0  0  0  0
 64 65  1  0  0  0  0
M  CHG  1  73   1
M  ISO  4  31 101  37 100  72 100  80 101
M  END
> <Batch ID>
0147

> <Smiles>
CNC(C)C(=O)NC(C(=O)N1Cc2cc([101O:1][101c:1]3cc(C(C)C)c(OCC[100NH:0][100C:0](=O)N4CCCC(n5nc(-c6ccc(Oc7ccc(F)cc7F)cc6)c(C(N)=O)c5N)C4)cn3)ccc2CC1C(=O)NC1CCCc2ccccc21)C(C)(C)C

> <Shape>
0.206

> <Color>
0.102

> <Negative vol penalty>
0.000

$$$$

  -OEChem-04052321333D

 84 93  0     1  0  0  0  0  0999 V2000
  -17.2134  -14.8025   25.2828 C   0  0  0  0  0  0  0  0  0  0  0  0
  -18.5165  -15.2877   25.3258 C   0  0  0  0  0  0  0  0  0  0  0  0
  -24.5980  -29.0434   22.4024 C   0  0  0  0  0  0  0  0  0  0  0  0
  -25.1603  -30.8220   20.8671 C   0  0  0  0  0  0  0  0  0  0  0  0
  -16.7994  -14.0139   24.2101 C   0  0  0  0  0  0  0  0  0  0  0  0
  -19.4067  -14.9837   24.2965 C   0  0  0  0  0  0  0  0  0  0  0  0
  -23.8314  -18.5865   22.0720 C   0  0  0  0  0  0  0  0  0  0  0  0
  -31.6563  -16.4941   22.2243 C   0  0  0  0  0  0  0  0  0  0  0  0
  -30.3270  -16.3883   21.8152 C   0  0  0  0  0  0  0  0  0  0  0  0
  -24.0134  -29.9718   23.2638 C   0  0  0  0  0  0  0  0  0  0  0  0
  -24.5757  -31.7504   21.7284 C   0  0  0  0  0  0  0  0  0  0  0  0
  -25.2037  -18.6433   22.3114 C   0  0  0  0  0  0  0  0  0  0  0  0
  -23.5511  -34.6337   23.6897 C   0  0  0  0  0  0  0  0  0  0  0  0
  -24.2481  -35.8160   23.9384 C   0  0  0  0  0  0  0  0  0  0  0  0
  -31.7205  -18.7736   21.4265 C   0  0  0  0  0  0  0  0  0  0  0  0
  -25.5939  -17.2710   20.3662 C   0  0  0  0  0  0  0  0  0  0  0  0
  -26.0921  -34.5399   24.8375 C   0  0  0  0  0  0  0  0  0  0  0  0
  -25.1715  -29.4685   21.2041 C   0  0  0  0  0  0  0  0  0  0  0  0
  -25.1482  -27.8065   19.2689 C   0  0  0  0  0  0  0  0  0  0  0  0
  -17.6821  -13.7081   23.1624 C   0  0  0  0  0  0  0  0  0  0  0  0
  -23.3285  -17.8612   20.9823 C   0  0  0  0  0  0  0  0  0  0  0  0
  -19.0045  -14.1892   23.2094 C   0  0  0  0  0  0  0  0  0  0  0  0
  -30.3912  -18.6679   21.0174 C   0  0  0  0  0  0  0  0  0  0  0  0
  -24.2149  -17.2086   20.1137 C   0  0  0  0  0  0  0  0  0  0  0  0
  -32.3531  -17.6868   22.0300 C   0  0  0  0  0  0  0  0  0  0  0  0
  -29.6944  -17.4752   21.2117 C   0  0  0  0  0  0  0  0  0  0  0  0
  -24.0022  -31.3252   22.9268 C   0  0  0  0  0  0  0  0  0  0  0  0
  -26.0850  -17.9832   21.4601 C   0  0  0  0  0  0  0  0  0  0  0  0
  -24.1245  -33.4044   24.0151 C   0  0  0  0  0  0  0  0  0  0  0  0
  -25.5186  -35.7691   24.5122 C   0  0  0  0  0  0  0  0  0  0  0  0
  -25.3950  -33.3575   24.5889 C   0  0  0  0  0  0  0  0  0  0  0  0
  -25.7761  -28.5101   20.3141 C   0  0  0  0  0  0  0  0  0  0  0  0
  -26.1445  -27.0287   18.7314 C   0  0  0  0  0  0  0  0  0  0  0  0
  -23.7861  -27.8521   18.8235 C   0  0  0  0  0  0  0  0  0  0  0  0
  -21.4072  -15.3503   20.6536 C   0  0  0  0  0  0  0  0  0  0  0  0
  -21.6783  -16.0475   17.4973 C   0  0  0  0  0  0  0  0  0  0  0  0
  -23.4881  -17.5030   14.9967 C   0  0  0  0  0  0  0  0  0  0  0  0
  -30.4828  -23.7089   19.1540 C   0  0  0  0  0  0  0  0  0  0  0  0
  -17.2029  -12.8128   22.0473 C   0  0  0  0  0  0  0  0  0  0  0  0
  -21.8473  -17.8317   20.7224 C   0  0  0  0  0  0  0  0  0  0  0  0
  -23.7271  -16.4332   18.9182 C   0  0  0  0  0  0  0  0  0  0  0  0
  -18.0977  -12.8474   20.8111 C   0  0  0  0  0  0  0  0  0  0  0  0
  -31.1408  -27.0877   19.4695 C   0  0  0  0  0  0  0  0  0  0  0  0
  -19.5650  -12.7277   21.2105 C   0  0  0  0  0  0  0  0  0  0  0  0
  -29.7559  -27.7140   19.6312 C   0  0  0  0  0  0  0  0  0  0  0  0
  -29.6456  -21.0717   21.3132 C   0  0  0  0  0  0  0  0  0  0  0  0
  -30.4107  -20.2555   19.0420 C   0  0  0  0  0  0  0  0  0  0  0  0
  -31.2476  -25.7884   20.2593 C   0  0  0  0  0  0  0  0  0  0  0  0
  -29.0010  -22.2844   20.6358 C   0  0  0  0  0  0  0  0  0  0  0  0
  -29.7279  -21.4691   18.4178 C   0  0  0  0  0  0  0  0  0  0  0  0
  -28.8146  -25.3901   20.0602 C   0  0  0  0  0  0  0  0  0  0  0  0
  -29.7244  -19.8632   20.3630 C   0  0  0  0  0  0  0  0  0  0  0  0
  -19.9923  -13.9018   22.0996 C   0  0  1  0  0  0  0  0  0  0  0  0
  -21.4123  -16.6375   19.8786 C   0  0  1  0  0  0  0  0  0  0  0  0
  -28.6484  -26.7067   19.2745 C   0  0  1  0  0  0  0  0  0  0  0  0
  -33.7744  -17.7994   22.4670 C   0  0  0  0  0  0  0  0  0  0  0  0
  -23.4737  -17.8767   12.5153 C   0  0  0  0  0  0  0  0  0  0  0  0
  -22.5292  -13.1504   17.0584 C   0  0  0  0  0  0  0  0  0  0  0  0
  -23.3970  -13.8194   14.8073 C   0  0  0  0  0  0  0  0  0  0  0  0
  -20.9681  -14.0531   15.3256 C   0  0  0  0  0  0  0  0  0  0  0  0
  -23.4237  -20.4438   15.3231 C   0  0  0  0  0  0  0  0  0  0  0  0
  -28.2710  -17.3380   20.7810 C   0  0  0  0  0  0  0  0  0  1  0  0
  -22.6212  -15.6425   16.3901 C   0  0  1  0  0  0  0  0  0  0  0  0
  -23.0819  -18.4392   13.8729 C   0  0  2  0  0  0  0  0  0  0  0  0
  -22.3883  -14.1793   15.9189 C   0  0  0  0  0  0  0  0  0  0  0  0
  -27.0710  -28.2059   20.4354 N   0  0  0  0  0  0  0  0  0  0  0  0
  -27.2649  -27.3027   19.4593 N   0  0  0  0  0  0  0  0  0  0  0  0
  -22.2696  -16.4289   18.7100 N   0  0  0  0  0  0  0  0  0  0  0  0
  -30.1772  -24.8605   19.8950 N   0  0  0  0  0  0  0  0  0  0  0  0
  -29.6702  -22.5844   19.3623 N   0  0  0  0  0  0  0  0  0  0  0  0
  -26.1627  -26.1439   17.7120 N   0  0  0  0  0  0  0  0  0  0  0  0
  -22.8944  -28.7059   19.4871 N   0  0  0  0  0  0  0  0  0  0  0  0
  -20.2142  -15.0870   21.2993 N   0  0  0  0  0  0  0  0  0  0  0  0
  -22.4674  -16.6409   15.3374 N   0  0  0  0  0  0  0  0  0  0  0  0
  -23.7405  -19.7655   14.0399 N   0  3  0  0  0  0  0  0  0  0  0  0
  -23.3682  -27.1442   17.8760 O   0  0  0  0  0  0  0  0  0  0  0  0
  -22.4109  -14.6472   20.6638 O   0  0  0  0  0  0  0  0  0  0  0  0
  -20.4621  -16.0331   17.2914 O   0  0  0  0  0  0  0  0  0  0  0  0
  -24.6010  -17.5311   15.5176 O   0  0  0  0  0  0  0  0  0  0  0  0
  -31.4256  -23.6863   18.3528 O   0  0  0  0  0  0  0  0  0  0  0  0
  -23.4316  -32.2314   23.7669 O   0  0  0  0  0  0  0  0  0  0  0  0
  -27.4344  -18.0369   21.6935 O   0  0  0  0  0  0  0  0  0  1  0  0
  -26.1885  -36.9046   24.7494 F   0  0  0  0  0  0  0  0  0  0  0  0
  -25.9516  -32.1795   24.9025 F   0  0  0  0  0  0  0  0  0  0  0  0
  1  2  1  0  0  0  0
  1  5  2  0  0  0  0
  2  6  2  0  0  0  0
  3 10  2  0  0  0  0
  3 18  1  0  0  0  0
  4 11  1  0  0  0  0
  4 18  2  0  0  0  0
  5 20  1  0  0  0  0
  6 22  1  0  0  0  0
  7 12  2  0  0  0  0
  7 21  1  0  0  0  0
  8  9  2  0  0  0  0
  8 25  1  0  0  0  0
  9 26  1  0  0  0  0
 10 27  1  0  0  0  0
 11 27  2  0  0  0  0
 12 28  1  0  0  0  0
 13 14  2  0  0  0  0
 13 29  1  0  0  0  0
 14 30  1  0  0  0  0
 15 23  1  0  0  0  0
 15 25  2  0  0  0  0
 16 24  1  0  0  0  0
 16 28  2  0  0  0  0
 17 30  2  0  0  0  0
 17 31  1  0  0  0  0
 18 32  1  0  0  0  0
 19 32  1  0  0  0  0
 19 33  2  0  0  0  0
 19 34  1  0  0  0  0
 20 22  2  0  0  0  0
 20 39  1  0  0  0  0
 21 24  2  0  0  0  0
 21 40  1  0  0  0  0
 22 53  1  0  0  0  0
 23 26  2  0  0  0  0
 23 52  1  0  0  0  0
 24 41  1  0  0  0  0
 25 56  1  0  0  0  0
 26 62  1  0  0  0  0
 27 81  1  0  0  0  0
 28 82  1  0  0  0  0
 29 31  2  0  0  0  0
 29 81  1  0  0  0  0
 30 83  1  0  0  0  0
 31 84  1  0  0  0  0
 32 66  2  0  0  0  0
 33 67  1  0  0  0  0
 33 71  1  0  0  0  0
 34 72  1  0  0  0  0
 34 76  2  0  0  0  0
 35 54  1  0  0  0  0
 35 73  1  0  0  0  0
 35 77  2  0  0  0  0
 36 63  1  0  0  0  0
 36 68  1  0  0  0  0
 36 78  2  0  0  0  0
 37 64  1  0  0  0  0
 37 74  1  0  0  0  0
 37 79  2  0  0  0  0
 38 69  1  0  0  0  0
 38 70  1  0  0  0  0
 38 80  2  0  0  0  0
 39 42  1  0  0  0  0
 40 54  1  0  0  0  0
 41 68  1  0  0  0  0
 42 44  1  0  0  0  0
 43 45  1  0  0  0  0
 43 48  1  0  0  0  0
 44 53  1  0  0  0  0
 45 55  1  0  0  0  0
 46 49  1  0  0  0  0
 46 52  1  0  0  0  0
 47 50  1  0  0  0  0
 47 52  1  0  0  0  0
 48 69  1  0  0  0  0
 49 70  1  0  0  0  0
 50 70  1  0  0  0  0
 51 55  1  0  0  0  0
 51 69  1  0  0  0  0
 53 73  1  0  0  0  0
 54 68  1  0  0  0  0
 55 67  1  0  0  0  0
 57 64  1  0  0  0  0
 58 65  1  0  0  0  0
 59 65  1  0  0  0  0
 60 65  1  0  0  0  0
 61 75  1  0  0  0  0
 62 82  1  0  0  0  0
 63 65  1  0  0  0  0
 63 74  1  0  0  0  0
 64 75  1  0  0  0  0
 66 67  1  0  0  0  0
M  CHG  1  75   1
M  ISO  4  38 100  62 101  70 100  82 101
M  END
> <Batch ID>
0147

> <Smiles>
CNC(C)C(=O)NC(C(=O)N1Cc2cc([101O:1][101CH2:1]c3ccc(C)cc3C3CC[100N:0]([100C:0](=O)N4CCCC(n5nc(-c6ccc(Oc7ccc(F)cc7F)cc6)c(C(N)=O)c5N)C4)CC3)ccc2CC1C(=O)NC1CCCc2ccccc21)C(C)(C)C

> <Shape>
0.219

> <Color>
0.057

> <Negative vol penalty>
0.000

$$$$

  -OEChem-04052321333D

 89 98  0     1  0  0  0  0  0999 V2000
  -27.1341  -34.3509   25.7975 C   0  0  0  0  0  0  0  0  0  0  0  0
  -28.0456  -33.4084   25.3327 C   0  0  0  0  0  0  0  0  0  0  0  0
  -22.0408   -9.8874   22.0150 C   0  0  0  0  0  0  0  0  0  0  0  0
  -24.2268   -9.5939   21.0290 C   0  0  0  0  0  0  0  0  0  0  0  0
  -25.7675  -34.0782   25.7535 C   0  0  0  0  0  0  0  0  0  0  0  0
  -27.5911  -32.1920   24.8246 C   0  0  0  0  0  0  0  0  0  0  0  0
  -29.2005  -27.2504   19.8944 C   0  0  0  0  0  0  0  0  0  0  0  0
  -21.8142   -8.5143   21.9214 C   0  0  0  0  0  0  0  0  0  0  0  0
  -24.0002   -8.2207   20.9354 C   0  0  0  0  0  0  0  0  0  0  0  0
  -29.3989  -25.8758   19.7719 C   0  0  0  0  0  0  0  0  0  0  0  0
  -22.6975   -5.7228   23.6127 C   0  0  0  0  0  0  0  0  0  0  0  0
  -22.1477   -5.0795   24.7215 C   0  0  0  0  0  0  0  0  0  0  0  0
  -27.0113  -25.5463   19.6718 C   0  0  0  0  0  0  0  0  0  0  0  0
  -28.4539  -18.8231   18.5252 C   0  0  0  0  0  0  0  0  0  0  0  0
  -20.2545   -4.3951   23.3857 C   0  0  0  0  0  0  0  0  0  0  0  0
  -23.2471  -10.4272   21.5688 C   0  0  0  0  0  0  0  0  0  0  0  0
  -24.0614  -12.5404   22.7430 C   0  0  0  0  0  0  0  0  0  0  0  0
  -25.2955  -32.8618   25.2356 C   0  0  0  0  0  0  0  0  0  0  0  0
  -27.9036  -27.7831   19.9175 C   0  0  0  0  0  0  0  0  0  0  0  0
  -26.2170  -31.9022   24.7747 C   0  0  0  0  0  0  0  0  0  0  0  0
  -26.7992  -26.9282   19.7921 C   0  0  0  0  0  0  0  0  0  0  0  0
  -28.1878  -16.9810   20.0484 C   0  0  0  0  0  0  0  0  0  0  0  0
  -22.7939   -7.6809   21.3816 C   0  0  0  0  0  0  0  0  0  0  0  0
  -28.3041  -25.0233   19.6635 C   0  0  0  0  0  0  0  0  0  0  0  0
  -22.0257   -5.7024   22.3904 C   0  0  0  0  0  0  0  0  0  0  0  0
  -28.1609  -17.4830   18.7520 C   0  0  0  0  0  0  0  0  0  0  0  0
  -20.9262   -4.4156   24.6080 C   0  0  0  0  0  0  0  0  0  0  0  0
  -20.8042   -5.0385   22.2769 C   0  0  0  0  0  0  0  0  0  0  0  0
  -23.4815  -11.8457   21.6647 C   0  0  0  0  0  0  0  0  0  0  0  0
  -28.5110  -17.8535   21.0751 C   0  0  0  0  0  0  0  0  0  0  0  0
  -28.7650  -19.6132   19.6201 C   0  0  0  0  0  0  0  0  0  0  0  0
  -24.0594  -13.8551   22.3453 C   0  0  0  0  0  0  0  0  0  0  0  0
  -24.5576  -12.0420   23.9925 C   0  0  0  0  0  0  0  0  0  0  0  0
  -26.1911  -29.4269   22.0316 C   0  0  0  0  0  0  0  0  0  0  0  0
  -24.0562  -29.5863   19.5945 C   0  0  0  0  0  0  0  0  0  0  0  0
  -22.8671  -28.2417   16.6920 C   0  0  0  0  0  0  0  0  0  0  0  0
  -24.0322  -16.4881   16.9678 C   0  0  0  0  0  0  0  0  0  0  0  0
  -23.8116  -32.5928   25.2521 C   0  0  0  0  0  0  0  0  0  0  0  0
  -27.7072  -29.2706   20.0233 C   0  0  0  0  0  0  0  0  0  0  0  0
  -25.3870  -27.4519   19.7912 C   0  0  0  0  0  0  0  0  0  0  0  0
  -23.3928  -31.4327   24.3527 C   0  0  0  0  0  0  0  0  0  0  0  0
  -21.6509  -16.9263   19.5781 C   0  0  0  0  0  0  0  0  0  0  0  0
  -28.8756  -14.7003   21.0480 C   0  0  0  0  0  0  0  0  0  0  0  0
  -28.6567  -14.4826   19.5834 C   0  0  0  0  0  0  0  0  0  0  0  0
  -24.3139  -30.2351   24.5624 C   0  0  0  0  0  0  0  0  0  0  0  0
  -21.9024  -15.7366   20.5062 C   0  0  0  0  0  0  0  0  0  0  0  0
  -21.8352  -16.5462   18.1106 C   0  0  0  0  0  0  0  0  0  0  0  0
  -23.3816  -14.7266   18.7200 C   0  0  0  0  0  0  0  0  0  0  0  0
  -27.8730  -15.5438   20.3076 C   0  0  0  0  0  0  0  0  0  0  0  0
  -25.7615  -30.5813   24.1934 C   0  0  1  0  0  0  0  0  0  0  0  0
  -26.3292  -29.6552   20.5529 C   0  0  1  0  0  0  0  0  0  0  0  0
  -23.2624  -15.0749   20.2136 C   0  0  2  0  0  0  0  0  0  0  0  0
  -29.0991  -17.2519   24.7380 C   0  0  0  0  0  0  0  0  0  0  0  0
  -21.0900  -28.5715   14.9511 C   0  0  0  0  0  0  0  0  0  0  0  0
  -21.9693  -28.4609   21.5150 C   0  0  0  0  0  0  0  0  0  0  0  0
  -20.5345  -27.9283   19.5336 C   0  0  0  0  0  0  0  0  0  0  0  0
  -21.1403  -30.2963   20.0323 C   0  0  0  0  0  0  0  0  0  0  0  0
  -24.8731  -28.6080   14.5471 C   0  0  0  0  0  0  0  0  0  0  0  0
  -29.2364  -18.0035   23.4578 C   0  0  0  0  0  0  0  0  0  0  0  0
  -26.2744  -16.3049   15.9198 C   0  0  0  0  0  0  0  0  0  0  0  0
  -27.2135  -17.2996   16.5784 C   0  0  0  0  0  0  0  0  0  0  0  0
  -29.6580  -23.1331   20.1634 C   0  0  0  0  0  0  0  0  0  1  0  0
  -29.3706  -21.7034   20.5793 C   0  0  0  0  0  0  0  0  0  0  0  0
  -22.9052  -28.7304   19.1239 C   0  0  1  0  0  0  0  0  0  0  0  0
  -22.5246  -28.8740   15.3551 C   0  0  2  0  0  0  0  0  0  0  0  0
  -21.6638  -28.8436   20.0532 C   0  0  0  0  0  0  0  0  0  0  0  0
  -23.1361  -12.6522   20.6576 N   0  0  0  0  0  0  0  0  0  0  0  0
  -28.8014  -19.1613   20.8937 N   0  0  0  0  0  0  0  0  0  0  0  0
  -23.5000  -13.8674   21.1015 N   0  0  0  0  0  0  0  0  0  0  0  0
  -25.2467  -28.9131   19.9034 N   0  0  0  0  0  0  0  0  0  0  0  0
  -23.1452  -15.9253   17.9003 N   0  0  0  0  0  0  0  0  0  0  0  0
  -24.4816  -14.9902   22.9417 N   0  0  0  0  0  0  0  0  0  0  0  0
  -24.4831  -10.6644   24.2392 N   0  0  0  0  0  0  0  0  0  0  0  0
  -28.5374  -17.3500   22.4000 N   0  0  0  0  0  0  0  0  0  0  0  0
  -25.9322  -30.5746   22.7563 N   0  0  0  0  0  0  0  0  0  0  0  0
  -22.6518  -29.1127   17.7390 N   0  0  0  0  0  0  0  0  0  0  0  0
  -25.2548  -15.8415   16.8344 N   0  0  0  0  0  0  0  0  0  0  0  0
  -23.4313  -28.3581   14.2907 N   0  3  0  0  0  0  0  0  0  0  0  0
  -25.0373  -12.7980   24.8710 O   0  0  0  0  0  0  0  0  0  0  0  0
  -26.3092  -28.2932   22.4815 O   0  0  0  0  0  0  0  0  0  0  0  0
  -23.9068  -30.8079   19.6780 O   0  0  0  0  0  0  0  0  0  0  0  0
  -23.2804  -27.0890   16.7973 O   0  0  0  0  0  0  0  0  0  0  0  0
  -23.7571  -17.4955   16.3071 O   0  0  0  0  0  0  0  0  0  0  0  0
  -22.5732   -6.3410   21.2903 O   0  0  0  0  0  0  0  0  0  0  0  0
  -28.4949  -23.6812   19.5445 O   0  0  0  0  0  0  0  0  0  1  0  0
  -27.8503  -16.6819   17.6953 O   0  0  0  0  0  0  0  0  0  0  0  0
  -29.0581  -20.9369   19.4226 O   0  0  0  0  0  0  0  0  0  0  0  0
  -20.3991   -3.7965   25.6725 F   0  0  0  0  0  0  0  0  0  0  0  0
  -20.1548   -5.0145   21.1049 F   0  0  0  0  0  0  0  0  0  0  0  0
  1  2  1  0  0  0  0
  1  5  2  0  0  0  0
  2  6  2  0  0  0  0
  3  8  2  0  0  0  0
  3 16  1  0  0  0  0
  4  9  1  0  0  0  0
  4 16  2  0  0  0  0
  5 18  1  0  0  0  0
  6 20  1  0  0  0  0
  7 10  2  0  0  0  0
  7 19  1  0  0  0  0
  8 23  1  0  0  0  0
  9 23  2  0  0  0  0
 10 24  1  0  0  0  0
 11 12  2  0  0  0  0
 11 25  1  0  0  0  0
 12 27  1  0  0  0  0
 13 21  1  0  0  0  0
 13 24  2  0  0  0  0
 14 26  2  0  0  0  0
 14 31  1  0  0  0  0
 15 27  2  0  0  0  0
 15 28  1  0  0  0  0
 16 29  1  0  0  0  0
 17 29  1  0  0  0  0
 17 32  2  0  0  0  0
 17 33  1  0  0  0  0
 18 20  2  0  0  0  0
 18 38  1  0  0  0  0
 19 21  2  0  0  0  0
 19 39  1  0  0  0  0
 20 50  1  0  0  0  0
 21 40  1  0  0  0  0
 22 26  1  0  0  0  0
 22 30  2  0  0  0  0
 22 49  1  0  0  0  0
 23 84  1  0  0  0  0
 24 85  1  0  0  0  0
 25 28  2  0  0  0  0
 25 84  1  0  0  0  0
 26 86  1  0  0  0  0
 27 88  1  0  0  0  0
 28 89  1  0  0  0  0
 29 67  2  0  0  0  0
 30 68  1  0  0  0  0
 30 74  1  0  0  0  0
 31 68  2  0  0  0  0
 31 87  1  0  0  0  0
 32 69  1  0  0  0  0
 32 72  1  0  0  0  0
 33 73  1  0  0  0  0
 33 79  2  0  0  0  0
 34 51  1  0  0  0  0
 34 75  1  0  0  0  0
 34 80  2  0  0  0  0
 35 64  1  0  0  0  0
 35 70  1  0  0  0  0
 35 81  2  0  0  0  0
 36 65  1  0  0  0  0
 36 76  1  0  0  0  0
 36 82  2  0  0  0  0
 37 71  1  0  0  0  0
 37 77  1  0  0  0  0
 37 83  2  0  0  0  0
 38 41  1  0  0  0  0
 39 51  1  0  0  0  0
 40 70  1  0  0  0  0
 41 45  1  0  0  0  0
 42 46  1  0  0  0  0
 42 47  1  0  0  0  0
 43 44  1  0  0  0  0
 43 49  1  0  0  0  0
 44 49  1  0  0  0  0
 45 50  1  0  0  0  0
 46 52  1  0  0  0  0
 47 71  1  0  0  0  0
 48 52  1  0  0  0  0
 48 71  1  0  0  0  0
 50 75  1  0  0  0  0
 51 70  1  0  0  0  0
 52 69  1  0  0  0  0
 53 59  1  0  0  0  0
 54 65  1  0  0  0  0
 55 66  1  0  0  0  0
 56 66  1  0  0  0  0
 57 66  1  0  0  0  0
 58 78  1  0  0  0  0
 59 74  1  0  0  0  0
 60 61  1  0  0  0  0
 60 77  1  0  0  0  0
 61 86  1  0  0  0  0
 62 63  1  0  0  0  0
 62 85  1  0  0  0  0
 63 87  1  0  0  0  0
 64 66  1  0  0  0  0
 64 76  1  0  0  0  0
 65 78  1  0  0  0  0
 67 69  1  0  0  0  0
M  CHG  1  78   1
M  ISO  4  37 100  62 101  77 100  85 101
M  END
> <Batch ID>
0147

> <Smiles>
CCNc1nc(OC[101CH2:1][101O:1]c2ccc3c(c2)CN(C(=O)C(NC(=O)C(C)NC)C(C)(C)C)C(C(=O)NC2CCCc4ccccc42)C3)cc(OCC[100NH:0][100C:0](=O)N2CCCC(n3nc(-c4ccc(Oc5ccc(F)cc5F)cc4)c(C(N)=O)c3N)C2)c1C1CC1

> <Shape>
0.291

> <Color>
0.071

> <Negative vol penalty>
0.000

$$$$

  -OEChem-04052321333D

 88 97  0     1  0  0  0  0  0999 V2000
  -16.8495  -28.5401   24.6445 C   0  0  0  0  0  0  0  0  0  0  0  0
  -17.5961  -27.6273   25.3827 C   0  0  0  0  0  0  0  0  0  0  0  0
  -23.2096   -9.7219   21.4961 C   0  0  0  0  0  0  0  0  0  0  0  0
  -23.7531  -10.8254   23.5755 C   0  0  0  0  0  0  0  0  0  0  0  0
  -17.3735  -29.0801   23.4708 C   0  0  0  0  0  0  0  0  0  0  0  0
  -18.8667  -27.2532   24.9469 C   0  0  0  0  0  0  0  0  0  0  0  0
  -25.2888  -25.3222   27.4657 C   0  0  0  0  0  0  0  0  0  0  0  0
  -22.5156   -8.7377   22.1997 C   0  0  0  0  0  0  0  0  0  0  0  0
  -23.0590   -9.8412   24.2792 C   0  0  0  0  0  0  0  0  0  0  0  0
  -26.2388  -24.3106   27.3313 C   0  0  0  0  0  0  0  0  0  0  0  0
  -23.2545   -5.9702   23.9941 C   0  0  0  0  0  0  0  0  0  0  0  0
  -23.4686   -4.6411   23.6292 C   0  0  0  0  0  0  0  0  0  0  0  0
  -28.2314  -20.3430   22.1510 C   0  0  0  0  0  0  0  0  0  0  0  0
  -27.0736  -25.3687   25.3306 C   0  0  0  0  0  0  0  0  0  0  0  0
  -29.5676  -19.2491   23.8338 C   0  0  0  0  0  0  0  0  0  0  0  0
  -21.1211   -4.4058   23.1089 C   0  0  0  0  0  0  0  0  0  0  0  0
  -23.8284  -10.7658   22.1840 C   0  0  0  0  0  0  0  0  0  0  0  0
  -24.0294  -12.9905   20.9519 C   0  0  0  0  0  0  0  0  0  0  0  0
  -18.6551  -28.7198   23.0254 C   0  0  0  0  0  0  0  0  0  0  0  0
  -25.2169  -26.3605   26.5259 C   0  0  0  0  0  0  0  0  0  0  0  0
  -19.4078  -27.7879   23.7653 C   0  0  0  0  0  0  0  0  0  0  0  0
  -28.7568  -19.4991   21.1595 C   0  0  0  0  0  0  0  0  0  0  0  0
  -26.1235  -26.3936   25.4568 C   0  0  0  0  0  0  0  0  0  0  0  0
  -29.7121  -18.5265   21.5133 C   0  0  0  0  0  0  0  0  0  0  0  0
  -28.6312  -20.2152   23.4804 C   0  0  0  0  0  0  0  0  0  0  0  0
  -22.4403   -8.7973   23.5913 C   0  0  0  0  0  0  0  0  0  0  0  0
  -27.1295  -24.3322   26.2621 C   0  0  0  0  0  0  0  0  0  0  0  0
  -21.9737   -6.5172   23.9164 C   0  0  0  0  0  0  0  0  0  0  0  0
  -30.1048  -18.4105   22.8578 C   0  0  0  0  0  0  0  0  0  0  0  0
  -22.4019   -3.8589   23.1866 C   0  0  0  0  0  0  0  0  0  0  0  0
  -20.9070   -5.7350   23.4738 C   0  0  0  0  0  0  0  0  0  0  0  0
  -24.5460  -11.7825   21.4577 C   0  0  0  0  0  0  0  0  0  0  0  0
  -25.1040  -13.5980   20.3497 C   0  0  0  0  0  0  0  0  0  0  0  0
  -22.6974  -13.5164   21.0204 C   0  0  0  0  0  0  0  0  0  0  0  0
  -23.0106  -27.3857   24.4803 C   0  0  0  0  0  0  0  0  0  0  0  0
  -25.1365  -29.7869   23.9939 C   0  0  0  0  0  0  0  0  0  0  0  0
  -28.3725  -30.8627   24.1274 C   0  0  0  0  0  0  0  0  0  0  0  0
  -30.4769  -15.1072   20.3597 C   0  0  0  0  0  0  0  0  0  0  0  0
  -19.1600  -29.2941   21.7255 C   0  0  0  0  0  0  0  0  0  0  0  0
  -24.2038  -27.4586   26.6999 C   0  0  0  0  0  0  0  0  0  0  0  0
  -28.3309  -19.7123   19.7262 C   0  0  0  0  0  0  0  0  0  0  0  0
  -26.1011  -27.4971   24.4319 C   0  0  0  0  0  0  0  0  0  0  0  0
  -20.6652  -29.1303   21.5311 C   0  0  0  0  0  0  0  0  0  0  0  0
  -29.7077  -11.8115   19.2536 C   0  0  0  0  0  0  0  0  0  0  0  0
  -21.0955  -27.7067   21.8704 C   0  0  0  0  0  0  0  0  0  0  0  0
  -28.2564  -11.6079   19.6921 C   0  0  0  0  0  0  0  0  0  0  0  0
  -30.0948  -18.0563   19.0445 C   0  0  0  0  0  0  0  0  0  0  0  0
  -30.4954  -12.6316   20.2729 C   0  0  0  0  0  0  0  0  0  0  0  0
  -28.4339  -13.7220   21.0697 C   0  0  0  0  0  0  0  0  0  0  0  0
  -20.8000  -27.3761   23.3383 C   0  0  1  0  0  0  0  0  0  0  0  0
  -30.3007  -17.5793   20.4894 C   0  0  2  0  0  0  0  0  0  0  0  0
  -23.8860  -28.1899   25.3993 C   0  0  1  0  0  0  0  0  0  0  0  0
  -27.5846  -12.9480   20.0471 C   0  0  2  0  0  0  0  0  0  0  0  0
  -28.6584  -18.5214   18.8283 C   0  0  2  0  0  0  0  0  0  0  0  0
  -31.7363  -15.5601   24.4885 C   0  0  0  0  0  0  0  0  0  0  0  0
  -29.8062  -32.8611   23.6291 C   0  0  0  0  0  0  0  0  0  0  0  0
  -24.9828  -29.1509   21.0136 C   0  0  0  0  0  0  0  0  0  0  0  0
  -27.0798  -30.4806   20.6928 C   0  0  0  0  0  0  0  0  0  0  0  0
  -25.0210  -31.5913   21.5590 C   0  0  0  0  0  0  0  0  0  0  0  0
  -29.2065  -31.1149   26.9558 C   0  0  0  0  0  0  0  0  0  0  0  0
  -28.4578  -20.9898   25.8459 C   0  0  0  0  0  0  0  0  0  0  0  0
  -30.5935  -16.5107   24.2022 C   0  0  0  0  0  0  0  0  0  0  0  0
  -27.7106  -22.0556   26.6300 C   0  0  0  0  0  0  0  0  0  1  0  0
  -26.3015  -30.0106   23.0601 C   0  0  1  0  0  0  0  0  0  0  0  0
  -28.9896  -32.1326   24.6851 C   0  0  2  0  0  0  0  0  0  0  0  0
  -25.8457  -30.2864   21.5994 C   0  0  0  0  0  0  0  0  0  0  0  0
  -25.8474  -11.6299   21.1992 N   0  0  0  0  0  0  0  0  0  0  0  0
  -26.1577  -12.7498   20.5243 N   0  0  0  0  0  0  0  0  0  0  0  0
  -25.0880  -28.5445   24.6419 N   0  0  0  0  0  0  0  0  0  0  0  0
  -29.8055  -13.8905   20.5645 N   0  0  0  0  0  0  0  0  0  0  0  0
  -25.2409  -14.7695   19.6931 N   0  0  0  0  0  0  0  0  0  0  0  0
  -21.7144  -12.7629   21.6763 N   0  0  0  0  0  0  0  0  0  0  0  0
  -28.1003  -21.0528   24.4473 N   0  0  0  0  0  0  0  0  0  0  0  0
  -21.7934  -27.9777   24.2018 N   0  0  0  0  0  0  0  0  0  0  0  0
  -27.0976  -31.0814   23.6500 N   0  0  0  0  0  0  0  0  0  0  0  0
  -29.7486  -16.2532   20.6548 N   0  0  0  0  0  0  0  0  0  0  0  0
  -28.4890  -18.9320   17.4092 N   0  3  0  0  0  0  0  0  0  0  0  0
  -29.8844  -31.8128   25.8332 N   0  3  0  0  0  0  0  0  0  0  0  0
  -22.3842  -14.6143   20.5007 O   0  0  0  0  0  0  0  0  0  0  0  0
  -23.4104  -26.3085   24.0541 O   0  0  0  0  0  0  0  0  0  0  0  0
  -24.3043  -30.6842   24.1482 O   0  0  0  0  0  0  0  0  0  0  0  0
  -28.9638  -29.7854   24.1131 O   0  0  0  0  0  0  0  0  0  0  0  0
  -31.6374  -15.1679   19.9397 O   0  0  0  0  0  0  0  0  0  0  0  0
  -21.7629   -7.8371   24.2782 O   0  0  0  0  0  0  0  0  0  0  0  0
  -28.0573  -23.3457   26.1282 O   0  0  0  0  0  0  0  0  0  1  0  0
  -31.0210  -17.4752   23.2444 O   0  0  0  0  0  0  0  0  0  0  0  0
  -22.6079   -2.5829   22.8348 F   0  0  0  0  0  0  0  0  0  0  0  0
  -19.6745   -6.2552   23.3959 F   0  0  0  0  0  0  0  0  0  0  0  0
  1  2  1  0  0  0  0
  1  5  2  0  0  0  0
  2  6  2  0  0  0  0
  3  8  2  0  0  0  0
  3 17  1  0  0  0  0
  4  9  1  0  0  0  0
  4 17  2  0  0  0  0
  5 19  1  0  0  0  0
  6 21  1  0  0  0  0
  7 10  2  0  0  0  0
  7 20  1  0  0  0  0
  8 26  1  0  0  0  0
  9 26  2  0  0  0  0
 10 27  1  0  0  0  0
 11 12  2  0  0  0  0
 11 28  1  0  0  0  0
 12 30  1  0  0  0  0
 13 22  2  0  0  0  0
 13 25  1  0  0  0  0
 14 23  1  0  0  0  0
 14 27  2  0  0  0  0
 15 25  2  0  0  0  0
 15 29  1  0  0  0  0
 16 30  2  0  0  0  0
 16 31  1  0  0  0  0
 17 32  1  0  0  0  0
 18 32  1  0  0  0  0
 18 33  2  0  0  0  0
 18 34  1  0  0  0  0
 19 21  2  0  0  0  0
 19 39  1  0  0  0  0
 20 23  2  0  0  0  0
 20 40  1  0  0  0  0
 21 50  1  0  0  0  0
 22 24  1  0  0  0  0
 22 41  1  0  0  0  0
 23 42  1  0  0  0  0
 24 29  2  0  0  0  0
 24 51  1  0  0  0  0
 25 73  1  0  0  0  0
 26 84  1  0  0  0  0
 27 85  1  0  0  0  0
 28 31  2  0  0  0  0
 28 84  1  0  0  0  0
 29 86  1  0  0  0  0
 30 87  1  0  0  0  0
 31 88  1  0  0  0  0
 32 67  2  0  0  0  0
 33 68  1  0  0  0  0
 33 71  1  0  0  0  0
 34 72  1  0  0  0  0
 34 79  2  0  0  0  0
 35 52  1  0  0  0  0
 35 74  1  0  0  0  0
 35 80  2  0  0  0  0
 36 64  1  0  0  0  0
 36 69  1  0  0  0  0
 36 81  2  0  0  0  0
 37 65  1  0  0  0  0
 37 75  1  0  0  0  0
 37 82  2  0  0  0  0
 38 70  1  0  0  0  0
 38 76  1  0  0  0  0
 38 83  2  0  0  0  0
 39 43  1  0  0  0  0
 40 52  1  0  0  0  0
 41 54  1  0  0  0  0
 42 69  1  0  0  0  0
 43 45  1  0  0  0  0
 44 46  1  0  0  0  0
 44 48  1  0  0  0  0
 45 50  1  0  0  0  0
 46 53  1  0  0  0  0
 47 51  1  0  0  0  0
 47 54  1  0  0  0  0
 48 70  1  0  0  0  0
 49 53  1  0  0  0  0
 49 70  1  0  0  0  0
 50 74  1  0  0  0  0
 51 76  1  0  0  0  0
 52 69  1  0  0  0  0
 53 68  1  0  0  0  0
 54 77  1  0  0  0  0
 55 62  1  0  0  0  0
 56 65  1  0  0  0  0
 57 66  1  0  0  0  0
 58 66  1  0  0  0  0
 59 66  1  0  0  0  0
 60 78  1  0  0  0  0
 61 63  1  0  0  0  0
 61 73  1  0  0  0  0
 62 86  1  0  0  0  0
 63 85  1  0  0  0  0
 64 66  1  0  0  0  0
 64 75  1  0  0  0  0
 65 78  1  0  0  0  0
 67 68  1  0  0  0  0
M  CHG  2  77   1  78   1
M  ISO  4  38 100  63 101  76 100  85 101
M  END
> <Batch ID>
0147

> <Smiles>
CCOc1cc(NC[101CH2:1][101O:1]c2ccc3c(c2)CN(C(=O)C(NC(=O)C(C)NC)C(C)(C)C)C(C(=O)NC2CCCc4ccccc42)C3)cc2c1C([100NH:0][100C:0](=O)N1CCCC(n3nc(-c4ccc(Oc5ccc(F)cc5F)cc4)c(C(N)=O)c3N)C1)CC(N)C2

> <Shape>
0.302

> <Color>
0.140

> <Negative vol penalty>
0.000

$$$$

  -OEChem-04052321333D

 79 87  0     1  0  0  0  0  0999 V2000
  -30.8352  -35.2075   24.4088 C   0  0  0  0  0  0  0  0  0  0  0  0
  -30.8930  -34.1214   23.5413 C   0  0  0  0  0  0  0  0  0  0  0  0
  -24.5688   -9.6454   21.6886 C   0  0  0  0  0  0  0  0  0  0  0  0
  -24.7029  -10.9301   23.7303 C   0  0  0  0  0  0  0  0  0  0  0  0
  -29.9458  -35.1942   25.4824 C   0  0  0  0  0  0  0  0  0  0  0  0
  -30.0620  -33.0208   23.7477 C   0  0  0  0  0  0  0  0  0  0  0  0
  -26.4950  -27.9641   20.1391 C   0  0  0  0  0  0  0  0  0  0  0  0
  -24.2540   -8.5047   22.4270 C   0  0  0  0  0  0  0  0  0  0  0  0
  -24.3880   -9.7893   24.4687 C   0  0  0  0  0  0  0  0  0  0  0  0
  -26.3397  -26.5793   20.0950 C   0  0  0  0  0  0  0  0  0  0  0  0
  -21.5358   -7.1994   23.9570 C   0  0  0  0  0  0  0  0  0  0  0  0
  -20.4903   -6.3982   23.4981 C   0  0  0  0  0  0  0  0  0  0  0  0
  -24.7866  -26.7008   21.9368 C   0  0  0  0  0  0  0  0  0  0  0  0
  -22.0115   -4.5330   23.2883 C   0  0  0  0  0  0  0  0  0  0  0  0
  -24.7933  -10.8581   22.3402 C   0  0  0  0  0  0  0  0  0  0  0  0
  -24.2200  -12.9793   21.0442 C   0  0  0  0  0  0  0  0  0  0  0  0
  -29.0967  -34.0970   25.6964 C   0  0  0  0  0  0  0  0  0  0  0  0
  -25.8044  -28.7278   21.0911 C   0  0  0  0  0  0  0  0  0  0  0  0
  -29.1614  -32.9922   24.8260 C   0  0  0  0  0  0  0  0  0  0  0  0
  -24.9329  -28.0954   21.9892 C   0  0  0  0  0  0  0  0  0  0  0  0
  -24.1635   -8.5766   23.8170 C   0  0  0  0  0  0  0  0  0  0  0  0
  -25.4876  -25.9471   20.9958 C   0  0  0  0  0  0  0  0  0  0  0  0
  -22.8193   -6.6674   24.0814 C   0  0  0  0  0  0  0  0  0  0  0  0
  -20.7281   -5.0651   23.1638 C   0  0  0  0  0  0  0  0  0  0  0  0
  -23.0571   -5.3342   23.7471 C   0  0  0  0  0  0  0  0  0  0  0  0
  -25.1191  -12.0367   21.5781 C   0  0  0  0  0  0  0  0  0  0  0  0
  -25.0214  -13.8994   20.4137 C   0  0  0  0  0  0  0  0  0  0  0  0
  -22.7884  -13.0196   21.1124 C   0  0  0  0  0  0  0  0  0  0  0  0
  -26.6596  -30.6191   23.4984 C   0  0  0  0  0  0  0  0  0  0  0  0
  -23.4753  -31.2199   23.6450 C   0  0  0  0  0  0  0  0  0  0  0  0
  -20.2962  -30.1767   22.9728 C   0  0  0  0  0  0  0  0  0  0  0  0
  -29.5532  -17.1552   20.3234 C   0  0  0  0  0  0  0  0  0  0  0  0
  -28.1853  -34.1079   26.8981 C   0  0  0  0  0  0  0  0  0  0  0  0
  -25.9623  -30.2235   21.1082 C   0  0  0  0  0  0  0  0  0  0  0  0
  -24.1530  -28.8721   23.0174 C   0  0  0  0  0  0  0  0  0  0  0  0
  -27.0740  -33.0637   26.8292 C   0  0  0  0  0  0  0  0  0  0  0  0
  -29.9579  -13.7636   19.3184 C   0  0  0  0  0  0  0  0  0  0  0  0
  -27.6374  -31.7120   26.4021 C   0  0  0  0  0  0  0  0  0  0  0  0
  -27.5586  -21.2731   19.1502 C   0  0  0  0  0  0  0  0  0  0  0  0
  -28.6642  -13.0890   19.7781 C   0  0  0  0  0  0  0  0  0  0  0  0
  -28.0761  -19.8394   18.9938 C   0  0  0  0  0  0  0  0  0  0  0  0
  -27.6302  -20.2045   21.3196 C   0  0  0  0  0  0  0  0  0  0  0  0
  -30.4179  -14.8339   20.3057 C   0  0  0  0  0  0  0  0  0  0  0  0
  -28.1082  -15.1766   21.0939 C   0  0  0  0  0  0  0  0  0  0  0  0
  -28.2586  -31.7905   25.0023 C   0  0  1  0  0  0  0  0  0  0  0  0
  -25.6040  -30.8468   22.4537 C   0  0  1  0  0  0  0  0  0  0  0  0
  -27.5905  -21.5790   20.6532 C   0  0  2  0  0  0  0  0  0  0  0  0
  -27.5745  -14.1285   20.1026 C   0  0  2  0  0  0  0  0  0  0  0  0
  -28.5416  -19.4205   20.3856 C   0  0  1  0  0  0  0  0  0  0  0  0
  -17.8983  -30.8649   23.2446 C   0  0  0  0  0  0  0  0  0  0  0  0
  -23.5957  -30.4641   26.5987 C   0  0  0  0  0  0  0  0  0  0  0  0
  -21.1017  -30.2462   26.5728 C   0  0  0  0  0  0  0  0  0  0  0  0
  -22.1644  -32.4502   26.0876 C   0  0  0  0  0  0  0  0  0  0  0  0
  -19.8521  -30.2063   20.0469 C   0  0  0  0  0  0  0  0  0  0  0  0
  -26.4502  -23.8289   20.5032 C   0  0  0  0  0  0  0  0  0  1  0  0
  -22.3030  -30.6020   24.3680 C   0  0  1  0  0  0  0  0  0  0  0  0
  -19.1166  -30.8877   22.3346 C   0  0  2  0  0  0  0  0  0  0  0  0
  -26.4222  -22.4337   21.1171 C   0  0  2  0  0  0  0  0  0  0  0  0
  -22.3072  -30.9255   25.8888 C   0  0  0  0  0  0  0  0  0  0  0  0
  -26.3941  -12.3308   21.3098 N   0  0  0  0  0  0  0  0  0  0  0  0
  -26.3019  -13.4685   20.6005 N   0  0  0  0  0  0  0  0  0  0  0  0
  -24.3462  -30.3315   22.9983 N   0  0  0  0  0  0  0  0  0  0  0  0
  -29.3389  -15.7889   20.5694 N   0  0  0  0  0  0  0  0  0  0  0  0
  -24.7487  -15.0268   19.7230 N   0  0  0  0  0  0  0  0  0  0  0  0
  -22.1231  -11.9953   21.7997 N   0  0  0  0  0  0  0  0  0  0  0  0
  -27.2250  -31.7804   23.9894 N   0  0  0  0  0  0  0  0  0  0  0  0
  -21.1065  -31.0519   23.6647 N   0  0  0  0  0  0  0  0  0  0  0  0
  -28.4768  -17.9912   20.5941 N   0  0  0  0  0  0  0  0  0  0  0  0
  -26.5040  -22.5675   22.6005 N   0  3  0  0  0  0  0  0  0  0  0  0
  -18.7529  -30.2335   21.0459 N   0  3  0  0  0  0  0  0  0  0  0  0
  -22.1181  -13.9280   20.5655 O   0  0  0  0  0  0  0  0  0  0  0  0
  -26.9394  -29.4745   23.8352 O   0  0  0  0  0  0  0  0  0  0  0  0
  -23.6094  -32.4461   23.6477 O   0  0  0  0  0  0  0  0  0  0  0  0
  -20.4784  -28.9656   22.8711 O   0  0  0  0  0  0  0  0  0  0  0  0
  -30.6226  -17.5966   19.8893 O   0  0  0  0  0  0  0  0  0  0  0  0
  -23.8561   -7.4638   24.5379 O   0  0  0  0  0  0  0  0  0  0  0  0
  -25.3348  -24.5955   20.9554 O   0  0  0  0  0  0  0  0  0  1  0  0
  -19.7236   -4.2955   22.7246 F   0  0  0  0  0  0  0  0  0  0  0  0
  -24.2877   -4.8172   23.8657 F   0  0  0  0  0  0  0  0  0  0  0  0
  1  2  1  0  0  0  0
  1  5  2  0  0  0  0
  2  6  2  0  0  0  0
  3  8  2  0  0  0  0
  3 15  1  0  0  0  0
  4  9  1  0  0  0  0
  4 15  2  0  0  0  0
  5 17  1  0  0  0  0
  6 19  1  0  0  0  0
  7 10  2  0  0  0  0
  7 18  1  0  0  0  0
  8 21  1  0  0  0  0
  9 21  2  0  0  0  0
 10 22  1  0  0  0  0
 11 12  2  0  0  0  0
 11 23  1  0  0  0  0
 12 24  1  0  0  0  0
 13 20  1  0  0  0  0
 13 22  2  0  0  0  0
 14 24  2  0  0  0  0
 14 25  1  0  0  0  0
 15 26  1  0  0  0  0
 16 26  1  0  0  0  0
 16 27  2  0  0  0  0
 16 28  1  0  0  0  0
 17 19  2  0  0  0  0
 17 33  1  0  0  0  0
 18 20  2  0  0  0  0
 18 34  1  0  0  0  0
 19 45  1  0  0  0  0
 20 35  1  0  0  0  0
 21 76  1  0  0  0  0
 22 77  1  0  0  0  0
 23 25  2  0  0  0  0
 23 76  1  0  0  0  0
 24 78  1  0  0  0  0
 25 79  1  0  0  0  0
 26 60  2  0  0  0  0
 27 61  1  0  0  0  0
 27 64  1  0  0  0  0
 28 65  1  0  0  0  0
 28 71  2  0  0  0  0
 29 46  1  0  0  0  0
 29 66  1  0  0  0  0
 29 72  2  0  0  0  0
 30 56  1  0  0  0  0
 30 62  1  0  0  0  0
 30 73  2  0  0  0  0
 31 57  1  0  0  0  0
 31 67  1  0  0  0  0
 31 74  2  0  0  0  0
 32 63  1  0  0  0  0
 32 68  1  0  0  0  0
 32 75  2  0  0  0  0
 33 36  1  0  0  0  0
 34 46  1  0  0  0  0
 35 62  1  0  0  0  0
 36 38  1  0  0  0  0
 37 40  1  0  0  0  0
 37 43  1  0  0  0  0
 38 45  1  0  0  0  0
 39 41  1  0  0  0  0
 39 47  1  0  0  0  0
 40 48  1  0  0  0  0
 41 49  1  0  0  0  0
 42 47  1  0  0  0  0
 42 49  1  0  0  0  0
 43 63  1  0  0  0  0
 44 48  1  0  0  0  0
 44 63  1  0  0  0  0
 45 66  1  0  0  0  0
 46 62  1  0  0  0  0
 47 58  1  0  0  0  0
 48 61  1  0  0  0  0
 49 68  1  0  0  0  0
 50 57  1  0  0  0  0
 51 59  1  0  0  0  0
 52 59  1  0  0  0  0
 53 59  1  0  0  0  0
 54 70  1  0  0  0  0
 55 58  1  0  0  0  0
 55 77  1  0  0  0  0
 56 59  1  0  0  0  0
 56 67  1  0  0  0  0
 57 70  1  0  0  0  0
 58 69  1  0  0  0  0
 60 61  1  0  0  0  0
M  CHG  2  69   1  70   1
M  ISO  4  32 100  55 101  68 100  77 101
M  END
> <Batch ID>
0147

> <Smiles>
CNC(C)C(=O)NC(C(=O)N1Cc2cc([101O:1][101CH2:1]C(N)C3CCC([100NH:0][100C:0](=O)N4CCCC(n5nc(-c6ccc(Oc7ccc(F)cc7F)cc6)c(C(N)=O)c5N)C4)C3)ccc2CC1C(=O)NC1CCCc2ccccc21)C(C)(C)C

> <Shape>
0.284

> <Color>
0.116

> <Negative vol penalty>
0.000

$$$$

  -OEChem-04052321333D

 84 92  0     1  0  0  0  0  0999 V2000
  -27.8538  -37.1859   20.7085 C   0  0  0  0  0  0  0  0  0  0  0  0
  -28.3176  -35.9113   20.3991 C   0  0  0  0  0  0  0  0  0  0  0  0
  -22.1708  -10.6224   20.5622 C   0  0  0  0  0  0  0  0  0  0  0  0
  -24.3873   -9.7365   20.9352 C   0  0  0  0  0  0  0  0  0  0  0  0
  -26.9122  -37.3568   21.7225 C   0  0  0  0  0  0  0  0  0  0  0  0
  -27.8410  -34.8069   21.1045 C   0  0  0  0  0  0  0  0  0  0  0  0
  -26.8827  -29.1704   18.9095 C   0  0  0  0  0  0  0  0  0  0  0  0
  -26.6609  -20.9154   21.6850 C   0  0  0  0  0  0  0  0  0  0  0  0
  -27.3142  -19.7864   21.1910 C   0  0  0  0  0  0  0  0  0  0  0  0
  -21.6258   -9.3618   20.8060 C   0  0  0  0  0  0  0  0  0  0  0  0
  -23.8424   -8.4758   21.1790 C   0  0  0  0  0  0  0  0  0  0  0  0
  -27.6446  -28.0037   18.9557 C   0  0  0  0  0  0  0  0  0  0  0  0
  -22.2919   -6.8844   23.7254 C   0  0  0  0  0  0  0  0  0  0  0  0
  -22.7745   -6.1729   24.8238 C   0  0  0  0  0  0  0  0  0  0  0  0
  -26.3924  -27.2695   20.8824 C   0  0  0  0  0  0  0  0  0  0  0  0
  -28.0642  -21.0573   19.2780 C   0  0  0  0  0  0  0  0  0  0  0  0
  -23.4917   -4.3931   23.3556 C   0  0  0  0  0  0  0  0  0  0  0  0
  -23.5515  -10.8098   20.6267 C   0  0  0  0  0  0  0  0  0  0  0  0
  -24.3630  -13.1278   21.3166 C   0  0  0  0  0  0  0  0  0  0  0  0
  -26.4166  -36.2528   22.4341 C   0  0  0  0  0  0  0  0  0  0  0  0
  -25.8755  -29.4008   19.8576 C   0  0  0  0  0  0  0  0  0  0  0  0
  -26.8930  -34.9633   22.1299 C   0  0  0  0  0  0  0  0  0  0  0  0
  -25.6174  -28.4388   20.8445 C   0  0  0  0  0  0  0  0  0  0  0  0
  -26.7092  -22.1154   20.9754 C   0  0  0  0  0  0  0  0  0  0  0  0
  -28.0158  -19.8573   19.9875 C   0  0  0  0  0  0  0  0  0  0  0  0
  -22.4616   -8.2885   21.1144 C   0  0  0  0  0  0  0  0  0  0  0  0
  -27.4014  -27.0544   19.9440 C   0  0  0  0  0  0  0  0  0  0  0  0
  -22.4091   -6.3503   22.4422 C   0  0  0  0  0  0  0  0  0  0  0  0
  -27.4108  -22.1863   19.7720 C   0  0  0  0  0  0  0  0  0  0  0  0
  -23.3744   -4.9272   24.6389 C   0  0  0  0  0  0  0  0  0  0  0  0
  -23.0090   -5.1047   22.2573 C   0  0  0  0  0  0  0  0  0  0  0  0
  -24.1151  -12.1116   20.3744 C   0  0  0  0  0  0  0  0  0  0  0  0
  -24.8988  -14.1558   20.5799 C   0  0  0  0  0  0  0  0  0  0  0  0
  -24.1298  -13.1413   22.7312 C   0  0  0  0  0  0  0  0  0  0  0  0
  -25.3592  -31.6019   22.0920 C   0  0  0  0  0  0  0  0  0  0  0  0
  -22.5239  -30.0576   22.4057 C   0  0  0  0  0  0  0  0  0  0  0  0
  -20.7298  -27.1832   21.9987 C   0  0  0  0  0  0  0  0  0  0  0  0
  -28.3842  -16.0175   16.6390 C   0  0  0  0  0  0  0  0  0  0  0  0
  -25.4348  -36.4922   23.5537 C   0  0  0  0  0  0  0  0  0  0  0  0
  -25.0447  -30.6521   19.7779 C   0  0  0  0  0  0  0  0  0  0  0  0
  -24.5341  -28.6290   21.8734 C   0  0  0  0  0  0  0  0  0  0  0  0
  -24.7013  -35.2303   24.0007 C   0  0  0  0  0  0  0  0  0  0  0  0
  -25.2114  -14.8037   15.5730 C   0  0  0  0  0  0  0  0  0  0  0  0
  -25.6832  -34.0766   24.1783 C   0  0  0  0  0  0  0  0  0  0  0  0
  -24.6671  -14.0740   16.8024 C   0  0  0  0  0  0  0  0  0  0  0  0
  -26.7223  -14.6292   15.4362 C   0  0  0  0  0  0  0  0  0  0  0  0
  -26.9551  -14.2695   17.8632 C   0  0  0  0  0  0  0  0  0  0  0  0
  -26.3815  -33.7379   22.8557 C   0  0  1  0  0  0  0  0  0  0  0  0
  -24.3878  -31.0187   21.1051 C   0  0  1  0  0  0  0  0  0  0  0  0
  -25.4438  -14.4628   18.0747 C   0  0  2  0  0  0  0  0  0  0  0  0
  -26.0044  -23.3138   21.5198 C   0  0  0  0  0  0  0  0  0  0  0  0
  -18.4465  -26.2153   22.3820 C   0  0  0  0  0  0  0  0  0  0  0  0
  -23.1340  -29.8045   25.3846 C   0  0  0  0  0  0  0  0  0  0  0  0
  -21.3501  -28.0538   25.5301 C   0  0  0  0  0  0  0  0  0  0  0  0
  -20.7594  -30.3804   24.8513 C   0  0  0  0  0  0  0  0  0  0  0  0
  -20.3331  -26.6752   19.1101 C   0  0  0  0  0  0  0  0  0  0  0  0
  -29.4124  -18.7181   18.2620 C   0  0  0  0  0  0  0  0  0  0  0  0
  -29.9963  -17.3415   17.9834 C   0  0  0  0  0  0  0  0  0  0  0  0
  -28.6491  -25.4166   18.7537 C   0  0  0  0  0  0  0  0  0  1  0  0
  -28.7604  -23.9065   18.8363 C   0  0  0  0  0  0  0  0  0  0  0  0
  -22.0226  -28.9010   23.2364 C   0  0  1  0  0  0  0  0  0  0  0  0
  -19.3599  -26.9276   21.3966 C   0  0  2  0  0  0  0  0  0  0  0  0
  -21.8383  -29.2819   24.7325 C   0  0  0  0  0  0  0  0  0  0  0  0
  -24.4646  -12.4623   19.1338 N   0  0  0  0  0  0  0  0  0  0  0  0
  -24.9374  -13.7103   19.2914 N   0  0  0  0  0  0  0  0  0  0  0  0
  -23.7531  -29.8717   21.7575 N   0  0  0  0  0  0  0  0  0  0  0  0
  -27.3996  -15.0164   16.6760 N   0  0  0  0  0  0  0  0  0  0  0  0
  -25.3358  -15.3883   20.9151 N   0  0  0  0  0  0  0  0  0  0  0  0
  -23.5731  -12.0016   23.3275 N   0  0  0  0  0  0  0  0  0  0  0  0
  -28.6758  -18.7153   19.4878 N   0  0  0  0  0  0  0  0  0  0  0  0
  -25.4996  -32.9735   21.9999 N   0  0  0  0  0  0  0  0  0  0  0  0
  -20.8053  -28.4285   22.5858 N   0  0  0  0  0  0  0  0  0  0  0  0
  -28.9720  -16.3286   17.8591 N   0  0  0  0  0  0  0  0  0  0  0  0
  -19.4807  -26.0844   20.1737 N   0  3  0  0  0  0  0  0  0  0  0  0
  -24.3917  -14.1406   23.4427 O   0  0  0  0  0  0  0  0  0  0  0  0
  -25.9374  -30.8624   22.8797 O   0  0  0  0  0  0  0  0  0  0  0  0
  -21.8462  -31.0855   22.3288 O   0  0  0  0  0  0  0  0  0  0  0  0
  -21.6405  -26.3590   21.9559 O   0  0  0  0  0  0  0  0  0  0  0  0
  -28.7112  -16.5954   15.5968 O   0  0  0  0  0  0  0  0  0  0  0  0
  -21.9302   -7.0583   21.3527 O   0  0  0  0  0  0  0  0  0  0  0  0
  -28.1441  -25.9151   19.9918 O   0  0  0  0  0  0  0  0  0  1  0  0
  -27.4680  -23.3571   19.0627 O   0  0  0  0  0  0  0  0  0  0  0  0
  -23.8392   -4.2447   25.6935 F   0  0  0  0  0  0  0  0  0  0  0  0
  -23.1255   -4.5870   21.0268 F   0  0  0  0  0  0  0  0  0  0  0  0
  1  2  1  0  0  0  0
  1  5  2  0  0  0  0
  2  6  2  0  0  0  0
  3 10  2  0  0  0  0
  3 18  1  0  0  0  0
  4 11  1  0  0  0  0
  4 18  2  0  0  0  0
  5 20  1  0  0  0  0
  6 22  1  0  0  0  0
  7 12  2  0  0  0  0
  7 21  1  0  0  0  0
  8  9  2  0  0  0  0
  8 24  1  0  0  0  0
  9 25  1  0  0  0  0
 10 26  1  0  0  0  0
 11 26  2  0  0  0  0
 12 27  1  0  0  0  0
 13 14  2  0  0  0  0
 13 28  1  0  0  0  0
 14 30  1  0  0  0  0
 15 23  1  0  0  0  0
 15 27  2  0  0  0  0
 16 25  2  0  0  0  0
 16 29  1  0  0  0  0
 17 30  2  0  0  0  0
 17 31  1  0  0  0  0
 18 32  1  0  0  0  0
 19 32  1  0  0  0  0
 19 33  2  0  0  0  0
 19 34  1  0  0  0  0
 20 22  2  0  0  0  0
 20 39  1  0  0  0  0
 21 23  2  0  0  0  0
 21 40  1  0  0  0  0
 22 48  1  0  0  0  0
 23 41  1  0  0  0  0
 24 29  2  0  0  0  0
 24 51  1  0  0  0  0
 25 70  1  0  0  0  0
 26 80  1  0  0  0  0
 27 81  1  0  0  0  0
 28 31  2  0  0  0  0
 28 80  1  0  0  0  0
 29 82  1  0  0  0  0
 30 83  1  0  0  0  0
 31 84  1  0  0  0  0
 32 64  2  0  0  0  0
 33 65  1  0  0  0  0
 33 68  1  0  0  0  0
 34 69  1  0  0  0  0
 34 75  2  0  0  0  0
 35 49  1  0  0  0  0
 35 71  1  0  0  0  0
 35 76  2  0  0  0  0
 36 61  1  0  0  0  0
 36 66  1  0  0  0  0
 36 77  2  0  0  0  0
 37 62  1  0  0  0  0
 37 72  1  0  0  0  0
 37 78  2  0  0  0  0
 38 67  1  0  0  0  0
 38 73  1  0  0  0  0
 38 79  2  0  0  0  0
 39 42  1  0  0  0  0
 40 49  1  0  0  0  0
 41 66  1  0  0  0  0
 42 44  1  0  0  0  0
 43 45  1  0  0  0  0
 43 46  1  0  0  0  0
 44 48  1  0  0  0  0
 45 50  1  0  0  0  0
 46 67  1  0  0  0  0
 47 50  1  0  0  0  0
 47 67  1  0  0  0  0
 48 71  1  0  0  0  0
 49 66  1  0  0  0  0
 50 65  1  0  0  0  0
 52 62  1  0  0  0  0
 53 63  1  0  0  0  0
 54 63  1  0  0  0  0
 55 63  1  0  0  0  0
 56 74  1  0  0  0  0
 57 58  1  0  0  0  0
 57 70  1  0  0  0  0
 58 73  1  0  0  0  0
 59 60  1  0  0  0  0
 59 81  1  0  0  0  0
 60 82  1  0  0  0  0
 61 63  1  0  0  0  0
 61 72  1  0  0  0  0
 62 74  1  0  0  0  0
 64 65  1  0  0  0  0
M  CHG  1  74   1
M  ISO  4  38 100  59 101  73 100  81 101
M  END
> <Batch ID>
0147

> <Smiles>
CNC(C)C(=O)NC(C(=O)N1Cc2cc([101O:1][101CH2:1]COc3cc(NCC[100NH:0][100C:0](=O)N4CCCC(n5nc(-c6ccc(Oc7ccc(F)cc7F)cc6)c(C(N)=O)c5N)C4)ccc3C)ccc2CC1C(=O)NC1CCCc2ccccc21)C(C)(C)C

> <Shape>
0.304

> <Color>
0.121

> <Negative vol penalty>
0.000

$$$$

  -OEChem-04052321333D

 85 94  0     1  0  0  0  0  0999 V2000
  -21.9436  -31.8915   14.5946 C   0  0  0  0  0  0  0  0  0  0  0  0
  -23.0528  -31.2190   15.0974 C   0  0  0  0  0  0  0  0  0  0  0  0
  -23.1495   -9.6633   19.7000 C   0  0  0  0  0  0  0  0  0  0  0  0
  -24.5923   -9.0762   21.5467 C   0  0  0  0  0  0  0  0  0  0  0  0
  -21.4261  -32.9900   15.2798 C   0  0  0  0  0  0  0  0  0  0  0  0
  -23.6459  -31.6453   16.2853 C   0  0  0  0  0  0  0  0  0  0  0  0
  -24.7328  -27.8044   19.4016 C   0  0  0  0  0  0  0  0  0  0  0  0
  -22.0436   -9.2122   20.4205 C   0  0  0  0  0  0  0  0  0  0  0  0
  -23.4865   -8.6251   22.2673 C   0  0  0  0  0  0  0  0  0  0  0  0
  -25.8702  -27.0519   19.1121 C   0  0  0  0  0  0  0  0  0  0  0  0
  -21.5170   -5.8782   22.3479 C   0  0  0  0  0  0  0  0  0  0  0  0
  -21.6305   -4.6568   23.0119 C   0  0  0  0  0  0  0  0  0  0  0  0
  -28.2817  -20.2901   20.1190 C   0  0  0  0  0  0  0  0  0  0  0  0
  -30.5770  -20.2807   19.3651 C   0  0  0  0  0  0  0  0  0  0  0  0
  -27.0987  -28.2749   20.7897 C   0  0  0  0  0  0  0  0  0  0  0  0
  -21.2025   -5.7618   25.1174 C   0  0  0  0  0  0  0  0  0  0  0  0
  -24.4239   -9.5952   20.2630 C   0  0  0  0  0  0  0  0  0  0  0  0
  -26.0241   -9.5824   18.2764 C   0  0  0  0  0  0  0  0  0  0  0  0
  -22.0073  -33.4240   16.4817 C   0  0  0  0  0  0  0  0  0  0  0  0
  -24.7728  -28.8069   20.3813 C   0  0  0  0  0  0  0  0  0  0  0  0
  -23.1365  -32.7514   16.9865 C   0  0  0  0  0  0  0  0  0  0  0  0
  -29.4116  -20.9798   19.6794 C   0  0  0  0  0  0  0  0  0  0  0  0
  -25.9597  -29.0370   21.0915 C   0  0  0  0  0  0  0  0  0  0  0  0
  -28.3172  -18.9013   20.2444 C   0  0  0  0  0  0  0  0  0  0  0  0
  -30.6125  -18.8919   19.4904 C   0  0  0  0  0  0  0  0  0  0  0  0
  -29.4825  -18.2022   19.9300 C   0  0  0  0  0  0  0  0  0  0  0  0
  -22.2121   -8.6931   21.7042 C   0  0  0  0  0  0  0  0  0  0  0  0
  -27.0542  -27.2891   19.8042 C   0  0  0  0  0  0  0  0  0  0  0  0
  -21.2463   -7.0414   23.0685 C   0  0  0  0  0  0  0  0  0  0  0  0
  -21.4732   -4.5986   24.3966 C   0  0  0  0  0  0  0  0  0  0  0  0
  -21.0890   -6.9832   24.4533 C   0  0  0  0  0  0  0  0  0  0  0  0
  -25.5666  -10.0605   19.5190 C   0  0  0  0  0  0  0  0  0  0  0  0
  -27.1315  -10.3468   18.0010 C   0  0  0  0  0  0  0  0  0  0  0  0
  -25.4952   -8.5406   17.4454 C   0  0  0  0  0  0  0  0  0  0  0  0
  -24.3451  -31.9566   20.3866 C   0  0  0  0  0  0  0  0  0  0  0  0
  -24.6220  -31.5970   23.5985 C   0  0  0  0  0  0  0  0  0  0  0  0
  -26.6933  -29.7055   25.8676 C   0  0  0  0  0  0  0  0  0  0  0  0
  -28.4591  -15.8921   19.9098 C   0  0  0  0  0  0  0  0  0  0  0  0
  -21.4415  -34.6454   17.1621 C   0  0  0  0  0  0  0  0  0  0  0  0
  -23.5299  -29.5916   20.7004 C   0  0  0  0  0  0  0  0  0  0  0  0
  -26.0495  -30.0878   22.1667 C   0  0  0  0  0  0  0  0  0  0  0  0
  -21.8998  -34.8034   18.6096 C   0  0  0  0  0  0  0  0  0  0  0  0
  -30.2395  -12.6441   20.9125 C   0  0  0  0  0  0  0  0  0  0  0  0
  -29.1293  -23.1819   20.8969 C   0  0  0  0  0  0  0  0  0  0  0  0
  -28.3400  -22.9451   18.4969 C   0  0  0  0  0  0  0  0  0  0  0  0
  -23.4057  -34.5872   18.7194 C   0  0  0  0  0  0  0  0  0  0  0  0
  -29.5989  -11.6847   19.9123 C   0  0  0  0  0  0  0  0  0  0  0  0
  -29.1005  -24.7010   20.7497 C   0  0  0  0  0  0  0  0  0  0  0  0
  -28.3159  -24.4654   18.3621 C   0  0  0  0  0  0  0  0  0  0  0  0
  -30.1846  -14.0917   20.4408 C   0  0  0  0  0  0  0  0  0  0  0  0
  -27.7976  -13.4957   19.9900 C   0  0  0  0  0  0  0  0  0  0  0  0
  -29.3732  -22.4910   19.5434 C   0  0  0  0  0  0  0  0  0  0  0  0
  -23.7925  -33.1684   18.2849 C   0  0  1  0  0  0  0  0  0  0  0  0
  -23.8246  -30.9359   21.3587 C   0  0  1  0  0  0  0  0  0  0  0  0
  -28.3343  -12.2627   19.2465 C   0  0  2  0  0  0  0  0  0  0  0  0
  -28.0773  -25.1477   19.7070 C   0  0  0  0  0  0  0  0  0  1  0  0
  -27.0908  -18.1905   20.7183 C   0  0  0  0  0  0  0  0  0  0  0  0
  -31.8754  -18.1706   19.1457 C   0  0  0  0  0  0  0  0  0  0  0  0
  -26.2349  -28.8811   28.1930 C   0  0  0  0  0  0  0  0  0  0  0  0
  -25.9819  -34.1848   24.4725 C   0  0  0  0  0  0  0  0  0  0  0  0
  -27.0470  -32.9105   26.3459 C   0  0  0  0  0  0  0  0  0  0  0  0
  -24.5631  -33.1076   26.2277 C   0  0  0  0  0  0  0  0  0  0  0  0
  -27.3203  -26.9100   25.1250 C   0  0  0  0  0  0  0  0  0  0  0  0
  -25.7677  -31.6142   24.5813 C   0  0  1  0  0  0  0  0  0  0  0  0
  -26.2658  -28.5213   26.7158 C   0  0  2  0  0  0  0  0  0  0  0  0
  -25.8436  -32.9461   25.3799 C   0  0  0  0  0  0  0  0  0  0  0  0
  -26.3218  -11.0517   19.9998 N   0  0  0  0  0  0  0  0  0  0  0  0
  -27.2650  -11.2027   19.0544 N   0  0  0  0  0  0  0  0  0  0  0  0
  -24.8091  -30.8331   22.4378 N   0  0  0  0  0  0  0  0  0  0  0  0
  -28.8253  -14.5373   20.1017 N   0  0  0  0  0  0  0  0  0  0  0  0
  -27.9943  -10.3636   16.9629 N   0  0  0  0  0  0  0  0  0  0  0  0
  -25.9604   -7.2324   17.6366 N   0  0  0  0  0  0  0  0  0  0  0  0
  -29.5188  -16.7910   20.0572 N   0  0  0  0  0  0  0  0  0  0  0  0
  -23.4893  -32.2183   19.3336 N   0  0  0  0  0  0  0  0  0  0  0  0
  -25.6092  -30.4266   25.4138 N   0  0  0  0  0  0  0  0  0  0  0  0
  -27.2091  -27.3828   26.5289 N   0  3  0  0  0  0  0  0  0  0  0  0
  -24.6476   -8.7659   16.5484 O   0  0  0  0  0  0  0  0  0  0  0  0
  -25.4412  -32.4698   20.5784 O   0  0  0  0  0  0  0  0  0  0  0  0
  -23.5959  -32.2320   23.8546 O   0  0  0  0  0  0  0  0  0  0  0  0
  -27.8714  -29.9669   25.6343 O   0  0  0  0  0  0  0  0  0  0  0  0
  -27.3042  -16.2171   19.6261 O   0  0  0  0  0  0  0  0  0  0  0  0
  -21.1332   -8.2531   22.4077 O   0  0  0  0  0  0  0  0  0  0  0  0
  -28.1661  -26.5565   19.5232 O   0  0  0  0  0  0  0  0  0  1  0  0
  -21.5806   -3.4254   25.0340 F   0  0  0  0  0  0  0  0  0  0  0  0
  -20.8277   -8.0971   25.1509 F   0  0  0  0  0  0  0  0  0  0  0  0
  1  2  1  0  0  0  0
  1  5  2  0  0  0  0
  2  6  2  0  0  0  0
  3  8  2  0  0  0  0
  3 17  1  0  0  0  0
  4  9  1  0  0  0  0
  4 17  2  0  0  0  0
  5 19  1  0  0  0  0
  6 21  1  0  0  0  0
  7 10  2  0  0  0  0
  7 20  1  0  0  0  0
  8 27  1  0  0  0  0
  9 27  2  0  0  0  0
 10 28  1  0  0  0  0
 11 12  2  0  0  0  0
 11 29  1  0  0  0  0
 12 30  1  0  0  0  0
 13 22  1  0  0  0  0
 13 24  2  0  0  0  0
 14 22  2  0  0  0  0
 14 25  1  0  0  0  0
 15 23  1  0  0  0  0
 15 28  2  0  0  0  0
 16 30  2  0  0  0  0
 16 31  1  0  0  0  0
 17 32  1  0  0  0  0
 18 32  1  0  0  0  0
 18 33  2  0  0  0  0
 18 34  1  0  0  0  0
 19 21  2  0  0  0  0
 19 39  1  0  0  0  0
 20 23  2  0  0  0  0
 20 40  1  0  0  0  0
 21 53  1  0  0  0  0
 22 52  1  0  0  0  0
 23 41  1  0  0  0  0
 24 26  1  0  0  0  0
 24 57  1  0  0  0  0
 25 26  2  0  0  0  0
 25 58  1  0  0  0  0
 26 73  1  0  0  0  0
 27 82  1  0  0  0  0
 28 83  1  0  0  0  0
 29 31  2  0  0  0  0
 29 82  1  0  0  0  0
 30 84  1  0  0  0  0
 31 85  1  0  0  0  0
 32 67  2  0  0  0  0
 33 68  1  0  0  0  0
 33 71  1  0  0  0  0
 34 72  1  0  0  0  0
 34 77  2  0  0  0  0
 35 54  1  0  0  0  0
 35 74  1  0  0  0  0
 35 78  2  0  0  0  0
 36 64  1  0  0  0  0
 36 69  1  0  0  0  0
 36 79  2  0  0  0  0
 37 65  1  0  0  0  0
 37 75  1  0  0  0  0
 37 80  2  0  0  0  0
 38 70  1  0  0  0  0
 38 73  1  0  0  0  0
 38 81  2  0  0  0  0
 39 42  1  0  0  0  0
 40 54  1  0  0  0  0
 41 69  1  0  0  0  0
 42 46  1  0  0  0  0
 43 47  1  0  0  0  0
 43 50  1  0  0  0  0
 44 48  1  0  0  0  0
 44 52  1  0  0  0  0
 45 49  1  0  0  0  0
 45 52  1  0  0  0  0
 46 53  1  0  0  0  0
 47 55  1  0  0  0  0
 48 56  1  0  0  0  0
 49 56  1  0  0  0  0
 50 70  1  0  0  0  0
 51 55  1  0  0  0  0
 51 70  1  0  0  0  0
 53 74  1  0  0  0  0
 54 69  1  0  0  0  0
 55 68  1  0  0  0  0
 56 83  1  0  0  0  0
 59 65  1  0  0  0  0
 60 66  1  0  0  0  0
 61 66  1  0  0  0  0
 62 66  1  0  0  0  0
 63 76  1  0  0  0  0
 64 66  1  0  0  0  0
 64 75  1  0  0  0  0
 65 76  1  0  0  0  0
 67 68  1  0  0  0  0
M  CHG  1  76   1
M  ISO  4  38 100  56 101  73 100  83 101
M  END
> <Batch ID>
0147

> <Smiles>
CNC(C)C(=O)NC(C(=O)N1Cc2cc([101O:1][101CH:1]3CCC(c4cc(C)c([100NH:0][100C:0](=O)N5CCCC(n6nc(-c7ccc(Oc8ccc(F)cc8F)cc7)c(C(N)=O)c6N)C5)c(C)c4)CC3)ccc2CC1C(=O)NC1CCCc2ccccc21)C(C)(C)C

> <Shape>
0.322

> <Color>
0.127

> <Negative vol penalty>
0.000

$$$$

  -OEChem-04052321333D

 82 90  0     1  0  0  0  0  0999 V2000
  -23.0519  -23.9390   19.1246 C   0  0  0  0  0  0  0  0  0  0  0  0
  -24.1895  -23.2277   19.4924 C   0  0  0  0  0  0  0  0  0  0  0  0
  -19.6972  -29.2749   22.5342 C   0  0  0  0  0  0  0  0  0  0  0  0
  -19.9204  -26.9816   23.2606 C   0  0  0  0  0  0  0  0  0  0  0  0
  -21.7889  -23.4554   19.4634 C   0  0  0  0  0  0  0  0  0  0  0  0
  -24.0648  -22.0328   20.2002 C   0  0  0  0  0  0  0  0  0  0  0  0
  -27.0736  -18.3817   18.3941 C   0  0  0  0  0  0  0  0  0  0  0  0
  -29.1163  -23.3745   23.2564 C   0  0  0  0  0  0  0  0  0  0  0  0
  -18.3095  -29.1351   22.5191 C   0  0  0  0  0  0  0  0  0  0  0  0
  -18.5326  -26.8418   23.2456 C   0  0  0  0  0  0  0  0  0  0  0  0
  -28.4225  -18.4384   18.7416 C   0  0  0  0  0  0  0  0  0  0  0  0
  -14.6936  -29.4909   22.6369 C   0  0  0  0  0  0  0  0  0  0  0  0
  -13.9324  -30.5158   23.1987 C   0  0  0  0  0  0  0  0  0  0  0  0
  -29.3407  -22.0026   23.2871 C   0  0  0  0  0  0  0  0  0  0  0  0
  -28.0469  -16.7741   20.4470 C   0  0  0  0  0  0  0  0  0  0  0  0
  -15.0192  -30.1567   25.3264 C   0  0  0  0  0  0  0  0  0  0  0  0
  -30.9032  -23.5793   21.7002 C   0  0  0  0  0  0  0  0  0  0  0  0
  -20.5027  -28.1981   22.9049 C   0  0  0  0  0  0  0  0  0  0  0  0
  -22.7372  -28.7613   23.9991 C   0  0  0  0  0  0  0  0  0  0  0  0
  -21.6482  -22.2490   20.1673 C   0  0  0  0  0  0  0  0  0  0  0  0
  -26.1974  -17.5274   19.0788 C   0  0  0  0  0  0  0  0  0  0  0  0
  -22.7987  -21.5332   20.5499 C   0  0  0  0  0  0  0  0  0  0  0  0
  -26.6877  -16.7066   20.1045 C   0  0  0  0  0  0  0  0  0  0  0  0
  -29.9080  -24.1849   22.4504 C   0  0  0  0  0  0  0  0  0  0  0  0
  -17.7271  -27.9186   22.8748 C   0  0  0  0  0  0  0  0  0  0  0  0
  -28.9088  -17.6366   19.7701 C   0  0  0  0  0  0  0  0  0  0  0  0
  -15.6175  -28.7987   23.4199 C   0  0  0  0  0  0  0  0  0  0  0  0
  -14.0952  -30.8488   24.5434 C   0  0  0  0  0  0  0  0  0  0  0  0
  -15.7803  -29.1317   24.7646 C   0  0  0  0  0  0  0  0  0  0  0  0
  -21.9363  -28.3417   22.9201 C   0  0  0  0  0  0  0  0  0  0  0  0
  -30.3611  -21.4947   22.4993 C   0  0  0  0  0  0  0  0  0  0  0  0
  -24.0194  -28.7295   23.5077 C   0  0  0  0  0  0  0  0  0  0  0  0
  -22.3562  -29.1453   25.3270 C   0  0  0  0  0  0  0  0  0  0  0  0
  -23.6011  -17.9402   20.8656 C   0  0  0  0  0  0  0  0  0  0  0  0
  -23.5036  -14.6990   20.7822 C   0  0  0  0  0  0  0  0  0  0  0  0
  -25.1895  -11.7591   20.3796 C   0  0  0  0  0  0  0  0  0  0  0  0
  -28.0585  -26.1954   20.6078 C   0  0  0  0  0  0  0  0  0  0  0  0
  -20.2640  -21.7903   20.5524 C   0  0  0  0  0  0  0  0  0  0  0  0
  -24.7504  -17.4584   18.6740 C   0  0  0  0  0  0  0  0  0  0  0  0
  -25.7925  -15.7576   20.8571 C   0  0  0  0  0  0  0  0  0  0  0  0
  -20.2039  -20.3252   20.9767 C   0  0  0  0  0  0  0  0  0  0  0  0
  -25.7192  -28.1591   18.7779 C   0  0  0  0  0  0  0  0  0  0  0  0
  -21.3333  -20.0047   21.9506 C   0  0  0  0  0  0  0  0  0  0  0  0
  -24.5904  -28.4107   19.7791 C   0  0  0  0  0  0  0  0  0  0  0  0
  -26.3169  -26.7632   18.9402 C   0  0  0  0  0  0  0  0  0  0  0  0
  -25.6370  -26.6884   21.3079 C   0  0  0  0  0  0  0  0  0  0  0  0
  -22.7035  -20.2204   21.2967 C   0  0  1  0  0  0  0  0  0  0  0  0
  -23.8447  -16.9287   19.7816 C   0  0  1  0  0  0  0  0  0  0  0  0
  -25.0403  -28.1035   21.2201 C   0  0  2  0  0  0  0  0  0  0  0  0
  -24.8481   -9.2731   20.4046 C   0  0  0  0  0  0  0  0  0  0  0  0
  -23.3818  -14.7489   23.8305 C   0  0  0  0  0  0  0  0  0  0  0  0
  -23.9965  -12.3219   23.8254 C   0  0  0  0  0  0  0  0  0  0  0  0
  -21.8722  -13.0709   22.7535 C   0  0  0  0  0  0  0  0  0  0  0  0
  -26.0437  -11.4967   17.5582 C   0  0  0  0  0  0  0  0  0  0  0  0
  -29.6930  -25.6556   22.3955 C   0  0  0  0  0  0  0  0  0  0  0  0
  -31.8175  -18.1721   21.8592 C   0  0  0  0  0  0  0  0  0  0  0  0
  -30.5541  -17.4188   21.4735 C   0  0  0  0  0  0  0  0  0  1  0  0
  -31.6588  -19.6746   21.6875 C   0  0  0  0  0  0  0  0  0  0  0  0
  -24.0772  -13.5899   21.6307 C   0  0  1  0  0  0  0  0  0  0  0  0
  -24.8826  -10.5280   19.5462 C   0  0  2  0  0  0  0  0  0  0  0  0
  -23.3486  -13.4521   22.9973 C   0  0  0  0  0  0  0  0  0  0  0  0
  -31.1510  -22.2504   21.7039 N   0  0  0  0  0  0  0  0  0  0  0  0
  -22.6499  -28.0640   21.8257 N   0  0  0  0  0  0  0  0  0  0  0  0
  -23.9126  -28.3096   22.2145 N   0  0  0  0  0  0  0  0  0  0  0  0
  -24.3843  -15.7310   20.4285 N   0  0  0  0  0  0  0  0  0  0  0  0
  -26.7246  -26.5361   20.3287 N   0  0  0  0  0  0  0  0  0  0  0  0
  -25.2164  -29.0202   24.0600 N   0  0  0  0  0  0  0  0  0  0  0  0
  -20.9964  -29.1209   25.6653 N   0  0  0  0  0  0  0  0  0  0  0  0
  -23.0249  -19.1146   20.4202 N   0  0  0  0  0  0  0  0  0  0  0  0
  -24.0384  -12.3853   20.8087 N   0  0  0  0  0  0  0  0  0  0  0  0
  -28.3622  -26.0039   21.9501 N   0  0  0  0  0  0  0  0  0  0  0  0
  -25.9180  -10.3463   18.4898 N   0  3  0  0  0  0  0  0  0  0  0  0
  -23.1953  -29.5153   26.1829 O   0  0  0  0  0  0  0  0  0  0  0  0
  -23.9115  -17.6743   22.0209 O   0  0  0  0  0  0  0  0  0  0  0  0
  -22.3197  -14.6477   20.4396 O   0  0  0  0  0  0  0  0  0  0  0  0
  -26.3357  -12.1264   20.6283 O   0  0  0  0  0  0  0  0  0  0  0  0
  -28.9164  -26.0765   19.7265 O   0  0  0  0  0  0  0  0  0  0  0  0
  -16.3730  -27.7819   22.8605 O   0  0  0  0  0  0  0  0  0  0  0  0
  -30.2250  -17.6904   20.1118 O   0  0  0  0  0  0  0  0  0  1  0  0
  -30.6017  -20.1454   22.5126 O   0  0  0  0  0  0  0  0  0  0  0  0
  -13.3653  -31.8341   25.0824 F   0  0  0  0  0  0  0  0  0  0  0  0
  -16.6672  -28.4711   25.5215 F   0  0  0  0  0  0  0  0  0  0  0  0
  1  2  1  0  0  0  0
  1  5  2  0  0  0  0
  2  6  2  0  0  0  0
  3  9  2  0  0  0  0
  3 18  1  0  0  0  0
  4 10  1  0  0  0  0
  4 18  2  0  0  0  0
  5 20  1  0  0  0  0
  6 22  1  0  0  0  0
  7 11  2  0  0  0  0
  7 21  1  0  0  0  0
  8 14  2  0  0  0  0
  8 24  1  0  0  0  0
  9 25  1  0  0  0  0
 10 25  2  0  0  0  0
 11 26  1  0  0  0  0
 12 13  2  0  0  0  0
 12 27  1  0  0  0  0
 13 28  1  0  0  0  0
 14 31  1  0  0  0  0
 15 23  1  0  0  0  0
 15 26  2  0  0  0  0
 16 28  2  0  0  0  0
 16 29  1  0  0  0  0
 17 24  2  0  0  0  0
 17 62  1  0  0  0  0
 18 30  1  0  0  0  0
 19 30  1  0  0  0  0
 19 32  2  0  0  0  0
 19 33  1  0  0  0  0
 20 22  2  0  0  0  0
 20 38  1  0  0  0  0
 21 23  2  0  0  0  0
 21 39  1  0  0  0  0
 22 47  1  0  0  0  0
 23 40  1  0  0  0  0
 24 55  1  0  0  0  0
 25 78  1  0  0  0  0
 26 79  1  0  0  0  0
 27 29  2  0  0  0  0
 27 78  1  0  0  0  0
 28 81  1  0  0  0  0
 29 82  1  0  0  0  0
 30 63  2  0  0  0  0
 31 62  2  0  0  0  0
 31 80  1  0  0  0  0
 32 64  1  0  0  0  0
 32 67  1  0  0  0  0
 33 68  1  0  0  0  0
 33 73  2  0  0  0  0
 34 48  1  0  0  0  0
 34 69  1  0  0  0  0
 34 74  2  0  0  0  0
 35 59  1  0  0  0  0
 35 65  1  0  0  0  0
 35 75  2  0  0  0  0
 36 60  1  0  0  0  0
 36 70  1  0  0  0  0
 36 76  2  0  0  0  0
 37 66  1  0  0  0  0
 37 71  1  0  0  0  0
 37 77  2  0  0  0  0
 38 41  1  0  0  0  0
 39 48  1  0  0  0  0
 40 65  1  0  0  0  0
 41 43  1  0  0  0  0
 42 44  1  0  0  0  0
 42 45  1  0  0  0  0
 43 47  1  0  0  0  0
 44 49  1  0  0  0  0
 45 66  1  0  0  0  0
 46 49  1  0  0  0  0
 46 66  1  0  0  0  0
 47 69  1  0  0  0  0
 48 65  1  0  0  0  0
 49 64  1  0  0  0  0
 50 60  1  0  0  0  0
 51 61  1  0  0  0  0
 52 61  1  0  0  0  0
 53 61  1  0  0  0  0
 54 72  1  0  0  0  0
 55 71  1  0  0  0  0
 56 57  1  0  0  0  0
 56 58  1  0  0  0  0
 57 79  1  0  0  0  0
 58 80  1  0  0  0  0
 59 61  1  0  0  0  0
 59 70  1  0  0  0  0
 60 72  1  0  0  0  0
 63 64  1  0  0  0  0
M  CHG  1  72   1
M  ISO  4  37 100  57 101  71 100  79 101
M  END
> <Batch ID>
0147

> <Smiles>
CNC(C)C(=O)NC(C(=O)N1Cc2cc([101O:1][101CH2:1]CCOc3ccc(C[100NH:0][100C:0](=O)N4CCCC(n5nc(-c6ccc(Oc7ccc(F)cc7F)cc6)c(C(N)=O)c5N)C4)cn3)ccc2CC1C(=O)NC1CCCc2ccccc21)C(C)(C)C

> <Shape>
0.195

> <Color>
0.083

> <Negative vol penalty>
0.000

$$$$

  -OEChem-04052321333D

 86 96  0     1  0  0  0  0  0999 V2000
  -23.2105  -32.0341   11.2804 C   0  0  0  0  0  0  0  0  0  0  0  0
  -22.7999  -30.7278   11.5263 C   0  0  0  0  0  0  0  0  0  0  0  0
  -23.1955   -9.8940   19.9006 C   0  0  0  0  0  0  0  0  0  0  0  0
  -23.6991   -9.9252   22.2634 C   0  0  0  0  0  0  0  0  0  0  0  0
  -23.9685  -32.7160   12.2314 C   0  0  0  0  0  0  0  0  0  0  0  0
  -23.1479  -30.1023   12.7230 C   0  0  0  0  0  0  0  0  0  0  0  0
  -24.9562  -19.4269   16.0383 C   0  0  0  0  0  0  0  0  0  0  0  0
  -23.7473  -20.0893   16.2516 C   0  0  0  0  0  0  0  0  0  0  0  0
  -19.7885  -26.0742   15.8844 C   0  0  0  0  0  0  0  0  0  0  0  0
  -22.4568   -8.7235   20.0735 C   0  0  0  0  0  0  0  0  0  0  0  0
  -22.9603   -8.7547   22.4363 C   0  0  0  0  0  0  0  0  0  0  0  0
  -19.8105  -24.6818   15.9507 C   0  0  0  0  0  0  0  0  0  0  0  0
  -23.3906   -5.4395   21.9311 C   0  0  0  0  0  0  0  0  0  0  0  0
  -23.9483   -4.4314   22.7173 C   0  0  0  0  0  0  0  0  0  0  0  0
  -24.6603  -18.2196   18.1100 C   0  0  0  0  0  0  0  0  0  0  0  0
  -21.1919  -24.8036   17.9246 C   0  0  0  0  0  0  0  0  0  0  0  0
  -22.0664   -4.5673   24.2264 C   0  0  0  0  0  0  0  0  0  0  0  0
  -23.8167  -10.4948   20.9956 C   0  0  0  0  0  0  0  0  0  0  0  0
  -24.1086  -13.0273   20.9008 C   0  0  0  0  0  0  0  0  0  0  0  0
  -25.4127  -18.4920   16.9675 C   0  0  0  0  0  0  0  0  0  0  0  0
  -24.3179  -32.1018   13.4444 C   0  0  0  0  0  0  0  0  0  0  0  0
  -20.4782  -26.8429   16.8330 C   0  0  0  0  0  0  0  0  0  0  0  0
  -23.9125  -30.7761   13.6905 C   0  0  0  0  0  0  0  0  0  0  0  0
  -22.9950  -19.8168   17.3941 C   0  0  0  0  0  0  0  0  0  0  0  0
  -21.1750  -26.2056   17.8696 C   0  0  0  0  0  0  0  0  0  0  0  0
  -23.4515  -18.8820   18.3233 C   0  0  0  0  0  0  0  0  0  0  0  0
  -22.3391   -8.1539   21.3413 C   0  0  0  0  0  0  0  0  0  0  0  0
  -20.5147  -24.0462   16.9692 C   0  0  0  0  0  0  0  0  0  0  0  0
  -22.1709   -6.0116   22.2925 C   0  0  0  0  0  0  0  0  0  0  0  0
  -23.2862   -3.9952   23.8650 C   0  0  0  0  0  0  0  0  0  0  0  0
  -21.5088   -5.5755   23.4401 C   0  0  0  0  0  0  0  0  0  0  0  0
  -24.5804  -11.7035   20.8175 C   0  0  0  0  0  0  0  0  0  0  0  0
  -25.2155  -13.8024   20.6555 C   0  0  0  0  0  0  0  0  0  0  0  0
  -22.7878  -13.5127   21.1754 C   0  0  0  0  0  0  0  0  0  0  0  0
  -22.8748  -28.9278   16.7170 C   0  0  0  0  0  0  0  0  0  0  0  0
  -22.1765  -29.3135   19.8612 C   0  0  0  0  0  0  0  0  0  0  0  0
  -20.8117  -28.0141   22.7065 C   0  0  0  0  0  0  0  0  0  0  0  0
  -29.7987  -14.9981   17.9207 C   0  0  0  0  0  0  0  0  0  0  0  0
  -25.1786  -32.8626   14.4218 C   0  0  0  0  0  0  0  0  0  0  0  0
  -20.4226  -28.3444   16.7632 C   0  0  0  0  0  0  0  0  0  0  0  0
  -21.9150  -26.9855   18.9244 C   0  0  0  0  0  0  0  0  0  0  0  0
  -25.1876  -32.2587   15.8238 C   0  0  0  0  0  0  0  0  0  0  0  0
  -30.1101  -12.5851   20.3768 C   0  0  0  0  0  0  0  0  0  0  0  0
  -25.3923  -30.7487   15.7533 C   0  0  0  0  0  0  0  0  0  0  0  0
  -28.6634  -12.2383   20.7285 C   0  0  0  0  0  0  0  0  0  0  0  0
  -27.7585  -18.0844   17.8333 C   0  0  0  0  0  0  0  0  0  0  0  0
  -26.5341  -16.2519   16.5910 C   0  0  0  0  0  0  0  0  0  0  0  0
  -21.4904  -21.2972   18.8844 C   0  0  0  0  0  0  0  0  0  0  0  0
  -30.2793  -12.7621   18.8720 C   0  0  0  0  0  0  0  0  0  0  0  0
  -29.0681  -17.3341   17.6024 C   0  0  0  0  0  0  0  0  0  0  0  0
  -27.8705  -15.5443   16.3866 C   0  0  0  0  0  0  0  0  0  0  0  0
  -27.9178  -13.4513   18.6222 C   0  0  0  0  0  0  0  0  0  0  0  0
  -26.7277  -17.7718   16.7350 C   0  0  0  0  0  0  0  0  0  0  0  0
  -21.7043  -20.5375   17.6020 C   0  0  1  0  0  0  0  0  0  0  0  0
  -24.2491  -30.0722   14.9871 C   0  0  1  0  0  0  0  0  0  0  0  0
  -21.5857  -29.0196   17.4834 C   0  0  1  0  0  0  0  0  0  0  0  0
  -27.6885  -13.2712   20.1361 C   0  0  1  0  0  0  0  0  0  0  0  0
  -21.7031  -22.0454   17.6040 C   0  0  1  0  0  0  0  0  0  1  0  0
  -22.6645  -18.5724   19.5546 C   0  0  0  0  0  0  0  0  0  0  0  0
  -20.4241  -28.5488   25.1275 C   0  0  0  0  0  0  0  0  0  0  0  0
  -25.1146  -28.7434   20.4551 C   0  0  0  0  0  0  0  0  0  0  0  0
  -24.4833  -28.3516   22.8459 C   0  0  0  0  0  0  0  0  0  0  0  0
  -24.1157  -30.5917   21.8117 C   0  0  0  0  0  0  0  0  0  0  0  0
  -17.8738  -27.8401   22.3944 C   0  0  0  0  0  0  0  0  0  0  0  0
  -22.6280  -28.6593   21.1447 C   0  0  1  0  0  0  0  0  0  0  0  0
  -19.8480  -28.6025   23.7211 C   0  0  2  0  0  0  0  0  0  0  0  0
  -24.0731  -29.0715   21.5435 C   0  0  0  0  0  0  0  0  0  0  0  0
  -25.8855  -11.6378   20.5408 N   0  0  0  0  0  0  0  0  0  0  0  0
  -26.2431  -12.9299   20.4479 N   0  0  0  0  0  0  0  0  0  0  0  0
  -21.8359  -28.4512   18.8095 N   0  0  0  0  0  0  0  0  0  0  0  0
  -29.3320  -13.7454   18.3472 N   0  0  0  0  0  0  0  0  0  0  0  0
  -28.8385  -15.8998   17.4332 N   0  0  0  0  0  0  0  0  0  0  0  0
  -25.4005  -15.1385   20.5992 N   0  0  0  0  0  0  0  0  0  0  0  0
  -21.7672  -12.5798   21.4045 N   0  0  0  0  0  0  0  0  0  0  0  0
  -23.0739  -29.9640   15.8247 N   0  0  0  0  0  0  0  0  0  0  0  0
  -21.6167  -28.9827   22.1453 N   0  0  0  0  0  0  0  0  0  0  0  0
  -18.5618  -27.8497   23.7110 N   0  3  0  0  0  0  0  0  0  0  0  0
  -22.5170  -14.7373   21.2003 O   0  0  0  0  0  0  0  0  0  0  0  0
  -23.6335  -27.9874   16.9213 O   0  0  0  0  0  0  0  0  0  0  0  0
  -22.1211  -30.5441   19.7966 O   0  0  0  0  0  0  0  0  0  0  0  0
  -20.8494  -26.8146   22.4413 O   0  0  0  0  0  0  0  0  0  0  0  0
  -30.9981  -15.2972   17.9762 O   0  0  0  0  0  0  0  0  0  0  0  0
  -21.6182   -7.0119   21.5104 O   0  0  0  0  0  0  0  0  0  0  0  0
  -20.5386  -22.6675   17.0368 O   0  0  0  0  0  0  0  0  0  1  0  0
  -23.8211   -3.0260   24.6191 F   0  0  0  0  0  0  0  0  0  0  0  0
  -20.3361   -6.1205   23.7917 F   0  0  0  0  0  0  0  0  0  0  0  0
  1  2  1  0  0  0  0
  1  5  2  0  0  0  0
  2  6  2  0  0  0  0
  3 10  2  0  0  0  0
  3 18  1  0  0  0  0
  4 11  1  0  0  0  0
  4 18  2  0  0  0  0
  5 21  1  0  0  0  0
  6 23  1  0  0  0  0
  7  8  2  0  0  0  0
  7 20  1  0  0  0  0
  8 24  1  0  0  0  0
  9 12  2  0  0  0  0
  9 22  1  0  0  0  0
 10 27  1  0  0  0  0
 11 27  2  0  0  0  0
 12 28  1  0  0  0  0
 13 14  2  0  0  0  0
 13 29  1  0  0  0  0
 14 30  1  0  0  0  0
 15 20  2  0  0  0  0
 15 26  1  0  0  0  0
 16 25  1  0  0  0  0
 16 28  2  0  0  0  0
 17 30  2  0  0  0  0
 17 31  1  0  0  0  0
 18 32  1  0  0  0  0
 19 32  1  0  0  0  0
 19 33  2  0  0  0  0
 19 34  1  0  0  0  0
 20 53  1  0  0  0  0
 21 23  2  0  0  0  0
 21 39  1  0  0  0  0
 22 25  2  0  0  0  0
 22 40  1  0  0  0  0
 23 55  1  0  0  0  0
 24 26  2  0  0  0  0
 24 54  1  0  0  0  0
 25 41  1  0  0  0  0
 26 59  1  0  0  0  0
 27 83  1  0  0  0  0
 28 84  1  0  0  0  0
 29 31  2  0  0  0  0
 29 83  1  0  0  0  0
 30 85  1  0  0  0  0
 31 86  1  0  0  0  0
 32 68  2  0  0  0  0
 33 69  1  0  0  0  0
 33 73  1  0  0  0  0
 34 74  1  0  0  0  0
 34 78  2  0  0  0  0
 35 56  1  0  0  0  0
 35 75  1  0  0  0  0
 35 79  2  0  0  0  0
 36 65  1  0  0  0  0
 36 70  1  0  0  0  0
 36 80  2  0  0  0  0
 37 66  1  0  0  0  0
 37 76  1  0  0  0  0
 37 81  2  0  0  0  0
 38 71  1  0  0  0  0
 38 72  1  0  0  0  0
 38 82  2  0  0  0  0
 39 42  1  0  0  0  0
 40 56  1  0  0  0  0
 41 70  1  0  0  0  0
 42 44  1  0  0  0  0
 43 45  1  0  0  0  0
 43 49  1  0  0  0  0
 44 55  1  0  0  0  0
 45 57  1  0  0  0  0
 46 50  1  0  0  0  0
 46 53  1  0  0  0  0
 47 51  1  0  0  0  0
 47 53  1  0  0  0  0
 48 54  1  0  0  0  0
 48 58  1  0  0  0  0
 49 71  1  0  0  0  0
 50 72  1  0  0  0  0
 51 72  1  0  0  0  0
 52 57  1  0  0  0  0
 52 71  1  0  0  0  0
 54 58  1  0  0  0  0
 55 75  1  0  0  0  0
 56 70  1  0  0  0  0
 57 69  1  0  0  0  0
 58 84  1  0  0  0  0
 60 66  1  0  0  0  0
 61 67  1  0  0  0  0
 62 67  1  0  0  0  0
 63 67  1  0  0  0  0
 64 77  1  0  0  0  0
 65 67  1  0  0  0  0
 65 76  1  0  0  0  0
 66 77  1  0  0  0  0
 68 69  1  0  0  0  0
M  CHG  1  77   1
M  ISO  4  38 100  58 101  72 100  84 101
M  END
> <Batch ID>
0147

> <Smiles>
CNC(C)C(=O)NC(C(=O)N1Cc2cc([101O:1][101CH:1]3CC3c3ccc(C4CC[100N:0]([100C:0](=O)N5CCCC(n6nc(-c7ccc(Oc8ccc(F)cc8F)cc7)c(C(N)=O)c6N)C5)CC4)cc3C)ccc2CC1C(=O)NC1CCCc2ccccc21)C(C)(C)C

> <Shape>
0.220

> <Color>
0.204

> <Negative vol penalty>
0.000

$$$$

  -OEChem-04052321333D

 86 95  0     1  0  0  0  0  0999 V2000
  -29.6157  -26.9780   14.5655 C   0  0  0  0  0  0  0  0  0  0  0  0
  -29.2666  -26.1983   15.6635 C   0  0  0  0  0  0  0  0  0  0  0  0
  -23.1338   -9.7507   20.3448 C   0  0  0  0  0  0  0  0  0  0  0  0
  -23.7510  -10.2064   22.6357 C   0  0  0  0  0  0  0  0  0  0  0  0
  -29.4380  -28.3602   14.6088 C   0  0  0  0  0  0  0  0  0  0  0  0
  -28.7406  -26.8005   16.8059 C   0  0  0  0  0  0  0  0  0  0  0  0
  -24.7298  -24.3128   18.6417 C   0  0  0  0  0  0  0  0  0  0  0  0
  -22.3907   -8.6474   20.7644 C   0  0  0  0  0  0  0  0  0  0  0  0
  -23.0079   -9.1031   23.0554 C   0  0  0  0  0  0  0  0  0  0  0  0
  -24.9805  -23.1547   19.3764 C   0  0  0  0  0  0  0  0  0  0  0  0
  -19.7592   -8.3551   23.6094 C   0  0  0  0  0  0  0  0  0  0  0  0
  -18.9322   -8.5175   24.7208 C   0  0  0  0  0  0  0  0  0  0  0  0
  -24.6824  -24.3959   21.4233 C   0  0  0  0  0  0  0  0  0  0  0  0
  -29.5272  -18.1354   21.9766 C   0  0  0  0  0  0  0  0  0  0  0  0
  -31.2382  -19.8162   21.7983 C   0  0  0  0  0  0  0  0  0  0  0  0
  -20.1505   -6.7832   25.8807 C   0  0  0  0  0  0  0  0  0  0  0  0
  -23.8140  -10.5302   21.2804 C   0  0  0  0  0  0  0  0  0  0  0  0
  -24.1305  -12.9954   20.7057 C   0  0  0  0  0  0  0  0  0  0  0  0
  -28.9006  -28.9786   15.7487 C   0  0  0  0  0  0  0  0  0  0  0  0
  -24.4639  -25.5256   19.2935 C   0  0  0  0  0  0  0  0  0  0  0  0
  -28.5568  -28.1924   16.8650 C   0  0  0  0  0  0  0  0  0  0  0  0
  -24.4261  -25.5674   20.6946 C   0  0  0  0  0  0  0  0  0  0  0  0
  -29.9591  -19.4393   22.1922 C   0  0  0  0  0  0  0  0  0  0  0  0
  -22.3277   -8.3236   22.1197 C   0  0  0  0  0  0  0  0  0  0  0  0
  -24.9596  -23.1967   20.7674 C   0  0  0  0  0  0  0  0  0  0  0  0
  -20.7818   -7.4067   23.6335 C   0  0  0  0  0  0  0  0  0  0  0  0
  -19.1278   -7.7316   25.8565 C   0  0  0  0  0  0  0  0  0  0  0  0
  -20.9774   -6.6208   24.7692 C   0  0  0  0  0  0  0  0  0  0  0  0
  -24.5823  -11.6697   20.8475 C   0  0  0  0  0  0  0  0  0  0  0  0
  -30.4056  -17.2535   21.3680 C   0  0  0  0  0  0  0  0  0  0  0  0
  -32.0401  -18.8590   21.1979 C   0  0  0  0  0  0  0  0  0  0  0  0
  -25.2333  -13.6895   20.2714 C   0  0  0  0  0  0  0  0  0  0  0  0
  -22.8301  -13.5500   20.9452 C   0  0  0  0  0  0  0  0  0  0  0  0
  -25.8785  -28.3699   19.4043 C   0  0  0  0  0  0  0  0  0  0  0  0
  -23.2429  -29.1803   21.1128 C   0  0  0  0  0  0  0  0  0  0  0  0
  -20.6498  -28.1745   23.0904 C   0  0  0  0  0  0  0  0  0  0  0  0
  -30.6646  -14.8806   20.5624 C   0  0  0  0  0  0  0  0  0  0  0  0
  -28.7711  -30.4811   15.7666 C   0  0  0  0  0  0  0  0  0  0  0  0
  -24.1692  -26.7601   18.4864 C   0  0  0  0  0  0  0  0  0  0  0  0
  -24.1256  -26.8399   21.4422 C   0  0  0  0  0  0  0  0  0  0  0  0
  -27.8584  -31.0007   16.8744 C   0  0  0  0  0  0  0  0  0  0  0  0
  -29.7288  -12.0390   18.6320 C   0  0  0  0  0  0  0  0  0  0  0  0
  -28.1865  -30.3202   18.1995 C   0  0  0  0  0  0  0  0  0  0  0  0
  -28.2693  -11.7987   19.0247 C   0  0  0  0  0  0  0  0  0  0  0  0
  -28.5195  -20.1054   24.2564 C   0  0  0  0  0  0  0  0  0  0  0  0
  -27.7529  -20.7494   22.0552 C   0  0  0  0  0  0  0  0  0  0  0  0
  -30.5653  -12.5113   19.8199 C   0  0  0  0  0  0  0  0  0  0  0  0
  -28.5679  -13.4360   20.9264 C   0  0  0  0  0  0  0  0  0  0  0  0
  -29.0403  -20.4448   22.8532 C   0  0  2  0  0  0  0  0  0  0  0  0
  -27.9602  -28.8060   18.1130 C   0  0  1  0  0  0  0  0  0  0  0  0
  -24.4172  -28.0522   19.2587 C   0  0  1  0  0  0  0  0  0  0  0  0
  -27.3642  -21.0875   24.4384 C   0  0  1  0  0  0  0  0  0  0  0  0
  -26.6398  -20.9990   23.0889 C   0  0  1  0  0  0  0  0  0  0  0  0
  -27.6717  -13.0214   19.7481 C   0  0  2  0  0  0  0  0  0  0  0  0
  -26.4828  -20.7395   25.6284 C   0  0  0  0  0  0  0  0  0  0  0  0
  -18.6828  -29.0696   24.3660 C   0  0  0  0  0  0  0  0  0  0  0  0
  -25.1213  -30.1946   23.2929 C   0  0  0  0  0  0  0  0  0  0  0  0
  -23.1802  -30.1817   24.8742 C   0  0  0  0  0  0  0  0  0  0  0  0
  -23.1378  -31.6556   22.8621 C   0  0  0  0  0  0  0  0  0  0  0  0
  -34.2625  -18.3668   20.1759 C   0  0  0  0  0  0  0  0  0  0  0  0
  -18.7365  -26.5989   21.4731 C   0  0  0  0  0  0  0  0  0  0  0  0
  -25.8080  -22.2333   22.7694 C   0  0  0  0  0  0  0  0  0  1  0  0
  -22.8681  -29.1582   22.5750 C   0  0  1  0  0  0  0  0  0  0  0  0
  -19.1661  -28.4921   23.0447 C   0  0  2  0  0  0  0  0  0  0  0  0
  -23.5845  -30.2738   23.3873 C   0  0  0  0  0  0  0  0  0  0  0  0
  -25.8716  -11.5276   20.5289 N   0  0  0  0  0  0  0  0  0  0  0  0
  -31.6554  -17.5828   20.9717 N   0  0  0  0  0  0  0  0  0  0  0  0
  -26.2393  -12.7729   20.1826 N   0  0  0  0  0  0  0  0  0  0  0  0
  -23.8502  -28.0216   20.6084 N   0  0  0  0  0  0  0  0  0  0  0  0
  -29.9403  -13.6748   20.4529 N   0  0  0  0  0  0  0  0  0  0  0  0
  -25.4308  -14.9882   19.9606 N   0  0  0  0  0  0  0  0  0  0  0  0
  -21.8110  -12.6962   21.3888 N   0  0  0  0  0  0  0  0  0  0  0  0
  -29.9564  -15.9270   21.1525 N   0  0  0  0  0  0  0  0  0  0  0  0
  -33.3410  -19.2578   20.8020 N   0  0  0  0  0  0  0  0  0  0  0  0
  -26.5485  -28.5001   18.2028 N   0  0  0  0  0  0  0  0  0  0  0  0
  -21.4116  -29.2250   22.6241 N   0  0  0  0  0  0  0  0  0  0  0  0
  -18.3810  -27.2587   22.7558 N   0  3  0  0  0  0  0  0  0  0  0  0
  -22.5752  -14.7634   20.7553 O   0  0  0  0  0  0  0  0  0  0  0  0
  -26.3621  -28.4896   20.5239 O   0  0  0  0  0  0  0  0  0  0  0  0
  -22.9990  -30.1858   20.4411 O   0  0  0  0  0  0  0  0  0  0  0  0
  -21.0893  -27.1032   23.5023 O   0  0  0  0  0  0  0  0  0  0  0  0
  -31.8181  -14.9857   20.1377 O   0  0  0  0  0  0  0  0  0  0  0  0
  -21.6025   -7.2473   22.5296 O   0  0  0  0  0  0  0  0  0  0  0  0
  -25.2046  -22.0679   21.4869 O   0  0  0  0  0  0  0  0  0  1  0  0
  -18.3346   -7.8887   26.9243 F   0  0  0  0  0  0  0  0  0  0  0  0
  -21.9590   -5.7089   24.7987 F   0  0  0  0  0  0  0  0  0  0  0  0
  1  2  1  0  0  0  0
  1  5  2  0  0  0  0
  2  6  2  0  0  0  0
  3  8  2  0  0  0  0
  3 17  1  0  0  0  0
  4  9  1  0  0  0  0
  4 17  2  0  0  0  0
  5 19  1  0  0  0  0
  6 21  1  0  0  0  0
  7 10  2  0  0  0  0
  7 20  1  0  0  0  0
  8 24  1  0  0  0  0
  9 24  2  0  0  0  0
 10 25  1  0  0  0  0
 11 12  2  0  0  0  0
 11 26  1  0  0  0  0
 12 27  1  0  0  0  0
 13 22  1  0  0  0  0
 13 25  2  0  0  0  0
 14 23  1  0  0  0  0
 14 30  2  0  0  0  0
 15 23  2  0  0  0  0
 15 31  1  0  0  0  0
 16 27  2  0  0  0  0
 16 28  1  0  0  0  0
 17 29  1  0  0  0  0
 18 29  1  0  0  0  0
 18 32  2  0  0  0  0
 18 33  1  0  0  0  0
 19 21  2  0  0  0  0
 19 38  1  0  0  0  0
 20 22  2  0  0  0  0
 20 39  1  0  0  0  0
 21 50  1  0  0  0  0
 22 40  1  0  0  0  0
 23 49  1  0  0  0  0
 24 83  1  0  0  0  0
 25 84  1  0  0  0  0
 26 28  2  0  0  0  0
 26 83  1  0  0  0  0
 27 85  1  0  0  0  0
 28 86  1  0  0  0  0
 29 66  2  0  0  0  0
 30 67  1  0  0  0  0
 30 73  1  0  0  0  0
 31 67  2  0  0  0  0
 31 74  1  0  0  0  0
 32 68  1  0  0  0  0
 32 71  1  0  0  0  0
 33 72  1  0  0  0  0
 33 78  2  0  0  0  0
 34 51  1  0  0  0  0
 34 75  1  0  0  0  0
 34 79  2  0  0  0  0
 35 63  1  0  0  0  0
 35 69  1  0  0  0  0
 35 80  2  0  0  0  0
 36 64  1  0  0  0  0
 36 76  1  0  0  0  0
 36 81  2  0  0  0  0
 37 70  1  0  0  0  0
 37 73  1  0  0  0  0
 37 82  2  0  0  0  0
 38 41  1  0  0  0  0
 39 51  1  0  0  0  0
 40 69  1  0  0  0  0
 41 43  1  0  0  0  0
 42 44  1  0  0  0  0
 42 47  1  0  0  0  0
 43 50  1  0  0  0  0
 44 54  1  0  0  0  0
 45 49  1  0  0  0  0
 45 52  1  0  0  0  0
 46 49  1  0  0  0  0
 46 53  1  0  0  0  0
 47 70  1  0  0  0  0
 48 54  1  0  0  0  0
 48 70  1  0  0  0  0
 50 75  1  0  0  0  0
 51 69  1  0  0  0  0
 52 53  1  0  0  0  0
 52 55  1  0  0  0  0
 53 62  1  0  0  0  0
 54 68  1  0  0  0  0
 56 64  1  0  0  0  0
 57 65  1  0  0  0  0
 58 65  1  0  0  0  0
 59 65  1  0  0  0  0
 60 74  1  0  0  0  0
 61 77  1  0  0  0  0
 62 84  1  0  0  0  0
 63 65  1  0  0  0  0
 63 76  1  0  0  0  0
 64 77  1  0  0  0  0
 66 68  1  0  0  0  0
M  CHG  1  77   1
M  ISO  4  37 100  62 101  73 100  84 101
M  END
> <Batch ID>
0147

> <Smiles>
CNc1cc(C2CC(C)C([101CH2:1][101O:1]c3ccc4c(c3)CN(C(=O)C(NC(=O)C(C)NC)C(C)(C)C)C(C(=O)NC3CCCc5ccccc53)C4)C2)cc([100NH:0][100C:0](=O)N2CCCC(n3nc(-c4ccc(Oc5ccc(F)cc5F)cc4)c(C(N)=O)c3N)C2)n1

> <Shape>
0.287

> <Color>
0.186

> <Negative vol penalty>
0.000

$$$$

  -OEChem-04052321333D

 89 99  0     1  0  0  0  0  0999 V2000
  -17.3355  -25.6528   22.2029 C   0  0  0  0  0  0  0  0  0  0  0  0
  -18.6203  -25.4424   21.7124 C   0  0  0  0  0  0  0  0  0  0  0  0
  -24.5730  -15.3292   22.9277 C   0  0  0  0  0  0  0  0  0  0  0  0
  -24.2327  -15.9611   20.6208 C   0  0  0  0  0  0  0  0  0  0  0  0
  -17.0622  -26.7793   22.9776 C   0  0  0  0  0  0  0  0  0  0  0  0
  -19.6322  -26.3592   21.9954 C   0  0  0  0  0  0  0  0  0  0  0  0
  -23.9583  -24.1144   23.3704 C   0  0  0  0  0  0  0  0  0  0  0  0
  -24.1209  -16.5834   23.3379 C   0  0  0  0  0  0  0  0  0  0  0  0
  -23.7805  -17.2152   21.0310 C   0  0  0  0  0  0  0  0  0  0  0  0
  -24.7444  -23.5710   22.3552 C   0  0  0  0  0  0  0  0  0  0  0  0
  -25.3474  -19.7259   23.5500 C   0  0  0  0  0  0  0  0  0  0  0  0
  -26.0785  -20.3864   24.5372 C   0  0  0  0  0  0  0  0  0  0  0  0
  -26.1655  -25.5191   22.4212 C   0  0  0  0  0  0  0  0  0  0  0  0
  -29.2510  -20.7431   17.9307 C   0  0  0  0  0  0  0  0  0  0  0  0
  -30.3526  -20.4382   20.0593 C   0  0  0  0  0  0  0  0  0  0  0  0
  -24.1299  -20.4087   25.9654 C   0  0  0  0  0  0  0  0  0  0  0  0
  -24.6289  -15.0181   21.5691 C   0  0  0  0  0  0  0  0  0  0  0  0
  -24.3227  -12.5645   20.9414 C   0  0  0  0  0  0  0  0  0  0  0  0
  -18.0735  -27.7053   23.2783 C   0  0  0  0  0  0  0  0  0  0  0  0
  -24.2641  -25.3712   23.9120 C   0  0  0  0  0  0  0  0  0  0  0  0
  -19.3718  -27.4998   22.7737 C   0  0  0  0  0  0  0  0  0  0  0  0
  -25.3833  -26.0751   23.4449 C   0  0  0  0  0  0  0  0  0  0  0  0
  -31.1043  -19.2052   18.1223 C   0  0  0  0  0  0  0  0  0  0  0  0
  -30.1194  -19.8195   17.3490 C   0  0  0  0  0  0  0  0  0  0  0  0
  -31.2210  -19.5145   19.4775 C   0  0  0  0  0  0  0  0  0  0  0  0
  -23.7246  -17.5264   22.3896 C   0  0  0  0  0  0  0  0  0  0  0  0
  -25.8465  -24.2747   21.8785 C   0  0  0  0  0  0  0  0  0  0  0  0
  -24.0075  -19.4068   23.7703 C   0  0  0  0  0  0  0  0  0  0  0  0
  -29.3676  -21.0525   19.2859 C   0  0  0  0  0  0  0  0  0  0  0  0
  -25.4698  -20.7278   25.7449 C   0  0  0  0  0  0  0  0  0  0  0  0
  -23.3988  -19.7481   24.9780 C   0  0  0  0  0  0  0  0  0  0  0  0
  -25.0964  -13.7229   21.1447 C   0  0  0  0  0  0  0  0  0  0  0  0
  -25.2289  -11.6113   20.5458 C   0  0  0  0  0  0  0  0  0  0  0  0
  -22.9109  -12.3678   21.0962 C   0  0  0  0  0  0  0  0  0  0  0  0
  -22.7665  -28.1705   24.0694 C   0  0  0  0  0  0  0  0  0  0  0  0
  -25.2951  -28.9775   25.9342 C   0  0  0  0  0  0  0  0  0  0  0  0
  -28.5436  -28.4118   26.8139 C   0  0  0  0  0  0  0  0  0  0  0  0
  -29.9089  -14.5000   21.0409 C   0  0  0  0  0  0  0  0  0  0  0  0
  -17.7191  -28.9326   24.0801 C   0  0  0  0  0  0  0  0  0  0  0  0
  -23.4219  -25.9315   25.0251 C   0  0  0  0  0  0  0  0  0  0  0  0
  -25.7661  -27.4190   24.0069 C   0  0  0  0  0  0  0  0  0  0  0  0
  -18.9344  -29.6614   24.6475 C   0  0  0  0  0  0  0  0  0  0  0  0
  -29.5117  -11.8064   18.3270 C   0  0  0  0  0  0  0  0  0  0  0  0
  -33.5168  -18.4384   17.6066 C   0  0  0  0  0  0  0  0  0  0  0  0
  -32.8323  -18.6290   16.2892 C   0  0  0  0  0  0  0  0  0  0  0  0
  -20.0082  -29.8229   23.5761 C   0  0  0  0  0  0  0  0  0  0  0  0
  -28.0290  -11.6713   18.6494 C   0  0  0  0  0  0  0  0  0  0  0  0
  -32.2476  -16.8296   21.8015 C   0  0  0  0  0  0  0  0  0  0  0  0
  -30.0693  -13.0895   18.9366 C   0  0  0  0  0  0  0  0  0  0  0  0
  -28.9502  -12.2133   20.9910 C   0  0  0  0  0  0  0  0  0  0  0  0
  -32.0341  -18.2148   17.4943 C   0  0  0  0  0  0  0  0  0  0  0  0
  -20.5019  -28.4586   23.0798 C   0  0  1  0  0  0  0  0  0  0  0  0
  -23.5252  -27.4487   25.1469 C   0  0  1  0  0  0  0  0  0  0  0  0
  -27.7853  -11.6217   20.1708 C   0  0  1  0  0  0  0  0  0  0  0  0
  -31.0284  -16.7092   20.9298 C   0  0  1  0  0  0  0  0  0  0  0  0
  -32.2373  -17.4650   20.4402 C   0  0  1  0  0  0  0  0  0  0  0  0
  -29.9713  -19.5076   15.8955 C   0  0  0  0  0  0  0  0  0  0  0  0
  -30.3465  -29.2564   28.3415 C   0  0  0  0  0  0  0  0  0  0  0  0
  -25.7238  -31.3763   24.0979 C   0  0  0  0  0  0  0  0  0  0  0  0
  -28.0199  -31.6188   25.0662 C   0  0  0  0  0  0  0  0  0  0  0  0
  -26.0173  -31.8615   26.5336 C   0  0  0  0  0  0  0  0  0  0  0  0
  -33.2195  -19.7095   20.9363 C   0  0  0  0  0  0  0  0  0  0  0  0
  -28.7434  -25.8085   28.2074 C   0  0  0  0  0  0  0  0  0  0  0  0
  -26.2345  -22.4678   20.3815 C   0  0  0  0  0  0  0  0  0  1  0  0
  -27.2105  -22.0536   19.2973 C   0  0  0  0  0  0  0  0  0  0  0  0
  -26.6616  -29.5687   25.6851 C   0  0  1  0  0  0  0  0  0  0  0  0
  -29.2084  -28.2623   28.1704 C   0  0  2  0  0  0  0  0  0  0  0  0
  -26.5976  -31.0819   25.3336 C   0  0  0  0  0  0  0  0  0  0  0  0
  -26.3943  -13.5258   20.8987 N   0  0  0  0  0  0  0  0  0  0  0  0
  -26.4432  -12.2324   20.5368 N   0  0  0  0  0  0  0  0  0  0  0  0
  -24.9078  -27.9275   25.0896 N   0  0  0  0  0  0  0  0  0  0  0  0
  -29.6274  -13.3238   20.3182 N   0  0  0  0  0  0  0  0  0  0  0  0
  -25.0977  -10.3109   20.2082 N   0  0  0  0  0  0  0  0  0  0  0  0
  -22.1265  -13.4530   21.5100 N   0  0  0  0  0  0  0  0  0  0  0  0
  -21.4173  -27.8739   24.0361 N   0  0  0  0  0  0  0  0  0  0  0  0
  -27.4602  -29.2631   26.8671 N   0  0  0  0  0  0  0  0  0  0  0  0
  -30.6516  -15.4514   20.3456 N   0  0  0  0  0  0  0  0  0  0  0  0
  -32.2112  -18.9040   20.2788 N   0  0  3  0  0  0  0  0  0  0  0  0
  -29.7585  -26.8864   28.3288 N   0  3  0  0  0  0  0  0  0  0  0  0
  -22.3637  -11.2580   20.8901 O   0  0  0  0  0  0  0  0  0  0  0  0
  -23.3609  -28.9407   23.3243 O   0  0  0  0  0  0  0  0  0  0  0  0
  -24.5998  -29.4259   26.8492 O   0  0  0  0  0  0  0  0  0  0  0  0
  -28.9473  -27.8343   25.8069 O   0  0  0  0  0  0  0  0  0  0  0  0
  -29.5323  -14.6863   22.2020 O   0  0  0  0  0  0  0  0  0  0  0  0
  -23.2832  -18.7502   22.7895 O   0  0  0  0  0  0  0  0  0  0  0  0
  -26.6150  -23.7469   20.8872 O   0  0  0  0  0  0  0  0  0  1  0  0
  -28.5146  -21.9597   19.8573 O   0  0  0  0  0  0  0  0  0  0  0  0
  -26.1724  -21.3608   26.6935 F   0  0  0  0  0  0  0  0  0  0  0  0
  -22.1122  -19.4431   25.1960 F   0  0  0  0  0  0  0  0  0  0  0  0
  1  2  1  0  0  0  0
  1  5  2  0  0  0  0
  2  6  2  0  0  0  0
  3  8  2  0  0  0  0
  3 17  1  0  0  0  0
  4  9  1  0  0  0  0
  4 17  2  0  0  0  0
  5 19  1  0  0  0  0
  6 21  1  0  0  0  0
  7 10  2  0  0  0  0
  7 20  1  0  0  0  0
  8 26  1  0  0  0  0
  9 26  2  0  0  0  0
 10 27  1  0  0  0  0
 11 12  2  0  0  0  0
 11 28  1  0  0  0  0
 12 30  1  0  0  0  0
 13 22  1  0  0  0  0
 13 27  2  0  0  0  0
 14 24  2  0  0  0  0
 14 29  1  0  0  0  0
 15 25  1  0  0  0  0
 15 29  2  0  0  0  0
 16 30  2  0  0  0  0
 16 31  1  0  0  0  0
 17 32  1  0  0  0  0
 18 32  1  0  0  0  0
 18 33  2  0  0  0  0
 18 34  1  0  0  0  0
 19 21  2  0  0  0  0
 19 39  1  0  0  0  0
 20 22  2  0  0  0  0
 20 40  1  0  0  0  0
 21 52  1  0  0  0  0
 22 41  1  0  0  0  0
 23 24  1  0  0  0  0
 23 25  2  0  0  0  0
 23 51  1  0  0  0  0
 24 57  1  0  0  0  0
 25 78  1  0  0  0  0
 26 85  1  0  0  0  0
 27 86  1  0  0  0  0
 28 31  2  0  0  0  0
 28 85  1  0  0  0  0
 29 87  1  0  0  0  0
 30 88  1  0  0  0  0
 31 89  1  0  0  0  0
 32 69  2  0  0  0  0
 33 70  1  0  0  0  0
 33 73  1  0  0  0  0
 34 74  1  0  0  0  0
 34 80  2  0  0  0  0
 35 53  1  0  0  0  0
 35 75  1  0  0  0  0
 35 81  2  0  0  0  0
 36 66  1  0  0  0  0
 36 71  1  0  0  0  0
 36 82  2  0  0  0  0
 37 67  1  0  0  0  0
 37 76  1  0  0  0  0
 37 83  2  0  0  0  0
 38 72  1  0  0  0  0
 38 77  1  0  0  0  0
 38 84  2  0  0  0  0
 39 42  1  0  0  0  0
 40 53  1  0  0  0  0
 41 71  1  0  0  0  0
 42 46  1  0  0  0  0
 43 47  1  0  0  0  0
 43 49  1  0  0  0  0
 44 45  1  0  0  0  0
 44 51  1  0  0  0  0
 45 51  1  0  0  0  0
 46 52  1  0  0  0  0
 47 54  1  0  0  0  0
 48 55  1  0  0  0  0
 48 56  1  0  0  0  0
 49 72  1  0  0  0  0
 50 54  1  0  0  0  0
 50 72  1  0  0  0  0
 52 75  1  0  0  0  0
 53 71  1  0  0  0  0
 54 70  1  0  0  0  0
 55 56  1  0  0  0  0
 55 77  1  0  0  0  0
 56 78  1  0  0  0  0
 58 67  1  0  0  0  0
 59 68  1  0  0  0  0
 60 68  1  0  0  0  0
 61 68  1  0  0  0  0
 62 78  1  0  0  0  0
 63 79  1  0  0  0  0
 64 65  1  0  0  0  0
 64 86  1  0  0  0  0
 65 87  1  0  0  0  0
 66 68  1  0  0  0  0
 66 76  1  0  0  0  0
 67 79  1  0  0  0  0
 69 70  1  0  0  0  0
M  CHG  1  79   1
M  ISO  4  38 100  64 101  77 100  86 101
M  END
> <Batch ID>
0147

> <Smiles>
CNC(C)C(=O)NC(C(=O)N1Cc2cc([101O:1][101CH2:1]COc3cc(C)c(C4CC4)c(N(C)C4CC4[100NH:0][100C:0](=O)N4CCCC(n5nc(-c6ccc(Oc7ccc(F)cc7F)cc6)c(C(N)=O)c5N)C4)c3)ccc2CC1C(=O)NC1CCCc2ccccc21)C(C)(C)C

> <Shape>
0.232

> <Color>
0.096

> <Negative vol penalty>
0.000

$$$$

  -OEChem-04052321333D

 85 94  0     1  0  0  0  0  0999 V2000
  -27.9247  -37.9276   21.0848 C   0  0  0  0  0  0  0  0  0  0  0  0
  -28.2203  -36.8045   20.3187 C   0  0  0  0  0  0  0  0  0  0  0  0
  -23.1792   -9.8175   21.5480 C   0  0  0  0  0  0  0  0  0  0  0  0
  -23.8452  -10.8862   23.6099 C   0  0  0  0  0  0  0  0  0  0  0  0
  -27.5828  -37.7830   22.4287 C   0  0  0  0  0  0  0  0  0  0  0  0
  -28.1751  -35.5362   20.8965 C   0  0  0  0  0  0  0  0  0  0  0  0
  -26.6326  -28.7255   19.2994 C   0  0  0  0  0  0  0  0  0  0  0  0
  -22.4848   -8.8498   22.2738 C   0  0  0  0  0  0  0  0  0  0  0  0
  -23.1507   -9.9185   24.3357 C   0  0  0  0  0  0  0  0  0  0  0  0
  -27.1844  -27.4479   19.3836 C   0  0  0  0  0  0  0  0  0  0  0  0
  -23.2109   -6.0458   24.0158 C   0  0  0  0  0  0  0  0  0  0  0  0
  -23.3670   -4.7136   23.6330 C   0  0  0  0  0  0  0  0  0  0  0  0
  -26.5040  -27.3129   21.6940 C   0  0  0  0  0  0  0  0  0  0  0  0
  -30.3739  -22.0940   20.7786 C   0  0  0  0  0  0  0  0  0  0  0  0
  -20.9932   -4.5566   23.2116 C   0  0  0  0  0  0  0  0  0  0  0  0
  -23.8595  -10.8357   22.2160 C   0  0  0  0  0  0  0  0  0  0  0  0
  -24.0786  -13.0631   20.9919 C   0  0  0  0  0  0  0  0  0  0  0  0
  -27.5241  -36.5115   23.0208 C   0  0  0  0  0  0  0  0  0  0  0  0
  -26.0210  -29.3117   20.4168 C   0  0  0  0  0  0  0  0  0  0  0  0
  -27.8334  -35.3746   22.2500 C   0  0  0  0  0  0  0  0  0  0  0  0
  -25.9430  -28.5970   21.6206 C   0  0  0  0  0  0  0  0  0  0  0  0
  -29.9268  -23.3872   20.5316 C   0  0  0  0  0  0  0  0  0  0  0  0
  -28.7771  -23.5867   19.7753 C   0  0  0  0  0  0  0  0  0  0  0  0
  -22.4705   -8.9003   23.6676 C   0  0  0  0  0  0  0  0  0  0  0  0
  -27.1228  -26.7426   20.5818 C   0  0  0  0  0  0  0  0  0  0  0  0
  -21.9459   -6.6333   23.9966 C   0  0  0  0  0  0  0  0  0  0  0  0
  -22.2581   -3.9690   23.2309 C   0  0  0  0  0  0  0  0  0  0  0  0
  -20.8371   -5.8887   23.5945 C   0  0  0  0  0  0  0  0  0  0  0  0
  -24.5775  -11.8353   21.4668 C   0  0  0  0  0  0  0  0  0  0  0  0
  -28.1162  -22.4686   19.2928 C   0  0  0  0  0  0  0  0  0  0  0  0
  -29.6414  -21.0428   20.2513 C   0  0  0  0  0  0  0  0  0  0  0  0
  -25.1454  -13.6414   20.3485 C   0  0  0  0  0  0  0  0  0  0  0  0
  -22.7680  -13.6300   21.1207 C   0  0  0  0  0  0  0  0  0  0  0  0
  -26.5718  -31.9025   22.1741 C   0  0  0  0  0  0  0  0  0  0  0  0
  -23.7786  -31.0588   23.5912 C   0  0  0  0  0  0  0  0  0  0  0  0
  -21.5335  -28.5977   24.3326 C   0  0  0  0  0  0  0  0  0  0  0  0
  -30.5591  -14.9808   20.1398 C   0  0  0  0  0  0  0  0  0  0  0  0
  -27.1956  -36.4090   24.4892 C   0  0  0  0  0  0  0  0  0  0  0  0
  -25.4069  -30.6800   20.3021 C   0  0  0  0  0  0  0  0  0  0  0  0
  -25.2793  -29.1735   22.8436 C   0  0  0  0  0  0  0  0  0  0  0  0
  -26.8058  -35.0003   24.9293 C   0  0  0  0  0  0  0  0  0  0  0  0
  -29.6394  -11.7202   19.0448 C   0  0  0  0  0  0  0  0  0  0  0  0
  -27.7859  -33.9752   24.3677 C   0  0  0  0  0  0  0  0  0  0  0  0
  -28.2023  -11.5587   19.5434 C   0  0  0  0  0  0  0  0  0  0  0  0
  -31.2074  -17.9565   21.5267 C   0  0  0  0  0  0  0  0  0  0  0  0
  -30.4954  -12.5067   20.0352 C   0  0  0  0  0  0  0  0  0  0  0  0
  -31.2933  -19.4635   21.2857 C   0  0  0  0  0  0  0  0  0  0  0  0
  -28.5052  -13.6547   20.9268 C   0  0  0  0  0  0  0  0  0  0  0  0
  -29.4283  -18.5502   20.0424 C   0  0  0  0  0  0  0  0  0  0  0  0
  -27.7712  -33.9801   22.8344 C   0  0  1  0  0  0  0  0  0  0  0  0
  -25.2632  -31.3851   21.6473 C   0  0  1  0  0  0  0  0  0  0  0  0
  -27.5891  -12.9163   19.9359 C   0  0  2  0  0  0  0  0  0  0  0  0
  -30.4672  -17.4561   20.2939 C   0  0  2  0  0  0  0  0  0  0  0  0
  -30.6949  -24.5409   21.0862 C   0  0  0  0  0  0  0  0  0  0  0  0
  -26.8761  -22.6211   18.4739 C   0  0  0  0  0  0  0  0  0  0  0  0
  -19.3669  -28.2052   25.5364 C   0  0  0  0  0  0  0  0  0  0  0  0
  -25.2468  -31.1664   26.2638 C   0  0  0  0  0  0  0  0  0  0  0  0
  -23.3550  -29.8758   27.2758 C   0  0  0  0  0  0  0  0  0  0  0  0
  -22.9411  -32.1342   26.3005 C   0  0  0  0  0  0  0  0  0  0  0  0
  -20.1784  -27.7259   21.8502 C   0  0  0  0  0  0  0  0  0  0  0  0
  -28.2739  -24.9711   19.4898 C   0  0  0  0  0  0  0  0  0  1  0  0
  -23.3941  -30.1824   24.7587 C   0  0  1  0  0  0  0  0  0  0  0  0
  -20.0218  -28.5417   24.2057 C   0  0  2  0  0  0  0  0  0  0  0  0
  -23.7485  -30.8293   26.1274 C   0  0  0  0  0  0  0  0  0  0  0  0
  -25.8614  -11.6440   21.1519 N   0  0  0  0  0  0  0  0  0  0  0  0
  -28.5201  -21.1973   19.5120 N   0  0  0  0  0  0  0  0  0  0  0  0
  -26.1782  -12.7591   20.4722 N   0  0  0  0  0  0  0  0  0  0  0  0
  -30.0965  -19.7661   20.5033 N   0  0  3  0  0  0  0  0  0  0  0  0
  -24.6992  -30.5171   22.6830 N   0  0  0  0  0  0  0  0  0  0  0  0
  -29.8587  -13.7842   20.3647 N   0  0  0  0  0  0  0  0  0  0  0  0
  -25.2915  -14.8134   19.6948 N   0  0  0  0  0  0  0  0  0  0  0  0
  -21.7903  -12.9024   21.8128 N   0  0  0  0  0  0  0  0  0  0  0  0
  -26.6095  -33.2741   22.3378 N   0  0  0  0  0  0  0  0  0  0  0  0
  -21.9773  -29.8774   24.5910 N   0  0  0  0  0  0  0  0  0  0  0  0
  -29.8808  -16.1466   20.4736 N   0  0  0  0  0  0  0  0  0  0  0  0
  -19.6235  -27.5063   23.2107 N   0  3  0  0  0  0  0  0  0  0  0  0
  -22.4682  -14.7415   20.6224 O   0  0  0  0  0  0  0  0  0  0  0  0
  -27.4795  -31.1155   22.4156 O   0  0  0  0  0  0  0  0  0  0  0  0
  -23.2750  -32.1799   23.4850 O   0  0  0  0  0  0  0  0  0  0  0  0
  -22.2488  -27.6049   24.2179 O   0  0  0  0  0  0  0  0  0  0  0  0
  -31.7021  -15.0084   19.6711 O   0  0  0  0  0  0  0  0  0  0  0  0
  -21.7927   -7.9563   24.3762 O   0  0  0  0  0  0  0  0  0  0  0  0
  -27.6611  -25.4957   20.6669 O   0  0  0  0  0  0  0  0  0  1  0  0
  -22.4084   -2.6902   22.8618 F   0  0  0  0  0  0  0  0  0  0  0  0
  -19.6195   -6.4481   23.5729 F   0  0  0  0  0  0  0  0  0  0  0  0
  1  2  1  0  0  0  0
  1  5  2  0  0  0  0
  2  6  2  0  0  0  0
  3  8  2  0  0  0  0
  3 16  1  0  0  0  0
  4  9  1  0  0  0  0
  4 16  2  0  0  0  0
  5 18  1  0  0  0  0
  6 20  1  0  0  0  0
  7 10  2  0  0  0  0
  7 19  1  0  0  0  0
  8 24  1  0  0  0  0
  9 24  2  0  0  0  0
 10 25  1  0  0  0  0
 11 12  2  0  0  0  0
 11 26  1  0  0  0  0
 12 27  1  0  0  0  0
 13 21  1  0  0  0  0
 13 25  2  0  0  0  0
 14 22  2  0  0  0  0
 14 31  1  0  0  0  0
 15 27  2  0  0  0  0
 15 28  1  0  0  0  0
 16 29  1  0  0  0  0
 17 29  1  0  0  0  0
 17 32  2  0  0  0  0
 17 33  1  0  0  0  0
 18 20  2  0  0  0  0
 18 38  1  0  0  0  0
 19 21  2  0  0  0  0
 19 39  1  0  0  0  0
 20 50  1  0  0  0  0
 21 40  1  0  0  0  0
 22 23  1  0  0  0  0
 22 54  1  0  0  0  0
 23 30  2  0  0  0  0
 23 61  1  0  0  0  0
 24 82  1  0  0  0  0
 25 83  1  0  0  0  0
 26 28  2  0  0  0  0
 26 82  1  0  0  0  0
 27 84  1  0  0  0  0
 28 85  1  0  0  0  0
 29 65  2  0  0  0  0
 30 55  1  0  0  0  0
 30 66  1  0  0  0  0
 31 66  2  0  0  0  0
 31 68  1  0  0  0  0
 32 67  1  0  0  0  0
 32 71  1  0  0  0  0
 33 72  1  0  0  0  0
 33 77  2  0  0  0  0
 34 51  1  0  0  0  0
 34 73  1  0  0  0  0
 34 78  2  0  0  0  0
 35 62  1  0  0  0  0
 35 69  1  0  0  0  0
 35 79  2  0  0  0  0
 36 63  1  0  0  0  0
 36 74  1  0  0  0  0
 36 80  2  0  0  0  0
 37 70  1  0  0  0  0
 37 75  1  0  0  0  0
 37 81  2  0  0  0  0
 38 41  1  0  0  0  0
 39 51  1  0  0  0  0
 40 69  1  0  0  0  0
 41 43  1  0  0  0  0
 42 44  1  0  0  0  0
 42 46  1  0  0  0  0
 43 50  1  0  0  0  0
 44 52  1  0  0  0  0
 45 47  1  0  0  0  0
 45 53  1  0  0  0  0
 46 70  1  0  0  0  0
 47 68  1  0  0  0  0
 48 52  1  0  0  0  0
 48 70  1  0  0  0  0
 49 53  1  0  0  0  0
 49 68  1  0  0  0  0
 50 73  1  0  0  0  0
 51 69  1  0  0  0  0
 52 67  1  0  0  0  0
 53 75  1  0  0  0  0
 56 63  1  0  0  0  0
 57 64  1  0  0  0  0
 58 64  1  0  0  0  0
 59 64  1  0  0  0  0
 60 76  1  0  0  0  0
 61 83  1  0  0  0  0
 62 64  1  0  0  0  0
 62 74  1  0  0  0  0
 63 76  1  0  0  0  0
 65 67  1  0  0  0  0
M  CHG  1  76   1
M  ISO  4  37 100  61 101  75 100  83 101
M  END
> <Batch ID>
0147

> <Smiles>
CNC(C)C(=O)NC(C(=O)N1Cc2cc([101O:1][101CH2:1]c3c(C)cc(N4CCC([100NH:0][100C:0](=O)N5CCCC(n6nc(-c7ccc(Oc8ccc(F)cc8F)cc7)c(C(N)=O)c6N)C5)C4)nc3C)ccc2CC1C(=O)NC1CCCc2ccccc21)C(C)(C)C

> <Shape>
0.358

> <Color>
0.198

> <Negative vol penalty>
0.000

$$$$

  -OEChem-04052321333D

 86 95  0     1  0  0  0  0  0999 V2000
  -36.5604  -15.4679   24.3751 C   0  0  0  0  0  0  0  0  0  0  0  0
  -35.8922  -16.4410   23.6390 C   0  0  0  0  0  0  0  0  0  0  0  0
  -18.3580  -25.2285   20.2526 C   0  0  0  0  0  0  0  0  0  0  0  0
  -17.9545  -24.3736   22.4760 C   0  0  0  0  0  0  0  0  0  0  0  0
  -36.2101  -14.1257   24.2340 C   0  0  0  0  0  0  0  0  0  0  0  0
  -34.8740  -16.0725   22.7605 C   0  0  0  0  0  0  0  0  0  0  0  0
  -30.8068  -19.0662   23.1350 C   0  0  0  0  0  0  0  0  0  0  0  0
  -17.8369  -24.0554   19.7070 C   0  0  0  0  0  0  0  0  0  0  0  0
  -17.4333  -23.2005   21.9304 C   0  0  0  0  0  0  0  0  0  0  0  0
  -30.8764  -20.3150   22.5189 C   0  0  0  0  0  0  0  0  0  0  0  0
  -18.6224  -20.3462   20.5628 C   0  0  0  0  0  0  0  0  0  0  0  0
  -19.0326  -19.1347   21.1191 C   0  0  0  0  0  0  0  0  0  0  0  0
  -29.6142  -19.4570   20.6508 C   0  0  0  0  0  0  0  0  0  0  0  0
  -16.7410  -18.6181   21.6839 C   0  0  0  0  0  0  0  0  0  0  0  0
  -18.4168  -25.3876   21.6372 C   0  0  0  0  0  0  0  0  0  0  0  0
  -18.2498  -27.7733   22.5251 C   0  0  0  0  0  0  0  0  0  0  0  0
  -35.1806  -13.7415   23.3605 C   0  0  0  0  0  0  0  0  0  0  0  0
  -30.1485  -17.9987   22.5076 C   0  0  0  0  0  0  0  0  0  0  0  0
  -34.5105  -14.7238   22.6066 C   0  0  0  0  0  0  0  0  0  0  0  0
  -29.5353  -18.1964   21.2622 C   0  0  0  0  0  0  0  0  0  0  0  0
  -17.3745  -23.0414   20.5458 C   0  0  0  0  0  0  0  0  0  0  0  0
  -30.2826  -20.5098   21.2753 C   0  0  0  0  0  0  0  0  0  0  0  0
  -17.2715  -20.6938   20.5671 C   0  0  0  0  0  0  0  0  0  0  0  0
  -18.0919  -18.2706   21.6796 C   0  0  0  0  0  0  0  0  0  0  0  0
  -16.3308  -19.8297   21.1276 C   0  0  0  0  0  0  0  0  0  0  0  0
  -18.9556  -26.5990   22.2015 C   0  0  0  0  0  0  0  0  0  0  0  0
  -19.2066  -28.6220   23.0260 C   0  0  0  0  0  0  0  0  0  0  0  0
  -16.8541  -28.0704   22.3856 C   0  0  0  0  0  0  0  0  0  0  0  0
  -31.0278  -15.1357   21.4429 C   0  0  0  0  0  0  0  0  0  0  0  0
  -27.8452  -14.7821   20.9247 C   0  0  0  0  0  0  0  0  0  0  0  0
  -24.8168  -16.2584   20.3805 C   0  0  0  0  0  0  0  0  0  0  0  0
  -25.0781  -29.0553   22.2749 C   0  0  0  0  0  0  0  0  0  0  0  0
  -34.8693  -12.2738   23.2064 C   0  0  0  0  0  0  0  0  0  0  0  0
  -30.0592  -16.6652   23.1975 C   0  0  0  0  0  0  0  0  0  0  0  0
  -28.7992  -17.0884   20.5559 C   0  0  0  0  0  0  0  0  0  0  0  0
  -33.5261  -12.0034   22.5335 C   0  0  0  0  0  0  0  0  0  0  0  0
  -23.3948  -28.6269   25.3133 C   0  0  0  0  0  0  0  0  0  0  0  0
  -33.3645  -12.8774   21.2938 C   0  0  0  0  0  0  0  0  0  0  0  0
  -22.0020  -28.1531   24.9039 C   0  0  0  0  0  0  0  0  0  0  0  0
  -27.0747  -25.1030   20.8255 C   0  0  0  0  0  0  0  0  0  0  0  0
  -24.4627  -28.0004   24.4260 C   0  0  0  0  0  0  0  0  0  0  0  0
  -26.1674  -29.5509   20.1139 C   0  0  0  0  0  0  0  0  0  0  0  0
  -24.8008  -27.5089   20.2779 C   0  0  0  0  0  0  0  0  0  0  0  0
  -22.8737  -27.8215   22.5337 C   0  0  0  0  0  0  0  0  0  0  0  0
  -27.6938  -24.2559   19.7205 C   0  0  0  0  0  0  0  0  0  0  0  0
  -27.4705  -28.7958   19.8733 C   0  0  0  0  0  0  0  0  0  0  0  0
  -25.8263  -26.9727   19.2791 C   0  0  0  0  0  0  0  0  0  0  0  0
  -29.8217  -25.5845   19.8784 C   0  0  0  0  0  0  0  0  0  0  0  0
  -33.3837  -14.3659   21.6619 C   0  0  1  0  0  0  0  0  0  0  0  0
  -29.8063  -15.5097   22.2339 C   0  0  1  0  0  0  0  0  0  0  0  0
  -29.2166  -26.4443   20.9933 C   0  0  2  0  0  0  0  0  0  0  0  0
  -21.7521  -28.4167   23.4097 C   0  0  1  0  0  0  0  0  0  0  0  0
  -27.6803  -26.5050   20.9157 C   0  0  1  0  0  0  0  0  0  0  0  0
  -31.3511  -27.7357   21.1503 C   0  0  0  0  0  0  0  0  0  0  0  0
  -22.4053  -15.7089   19.9559 C   0  0  0  0  0  0  0  0  0  0  0  0
  -28.5237  -14.0417   18.0435 C   0  0  0  0  0  0  0  0  0  0  0  0
  -26.1234  -14.4357   17.4505 C   0  0  0  0  0  0  0  0  0  0  0  0
  -26.7258  -12.6483   19.0829 C   0  0  0  0  0  0  0  0  0  0  0  0
  -23.9462  -17.6481   22.8441 C   0  0  0  0  0  0  0  0  0  0  0  0
  -29.8687  -27.8288   21.0053 C   0  0  0  0  0  0  0  0  0  0  0  0
  -29.8413  -23.2872   18.9074 C   0  0  0  0  0  0  0  0  0  0  0  0
  -29.7202  -21.8582   19.3987 C   0  0  0  0  0  0  0  0  0  1  0  0
  -26.9104  -15.0728   19.7756 C   0  0  1  0  0  0  0  0  0  0  0  0
  -23.4551  -16.0255   21.0097 C   0  0  2  0  0  0  0  0  0  0  0  0
  -27.0863  -14.0702   18.6003 C   0  0  0  0  0  0  0  0  0  0  0  0
  -20.2601  -26.6899   22.4737 N   0  0  0  0  0  0  0  0  0  0  0  0
  -20.3816  -27.9314   22.9736 N   0  0  0  0  0  0  0  0  0  0  0  0
  -28.7449  -15.8011   21.2682 N   0  0  0  0  0  0  0  0  0  0  0  0
  -24.1965  -28.2501   23.0090 N   0  0  0  0  0  0  0  0  0  0  0  0
  -25.2352  -28.7622   20.9102 N   0  0  0  0  0  0  0  0  0  0  0  0
  -19.1490  -29.8841   23.5016 N   0  0  0  0  0  0  0  0  0  0  0  0
  -16.0113  -27.0852   21.8530 N   0  0  0  0  0  0  0  0  0  0  0  0
  -32.1092  -14.7652   22.2192 N   0  0  0  0  0  0  0  0  0  0  0  0
  -25.5656  -15.1012   20.3405 N   0  0  0  0  0  0  0  0  0  0  0  0
  -27.2313  -27.3042   19.7205 N   0  3  0  0  0  0  0  0  0  0  0  0
  -29.1915  -24.2108   19.9014 N   0  3  2  0  0  0  0  0  0  0  0  0
  -23.0174  -17.2364   21.7602 N   0  3  0  0  0  0  0  0  0  0  0  0
  -16.3715  -29.1825   22.7078 O   0  0  0  0  0  0  0  0  0  0  0  0
  -30.9913  -15.1785   20.2187 O   0  0  0  0  0  0  0  0  0  0  0  0
  -27.7748  -13.6937   21.5011 O   0  0  0  0  0  0  0  0  0  0  0  0
  -25.1786  -17.3561   19.9625 O   0  0  0  0  0  0  0  0  0  0  0  0
  -25.7146  -29.9692   22.8153 O   0  0  0  0  0  0  0  0  0  0  0  0
  -16.8657  -21.8966   20.0137 O   0  0  0  0  0  0  0  0  0  0  0  0
  -30.3501  -21.7362   20.6671 O   0  0  0  0  0  0  0  0  0  1  0  0
  -18.4858  -17.1065   22.2125 F   0  0  0  0  0  0  0  0  0  0  0  0
  -15.0315  -20.1576   21.1336 F   0  0  0  0  0  0  0  0  0  0  0  0
  1  2  1  0  0  0  0
  1  5  2  0  0  0  0
  2  6  2  0  0  0  0
  3  8  2  0  0  0  0
  3 15  1  0  0  0  0
  4  9  1  0  0  0  0
  4 15  2  0  0  0  0
  5 17  1  0  0  0  0
  6 19  1  0  0  0  0
  7 10  2  0  0  0  0
  7 18  1  0  0  0  0
  8 21  1  0  0  0  0
  9 21  2  0  0  0  0
 10 22  1  0  0  0  0
 11 12  2  0  0  0  0
 11 23  1  0  0  0  0
 12 24  1  0  0  0  0
 13 20  1  0  0  0  0
 13 22  2  0  0  0  0
 14 24  2  0  0  0  0
 14 25  1  0  0  0  0
 15 26  1  0  0  0  0
 16 26  1  0  0  0  0
 16 27  2  0  0  0  0
 16 28  1  0  0  0  0
 17 19  2  0  0  0  0
 17 33  1  0  0  0  0
 18 20  2  0  0  0  0
 18 34  1  0  0  0  0
 19 49  1  0  0  0  0
 20 35  1  0  0  0  0
 21 83  1  0  0  0  0
 22 84  1  0  0  0  0
 23 25  2  0  0  0  0
 23 83  1  0  0  0  0
 24 85  1  0  0  0  0
 25 86  1  0  0  0  0
 26 66  2  0  0  0  0
 27 67  1  0  0  0  0
 27 71  1  0  0  0  0
 28 72  1  0  0  0  0
 28 78  2  0  0  0  0
 29 50  1  0  0  0  0
 29 73  1  0  0  0  0
 29 79  2  0  0  0  0
 30 63  1  0  0  0  0
 30 68  1  0  0  0  0
 30 80  2  0  0  0  0
 31 64  1  0  0  0  0
 31 74  1  0  0  0  0
 31 81  2  0  0  0  0
 32 69  1  0  0  0  0
 32 70  1  0  0  0  0
 32 82  2  0  0  0  0
 33 36  1  0  0  0  0
 34 50  1  0  0  0  0
 35 68  1  0  0  0  0
 36 38  1  0  0  0  0
 37 39  1  0  0  0  0
 37 41  1  0  0  0  0
 38 49  1  0  0  0  0
 39 52  1  0  0  0  0
 40 45  1  0  0  0  0
 40 53  1  0  0  0  0
 41 69  1  0  0  0  0
 42 46  1  0  0  0  0
 42 70  1  0  0  0  0
 43 47  1  0  0  0  0
 43 70  1  0  0  0  0
 44 52  1  0  0  0  0
 44 69  1  0  0  0  0
 45 76  1  0  0  0  0
 46 75  1  0  0  0  0
 47 75  1  0  0  0  0
 48 51  1  0  0  0  0
 48 76  1  0  0  0  0
 49 73  1  0  0  0  0
 50 68  1  0  0  0  0
 51 53  1  0  0  0  0
 51 60  1  0  0  0  0
 52 67  1  0  0  0  0
 53 75  1  0  0  0  0
 54 60  1  0  0  0  0
 55 64  1  0  0  0  0
 56 65  1  0  0  0  0
 57 65  1  0  0  0  0
 58 65  1  0  0  0  0
 59 77  1  0  0  0  0
 61 62  1  0  0  0  0
 61 76  1  0  0  0  0
 62 84  1  0  0  0  0
 63 65  1  0  0  0  0
 63 74  1  0  0  0  0
 64 77  1  0  0  0  0
 66 67  1  0  0  0  0
M  CHG  3  75   1  76   1  77   1
M  ISO  4  32 100  62 101  70 100  84 101
M  END
> <Batch ID>
0147

> <Smiles>
CCC1CN(C[101CH2:1][101O:1]c2ccc3c(c2)CN(C(=O)C(NC(=O)C(C)NC)C(C)(C)C)C(C(=O)NC2CCCc4ccccc42)C3)CCC1N1CC[100N:0]([100C:0](=O)N2CCCC(n3nc(-c4ccc(Oc5ccc(F)cc5F)cc4)c(C(N)=O)c3N)C2)CC1

> <Shape>
0.243

> <Color>
0.061

> <Negative vol penalty>
0.000

$$$$

  -OEChem-04052321333D

 86 95  0     1  0  0  0  0  0999 V2000
  -20.8630  -26.3838   25.8848 C   0  0  0  0  0  0  0  0  0  0  0  0
  -21.9529  -26.1342   25.0570 C   0  0  0  0  0  0  0  0  0  0  0  0
  -24.4169   -9.4714   22.0353 C   0  0  0  0  0  0  0  0  0  0  0  0
  -23.8874   -9.0364   19.7186 C   0  0  0  0  0  0  0  0  0  0  0  0
  -19.6516  -26.7997   25.3341 C   0  0  0  0  0  0  0  0  0  0  0  0
  -21.8315  -26.2992   23.6777 C   0  0  0  0  0  0  0  0  0  0  0  0
  -25.7753  -28.7531   21.6603 C   0  0  0  0  0  0  0  0  0  0  0  0
  -23.2466   -8.8203   22.4251 C   0  0  0  0  0  0  0  0  0  0  0  0
  -22.7170   -8.3853   20.1083 C   0  0  0  0  0  0  0  0  0  0  0  0
  -26.9463  -28.0226   21.4626 C   0  0  0  0  0  0  0  0  0  0  0  0
  -22.1747   -5.6355   22.8008 C   0  0  0  0  0  0  0  0  0  0  0  0
  -22.2574   -4.7324   23.8606 C   0  0  0  0  0  0  0  0  0  0  0  0
  -26.3856  -27.7666   19.1304 C   0  0  0  0  0  0  0  0  0  0  0  0
  -29.4818  -24.6844   19.9776 C   0  0  0  0  0  0  0  0  0  0  0  0
  -20.6633   -6.0509   25.1086 C   0  0  0  0  0  0  0  0  0  0  0  0
  -24.7373   -9.5795   20.6820 C   0  0  0  0  0  0  0  0  0  0  0  0
  -27.2181   -9.6781   20.0956 C   0  0  0  0  0  0  0  0  0  0  0  0
  -19.5181  -26.9792   23.9482 C   0  0  0  0  0  0  0  0  0  0  0  0
  -24.8938  -28.9869   20.5950 C   0  0  0  0  0  0  0  0  0  0  0  0
  -20.6167  -26.7166   23.1077 C   0  0  0  0  0  0  0  0  0  0  0  0
  -25.2054  -28.5025   19.3166 C   0  0  0  0  0  0  0  0  0  0  0  0
  -22.3966   -8.2772   21.4616 C   0  0  0  0  0  0  0  0  0  0  0  0
  -27.2502  -27.5268   20.1981 C   0  0  0  0  0  0  0  0  0  0  0  0
  -21.3363   -6.7464   22.8949 C   0  0  0  0  0  0  0  0  0  0  0  0
  -29.3852  -23.3086   20.1546 C   0  0  0  0  0  0  0  0  0  0  0  0
  -28.1662  -22.7431   20.5118 C   0  0  0  0  0  0  0  0  0  0  0  0
  -21.5017   -4.9401   25.0145 C   0  0  0  0  0  0  0  0  0  0  0  0
  -20.5805   -6.9540   24.0488 C   0  0  0  0  0  0  0  0  0  0  0  0
  -25.9459  -10.2524   20.2787 C   0  0  0  0  0  0  0  0  0  0  0  0
  -27.0825  -23.5901   20.6788 C   0  0  0  0  0  0  0  0  0  0  0  0
  -28.3392  -25.4446   20.1685 C   0  0  0  0  0  0  0  0  0  1  0  0
  -28.0173  -10.7282   19.7149 C   0  0  0  0  0  0  0  0  0  0  0  0
  -27.6396   -8.3170   20.2552 C   0  0  0  0  0  0  0  0  0  0  0  0
  -21.8714  -28.2222   19.9754 C   0  0  0  0  0  0  0  0  0  0  0  0
  -22.3284  -30.1258   17.3889 C   0  0  0  0  0  0  0  0  0  0  0  0
  -24.5135  -31.5333   15.1773 C   0  0  0  0  0  0  0  0  0  0  0  0
  -27.8883  -16.4243   20.6769 C   0  0  0  0  0  0  0  0  0  0  0  0
  -18.1750  -27.3846   23.3947 C   0  0  0  0  0  0  0  0  0  0  0  0
  -23.6481  -29.7995   20.8190 C   0  0  0  0  0  0  0  0  0  0  0  0
  -24.3024  -28.7433   18.1355 C   0  0  0  0  0  0  0  0  0  0  0  0
  -18.2376  -27.8966   21.9580 C   0  0  0  0  0  0  0  0  0  0  0  0
  -27.8537  -14.9542   17.4895 C   0  0  0  0  0  0  0  0  0  0  0  0
  -19.0874  -26.9677   21.0968 C   0  0  0  0  0  0  0  0  0  0  0  0
  -27.4811  -13.5103   17.8254 C   0  0  0  0  0  0  0  0  0  0  0  0
  -29.5361  -19.6525   19.8953 C   0  0  0  0  0  0  0  0  0  0  0  0
  -27.1167  -19.7621   19.1579 C   0  0  0  0  0  0  0  0  0  0  0  0
  -27.0621  -15.9599   18.3272 C   0  0  0  0  0  0  0  0  0  0  0  0
  -29.1655  -18.5266   20.8594 C   0  0  0  0  0  0  0  0  0  0  0  0
  -26.8010  -18.6371   20.1409 C   0  0  0  0  0  0  0  0  0  0  0  0
  -26.7748  -14.2824   20.1217 C   0  0  0  0  0  0  0  0  0  0  0  0
  -20.5316  -26.9081   21.6090 C   0  0  1  0  0  0  0  0  0  0  0  0
  -22.5682  -29.5381   19.7736 C   0  0  1  0  0  0  0  0  0  0  0  0
  -27.5963  -13.2473   19.3375 C   0  0  1  0  0  0  0  0  0  0  0  0
  -28.3523  -20.5640   19.5700 C   0  0  0  0  0  0  0  0  0  0  0  0
  -25.7502  -23.0345   21.0622 C   0  0  0  0  0  0  0  0  0  0  0  0
  -24.5868  -33.0107   13.1502 C   0  0  0  0  0  0  0  0  0  0  0  0
  -21.3557  -27.8041   15.6646 C   0  0  0  0  0  0  0  0  0  0  0  0
  -22.3330  -28.9649   13.6732 C   0  0  0  0  0  0  0  0  0  0  0  0
  -20.4992  -30.0490   14.9710 C   0  0  0  0  0  0  0  0  0  0  0  0
  -26.1508  -33.5648   16.5741 C   0  0  0  0  0  0  0  0  0  0  0  0
  -31.6971  -23.1909   19.6095 C   0  0  0  0  0  0  0  0  0  0  0  0
  -22.8150  -29.9111   15.9761 C   0  0  1  0  0  0  0  0  0  0  0  0
  -24.6551  -32.9565   14.6685 C   0  0  2  0  0  0  0  0  0  0  0  0
  -21.7670  -29.1759   15.0937 C   0  0  0  0  0  0  0  0  0  0  0  0
  -25.9330  -11.5655   20.0346 N   0  0  0  0  0  0  0  0  0  0  0  0
  -27.1378  -24.9311   20.5157 N   0  0  0  0  0  0  0  0  0  0  0  0
  -27.2069  -11.8250   19.6943 N   0  0  0  0  0  0  0  0  0  0  0  0
  -23.0931  -29.5380   18.4066 N   0  0  0  0  0  0  0  0  0  0  0  0
  -27.1700  -15.6447   19.7579 N   0  0  0  0  0  0  0  0  0  0  0  0
  -27.9788  -17.8006   20.4082 N   0  0  0  0  0  0  0  0  0  0  0  0
  -29.3272  -10.8112   19.3992 N   0  0  0  0  0  0  0  0  0  0  0  0
  -26.6900   -7.3655   20.6517 N   0  0  0  0  0  0  0  0  0  0  0  0
  -21.2595  -28.0928   21.2075 N   0  0  0  0  0  0  0  0  0  0  0  0
  -23.2027  -31.2248   15.4738 N   0  0  0  0  0  0  0  0  0  0  0  0
  -25.9589  -33.5341   15.1013 N   0  3  0  0  0  0  0  0  0  0  0  0
  -28.8270   -7.9583   20.0682 O   0  0  0  0  0  0  0  0  0  0  0  0
  -21.8865  -27.3868   19.0789 O   0  0  0  0  0  0  0  0  0  0  0  0
  -21.3115  -30.7965   17.5830 O   0  0  0  0  0  0  0  0  0  0  0  0
  -25.4696  -30.7702   15.2961 O   0  0  0  0  0  0  0  0  0  0  0  0
  -28.4203  -15.9235   21.6755 O   0  0  0  0  0  0  0  0  0  0  0  0
  -21.2546   -7.6416   21.8416 O   0  0  0  0  0  0  0  0  0  0  0  0
  -28.4087  -26.8026   19.9997 O   0  0  0  0  0  0  0  0  0  1  0  0
  -28.0480  -21.3901   20.6918 O   0  0  0  0  0  0  0  0  0  0  0  0
  -30.4874  -22.5292   19.9752 O   0  0  0  0  0  0  0  0  0  0  0  0
  -21.5801   -4.0719   26.0315 F   0  0  0  0  0  0  0  0  0  0  0  0
  -19.7724   -8.0187   24.1446 F   0  0  0  0  0  0  0  0  0  0  0  0
  1  2  1  0  0  0  0
  1  5  2  0  0  0  0
  2  6  2  0  0  0  0
  3  8  2  0  0  0  0
  3 16  1  0  0  0  0
  4  9  1  0  0  0  0
  4 16  2  0  0  0  0
  5 18  1  0  0  0  0
  6 20  1  0  0  0  0
  7 10  2  0  0  0  0
  7 19  1  0  0  0  0
  8 22  1  0  0  0  0
  9 22  2  0  0  0  0
 10 23  1  0  0  0  0
 11 12  2  0  0  0  0
 11 24  1  0  0  0  0
 12 27  1  0  0  0  0
 13 21  1  0  0  0  0
 13 23  2  0  0  0  0
 14 25  2  0  0  0  0
 14 31  1  0  0  0  0
 15 27  2  0  0  0  0
 15 28  1  0  0  0  0
 16 29  1  0  0  0  0
 17 29  1  0  0  0  0
 17 32  2  0  0  0  0
 17 33  1  0  0  0  0
 18 20  2  0  0  0  0
 18 38  1  0  0  0  0
 19 21  2  0  0  0  0
 19 39  1  0  0  0  0
 20 51  1  0  0  0  0
 21 40  1  0  0  0  0
 22 81  1  0  0  0  0
 23 82  1  0  0  0  0
 24 28  2  0  0  0  0
 24 81  1  0  0  0  0
 25 26  1  0  0  0  0
 25 84  1  0  0  0  0
 26 30  2  0  0  0  0
 26 83  1  0  0  0  0
 27 85  1  0  0  0  0
 28 86  1  0  0  0  0
 29 65  2  0  0  0  0
 30 55  1  0  0  0  0
 30 66  1  0  0  0  0
 31 66  2  0  0  0  0
 31 82  1  0  0  0  0
 32 67  1  0  0  0  0
 32 71  1  0  0  0  0
 33 72  1  0  0  0  0
 33 76  2  0  0  0  0
 34 52  1  0  0  0  0
 34 73  1  0  0  0  0
 34 77  2  0  0  0  0
 35 62  1  0  0  0  0
 35 68  1  0  0  0  0
 35 78  2  0  0  0  0
 36 63  1  0  0  0  0
 36 74  1  0  0  0  0
 36 79  2  0  0  0  0
 37 69  1  0  0  0  0
 37 70  1  0  0  0  0
 37 80  2  0  0  0  0
 38 41  1  0  0  0  0
 39 52  1  0  0  0  0
 40 68  1  0  0  0  0
 41 43  1  0  0  0  0
 42 44  1  0  0  0  0
 42 47  1  0  0  0  0
 43 51  1  0  0  0  0
 44 53  1  0  0  0  0
 45 48  1  0  0  0  0
 45 54  1  0  0  0  0
 46 49  1  0  0  0  0
 46 54  1  0  0  0  0
 47 69  1  0  0  0  0
 48 70  1  0  0  0  0
 49 70  1  0  0  0  0
 50 53  1  0  0  0  0
 50 69  1  0  0  0  0
 51 73  1  0  0  0  0
 52 68  1  0  0  0  0
 53 67  1  0  0  0  0
 54 83  1  0  0  0  0
 56 63  1  0  0  0  0
 57 64  1  0  0  0  0
 58 64  1  0  0  0  0
 59 64  1  0  0  0  0
 60 75  1  0  0  0  0
 61 84  1  0  0  0  0
 62 64  1  0  0  0  0
 62 74  1  0  0  0  0
 63 75  1  0  0  0  0
 65 67  1  0  0  0  0
M  CHG  1  75   1
M  ISO  4  31 101  37 100  70 100  82 101
M  END
> <Batch ID>
0147

> <Smiles>
CNC(C)C(=O)NC(C(=O)N1Cc2cc([101O:1][101c:1]3cc(OC)c(OC4CC[100N:0]([100C:0](=O)N5CCCC(n6nc(-c7ccc(Oc8ccc(F)cc8F)cc7)c(C(N)=O)c6N)C5)CC4)c(C)n3)ccc2CC1C(=O)NC1CCCc2ccccc21)C(C)(C)C

> <Shape>
0.267

> <Color>
0.104

> <Negative vol penalty>
0.000

$$$$

  -OEChem-04052321333D

 87 96  0     1  0  0  0  0  0999 V2000
  -30.3016  -29.9546   20.2737 C   0  0  0  0  0  0  0  0  0  0  0  0
  -30.2317  -28.5829   20.0529 C   0  0  0  0  0  0  0  0  0  0  0  0
  -23.2871   -9.7989   19.9159 C   0  0  0  0  0  0  0  0  0  0  0  0
  -23.7362   -9.9441   22.2854 C   0  0  0  0  0  0  0  0  0  0  0  0
  -29.7897  -30.4969   21.4518 C   0  0  0  0  0  0  0  0  0  0  0  0
  -29.6507  -27.7523   21.0106 C   0  0  0  0  0  0  0  0  0  0  0  0
  -26.3817  -22.6760   19.9857 C   0  0  0  0  0  0  0  0  0  0  0  0
  -22.5601   -8.6271   20.1255 C   0  0  0  0  0  0  0  0  0  0  0  0
  -23.0091   -8.7723   22.4950 C   0  0  0  0  0  0  0  0  0  0  0  0
  -26.7163  -21.3229   20.0155 C   0  0  0  0  0  0  0  0  0  0  0  0
  -19.4774   -7.7703   21.2190 C   0  0  0  0  0  0  0  0  0  0  0  0
  -18.2488   -7.6450   20.5706 C   0  0  0  0  0  0  0  0  0  0  0  0
  -25.8954  -21.1760   22.2791 C   0  0  0  0  0  0  0  0  0  0  0  0
  -19.0503   -5.6695   19.4338 C   0  0  0  0  0  0  0  0  0  0  0  0
  -23.8752  -10.4574   20.9959 C   0  0  0  0  0  0  0  0  0  0  0  0
  -24.1359  -12.9868   20.7923 C   0  0  0  0  0  0  0  0  0  0  0  0
  -29.1935  -29.6737   22.4201 C   0  0  0  0  0  0  0  0  0  0  0  0
  -25.8105  -23.2929   21.1080 C   0  0  0  0  0  0  0  0  0  0  0  0
  -29.1316  -28.2839   22.2033 C   0  0  0  0  0  0  0  0  0  0  0  0
  -25.5521  -22.5365   22.2601 C   0  0  0  0  0  0  0  0  0  0  0  0
  -22.4210   -8.1138   21.4150 C   0  0  0  0  0  0  0  0  0  0  0  0
  -26.4758  -20.5734   21.1633 C   0  0  0  0  0  0  0  0  0  0  0  0
  -20.4925   -6.8453   20.9748 C   0  0  0  0  0  0  0  0  0  0  0  0
  -18.0353   -6.5946   19.6780 C   0  0  0  0  0  0  0  0  0  0  0  0
  -20.2789   -5.7949   20.0822 C   0  0  0  0  0  0  0  0  0  0  0  0
  -24.6269  -11.6675   20.7799 C   0  0  0  0  0  0  0  0  0  0  0  0
  -25.2379  -13.7657   20.5366 C   0  0  0  0  0  0  0  0  0  0  0  0
  -22.8029  -13.4655   21.0151 C   0  0  0  0  0  0  0  0  0  0  0  0
  -26.6702  -25.6604   23.0469 C   0  0  0  0  0  0  0  0  0  0  0  0
  -23.7033  -25.2082   24.2780 C   0  0  0  0  0  0  0  0  0  0  0  0
  -21.0555  -23.1097   24.7600 C   0  0  0  0  0  0  0  0  0  0  0  0
  -31.1079  -12.9218   21.3625 C   0  0  0  0  0  0  0  0  0  0  0  0
  -28.6967  -30.3000   23.6990 C   0  0  0  0  0  0  0  0  0  0  0  0
  -25.4307  -24.7471   21.0505 C   0  0  0  0  0  0  0  0  0  0  0  0
  -24.9221  -23.1466   23.4845 C   0  0  0  0  0  0  0  0  0  0  0  0
  -27.7602  -29.3958   24.4963 C   0  0  0  0  0  0  0  0  0  0  0  0
  -29.4617  -13.6557   18.2919 C   0  0  0  0  0  0  0  0  0  0  0  0
  -28.3354  -27.9865   24.5957 C   0  0  0  0  0  0  0  0  0  0  0  0
  -27.9916  -13.3484   18.5825 C   0  0  0  0  0  0  0  0  0  0  0  0
  -29.5767  -17.8584   22.0051 C   0  0  0  0  0  0  0  0  0  0  0  0
  -30.9872  -15.5891   23.6711 C   0  0  0  0  0  0  0  0  0  0  0  0
  -30.3940  -12.6773   19.0030 C   0  0  0  0  0  0  0  0  0  0  0  0
  -28.7058  -12.2522   20.7475 C   0  0  0  0  0  0  0  0  0  0  0  0
  -28.4866  -27.3532   23.2073 C   0  0  1  0  0  0  0  0  0  0  0  0
  -25.3270  -25.3925   22.4290 C   0  0  1  0  0  0  0  0  0  0  0  0
  -29.1458  -17.2610   23.3189 C   0  0  2  0  0  0  0  0  0  0  0  0
  -29.4744  -15.8441   23.6404 C   0  0  2  0  0  0  0  0  0  0  0  0
  -28.1194  -17.5778   22.2622 C   0  0  1  0  0  0  0  0  0  0  0  0
  -31.1896  -14.3518   24.5633 C   0  0  1  0  0  0  0  0  0  0  0  0
  -29.0388  -15.4037   25.0487 C   0  0  2  0  0  0  0  0  0  0  0  0
  -29.8241  -14.0947   25.2438 C   0  0  2  0  0  0  0  0  0  0  0  0
  -27.7288  -13.2465   20.0970 C   0  0  2  0  0  0  0  0  0  0  0  0
  -29.9720  -13.6929   26.7066 C   0  0  0  0  0  0  0  0  0  0  0  0
  -32.3261  -10.6873   23.9381 C   0  0  0  0  0  0  0  0  0  0  0  0
  -18.7903  -23.0113   25.8355 C   0  0  0  0  0  0  0  0  0  0  0  0
  -26.8356  -16.5549   25.4007 C   0  0  0  0  0  0  0  0  0  0  0  0
  -26.9678  -14.5162   23.9415 C   0  0  0  0  0  0  0  0  0  0  0  0
  -25.0186  -24.9303   27.0172 C   0  0  0  0  0  0  0  0  0  0  0  0
  -22.8912  -23.9128   27.8582 C   0  0  0  0  0  0  0  0  0  0  0  0
  -22.8991  -26.2578   27.0075 C   0  0  0  0  0  0  0  0  0  0  0  0
  -19.7187  -22.6060   22.1680 C   0  0  0  0  0  0  0  0  0  0  0  0
  -27.1637  -18.7034   22.4618 C   0  0  0  0  0  0  0  0  0  1  0  0
  -31.8484  -11.9241   24.6881 C   0  0  0  0  0  0  0  0  0  0  0  0
  -23.1190  -24.3444   25.3696 C   0  0  1  0  0  0  0  0  0  0  0  0
  -19.5638  -23.3079   24.5601 C   0  0  2  0  0  0  0  0  0  0  0  0
  -27.5316  -15.2131   25.1786 C   0  0  0  0  0  0  0  0  0  0  0  0
  -31.6680  -13.1402   23.7703 C   0  0  1  0  0  0  0  0  0  0  0  0
  -23.4957  -24.8500   26.7909 C   0  0  0  0  0  0  0  0  0  0  0  0
  -25.9386  -11.6078   20.5355 N   0  0  0  0  0  0  0  0  0  0  0  0
  -26.2813  -12.8993   20.3919 N   0  0  0  0  0  0  0  0  0  0  0  0
  -24.5745  -24.5735   23.3814 N   0  0  0  0  0  0  0  0  0  0  0  0
  -30.0936  -12.6289   20.4359 N   0  0  0  0  0  0  0  0  0  0  0  0
  -25.4065  -15.1003   20.4235 N   0  0  0  0  0  0  0  0  0  0  0  0
  -21.7897  -12.5296   21.2637 N   0  0  0  0  0  0  0  0  0  0  0  0
  -27.2044  -26.8921   22.7197 N   0  0  0  0  0  0  0  0  0  0  0  0
  -21.6833  -24.2841   25.1179 N   0  0  0  0  0  0  0  0  0  0  0  0
  -30.7372  -12.8591   22.7001 N   0  0  0  0  0  0  0  0  0  0  0  0
  -19.0609  -22.4066   23.4851 N   0  3  0  0  0  0  0  0  0  0  0  0
  -22.5156  -14.6860   20.9781 O   0  0  0  0  0  0  0  0  0  0  0  0
  -27.1831  -24.8131   23.7684 O   0  0  0  0  0  0  0  0  0  0  0  0
  -23.3924  -26.4004   24.2187 O   0  0  0  0  0  0  0  0  0  0  0  0
  -21.6079  -22.0212   24.6168 O   0  0  0  0  0  0  0  0  0  0  0  0
  -32.2573  -13.2223   21.0226 O   0  0  0  0  0  0  0  0  0  0  0  0
  -21.7114   -6.9706   21.6199 O   0  0  0  0  0  0  0  0  0  0  0  0
  -26.8021  -19.2526   21.1953 O   0  0  0  0  0  0  0  0  0  1  0  0
  -16.8549   -6.4735   19.0565 F   0  0  0  0  0  0  0  0  0  0  0  0
  -21.2499   -4.9024   19.8444 F   0  0  0  0  0  0  0  0  0  0  0  0
  1  2  1  0  0  0  0
  1  5  2  0  0  0  0
  2  6  2  0  0  0  0
  3  8  2  0  0  0  0
  3 15  1  0  0  0  0
  4  9  1  0  0  0  0
  4 15  2  0  0  0  0
  5 17  1  0  0  0  0
  6 19  1  0  0  0  0
  7 10  2  0  0  0  0
  7 18  1  0  0  0  0
  8 21  1  0  0  0  0
  9 21  2  0  0  0  0
 10 22  1  0  0  0  0
 11 12  2  0  0  0  0
 11 23  1  0  0  0  0
 12 24  1  0  0  0  0
 13 20  1  0  0  0  0
 13 22  2  0  0  0  0
 14 24  2  0  0  0  0
 14 25  1  0  0  0  0
 15 26  1  0  0  0  0
 16 26  1  0  0  0  0
 16 27  2  0  0  0  0
 16 28  1  0  0  0  0
 17 19  2  0  0  0  0
 17 33  1  0  0  0  0
 18 20  2  0  0  0  0
 18 34  1  0  0  0  0
 19 44  1  0  0  0  0
 20 35  1  0  0  0  0
 21 84  1  0  0  0  0
 22 85  1  0  0  0  0
 23 25  2  0  0  0  0
 23 84  1  0  0  0  0
 24 86  1  0  0  0  0
 25 87  1  0  0  0  0
 26 69  2  0  0  0  0
 27 70  1  0  0  0  0
 27 73  1  0  0  0  0
 28 74  1  0  0  0  0
 28 79  2  0  0  0  0
 29 45  1  0  0  0  0
 29 75  1  0  0  0  0
 29 80  2  0  0  0  0
 30 64  1  0  0  0  0
 30 71  1  0  0  0  0
 30 81  2  0  0  0  0
 31 65  1  0  0  0  0
 31 76  1  0  0  0  0
 31 82  2  0  0  0  0
 32 72  1  0  0  0  0
 32 77  1  0  0  0  0
 32 83  2  0  0  0  0
 33 36  1  0  0  0  0
 34 45  1  0  0  0  0
 35 71  1  0  0  0  0
 36 38  1  0  0  0  0
 37 39  1  0  0  0  0
 37 42  1  0  0  0  0
 38 44  1  0  0  0  0
 39 52  1  0  0  0  0
 40 46  1  0  0  0  0
 40 48  1  0  0  0  0
 41 47  1  0  0  0  0
 41 49  1  0  0  0  0
 42 72  1  0  0  0  0
 43 52  1  0  0  0  0
 43 72  1  0  0  0  0
 44 75  1  0  0  0  0
 45 71  1  0  0  0  0
 46 47  1  0  0  0  0
 46 48  1  0  0  0  0
 47 50  1  0  0  0  0
 48 62  1  0  0  0  0
 49 51  1  0  0  0  0
 49 67  1  0  0  0  0
 50 51  1  0  0  0  0
 50 66  1  0  0  0  0
 51 53  1  0  0  0  0
 52 70  1  0  0  0  0
 54 63  1  0  0  0  0
 55 65  1  0  0  0  0
 56 66  1  0  0  0  0
 57 66  1  0  0  0  0
 58 68  1  0  0  0  0
 59 68  1  0  0  0  0
 60 68  1  0  0  0  0
 61 78  1  0  0  0  0
 62 85  1  0  0  0  0
 63 67  1  0  0  0  0
 64 68  1  0  0  0  0
 64 76  1  0  0  0  0
 65 78  1  0  0  0  0
 67 77  1  0  0  0  0
 69 70  1  0  0  0  0
M  CHG  1  78   1
M  ISO  4  32 100  62 101  77 100  85 101
M  END
> <Batch ID>
0147

> <Smiles>
CCC([100NH:0][100C:0](=O)N1CCCC(n2nc(-c3ccc(Oc4ccc(F)cc4F)cc3)c(C(N)=O)c2N)C1)C1CC(C2CC2[101CH2:1][101O:1]c2ccc3c(c2)CN(C(=O)C(NC(=O)C(C)NC)C(C)(C)C)C(C(=O)NC2CCCc4ccccc42)C3)C(C(C)C)C1C

> <Shape>
0.163

> <Color>
0.174

> <Negative vol penalty>
0.000

$$$$

  -OEChem-04052321333D

 85 94  0     1  0  0  0  0  0999 V2000
  -22.1756  -11.0427   19.2015 C   0  0  0  0  0  0  0  0  0  0  0  0
  -21.7574  -12.3343   19.5055 C   0  0  0  0  0  0  0  0  0  0  0  0
  -29.5832  -26.4530   18.4811 C   0  0  0  0  0  0  0  0  0  0  0  0
  -29.3797  -26.2446   20.8795 C   0  0  0  0  0  0  0  0  0  0  0  0
  -23.4666  -10.6332   19.5325 C   0  0  0  0  0  0  0  0  0  0  0  0
  -22.6297  -13.2168   20.1415 C   0  0  0  0  0  0  0  0  0  0  0  0
  -22.9926  -19.2736   19.3109 C   0  0  0  0  0  0  0  0  0  0  0  0
  -30.8976  -25.9916   18.5525 C   0  0  0  0  0  0  0  0  0  0  0  0
  -30.6941  -25.7832   20.9509 C   0  0  0  0  0  0  0  0  0  0  0  0
  -22.4766  -20.3514   20.0291 C   0  0  0  0  0  0  0  0  0  0  0  0
  -34.1125  -24.8923   21.8059 C   0  0  0  0  0  0  0  0  0  0  0  0
  -34.9322  -25.4217   22.8025 C   0  0  0  0  0  0  0  0  0  0  0  0
  -24.5753  -20.5692   21.1984 C   0  0  0  0  0  0  0  0  0  0  0  0
  -21.5586  -25.5402   24.9592 C   0  0  0  0  0  0  0  0  0  0  0  0
  -34.6264  -27.6333   21.8792 C   0  0  0  0  0  0  0  0  0  0  0  0
  -22.0321  -27.7626   23.4485 C   0  0  0  0  0  0  0  0  0  0  0  0
  -28.8243  -26.5795   19.6447 C   0  0  0  0  0  0  0  0  0  0  0  0
  -26.3975  -26.4736   18.8653 C   0  0  0  0  0  0  0  0  0  0  0  0
  -24.3584  -11.5143   20.1643 C   0  0  0  0  0  0  0  0  0  0  0  0
  -24.3024  -18.8278   19.5392 C   0  0  0  0  0  0  0  0  0  0  0  0
  -23.9335  -12.8183   20.4825 C   0  0  0  0  0  0  0  0  0  0  0  0
  -25.1064  -19.4871   20.4800 C   0  0  0  0  0  0  0  0  0  0  0  0
  -21.6206  -26.7843   25.5769 C   0  0  0  0  0  0  0  0  0  0  0  0
  -21.8614  -27.9217   24.8143 C   0  0  0  0  0  0  0  0  0  0  0  0
  -31.4530  -25.6567   19.7874 C   0  0  0  0  0  0  0  0  0  0  0  0
  -23.2670  -20.9976   20.9751 C   0  0  0  0  0  0  0  0  0  0  0  0
  -33.5498  -25.7333   20.8458 C   0  0  0  0  0  0  0  0  0  0  0  0
  -35.1892  -26.7922   22.8392 C   0  0  0  0  0  0  0  0  0  0  0  0
  -33.8067  -27.1038   20.8825 C   0  0  0  0  0  0  0  0  0  0  0  0
  -27.4666  -27.0566   19.5716 C   0  0  0  0  0  0  0  0  0  0  0  0
  -21.7427  -25.4877   23.5869 C   0  0  0  0  0  0  0  0  0  0  0  0
  -25.3298  -27.3010   19.1141 C   0  0  0  0  0  0  0  0  0  0  0  0
  -26.3718  -25.2898   18.0567 C   0  0  0  0  0  0  0  0  0  0  0  0
  -25.6015  -16.1143   20.5654 C   0  0  0  0  0  0  0  0  0  0  0  0
  -28.3784  -17.6183   19.8242 C   0  0  0  0  0  0  0  0  0  0  0  0
  -30.0421  -20.5594   19.3458 C   0  0  0  0  0  0  0  0  0  0  0  0
  -24.0474  -31.0699   23.5863 C   0  0  0  0  0  0  0  0  0  0  0  0
  -25.7283  -11.0113   20.5450 C   0  0  0  0  0  0  0  0  0  0  0  0
  -24.8531  -17.6807   18.7372 C   0  0  0  0  0  0  0  0  0  0  0  0
  -26.5257  -19.0603   20.7481 C   0  0  0  0  0  0  0  0  0  0  0  0
  -26.7151  -12.1265   20.8807 C   0  0  0  0  0  0  0  0  0  0  0  0
  -24.2798  -31.8586   20.1221 C   0  0  0  0  0  0  0  0  0  0  0  0
  -22.6341  -26.8735   27.9515 C   0  0  0  0  0  0  0  0  0  0  0  0
  -21.7363  -25.6767   27.9089 C   0  0  0  0  0  0  0  0  0  0  0  0
  -26.0704  -13.1470   21.8133 C   0  0  0  0  0  0  0  0  0  0  0  0
  -25.0264  -30.6647   19.5245 C   0  0  0  0  0  0  0  0  0  0  0  0
  -24.7961  -32.2066   21.5166 C   0  0  0  0  0  0  0  0  0  0  0  0
  -25.5533  -29.8886   21.8737 C   0  0  0  0  0  0  0  0  0  0  0  0
  -21.4254  -26.8763   27.0535 C   0  0  0  0  0  0  0  0  0  0  0  0
  -24.8588  -13.8126   21.1497 C   0  0  1  0  0  0  0  0  0  0  0  0
  -26.0281  -16.9854   19.4179 C   0  0  1  0  0  0  0  0  0  0  0  0
  -25.0300  -29.4648   20.4907 C   0  0  2  0  0  0  0  0  0  0  0  0
  -32.3126  -21.4696   18.7857 C   0  0  0  0  0  0  0  0  0  0  0  0
  -29.3194  -17.0107   22.6624 C   0  0  0  0  0  0  0  0  0  0  0  0
  -31.1235  -18.7192   22.3554 C   0  0  0  0  0  0  0  0  0  0  0  0
  -31.0618  -16.6970   20.8960 C   0  0  0  0  0  0  0  0  0  0  0  0
  -29.0399  -21.8644   16.8858 C   0  0  0  0  0  0  0  0  0  0  0  0
  -21.9357  -29.2794   25.4224 C   0  0  0  0  0  0  0  0  0  0  0  0
  -23.3690  -29.7952   25.6047 C   0  0  0  0  0  0  0  0  0  0  0  0
  -21.7795  -22.8523   21.0304 C   0  0  0  0  0  0  0  0  0  1  0  0
  -21.8823  -24.2747   21.5461 C   0  0  0  0  0  0  0  0  0  0  0  0
  -29.3383  -18.5171   20.5657 C   0  0  1  0  0  0  0  0  0  0  0  0
  -30.9667  -21.0245   18.2352 C   0  0  2  0  0  0  0  0  0  0  0  0
  -30.1834  -17.7430   21.6164 C   0  0  0  0  0  0  0  0  0  0  0  0
  -21.9787  -26.5707   22.8129 N   0  0  0  0  0  0  0  0  0  0  0  0
  -27.1106  -28.1686   20.2203 N   0  0  0  0  0  0  0  0  0  0  0  0
  -25.8058  -28.2909   19.9225 N   0  0  0  0  0  0  0  0  0  0  0  0
  -27.0165  -17.9296   19.9430 N   0  0  0  0  0  0  0  0  0  0  0  0
  -24.7720  -31.0262   22.3838 N   0  0  0  0  0  0  0  0  0  0  0  0
  -24.0396  -27.2710   18.7179 N   0  0  0  0  0  0  0  0  0  0  0  0
  -26.0707  -24.0670   18.6718 N   0  0  0  0  0  0  0  0  0  0  0  0
  -25.2903  -14.8179   20.2023 N   0  0  0  0  0  0  0  0  0  0  0  0
  -30.1297  -19.1980   19.5466 N   0  0  0  0  0  0  0  0  0  0  0  0
  -24.0716  -29.9066   24.3459 N   0  0  0  0  0  0  0  0  0  0  0  0
  -30.3580  -22.1688   17.4997 N   0  3  0  0  0  0  0  0  0  0  0  0
  -26.6250  -25.3133   16.8284 O   0  0  0  0  0  0  0  0  0  0  0  0
  -25.5593  -16.5832   21.6968 O   0  0  0  0  0  0  0  0  0  0  0  0
  -28.8211  -16.6790   19.1583 O   0  0  0  0  0  0  0  0  0  0  0  0
  -29.3176  -21.3274   19.9748 O   0  0  0  0  0  0  0  0  0  0  0  0
  -23.4206  -32.0697   23.9532 O   0  0  0  0  0  0  0  0  0  0  0  0
  -32.7355  -25.2062   19.8574 O   0  0  0  0  0  0  0  0  0  0  0  0
  -22.7656  -22.0495   21.6779 O   0  0  0  0  0  0  0  0  0  1  0  0
  -21.6868  -24.2733   22.9550 O   0  0  0  0  0  0  0  0  0  0  0  0
  -35.9751  -27.3007   23.7972 F   0  0  0  0  0  0  0  0  0  0  0  0
  -33.2680  -27.9169   19.9636 F   0  0  0  0  0  0  0  0  0  0  0  0
  1  2  1  0  0  0  0
  1  5  2  0  0  0  0
  2  6  2  0  0  0  0
  3  8  2  0  0  0  0
  3 17  1  0  0  0  0
  4  9  1  0  0  0  0
  4 17  2  0  0  0  0
  5 19  1  0  0  0  0
  6 21  1  0  0  0  0
  7 10  2  0  0  0  0
  7 20  1  0  0  0  0
  8 25  1  0  0  0  0
  9 25  2  0  0  0  0
 10 26  1  0  0  0  0
 11 12  2  0  0  0  0
 11 27  1  0  0  0  0
 12 28  1  0  0  0  0
 13 22  1  0  0  0  0
 13 26  2  0  0  0  0
 14 23  2  0  0  0  0
 14 31  1  0  0  0  0
 15 28  2  0  0  0  0
 15 29  1  0  0  0  0
 16 24  2  0  0  0  0
 16 65  1  0  0  0  0
 17 30  1  0  0  0  0
 18 30  1  0  0  0  0
 18 32  2  0  0  0  0
 18 33  1  0  0  0  0
 19 21  2  0  0  0  0
 19 38  1  0  0  0  0
 20 22  2  0  0  0  0
 20 39  1  0  0  0  0
 21 50  1  0  0  0  0
 22 40  1  0  0  0  0
 23 24  1  0  0  0  0
 23 49  1  0  0  0  0
 24 58  1  0  0  0  0
 25 81  1  0  0  0  0
 26 82  1  0  0  0  0
 27 29  2  0  0  0  0
 27 81  1  0  0  0  0
 28 84  1  0  0  0  0
 29 85  1  0  0  0  0
 30 66  2  0  0  0  0
 31 65  2  0  0  0  0
 31 83  1  0  0  0  0
 32 67  1  0  0  0  0
 32 70  1  0  0  0  0
 33 71  1  0  0  0  0
 33 76  2  0  0  0  0
 34 51  1  0  0  0  0
 34 72  1  0  0  0  0
 34 77  2  0  0  0  0
 35 62  1  0  0  0  0
 35 68  1  0  0  0  0
 35 78  2  0  0  0  0
 36 63  1  0  0  0  0
 36 73  1  0  0  0  0
 36 79  2  0  0  0  0
 37 69  1  0  0  0  0
 37 74  1  0  0  0  0
 37 80  2  0  0  0  0
 38 41  1  0  0  0  0
 39 51  1  0  0  0  0
 40 68  1  0  0  0  0
 41 45  1  0  0  0  0
 42 46  1  0  0  0  0
 42 47  1  0  0  0  0
 43 44  1  0  0  0  0
 43 49  1  0  0  0  0
 44 49  1  0  0  0  0
 45 50  1  0  0  0  0
 46 52  1  0  0  0  0
 47 69  1  0  0  0  0
 48 52  1  0  0  0  0
 48 69  1  0  0  0  0
 50 72  1  0  0  0  0
 51 68  1  0  0  0  0
 52 67  1  0  0  0  0
 53 63  1  0  0  0  0
 54 64  1  0  0  0  0
 55 64  1  0  0  0  0
 56 64  1  0  0  0  0
 57 75  1  0  0  0  0
 58 59  1  0  0  0  0
 59 74  1  0  0  0  0
 60 61  1  0  0  0  0
 60 82  1  0  0  0  0
 61 83  1  0  0  0  0
 62 64  1  0  0  0  0
 62 73  1  0  0  0  0
 63 75  1  0  0  0  0
 66 67  1  0  0  0  0
M  CHG  1  75   1
M  ISO  4  37 100  60 101  74 100  82 101
M  END
> <Batch ID>
0147

> <Smiles>
CNC(C)C(=O)NC(C(=O)N1Cc2cc([101O:1][101CH2:1]COc3cc(C4CC4)c(CC[100NH:0][100C:0](=O)N4CCCC(n5nc(-c6ccc(Oc7ccc(F)cc7F)cc6)c(C(N)=O)c5N)C4)cn3)ccc2CC1C(=O)NC1CCCc2ccccc21)C(C)(C)C

> <Shape>
0.224

> <Color>
0.080

> <Negative vol penalty>
0.000

$$$$

  -OEChem-04052321333D

 89 98  0     1  0  0  0  0  0999 V2000
  -20.1202  -32.8052   15.3213 C   0  0  0  0  0  0  0  0  0  0  0  0
  -21.0064  -31.7437   15.4739 C   0  0  0  0  0  0  0  0  0  0  0  0
  -23.2053  -10.9115   21.6539 C   0  0  0  0  0  0  0  0  0  0  0  0
  -24.3519   -9.0025   20.7169 C   0  0  0  0  0  0  0  0  0  0  0  0
  -20.3303  -33.9931   16.0203 C   0  0  0  0  0  0  0  0  0  0  0  0
  -22.1039  -31.8699   16.3248 C   0  0  0  0  0  0  0  0  0  0  0  0
  -24.6159  -27.4736   19.7698 C   0  0  0  0  0  0  0  0  0  0  0  0
  -21.9783  -10.2959   21.4067 C   0  0  0  0  0  0  0  0  0  0  0  0
  -23.1249   -8.3869   20.4697 C   0  0  0  0  0  0  0  0  0  0  0  0
  -25.7289  -26.6554   19.5815 C   0  0  0  0  0  0  0  0  0  0  0  0
  -20.3060   -6.1573   19.9213 C   0  0  0  0  0  0  0  0  0  0  0  0
  -20.1767   -4.8095   20.2562 C   0  0  0  0  0  0  0  0  0  0  0  0
  -27.0663  -28.1856   20.8811 C   0  0  0  0  0  0  0  0  0  0  0  0
  -20.6628   -5.3361   22.5635 C   0  0  0  0  0  0  0  0  0  0  0  0
  -24.3921  -10.2648   21.3090 C   0  0  0  0  0  0  0  0  0  0  0  0
  -26.4431  -10.7987   22.7288 C   0  0  0  0  0  0  0  0  0  0  0  0
  -21.4256  -34.1306   16.8876 C   0  0  0  0  0  0  0  0  0  0  0  0
  -24.7225  -28.6616   20.5072 C   0  0  0  0  0  0  0  0  0  0  0  0
  -22.3296  -33.0612   17.0350 C   0  0  0  0  0  0  0  0  0  0  0  0
  -25.9526  -29.0159   21.0794 C   0  0  0  0  0  0  0  0  0  0  0  0
  -30.1797  -24.7170   18.2943 C   0  0  0  0  0  0  0  0  0  0  0  0
  -29.1481  -24.2705   19.1202 C   0  0  0  0  0  0  0  0  0  0  0  0
  -29.3176  -23.1174   19.8865 C   0  0  0  0  0  0  0  0  0  0  0  0
  -31.3809  -24.0103   18.2347 C   0  0  0  0  0  0  0  0  0  0  0  0
  -30.5188  -22.4107   19.8270 C   0  0  0  0  0  0  0  0  0  0  0  0
  -21.9381   -9.0336   20.8147 C   0  0  0  0  0  0  0  0  0  0  0  0
  -26.9550  -27.0128   20.1347 C   0  0  0  0  0  0  0  0  0  0  0  0
  -20.6138   -7.0946   20.9075 C   0  0  0  0  0  0  0  0  0  0  0  0
  -31.5504  -22.8572   19.0011 C   0  0  0  0  0  0  0  0  0  0  0  0
  -20.3551   -4.3989   21.5773 C   0  0  0  0  0  0  0  0  0  0  0  0
  -20.7922   -6.6840   22.2285 C   0  0  0  0  0  0  0  0  0  0  0  0
  -25.6599  -10.9005   21.5635 C   0  0  0  0  0  0  0  0  0  0  0  0
  -27.5417  -11.5826   22.4738 C   0  0  0  0  0  0  0  0  0  0  0  0
  -26.1995  -10.0613   23.9341 C   0  0  0  0  0  0  0  0  0  0  0  0
  -24.3136  -31.7469   19.8615 C   0  0  0  0  0  0  0  0  0  0  0  0
  -24.7878  -32.0778   23.0533 C   0  0  0  0  0  0  0  0  0  0  0  0
  -26.1115  -30.8107   25.9324 C   0  0  0  0  0  0  0  0  0  0  0  0
  -29.9091  -16.0618   20.7024 C   0  0  0  0  0  0  0  0  0  0  0  0
  -21.6376  -35.4506   17.5856 C   0  0  0  0  0  0  0  0  0  0  0  0
  -23.5063  -29.5197   20.7238 C   0  0  0  0  0  0  0  0  0  0  0  0
  -26.1150  -30.2706   21.8966 C   0  0  0  0  0  0  0  0  0  0  0  0
  -22.6162  -35.3712   18.7545 C   0  0  0  0  0  0  0  0  0  0  0  0
  -29.1475  -13.7284   18.1917 C   0  0  0  0  0  0  0  0  0  0  0  0
  -23.8657  -34.5940   18.3528 C   0  0  0  0  0  0  0  0  0  0  0  0
  -28.2266  -12.7659   18.9412 C   0  0  0  0  0  0  0  0  0  0  0  0
  -29.6725  -19.3537   19.4793 C   0  0  0  0  0  0  0  0  0  0  0  0
  -31.6038  -19.0607   21.0768 C   0  0  0  0  0  0  0  0  0  0  0  0
  -28.8740  -15.1876   18.5606 C   0  0  0  0  0  0  0  0  0  0  0  0
  -29.8904  -17.9222   18.9804 C   0  0  0  0  0  0  0  0  0  0  0  0
  -31.8007  -17.6502   20.5283 C   0  0  0  0  0  0  0  0  0  0  0  0
  -27.9928  -14.4937   20.7653 C   0  0  0  0  0  0  0  0  0  0  0  0
  -23.5179  -33.1510   17.9677 C   0  0  1  0  0  0  0  0  0  0  0  0
  -23.8489  -30.9679   21.0593 C   0  0  1  0  0  0  0  0  0  0  0  0
  -28.2833  -13.0163   20.4588 C   0  0  1  0  0  0  0  0  0  0  0  0
  -30.9682  -19.9650   20.0176 C   0  0  0  0  0  0  0  0  0  0  0  0
  -29.9987  -25.9532   17.4715 C   0  0  0  0  0  0  0  0  0  0  0  0
  -28.2085  -22.6408   20.7716 C   0  0  0  0  0  0  0  0  0  0  0  0
  -32.4913  -24.4844   17.3512 C   0  0  0  0  0  0  0  0  0  0  0  0
  -26.3707  -31.3254   28.3748 C   0  0  0  0  0  0  0  0  0  0  0  0
  -26.9718  -34.1034   22.3922 C   0  0  0  0  0  0  0  0  0  0  0  0
  -27.8104  -33.8606   24.7387 C   0  0  0  0  0  0  0  0  0  0  0  0
  -25.5120  -34.7358   24.3218 C   0  0  0  0  0  0  0  0  0  0  0  0
  -24.6052  -28.3884   26.7215 C   0  0  0  0  0  0  0  0  0  0  0  0
  -33.7436  -22.5431   19.8655 C   0  0  0  0  0  0  0  0  0  0  0  0
  -27.8601  -25.0297   19.1837 C   0  0  0  0  0  0  0  0  0  1  0  0
  -25.9926  -32.2833   23.9395 C   0  0  1  0  0  0  0  0  0  0  0  0
  -25.5213  -30.6337   27.3198 C   0  0  2  0  0  0  0  0  0  0  0  0
  -26.5694  -33.7231   23.8311 C   0  0  0  0  0  0  0  0  0  0  0  0
  -26.2138  -11.6873   20.6371 N   0  0  0  0  0  0  0  0  0  0  0  0
  -27.3567  -12.0870   21.2202 N   0  0  0  0  0  0  0  0  0  0  0  0
  -24.8981  -31.0798   22.0747 N   0  0  0  0  0  0  0  0  0  0  0  0
  -28.8988  -15.3691   20.0187 N   0  0  0  0  0  0  0  0  0  0  0  0
  -30.5445  -17.1051   20.0125 N   0  0  0  0  0  0  0  0  0  0  0  0
  -28.6381  -11.8829   23.2018 N   0  0  0  0  0  0  0  0  0  0  0  0
  -25.0216   -9.3078   24.0298 N   0  0  0  0  0  0  0  0  0  0  0  0
  -30.6914  -21.2663   20.5851 N   0  0  0  0  0  0  0  0  0  0  0  0
  -23.2929  -32.3518   19.1531 N   0  0  0  0  0  0  0  0  0  0  0  0
  -25.5778  -31.9057   25.2863 N   0  0  0  0  0  0  0  0  0  0  0  0
  -25.4313  -29.1864   27.6637 N   0  3  0  0  0  0  0  0  0  0  0  0
  -26.9946  -10.0834   24.9040 O   0  0  0  0  0  0  0  0  0  0  0  0
  -25.5098  -31.7969   19.6002 O   0  0  0  0  0  0  0  0  0  0  0  0
  -23.7833  -32.7722   23.2278 O   0  0  0  0  0  0  0  0  0  0  0  0
  -26.9635  -30.0554   25.4697 O   0  0  0  0  0  0  0  0  0  0  0  0
  -30.2250  -15.7659   21.8616 O   0  0  0  0  0  0  0  0  0  0  0  0
  -20.7410   -8.4325   20.5735 O   0  0  0  0  0  0  0  0  0  0  0  0
  -32.7267  -22.1676   18.9404 O   0  0  0  0  0  0  0  0  0  0  0  0
  -28.0512  -26.2103   19.9505 O   0  0  0  0  0  0  0  0  0  1  0  0
  -20.2294   -3.1047   21.8990 F   0  0  0  0  0  0  0  0  0  0  0  0
  -21.0868   -7.5800   23.1805 F   0  0  0  0  0  0  0  0  0  0  0  0
  1  2  1  0  0  0  0
  1  5  2  0  0  0  0
  2  6  2  0  0  0  0
  3  8  2  0  0  0  0
  3 15  1  0  0  0  0
  4  9  1  0  0  0  0
  4 15  2  0  0  0  0
  5 17  1  0  0  0  0
  6 19  1  0  0  0  0
  7 10  2  0  0  0  0
  7 18  1  0  0  0  0
  8 26  1  0  0  0  0
  9 26  2  0  0  0  0
 10 27  1  0  0  0  0
 11 12  2  0  0  0  0
 11 28  1  0  0  0  0
 12 30  1  0  0  0  0
 13 20  1  0  0  0  0
 13 27  2  0  0  0  0
 14 30  2  0  0  0  0
 14 31  1  0  0  0  0
 15 32  1  0  0  0  0
 16 32  1  0  0  0  0
 16 33  2  0  0  0  0
 16 34  1  0  0  0  0
 17 19  2  0  0  0  0
 17 39  1  0  0  0  0
 18 20  2  0  0  0  0
 18 40  1  0  0  0  0
 19 52  1  0  0  0  0
 20 41  1  0  0  0  0
 21 22  1  0  0  0  0
 21 24  2  0  0  0  0
 21 56  1  0  0  0  0
 22 23  2  0  0  0  0
 22 65  1  0  0  0  0
 23 25  1  0  0  0  0
 23 57  1  0  0  0  0
 24 29  1  0  0  0  0
 24 58  1  0  0  0  0
 25 29  2  0  0  0  0
 25 76  1  0  0  0  0
 26 85  1  0  0  0  0
 27 87  1  0  0  0  0
 28 31  2  0  0  0  0
 28 85  1  0  0  0  0
 29 86  1  0  0  0  0
 30 88  1  0  0  0  0
 31 89  1  0  0  0  0
 32 69  2  0  0  0  0
 33 70  1  0  0  0  0
 33 74  1  0  0  0  0
 34 75  1  0  0  0  0
 34 80  2  0  0  0  0
 35 53  1  0  0  0  0
 35 77  1  0  0  0  0
 35 81  2  0  0  0  0
 36 66  1  0  0  0  0
 36 71  1  0  0  0  0
 36 82  2  0  0  0  0
 37 67  1  0  0  0  0
 37 78  1  0  0  0  0
 37 83  2  0  0  0  0
 38 72  1  0  0  0  0
 38 73  1  0  0  0  0
 38 84  2  0  0  0  0
 39 42  1  0  0  0  0
 40 53  1  0  0  0  0
 41 71  1  0  0  0  0
 42 44  1  0  0  0  0
 43 45  1  0  0  0  0
 43 48  1  0  0  0  0
 44 52  1  0  0  0  0
 45 54  1  0  0  0  0
 46 49  1  0  0  0  0
 46 55  1  0  0  0  0
 47 50  1  0  0  0  0
 47 55  1  0  0  0  0
 48 72  1  0  0  0  0
 49 73  1  0  0  0  0
 50 73  1  0  0  0  0
 51 54  1  0  0  0  0
 51 72  1  0  0  0  0
 52 77  1  0  0  0  0
 53 71  1  0  0  0  0
 54 70  1  0  0  0  0
 55 76  1  0  0  0  0
 59 67  1  0  0  0  0
 60 68  1  0  0  0  0
 61 68  1  0  0  0  0
 62 68  1  0  0  0  0
 63 79  1  0  0  0  0
 64 86  1  0  0  0  0
 65 87  1  0  0  0  0
 66 68  1  0  0  0  0
 66 78  1  0  0  0  0
 67 79  1  0  0  0  0
 69 70  1  0  0  0  0
M  CHG  1  79   1
M  ISO  4  38 100  65 101  73 100  87 101
M  END
> <Batch ID>
0147

> <Smiles>
CNC(C)C(=O)NC(C(=O)N1Cc2cc([101O:1][101CH2:1]c3c(C)c(C)c(OC)c(NC4CC[100N:0]([100C:0](=O)N5CCCC(n6nc(-c7ccc(Oc8ccc(F)cc8F)cc7)c(C(N)=O)c6N)C5)CC4)c3C)ccc2CC1C(=O)NC1CCCc2ccccc21)C(C)(C)C

> <Shape>
0.311

> <Color>
0.092

> <Negative vol penalty>
0.000

$$$$

  -OEChem-04052321333D

 88 97  0     1  0  0  0  0  0999 V2000
  -21.4368  -12.8986   19.9681 C   0  0  0  0  0  0  0  0  0  0  0  0
  -21.6258  -13.8862   20.9295 C   0  0  0  0  0  0  0  0  0  0  0  0
  -30.5048  -28.5720   18.4122 C   0  0  0  0  0  0  0  0  0  0  0  0
  -30.3336  -27.2265   20.4115 C   0  0  0  0  0  0  0  0  0  0  0  0
  -22.5360  -12.2259   19.4359 C   0  0  0  0  0  0  0  0  0  0  0  0
  -22.9142  -14.2010   21.3600 C   0  0  0  0  0  0  0  0  0  0  0  0
  -23.7012  -19.1954   21.6452 C   0  0  0  0  0  0  0  0  0  0  0  0
  -31.8955  -28.5515   18.5174 C   0  0  0  0  0  0  0  0  0  0  0  0
  -31.7243  -27.2059   20.5168 C   0  0  0  0  0  0  0  0  0  0  0  0
  -23.1764  -19.8605   22.7525 C   0  0  0  0  0  0  0  0  0  0  0  0
  -35.2405  -26.4963   21.1096 C   0  0  0  0  0  0  0  0  0  0  0  0
  -35.8519  -25.2759   21.3965 C   0  0  0  0  0  0  0  0  0  0  0  0
  -25.3524  -19.8318   23.7934 C   0  0  0  0  0  0  0  0  0  0  0  0
  -20.1807  -27.9046   23.5106 C   0  0  0  0  0  0  0  0  0  0  0  0
  -20.8281  -26.0190   22.1458 C   0  0  0  0  0  0  0  0  0  0  0  0
  -34.9187  -24.3336   19.3770 C   0  0  0  0  0  0  0  0  0  0  0  0
  -29.7238  -27.9095   19.3593 C   0  0  0  0  0  0  0  0  0  0  0  0
  -27.4726  -27.0117   18.5633 C   0  0  0  0  0  0  0  0  0  0  0  0
  -23.8392  -12.5394   19.8531 C   0  0  0  0  0  0  0  0  0  0  0  0
  -25.0554  -18.8333   21.6083 C   0  0  0  0  0  0  0  0  0  0  0  0
  -24.0318  -13.5310   20.8339 C   0  0  0  0  0  0  0  0  0  0  0  0
  -25.8924  -19.1645   22.6834 C   0  0  0  0  0  0  0  0  0  0  0  0
  -19.0872  -25.7701   23.8024 C   0  0  0  0  0  0  0  0  0  0  0  0
  -19.2359  -27.1102   24.1601 C   0  0  0  0  0  0  0  0  0  0  0  0
  -20.9768  -27.3590   22.5035 C   0  0  0  0  0  0  0  0  0  0  0  0
  -32.5053  -27.8684   19.5697 C   0  0  0  0  0  0  0  0  0  0  0  0
  -24.0014  -20.1762   23.8281 C   0  0  0  0  0  0  0  0  0  0  0  0
  -34.4681  -26.6354   19.9564 C   0  0  0  0  0  0  0  0  0  0  0  0
  -19.8833  -25.2246   22.7953 C   0  0  0  0  0  0  0  0  0  0  0  0
  -35.6910  -24.1946   20.5303 C   0  0  0  0  0  0  0  0  0  0  0  0
  -34.3072  -25.5541   19.0902 C   0  0  0  0  0  0  0  0  0  0  0  0
  -28.2872  -27.9309   19.2514 C   0  0  0  0  0  0  0  0  0  0  0  0
  -26.1933  -27.4700   18.7631 C   0  0  0  0  0  0  0  0  0  0  0  0
  -27.8395  -25.8478   17.8108 C   0  0  0  0  0  0  0  0  0  0  0  0
  -26.6375  -16.0822   21.4293 C   0  0  0  0  0  0  0  0  0  0  0  0
  -29.2175  -18.0313   21.1706 C   0  0  0  0  0  0  0  0  0  0  0  0
  -30.6116  -21.0876   21.7728 C   0  0  0  0  0  0  0  0  0  0  0  0
  -22.2132  -29.5124   22.0783 C   0  0  0  0  0  0  0  0  0  0  0  0
  -24.9928  -11.7523   19.2835 C   0  0  0  0  0  0  0  0  0  0  0  0
  -25.6119  -18.1400   20.3951 C   0  0  0  0  0  0  0  0  0  0  0  0
  -27.3577  -18.8159   22.6842 C   0  0  0  0  0  0  0  0  0  0  0  0
  -26.3518  -12.4060   19.5199 C   0  0  0  0  0  0  0  0  0  0  0  0
  -24.5242  -31.8409   20.6947 C   0  0  0  0  0  0  0  0  0  0  0  0
  -26.4782  -12.8659   20.9688 C   0  0  0  0  0  0  0  0  0  0  0  0
  -25.6422  -30.9556   20.1393 C   0  0  0  0  0  0  0  0  0  0  0  0
  -23.9541  -31.2837   21.9979 C   0  0  0  0  0  0  0  0  0  0  0  0
  -24.6347  -28.9980   21.3801 C   0  0  0  0  0  0  0  0  0  0  0  0
  -18.0847  -24.9207   24.4915 C   0  0  2  0  0  0  0  0  0  0  0  0
  -25.4157  -13.9181   21.3084 C   0  0  1  0  0  0  0  0  0  0  0  0
  -26.8921  -17.3627   20.6857 C   0  0  1  0  0  0  0  0  0  0  0  0
  -18.1166  -24.8235   26.0044 C   0  0  2  0  0  0  0  0  0  0  0  0
  -25.1961  -29.4841   20.0339 C   0  0  2  0  0  0  0  0  0  0  0  0
  -18.4812  -23.6266   25.1729 C   0  0  2  0  0  0  0  0  0  0  0  0
  -18.3959  -27.7201   25.2344 C   0  0  0  0  0  0  0  0  0  0  0  0
  -16.8451  -24.8302   26.7818 C   0  0  0  0  0  0  0  0  0  0  0  0
  -32.3183  -22.9254   21.6900 C   0  0  0  0  0  0  0  0  0  0  0  0
  -30.4576  -16.4909   23.4942 C   0  0  0  0  0  0  0  0  0  0  0  0
  -32.0966  -18.3634   23.7696 C   0  0  0  0  0  0  0  0  0  0  0  0
  -32.0481  -17.0525   21.6478 C   0  0  0  0  0  0  0  0  0  0  0  0
  -29.5116  -22.1527   19.2401 C   0  0  0  0  0  0  0  0  0  0  0  0
  -20.6092  -23.4466   21.3925 C   0  0  0  0  0  0  0  0  0  0  0  0
  -21.7415  -21.8810   26.1652 C   0  0  0  0  0  0  0  0  0  0  0  0
  -20.2729  -22.2666   26.2588 C   0  0  0  0  0  0  0  0  0  0  0  0
  -22.1029  -21.1515   24.8772 C   0  0  0  0  0  0  0  0  0  1  0  0
  -30.1737  -18.6744   22.1459 C   0  0  1  0  0  0  0  0  0  0  0  0
  -31.3936  -22.0320   20.8779 C   0  0  2  0  0  0  0  0  0  0  0  0
  -31.1660  -17.6503   22.7655 C   0  0  0  0  0  0  0  0  0  0  0  0
  -27.5844  -28.8999   19.8439 N   0  0  0  0  0  0  0  0  0  0  0  0
  -26.3147  -28.5922   19.5287 N   0  0  0  0  0  0  0  0  0  0  0  0
  -27.8532  -18.1327   21.4779 N   0  0  0  0  0  0  0  0  0  0  0  0
  -23.5488  -29.8875   21.8212 N   0  0  0  0  0  0  0  0  0  0  0  0
  -24.9877  -27.0185   18.3569 N   0  0  0  0  0  0  0  0  0  0  0  0
  -29.1983  -25.5207   17.7062 N   0  0  0  0  0  0  0  0  0  0  0  0
  -21.9373  -28.1656   21.8443 N   0  0  0  0  0  0  0  0  0  0  0  0
  -25.7926  -15.2083   20.7721 N   0  0  0  0  0  0  0  0  0  0  0  0
  -30.8162  -19.7687   21.4262 N   0  0  0  0  0  0  0  0  0  0  0  0
  -19.9089  -23.2034   25.1700 N   0  3  0  0  0  0  0  0  0  0  0  0
  -30.4632  -22.9000   20.1022 N   0  3  0  0  0  0  0  0  0  0  0  0
  -26.9888  -25.1285   17.2342 O   0  0  0  0  0  0  0  0  0  0  0  0
  -27.1695  -15.8998   22.5181 O   0  0  0  0  0  0  0  0  0  0  0  0
  -29.6641  -17.4663   20.1691 O   0  0  0  0  0  0  0  0  0  0  0  0
  -29.8941  -21.4803   22.6902 O   0  0  0  0  0  0  0  0  0  0  0  0
  -21.3692  -30.3316   22.4506 O   0  0  0  0  0  0  0  0  0  0  0  0
  -33.8623  -27.8479   19.6726 O   0  0  0  0  0  0  0  0  0  0  0  0
  -19.7535  -23.9177   22.4314 O   0  0  0  0  0  0  0  0  0  0  0  0
  -23.4916  -20.8247   24.9104 O   0  0  0  0  0  0  0  0  0  1  0  0
  -36.2795  -23.0231   20.8051 F   0  0  0  0  0  0  0  0  0  0  0  0
  -33.5673  -25.6820   17.9802 F   0  0  0  0  0  0  0  0  0  0  0  0
  1  2  1  0  0  0  0
  1  5  2  0  0  0  0
  2  6  2  0  0  0  0
  3  8  2  0  0  0  0
  3 17  1  0  0  0  0
  4  9  1  0  0  0  0
  4 17  2  0  0  0  0
  5 19  1  0  0  0  0
  6 21  1  0  0  0  0
  7 10  2  0  0  0  0
  7 20  1  0  0  0  0
  8 26  1  0  0  0  0
  9 26  2  0  0  0  0
 10 27  1  0  0  0  0
 11 12  2  0  0  0  0
 11 28  1  0  0  0  0
 12 30  1  0  0  0  0
 13 22  1  0  0  0  0
 13 27  2  0  0  0  0
 14 24  2  0  0  0  0
 14 25  1  0  0  0  0
 15 25  2  0  0  0  0
 15 29  1  0  0  0  0
 16 30  2  0  0  0  0
 16 31  1  0  0  0  0
 17 32  1  0  0  0  0
 18 32  1  0  0  0  0
 18 33  2  0  0  0  0
 18 34  1  0  0  0  0
 19 21  2  0  0  0  0
 19 39  1  0  0  0  0
 20 22  2  0  0  0  0
 20 40  1  0  0  0  0
 21 49  1  0  0  0  0
 22 41  1  0  0  0  0
 23 24  1  0  0  0  0
 23 29  2  0  0  0  0
 23 48  1  0  0  0  0
 24 54  1  0  0  0  0
 25 74  1  0  0  0  0
 26 84  1  0  0  0  0
 27 86  1  0  0  0  0
 28 31  2  0  0  0  0
 28 84  1  0  0  0  0
 29 85  1  0  0  0  0
 30 87  1  0  0  0  0
 31 88  1  0  0  0  0
 32 68  2  0  0  0  0
 33 69  1  0  0  0  0
 33 72  1  0  0  0  0
 34 73  1  0  0  0  0
 34 79  2  0  0  0  0
 35 50  1  0  0  0  0
 35 75  1  0  0  0  0
 35 80  2  0  0  0  0
 36 65  1  0  0  0  0
 36 70  1  0  0  0  0
 36 81  2  0  0  0  0
 37 66  1  0  0  0  0
 37 76  1  0  0  0  0
 37 82  2  0  0  0  0
 38 71  1  0  0  0  0
 38 74  1  0  0  0  0
 38 83  2  0  0  0  0
 39 42  1  0  0  0  0
 40 50  1  0  0  0  0
 41 70  1  0  0  0  0
 42 44  1  0  0  0  0
 43 45  1  0  0  0  0
 43 46  1  0  0  0  0
 44 49  1  0  0  0  0
 45 52  1  0  0  0  0
 46 71  1  0  0  0  0
 47 52  1  0  0  0  0
 47 71  1  0  0  0  0
 48 51  1  0  0  0  0
 48 53  1  0  0  0  0
 49 75  1  0  0  0  0
 50 70  1  0  0  0  0
 51 53  1  0  0  0  0
 51 55  1  0  0  0  0
 52 69  1  0  0  0  0
 53 77  1  0  0  0  0
 56 66  1  0  0  0  0
 57 67  1  0  0  0  0
 58 67  1  0  0  0  0
 59 67  1  0  0  0  0
 60 78  1  0  0  0  0
 61 85  1  0  0  0  0
 62 63  1  0  0  0  0
 62 64  1  0  0  0  0
 63 77  1  0  0  0  0
 64 86  1  0  0  0  0
 65 67  1  0  0  0  0
 65 76  1  0  0  0  0
 66 78  1  0  0  0  0
 68 69  1  0  0  0  0
M  CHG  2  77   1  78   1
M  ISO  4  38 100  64 101  74 100  86 101
M  END
> <Batch ID>
0147

> <Smiles>
CNC(C)C(=O)NC(C(=O)N1Cc2cc([101O:1][101CH2:1]CCNC3C(C)C3c3c(C)cc([100NH:0][100C:0](=O)N4CCCC(n5nc(-c6ccc(Oc7ccc(F)cc7F)cc6)c(C(N)=O)c5N)C4)cc3OC)ccc2CC1C(=O)NC1CCCc2ccccc21)C(C)(C)C

> <Shape>
0.215

> <Color>
0.065

> <Negative vol penalty>
0.000

$$$$

  -OEChem-04052321333D

 87 96  0     1  0  0  0  0  0999 V2000
  -32.4208  -24.8274   17.6641 C   0  0  0  0  0  0  0  0  0  0  0  0
  -31.3954  -24.3837   18.4930 C   0  0  0  0  0  0  0  0  0  0  0  0
  -28.1317  -13.7029   19.5726 C   0  0  0  0  0  0  0  0  0  0  0  0
  -28.2083  -13.1351   21.9197 C   0  0  0  0  0  0  0  0  0  0  0  0
  -32.9639  -26.0983   17.8481 C   0  0  0  0  0  0  0  0  0  0  0  0
  -30.9131  -25.2103   19.5072 C   0  0  0  0  0  0  0  0  0  0  0  0
  -25.8544  -25.2567   19.7349 C   0  0  0  0  0  0  0  0  0  0  0  0
  -28.8888  -14.8469   19.8246 C   0  0  0  0  0  0  0  0  0  0  0  0
  -28.9655  -14.2792   22.1717 C   0  0  0  0  0  0  0  0  0  0  0  0
  -25.2342  -24.1645   20.3401 C   0  0  0  0  0  0  0  0  0  0  0  0
  -30.4972  -18.1072   19.9069 C   0  0  0  0  0  0  0  0  0  0  0  0
  -30.0906  -19.3004   19.3097 C   0  0  0  0  0  0  0  0  0  0  0  0
  -24.9684  -25.4460   22.3665 C   0  0  0  0  0  0  0  0  0  0  0  0
  -27.9681  -19.1498   20.4540 C   0  0  0  0  0  0  0  0  0  0  0  0
  -24.8676  -17.9638   25.6443 C   0  0  0  0  0  0  0  0  0  0  0  0
  -27.7914  -12.8470   20.6202 C   0  0  0  0  0  0  0  0  0  0  0  0
  -27.4886  -10.3826   20.0349 C   0  0  0  0  0  0  0  0  0  0  0  0
  -32.4814  -26.9446   18.8589 C   0  0  0  0  0  0  0  0  0  0  0  0
  -26.0463  -26.4502   20.4457 C   0  0  0  0  0  0  0  0  0  0  0  0
  -31.4511  -26.4932   19.7057 C   0  0  0  0  0  0  0  0  0  0  0  0
  -25.5889  -26.5527   21.7672 C   0  0  0  0  0  0  0  0  0  0  0  0
  -24.6499  -16.6347   25.3190 C   0  0  0  0  0  0  0  0  0  0  0  0
  -24.4969  -16.3101   23.9757 C   0  0  0  0  0  0  0  0  0  0  0  0
  -24.5654  -17.3104   23.0123 C   0  0  0  0  0  0  0  0  0  0  0  0
  -29.3057  -15.1351   21.1241 C   0  0  0  0  0  0  0  0  0  0  0  0
  -24.7937  -24.2581   21.6570 C   0  0  0  0  0  0  0  0  0  0  0  0
  -29.6393  -17.4353   20.7776 C   0  0  0  0  0  0  0  0  0  0  0  0
  -28.8261  -19.8217   19.5833 C   0  0  0  0  0  0  0  0  0  0  0  0
  -28.3748  -17.9566   21.0512 C   0  0  0  0  0  0  0  0  0  0  0  0
  -27.0088  -11.6653   20.3606 C   0  0  0  0  0  0  0  0  0  0  0  0
  -24.7867  -18.6093   23.4409 C   0  0  0  0  0  0  0  0  0  0  0  0
  -26.3561   -9.6194   19.8882 C   0  0  0  0  0  0  0  0  0  0  0  0
  -28.8374   -9.9220   19.8790 C   0  0  0  0  0  0  0  0  0  0  0  0
  -28.5830  -28.1333   21.3600 C   0  0  0  0  0  0  0  0  0  0  0  0
  -26.3350  -30.2617   22.3290 C   0  0  0  0  0  0  0  0  0  0  0  0
  -23.1162  -30.8311   23.3097 C   0  0  0  0  0  0  0  0  0  0  0  0
  -22.6026  -13.4072   21.3106 C   0  0  0  0  0  0  0  0  0  0  0  0
  -33.1321  -28.2918   19.0496 C   0  0  0  0  0  0  0  0  0  0  0  0
  -26.6930  -27.6281   19.7699 C   0  0  0  0  0  0  0  0  0  0  0  0
  -25.7527  -27.8184   22.5671 C   0  0  0  0  0  0  0  0  0  0  0  0
  -32.3094  -29.2496   19.9075 C   0  0  0  0  0  0  0  0  0  0  0  0
  -22.8916  -11.5972   18.2435 C   0  0  0  0  0  0  0  0  0  0  0  0
  -21.1128  -13.2069   24.6106 C   0  0  0  0  0  0  0  0  0  0  0  0
  -31.8040  -28.5431   21.1615 C   0  0  0  0  0  0  0  0  0  0  0  0
  -23.2652  -10.1790   18.6604 C   0  0  0  0  0  0  0  0  0  0  0  0
  -22.2248  -14.2020   24.9114 C   0  0  0  0  0  0  0  0  0  0  0  0
  -21.9375  -12.2184   19.2518 C   0  0  0  0  0  0  0  0  0  0  0  0
  -21.6940  -12.3962   23.4626 C   0  0  0  0  0  0  0  0  0  0  0  0
  -22.9454  -10.8911   21.0980 C   0  0  0  0  0  0  0  0  0  0  0  0
  -30.8843  -27.3702   20.8011 C   0  0  1  0  0  0  0  0  0  0  0  0
  -27.2983  -28.6238   20.7546 C   0  0  1  0  0  0  0  0  0  0  0  0
  -23.8235  -10.1131   20.0910 C   0  0  2  0  0  0  0  0  0  0  0  0
  -22.7739  -14.5455   23.5240 C   0  0  1  0  0  0  0  0  0  0  0  0
  -24.5861  -15.6049   26.3932 C   0  0  0  0  0  0  0  0  0  0  0  0
  -24.4040  -16.9998   21.5624 C   0  0  0  0  0  0  0  0  0  0  0  0
  -21.5852  -32.6666   24.0742 C   0  0  0  0  0  0  0  0  0  0  0  0
  -27.6552  -30.2140   25.0794 C   0  0  0  0  0  0  0  0  0  0  0  0
  -25.5879  -31.2735   26.0131 C   0  0  0  0  0  0  0  0  0  0  0  0
  -26.9433  -32.4823   24.3031 C   0  0  0  0  0  0  0  0  0  0  0  0
  -21.3039  -30.4382   21.0031 C   0  0  0  0  0  0  0  0  0  0  0  0
  -24.2591  -14.8809   23.5669 C   0  0  0  0  0  0  0  0  0  0  0  0
  -24.5838  -21.8942   21.8123 C   0  0  0  0  0  0  0  0  0  1  0  0
  -24.4362  -20.9113   22.9576 C   0  0  0  0  0  0  0  0  0  0  0  0
  -25.5558  -30.4885   23.6019 C   0  0  1  0  0  0  0  0  0  0  0  0
  -22.1029  -31.8773   22.8818 C   0  0  2  0  0  0  0  0  0  0  0  0
  -26.4341  -31.0900   24.7352 C   0  0  0  0  0  0  0  0  0  0  0  0
  -24.9402  -18.9631   24.7366 N   0  0  0  0  0  0  0  0  0  0  0  0
  -25.6754  -11.7180   20.4175 N   0  0  0  0  0  0  0  0  0  0  0  0
  -25.3076  -10.4588   20.1254 N   0  0  0  0  0  0  0  0  0  0  0  0
  -26.3968  -28.9403   21.8642 N   0  0  0  0  0  0  0  0  0  0  0  0
  -22.4857  -12.1986   20.6081 N   0  0  0  0  0  0  0  0  0  0  0  0
  -22.4856  -13.3642   22.7017 N   0  0  0  0  0  0  0  0  0  0  0  0
  -26.1648   -8.3189   19.5806 N   0  0  0  0  0  0  0  0  0  0  0  0
  -29.8819  -10.8377   20.0656 N   0  0  0  0  0  0  0  0  0  0  0  0
  -29.5700  -27.8526   20.4346 N   0  0  0  0  0  0  0  0  0  0  0  0
  -24.4070  -31.3102   23.2364 N   0  0  0  0  0  0  0  0  0  0  0  0
  -20.9425  -31.2293   22.2075 N   0  3  0  0  0  0  0  0  0  0  0  0
  -29.1078   -8.7375   19.5668 O   0  0  0  0  0  0  0  0  0  0  0  0
  -28.6727  -28.0195   22.5769 O   0  0  0  0  0  0  0  0  0  0  0  0
  -26.8632  -31.2226   21.7639 O   0  0  0  0  0  0  0  0  0  0  0  0
  -22.7945  -29.7029   23.6762 O   0  0  0  0  0  0  0  0  0  0  0  0
  -22.7929  -14.4791   20.7207 O   0  0  0  0  0  0  0  0  0  0  0  0
  -30.0447  -16.2512   21.3703 O   0  0  0  0  0  0  0  0  0  0  0  0
  -24.1845  -23.1861   22.2544 O   0  0  0  0  0  0  0  0  0  1  0  0
  -24.8600  -19.6248   22.5233 O   0  0  0  0  0  0  0  0  0  0  0  0
  -28.4364  -20.9683   19.0109 F   0  0  0  0  0  0  0  0  0  0  0  0
  -27.5466  -17.3162   21.8878 F   0  0  0  0  0  0  0  0  0  0  0  0
  1  2  1  0  0  0  0
  1  5  2  0  0  0  0
  2  6  2  0  0  0  0
  3  8  2  0  0  0  0
  3 16  1  0  0  0  0
  4  9  1  0  0  0  0
  4 16  2  0  0  0  0
  5 18  1  0  0  0  0
  6 20  1  0  0  0  0
  7 10  2  0  0  0  0
  7 19  1  0  0  0  0
  8 25  1  0  0  0  0
  9 25  2  0  0  0  0
 10 26  1  0  0  0  0
 11 12  2  0  0  0  0
 11 27  1  0  0  0  0
 12 28  1  0  0  0  0
 13 21  1  0  0  0  0
 13 26  2  0  0  0  0
 14 28  2  0  0  0  0
 14 29  1  0  0  0  0
 15 22  1  0  0  0  0
 15 67  2  0  0  0  0
 16 30  1  0  0  0  0
 17 30  1  0  0  0  0
 17 32  2  0  0  0  0
 17 33  1  0  0  0  0
 18 20  2  0  0  0  0
 18 38  1  0  0  0  0
 19 21  2  0  0  0  0
 19 39  1  0  0  0  0
 20 50  1  0  0  0  0
 21 40  1  0  0  0  0
 22 23  2  0  0  0  0
 22 54  1  0  0  0  0
 23 24  1  0  0  0  0
 23 61  1  0  0  0  0
 24 31  2  0  0  0  0
 24 55  1  0  0  0  0
 25 83  1  0  0  0  0
 26 84  1  0  0  0  0
 27 29  2  0  0  0  0
 27 83  1  0  0  0  0
 28 86  1  0  0  0  0
 29 87  1  0  0  0  0
 30 68  2  0  0  0  0
 31 67  1  0  0  0  0
 31 85  1  0  0  0  0
 32 69  1  0  0  0  0
 32 73  1  0  0  0  0
 33 74  1  0  0  0  0
 33 78  2  0  0  0  0
 34 51  1  0  0  0  0
 34 75  1  0  0  0  0
 34 79  2  0  0  0  0
 35 64  1  0  0  0  0
 35 70  1  0  0  0  0
 35 80  2  0  0  0  0
 36 65  1  0  0  0  0
 36 76  1  0  0  0  0
 36 81  2  0  0  0  0
 37 71  1  0  0  0  0
 37 72  1  0  0  0  0
 37 82  2  0  0  0  0
 38 41  1  0  0  0  0
 39 51  1  0  0  0  0
 40 70  1  0  0  0  0
 41 44  1  0  0  0  0
 42 45  1  0  0  0  0
 42 47  1  0  0  0  0
 43 46  1  0  0  0  0
 43 48  1  0  0  0  0
 44 50  1  0  0  0  0
 45 52  1  0  0  0  0
 46 53  1  0  0  0  0
 47 71  1  0  0  0  0
 48 72  1  0  0  0  0
 49 52  1  0  0  0  0
 49 71  1  0  0  0  0
 50 75  1  0  0  0  0
 51 70  1  0  0  0  0
 52 69  1  0  0  0  0
 53 61  1  0  0  0  0
 53 72  1  0  0  0  0
 56 65  1  0  0  0  0
 57 66  1  0  0  0  0
 58 66  1  0  0  0  0
 59 66  1  0  0  0  0
 60 77  1  0  0  0  0
 62 63  1  0  0  0  0
 62 84  1  0  0  0  0
 63 85  1  0  0  0  0
 64 66  1  0  0  0  0
 64 76  1  0  0  0  0
 65 77  1  0  0  0  0
 68 69  1  0  0  0  0
M  CHG  1  77   1
M  ISO  4  37 100  62 101  72 100  84 101
M  END
> <Batch ID>
0147

> <Smiles>
CNC(C)C(=O)NC(C(=O)N1Cc2cc([101O:1][101CH2:1]COc3ncc(C)c(CC4CCC[100N:0]4[100C:0](=O)N4CCCC(n5nc(-c6ccc(Oc7ccc(F)cc7F)cc6)c(C(N)=O)c5N)C4)c3C)ccc2CC1C(=O)NC1CCCc2ccccc21)C(C)(C)C

> <Shape>
0.255

> <Color>
0.060

> <Negative vol penalty>
0.000

$$$$

  -OEChem-04052321333D

 84 93  0     1  0  0  0  0  0999 V2000
  -17.5910  -25.6674   23.2483 C   0  0  0  0  0  0  0  0  0  0  0  0
  -18.9067  -25.2172   23.2885 C   0  0  0  0  0  0  0  0  0  0  0  0
  -23.7905  -11.2577   23.3445 C   0  0  0  0  0  0  0  0  0  0  0  0
  -23.1884  -10.0847   21.3199 C   0  0  0  0  0  0  0  0  0  0  0  0
  -17.3009  -26.9230   22.7163 C   0  0  0  0  0  0  0  0  0  0  0  0
  -19.9331  -26.0222   22.7955 C   0  0  0  0  0  0  0  0  0  0  0  0
  -25.6475  -26.4376   24.9586 C   0  0  0  0  0  0  0  0  0  0  0  0
  -22.9640  -10.4096   24.0816 C   0  0  0  0  0  0  0  0  0  0  0  0
  -22.3620   -9.2366   22.0570 C   0  0  0  0  0  0  0  0  0  0  0  0
  -26.8473  -25.8519   24.5571 C   0  0  0  0  0  0  0  0  0  0  0  0
  -22.7155   -6.5313   24.0511 C   0  0  0  0  0  0  0  0  0  0  0  0
  -22.7848   -5.1648   23.7801 C   0  0  0  0  0  0  0  0  0  0  0  0
  -27.3798  -27.8302   23.2834 C   0  0  0  0  0  0  0  0  0  0  0  0
  -29.8275  -23.7832   23.3595 C   0  0  0  0  0  0  0  0  0  0  0  0
  -20.4438   -5.1646   23.1828 C   0  0  0  0  0  0  0  0  0  0  0  0
  -27.8269  -23.0269   21.6651 C   0  0  0  0  0  0  0  0  0  0  0  0
  -23.9027  -11.0953   21.9636 C   0  0  0  0  0  0  0  0  0  0  0  0
  -26.1190  -11.7837   20.9047 C   0  0  0  0  0  0  0  0  0  0  0  0
  -18.3254  -27.7478   22.2255 C   0  0  0  0  0  0  0  0  0  0  0  0
  -25.2992  -27.7218   24.5160 C   0  0  0  0  0  0  0  0  0  0  0  0
  -19.6563  -27.2895   22.2552 C   0  0  0  0  0  0  0  0  0  0  0  0
  -26.1762  -28.4309   23.6828 C   0  0  0  0  0  0  0  0  0  0  0  0
  -28.7475  -22.0703   22.0617 C   0  0  0  0  0  0  0  0  0  0  0  0
  -22.2498   -9.3991   23.4379 C   0  0  0  0  0  0  0  0  0  0  0  0
  -27.7123  -26.5471   23.7170 C   0  0  0  0  0  0  0  0  0  0  0  0
  -21.5103   -7.2144   23.8881 C   0  0  0  0  0  0  0  0  0  0  0  0
  -29.7638  -22.4639   22.9251 C   0  0  0  0  0  0  0  0  0  0  0  0
  -21.6489   -4.4814   23.3459 C   0  0  0  0  0  0  0  0  0  0  0  0
  -20.3745   -6.5311   23.4540 C   0  0  0  0  0  0  0  0  0  0  0  0
  -24.7558  -11.9713   21.2016 C   0  0  0  0  0  0  0  0  0  0  0  0
  -28.8587  -24.6632   22.9050 C   0  0  0  0  0  0  0  0  0  1  0  0
  -26.4637  -12.8866   20.1622 C   0  0  0  0  0  0  0  0  0  0  0  0
  -26.9954  -10.7085   21.2675 C   0  0  0  0  0  0  0  0  0  0  0  0
  -22.9257  -28.9292   22.7804 C   0  0  0  0  0  0  0  0  0  0  0  0
  -24.2911  -31.7576   23.5918 C   0  0  0  0  0  0  0  0  0  0  0  0
  -27.0867  -33.4473   24.5798 C   0  0  0  0  0  0  0  0  0  0  0  0
  -26.3653  -18.2626   19.1088 C   0  0  0  0  0  0  0  0  0  0  0  0
  -17.9577  -29.0777   21.6166 C   0  0  0  0  0  0  0  0  0  0  0  0
  -24.0137  -28.3502   24.9797 C   0  0  0  0  0  0  0  0  0  0  0  0
  -25.8582  -29.8203   23.1960 C   0  0  0  0  0  0  0  0  0  0  0  0
  -19.1449  -30.0240   21.4579 C   0  0  0  0  0  0  0  0  0  0  0  0
  -23.6011  -16.4748   18.0548 C   0  0  0  0  0  0  0  0  0  0  0  0
  -20.3346  -29.2902   20.8470 C   0  0  0  0  0  0  0  0  0  0  0  0
  -23.7568  -15.1221   18.7492 C   0  0  0  0  0  0  0  0  0  0  0  0
  -27.3256  -19.9731   22.0191 C   0  0  0  0  0  0  0  0  0  0  0  0
  -28.7829  -20.5532   20.0318 C   0  0  0  0  0  0  0  0  0  0  0  0
  -23.9780  -17.6160   18.9923 C   0  0  0  0  0  0  0  0  0  0  0  0
  -27.2027  -18.5436   21.4838 C   0  0  0  0  0  0  0  0  0  0  0  0
  -28.6479  -19.1087   19.5590 C   0  0  0  0  0  0  0  0  0  0  0  0
  -25.5302  -16.1578   20.2503 C   0  0  0  0  0  0  0  0  0  0  0  0
  -28.6340  -20.6425   21.5615 C   0  0  0  0  0  0  0  0  0  0  0  0
  -20.8000  -28.1439   21.7530 C   0  0  1  0  0  0  0  0  0  0  0  0
  -23.5224  -29.4586   24.0537 C   0  0  1  0  0  0  0  0  0  0  0  0
  -25.1678  -14.9645   19.3430 C   0  0  1  0  0  0  0  0  0  0  0  0
  -27.9027  -35.7569   25.1254 C   0  0  0  0  0  0  0  0  0  0  0  0
  -24.3716  -32.4293   20.6165 C   0  0  0  0  0  0  0  0  0  0  0  0
  -26.0104  -34.2476   21.1426 C   0  0  0  0  0  0  0  0  0  0  0  0
  -23.7076  -34.3317   22.0979 C   0  0  0  0  0  0  0  0  0  0  0  0
  -27.7697  -32.6763   27.3543 C   0  0  0  0  0  0  0  0  0  0  0  0
  -31.7072  -22.0643   24.2364 C   0  0  0  0  0  0  0  0  0  0  0  0
  -25.3596  -32.6398   22.9926 C   0  0  1  0  0  0  0  0  0  0  0  0
  -27.3095  -34.4706   25.6788 C   0  0  2  0  0  0  0  0  0  0  0  0
  -24.8677  -33.3852   21.7198 C   0  0  0  0  0  0  0  0  0  0  0  0
  -27.8564  -24.3178   22.0660 N   0  0  0  0  0  0  0  0  0  0  0  0
  -24.2678  -13.1044   20.6897 N   0  0  0  0  0  0  0  0  0  0  0  0
  -25.3303  -13.6387   20.0637 N   0  0  0  0  0  0  0  0  0  0  0  0
  -24.5865  -30.3893   23.6720 N   0  0  0  0  0  0  0  0  0  0  0  0
  -25.3222  -17.4280   19.5377 N   0  0  0  0  0  0  0  0  0  0  0  0
  -27.3952  -18.5164   20.0272 N   0  0  0  0  0  0  0  0  0  0  0  0
  -27.6228  -13.2767   19.5907 N   0  0  0  0  0  0  0  0  0  0  0  0
  -26.4783   -9.6544   22.0329 N   0  0  0  0  0  0  0  0  0  0  0  0
  -21.5731  -28.6588   22.8628 N   0  0  0  0  0  0  0  0  0  0  0  0
  -25.8099  -33.5210   24.0646 N   0  0  0  0  0  0  0  0  0  0  0  0
  -28.2398  -33.9294   26.7096 N   0  3  0  0  0  0  0  0  0  0  0  0
  -28.2054  -10.6913   20.9371 O   0  0  0  0  0  0  0  0  0  0  0  0
  -23.6393  -28.7788   21.7956 O   0  0  0  0  0  0  0  0  0  0  0  0
  -23.2362  -32.2648   23.9812 O   0  0  0  0  0  0  0  0  0  0  0  0
  -27.9593  -32.6637   24.2125 O   0  0  0  0  0  0  0  0  0  0  0  0
  -26.3769  -18.7519   17.9723 O   0  0  0  0  0  0  0  0  0  0  0  0
  -21.4434   -8.5712   24.1569 O   0  0  0  0  0  0  0  0  0  0  0  0
  -28.9008  -25.9692   23.3174 O   0  0  0  0  0  0  0  0  0  1  0  0
  -30.7014  -21.5734   23.3519 O   0  0  0  0  0  0  0  0  0  0  0  0
  -21.7160   -3.1695   23.0842 F   0  0  0  0  0  0  0  0  0  0  0  0
  -19.2142   -7.1822   23.2944 F   0  0  0  0  0  0  0  0  0  0  0  0
  1  2  1  0  0  0  0
  1  5  2  0  0  0  0
  2  6  2  0  0  0  0
  3  8  2  0  0  0  0
  3 17  1  0  0  0  0
  4  9  1  0  0  0  0
  4 17  2  0  0  0  0
  5 19  1  0  0  0  0
  6 21  1  0  0  0  0
  7 10  2  0  0  0  0
  7 20  1  0  0  0  0
  8 24  1  0  0  0  0
  9 24  2  0  0  0  0
 10 25  1  0  0  0  0
 11 12  2  0  0  0  0
 11 26  1  0  0  0  0
 12 28  1  0  0  0  0
 13 22  1  0  0  0  0
 13 25  2  0  0  0  0
 14 27  2  0  0  0  0
 14 31  1  0  0  0  0
 15 28  2  0  0  0  0
 15 29  1  0  0  0  0
 16 23  2  0  0  0  0
 16 64  1  0  0  0  0
 17 30  1  0  0  0  0
 18 30  1  0  0  0  0
 18 32  2  0  0  0  0
 18 33  1  0  0  0  0
 19 21  2  0  0  0  0
 19 38  1  0  0  0  0
 20 22  2  0  0  0  0
 20 39  1  0  0  0  0
 21 52  1  0  0  0  0
 22 40  1  0  0  0  0
 23 27  1  0  0  0  0
 23 51  1  0  0  0  0
 24 80  1  0  0  0  0
 25 81  1  0  0  0  0
 26 29  2  0  0  0  0
 26 80  1  0  0  0  0
 27 82  1  0  0  0  0
 28 83  1  0  0  0  0
 29 84  1  0  0  0  0
 30 65  2  0  0  0  0
 31 64  2  0  0  0  0
 31 81  1  0  0  0  0
 32 66  1  0  0  0  0
 32 70  1  0  0  0  0
 33 71  1  0  0  0  0
 33 75  2  0  0  0  0
 34 53  1  0  0  0  0
 34 72  1  0  0  0  0
 34 76  2  0  0  0  0
 35 61  1  0  0  0  0
 35 67  1  0  0  0  0
 35 77  2  0  0  0  0
 36 62  1  0  0  0  0
 36 73  1  0  0  0  0
 36 78  2  0  0  0  0
 37 68  1  0  0  0  0
 37 69  1  0  0  0  0
 37 79  2  0  0  0  0
 38 41  1  0  0  0  0
 39 53  1  0  0  0  0
 40 67  1  0  0  0  0
 41 43  1  0  0  0  0
 42 44  1  0  0  0  0
 42 47  1  0  0  0  0
 43 52  1  0  0  0  0
 44 54  1  0  0  0  0
 45 48  1  0  0  0  0
 45 51  1  0  0  0  0
 46 49  1  0  0  0  0
 46 51  1  0  0  0  0
 47 68  1  0  0  0  0
 48 69  1  0  0  0  0
 49 69  1  0  0  0  0
 50 54  1  0  0  0  0
 50 68  1  0  0  0  0
 52 72  1  0  0  0  0
 53 67  1  0  0  0  0
 54 66  1  0  0  0  0
 55 62  1  0  0  0  0
 56 63  1  0  0  0  0
 57 63  1  0  0  0  0
 58 63  1  0  0  0  0
 59 74  1  0  0  0  0
 60 82  1  0  0  0  0
 61 63  1  0  0  0  0
 61 73  1  0  0  0  0
 62 74  1  0  0  0  0
 65 66  1  0  0  0  0
M  CHG  1  74   1
M  ISO  4  31 101  37 100  69 100  81 101
M  END
> <Batch ID>
0147

> <Smiles>
CNC(C)C(=O)NC(C(=O)N1Cc2cc([101O:1][101c:1]3cc(OC)c(C4CC[100N:0]([100C:0](=O)N5CCCC(n6nc(-c7ccc(Oc8ccc(F)cc8F)cc7)c(C(N)=O)c6N)C5)CC4)cn3)ccc2CC1C(=O)NC1CCCc2ccccc21)C(C)(C)C

> <Shape>
0.256

> <Color>
0.082

> <Negative vol penalty>
0.000

$$$$

  -OEChem-04052321333D

 89 98  0     1  0  0  0  0  0999 V2000
  -22.4481  -37.9964   21.9618 C   0  0  0  0  0  0  0  0  0  0  0  0
  -23.0448  -36.9421   21.2778 C   0  0  0  0  0  0  0  0  0  0  0  0
  -23.6854   -9.6627   22.1330 C   0  0  0  0  0  0  0  0  0  0  0  0
  -24.6802   -8.1842   20.5016 C   0  0  0  0  0  0  0  0  0  0  0  0
  -22.9284  -38.3733   23.2152 C   0  0  0  0  0  0  0  0  0  0  0  0
  -24.1229  -36.2648   21.8464 C   0  0  0  0  0  0  0  0  0  0  0  0
  -23.7097  -31.2369   21.4057 C   0  0  0  0  0  0  0  0  0  0  0  0
  -22.5664   -8.8328   22.2028 C   0  0  0  0  0  0  0  0  0  0  0  0
  -23.5613   -7.3543   20.5715 C   0  0  0  0  0  0  0  0  0  0  0  0
  -24.0216  -30.6786   20.1669 C   0  0  0  0  0  0  0  0  0  0  0  0
  -22.3504   -4.9779   22.6467 C   0  0  0  0  0  0  0  0  0  0  0  0
  -22.5695   -3.6031   22.7330 C   0  0  0  0  0  0  0  0  0  0  0  0
  -26.1972  -30.0554   21.0023 C   0  0  0  0  0  0  0  0  0  0  0  0
  -26.6152  -22.9795   19.7801 C   0  0  0  0  0  0  0  0  0  0  0  0
  -28.0708  -24.2766   17.7848 C   0  0  0  0  0  0  0  0  0  0  0  0
  -21.3457   -3.2789   20.6753 C   0  0  0  0  0  0  0  0  0  0  0  0
  -24.7423   -9.3385   21.2824 C   0  0  0  0  0  0  0  0  0  0  0  0
  -27.0655  -10.1171   21.9923 C   0  0  0  0  0  0  0  0  0  0  0  0
  -24.0068  -37.6941   23.8038 C   0  0  0  0  0  0  0  0  0  0  0  0
  -24.6448  -31.2184   22.4506 C   0  0  0  0  0  0  0  0  0  0  0  0
  -24.6190  -36.6339   23.1083 C   0  0  0  0  0  0  0  0  0  0  0  0
  -25.8937  -30.6119   22.2542 C   0  0  0  0  0  0  0  0  0  0  0  0
  -26.0045  -23.9579   18.9956 C   0  0  0  0  0  0  0  0  0  0  0  0
  -28.6814  -23.2982   18.5693 C   0  0  0  0  0  0  0  0  0  0  0  0
  -27.9537  -22.6497   19.5670 C   0  0  0  0  0  0  0  0  0  0  0  0
  -26.7323  -24.6064   17.9979 C   0  0  0  0  0  0  0  0  0  0  0  0
  -22.5044   -7.6786   21.4221 C   0  0  0  0  0  0  0  0  0  0  0  0
  -25.2666  -30.0903   19.9641 C   0  0  0  0  0  0  0  0  0  0  0  0
  -21.6289   -5.5032   21.5747 C   0  0  0  0  0  0  0  0  0  0  0  0
  -22.0672   -2.7536   21.7473 C   0  0  0  0  0  0  0  0  0  0  0  0
  -21.1266   -4.6537   20.5890 C   0  0  0  0  0  0  0  0  0  0  0  0
  -25.8981  -10.1956   21.2094 C   0  0  0  0  0  0  0  0  0  0  0  0
  -27.8532  -11.1466   21.5384 C   0  0  0  0  0  0  0  0  0  0  0  0
  -27.4073   -9.1958   23.0363 C   0  0  0  0  0  0  0  0  0  0  0  0
  -26.1660  -33.4406   24.1391 C   0  0  0  0  0  0  0  0  0  0  0  0
  -27.2128  -30.8807   25.8342 C   0  0  0  0  0  0  0  0  0  0  0  0
  -27.8632  -27.5316   25.9190 C   0  0  0  0  0  0  0  0  0  0  0  0
  -28.6588  -16.2243   19.9931 C   0  0  0  0  0  0  0  0  0  0  0  0
  -24.5213  -38.1683   25.1398 C   0  0  0  0  0  0  0  0  0  0  0  0
  -24.2830  -31.8012   23.7892 C   0  0  0  0  0  0  0  0  0  0  0  0
  -26.9252  -30.5480   23.3499 C   0  0  0  0  0  0  0  0  0  0  0  0
  -25.4277  -37.1572   25.8372 C   0  0  0  0  0  0  0  0  0  0  0  0
  -27.3895  -14.1207   17.4818 C   0  0  0  0  0  0  0  0  0  0  0  0
  -26.4570  -36.5995   24.8594 C   0  0  0  0  0  0  0  0  0  0  0  0
  -26.9764  -12.8938   18.2942 C   0  0  0  0  0  0  0  0  0  0  0  0
  -27.0512  -15.4265   18.2031 C   0  0  0  0  0  0  0  0  0  0  0  0
  -27.7098  -18.2425   18.7886 C   0  0  0  0  0  0  0  0  0  0  0  0
  -30.0709  -18.1981   19.5035 C   0  0  0  0  0  0  0  0  0  0  0  0
  -27.1757  -14.2812   20.3921 C   0  0  0  0  0  0  0  0  0  0  0  0
  -27.4817  -19.5209   19.5887 C   0  0  0  0  0  0  0  0  0  0  0  0
  -29.8735  -19.4571   20.3319 C   0  0  0  0  0  0  0  0  0  0  0  0
  -25.7747  -35.8588   23.7030 C   0  0  1  0  0  0  0  0  0  0  0  0
  -25.5016  -32.1831   24.6237 C   0  0  1  0  0  0  0  0  0  0  0  0
  -27.5563  -12.9538   19.7185 C   0  0  1  0  0  0  0  0  0  0  0  0
  -24.5703  -24.2938   19.2417 C   0  0  0  0  0  0  0  0  0  0  0  0
  -30.1157  -22.9624   18.3233 C   0  0  0  0  0  0  0  0  0  0  0  0
  -28.7484  -25.7345   27.4303 C   0  0  0  0  0  0  0  0  0  0  0  0
  -30.0536  -31.8922   25.3689 C   0  0  0  0  0  0  0  0  0  0  0  0
  -30.8941  -29.6321   26.0422 C   0  0  0  0  0  0  0  0  0  0  0  0
  -29.6199  -31.0239   27.6737 C   0  0  0  0  0  0  0  0  0  0  0  0
  -25.3121  -26.0343   25.8248 C   0  0  0  0  0  0  0  0  0  0  0  0
  -28.5893  -21.5947   20.4238 C   0  0  0  0  0  0  0  0  0  0  0  0
  -26.0996  -25.6567   17.1453 C   0  0  0  0  0  0  0  0  0  0  0  0
  -25.0063  -27.9018   17.0891 C   0  0  0  0  0  0  0  0  0  0  0  0
  -24.4966  -29.0084   17.9912 C   0  0  0  0  0  0  0  0  0  1  0  0
  -28.3961  -29.9479   25.7407 C   0  0  1  0  0  0  0  0  0  0  0  0
  -27.5078  -26.4620   26.9359 C   0  0  2  0  0  0  0  0  0  0  0  0
  -29.7224  -30.6268   26.1849 C   0  0  0  0  0  0  0  0  0  0  0  0
  -25.9365  -11.1961   20.3254 N   0  0  0  0  0  0  0  0  0  0  0  0
  -27.1375  -11.7557   20.5500 N   0  0  0  0  0  0  0  0  0  0  0  0
  -26.5265  -31.1373   24.6388 N   0  0  0  0  0  0  0  0  0  0  0  0
  -27.5895  -15.4206   19.5705 N   0  0  0  0  0  0  0  0  0  0  0  0
  -28.8180  -17.4617   19.3516 N   0  0  0  0  0  0  0  0  0  0  0  0
  -29.0813  -11.5813   21.8923 N   0  0  0  0  0  0  0  0  0  0  0  0
  -26.4828   -8.1990   23.3770 N   0  0  0  0  0  0  0  0  0  0  0  0
  -25.3381  -34.5470   24.1307 N   0  0  0  0  0  0  0  0  0  0  0  0
  -28.0433  -28.7623   26.5141 N   0  0  0  0  0  0  0  0  0  0  0  0
  -28.7772  -20.2875   19.7061 N   0  3  0  0  0  0  0  0  0  0  0  0
  -26.5846  -25.4598   26.3323 N   0  3  0  0  0  0  0  0  0  0  0  0
  -25.5893  -26.8182   17.9232 N   0  3  0  0  0  0  0  0  0  0  0  0
  -28.4934   -9.2649   23.6602 O   0  0  0  0  0  0  0  0  0  0  0  0
  -27.3430  -33.4099   23.7994 O   0  0  0  0  0  0  0  0  0  0  0  0
  -26.9043  -31.3583   26.9289 O   0  0  0  0  0  0  0  0  0  0  0  0
  -27.9738  -27.2980   24.7175 O   0  0  0  0  0  0  0  0  0  0  0  0
  -29.4265  -15.8580   20.8919 O   0  0  0  0  0  0  0  0  0  0  0  0
  -21.4128   -6.8684   21.4901 O   0  0  0  0  0  0  0  0  0  0  0  0
  -25.5761  -29.5412   18.7471 O   0  0  0  0  0  0  0  0  0  1  0  0
  -22.2790   -1.4335   21.8295 F   0  0  0  0  0  0  0  0  0  0  0  0
  -20.4337   -5.1526   19.5562 F   0  0  0  0  0  0  0  0  0  0  0  0
  1  2  1  0  0  0  0
  1  5  2  0  0  0  0
  2  6  2  0  0  0  0
  3  8  2  0  0  0  0
  3 17  1  0  0  0  0
  4  9  1  0  0  0  0
  4 17  2  0  0  0  0
  5 19  1  0  0  0  0
  6 21  1  0  0  0  0
  7 10  2  0  0  0  0
  7 20  1  0  0  0  0
  8 27  1  0  0  0  0
  9 27  2  0  0  0  0
 10 28  1  0  0  0  0
 11 12  2  0  0  0  0
 11 29  1  0  0  0  0
 12 30  1  0  0  0  0
 13 22  1  0  0  0  0
 13 28  2  0  0  0  0
 14 23  1  0  0  0  0
 14 25  2  0  0  0  0
 15 24  2  0  0  0  0
 15 26  1  0  0  0  0
 16 30  2  0  0  0  0
 16 31  1  0  0  0  0
 17 32  1  0  0  0  0
 18 32  1  0  0  0  0
 18 33  2  0  0  0  0
 18 34  1  0  0  0  0
 19 21  2  0  0  0  0
 19 39  1  0  0  0  0
 20 22  2  0  0  0  0
 20 40  1  0  0  0  0
 21 52  1  0  0  0  0
 22 41  1  0  0  0  0
 23 26  2  0  0  0  0
 23 55  1  0  0  0  0
 24 25  1  0  0  0  0
 24 56  1  0  0  0  0
 25 62  1  0  0  0  0
 26 63  1  0  0  0  0
 27 86  1  0  0  0  0
 28 87  1  0  0  0  0
 29 31  2  0  0  0  0
 29 86  1  0  0  0  0
 30 88  1  0  0  0  0
 31 89  1  0  0  0  0
 32 69  2  0  0  0  0
 33 70  1  0  0  0  0
 33 74  1  0  0  0  0
 34 75  1  0  0  0  0
 34 81  2  0  0  0  0
 35 53  1  0  0  0  0
 35 76  1  0  0  0  0
 35 82  2  0  0  0  0
 36 66  1  0  0  0  0
 36 71  1  0  0  0  0
 36 83  2  0  0  0  0
 37 67  1  0  0  0  0
 37 77  1  0  0  0  0
 37 84  2  0  0  0  0
 38 72  1  0  0  0  0
 38 73  1  0  0  0  0
 38 85  2  0  0  0  0
 39 42  1  0  0  0  0
 40 53  1  0  0  0  0
 41 71  1  0  0  0  0
 42 44  1  0  0  0  0
 43 45  1  0  0  0  0
 43 46  1  0  0  0  0
 44 52  1  0  0  0  0
 45 54  1  0  0  0  0
 46 72  1  0  0  0  0
 47 50  1  0  0  0  0
 47 73  1  0  0  0  0
 48 51  1  0  0  0  0
 48 73  1  0  0  0  0
 49 54  1  0  0  0  0
 49 72  1  0  0  0  0
 50 78  1  0  0  0  0
 51 78  1  0  0  0  0
 52 76  1  0  0  0  0
 53 71  1  0  0  0  0
 54 70  1  0  0  0  0
 57 67  1  0  0  0  0
 58 68  1  0  0  0  0
 59 68  1  0  0  0  0
 60 68  1  0  0  0  0
 61 79  1  0  0  0  0
 62 78  1  0  0  0  0
 63 80  1  0  0  0  0
 64 65  1  0  0  0  0
 64 80  1  0  0  0  0
 65 87  1  0  0  0  0
 66 68  1  0  0  0  0
 66 77  1  0  0  0  0
 67 79  1  0  0  0  0
 69 70  1  0  0  0  0
M  CHG  3  78   1  79   1  80   1
M  ISO  4  38 100  65 101  73 100  87 101
M  END
> <Batch ID>
0147

> <Smiles>
CNC(C)C(=O)NC(C(=O)N1Cc2cc([101O:1][101CH2:1]CNCc3cc(C)c(CN4CC[100N:0]([100C:0](=O)N5CCCC(n6nc(-c7ccc(Oc8ccc(F)cc8F)cc7)c(C(N)=O)c6N)C5)CC4)cc3C)ccc2CC1C(=O)NC1CCCc2ccccc21)C(C)(C)C

> <Shape>
0.299

> <Color>
0.064

> <Negative vol penalty>
0.000

$$$$

  -OEChem-04052321333D

 86 95  0     1  0  0  0  0  0999 V2000
  -19.4324  -33.8481   21.3234 C   0  0  0  0  0  0  0  0  0  0  0  0
  -20.7572  -33.5239   21.0495 C   0  0  0  0  0  0  0  0  0  0  0  0
  -27.0842  -17.7957   19.9873 C   0  0  0  0  0  0  0  0  0  0  0  0
  -29.3050  -17.4145   20.8587 C   0  0  0  0  0  0  0  0  0  0  0  0
  -18.7018  -33.0821   22.2309 C   0  0  0  0  0  0  0  0  0  0  0  0
  -21.3527  -32.4341   21.6838 C   0  0  0  0  0  0  0  0  0  0  0  0
  -25.5338  -28.6334   19.3220 C   0  0  0  0  0  0  0  0  0  0  0  0
  -26.9164  -16.4220   19.8138 C   0  0  0  0  0  0  0  0  0  0  0  0
  -29.1372  -16.0407   20.6853 C   0  0  0  0  0  0  0  0  0  0  0  0
  -26.9223  -28.5790   19.4354 C   0  0  0  0  0  0  0  0  0  0  0  0
  -25.7666  -12.9896   19.4786 C   0  0  0  0  0  0  0  0  0  0  0  0
  -24.5579  -12.4271   19.8887 C   0  0  0  0  0  0  0  0  0  0  0  0
  -33.7047  -27.1986   21.3619 C   0  0  0  0  0  0  0  0  0  0  0  0
  -26.7081  -26.9525   21.2040 C   0  0  0  0  0  0  0  0  0  0  0  0
  -31.5347  -27.2212   20.2666 C   0  0  0  0  0  0  0  0  0  0  0  0
  -24.9761  -13.1754   22.1476 C   0  0  0  0  0  0  0  0  0  0  0  0
  -28.2785  -18.2921   20.5096 C   0  0  0  0  0  0  0  0  0  0  0  0
  -28.1347  -20.4693   21.8312 C   0  0  0  0  0  0  0  0  0  0  0  0
  -19.2856  -31.9766   22.8693 C   0  0  0  0  0  0  0  0  0  0  0  0
  -24.7204  -27.8545   20.1576 C   0  0  0  0  0  0  0  0  0  0  0  0
  -20.6296  -31.6535   22.6016 C   0  0  0  0  0  0  0  0  0  0  0  0
  -33.0644  -26.8764   22.5476 C   0  0  0  0  0  0  0  0  0  0  0  0
  -25.3096  -26.9969   21.0975 C   0  0  0  0  0  0  0  0  0  0  0  0
  -31.6703  -26.7353   22.6069 C   0  0  0  0  0  0  0  0  0  0  0  0
  -32.9291  -27.3656   20.2137 C   0  0  0  0  0  0  0  0  0  0  0  0
  -30.8958  -26.9086   21.4687 C   0  0  0  0  0  0  0  0  0  0  0  0
  -27.9429  -15.5444   20.1629 C   0  0  0  0  0  0  0  0  0  0  0  0
  -27.5096  -27.7406   20.3785 C   0  0  0  0  0  0  0  0  0  0  0  0
  -26.5801  -13.6451   20.4029 C   0  0  0  0  0  0  0  0  0  0  0  0
  -24.1627  -12.5200   21.2232 C   0  0  0  0  0  0  0  0  0  0  0  0
  -26.1848  -13.7380   21.7374 C   0  0  0  0  0  0  0  0  0  0  0  0
  -28.4527  -19.7111   20.6885 C   0  0  0  0  0  0  0  0  0  0  0  0
  -28.4865  -21.7548   21.4993 C   0  0  0  0  0  0  0  0  0  0  0  0
  -27.5716  -20.0491   23.0811 C   0  0  0  0  0  0  0  0  0  0  0  0
  -22.5074  -28.4810   22.3516 C   0  0  0  0  0  0  0  0  0  0  0  0
  -22.1348  -25.2587   22.3334 C   0  0  0  0  0  0  0  0  0  0  0  0
  -23.4840  -22.1898   21.6945 C   0  0  0  0  0  0  0  0  0  0  0  0
  -32.5456  -24.5478   18.6471 C   0  0  0  0  0  0  0  0  0  0  0  0
  -18.4705  -31.2069   23.8782 C   0  0  0  0  0  0  0  0  0  0  0  0
  -23.2249  -27.9047   20.0045 C   0  0  0  0  0  0  0  0  0  0  0  0
  -33.6856  -26.6869   23.8952 C   0  0  0  0  0  0  0  0  0  0  0  0
  -24.4813  -26.1253   22.0045 C   0  0  0  0  0  0  0  0  0  0  0  0
  -19.0613  -29.8429   24.2256 C   0  0  0  0  0  0  0  0  0  0  0  0
  -32.5626  -25.9450   24.6357 C   0  0  0  0  0  0  0  0  0  0  0  0
  -29.2259  -24.1801   17.2537 C   0  0  0  0  0  0  0  0  0  0  0  0
  -20.5582  -29.9622   24.4938 C   0  0  0  0  0  0  0  0  0  0  0  0
  -28.6559  -23.0545   18.1187 C   0  0  0  0  0  0  0  0  0  0  0  0
  -30.7056  -23.9544   16.9575 C   0  0  0  0  0  0  0  0  0  0  0  0
  -30.9893  -22.6582   19.0343 C   0  0  0  0  0  0  0  0  0  0  0  0
  -21.3031  -30.4639   23.2509 C   0  0  1  0  0  0  0  0  0  0  0  0
  -22.4806  -27.4521   21.2569 C   0  0  1  0  0  0  0  0  0  0  0  0
  -29.5020  -22.8397   19.3877 C   0  0  2  0  0  0  0  0  0  0  0  0
  -31.2217  -26.4219   24.0157 C   0  0  0  0  0  0  0  0  0  0  0  0
  -30.7088  -27.6910   24.7092 C   0  0  0  0  0  0  0  0  0  0  0  0
  -30.1653  -25.3162   24.0866 C   0  0  0  0  0  0  0  0  0  0  0  0
  -22.9516  -19.7403   21.8135 C   0  0  0  0  0  0  0  0  0  0  0  0
  -22.5368  -25.3206   25.3574 C   0  0  0  0  0  0  0  0  0  0  0  0
  -22.9431  -22.8512   25.2839 C   0  0  0  0  0  0  0  0  0  0  0  0
  -20.7354  -23.7718   24.5760 C   0  0  0  0  0  0  0  0  0  0  0  0
  -23.8226  -21.8559   18.7735 C   0  0  0  0  0  0  0  0  0  0  0  0
  -29.3990  -26.8053   21.4792 C   0  0  0  0  0  0  0  0  0  1  0  0
  -34.0296  -26.4661   18.1227 C   0  0  0  0  0  0  0  0  0  0  0  0
  -33.5877  -27.7077   18.9190 C   0  0  2  0  0  0  0  0  0  0  0  0
  -22.7524  -24.1068   23.0889 C   0  0  1  0  0  0  0  0  0  0  0  0
  -22.9414  -20.9875   20.9432 C   0  0  2  0  0  0  0  0  0  0  0  0
  -22.2578  -24.0304   24.5609 C   0  0  0  0  0  0  0  0  0  0  0  0
  -28.9669  -20.4532   19.7041 N   0  0  0  0  0  0  0  0  0  0  0  0
  -28.9745  -21.6910   20.2273 N   0  0  0  0  0  0  0  0  0  0  0  0
  -23.0233  -26.2145   21.8208 N   0  0  0  0  0  0  0  0  0  0  0  0
  -31.4573  -23.7758   18.2077 N   0  0  0  0  0  0  0  0  0  0  0  0
  -28.4228  -22.9222   22.1742 N   0  0  0  0  0  0  0  0  0  0  0  0
  -27.2695  -18.6916   23.2551 N   0  0  0  0  0  0  0  0  0  0  0  0
  -21.4692  -29.3911   22.2938 N   0  0  0  0  0  0  0  0  0  0  0  0
  -22.4771  -22.9088   22.3030 N   0  0  0  0  0  0  0  0  0  0  0  0
  -32.9306  -25.5823   17.8031 N   0  0  0  0  0  0  0  0  0  0  0  0
  -34.7895  -28.5983   19.0893 N   0  3  0  0  0  0  0  0  0  0  0  0
  -23.7641  -20.7205   19.7297 N   0  3  0  0  0  0  0  0  0  0  0  0
  -27.3280  -20.8562   24.0099 O   0  0  0  0  0  0  0  0  0  0  0  0
  -23.4027  -28.4504   23.1877 O   0  0  0  0  0  0  0  0  0  0  0  0
  -20.9097  -25.3048   22.1968 O   0  0  0  0  0  0  0  0  0  0  0  0
  -24.6817  -22.4616   21.7404 O   0  0  0  0  0  0  0  0  0  0  0  0
  -33.1282  -24.3343   19.7159 O   0  0  0  0  0  0  0  0  0  0  0  0
  -27.7794  -14.2038   19.9940 O   0  0  0  0  0  0  0  0  0  0  0  0
  -28.8647  -27.6861   20.4917 O   0  0  0  0  0  0  0  0  0  1  0  0
  -23.0013  -11.9810   21.6166 F   0  0  0  0  0  0  0  0  0  0  0  0
  -26.9616  -14.3674   22.6297 F   0  0  0  0  0  0  0  0  0  0  0  0
  1  2  1  0  0  0  0
  1  5  2  0  0  0  0
  2  6  2  0  0  0  0
  3  8  2  0  0  0  0
  3 17  1  0  0  0  0
  4  9  1  0  0  0  0
  4 17  2  0  0  0  0
  5 19  1  0  0  0  0
  6 21  1  0  0  0  0
  7 10  2  0  0  0  0
  7 20  1  0  0  0  0
  8 27  1  0  0  0  0
  9 27  2  0  0  0  0
 10 28  1  0  0  0  0
 11 12  2  0  0  0  0
 11 29  1  0  0  0  0
 12 30  1  0  0  0  0
 13 22  2  0  0  0  0
 13 25  1  0  0  0  0
 14 23  1  0  0  0  0
 14 28  2  0  0  0  0
 15 25  2  0  0  0  0
 15 26  1  0  0  0  0
 16 30  2  0  0  0  0
 16 31  1  0  0  0  0
 17 32  1  0  0  0  0
 18 32  1  0  0  0  0
 18 33  2  0  0  0  0
 18 34  1  0  0  0  0
 19 21  2  0  0  0  0
 19 39  1  0  0  0  0
 20 23  2  0  0  0  0
 20 40  1  0  0  0  0
 21 50  1  0  0  0  0
 22 24  1  0  0  0  0
 22 41  1  0  0  0  0
 23 42  1  0  0  0  0
 24 26  2  0  0  0  0
 24 53  1  0  0  0  0
 25 63  1  0  0  0  0
 26 61  1  0  0  0  0
 27 83  1  0  0  0  0
 28 84  1  0  0  0  0
 29 31  2  0  0  0  0
 29 83  1  0  0  0  0
 30 85  1  0  0  0  0
 31 86  1  0  0  0  0
 32 67  2  0  0  0  0
 33 68  1  0  0  0  0
 33 71  1  0  0  0  0
 34 72  1  0  0  0  0
 34 78  2  0  0  0  0
 35 51  1  0  0  0  0
 35 73  1  0  0  0  0
 35 79  2  0  0  0  0
 36 64  1  0  0  0  0
 36 69  1  0  0  0  0
 36 80  2  0  0  0  0
 37 65  1  0  0  0  0
 37 74  1  0  0  0  0
 37 81  2  0  0  0  0
 38 70  1  0  0  0  0
 38 75  1  0  0  0  0
 38 82  2  0  0  0  0
 39 43  1  0  0  0  0
 40 51  1  0  0  0  0
 41 44  1  0  0  0  0
 42 69  1  0  0  0  0
 43 46  1  0  0  0  0
 44 53  1  0  0  0  0
 45 47  1  0  0  0  0
 45 48  1  0  0  0  0
 46 50  1  0  0  0  0
 47 52  1  0  0  0  0
 48 70  1  0  0  0  0
 49 52  1  0  0  0  0
 49 70  1  0  0  0  0
 50 73  1  0  0  0  0
 51 69  1  0  0  0  0
 52 68  1  0  0  0  0
 53 54  1  0  0  0  0
 53 55  1  0  0  0  0
 56 65  1  0  0  0  0
 57 66  1  0  0  0  0
 58 66  1  0  0  0  0
 59 66  1  0  0  0  0
 60 77  1  0  0  0  0
 61 84  1  0  0  0  0
 62 63  1  0  0  0  0
 62 75  1  0  0  0  0
 63 76  1  0  0  0  0
 64 66  1  0  0  0  0
 64 74  1  0  0  0  0
 65 77  1  0  0  0  0
 67 68  1  0  0  0  0
M  CHG  2  76   1  77   1
M  ISO  4  38 100  61 101  75 100  84 101
M  END
> <Batch ID>
0147

> <Smiles>
CNC(C)C(=O)NC(C(=O)N1Cc2cc([101O:1][101CH2:1]c3cc(C(N)C[100NH:0][100C:0](=O)N4CCCC(n5nc(-c6ccc(Oc7ccc(F)cc7F)cc6)c(C(N)=O)c5N)C4)cc4c3C(C)(C)CC4)ccc2CC1C(=O)NC1CCCc2ccccc21)C(C)(C)C

> <Shape>
0.206

> <Color>
0.084

> <Negative vol penalty>
0.000

$$$$

  -OEChem-04052321333D

 86 95  0     1  0  0  0  0  0999 V2000
  -19.2075  -27.5659   26.2284 C   0  0  0  0  0  0  0  0  0  0  0  0
  -20.5666  -27.3793   25.9974 C   0  0  0  0  0  0  0  0  0  0  0  0
  -25.8528  -13.5196   21.3484 C   0  0  0  0  0  0  0  0  0  0  0  0
  -25.0568  -14.2048   19.1727 C   0  0  0  0  0  0  0  0  0  0  0  0
  -18.3447  -27.7959   25.1577 C   0  0  0  0  0  0  0  0  0  0  0  0
  -21.0635  -27.4215   24.6952 C   0  0  0  0  0  0  0  0  0  0  0  0
  -25.3155  -30.1472   24.3258 C   0  0  0  0  0  0  0  0  0  0  0  0
  -24.7891  -12.6237   21.4555 C   0  0  0  0  0  0  0  0  0  0  0  0
  -23.9931  -13.3089   19.2797 C   0  0  0  0  0  0  0  0  0  0  0  0
  -26.4981  -29.5428   24.7498 C   0  0  0  0  0  0  0  0  0  0  0  0
  -23.9900   -9.5543   20.2837 C   0  0  0  0  0  0  0  0  0  0  0  0
  -24.2699   -8.2678   20.7442 C   0  0  0  0  0  0  0  0  0  0  0  0
  -27.0578  -29.0435   22.4571 C   0  0  0  0  0  0  0  0  0  0  0  0
  -27.4596  -24.0276   22.6112 C   0  0  0  0  0  0  0  0  0  0  0  0
  -22.7671   -8.6070   22.6053 C   0  0  0  0  0  0  0  0  0  0  0  0
  -25.7774  -23.7555   24.2704 C   0  0  0  0  0  0  0  0  0  0  0  0
  -25.9866  -14.3102   20.2071 C   0  0  0  0  0  0  0  0  0  0  0  0
  -28.3579  -14.9839   19.5507 C   0  0  0  0  0  0  0  0  0  0  0  0
  -18.8327  -27.8506   23.8426 C   0  0  0  0  0  0  0  0  0  0  0  0
  -24.9894  -30.1948   22.9628 C   0  0  0  0  0  0  0  0  0  0  0  0
  -20.2062  -27.6512   23.6057 C   0  0  0  0  0  0  0  0  0  0  0  0
  -25.8717  -29.6514   22.0182 C   0  0  0  0  0  0  0  0  0  0  0  0
  -27.0143  -24.2633   23.9072 C   0  0  0  0  0  0  0  0  0  0  0  0
  -26.6655  -23.3015   21.7305 C   0  0  0  0  0  0  0  0  0  0  0  0
  -23.8592  -12.5183   20.4211 C   0  0  0  0  0  0  0  0  0  0  0  0
  -27.3681  -28.9883   23.8157 C   0  0  0  0  0  0  0  0  0  0  0  0
  -23.0987  -10.3673   20.9840 C   0  0  0  0  0  0  0  0  0  0  0  0
  -23.6584   -7.7941   21.9050 C   0  0  0  0  0  0  0  0  0  0  0  0
  -22.4872   -9.8936   22.1448 C   0  0  0  0  0  0  0  0  0  0  0  0
  -27.0849  -15.2363   20.0961 C   0  0  0  0  0  0  0  0  0  0  0  0
  -25.4443  -22.8365   22.1913 C   0  0  0  0  0  0  0  0  0  0  0  0
  -29.0290  -16.1753   19.6794 C   0  0  0  0  0  0  0  0  0  0  0  0
  -28.8865  -13.7801   18.9787 C   0  0  0  0  0  0  0  0  0  0  0  0
  -22.6226  -29.0425   21.1811 C   0  0  0  0  0  0  0  0  0  0  0  0
  -24.0562  -30.7790   18.8463 C   0  0  0  0  0  0  0  0  0  0  0  0
  -26.8977  -32.2514   17.6610 C   0  0  0  0  0  0  0  0  0  0  0  0
  -27.2904  -21.7272   19.9087 C   0  0  0  0  0  0  0  0  0  0  0  0
  -17.8544  -28.0549   22.7131 C   0  0  0  0  0  0  0  0  0  0  0  0
  -23.7226  -30.8740   22.5195 C   0  0  0  0  0  0  0  0  0  0  0  0
  -25.5776  -29.6944   20.5416 C   0  0  0  0  0  0  0  0  0  0  0  0
  -18.5174  -28.4574   21.3983 C   0  0  0  0  0  0  0  0  0  0  0  0
  -29.2268  -20.0962   22.4025 C   0  0  0  0  0  0  0  0  0  0  0  0
  -19.7237  -27.5680   21.1145 C   0  0  0  0  0  0  0  0  0  0  0  0
  -29.0107  -18.6269   22.0422 C   0  0  0  0  0  0  0  0  0  0  0  0
  -27.0474  -24.4776   18.2293 C   0  0  0  0  0  0  0  0  0  0  0  0
  -26.7961  -25.4083   19.3779 C   0  0  0  0  0  0  0  0  0  0  0  0
  -27.9507  -20.9213   22.2323 C   0  0  0  0  0  0  0  0  0  0  0  0
  -27.1149  -19.3297   20.5315 C   0  0  0  0  0  0  0  0  0  0  0  0
  -20.7870  -27.7145   22.2097 C   0  0  1  0  0  0  0  0  0  0  0  0
  -23.2445  -30.4099   21.1472 C   0  0  1  0  0  0  0  0  0  0  0  0
  -28.3954  -18.4872   20.6386 C   0  0  2  0  0  0  0  0  0  0  0  0
  -27.6191  -24.1664   19.5854 C   0  0  0  0  0  0  0  0  0  0  0  0
  -27.7682  -33.5653   15.7082 C   0  0  0  0  0  0  0  0  0  0  0  0
  -24.1176  -28.2339   17.1644 C   0  0  0  0  0  0  0  0  0  0  0  0
  -25.8001  -29.3407   15.6769 C   0  0  0  0  0  0  0  0  0  0  0  0
  -23.5104  -30.3049   15.9008 C   0  0  0  0  0  0  0  0  0  0  0  0
  -27.5952  -34.5599   19.3766 C   0  0  0  0  0  0  0  0  0  0  0  0
  -23.3916  -21.6725   21.8956 C   0  0  0  0  0  0  0  0  0  0  0  0
  -29.4736  -26.6019   25.5045 C   0  0  0  0  0  0  0  0  0  0  0  0
  -29.0813  -25.5325   24.4921 C   0  0  0  0  0  0  0  0  0  0  0  0
  -28.5170  -27.7884   25.5175 C   0  0  0  0  0  0  0  0  0  1  0  0
  -25.1363  -30.5122   17.8258 C   0  0  1  0  0  0  0  0  0  0  0  0
  -27.1542  -33.6375   17.0977 C   0  0  2  0  0  0  0  0  0  0  0  0
  -24.6460  -29.5952   16.6699 C   0  0  0  0  0  0  0  0  0  0  0  0
  -24.9781  -23.0456   23.4429 N   0  0  0  0  0  0  0  0  0  0  0  0
  -26.9528  -16.4896   20.5386 N   0  0  0  0  0  0  0  0  0  0  0  0
  -28.1515  -17.0353   20.2715 N   0  0  0  0  0  0  0  0  0  0  0  0
  -24.3236  -30.3637   20.1585 N   0  0  0  0  0  0  0  0  0  0  0  0
  -27.3780  -20.7245   20.8932 N   0  0  0  0  0  0  0  0  0  0  0  0
  -30.2783  -16.5607   19.3430 N   0  0  0  0  0  0  0  0  0  0  0  0
  -28.0620  -12.6480   18.9246 N   0  0  0  0  0  0  0  0  0  0  0  0
  -27.7857  -24.9812   24.8077 N   0  0  0  0  0  0  0  0  0  0  0  0
  -21.5349  -28.9400   22.0273 N   0  0  0  0  0  0  0  0  0  0  0  0
  -25.6170  -31.8187   17.3893 N   0  0  0  0  0  0  0  0  0  0  0  0
  -27.1170  -23.0482   20.3814 N   0  0  0  0  0  0  0  0  0  0  0  0
  -28.0843  -34.3928   17.9838 N   0  3  0  0  0  0  0  0  0  0  0  0
  -30.0607  -13.7057   18.5438 O   0  0  0  0  0  0  0  0  0  0  0  0
  -23.0937  -28.1472   20.4897 O   0  0  0  0  0  0  0  0  0  0  0  0
  -23.0167  -31.3416   18.4936 O   0  0  0  0  0  0  0  0  0  0  0  0
  -27.7495  -31.6146   18.2770 O   0  0  0  0  0  0  0  0  0  0  0  0
  -27.3319  -21.4602   18.7016 O   0  0  0  0  0  0  0  0  0  0  0  0
  -22.8213  -11.6440   20.5251 O   0  0  0  0  0  0  0  0  0  0  0  0
  -28.5228  -28.3971   24.2269 O   0  0  0  0  0  0  0  0  0  1  0  0
  -24.6296  -22.1176   21.3551 O   0  0  0  0  0  0  0  0  0  0  0  0
  -23.9261   -6.5581   22.3462 F   0  0  0  0  0  0  0  0  0  0  0  0
  -21.6292  -10.6695   22.8212 F   0  0  0  0  0  0  0  0  0  0  0  0
  1  2  1  0  0  0  0
  1  5  2  0  0  0  0
  2  6  2  0  0  0  0
  3  8  2  0  0  0  0
  3 17  1  0  0  0  0
  4  9  1  0  0  0  0
  4 17  2  0  0  0  0
  5 19  1  0  0  0  0
  6 21  1  0  0  0  0
  7 10  2  0  0  0  0
  7 20  1  0  0  0  0
  8 25  1  0  0  0  0
  9 25  2  0  0  0  0
 10 26  1  0  0  0  0
 11 12  2  0  0  0  0
 11 27  1  0  0  0  0
 12 28  1  0  0  0  0
 13 22  1  0  0  0  0
 13 26  2  0  0  0  0
 14 23  2  0  0  0  0
 14 24  1  0  0  0  0
 15 28  2  0  0  0  0
 15 29  1  0  0  0  0
 16 23  1  0  0  0  0
 16 65  2  0  0  0  0
 17 30  1  0  0  0  0
 18 30  1  0  0  0  0
 18 32  2  0  0  0  0
 18 33  1  0  0  0  0
 19 21  2  0  0  0  0
 19 38  1  0  0  0  0
 20 22  2  0  0  0  0
 20 39  1  0  0  0  0
 21 49  1  0  0  0  0
 22 40  1  0  0  0  0
 23 72  1  0  0  0  0
 24 31  2  0  0  0  0
 24 75  1  0  0  0  0
 25 82  1  0  0  0  0
 26 83  1  0  0  0  0
 27 29  2  0  0  0  0
 27 82  1  0  0  0  0
 28 85  1  0  0  0  0
 29 86  1  0  0  0  0
 30 66  2  0  0  0  0
 31 65  1  0  0  0  0
 31 84  1  0  0  0  0
 32 67  1  0  0  0  0
 32 70  1  0  0  0  0
 33 71  1  0  0  0  0
 33 77  2  0  0  0  0
 34 50  1  0  0  0  0
 34 73  1  0  0  0  0
 34 78  2  0  0  0  0
 35 62  1  0  0  0  0
 35 68  1  0  0  0  0
 35 79  2  0  0  0  0
 36 63  1  0  0  0  0
 36 74  1  0  0  0  0
 36 80  2  0  0  0  0
 37 69  1  0  0  0  0
 37 75  1  0  0  0  0
 37 81  2  0  0  0  0
 38 41  1  0  0  0  0
 39 50  1  0  0  0  0
 40 68  1  0  0  0  0
 41 43  1  0  0  0  0
 42 44  1  0  0  0  0
 42 47  1  0  0  0  0
 43 49  1  0  0  0  0
 44 51  1  0  0  0  0
 45 46  1  0  0  0  0
 45 52  1  0  0  0  0
 46 52  1  0  0  0  0
 47 69  1  0  0  0  0
 48 51  1  0  0  0  0
 48 69  1  0  0  0  0
 49 73  1  0  0  0  0
 50 68  1  0  0  0  0
 51 67  1  0  0  0  0
 52 75  1  0  0  0  0
 53 63  1  0  0  0  0
 54 64  1  0  0  0  0
 55 64  1  0  0  0  0
 56 64  1  0  0  0  0
 57 76  1  0  0  0  0
 58 84  1  0  0  0  0
 59 60  1  0  0  0  0
 59 61  1  0  0  0  0
 60 72  1  0  0  0  0
 61 83  1  0  0  0  0
 62 64  1  0  0  0  0
 62 74  1  0  0  0  0
 63 76  1  0  0  0  0
 66 67  1  0  0  0  0
M  CHG  1  76   1
M  ISO  4  37 100  61 101  75 100  83 101
M  END
> <Batch ID>
0147

> <Smiles>
CNC(C)C(=O)NC(C(=O)N1Cc2cc([101O:1][101CH2:1]CCNc3cnc(OC)c([100N:0](C4CC4)[100C:0](=O)N4CCCC(n5nc(-c6ccc(Oc7ccc(F)cc7F)cc6)c(C(N)=O)c5N)C4)c3)ccc2CC1C(=O)NC1CCCc2ccccc21)C(C)(C)C

> <Shape>
0.232

> <Color>
0.076

> <Negative vol penalty>
0.000

$$$$

  -OEChem-04052321333D

 89 98  0     1  0  0  0  0  0999 V2000
  -28.3535  -36.9628   20.6158 C   0  0  0  0  0  0  0  0  0  0  0  0
  -28.7274  -35.6420   20.3898 C   0  0  0  0  0  0  0  0  0  0  0  0
  -22.6027  -10.4778   20.3377 C   0  0  0  0  0  0  0  0  0  0  0  0
  -24.5439   -9.3779   21.2645 C   0  0  0  0  0  0  0  0  0  0  0  0
  -27.3833  -37.2574   21.5729 C   0  0  0  0  0  0  0  0  0  0  0  0
  -28.1320  -34.6151   21.1215 C   0  0  0  0  0  0  0  0  0  0  0  0
  -26.8264  -28.9667   19.1475 C   0  0  0  0  0  0  0  0  0  0  0  0
  -21.8257   -9.3588   20.6369 C   0  0  0  0  0  0  0  0  0  0  0  0
  -23.7668   -8.2588   21.5637 C   0  0  0  0  0  0  0  0  0  0  0  0
  -27.4894  -27.7481   19.2859 C   0  0  0  0  0  0  0  0  0  0  0  0
  -21.5512   -7.3301   23.9404 C   0  0  0  0  0  0  0  0  0  0  0  0
  -21.7089   -6.7514   25.1997 C   0  0  0  0  0  0  0  0  0  0  0  0
  -26.0957  -27.2117   21.1804 C   0  0  0  0  0  0  0  0  0  0  0  0
  -30.5013  -22.7775   22.8679 C   0  0  0  0  0  0  0  0  0  0  0  0
  -29.1189  -24.0822   24.3592 C   0  0  0  0  0  0  0  0  0  0  0  0
  -22.3767   -4.6745   24.1616 C   0  0  0  0  0  0  0  0  0  0  0  0
  -23.9618  -10.4874   20.6514 C   0  0  0  0  0  0  0  0  0  0  0  0
  -24.9925  -12.2047   19.0715 C   0  0  0  0  0  0  0  0  0  0  0  0
  -26.7689  -36.2328   22.3099 C   0  0  0  0  0  0  0  0  0  0  0  0
  -25.7986  -29.3223   20.0327 C   0  0  0  0  0  0  0  0  0  0  0  0
  -27.1537  -34.8964   22.0902 C   0  0  0  0  0  0  0  0  0  0  0  0
  -25.4195  -28.4343   21.0495 C   0  0  0  0  0  0  0  0  0  0  0  0
  -30.5251  -21.7388   23.7985 C   0  0  0  0  0  0  0  0  0  0  0  0
  -29.1427  -23.0434   25.2899 C   0  0  0  0  0  0  0  0  0  0  0  0
  -29.8457  -21.8718   25.0095 C   0  0  0  0  0  0  0  0  0  0  0  0
  -22.4077   -8.2492   21.2499 C   0  0  0  0  0  0  0  0  0  0  0  0
  -27.1261  -26.8716   20.3042 C   0  0  0  0  0  0  0  0  0  0  0  0
  -21.8061   -6.5810   22.7917 C   0  0  0  0  0  0  0  0  0  0  0  0
  -29.7983  -23.9492   23.1482 C   0  0  0  0  0  0  0  0  0  0  0  0
  -22.1217   -5.4236   25.3103 C   0  0  0  0  0  0  0  0  0  0  0  0
  -22.2189   -5.2532   22.9023 C   0  0  0  0  0  0  0  0  0  0  0  0
  -24.7651  -11.6429   20.3421 C   0  0  0  0  0  0  0  0  0  0  0  0
  -25.8152  -13.2777   19.3128 C   0  0  0  0  0  0  0  0  0  0  0  0
  -24.5037  -11.7934   17.7879 C   0  0  0  0  0  0  0  0  0  0  0  0
  -25.3589  -31.6669   22.1335 C   0  0  0  0  0  0  0  0  0  0  0  0
  -22.3975  -30.3658   22.3782 C   0  0  0  0  0  0  0  0  0  0  0  0
  -20.3993  -27.6228   22.0176 C   0  0  0  0  0  0  0  0  0  0  0  0
  -26.1466  -17.1104   23.8521 C   0  0  0  0  0  0  0  0  0  0  0  0
  -25.7593  -36.6040   23.3670 C   0  0  0  0  0  0  0  0  0  0  0  0
  -25.0753  -30.6288   19.8536 C   0  0  0  0  0  0  0  0  0  0  0  0
  -24.3090  -28.7600   22.0135 C   0  0  0  0  0  0  0  0  0  0  0  0
  -24.9073  -35.4273   23.8356 C   0  0  0  0  0  0  0  0  0  0  0  0
  -28.5536  -14.3450   23.3683 C   0  0  0  0  0  0  0  0  0  0  0  0
  -25.7845  -34.2111   24.1154 C   0  0  0  0  0  0  0  0  0  0  0  0
  -28.0570  -13.5896   22.1341 C   0  0  0  0  0  0  0  0  0  0  0  0
  -27.4839  -19.9698   25.9475 C   0  0  0  0  0  0  0  0  0  0  0  0
  -29.0656  -19.3802   24.0512 C   0  0  0  0  0  0  0  0  0  0  0  0
  -28.2708  -15.8410   23.2818 C   0  0  0  0  0  0  0  0  0  0  0  0
  -26.4716  -18.9192   25.4837 C   0  0  0  0  0  0  0  0  0  0  0  0
  -27.7412  -19.0237   23.3720 C   0  0  0  0  0  0  0  0  0  0  0  0
  -26.0341  -15.0882   22.4567 C   0  0  0  0  0  0  0  0  0  0  0  0
  -26.5130  -33.7527   22.8463 C   0  0  1  0  0  0  0  0  0  0  0  0
  -24.3899  -31.1120   21.1280 C   0  0  1  0  0  0  0  0  0  0  0  0
  -26.8627  -14.2801   21.4493 C   0  0  2  0  0  0  0  0  0  0  0  0
  -28.9407  -19.6065   25.5830 C   0  0  0  0  0  0  0  0  0  0  0  0
  -31.2845  -20.4945   23.4727 C   0  0  0  0  0  0  0  0  0  0  0  0
  -28.4090  -23.2110   26.5801 C   0  0  0  0  0  0  0  0  0  0  0  0
  -29.3792  -18.3375   26.3430 C   0  0  0  0  0  0  0  0  0  0  0  0
  -18.0307  -26.8561   22.3322 C   0  0  0  0  0  0  0  0  0  0  0  0
  -22.8486  -30.2167   25.3922 C   0  0  0  0  0  0  0  0  0  0  0  0
  -20.9254  -28.6197   25.5308 C   0  0  0  0  0  0  0  0  0  0  0  0
  -20.5548  -30.9480   24.7157 C   0  0  0  0  0  0  0  0  0  0  0  0
  -20.0956  -27.0020   19.1399 C   0  0  0  0  0  0  0  0  0  0  0  0
  -29.8719  -20.7556   26.0096 C   0  0  0  0  0  0  0  0  0  0  0  0
  -29.1369  -25.6319   20.0290 C   0  0  0  0  0  0  0  0  0  1  0  0
  -29.8769  -24.6044   20.8634 C   0  0  0  0  0  0  0  0  0  0  0  0
  -21.7678  -29.2951   23.2362 C   0  0  1  0  0  0  0  0  0  0  0  0
  -19.0423  -27.4445   21.3610 C   0  0  2  0  0  0  0  0  0  0  0  0
  -21.5464  -29.7643   24.7019 C   0  0  0  0  0  0  0  0  0  0  0  0
  -25.3928  -12.3042   21.3181 N   0  0  0  0  0  0  0  0  0  0  0  0
  -26.0228  -13.2926   20.6607 N   0  0  0  0  0  0  0  0  0  0  0  0
  -23.6363  -30.0522   21.8011 N   0  0  0  0  0  0  0  0  0  0  0  0
  -26.8322  -16.1147   23.1373 N   0  0  0  0  0  0  0  0  0  0  0  0
  -26.8678  -18.2453   24.2478 N   0  0  0  0  0  0  0  0  0  0  0  0
  -26.3742  -14.2004   18.5013 N   0  0  0  0  0  0  0  0  0  0  0  0
  -25.2622  -10.8777   17.0461 N   0  0  0  0  0  0  0  0  0  0  0  0
  -25.6127  -33.0170   21.9845 N   0  0  0  0  0  0  0  0  0  0  0  0
  -20.5475  -28.8865   22.5489 N   0  0  0  0  0  0  0  0  0  0  0  0
  -19.1508  -26.5337   20.1864 N   0  3  0  0  0  0  0  0  0  0  0  0
  -23.4343  -12.2378   17.3057 O   0  0  0  0  0  0  0  0  0  0  0  0
  -25.8394  -30.9253   22.9826 O   0  0  0  0  0  0  0  0  0  0  0  0
  -21.8086  -31.4380   22.2199 O   0  0  0  0  0  0  0  0  0  0  0  0
  -21.2421  -26.7291   22.0585 O   0  0  0  0  0  0  0  0  0  0  0  0
  -24.9485  -16.9825   24.1391 O   0  0  0  0  0  0  0  0  0  0  0  0
  -21.6498   -7.1572   21.5422 O   0  0  0  0  0  0  0  0  0  0  0  0
  -27.7765  -25.6737   20.4428 O   0  0  0  0  0  0  0  0  0  1  0  0
  -29.7772  -24.9633   22.2407 O   0  0  0  0  0  0  0  0  0  0  0  0
  -22.2746   -4.8685   26.5197 F   0  0  0  0  0  0  0  0  0  0  0  0
  -22.4664   -4.5288   21.8023 F   0  0  0  0  0  0  0  0  0  0  0  0
  1  2  1  0  0  0  0
  1  5  2  0  0  0  0
  2  6  2  0  0  0  0
  3  8  2  0  0  0  0
  3 17  1  0  0  0  0
  4  9  1  0  0  0  0
  4 17  2  0  0  0  0
  5 19  1  0  0  0  0
  6 21  1  0  0  0  0
  7 10  2  0  0  0  0
  7 20  1  0  0  0  0
  8 26  1  0  0  0  0
  9 26  2  0  0  0  0
 10 27  1  0  0  0  0
 11 12  2  0  0  0  0
 11 28  1  0  0  0  0
 12 30  1  0  0  0  0
 13 22  1  0  0  0  0
 13 27  2  0  0  0  0
 14 23  2  0  0  0  0
 14 29  1  0  0  0  0
 15 24  1  0  0  0  0
 15 29  2  0  0  0  0
 16 30  2  0  0  0  0
 16 31  1  0  0  0  0
 17 32  1  0  0  0  0
 18 32  1  0  0  0  0
 18 33  2  0  0  0  0
 18 34  1  0  0  0  0
 19 21  2  0  0  0  0
 19 39  1  0  0  0  0
 20 22  2  0  0  0  0
 20 40  1  0  0  0  0
 21 52  1  0  0  0  0
 22 41  1  0  0  0  0
 23 25  1  0  0  0  0
 23 56  1  0  0  0  0
 24 25  2  0  0  0  0
 24 57  1  0  0  0  0
 25 64  1  0  0  0  0
 26 85  1  0  0  0  0
 27 86  1  0  0  0  0
 28 31  2  0  0  0  0
 28 85  1  0  0  0  0
 29 87  1  0  0  0  0
 30 88  1  0  0  0  0
 31 89  1  0  0  0  0
 32 70  2  0  0  0  0
 33 71  1  0  0  0  0
 33 75  1  0  0  0  0
 34 76  1  0  0  0  0
 34 80  2  0  0  0  0
 35 53  1  0  0  0  0
 35 77  1  0  0  0  0
 35 81  2  0  0  0  0
 36 67  1  0  0  0  0
 36 72  1  0  0  0  0
 36 82  2  0  0  0  0
 37 68  1  0  0  0  0
 37 78  1  0  0  0  0
 37 83  2  0  0  0  0
 38 73  1  0  0  0  0
 38 74  1  0  0  0  0
 38 84  2  0  0  0  0
 39 42  1  0  0  0  0
 40 53  1  0  0  0  0
 41 72  1  0  0  0  0
 42 44  1  0  0  0  0
 43 45  1  0  0  0  0
 43 48  1  0  0  0  0
 44 52  1  0  0  0  0
 45 54  1  0  0  0  0
 46 49  1  0  0  0  0
 46 55  1  0  0  0  0
 47 50  1  0  0  0  0
 47 55  1  0  0  0  0
 48 73  1  0  0  0  0
 49 74  1  0  0  0  0
 50 74  1  0  0  0  0
 51 54  1  0  0  0  0
 51 73  1  0  0  0  0
 52 77  1  0  0  0  0
 53 72  1  0  0  0  0
 54 71  1  0  0  0  0
 55 58  1  0  0  0  0
 55 64  1  0  0  0  0
 59 68  1  0  0  0  0
 60 69  1  0  0  0  0
 61 69  1  0  0  0  0
 62 69  1  0  0  0  0
 63 79  1  0  0  0  0
 65 66  1  0  0  0  0
 65 86  1  0  0  0  0
 66 87  1  0  0  0  0
 67 69  1  0  0  0  0
 67 78  1  0  0  0  0
 68 79  1  0  0  0  0
 70 71  1  0  0  0  0
M  CHG  1  79   1
M  ISO  4  38 100  65 101  74 100  86 101
M  END
> <Batch ID>
0147

> <Smiles>
CNC(C)C(=O)NC(C(=O)N1Cc2cc([101O:1][101CH2:1]COc3cc(C)c(CC4(C)CC[100N:0]([100C:0](=O)N5CCCC(n6nc(-c7ccc(Oc8ccc(F)cc8F)cc7)c(C(N)=O)c6N)C5)CC4)c(C)c3)ccc2CC1C(=O)NC1CCCc2ccccc21)C(C)(C)C

> <Shape>
0.269

> <Color>
0.112

> <Negative vol penalty>
0.000

$$$$

  -OEChem-04052321333D

 87 95  0     1  0  0  0  0  0999 V2000
  -20.3839  -24.2063   23.4486 C   0  0  0  0  0  0  0  0  0  0  0  0
  -21.5715  -24.9170   23.5803 C   0  0  0  0  0  0  0  0  0  0  0  0
  -24.1260  -10.0333   22.2059 C   0  0  0  0  0  0  0  0  0  0  0  0
  -22.8870  -10.5219   20.1901 C   0  0  0  0  0  0  0  0  0  0  0  0
  -19.3291  -24.7486   22.7175 C   0  0  0  0  0  0  0  0  0  0  0  0
  -21.7006  -26.1752   22.9911 C   0  0  0  0  0  0  0  0  0  0  0  0
  -25.7817  -28.7199   24.0263 C   0  0  0  0  0  0  0  0  0  0  0  0
  -23.4463   -8.8216   22.3300 C   0  0  0  0  0  0  0  0  0  0  0  0
  -22.2074   -9.3102   20.3141 C   0  0  0  0  0  0  0  0  0  0  0  0
  -27.0336  -28.3761   23.5181 C   0  0  0  0  0  0  0  0  0  0  0  0
  -20.4197   -7.7618   23.3980 C   0  0  0  0  0  0  0  0  0  0  0  0
  -19.9339   -7.4183   24.6596 C   0  0  0  0  0  0  0  0  0  0  0  0
  -26.8751  -30.1795   21.9239 C   0  0  0  0  0  0  0  0  0  0  0  0
  -27.9724  -24.3458   20.5680 C   0  0  0  0  0  0  0  0  0  0  0  0
  -26.0928  -25.6299   19.7587 C   0  0  0  0  0  0  0  0  0  0  0  0
  -21.2925   -5.4206   24.6388 C   0  0  0  0  0  0  0  0  0  0  0  0
  -23.8463  -10.8835   21.1360 C   0  0  0  0  0  0  0  0  0  0  0  0
  -25.7548  -12.3674   20.3216 C   0  0  0  0  0  0  0  0  0  0  0  0
  -19.4505  -26.0086   22.1088 C   0  0  0  0  0  0  0  0  0  0  0  0
  -25.0611  -29.7912   23.4790 C   0  0  0  0  0  0  0  0  0  0  0  0
  -20.6388  -26.7499   22.2693 C   0  0  0  0  0  0  0  0  0  0  0  0
  -25.6154  -30.5366   22.4286 C   0  0  0  0  0  0  0  0  0  0  0  0
  -27.0995  -23.3663   21.0413 C   0  0  0  0  0  0  0  0  0  0  0  0
  -25.7232  -23.5185   20.8733 C   0  0  0  0  0  0  0  0  0  0  0  0
  -22.4871   -8.4600   21.3841 C   0  0  0  0  0  0  0  0  0  0  0  0
  -27.5793  -29.1041   22.4648 C   0  0  0  0  0  0  0  0  0  0  0  0
  -21.3419   -6.9347   22.7568 C   0  0  0  0  0  0  0  0  0  0  0  0
  -27.4691  -25.4777   19.9267 C   0  0  0  0  0  0  0  0  0  0  0  0
  -25.2198  -24.6504   20.2320 C   0  0  0  0  0  0  0  0  0  0  0  0
  -20.3703   -6.2477   25.2800 C   0  0  0  0  0  0  0  0  0  0  0  0
  -21.7783   -5.7641   23.3772 C   0  0  0  0  0  0  0  0  0  0  0  0
  -24.5476  -12.1357   21.0076 C   0  0  0  0  0  0  0  0  0  0  0  0
  -25.9973  -13.7079   20.4965 C   0  0  0  0  0  0  0  0  0  0  0  0
  -26.5830  -11.4527   19.5914 C   0  0  0  0  0  0  0  0  0  0  0  0
  -22.2615  -30.0905   22.0038 C   0  0  0  0  0  0  0  0  0  0  0  0
  -22.9367  -33.2571   22.2015 C   0  0  0  0  0  0  0  0  0  0  0  0
  -25.2986  -35.7031   22.4927 C   0  0  0  0  0  0  0  0  0  0  0  0
  -24.2705  -18.9005   20.4452 C   0  0  0  0  0  0  0  0  0  0  0  0
  -18.2747  -26.5514   21.3355 C   0  0  0  0  0  0  0  0  0  0  0  0
  -23.7237  -30.1661   24.0562 C   0  0  0  0  0  0  0  0  0  0  0  0
  -24.8912  -31.7082   21.8193 C   0  0  0  0  0  0  0  0  0  0  0  0
  -18.6586  -27.6801   20.3843 C   0  0  0  0  0  0  0  0  0  0  0  0
  -23.7805  -17.0875   23.5389 C   0  0  0  0  0  0  0  0  0  0  0  0
  -19.4947  -28.7173   21.1191 C   0  0  0  0  0  0  0  0  0  0  0  0
  -24.0390  -15.6475   23.0917 C   0  0  0  0  0  0  0  0  0  0  0  0
  -23.0484  -17.8787   22.4590 C   0  0  0  0  0  0  0  0  0  0  0  0
  -23.9886  -16.4498   20.6847 C   0  0  0  0  0  0  0  0  0  0  0  0
  -20.8130  -28.1069   21.6115 C   0  0  1  0  0  0  0  0  0  0  0  0
  -22.8523  -30.9536   23.0825 C   0  0  1  0  0  0  0  0  0  0  0  0
  -24.7462  -15.6038   21.7242 C   0  0  2  0  0  0  0  0  0  0  0  0
  -27.6634  -22.1639   21.7249 C   0  0  0  0  0  0  0  0  0  0  0  0
  -25.5492  -38.1982   22.5879 C   0  0  0  0  0  0  0  0  0  0  0  0
  -23.4208  -21.8362   19.3403 C   0  0  0  0  0  0  0  0  0  0  0  0
  -22.4748  -33.4159   19.1896 C   0  0  0  0  0  0  0  0  0  0  0  0
  -23.6385  -35.6327   19.1984 C   0  0  0  0  0  0  0  0  0  0  0  0
  -21.5277  -35.3289   20.4926 C   0  0  0  0  0  0  0  0  0  0  0  0
  -26.4931  -35.5962   25.1984 C   0  0  0  0  0  0  0  0  0  0  0  0
  -23.4533  -26.0035   19.3926 C   0  0  0  0  0  0  0  0  0  0  0  0
  -24.7827  -22.4712   21.3779 C   0  0  0  0  0  0  0  0  0  0  0  0
  -30.0355  -28.0399   20.0264 C   0  0  0  0  0  0  0  0  0  0  0  0
  -29.0339  -29.0387   20.5845 C   0  0  0  0  0  0  0  0  0  1  0  0
  -29.5485  -26.6063   20.1680 C   0  0  0  0  0  0  0  0  0  0  0  0
  -23.6583  -34.2530   21.3261 C   0  0  1  0  0  0  0  0  0  0  0  0
  -25.3819  -36.9206   23.3956 C   0  0  2  0  0  0  0  0  0  0  0  0
  -24.4738  -21.3713   20.3412 C   0  0  1  0  0  0  0  0  0  0  0  0
  -22.8379  -34.6344   20.0617 C   0  0  0  0  0  0  0  0  0  0  0  0
  -24.0573  -13.2404   21.5761 N   0  0  0  0  0  0  0  0  0  0  0  0
  -24.9611  -14.1792   21.2477 N   0  0  0  0  0  0  0  0  0  0  0  0
  -23.5839  -32.0316   22.4141 N   0  0  0  0  0  0  0  0  0  0  0  0
  -23.7830  -17.8121   21.1877 N   0  0  0  0  0  0  0  0  0  0  0  0
  -26.9937  -14.5177   20.0795 N   0  0  0  0  0  0  0  0  0  0  0  0
  -26.1865  -10.1108   19.5108 N   0  0  0  0  0  0  0  0  0  0  0  0
  -21.4780  -29.0554   22.4774 N   0  0  0  0  0  0  0  0  0  0  0  0
  -23.9930  -35.3840   22.1848 N   0  0  0  0  0  0  0  0  0  0  0  0
  -24.0281  -20.1568   20.9872 N   0  0  0  0  0  0  0  0  0  0  0  0
  -26.5398  -36.7975   24.3257 N   0  3  0  0  0  0  0  0  0  0  0  0
  -27.6517  -11.8112   19.0411 O   0  0  0  0  0  0  0  0  0  0  0  0
  -22.4977  -30.3456   20.8287 O   0  0  0  0  0  0  0  0  0  0  0  0
  -21.8425  -33.5582   22.6849 O   0  0  0  0  0  0  0  0  0  0  0  0
  -26.2926  -35.0981   22.0969 O   0  0  0  0  0  0  0  0  0  0  0  0
  -24.8817  -18.7627   19.3801 O   0  0  0  0  0  0  0  0  0  0  0  0
  -21.8239   -7.2776   21.5047 O   0  0  0  0  0  0  0  0  0  0  0  0
  -23.8784  -24.8164   20.0588 O   0  0  0  0  0  0  0  0  0  0  0  0
  -28.8007  -28.7702   21.9665 O   0  0  0  0  0  0  0  0  0  1  0  0
  -28.3269  -26.4398   19.4609 O   0  0  0  0  0  0  0  0  0  0  0  0
  -19.9049   -5.9188   26.4922 F   0  0  0  0  0  0  0  0  0  0  0  0
  -22.6650   -4.9662   22.7666 F   0  0  0  0  0  0  0  0  0  0  0  0
  1  2  1  0  0  0  0
  1  5  2  0  0  0  0
  2  6  2  0  0  0  0
  3  8  2  0  0  0  0
  3 17  1  0  0  0  0
  4  9  1  0  0  0  0
  4 17  2  0  0  0  0
  5 19  1  0  0  0  0
  6 21  1  0  0  0  0
  7 10  2  0  0  0  0
  7 20  1  0  0  0  0
  8 25  1  0  0  0  0
  9 25  2  0  0  0  0
 10 26  1  0  0  0  0
 11 12  2  0  0  0  0
 11 27  1  0  0  0  0
 12 30  1  0  0  0  0
 13 22  1  0  0  0  0
 13 26  2  0  0  0  0
 14 23  2  0  0  0  0
 14 28  1  0  0  0  0
 15 28  2  0  0  0  0
 15 29  1  0  0  0  0
 16 30  2  0  0  0  0
 16 31  1  0  0  0  0
 17 32  1  0  0  0  0
 18 32  1  0  0  0  0
 18 33  2  0  0  0  0
 18 34  1  0  0  0  0
 19 21  2  0  0  0  0
 19 39  1  0  0  0  0
 20 22  2  0  0  0  0
 20 40  1  0  0  0  0
 21 48  1  0  0  0  0
 22 41  1  0  0  0  0
 23 24  1  0  0  0  0
 23 51  1  0  0  0  0
 24 29  2  0  0  0  0
 24 59  1  0  0  0  0
 25 82  1  0  0  0  0
 26 84  1  0  0  0  0
 27 31  2  0  0  0  0
 27 82  1  0  0  0  0
 28 85  1  0  0  0  0
 29 83  1  0  0  0  0
 30 86  1  0  0  0  0
 31 87  1  0  0  0  0
 32 67  2  0  0  0  0
 33 68  1  0  0  0  0
 33 71  1  0  0  0  0
 34 72  1  0  0  0  0
 34 77  2  0  0  0  0
 35 49  1  0  0  0  0
 35 73  1  0  0  0  0
 35 78  2  0  0  0  0
 36 63  1  0  0  0  0
 36 69  1  0  0  0  0
 36 79  2  0  0  0  0
 37 64  1  0  0  0  0
 37 74  1  0  0  0  0
 37 80  2  0  0  0  0
 38 70  1  0  0  0  0
 38 75  1  0  0  0  0
 38 81  2  0  0  0  0
 39 42  1  0  0  0  0
 40 49  1  0  0  0  0
 41 69  1  0  0  0  0
 42 44  1  0  0  0  0
 43 45  1  0  0  0  0
 43 46  1  0  0  0  0
 44 48  1  0  0  0  0
 45 50  1  0  0  0  0
 46 70  1  0  0  0  0
 47 50  1  0  0  0  0
 47 70  1  0  0  0  0
 48 73  1  0  0  0  0
 49 69  1  0  0  0  0
 50 68  1  0  0  0  0
 52 64  1  0  0  0  0
 53 65  1  0  0  0  0
 54 66  1  0  0  0  0
 55 66  1  0  0  0  0
 56 66  1  0  0  0  0
 57 76  1  0  0  0  0
 58 83  1  0  0  0  0
 59 65  1  0  0  0  0
 60 61  1  0  0  0  0
 60 62  1  0  0  0  0
 61 84  1  0  0  0  0
 62 85  1  0  0  0  0
 63 66  1  0  0  0  0
 63 74  1  0  0  0  0
 64 76  1  0  0  0  0
 65 75  1  0  0  0  0
 67 68  1  0  0  0  0
M  CHG  1  76   1
M  ISO  4  38 100  61 101  75 100  84 101
M  END
> <Batch ID>
0147

> <Smiles>
CNC(C)C(=O)NC(C(=O)N1Cc2cc([101O:1][101CH2:1]CCOc3cc(C)c(CC(C)[100NH:0][100C:0](=O)N4CCCC(n5nc(-c6ccc(Oc7ccc(F)cc7F)cc6)c(C(N)=O)c5N)C4)c(OC)c3)ccc2CC1C(=O)NC1CCCc2ccccc21)C(C)(C)C

> <Shape>
0.287

> <Color>
0.129

> <Negative vol penalty>
0.000

$$$$

  -OEChem-04052321333D

 82 91  0     1  0  0  0  0  0999 V2000
  -27.1669  -35.0601   23.6350 C   0  0  0  0  0  0  0  0  0  0  0  0
  -27.5010  -33.7383   23.3580 C   0  0  0  0  0  0  0  0  0  0  0  0
  -27.0190  -11.7869   20.7942 C   0  0  0  0  0  0  0  0  0  0  0  0
  -25.9798  -13.8712   20.1517 C   0  0  0  0  0  0  0  0  0  0  0  0
  -25.8842  -35.3748   24.0817 C   0  0  0  0  0  0  0  0  0  0  0  0
  -26.5528  -32.7302   23.5287 C   0  0  0  0  0  0  0  0  0  0  0  0
  -26.4667  -29.4681   19.6563 C   0  0  0  0  0  0  0  0  0  0  0  0
  -25.8047  -11.3427   21.3174 C   0  0  0  0  0  0  0  0  0  0  0  0
  -24.7655  -13.4270   20.6748 C   0  0  0  0  0  0  0  0  0  0  0  0
  -27.4731  -28.5042   19.6132 C   0  0  0  0  0  0  0  0  0  0  0  0
  -22.8916   -9.5168   22.4984 C   0  0  0  0  0  0  0  0  0  0  0  0
  -22.4948   -8.2134   22.1997 C   0  0  0  0  0  0  0  0  0  0  0  0
  -25.9474  -26.8787   20.5346 C   0  0  0  0  0  0  0  0  0  0  0  0
  -22.5111   -8.7484   19.8437 C   0  0  0  0  0  0  0  0  0  0  0  0
  -27.1066  -13.0512   20.2114 C   0  0  0  0  0  0  0  0  0  0  0  0
  -28.8333  -13.3412   18.3561 C   0  0  0  0  0  0  0  0  0  0  0  0
  -24.9169  -34.3712   24.2488 C   0  0  0  0  0  0  0  0  0  0  0  0
  -25.1941  -29.1468   20.1498 C   0  0  0  0  0  0  0  0  0  0  0  0
  -25.2563  -33.0316   23.9794 C   0  0  0  0  0  0  0  0  0  0  0  0
  -24.9258  -27.8396   20.5805 C   0  0  0  0  0  0  0  0  0  0  0  0
  -24.6779  -12.1627   21.2577 C   0  0  0  0  0  0  0  0  0  0  0  0
  -27.2144  -27.2100   20.0551 C   0  0  0  0  0  0  0  0  0  0  0  0
  -23.0981  -10.4361   21.4697 C   0  0  0  0  0  0  0  0  0  0  0  0
  -22.3045   -7.8292   20.8723 C   0  0  0  0  0  0  0  0  0  0  0  0
  -22.9079  -10.0518   20.1424 C   0  0  0  0  0  0  0  0  0  0  0  0
  -28.3609  -13.5109   19.6714 C   0  0  0  0  0  0  0  0  0  0  0  0
  -30.0627  -13.9536   18.3512 C   0  0  0  0  0  0  0  0  0  0  0  0
  -28.2160  -12.6884   17.2388 C   0  0  0  0  0  0  0  0  0  0  0  0
  -23.4155  -30.1460   22.5874 C   0  0  0  0  0  0  0  0  0  0  0  0
  -21.1774  -28.2266   21.2349 C   0  0  0  0  0  0  0  0  0  0  0  0
  -20.4824  -25.5485   19.2370 C   0  0  0  0  0  0  0  0  0  0  0  0
  -32.4573  -18.3179   21.6784 C   0  0  0  0  0  0  0  0  0  0  0  0
  -23.5579  -34.7540   24.7792 C   0  0  0  0  0  0  0  0  0  0  0  0
  -24.1116  -30.1910   20.1647 C   0  0  0  0  0  0  0  0  0  0  0  0
  -23.5704  -27.4384   21.1003 C   0  0  0  0  0  0  0  0  0  0  0  0
  -22.4983  -33.6741   24.5757 C   0  0  0  0  0  0  0  0  0  0  0  0
  -33.7261  -15.0205   21.2377 C   0  0  0  0  0  0  0  0  0  0  0  0
  -23.0411  -32.3094   24.9878 C   0  0  0  0  0  0  0  0  0  0  0  0
  -32.5376  -14.2444   20.6676 C   0  0  0  0  0  0  0  0  0  0  0  0
  -32.1982  -20.9016   19.7129 C   0  0  0  0  0  0  0  0  0  0  0  0
  -31.0116  -24.9088   17.9082 C   0  0  0  0  0  0  0  0  0  0  0  0
  -33.2817  -16.0573   22.2671 C   0  0  0  0  0  0  0  0  0  0  0  0
  -31.0534  -16.2152   21.2261 C   0  0  0  0  0  0  0  0  0  0  0  0
  -32.2678  -22.4115   19.5390 C   0  0  0  0  0  0  0  0  0  0  0  0
  -30.1997  -22.6793   20.9339 C   0  0  0  0  0  0  0  0  0  0  0  0
  -24.2478  -31.9132   24.1286 C   0  0  1  0  0  0  0  0  0  0  0  0
  -23.0018  -29.8869   21.1664 C   0  0  1  0  0  0  0  0  0  0  0  0
  -29.6923  -25.0459   18.6203 C   0  0  1  0  0  0  0  0  0  0  0  0
  -30.1077  -21.1613   21.1258 C   0  0  1  0  0  0  0  0  0  0  0  0
  -31.4461  -15.1964   20.1426 C   0  0  2  0  0  0  0  0  0  0  0  0
  -31.5015  -20.5114   21.0195 C   0  0  1  0  0  0  0  0  0  0  0  0
  -30.8816  -24.4701   19.3416 C   0  0  1  0  0  0  0  0  0  0  0  0
  -29.4380  -20.8584   22.4691 C   0  0  0  0  0  0  0  0  0  0  0  0
  -18.5622  -24.1980   18.3505 C   0  0  0  0  0  0  0  0  0  0  0  0
  -20.8833  -26.8667   23.9505 C   0  0  0  0  0  0  0  0  0  0  0  0
  -19.7106  -24.9777   22.7996 C   0  0  0  0  0  0  0  0  0  0  0  0
  -18.7285  -27.2702   22.7470 C   0  0  0  0  0  0  0  0  0  0  0  0
  -21.1569  -26.2150   16.4334 C   0  0  0  0  0  0  0  0  0  0  0  0
  -29.1766  -26.3949   18.9868 C   0  0  0  0  0  0  0  0  0  1  0  0
  -20.7912  -26.7736   21.3720 C   0  0  1  0  0  0  0  0  0  0  0  0
  -19.4957  -25.3714   18.0970 C   0  0  2  0  0  0  0  0  0  0  0  0
  -20.0546  -26.4798   22.7093 C   0  0  0  0  0  0  0  0  0  0  0  0
  -29.2202  -14.1786   20.4458 N   0  0  0  0  0  0  0  0  0  0  0  0
  -30.2449  -14.4339   19.6147 N   0  0  0  0  0  0  0  0  0  0  0  0
  -22.5467  -28.4966   21.1009 N   0  0  0  0  0  0  0  0  0  0  0  0
  -32.2471  -16.9293   21.7058 N   0  0  0  0  0  0  0  0  0  0  0  0
  -30.9948  -14.1227   17.3895 N   0  0  0  0  0  0  0  0  0  0  0  0
  -26.9510  -12.1119   17.4171 N   0  0  0  0  0  0  0  0  0  0  0  0
  -23.8122  -31.4474   22.8295 N   0  0  0  0  0  0  0  0  0  0  0  0
  -20.0192  -26.4423   20.1793 N   0  0  0  0  0  0  0  0  0  0  0  0
  -31.4296  -19.0710   21.1240 N   0  0  0  0  0  0  0  0  0  0  0  0
  -30.8777  -23.0279   19.6139 N   0  3  1  0  0  0  0  0  0  0  0  0
  -20.2204  -25.1277   16.8178 N   0  3  0  0  0  0  0  0  0  0  0  0
  -28.7769  -12.6042   16.1199 O   0  0  0  0  0  0  0  0  0  0  0  0
  -23.3763  -29.2333   23.4041 O   0  0  0  0  0  0  0  0  0  0  0  0
  -20.2961  -29.0896   21.2392 O   0  0  0  0  0  0  0  0  0  0  0  0
  -21.5551  -24.9508   19.2884 O   0  0  0  0  0  0  0  0  0  0  0  0
  -33.4870  -18.8467   22.1108 O   0  0  0  0  0  0  0  0  0  0  0  0
  -23.4928  -11.7295   21.7679 O   0  0  0  0  0  0  0  0  0  0  0  0
  -28.1951  -26.2675   20.0148 O   0  0  0  0  0  0  0  0  0  1  0  0
  -21.9250   -6.5770   20.5855 F   0  0  0  0  0  0  0  0  0  0  0  0
  -23.1059  -10.9302   19.1499 F   0  0  0  0  0  0  0  0  0  0  0  0
  1  2  1  0  0  0  0
  1  5  2  0  0  0  0
  2  6  2  0  0  0  0
  3  8  2  0  0  0  0
  3 15  1  0  0  0  0
  4  9  1  0  0  0  0
  4 15  2  0  0  0  0
  5 17  1  0  0  0  0
  6 19  1  0  0  0  0
  7 10  2  0  0  0  0
  7 18  1  0  0  0  0
  8 21  1  0  0  0  0
  9 21  2  0  0  0  0
 10 22  1  0  0  0  0
 11 12  2  0  0  0  0
 11 23  1  0  0  0  0
 12 24  1  0  0  0  0
 13 20  1  0  0  0  0
 13 22  2  0  0  0  0
 14 24  2  0  0  0  0
 14 25  1  0  0  0  0
 15 26  1  0  0  0  0
 16 26  1  0  0  0  0
 16 27  2  0  0  0  0
 16 28  1  0  0  0  0
 17 19  2  0  0  0  0
 17 33  1  0  0  0  0
 18 20  2  0  0  0  0
 18 34  1  0  0  0  0
 19 46  1  0  0  0  0
 20 35  1  0  0  0  0
 21 79  1  0  0  0  0
 22 80  1  0  0  0  0
 23 25  2  0  0  0  0
 23 79  1  0  0  0  0
 24 81  1  0  0  0  0
 25 82  1  0  0  0  0
 26 63  2  0  0  0  0
 27 64  1  0  0  0  0
 27 67  1  0  0  0  0
 28 68  1  0  0  0  0
 28 74  2  0  0  0  0
 29 47  1  0  0  0  0
 29 69  1  0  0  0  0
 29 75  2  0  0  0  0
 30 60  1  0  0  0  0
 30 65  1  0  0  0  0
 30 76  2  0  0  0  0
 31 61  1  0  0  0  0
 31 70  1  0  0  0  0
 31 77  2  0  0  0  0
 32 66  1  0  0  0  0
 32 71  1  0  0  0  0
 32 78  2  0  0  0  0
 33 36  1  0  0  0  0
 34 47  1  0  0  0  0
 35 65  1  0  0  0  0
 36 38  1  0  0  0  0
 37 39  1  0  0  0  0
 37 42  1  0  0  0  0
 38 46  1  0  0  0  0
 39 50  1  0  0  0  0
 40 44  1  0  0  0  0
 40 51  1  0  0  0  0
 41 48  1  0  0  0  0
 41 52  1  0  0  0  0
 42 66  1  0  0  0  0
 43 50  1  0  0  0  0
 43 66  1  0  0  0  0
 44 72  1  0  0  0  0
 45 49  1  0  0  0  0
 45 72  1  0  0  0  0
 46 69  1  0  0  0  0
 47 65  1  0  0  0  0
 48 52  1  0  0  0  0
 48 59  1  0  0  0  0
 49 51  1  0  0  0  0
 49 53  1  0  0  0  0
 50 64  1  0  0  0  0
 51 71  1  0  0  0  0
 52 72  1  0  0  0  0
 54 61  1  0  0  0  0
 55 62  1  0  0  0  0
 56 62  1  0  0  0  0
 57 62  1  0  0  0  0
 58 73  1  0  0  0  0
 59 80  1  0  0  0  0
 60 62  1  0  0  0  0
 60 70  1  0  0  0  0
 61 73  1  0  0  0  0
 63 64  1  0  0  0  0
M  CHG  2  72   1  73   1
M  ISO  4  32 100  59 101  71 100  80 101
M  END
> <Batch ID>
0147

> <Smiles>
CNC(C)C(=O)NC(C(=O)N1Cc2cc([101O:1][101CH2:1]C3CC3N3CCC([100NH:0][100C:0](=O)N4CCCC(n5nc(-c6ccc(Oc7ccc(F)cc7F)cc6)c(C(N)=O)c5N)C4)C(C)C3)ccc2CC1C(=O)NC1CCCc2ccccc21)C(C)(C)C

> <Shape>
0.336

> <Color>
0.084

> <Negative vol penalty>
0.000

$$$$

  -OEChem-04052321333D

 87 96  0     1  0  0  0  0  0999 V2000
  -28.1335  -37.8136   22.7019 C   0  0  0  0  0  0  0  0  0  0  0  0
  -28.5923  -36.6198   22.1546 C   0  0  0  0  0  0  0  0  0  0  0  0
  -22.4418  -15.0781   19.8806 C   0  0  0  0  0  0  0  0  0  0  0  0
  -23.7165  -15.2946   17.8397 C   0  0  0  0  0  0  0  0  0  0  0  0
  -27.1728  -37.7923   23.7121 C   0  0  0  0  0  0  0  0  0  0  0  0
  -28.0914  -35.4037   22.6179 C   0  0  0  0  0  0  0  0  0  0  0  0
  -27.1285  -30.3266   19.3314 C   0  0  0  0  0  0  0  0  0  0  0  0
  -21.2788  -15.4200   19.1906 C   0  0  0  0  0  0  0  0  0  0  0  0
  -22.5534  -15.6364   17.1496 C   0  0  0  0  0  0  0  0  0  0  0  0
  -27.8789  -29.1642   19.1594 C   0  0  0  0  0  0  0  0  0  0  0  0
  -19.8610  -16.2144   14.7758 C   0  0  0  0  0  0  0  0  0  0  0  0
  -19.6387  -15.6099   13.5386 C   0  0  0  0  0  0  0  0  0  0  0  0
  -26.5807  -28.0789   20.8787 C   0  0  0  0  0  0  0  0  0  0  0  0
  -31.2289  -23.4906   21.0625 C   0  0  0  0  0  0  0  0  0  0  0  0
  -29.2144  -22.5518   20.1152 C   0  0  0  0  0  0  0  0  0  0  0  0
  -19.6545  -13.4381   14.5969 C   0  0  0  0  0  0  0  0  0  0  0  0
  -23.6607  -15.0155   19.2052 C   0  0  0  0  0  0  0  0  0  0  0  0
  -25.3892  -13.3716   20.1093 C   0  0  0  0  0  0  0  0  0  0  0  0
  -26.6528  -36.5757   24.1814 C   0  0  0  0  0  0  0  0  0  0  0  0
  -26.1040  -30.3774   20.2876 C   0  0  0  0  0  0  0  0  0  0  0  0
  -27.1238  -35.3660   23.6363 C   0  0  0  0  0  0  0  0  0  0  0  0
  -25.8171  -29.2423   21.0592 C   0  0  0  0  0  0  0  0  0  0  0  0
  -31.3709  -22.3659   21.8751 C   0  0  0  0  0  0  0  0  0  0  0  0
  -29.3564  -21.4270   20.9278 C   0  0  0  0  0  0  0  0  0  0  0  0
  -30.4347  -21.3341   21.8078 C   0  0  0  0  0  0  0  0  0  0  0  0
  -21.3346  -15.6991   17.8251 C   0  0  0  0  0  0  0  0  0  0  0  0
  -27.6070  -28.0411   19.9351 C   0  0  0  0  0  0  0  0  0  0  0  0
  -19.9801  -15.4307   15.9236 C   0  0  0  0  0  0  0  0  0  0  0  0
  -30.1506  -23.5836   20.1825 C   0  0  0  0  0  0  0  0  0  0  0  0
  -19.5355  -14.2218   13.4491 C   0  0  0  0  0  0  0  0  0  0  0  0
  -19.8768  -14.0426   15.8342 C   0  0  0  0  0  0  0  0  0  0  0  0
  -24.8625  -14.6630   19.9176 C   0  0  0  0  0  0  0  0  0  0  0  0
  -26.5324  -13.5727   20.8436 C   0  0  0  0  0  0  0  0  0  0  0  0
  -24.8899  -12.1037   19.6635 C   0  0  0  0  0  0  0  0  0  0  0  0
  -25.5613  -32.0987   22.9042 C   0  0  0  0  0  0  0  0  0  0  0  0
  -22.7065  -30.5593   22.8530 C   0  0  0  0  0  0  0  0  0  0  0  0
  -20.8957  -27.8457   21.8509 C   0  0  0  0  0  0  0  0  0  0  0  0
  -30.2343  -18.0066   21.3379 C   0  0  0  0  0  0  0  0  0  0  0  0
  -25.6503  -36.6011   25.3079 C   0  0  0  0  0  0  0  0  0  0  0  0
  -25.2862  -31.6303   20.4423 C   0  0  0  0  0  0  0  0  0  0  0  0
  -24.7145  -29.2388   22.0852 C   0  0  0  0  0  0  0  0  0  0  0  0
  -24.8964  -35.2852   25.4821 C   0  0  0  0  0  0  0  0  0  0  0  0
  -28.4706  -16.5549   24.0313 C   0  0  0  0  0  0  0  0  0  0  0  0
  -32.3545  -22.7420   24.2342 C   0  0  0  0  0  0  0  0  0  0  0  0
  -33.1707  -23.5665   23.2885 C   0  0  0  0  0  0  0  0  0  0  0  0
  -25.8642  -34.1067   25.4455 C   0  0  0  0  0  0  0  0  0  0  0  0
  -27.3801  -15.7780   23.2952 C   0  0  0  0  0  0  0  0  0  0  0  0
  -28.7403  -17.9163   23.3877 C   0  0  0  0  0  0  0  0  0  0  0  0
  -27.9468  -17.0676   21.2030 C   0  0  0  0  0  0  0  0  0  0  0  0
  -32.5330  -22.2898   22.8095 C   0  0  0  0  0  0  0  0  0  0  0  0
  -26.5866  -34.0277   24.0952 C   0  0  1  0  0  0  0  0  0  0  0  0
  -24.6053  -31.7351   21.8035 C   0  0  1  0  0  0  0  0  0  0  0  0
  -27.6987  -15.6712   21.7938 C   0  0  2  0  0  0  0  0  0  0  0  0
  -28.3399  -20.3366   20.8361 C   0  0  0  0  0  0  0  0  0  0  0  0
  -33.3129  -18.1152   22.4703 C   0  0  0  0  0  0  0  0  0  0  0  0
  -18.5964  -26.8503   21.9925 C   0  0  0  0  0  0  0  0  0  0  0  0
  -23.2527  -29.7132   25.7333 C   0  0  0  0  0  0  0  0  0  0  0  0
  -21.4507  -27.9915   25.4957 C   0  0  0  0  0  0  0  0  0  0  0  0
  -20.8949  -30.4138   25.2810 C   0  0  0  0  0  0  0  0  0  0  0  0
  -20.5543  -27.9251   18.9122 C   0  0  0  0  0  0  0  0  0  0  0  0
  -30.5863  -20.1254   22.6764 C   0  0  0  0  0  0  0  0  0  0  0  0
  -32.4794  -18.9996   21.5651 C   0  0  0  0  0  0  0  0  0  0  0  0
  -29.6911  -27.0605   19.3428 C   0  0  0  0  0  0  0  0  0  1  0  0
  -30.5186  -25.9154   19.8937 C   0  0  0  0  0  0  0  0  0  0  0  0
  -22.1779  -29.2676   23.4284 C   0  0  1  0  0  0  0  0  0  0  0  0
  -19.5363  -27.7320   21.1849 C   0  0  2  0  0  0  0  0  0  0  0  0
  -21.9662  -29.3469   24.9667 C   0  0  0  0  0  0  0  0  0  0  0  0
  -25.6096  -15.6140   20.4844 N   0  0  0  0  0  0  0  0  0  0  0  0
  -26.6174  -14.9197   21.0397 N   0  0  0  0  0  0  0  0  0  0  0  0
  -23.9472  -30.4897   22.2037 N   0  0  0  0  0  0  0  0  0  0  0  0
  -28.9925  -17.7738   21.9472 N   0  0  0  0  0  0  0  0  0  0  0  0
  -27.4631  -12.7269   21.3343 N   0  0  0  0  0  0  0  0  0  0  0  0
  -23.7022  -12.0775   18.9199 N   0  0  0  0  0  0  0  0  0  0  0  0
  -25.7158  -33.4594   23.0886 N   0  0  0  0  0  0  0  0  0  0  0  0
  -20.9702  -28.9490   22.6747 N   0  0  0  0  0  0  0  0  0  0  0  0
  -31.0699  -18.9661   21.9290 N   0  0  0  0  0  0  0  0  0  0  0  0
  -19.6748  -27.1463   19.8216 N   0  3  0  0  0  0  0  0  0  0  0  0
  -25.4707  -11.0246   19.9311 O   0  0  0  0  0  0  0  0  0  0  0  0
  -26.1166  -31.2104   23.5401 O   0  0  0  0  0  0  0  0  0  0  0  0
  -22.0397  -31.5906   22.9690 O   0  0  0  0  0  0  0  0  0  0  0  0
  -21.7997  -27.0347   21.6624 O   0  0  0  0  0  0  0  0  0  0  0  0
  -30.5759  -17.3967   20.3164 O   0  0  0  0  0  0  0  0  0  0  0  0
  -20.1999  -16.0324   17.1514 O   0  0  0  0  0  0  0  0  0  0  0  0
  -28.3383  -26.9054   19.7697 O   0  0  0  0  0  0  0  0  0  1  0  0
  -30.0111  -24.6882   19.3840 O   0  0  0  0  0  0  0  0  0  0  0  0
  -19.3205  -13.6415   12.2611 F   0  0  0  0  0  0  0  0  0  0  0  0
  -19.9892  -13.2846   16.9335 F   0  0  0  0  0  0  0  0  0  0  0  0
  1  2  1  0  0  0  0
  1  5  2  0  0  0  0
  2  6  2  0  0  0  0
  3  8  2  0  0  0  0
  3 17  1  0  0  0  0
  4  9  1  0  0  0  0
  4 17  2  0  0  0  0
  5 19  1  0  0  0  0
  6 21  1  0  0  0  0
  7 10  2  0  0  0  0
  7 20  1  0  0  0  0
  8 26  1  0  0  0  0
  9 26  2  0  0  0  0
 10 27  1  0  0  0  0
 11 12  2  0  0  0  0
 11 28  1  0  0  0  0
 12 30  1  0  0  0  0
 13 22  1  0  0  0  0
 13 27  2  0  0  0  0
 14 23  1  0  0  0  0
 14 29  2  0  0  0  0
 15 24  2  0  0  0  0
 15 29  1  0  0  0  0
 16 30  2  0  0  0  0
 16 31  1  0  0  0  0
 17 32  1  0  0  0  0
 18 32  1  0  0  0  0
 18 33  2  0  0  0  0
 18 34  1  0  0  0  0
 19 21  2  0  0  0  0
 19 39  1  0  0  0  0
 20 22  2  0  0  0  0
 20 40  1  0  0  0  0
 21 51  1  0  0  0  0
 22 41  1  0  0  0  0
 23 25  2  0  0  0  0
 23 50  1  0  0  0  0
 24 25  1  0  0  0  0
 24 54  1  0  0  0  0
 25 61  1  0  0  0  0
 26 83  1  0  0  0  0
 27 84  1  0  0  0  0
 28 31  2  0  0  0  0
 28 83  1  0  0  0  0
 29 85  1  0  0  0  0
 30 86  1  0  0  0  0
 31 87  1  0  0  0  0
 32 68  2  0  0  0  0
 33 69  1  0  0  0  0
 33 72  1  0  0  0  0
 34 73  1  0  0  0  0
 34 78  2  0  0  0  0
 35 52  1  0  0  0  0
 35 74  1  0  0  0  0
 35 79  2  0  0  0  0
 36 65  1  0  0  0  0
 36 70  1  0  0  0  0
 36 80  2  0  0  0  0
 37 66  1  0  0  0  0
 37 75  1  0  0  0  0
 37 81  2  0  0  0  0
 38 71  1  0  0  0  0
 38 76  1  0  0  0  0
 38 82  2  0  0  0  0
 39 42  1  0  0  0  0
 40 52  1  0  0  0  0
 41 70  1  0  0  0  0
 42 46  1  0  0  0  0
 43 47  1  0  0  0  0
 43 48  1  0  0  0  0
 44 45  1  0  0  0  0
 44 50  1  0  0  0  0
 45 50  1  0  0  0  0
 46 51  1  0  0  0  0
 47 53  1  0  0  0  0
 48 71  1  0  0  0  0
 49 53  1  0  0  0  0
 49 71  1  0  0  0  0
 51 74  1  0  0  0  0
 52 70  1  0  0  0  0
 53 69  1  0  0  0  0
 55 62  1  0  0  0  0
 56 66  1  0  0  0  0
 57 67  1  0  0  0  0
 58 67  1  0  0  0  0
 59 67  1  0  0  0  0
 60 77  1  0  0  0  0
 61 76  1  0  0  0  0
 62 76  1  0  0  0  0
 63 64  1  0  0  0  0
 63 84  1  0  0  0  0
 64 85  1  0  0  0  0
 65 67  1  0  0  0  0
 65 75  1  0  0  0  0
 66 77  1  0  0  0  0
 68 69  1  0  0  0  0
M  CHG  1  77   1
M  ISO  4  38 100  63 101  76 100  84 101
M  END
> <Batch ID>
0147

> <Smiles>
CC[100N:0](Cc1c(C)cc(OC[101CH2:1][101O:1]c2ccc3c(c2)CN(C(=O)C(NC(=O)C(C)NC)C(C)(C)C)C(C(=O)NC2CCCc4ccccc42)C3)cc1C1CC1)[100C:0](=O)N1CCCC(n2nc(-c3ccc(Oc4ccc(F)cc4F)cc3)c(C(N)=O)c2N)C1

> <Shape>
0.274

> <Color>
0.104

> <Negative vol penalty>
0.000

$$$$

  -OEChem-04052321333D

 88 98  0     1  0  0  0  0  0999 V2000
  -21.9891  -25.4410   13.6527 C   0  0  0  0  0  0  0  0  0  0  0  0
  -21.6918  -26.0939   14.8447 C   0  0  0  0  0  0  0  0  0  0  0  0
  -24.1932  -14.3395   21.5897 C   0  0  0  0  0  0  0  0  0  0  0  0
  -25.6564  -14.4173   19.6688 C   0  0  0  0  0  0  0  0  0  0  0  0
  -23.0893  -24.5875   13.5824 C   0  0  0  0  0  0  0  0  0  0  0  0
  -22.4940  -25.8927   15.9674 C   0  0  0  0  0  0  0  0  0  0  0  0
  -23.8849  -30.0086   20.2837 C   0  0  0  0  0  0  0  0  0  0  0  0
  -23.6355  -13.1517   21.1169 C   0  0  0  0  0  0  0  0  0  0  0  0
  -25.0987  -13.2294   19.1959 C   0  0  0  0  0  0  0  0  0  0  0  0
  -23.3622  -30.2492   21.5536 C   0  0  0  0  0  0  0  0  0  0  0  0
  -22.0774   -9.9084   20.5990 C   0  0  0  0  0  0  0  0  0  0  0  0
  -21.8887   -8.8717   21.5129 C   0  0  0  0  0  0  0  0  0  0  0  0
  -18.6100  -27.1345   21.3028 C   0  0  0  0  0  0  0  0  0  0  0  0
  -25.1174  -28.9085   22.5235 C   0  0  0  0  0  0  0  0  0  0  0  0
  -19.1533  -28.1179   23.4417 C   0  0  0  0  0  0  0  0  0  0  0  0
  -24.2627   -8.8335   21.9599 C   0  0  0  0  0  0  0  0  0  0  0  0
  -25.2036  -14.9724   20.8656 C   0  0  0  0  0  0  0  0  0  0  0  0
  -26.8917  -16.3372   22.2056 C   0  0  0  0  0  0  0  0  0  0  0  0
  -23.9111  -24.3833   14.7020 C   0  0  0  0  0  0  0  0  0  0  0  0
  -25.0234  -29.2059   20.1230 C   0  0  0  0  0  0  0  0  0  0  0  0
  -23.6055  -25.0346   15.9123 C   0  0  0  0  0  0  0  0  0  0  0  0
  -19.7719  -26.3650   21.3614 C   0  0  0  0  0  0  0  0  0  0  0  0
  -25.6541  -28.6613   21.2507 C   0  0  0  0  0  0  0  0  0  0  0  0
  -20.6245  -26.4719   22.4602 C   0  0  0  0  0  0  0  0  0  0  0  0
  -18.3007  -28.0110   22.3429 C   0  0  0  0  0  0  0  0  0  0  0  0
  -24.0883  -12.5966   19.9200 C   0  0  0  0  0  0  0  0  0  0  0  0
  -23.9767  -29.6967   22.6735 C   0  0  0  0  0  0  0  0  0  0  0  0
  -23.3588  -10.4076   20.3655 C   0  0  0  0  0  0  0  0  0  0  0  0
  -20.3152  -27.3483   23.5003 C   0  0  0  0  0  0  0  0  0  0  0  0
  -22.9813   -8.3342   22.1934 C   0  0  0  0  0  0  0  0  0  0  0  0
  -24.4514   -9.8702   21.0459 C   0  0  0  0  0  0  0  0  0  0  0  0
  -25.7797  -16.1997   21.3533 C   0  0  0  0  0  0  0  0  0  0  0  0
  -27.0343  -17.6935   22.3680 C   0  0  0  0  0  0  0  0  0  0  0  0
  -27.7216  -15.3289   22.7974 C   0  0  0  0  0  0  0  0  0  0  0  0
  -25.6413  -26.4593   18.6470 C   0  0  0  0  0  0  0  0  0  0  0  0
  -28.6957  -27.1345   19.5055 C   0  0  0  0  0  0  0  0  0  0  0  0
  -30.8165  -28.7741   21.6175 C   0  0  0  0  0  0  0  0  0  0  0  0
  -23.0030  -22.0600   21.9412 C   0  0  0  0  0  0  0  0  0  0  0  0
  -25.0618  -23.4146   14.5910 C   0  0  0  0  0  0  0  0  0  0  0  0
  -25.5905  -28.9779   18.7486 C   0  0  0  0  0  0  0  0  0  0  0  0
  -26.8905  -27.8092   21.1338 C   0  0  0  0  0  0  0  0  0  0  0  0
  -26.0800  -23.5463   15.7206 C   0  0  0  0  0  0  0  0  0  0  0  0
  -26.2293  -21.8440   20.1644 C   0  0  0  0  0  0  0  0  0  0  0  0
  -21.4048  -25.5533   19.5314 C   0  0  0  0  0  0  0  0  0  0  0  0
  -20.1506  -25.9793   18.8343 C   0  0  0  0  0  0  0  0  0  0  0  0
  -25.3730  -23.6269   17.0699 C   0  0  0  0  0  0  0  0  0  0  0  0
  -26.5450  -20.3583   20.3091 C   0  0  0  0  0  0  0  0  0  0  0  0
  -22.1060  -24.7808   23.7323 C   0  0  0  0  0  0  0  0  0  0  0  0
  -24.7281  -22.1021   20.0419 C   0  0  0  0  0  0  0  0  0  0  0  0
  -24.2463  -20.0197   21.2972 C   0  0  0  0  0  0  0  0  0  0  0  0
  -20.0798  -25.4334   20.2352 C   0  0  0  0  0  0  0  0  0  0  0  0
  -21.8724  -25.6505   22.5290 C   0  0  1  0  0  0  0  0  0  0  0  0
  -24.4663  -24.8613   17.1448 C   0  0  1  0  0  0  0  0  0  0  0  0
  -26.4537  -27.7232   18.6590 C   0  0  1  0  0  0  0  0  0  0  0  0
  -25.7479  -19.7449   21.4705 C   0  0  1  0  0  0  0  0  0  0  0  0
  -21.7619  -24.1497   22.4156 C   0  0  1  0  0  0  0  0  0  0  0  0
  -17.0582  -28.8333   22.2808 C   0  0  0  0  0  0  0  0  0  0  0  0
  -33.2584  -29.1021   22.0938 C   0  0  0  0  0  0  0  0  0  0  0  0
  -28.8151  -24.3675   20.7858 C   0  0  0  0  0  0  0  0  0  0  0  0
  -30.8578  -25.1078   22.0298 C   0  0  0  0  0  0  0  0  0  0  0  0
  -30.8783  -25.0289   19.5367 C   0  0  0  0  0  0  0  0  0  0  0  0
  -30.6417  -31.6859   21.1176 C   0  0  0  0  0  0  0  0  0  0  0  0
  -22.5179  -28.9441   25.9010 C   0  0  0  0  0  0  0  0  0  0  0  0
  -23.6580  -28.9109   24.8954 C   0  0  0  0  0  0  0  0  0  1  0  0
  -21.1666  -28.7332   25.2361 C   0  0  0  0  0  0  0  0  0  0  0  0
  -29.5583  -26.8389   20.7086 C   0  0  1  0  0  0  0  0  0  0  0  0
  -32.0413  -29.6303   21.3505 C   0  0  2  0  0  0  0  0  0  0  0  0
  -30.0030  -25.3502   20.7676 C   0  0  0  0  0  0  0  0  0  0  0  0
  -25.2531  -17.3750   20.9991 N   0  0  0  0  0  0  0  0  0  0  0  0
  -26.0376  -18.2639   21.6321 N   0  0  0  0  0  0  0  0  0  0  0  0
  -27.4031  -27.6100   19.7681 N   0  0  0  0  0  0  0  0  0  0  0  0
  -23.9771  -21.4530   21.1280 N   0  0  0  0  0  0  0  0  0  0  0  0
  -27.9136  -18.4421   23.0672 N   0  0  0  0  0  0  0  0  0  0  0  0
  -27.4355  -13.9840   22.5260 N   0  0  0  0  0  0  0  0  0  0  0  0
  -25.2528  -26.0522   17.3850 N   0  0  0  0  0  0  0  0  0  0  0  0
  -30.6627  -27.7910   20.6630 N   0  0  0  0  0  0  0  0  0  0  0  0
  -22.7370  -23.3978   21.6718 N   0  0  0  0  0  0  0  0  0  0  0  0
  -31.7970  -31.0342   21.7866 N   0  3  0  0  0  0  0  0  0  0  0  0
  -28.6782  -15.6117   23.5580 O   0  0  0  0  0  0  0  0  0  0  0  0
  -25.3870  -25.8944   19.7044 O   0  0  0  0  0  0  0  0  0  0  0  0
  -29.1544  -26.9571   18.3742 O   0  0  0  0  0  0  0  0  0  0  0  0
  -30.0729  -28.9567   22.5788 O   0  0  0  0  0  0  0  0  0  0  0  0
  -22.4080  -21.4542   22.8393 O   0  0  0  0  0  0  0  0  0  0  0  0
  -23.5445  -11.4374   19.4584 O   0  0  0  0  0  0  0  0  0  0  0  0
  -23.4682  -29.9294   23.9141 O   0  0  0  0  0  0  0  0  0  1  0  0
  -21.1398  -27.4684   24.5886 O   0  0  0  0  0  0  0  0  0  0  0  0
  -22.7997   -7.3398   23.0721 F   0  0  0  0  0  0  0  0  0  0  0  0
  -25.6847  -10.3465   20.8267 F   0  0  0  0  0  0  0  0  0  0  0  0
  1  2  1  0  0  0  0
  1  5  2  0  0  0  0
  2  6  2  0  0  0  0
  3  8  2  0  0  0  0
  3 17  1  0  0  0  0
  4  9  1  0  0  0  0
  4 17  2  0  0  0  0
  5 19  1  0  0  0  0
  6 21  1  0  0  0  0
  7 10  2  0  0  0  0
  7 20  1  0  0  0  0
  8 26  1  0  0  0  0
  9 26  2  0  0  0  0
 10 27  1  0  0  0  0
 11 12  2  0  0  0  0
 11 28  1  0  0  0  0
 12 30  1  0  0  0  0
 13 22  2  0  0  0  0
 13 25  1  0  0  0  0
 14 23  1  0  0  0  0
 14 27  2  0  0  0  0
 15 25  2  0  0  0  0
 15 29  1  0  0  0  0
 16 30  2  0  0  0  0
 16 31  1  0  0  0  0
 17 32  1  0  0  0  0
 18 32  1  0  0  0  0
 18 33  2  0  0  0  0
 18 34  1  0  0  0  0
 19 21  2  0  0  0  0
 19 39  1  0  0  0  0
 20 23  2  0  0  0  0
 20 40  1  0  0  0  0
 21 53  1  0  0  0  0
 22 24  1  0  0  0  0
 22 51  1  0  0  0  0
 23 41  1  0  0  0  0
 24 29  2  0  0  0  0
 24 52  1  0  0  0  0
 25 57  1  0  0  0  0
 26 84  1  0  0  0  0
 27 85  1  0  0  0  0
 28 31  2  0  0  0  0
 28 84  1  0  0  0  0
 29 86  1  0  0  0  0
 30 87  1  0  0  0  0
 31 88  1  0  0  0  0
 32 69  2  0  0  0  0
 33 70  1  0  0  0  0
 33 73  1  0  0  0  0
 34 74  1  0  0  0  0
 34 79  2  0  0  0  0
 35 54  1  0  0  0  0
 35 75  1  0  0  0  0
 35 80  2  0  0  0  0
 36 66  1  0  0  0  0
 36 71  1  0  0  0  0
 36 81  2  0  0  0  0
 37 67  1  0  0  0  0
 37 76  1  0  0  0  0
 37 82  2  0  0  0  0
 38 72  1  0  0  0  0
 38 77  1  0  0  0  0
 38 83  2  0  0  0  0
 39 42  1  0  0  0  0
 40 54  1  0  0  0  0
 41 71  1  0  0  0  0
 42 46  1  0  0  0  0
 43 47  1  0  0  0  0
 43 49  1  0  0  0  0
 44 45  1  0  0  0  0
 44 51  1  0  0  0  0
 45 51  1  0  0  0  0
 46 53  1  0  0  0  0
 47 55  1  0  0  0  0
 48 52  1  0  0  0  0
 48 56  1  0  0  0  0
 49 72  1  0  0  0  0
 50 55  1  0  0  0  0
 50 72  1  0  0  0  0
 52 56  1  0  0  0  0
 53 75  1  0  0  0  0
 54 71  1  0  0  0  0
 55 70  1  0  0  0  0
 56 77  1  0  0  0  0
 58 67  1  0  0  0  0
 59 68  1  0  0  0  0
 60 68  1  0  0  0  0
 61 68  1  0  0  0  0
 62 78  1  0  0  0  0
 63 64  1  0  0  0  0
 63 65  1  0  0  0  0
 64 85  1  0  0  0  0
 65 86  1  0  0  0  0
 66 68  1  0  0  0  0
 66 76  1  0  0  0  0
 67 78  1  0  0  0  0
 69 70  1  0  0  0  0
M  CHG  1  78   1
M  ISO  4  38 100  64 101  77 100  85 101
M  END
> <Batch ID>
0147

> <Smiles>
CNC(C)C(=O)NC(C(=O)N1Cc2cc([101O:1][101CH2:1]CCOc3cc(C)cc(C4CC4)c3C3CC3[100NH:0][100C:0](=O)N3CCCC(n4nc(-c5ccc(Oc6ccc(F)cc6F)cc5)c(C(N)=O)c4N)C3)ccc2CC1C(=O)NC1CCCc2ccccc21)C(C)(C)C

> <Shape>
0.224

> <Color>
0.072

> <Negative vol penalty>
0.000

$$$$

  -OEChem-04052321333D

 91101  0     1  0  0  0  0  0999 V2000
  -27.4845  -37.8520   24.7965 C   0  0  0  0  0  0  0  0  0  0  0  0
  -27.7815  -36.5088   24.5890 C   0  0  0  0  0  0  0  0  0  0  0  0
  -24.1272   -9.3211   22.1295 C   0  0  0  0  0  0  0  0  0  0  0  0
  -24.4571   -8.4645   19.8947 C   0  0  0  0  0  0  0  0  0  0  0  0
  -26.1655  -38.2472   25.0157 C   0  0  0  0  0  0  0  0  0  0  0  0
  -26.7598  -35.5599   24.6017 C   0  0  0  0  0  0  0  0  0  0  0  0
  -27.1396  -32.2452   20.7920 C   0  0  0  0  0  0  0  0  0  0  0  0
  -23.0539   -8.4480   22.3058 C   0  0  0  0  0  0  0  0  0  0  0  0
  -23.3838   -7.5912   20.0710 C   0  0  0  0  0  0  0  0  0  0  0  0
  -28.0794  -31.2244   20.9275 C   0  0  0  0  0  0  0  0  0  0  0  0
  -27.8965  -24.8762   19.8150 C   0  0  0  0  0  0  0  0  0  0  0  0
  -27.8376  -23.4992   20.0289 C   0  0  0  0  0  0  0  0  0  0  0  0
  -22.5971   -5.1724   23.0096 C   0  0  0  0  0  0  0  0  0  0  0  0
  -22.5251   -4.4682   24.2114 C   0  0  0  0  0  0  0  0  0  0  0  0
  -26.3252  -29.7047   21.5851 C   0  0  0  0  0  0  0  0  0  0  0  0
  -30.2903  -24.8240   20.1372 C   0  0  0  0  0  0  0  0  0  0  0  0
  -20.3834   -5.4843   24.6784 C   0  0  0  0  0  0  0  0  0  0  0  0
  -24.8288   -9.3294   20.9239 C   0  0  0  0  0  0  0  0  0  0  0  0
  -27.2916   -9.9849   21.0353 C   0  0  0  0  0  0  0  0  0  0  0  0
  -25.1259  -37.3039   25.0215 C   0  0  0  0  0  0  0  0  0  0  0  0
  -25.7847  -32.0059   21.0630 C   0  0  0  0  0  0  0  0  0  0  0  0
  -25.4259  -35.9428   24.8225 C   0  0  0  0  0  0  0  0  0  0  0  0
  -25.3698  -30.7235   21.4498 C   0  0  0  0  0  0  0  0  0  0  0  0
  -30.2315  -23.4469   20.3511 C   0  0  0  0  0  0  0  0  0  0  0  0
  -22.6822   -7.5830   21.2766 C   0  0  0  0  0  0  0  0  0  0  0  0
  -27.6728  -29.9547   21.3268 C   0  0  0  0  0  0  0  0  0  0  0  0
  -29.1229  -25.5387   19.8691 C   0  0  0  0  0  0  0  0  0  0  0  0
  -29.0051  -22.7845   20.2970 C   0  0  0  0  0  0  0  0  0  0  0  0
  -21.5624   -6.0327   22.6422 C   0  0  0  0  0  0  0  0  0  0  0  0
  -21.4182   -4.6241   25.0458 C   0  0  0  0  0  0  0  0  0  0  0  0
  -20.4555   -6.1886   23.4766 C   0  0  0  0  0  0  0  0  0  0  0  0
  -25.9373  -10.2316   20.7410 C   0  0  0  0  0  0  0  0  0  0  0  0
  -27.9362  -11.1459   20.6845 C   0  0  0  0  0  0  0  0  0  0  0  0
  -27.9116   -8.8112   21.5772 C   0  0  0  0  0  0  0  0  0  0  0  0
  -23.6802  -33.1456   23.1548 C   0  0  0  0  0  0  0  0  0  0  0  0
  -21.5945  -31.3363   21.4523 C   0  0  0  0  0  0  0  0  0  0  0  0
  -21.0912  -28.6704   19.3819 C   0  0  0  0  0  0  0  0  0  0  0  0
  -28.4401  -16.4889   20.5750 C   0  0  0  0  0  0  0  0  0  0  0  0
  -23.7217  -37.7729   25.3097 C   0  0  0  0  0  0  0  0  0  0  0  0
  -24.7795  -33.1107   20.8863 C   0  0  0  0  0  0  0  0  0  0  0  0
  -23.9242  -30.4096   21.7331 C   0  0  0  0  0  0  0  0  0  0  0  0
  -22.6499  -36.7526   24.9351 C   0  0  0  0  0  0  0  0  0  0  0  0
  -26.3127  -15.1774   18.1100 C   0  0  0  0  0  0  0  0  0  0  0  0
  -23.0324  -35.3658   25.4424 C   0  0  0  0  0  0  0  0  0  0  0  0
  -31.7404  -22.5959   23.2624 C   0  0  0  0  0  0  0  0  0  0  0  0
  -33.0832  -22.2370   22.6899 C   0  0  0  0  0  0  0  0  0  0  0  0
  -26.1302  -13.7410   18.5997 C   0  0  0  0  0  0  0  0  0  0  0  0
  -29.4616  -19.6585   18.9448 C   0  0  0  0  0  0  0  0  0  0  0  0
  -27.1290  -19.9321   19.8903 C   0  0  0  0  0  0  0  0  0  0  0  0
  -26.2943  -16.1824   19.2630 C   0  0  0  0  0  0  0  0  0  0  0  0
  -29.6967  -18.5089   19.9234 C   0  0  0  0  0  0  0  0  0  0  0  0
  -27.4187  -18.7796   20.8491 C   0  0  0  0  0  0  0  0  0  0  0  0
  -27.0744  -14.4384   20.8335 C   0  0  0  0  0  0  0  0  0  0  0  0
  -24.3420  -34.8868   24.8043 C   0  0  1  0  0  0  0  0  0  0  0  0
  -23.4994  -32.8874   21.6857 C   0  0  1  0  0  0  0  0  0  0  0  0
  -32.1693  -23.1645   21.9381 C   0  0  0  0  0  0  0  0  0  0  0  0
  -27.1474  -13.3999   19.7033 C   0  0  1  0  0  0  0  0  0  0  0  0
  -28.4040  -20.6464   19.4385 C   0  0  0  0  0  0  0  0  0  0  0  0
  -32.4931  -22.7669   19.4699 C   0  0  0  0  0  0  0  0  0  0  0  0
  -19.2727  -27.4183   18.1891 C   0  0  0  0  0  0  0  0  0  0  0  0
  -20.7624  -30.0402   24.0863 C   0  0  0  0  0  0  0  0  0  0  0  0
  -19.6922  -28.2033   22.7639 C   0  0  0  0  0  0  0  0  0  0  0  0
  -18.8716  -30.5473   22.5300 C   0  0  0  0  0  0  0  0  0  0  0  0
  -22.2710  -29.2510   16.7305 C   0  0  0  0  0  0  0  0  0  0  0  0
  -29.7359  -29.0102   20.6147 C   0  0  0  0  0  0  0  0  0  1  0  0
  -30.2156  -27.6003   20.3288 C   0  0  0  0  0  0  0  0  0  0  0  0
  -31.4910  -22.6978   20.6370 C   0  0  2  0  0  0  0  0  0  0  0  0
  -21.1048  -29.9104   21.5305 C   0  0  1  0  0  0  0  0  0  0  0  0
  -20.3039  -28.5318   18.0914 C   0  0  2  0  0  0  0  0  0  0  0  0
  -20.1353  -29.6814   22.7243 C   0  0  0  0  0  0  0  0  0  0  0  0
  -25.7323  -11.4534   20.2418 N   0  0  0  0  0  0  0  0  0  0  0  0
  -26.9665  -11.9849   20.2198 N   0  0  0  0  0  0  0  0  0  0  0  0
  -22.9802  -31.5248   21.5523 N   0  0  0  0  0  0  0  0  0  0  0  0
  -27.2512  -15.7937   20.3076 N   0  0  0  0  0  0  0  0  0  0  0  0
  -28.4407  -17.8697   20.3144 N   0  0  0  0  0  0  0  0  0  0  0  0
  -29.2323  -11.5208   20.7313 N   0  0  0  0  0  0  0  0  0  0  0  0
  -27.1024   -7.7081   21.8815 N   0  0  0  0  0  0  0  0  0  0  0  0
  -24.1066  -34.4257   23.4529 N   0  0  0  0  0  0  0  0  0  0  0  0
  -20.5285  -29.6046   20.2256 N   0  0  0  0  0  0  0  0  0  0  0  0
  -21.2198  -28.2259   16.9562 N   0  3  0  0  0  0  0  0  0  0  0  0
  -29.1443   -8.7486   21.8009 O   0  0  0  0  0  0  0  0  0  0  0  0
  -23.4483  -32.2501   23.9586 O   0  0  0  0  0  0  0  0  0  0  0  0
  -20.7782  -32.2486   21.3006 O   0  0  0  0  0  0  0  0  0  0  0  0
  -22.1020  -28.0128   19.6194 O   0  0  0  0  0  0  0  0  0  0  0  0
  -29.4425  -15.9130   21.0163 O   0  0  0  0  0  0  0  0  0  0  0  0
  -21.6350   -6.7306   21.4483 O   0  0  0  0  0  0  0  0  0  0  0  0
  -28.9291  -21.4326   20.5059 O   0  0  0  0  0  0  0  0  0  0  0  0
  -28.5944  -28.9499   21.4614 O   0  0  0  0  0  0  0  0  0  1  0  0
  -29.1798  -26.8823   19.6599 O   0  0  0  0  0  0  0  0  0  0  0  0
  -21.3484   -3.9465   26.1992 F   0  0  0  0  0  0  0  0  0  0  0  0
  -19.4578   -7.0126   23.1284 F   0  0  0  0  0  0  0  0  0  0  0  0
  1  2  1  0  0  0  0
  1  5  2  0  0  0  0
  2  6  2  0  0  0  0
  3  8  2  0  0  0  0
  3 18  1  0  0  0  0
  4  9  1  0  0  0  0
  4 18  2  0  0  0  0
  5 20  1  0  0  0  0
  6 22  1  0  0  0  0
  7 10  2  0  0  0  0
  7 21  1  0  0  0  0
  8 25  1  0  0  0  0
  9 25  2  0  0  0  0
 10 26  1  0  0  0  0
 11 12  2  0  0  0  0
 11 27  1  0  0  0  0
 12 28  1  0  0  0  0
 13 14  2  0  0  0  0
 13 29  1  0  0  0  0
 14 30  1  0  0  0  0
 15 23  1  0  0  0  0
 15 26  2  0  0  0  0
 16 24  1  0  0  0  0
 16 27  2  0  0  0  0
 17 30  2  0  0  0  0
 17 31  1  0  0  0  0
 18 32  1  0  0  0  0
 19 32  1  0  0  0  0
 19 33  2  0  0  0  0
 19 34  1  0  0  0  0
 20 22  2  0  0  0  0
 20 39  1  0  0  0  0
 21 23  2  0  0  0  0
 21 40  1  0  0  0  0
 22 54  1  0  0  0  0
 23 41  1  0  0  0  0
 24 28  2  0  0  0  0
 24 67  1  0  0  0  0
 25 86  1  0  0  0  0
 26 88  1  0  0  0  0
 27 89  1  0  0  0  0
 28 87  1  0  0  0  0
 29 31  2  0  0  0  0
 29 86  1  0  0  0  0
 30 90  1  0  0  0  0
 31 91  1  0  0  0  0
 32 71  2  0  0  0  0
 33 72  1  0  0  0  0
 33 76  1  0  0  0  0
 34 77  1  0  0  0  0
 34 81  2  0  0  0  0
 35 55  1  0  0  0  0
 35 78  1  0  0  0  0
 35 82  2  0  0  0  0
 36 68  1  0  0  0  0
 36 73  1  0  0  0  0
 36 83  2  0  0  0  0
 37 69  1  0  0  0  0
 37 79  1  0  0  0  0
 37 84  2  0  0  0  0
 38 74  1  0  0  0  0
 38 75  1  0  0  0  0
 38 85  2  0  0  0  0
 39 42  1  0  0  0  0
 40 55  1  0  0  0  0
 41 73  1  0  0  0  0
 42 44  1  0  0  0  0
 43 47  1  0  0  0  0
 43 50  1  0  0  0  0
 44 54  1  0  0  0  0
 45 46  1  0  0  0  0
 45 56  1  0  0  0  0
 46 56  1  0  0  0  0
 47 57  1  0  0  0  0
 48 51  1  0  0  0  0
 48 58  1  0  0  0  0
 49 52  1  0  0  0  0
 49 58  1  0  0  0  0
 50 74  1  0  0  0  0
 51 75  1  0  0  0  0
 52 75  1  0  0  0  0
 53 57  1  0  0  0  0
 53 74  1  0  0  0  0
 54 78  1  0  0  0  0
 55 73  1  0  0  0  0
 56 67  1  0  0  0  0
 57 72  1  0  0  0  0
 58 87  1  0  0  0  0
 59 67  1  0  0  0  0
 60 69  1  0  0  0  0
 61 70  1  0  0  0  0
 62 70  1  0  0  0  0
 63 70  1  0  0  0  0
 64 80  1  0  0  0  0
 65 66  1  0  0  0  0
 65 88  1  0  0  0  0
 66 89  1  0  0  0  0
 68 70  1  0  0  0  0
 68 79  1  0  0  0  0
 69 80  1  0  0  0  0
 71 72  1  0  0  0  0
M  CHG  1  80   1
M  ISO  4  38 100  65 101  75 100  88 101
M  END
> <Batch ID>
0147

> <Smiles>
CNC(C)C(=O)NC(C(=O)N1Cc2cc([101O:1][101CH2:1]COc3ccc(OC4CC[100N:0]([100C:0](=O)N5CCCC(n6nc(-c7ccc(Oc8ccc(F)cc8F)cc7)c(C(N)=O)c6N)C5)CC4)c(C(C)C4CC4)c3)ccc2CC1C(=O)NC1CCCc2ccccc21)C(C)(C)C

> <Shape>
0.317

> <Color>
0.093

> <Negative vol penalty>
0.000

$$$$

  -OEChem-04052321333D

 85 94  0     1  0  0  0  0  0999 V2000
  -27.0870  -37.6927   24.1107 C   0  0  0  0  0  0  0  0  0  0  0  0
  -27.7814  -36.6915   23.4392 C   0  0  0  0  0  0  0  0  0  0  0  0
  -23.6529  -10.4783   22.4353 C   0  0  0  0  0  0  0  0  0  0  0  0
  -24.4723   -8.6166   21.1317 C   0  0  0  0  0  0  0  0  0  0  0  0
  -25.9649  -37.3703   24.8729 C   0  0  0  0  0  0  0  0  0  0  0  0
  -27.3546  -35.3672   23.5303 C   0  0  0  0  0  0  0  0  0  0  0  0
  -28.2569  -21.6688   19.1458 C   0  0  0  0  0  0  0  0  0  0  0  0
  -27.0536  -29.3225   19.6978 C   0  0  0  0  0  0  0  0  0  0  0  0
  -28.0825  -23.0446   18.9968 C   0  0  0  0  0  0  0  0  0  0  0  0
  -22.5135   -9.7450   22.7664 C   0  0  0  0  0  0  0  0  0  0  0  0
  -23.3330   -7.8832   21.4629 C   0  0  0  0  0  0  0  0  0  0  0  0
  -27.4010  -27.9750   19.7826 C   0  0  0  0  0  0  0  0  0  0  0  0
  -22.1949   -6.1104   24.1053 C   0  0  0  0  0  0  0  0  0  0  0  0
  -22.3712   -4.7825   24.4941 C   0  0  0  0  0  0  0  0  0  0  0  0
  -25.4027  -27.5466   21.0642 C   0  0  0  0  0  0  0  0  0  0  0  0
  -28.7171  -23.3749   21.3045 C   0  0  0  0  0  0  0  0  0  0  0  0
  -20.9887   -4.0589   22.6496 C   0  0  0  0  0  0  0  0  0  0  0  0
  -24.6323   -9.9141   21.6178 C   0  0  0  0  0  0  0  0  0  0  0  0
  -27.0274  -10.7144   21.9789 C   0  0  0  0  0  0  0  0  0  0  0  0
  -25.5185  -36.0426   24.9655 C   0  0  0  0  0  0  0  0  0  0  0  0
  -25.8816  -29.7950   20.3058 C   0  0  0  0  0  0  0  0  0  0  0  0
  -26.2262  -35.0265   24.2954 C   0  0  0  0  0  0  0  0  0  0  0  0
  -28.6613  -21.1459   20.3741 C   0  0  0  0  0  0  0  0  0  0  0  0
  -25.0413  -28.9001   20.9834 C   0  0  0  0  0  0  0  0  0  0  0  0
  -28.3126  -23.8977   20.0762 C   0  0  0  0  0  0  0  0  0  0  0  0
  -22.3536   -8.4474   22.2803 C   0  0  0  0  0  0  0  0  0  0  0  0
  -26.5770  -27.0873   20.4684 C   0  0  0  0  0  0  0  0  0  0  0  0
  -21.4155   -6.4126   22.9887 C   0  0  0  0  0  0  0  0  0  0  0  0
  -28.8914  -21.9990   21.4535 C   0  0  0  0  0  0  0  0  0  0  0  0
  -21.7681   -3.7567   23.7663 C   0  0  0  0  0  0  0  0  0  0  0  0
  -20.8124   -5.3868   22.2608 C   0  0  0  0  0  0  0  0  0  0  0  0
  -25.8091  -10.6714   21.2748 C   0  0  0  0  0  0  0  0  0  0  0  0
  -27.8155  -11.5709   21.2496 C   0  0  0  0  0  0  0  0  0  0  0  0
  -27.4124  -10.0404   23.1844 C   0  0  0  0  0  0  0  0  0  0  0  0
  -25.2363  -31.8943   22.6037 C   0  0  0  0  0  0  0  0  0  0  0  0
  -22.1648  -31.3035   21.7437 C   0  0  0  0  0  0  0  0  0  0  0  0
  -19.9156  -29.1731   20.3122 C   0  0  0  0  0  0  0  0  0  0  0  0
  -28.6366  -16.1588   18.3690 C   0  0  0  0  0  0  0  0  0  0  0  0
  -24.3282  -35.7364   25.8397 C   0  0  0  0  0  0  0  0  0  0  0  0
  -25.5073  -31.2466   20.1824 C   0  0  0  0  0  0  0  0  0  0  0  0
  -23.7619  -29.3533   21.6362 C   0  0  0  0  0  0  0  0  0  0  0  0
  -23.7208  -34.3600   25.5812 C   0  0  0  0  0  0  0  0  0  0  0  0
  -27.1625  -13.5486   16.6481 C   0  0  0  0  0  0  0  0  0  0  0  0
  -24.8144  -33.2991   25.5073 C   0  0  0  0  0  0  0  0  0  0  0  0
  -26.7749  -12.5609   17.7483 C   0  0  0  0  0  0  0  0  0  0  0  0
  -27.5314  -18.8791   20.2915 C   0  0  0  0  0  0  0  0  0  0  0  0
  -29.9534  -19.1110   19.5916 C   0  0  0  0  0  0  0  0  0  0  0  0
  -26.8805  -14.9833   17.0787 C   0  0  0  0  0  0  0  0  0  0  0  0
  -27.7322  -17.3653   20.4055 C   0  0  0  0  0  0  0  0  0  0  0  0
  -30.1036  -17.6004   19.7469 C   0  0  0  0  0  0  0  0  0  0  0  0
  -27.1782  -14.3961   19.4629 C   0  0  0  0  0  0  0  0  0  0  0  0
  -28.8463  -19.6470   20.5173 C   0  0  0  0  0  0  0  0  0  0  0  0
  -25.7796  -33.5816   24.3497 C   0  0  1  0  0  0  0  0  0  0  0  0
  -24.5533  -31.7129   21.2777 C   0  0  1  0  0  0  0  0  0  0  0  0
  -27.4495  -12.9264   19.0824 C   0  0  1  0  0  0  0  0  0  0  0  0
  -17.4716  -28.9497   19.7885 C   0  0  0  0  0  0  0  0  0  0  0  0
  -21.5965  -30.6753   24.6750 C   0  0  0  0  0  0  0  0  0  0  0  0
  -19.4695  -29.5693   23.9533 C   0  0  0  0  0  0  0  0  0  0  0  0
  -19.8143  -32.0030   23.5281 C   0  0  0  0  0  0  0  0  0  0  0  0
  -20.4354  -29.0074   17.4034 C   0  0  0  0  0  0  0  0  0  0  0  0
  -29.4995  -22.4477   23.7084 C   0  0  0  0  0  0  0  0  0  0  0  0
  -28.1256  -25.3687   19.9169 C   0  0  0  0  0  0  0  0  0  1  0  0
  -21.1084  -30.3113   22.1660 C   0  0  1  0  0  0  0  0  0  0  0  0
  -18.8302  -29.4018   19.2759 C   0  0  2  0  0  0  0  0  0  0  0  0
  -20.5222  -30.6312   23.5701 C   0  0  0  0  0  0  0  0  0  0  0  0
  -25.8177  -11.4396   20.1822 N   0  0  0  0  0  0  0  0  0  0  0  0
  -27.0509  -11.9734   20.1943 N   0  0  0  0  0  0  0  0  0  0  0  0
  -23.4425  -30.7834   21.4931 N   0  0  0  0  0  0  0  0  0  0  0  0
  -27.5350  -15.2902   18.3504 N   0  0  0  0  0  0  0  0  0  0  0  0
  -28.8270  -16.9196   19.5324 N   0  0  0  0  0  0  0  0  0  0  0  0
  -29.0808  -12.0114   21.4144 N   0  0  0  0  0  0  0  0  0  0  0  0
  -26.4808   -9.1968   23.8049 N   0  0  0  0  0  0  0  0  0  0  0  0
  -25.1871  -33.1869   23.0897 N   0  0  0  0  0  0  0  0  0  0  0  0
  -20.1174  -30.2898   21.0955 N   0  0  0  0  0  0  0  0  0  0  0  0
  -19.1372  -28.6460   18.0287 N   0  3  0  0  0  0  0  0  0  0  0  0
  -28.5431  -10.1947   23.7051 O   0  0  0  0  0  0  0  0  0  0  0  0
  -25.7672  -30.9324   23.1465 O   0  0  0  0  0  0  0  0  0  0  0  0
  -21.8656  -32.4951   21.6331 O   0  0  0  0  0  0  0  0  0  0  0  0
  -20.5211  -28.1089   20.4189 O   0  0  0  0  0  0  0  0  0  0  0  0
  -29.4058  -16.2492   17.4039 O   0  0  0  0  0  0  0  0  0  0  0  0
  -21.2421   -7.7314   22.6035 O   0  0  0  0  0  0  0  0  0  0  0  0
  -29.2868  -21.5046   22.6599 O   0  0  0  0  0  0  0  0  0  0  0  0
  -26.9165  -25.7626   20.5539 O   0  0  0  0  0  0  0  0  0  1  0  0
  -21.9387   -2.4815   24.1388 F   0  0  0  0  0  0  0  0  0  0  0  0
  -20.0635   -5.6709   21.1865 F   0  0  0  0  0  0  0  0  0  0  0  0
  1  2  1  0  0  0  0
  1  5  2  0  0  0  0
  2  6  2  0  0  0  0
  3 10  2  0  0  0  0
  3 18  1  0  0  0  0
  4 11  1  0  0  0  0
  4 18  2  0  0  0  0
  5 20  1  0  0  0  0
  6 22  1  0  0  0  0
  7  9  2  0  0  0  0
  7 23  1  0  0  0  0
  8 12  2  0  0  0  0
  8 21  1  0  0  0  0
  9 25  1  0  0  0  0
 10 26  1  0  0  0  0
 11 26  2  0  0  0  0
 12 27  1  0  0  0  0
 13 14  2  0  0  0  0
 13 28  1  0  0  0  0
 14 30  1  0  0  0  0
 15 24  1  0  0  0  0
 15 27  2  0  0  0  0
 16 25  2  0  0  0  0
 16 29  1  0  0  0  0
 17 30  2  0  0  0  0
 17 31  1  0  0  0  0
 18 32  1  0  0  0  0
 19 32  1  0  0  0  0
 19 33  2  0  0  0  0
 19 34  1  0  0  0  0
 20 22  2  0  0  0  0
 20 39  1  0  0  0  0
 21 24  2  0  0  0  0
 21 40  1  0  0  0  0
 22 53  1  0  0  0  0
 23 29  2  0  0  0  0
 23 52  1  0  0  0  0
 24 41  1  0  0  0  0
 25 62  1  0  0  0  0
 26 81  1  0  0  0  0
 27 83  1  0  0  0  0
 28 31  2  0  0  0  0
 28 81  1  0  0  0  0
 29 82  1  0  0  0  0
 30 84  1  0  0  0  0
 31 85  1  0  0  0  0
 32 66  2  0  0  0  0
 33 67  1  0  0  0  0
 33 71  1  0  0  0  0
 34 72  1  0  0  0  0
 34 76  2  0  0  0  0
 35 54  1  0  0  0  0
 35 73  1  0  0  0  0
 35 77  2  0  0  0  0
 36 63  1  0  0  0  0
 36 68  1  0  0  0  0
 36 78  2  0  0  0  0
 37 64  1  0  0  0  0
 37 74  1  0  0  0  0
 37 79  2  0  0  0  0
 38 69  1  0  0  0  0
 38 70  1  0  0  0  0
 38 80  2  0  0  0  0
 39 42  1  0  0  0  0
 40 54  1  0  0  0  0
 41 68  1  0  0  0  0
 42 44  1  0  0  0  0
 43 45  1  0  0  0  0
 43 48  1  0  0  0  0
 44 53  1  0  0  0  0
 45 55  1  0  0  0  0
 46 49  1  0  0  0  0
 46 52  1  0  0  0  0
 47 50  1  0  0  0  0
 47 52  1  0  0  0  0
 48 69  1  0  0  0  0
 49 70  1  0  0  0  0
 50 70  1  0  0  0  0
 51 55  1  0  0  0  0
 51 69  1  0  0  0  0
 53 73  1  0  0  0  0
 54 68  1  0  0  0  0
 55 67  1  0  0  0  0
 56 64  1  0  0  0  0
 57 65  1  0  0  0  0
 58 65  1  0  0  0  0
 59 65  1  0  0  0  0
 60 75  1  0  0  0  0
 61 82  1  0  0  0  0
 62 83  1  0  0  0  0
 63 65  1  0  0  0  0
 63 74  1  0  0  0  0
 64 75  1  0  0  0  0
 66 67  1  0  0  0  0
M  CHG  1  75   1
M  ISO  4  38 100  62 101  70 100  83 101
M  END
> <Batch ID>
0147

> <Smiles>
CNC(C)C(=O)NC(C(=O)N1Cc2cc([101O:1][101CH2:1]c3ccc(C4CC[100N:0]([100C:0](=O)N5CCCC(n6nc(-c7ccc(Oc8ccc(F)cc8F)cc7)c(C(N)=O)c6N)C5)CC4)c(OC)c3)ccc2CC1C(=O)NC1CCCc2ccccc21)C(C)(C)C

> <Shape>
0.325

> <Color>
0.087

> <Negative vol penalty>
0.000

$$$$

  -OEChem-04052321333D

 84 93  0     1  0  0  0  0  0999 V2000
  -30.2653  -23.1255   16.0302 C   0  0  0  0  0  0  0  0  0  0  0  0
  -29.1914  -24.0076   16.0690 C   0  0  0  0  0  0  0  0  0  0  0  0
  -27.9290  -13.8274   22.2081 C   0  0  0  0  0  0  0  0  0  0  0  0
  -26.1189  -14.8111   20.9460 C   0  0  0  0  0  0  0  0  0  0  0  0
  -30.8379  -22.6777   17.2188 C   0  0  0  0  0  0  0  0  0  0  0  0
  -28.6974  -24.4515   17.2961 C   0  0  0  0  0  0  0  0  0  0  0  0
  -19.9664  -23.7843   23.5011 C   0  0  0  0  0  0  0  0  0  0  0  0
  -23.9093  -27.9902   18.5923 C   0  0  0  0  0  0  0  0  0  0  0  0
  -20.3821  -23.0436   24.6075 C   0  0  0  0  0  0  0  0  0  0  0  0
  -27.5736  -12.5648   21.7338 C   0  0  0  0  0  0  0  0  0  0  0  0
  -25.7635  -13.5485   20.4715 C   0  0  0  0  0  0  0  0  0  0  0  0
  -22.5578  -27.8239   18.8916 C   0  0  0  0  0  0  0  0  0  0  0  0
  -24.1567  -10.5416   19.2118 C   0  0  0  0  0  0  0  0  0  0  0  0
  -22.8032  -10.2048   19.2161 C   0  0  0  0  0  0  0  0  0  0  0  0
  -22.1315  -24.8518   23.4022 C   0  0  0  0  0  0  0  0  0  0  0  0
  -23.0683  -27.9622   21.2452 C   0  0  0  0  0  0  0  0  0  0  0  0
  -22.7369  -10.5016   21.6129 C   0  0  0  0  0  0  0  0  0  0  0  0
  -27.2016  -14.9506   21.8143 C   0  0  0  0  0  0  0  0  0  0  0  0
  -28.4702  -17.1616   21.7165 C   0  0  0  0  0  0  0  0  0  0  0  0
  -20.8411  -24.6883   22.8984 C   0  0  0  0  0  0  0  0  0  0  0  0
  -30.3419  -23.1071   18.4609 C   0  0  0  0  0  0  0  0  0  0  0  0
  -24.8535  -28.1331   19.6192 C   0  0  0  0  0  0  0  0  0  0  0  0
  -29.2770  -24.0297   18.5063 C   0  0  0  0  0  0  0  0  0  0  0  0
  -24.4309  -28.1328   20.9562 C   0  0  0  0  0  0  0  0  0  0  0  0
  -21.6725  -23.2071   25.1114 C   0  0  0  0  0  0  0  0  0  0  0  0
  -26.4909  -12.4253   20.8654 C   0  0  0  0  0  0  0  0  0  0  0  0
  -22.1375  -27.8070   20.2183 C   0  0  0  0  0  0  0  0  0  0  0  0
  -24.8004  -10.8584   20.4081 C   0  0  0  0  0  0  0  0  0  0  0  0
  -22.5472  -24.1112   24.5087 C   0  0  0  0  0  0  0  0  0  0  0  0
  -22.0932  -10.1847   20.4166 C   0  0  0  0  0  0  0  0  0  0  0  0
  -24.0904  -10.8384   21.6086 C   0  0  0  0  0  0  0  0  0  0  0  0
  -27.5678  -16.2551   22.3044 C   0  0  0  0  0  0  0  0  0  0  0  0
  -28.4685  -18.2445   22.5614 C   0  0  0  0  0  0  0  0  0  0  0  0
  -29.2411  -17.0361   20.5141 C   0  0  0  0  0  0  0  0  0  0  0  0
  -27.3864  -26.4729   20.5846 C   0  0  0  0  0  0  0  0  0  0  0  0
  -27.7780  -28.9851   22.5990 C   0  0  0  0  0  0  0  0  0  0  0  0
  -26.3690  -31.6070   24.2685 C   0  0  0  0  0  0  0  0  0  0  0  0
  -25.7387  -21.9517   25.7158 C   0  0  0  0  0  0  0  0  0  0  0  0
  -31.0043  -22.5969   19.7163 C   0  0  0  0  0  0  0  0  0  0  0  0
  -26.3041  -28.3384   19.2789 C   0  0  0  0  0  0  0  0  0  0  0  0
  -25.4020  -28.3025   22.0949 C   0  0  0  0  0  0  0  0  0  0  0  0
  -30.1368  -22.7705   20.9588 C   0  0  0  0  0  0  0  0  0  0  0  0
  -26.5103  -18.8047   27.1915 C   0  0  0  0  0  0  0  0  0  0  0  0
  -29.6089  -24.1956   21.0292 C   0  0  0  0  0  0  0  0  0  0  0  0
  -26.9223  -17.9345   26.0028 C   0  0  0  0  0  0  0  0  0  0  0  0
  -19.1451  -26.3119   21.8196 C   0  0  0  0  0  0  0  0  0  0  0  0
  -25.3814  -19.7650   26.8235 C   0  0  0  0  0  0  0  0  0  0  0  0
  -26.0577  -19.7377   24.4537 C   0  0  0  0  0  0  0  0  0  0  0  0
  -20.3993  -25.4751   21.7223 C   0  0  1  0  0  0  0  0  0  0  0  0
  -28.7032  -24.5023   19.8298 C   0  0  1  0  0  0  0  0  0  0  0  0
  -27.2447  -27.9596   20.4188 C   0  0  1  0  0  0  0  0  0  0  0  0
  -27.2313  -18.7918   24.7607 C   0  0  2  0  0  0  0  0  0  0  0  0
  -20.4825  -26.9851   21.7688 C   0  0  1  0  0  0  0  0  0  1  0  0
  -22.0999  -22.4068   26.2972 C   0  0  0  0  0  0  0  0  0  0  0  0
  -26.9341  -33.4565   25.8677 C   0  0  0  0  0  0  0  0  0  0  0  0
  -27.8689  -26.9725   24.8905 C   0  0  0  0  0  0  0  0  0  0  0  0
  -27.4767  -28.8680   26.4785 C   0  0  0  0  0  0  0  0  0  0  0  0
  -29.5334  -28.8305   25.0674 C   0  0  0  0  0  0  0  0  0  0  0  0
  -25.5661  -33.6897   22.3251 C   0  0  0  0  0  0  0  0  0  0  0  0
  -26.1479  -24.0611   24.4740 C   0  0  0  0  0  0  0  0  0  0  0  0
  -24.8165  -24.6531   24.0476 C   0  0  0  0  0  0  0  0  0  0  0  0
  -27.3001  -29.3245   23.9902 C   0  0  1  0  0  0  0  0  0  0  0  0
  -26.7932  -33.0580   24.4068 C   0  0  2  0  0  0  0  0  0  0  0  0
  -28.0265  -28.4937   25.0855 C   0  0  0  0  0  0  0  0  0  0  0  0
  -27.0319  -16.7215   23.4355 N   0  0  0  0  0  0  0  0  0  0  0  0
  -27.5992  -17.9328   23.5651 N   0  0  0  0  0  0  0  0  0  0  0  0
  -26.8104  -28.4938   21.7111 N   0  0  0  0  0  0  0  0  0  0  0  0
  -25.7383  -20.5492   25.6388 N   0  0  0  0  0  0  0  0  0  0  0  0
  -29.1257  -19.4234   22.5362 N   0  0  0  0  0  0  0  0  0  0  0  0
  -29.1236  -15.8573   19.7652 N   0  0  0  0  0  0  0  0  0  0  0  0
  -28.3939  -25.9152   19.8209 N   0  0  0  0  0  0  0  0  0  0  0  0
  -27.4549  -30.7680   24.1342 N   0  0  0  0  0  0  0  0  0  0  0  0
  -26.0951  -22.6181   24.5498 N   0  0  0  0  0  0  0  0  0  0  0  0
  -25.7876  -33.9547   23.7700 N   0  3  0  0  0  0  0  0  0  0  0  0
  -30.0236  -17.9357   20.1243 O   0  0  0  0  0  0  0  0  0  0  0  0
  -26.6380  -25.8763   21.3498 O   0  0  0  0  0  0  0  0  0  0  0  0
  -28.9645  -29.1565   22.3086 O   0  0  0  0  0  0  0  0  0  0  0  0
  -25.1921  -31.2529   24.2821 O   0  0  0  0  0  0  0  0  0  0  0  0
  -25.4486  -22.5645   26.7489 O   0  0  0  0  0  0  0  0  0  0  0  0
  -26.1440  -11.1934   20.4021 O   0  0  0  0  0  0  0  0  0  0  0  0
  -20.8191  -27.6441   20.5133 O   0  0  0  0  0  0  0  0  0  1  0  0
  -23.8105  -24.2831   24.9886 O   0  0  0  0  0  0  0  0  0  0  0  0
  -20.7930   -9.8627   20.4203 F   0  0  0  0  0  0  0  0  0  0  0  0
  -24.7031  -11.1429   22.7609 F   0  0  0  0  0  0  0  0  0  0  0  0
  1  2  1  0  0  0  0
  1  5  2  0  0  0  0
  2  6  2  0  0  0  0
  3 10  2  0  0  0  0
  3 18  1  0  0  0  0
  4 11  1  0  0  0  0
  4 18  2  0  0  0  0
  5 21  1  0  0  0  0
  6 23  1  0  0  0  0
  7  9  2  0  0  0  0
  7 20  1  0  0  0  0
  8 12  2  0  0  0  0
  8 22  1  0  0  0  0
  9 25  1  0  0  0  0
 10 26  1  0  0  0  0
 11 26  2  0  0  0  0
 12 27  1  0  0  0  0
 13 14  2  0  0  0  0
 13 28  1  0  0  0  0
 14 30  1  0  0  0  0
 15 20  2  0  0  0  0
 15 29  1  0  0  0  0
 16 24  1  0  0  0  0
 16 27  2  0  0  0  0
 17 30  2  0  0  0  0
 17 31  1  0  0  0  0
 18 32  1  0  0  0  0
 19 32  1  0  0  0  0
 19 33  2  0  0  0  0
 19 34  1  0  0  0  0
 20 49  1  0  0  0  0
 21 23  2  0  0  0  0
 21 39  1  0  0  0  0
 22 24  2  0  0  0  0
 22 40  1  0  0  0  0
 23 50  1  0  0  0  0
 24 41  1  0  0  0  0
 25 29  2  0  0  0  0
 25 54  1  0  0  0  0
 26 80  1  0  0  0  0
 27 81  1  0  0  0  0
 28 31  2  0  0  0  0
 28 80  1  0  0  0  0
 29 82  1  0  0  0  0
 30 83  1  0  0  0  0
 31 84  1  0  0  0  0
 32 65  2  0  0  0  0
 33 66  1  0  0  0  0
 33 69  1  0  0  0  0
 34 70  1  0  0  0  0
 34 75  2  0  0  0  0
 35 51  1  0  0  0  0
 35 71  1  0  0  0  0
 35 76  2  0  0  0  0
 36 62  1  0  0  0  0
 36 67  1  0  0  0  0
 36 77  2  0  0  0  0
 37 63  1  0  0  0  0
 37 72  1  0  0  0  0
 37 78  2  0  0  0  0
 38 68  1  0  0  0  0
 38 73  1  0  0  0  0
 38 79  2  0  0  0  0
 39 42  1  0  0  0  0
 40 51  1  0  0  0  0
 41 67  1  0  0  0  0
 42 44  1  0  0  0  0
 43 45  1  0  0  0  0
 43 47  1  0  0  0  0
 44 50  1  0  0  0  0
 45 52  1  0  0  0  0
 46 49  1  0  0  0  0
 46 53  1  0  0  0  0
 47 68  1  0  0  0  0
 48 52  1  0  0  0  0
 48 68  1  0  0  0  0
 49 53  1  0  0  0  0
 50 71  1  0  0  0  0
 51 67  1  0  0  0  0
 52 66  1  0  0  0  0
 53 81  1  0  0  0  0
 55 63  1  0  0  0  0
 56 64  1  0  0  0  0
 57 64  1  0  0  0  0
 58 64  1  0  0  0  0
 59 74  1  0  0  0  0
 60 61  1  0  0  0  0
 60 73  1  0  0  0  0
 61 82  1  0  0  0  0
 62 64  1  0  0  0  0
 62 72  1  0  0  0  0
 63 74  1  0  0  0  0
 65 66  1  0  0  0  0
M  CHG  1  74   1
M  ISO  4  38 100  53 101  73 100  81 101
M  END
> <Batch ID>
0147

> <Smiles>
CNC(C)C(=O)NC(C(=O)N1Cc2cc([101O:1][101CH:1]3CC3c3ccc(C)c(OCC[100NH:0][100C:0](=O)N4CCCC(n5nc(-c6ccc(Oc7ccc(F)cc7F)cc6)c(C(N)=O)c5N)C4)c3)ccc2CC1C(=O)NC1CCCc2ccccc21)C(C)(C)C

> <Shape>
0.240

> <Color>
0.061

> <Negative vol penalty>
0.000

$$$$

  -OEChem-04052321333D

 88 97  0     1  0  0  0  0  0999 V2000
  -30.0693  -11.3518   23.7547 C   0  0  0  0  0  0  0  0  0  0  0  0
  -29.6224  -12.6550   23.9483 C   0  0  0  0  0  0  0  0  0  0  0  0
  -28.7067  -26.3282   19.7354 C   0  0  0  0  0  0  0  0  0  0  0  0
  -26.6443  -25.4958   18.7918 C   0  0  0  0  0  0  0  0  0  0  0  0
  -29.6650  -10.6375   22.6277 C   0  0  0  0  0  0  0  0  0  0  0  0
  -28.7717  -13.2450   23.0142 C   0  0  0  0  0  0  0  0  0  0  0  0
  -24.2520  -17.2198   24.1455 C   0  0  0  0  0  0  0  0  0  0  0  0
  -29.2845  -25.0677   19.5846 C   0  0  0  0  0  0  0  0  0  0  0  0
  -27.2221  -24.2352   18.6409 C   0  0  0  0  0  0  0  0  0  0  0  0
  -24.1823  -18.6097   24.0614 C   0  0  0  0  0  0  0  0  0  0  0  0
  -28.0375  -20.7062   18.3392 C   0  0  0  0  0  0  0  0  0  0  0  0
  -27.2841  -19.5974   18.7245 C   0  0  0  0  0  0  0  0  0  0  0  0
  -23.2202  -18.4221   21.8572 C   0  0  0  0  0  0  0  0  0  0  0  0
  -19.5797  -24.8008   21.4739 C   0  0  0  0  0  0  0  0  0  0  0  0
  -27.1724  -20.4570   20.9797 C   0  0  0  0  0  0  0  0  0  0  0  0
  -20.7274  -26.0361   23.6192 C   0  0  0  0  0  0  0  0  0  0  0  0
  -27.3866  -26.5423   19.3390 C   0  0  0  0  0  0  0  0  0  0  0  0
  -26.7907  -28.8977   18.5615 C   0  0  0  0  0  0  0  0  0  0  0  0
  -28.8012  -11.2158   21.6842 C   0  0  0  0  0  0  0  0  0  0  0  0
  -23.8157  -16.4195   23.0798 C   0  0  0  0  0  0  0  0  0  0  0  0
  -28.3565  -12.5383   21.8727 C   0  0  0  0  0  0  0  0  0  0  0  0
  -23.2830  -17.0222   21.9313 C   0  0  0  0  0  0  0  0  0  0  0  0
  -19.1152  -26.0498   21.8707 C   0  0  0  0  0  0  0  0  0  0  0  0
  -19.6946  -26.6860   22.9629 C   0  0  0  0  0  0  0  0  0  0  0  0
  -28.5422  -24.0212   19.0374 C   0  0  0  0  0  0  0  0  0  0  0  0
  -23.6690  -19.2111   22.9160 C   0  0  0  0  0  0  0  0  0  0  0  0
  -28.3584  -21.6904   19.2741 C   0  0  0  0  0  0  0  0  0  0  0  0
  -26.8515  -19.4728   20.0447 C   0  0  0  0  0  0  0  0  0  0  0  0
  -27.9258  -21.5658   20.5943 C   0  0  0  0  0  0  0  0  0  0  0  0
  -26.7890  -27.8441   19.4951 C   0  0  0  0  0  0  0  0  0  0  0  0
  -20.6178  -24.2354   22.1967 C   0  0  0  0  0  0  0  0  0  0  0  0
  -26.0978  -29.9079   19.1826 C   0  0  0  0  0  0  0  0  0  0  0  0
  -27.3670  -28.9578   17.2500 C   0  0  0  0  0  0  0  0  0  0  0  0
  -25.2006  -14.3154   21.1411 C   0  0  0  0  0  0  0  0  0  0  0  0
  -22.1607  -13.8529   20.1080 C   0  0  0  0  0  0  0  0  0  0  0  0
  -18.9986  -15.0892   19.7622 C   0  0  0  0  0  0  0  0  0  0  0  0
  -21.9412  -29.9510   23.4921 C   0  0  0  0  0  0  0  0  0  0  0  0
  -28.4293  -10.4211   20.4575 C   0  0  0  0  0  0  0  0  0  0  0  0
  -23.8728  -14.9210   23.1969 C   0  0  0  0  0  0  0  0  0  0  0  0
  -22.7825  -16.2074   20.7677 C   0  0  0  0  0  0  0  0  0  0  0  0
  -27.2271  -10.9873   19.7063 C   0  0  0  0  0  0  0  0  0  0  0  0
  -25.0812  -31.6290   23.5295 C   0  0  0  0  0  0  0  0  0  0  0  0
  -27.3672  -12.4966   19.5349 C   0  0  0  0  0  0  0  0  0  0  0  0
  -14.2355  -27.4891   21.9286 C   0  0  0  0  0  0  0  0  0  0  0  0
  -15.2635  -28.5809   22.0336 C   0  0  0  0  0  0  0  0  0  0  0  0
  -25.8751  -30.9443   22.4155 C   0  0  0  0  0  0  0  0  0  0  0  0
  -24.1879  -30.6403   24.2755 C   0  0  0  0  0  0  0  0  0  0  0  0
  -24.0784  -29.1673   22.3027 C   0  0  0  0  0  0  0  0  0  0  0  0
  -27.4132  -13.2042   20.8946 C   0  0  1  0  0  0  0  0  0  0  0  0
  -23.8764  -14.2157   21.8442 C   0  0  1  0  0  0  0  0  0  0  0  0
  -15.5415  -27.3650   21.1939 C   0  0  0  0  0  0  0  0  0  0  0  0
  -24.9520  -30.1344   21.4854 C   0  0  2  0  0  0  0  0  0  0  0  0
  -16.7403  -14.4941   18.8439 C   0  0  0  0  0  0  0  0  0  0  0  0
  -16.1699  -24.9425   21.1780 C   0  0  0  0  0  0  0  0  0  0  0  0
  -23.1752  -14.3786   17.2788 C   0  0  0  0  0  0  0  0  0  0  0  0
  -20.7992  -14.7127   16.5638 C   0  0  0  0  0  0  0  0  0  0  0  0
  -21.5297  -12.5046   17.4656 C   0  0  0  0  0  0  0  0  0  0  0  0
  -17.7307  -15.2998   22.4281 C   0  0  0  0  0  0  0  0  0  0  0  0
  -17.9977  -26.6865   21.1129 C   0  0  0  0  0  0  0  0  0  0  0  0
  -19.2360  -28.0237   23.4302 C   0  0  0  0  0  0  0  0  0  0  0  0
  -19.7630  -29.1874   22.5804 C   0  0  0  0  0  0  0  0  0  0  0  0
  -22.5488  -21.1163   22.0380 C   0  0  0  0  0  0  0  0  0  1  0  0
  -22.1587  -22.4695   22.6005 C   0  0  0  0  0  0  0  0  0  0  0  0
  -21.2893  -14.4683   19.0399 C   0  0  1  0  0  0  0  0  0  0  0  0
  -17.6410  -14.4833   20.0692 C   0  0  2  0  0  0  0  0  0  0  0  0
  -16.5856  -26.3400   21.6441 C   0  0  1  0  0  0  0  0  0  0  0  0
  -21.7095  -14.0318   17.6080 C   0  0  0  0  0  0  0  0  0  0  0  0
  -21.2056  -24.8229   23.2630 N   0  0  0  0  0  0  0  0  0  0  0  0
  -26.1461  -28.1561   20.6236 N   0  0  0  0  0  0  0  0  0  0  0  0
  -25.7375  -29.4172   20.4031 N   0  0  0  0  0  0  0  0  0  0  0  0
  -22.8653  -14.7462   20.9275 N   0  0  0  0  0  0  0  0  0  0  0  0
  -23.3365  -29.9059   23.3365 N   0  0  0  0  0  0  0  0  0  0  0  0
  -25.7677  -31.1593   18.7984 N   0  0  0  0  0  0  0  0  0  0  0  0
  -28.0445  -27.8306   16.7656 N   0  0  0  0  0  0  0  0  0  0  0  0
  -26.0840  -13.3015   21.4589 N   0  0  0  0  0  0  0  0  0  0  0  0
  -19.9142  -14.1282   19.3889 N   0  0  0  0  0  0  0  0  0  0  0  0
  -21.2080  -29.2325   22.5558 N   0  0  0  0  0  0  0  0  0  0  0  0
  -16.9660  -15.2485   21.1554 N   0  3  0  0  0  0  0  0  0  0  0  0
  -27.2978  -29.9866   16.5356 O   0  0  0  0  0  0  0  0  0  0  0  0
  -25.4051  -15.2427   20.3666 O   0  0  0  0  0  0  0  0  0  0  0  0
  -22.2087  -12.6250   20.2162 O   0  0  0  0  0  0  0  0  0  0  0  0
  -19.2233  -16.2949   19.8417 O   0  0  0  0  0  0  0  0  0  0  0  0
  -21.3896  -30.5890   24.3953 O   0  0  0  0  0  0  0  0  0  0  0  0
  -29.1058  -22.7911   18.8898 O   0  0  0  0  0  0  0  0  0  0  0  0
  -23.6005  -20.5676   22.8311 O   0  0  0  0  0  0  0  0  0  1  0  0
  -21.0928  -23.0050   21.8257 O   0  0  0  0  0  0  0  0  0  0  0  0
  -26.1268  -18.4087   20.4142 F   0  0  0  0  0  0  0  0  0  0  0  0
  -28.2300  -22.5087   21.4967 F   0  0  0  0  0  0  0  0  0  0  0  0
  1  2  1  0  0  0  0
  1  5  2  0  0  0  0
  2  6  2  0  0  0  0
  3  8  2  0  0  0  0
  3 17  1  0  0  0  0
  4  9  1  0  0  0  0
  4 17  2  0  0  0  0
  5 19  1  0  0  0  0
  6 21  1  0  0  0  0
  7 10  2  0  0  0  0
  7 20  1  0  0  0  0
  8 25  1  0  0  0  0
  9 25  2  0  0  0  0
 10 26  1  0  0  0  0
 11 12  2  0  0  0  0
 11 27  1  0  0  0  0
 12 28  1  0  0  0  0
 13 22  1  0  0  0  0
 13 26  2  0  0  0  0
 14 23  2  0  0  0  0
 14 31  1  0  0  0  0
 15 28  2  0  0  0  0
 15 29  1  0  0  0  0
 16 24  2  0  0  0  0
 16 68  1  0  0  0  0
 17 30  1  0  0  0  0
 18 30  1  0  0  0  0
 18 32  2  0  0  0  0
 18 33  1  0  0  0  0
 19 21  2  0  0  0  0
 19 38  1  0  0  0  0
 20 22  2  0  0  0  0
 20 39  1  0  0  0  0
 21 49  1  0  0  0  0
 22 40  1  0  0  0  0
 23 24  1  0  0  0  0
 23 59  1  0  0  0  0
 24 60  1  0  0  0  0
 25 84  1  0  0  0  0
 26 85  1  0  0  0  0
 27 29  2  0  0  0  0
 27 84  1  0  0  0  0
 28 87  1  0  0  0  0
 29 88  1  0  0  0  0
 30 69  2  0  0  0  0
 31 68  2  0  0  0  0
 31 86  1  0  0  0  0
 32 70  1  0  0  0  0
 32 73  1  0  0  0  0
 33 74  1  0  0  0  0
 33 79  2  0  0  0  0
 34 50  1  0  0  0  0
 34 75  1  0  0  0  0
 34 80  2  0  0  0  0
 35 64  1  0  0  0  0
 35 71  1  0  0  0  0
 35 81  2  0  0  0  0
 36 65  1  0  0  0  0
 36 76  1  0  0  0  0
 36 82  2  0  0  0  0
 37 72  1  0  0  0  0
 37 77  1  0  0  0  0
 37 83  2  0  0  0  0
 38 41  1  0  0  0  0
 39 50  1  0  0  0  0
 40 71  1  0  0  0  0
 41 43  1  0  0  0  0
 42 46  1  0  0  0  0
 42 47  1  0  0  0  0
 43 49  1  0  0  0  0
 44 45  1  0  0  0  0
 44 51  1  0  0  0  0
 45 51  1  0  0  0  0
 46 52  1  0  0  0  0
 47 72  1  0  0  0  0
 48 52  1  0  0  0  0
 48 72  1  0  0  0  0
 49 75  1  0  0  0  0
 50 71  1  0  0  0  0
 51 66  1  0  0  0  0
 52 70  1  0  0  0  0
 53 65  1  0  0  0  0
 54 66  1  0  0  0  0
 55 67  1  0  0  0  0
 56 67  1  0  0  0  0
 57 67  1  0  0  0  0
 58 78  1  0  0  0  0
 59 66  1  0  0  0  0
 60 61  1  0  0  0  0
 61 77  1  0  0  0  0
 62 63  1  0  0  0  0
 62 85  1  0  0  0  0
 63 86  1  0  0  0  0
 64 67  1  0  0  0  0
 64 76  1  0  0  0  0
 65 78  1  0  0  0  0
 69 70  1  0  0  0  0
M  CHG  1  78   1
M  ISO  4  37 100  62 101  77 100  85 101
M  END
> <Batch ID>
0147

> <Smiles>
CNC(C)C(=O)NC(C(=O)N1Cc2cc([101O:1][101CH2:1]COc3cc(CC(C)C4CC4)c(CC[100NH:0][100C:0](=O)N4CCCC(n5nc(-c6ccc(Oc7ccc(F)cc7F)cc6)c(C(N)=O)c5N)C4)cn3)ccc2CC1C(=O)NC1CCCc2ccccc21)C(C)(C)C

> <Shape>
0.214

> <Color>
0.065

> <Negative vol penalty>
0.000

$$$$

  -OEChem-04052321333D

 86 95  0     1  0  0  0  0  0999 V2000
  -29.3830  -36.9843   22.9700 C   0  0  0  0  0  0  0  0  0  0  0  0
  -29.5201  -36.0077   21.9887 C   0  0  0  0  0  0  0  0  0  0  0  0
  -23.7685   -8.1165   16.9360 C   0  0  0  0  0  0  0  0  0  0  0  0
  -25.4224   -6.7766   18.0790 C   0  0  0  0  0  0  0  0  0  0  0  0
  -28.8480  -36.6510   24.2136 C   0  0  0  0  0  0  0  0  0  0  0  0
  -29.1233  -34.6969   22.2508 C   0  0  0  0  0  0  0  0  0  0  0  0
  -26.3385  -28.9514   19.0026 C   0  0  0  0  0  0  0  0  0  0  0  0
  -23.9115   -7.3224   15.7982 C   0  0  0  0  0  0  0  0  0  0  0  0
  -25.5654   -5.9825   16.9411 C   0  0  0  0  0  0  0  0  0  0  0  0
  -26.5803  -27.5893   18.8294 C   0  0  0  0  0  0  0  0  0  0  0  0
  -23.5780   -5.4271   12.7141 C   0  0  0  0  0  0  0  0  0  0  0  0
  -22.4165   -5.0135   12.0618 C   0  0  0  0  0  0  0  0  0  0  0  0
  -25.5958  -27.1464   20.9867 C   0  0  0  0  0  0  0  0  0  0  0  0
  -28.1935  -22.8489   19.1904 C   0  0  0  0  0  0  0  0  0  0  0  0
  -26.3699  -22.7033   17.6124 C   0  0  0  0  0  0  0  0  0  0  0  0
  -21.6916   -3.8823   14.0697 C   0  0  0  0  0  0  0  0  0  0  0  0
  -24.5240   -7.8436   18.0764 C   0  0  0  0  0  0  0  0  0  0  0  0
  -23.4805   -8.4671   20.3191 C   0  0  0  0  0  0  0  0  0  0  0  0
  -28.4354  -35.3375   24.4878 C   0  0  0  0  0  0  0  0  0  0  0  0
  -25.7325  -29.4231   20.1759 C   0  0  0  0  0  0  0  0  0  0  0  0
  -28.5834  -34.3454   23.4997 C   0  0  0  0  0  0  0  0  0  0  0  0
  -25.3452  -28.5146   21.1713 C   0  0  0  0  0  0  0  0  0  0  0  0
  -27.2159  -23.4703   18.4135 C   0  0  0  0  0  0  0  0  0  0  0  0
  -28.3254  -21.4604   19.1661 C   0  0  0  0  0  0  0  0  0  0  0  0
  -26.5017  -21.3149   17.5881 C   0  0  0  0  0  0  0  0  0  0  0  0
  -27.4794  -20.6935   18.3650 C   0  0  0  0  0  0  0  0  0  0  0  0
  -24.8099   -6.2554   15.8008 C   0  0  0  0  0  0  0  0  0  0  0  0
  -26.2115  -26.6868   19.8227 C   0  0  0  0  0  0  0  0  0  0  0  0
  -23.7963   -5.0682   14.0442 C   0  0  0  0  0  0  0  0  0  0  0  0
  -21.4733   -4.2412   12.7395 C   0  0  0  0  0  0  0  0  0  0  0  0
  -22.8531   -4.2958   14.7220 C   0  0  0  0  0  0  0  0  0  0  0  0
  -24.3772   -8.6638   19.2519 C   0  0  0  0  0  0  0  0  0  0  0  0
  -23.7336   -9.5096   21.1768 C   0  0  0  0  0  0  0  0  0  0  0  0
  -22.5060   -7.4343   20.5176 C   0  0  0  0  0  0  0  0  0  0  0  0
  -26.6094  -31.3784   22.5236 C   0  0  0  0  0  0  0  0  0  0  0  0
  -23.5406  -30.9636   23.4896 C   0  0  0  0  0  0  0  0  0  0  0  0
  -20.7330  -29.0236   23.4662 C   0  0  0  0  0  0  0  0  0  0  0  0
  -25.7565  -14.8771   20.4777 C   0  0  0  0  0  0  0  0  0  0  0  0
  -27.9066  -35.0149   25.8629 C   0  0  0  0  0  0  0  0  0  0  0  0
  -25.4544  -30.8927   20.3359 C   0  0  0  0  0  0  0  0  0  0  0  0
  -24.6731  -28.9679   22.4406 C   0  0  0  0  0  0  0  0  0  0  0  0
  -27.1631  -33.6835   25.9327 C   0  0  0  0  0  0  0  0  0  0  0  0
  -27.2247  -12.4648   22.5643 C   0  0  0  0  0  0  0  0  0  0  0  0
  -27.9576  -32.5907   25.2245 C   0  0  0  0  0  0  0  0  0  0  0  0
  -26.5692  -11.1821   22.0532 C   0  0  0  0  0  0  0  0  0  0  0  0
  -28.1685  -17.1394   19.2726 C   0  0  0  0  0  0  0  0  0  0  0  0
  -25.9812  -18.2718   19.8215 C   0  0  0  0  0  0  0  0  0  0  0  0
  -27.5965  -13.4126   21.4226 C   0  0  0  0  0  0  0  0  0  0  0  0
  -27.9375  -16.1685   20.4343 C   0  0  0  0  0  0  0  0  0  0  0  0
  -25.8079  -17.3000   20.9855 C   0  0  0  0  0  0  0  0  0  0  0  0
  -25.8153  -12.4466   20.0039 C   0  0  0  0  0  0  0  0  0  0  0  0
  -28.1414  -32.9178   23.7377 C   0  0  1  0  0  0  0  0  0  0  0  0
  -25.2978  -31.3159   21.7932 C   0  0  1  0  0  0  0  0  0  0  0  0
  -25.3777  -11.4998   21.1322 C   0  0  1  0  0  0  0  0  0  0  0  0
  -27.4659  -18.4781   19.5105 C   0  0  0  0  0  0  0  0  0  0  0  0
  -29.3830  -20.8236   20.0080 C   0  0  0  0  0  0  0  0  0  0  0  0
  -25.5816  -20.5193   16.7201 C   0  0  0  0  0  0  0  0  0  0  0  0
  -18.3969  -28.9281   24.3777 C   0  0  0  0  0  0  0  0  0  0  0  0
  -24.6408  -30.1527   26.2176 C   0  0  0  0  0  0  0  0  0  0  0  0
  -22.3975  -29.1795   26.7554 C   0  0  0  0  0  0  0  0  0  0  0  0
  -22.6193  -31.6227   26.3030 C   0  0  0  0  0  0  0  0  0  0  0  0
  -19.5496  -29.0433   20.7536 C   0  0  0  0  0  0  0  0  0  0  0  0
  -27.0750  -24.9550   18.4403 C   0  0  0  0  0  0  0  0  0  1  0  0
  -22.8261  -29.9839   24.3889 C   0  0  1  0  0  0  0  0  0  0  0  0
  -19.2752  -29.3645   23.2154 C   0  0  2  0  0  0  0  0  0  0  0  0
  -23.1353  -30.2260   25.8933 C   0  0  0  0  0  0  0  0  0  0  0  0
  -25.1426   -9.7463   19.4143 N   0  0  0  0  0  0  0  0  0  0  0  0
  -24.7275  -10.2392   20.5937 N   0  0  0  0  0  0  0  0  0  0  0  0
  -24.4284  -30.4153   22.5530 N   0  0  0  0  0  0  0  0  0  0  0  0
  -26.4397  -13.6539   20.5490 N   0  0  0  0  0  0  0  0  0  0  0  0
  -26.5028  -16.0385   20.7268 N   0  0  0  0  0  0  0  0  0  0  0  0
  -23.2007   -9.8643   22.3653 N   0  0  0  0  0  0  0  0  0  0  0  0
  -22.3768   -6.4405   19.5378 N   0  0  0  0  0  0  0  0  0  0  0  0
  -27.6106  -19.3163   18.3407 N   0  0  0  0  0  0  0  0  0  0  0  0
  -26.9266  -32.6347   23.0039 N   0  0  0  0  0  0  0  0  0  0  0  0
  -21.4105  -30.0743   24.0478 N   0  0  0  0  0  0  0  0  0  0  0  0
  -18.7900  -28.6872   21.9797 N   0  3  0  0  0  0  0  0  0  0  0  0
  -21.7602   -7.4032   21.5257 O   0  0  0  0  0  0  0  0  0  0  0  0
  -27.2830  -30.3618   22.6439 O   0  0  0  0  0  0  0  0  0  0  0  0
  -23.3139  -32.1702   23.6088 O   0  0  0  0  0  0  0  0  0  0  0  0
  -21.2210  -27.9329   23.1787 O   0  0  0  0  0  0  0  0  0  0  0  0
  -24.5501  -14.9288   20.2072 O   0  0  0  0  0  0  0  0  0  0  0  0
  -24.9495   -5.4802   14.6907 O   0  0  0  0  0  0  0  0  0  0  0  0
  -26.4485  -25.3477   19.6553 O   0  0  0  0  0  0  0  0  0  1  0  0
  -20.3573   -3.8454   12.1134 F   0  0  0  0  0  0  0  0  0  0  0  0
  -23.0567   -3.9489   16.0003 F   0  0  0  0  0  0  0  0  0  0  0  0
  1  2  1  0  0  0  0
  1  5  2  0  0  0  0
  2  6  2  0  0  0  0
  3  8  2  0  0  0  0
  3 17  1  0  0  0  0
  4  9  1  0  0  0  0
  4 17  2  0  0  0  0
  5 19  1  0  0  0  0
  6 21  1  0  0  0  0
  7 10  2  0  0  0  0
  7 20  1  0  0  0  0
  8 27  1  0  0  0  0
  9 27  2  0  0  0  0
 10 28  1  0  0  0  0
 11 12  2  0  0  0  0
 11 29  1  0  0  0  0
 12 30  1  0  0  0  0
 13 22  1  0  0  0  0
 13 28  2  0  0  0  0
 14 23  1  0  0  0  0
 14 24  2  0  0  0  0
 15 23  2  0  0  0  0
 15 25  1  0  0  0  0
 16 30  2  0  0  0  0
 16 31  1  0  0  0  0
 17 32  1  0  0  0  0
 18 32  1  0  0  0  0
 18 33  2  0  0  0  0
 18 34  1  0  0  0  0
 19 21  2  0  0  0  0
 19 39  1  0  0  0  0
 20 22  2  0  0  0  0
 20 40  1  0  0  0  0
 21 52  1  0  0  0  0
 22 41  1  0  0  0  0
 23 63  1  0  0  0  0
 24 26  1  0  0  0  0
 24 56  1  0  0  0  0
 25 26  2  0  0  0  0
 25 57  1  0  0  0  0
 26 74  1  0  0  0  0
 27 83  1  0  0  0  0
 28 84  1  0  0  0  0
 29 31  2  0  0  0  0
 29 83  1  0  0  0  0
 30 85  1  0  0  0  0
 31 86  1  0  0  0  0
 32 67  2  0  0  0  0
 33 68  1  0  0  0  0
 33 72  1  0  0  0  0
 34 73  1  0  0  0  0
 34 78  2  0  0  0  0
 35 53  1  0  0  0  0
 35 75  1  0  0  0  0
 35 79  2  0  0  0  0
 36 64  1  0  0  0  0
 36 69  1  0  0  0  0
 36 80  2  0  0  0  0
 37 65  1  0  0  0  0
 37 76  1  0  0  0  0
 37 81  2  0  0  0  0
 38 70  1  0  0  0  0
 38 71  1  0  0  0  0
 38 82  2  0  0  0  0
 39 42  1  0  0  0  0
 40 53  1  0  0  0  0
 41 69  1  0  0  0  0
 42 44  1  0  0  0  0
 43 45  1  0  0  0  0
 43 48  1  0  0  0  0
 44 52  1  0  0  0  0
 45 54  1  0  0  0  0
 46 49  1  0  0  0  0
 46 55  1  0  0  0  0
 47 50  1  0  0  0  0
 47 55  1  0  0  0  0
 48 70  1  0  0  0  0
 49 71  1  0  0  0  0
 50 71  1  0  0  0  0
 51 54  1  0  0  0  0
 51 70  1  0  0  0  0
 52 75  1  0  0  0  0
 53 69  1  0  0  0  0
 54 68  1  0  0  0  0
 55 74  1  0  0  0  0
 58 65  1  0  0  0  0
 59 66  1  0  0  0  0
 60 66  1  0  0  0  0
 61 66  1  0  0  0  0
 62 77  1  0  0  0  0
 63 84  1  0  0  0  0
 64 66  1  0  0  0  0
 64 76  1  0  0  0  0
 65 77  1  0  0  0  0
 67 68  1  0  0  0  0
M  CHG  1  77   1
M  ISO  4  38 100  63 101  71 100  84 101
M  END
> <Batch ID>
0147

> <Smiles>
CNC(C)C(=O)NC(C(=O)N1Cc2cc([101O:1][101CH2:1]c3cc(C)c(NC4CC[100N:0]([100C:0](=O)N5CCCC(n6nc(-c7ccc(Oc8ccc(F)cc8F)cc7)c(C(N)=O)c6N)C5)CC4)c(C)c3)ccc2CC1C(=O)NC1CCCc2ccccc21)C(C)(C)C

> <Shape>
0.230

> <Color>
0.079

> <Negative vol penalty>
0.000

$$$$

  -OEChem-04052321333D

 89 99  0     1  0  0  0  0  0999 V2000
  -28.2847  -34.4000   26.4663 C   0  0  0  0  0  0  0  0  0  0  0  0
  -28.4442  -33.2133   25.7578 C   0  0  0  0  0  0  0  0  0  0  0  0
  -24.7919   -8.2845   21.3248 C   0  0  0  0  0  0  0  0  0  0  0  0
  -23.8189   -8.0848   19.1224 C   0  0  0  0  0  0  0  0  0  0  0  0
  -27.0055  -34.8522   26.7875 C   0  0  0  0  0  0  0  0  0  0  0  0
  -27.3245  -32.4776   25.3712 C   0  0  0  0  0  0  0  0  0  0  0  0
  -27.6197  -30.8644   20.5800 C   0  0  0  0  0  0  0  0  0  0  0  0
  -23.6424   -7.7255   21.8833 C   0  0  0  0  0  0  0  0  0  0  0  0
  -22.6695   -7.5258   19.6809 C   0  0  0  0  0  0  0  0  0  0  0  0
  -28.4261  -29.7548   20.3303 C   0  0  0  0  0  0  0  0  0  0  0  0
  -30.7707  -21.7697   20.5670 C   0  0  0  0  0  0  0  0  0  0  0  0
  -31.0117  -23.1382   20.4455 C   0  0  0  0  0  0  0  0  0  0  0  0
  -22.3026   -4.6443   22.2630 C   0  0  0  0  0  0  0  0  0  0  0  0
  -22.4680   -3.6584   23.2357 C   0  0  0  0  0  0  0  0  0  0  0  0
  -26.4675  -28.3471   20.2942 C   0  0  0  0  0  0  0  0  0  0  0  0
  -28.8319  -21.9845   19.1415 C   0  0  0  0  0  0  0  0  0  0  0  0
  -21.2755   -5.0292   24.8281 C   0  0  0  0  0  0  0  0  0  0  0  0
  -24.8801   -8.4642   19.9444 C   0  0  0  0  0  0  0  0  0  0  0  0
  -27.2147   -8.3594   18.9215 C   0  0  0  0  0  0  0  0  0  0  0  0
  -25.8693  -34.1266   26.3962 C   0  0  0  0  0  0  0  0  0  0  0  0
  -26.2299  -30.7217   20.6997 C   0  0  0  0  0  0  0  0  0  0  0  0
  -26.0290  -32.9199   25.6886 C   0  0  0  0  0  0  0  0  0  0  0  0
  -25.6454  -29.4568   20.5428 C   0  0  0  0  0  0  0  0  0  0  0  0
  -29.0728  -23.3531   19.0201 C   0  0  0  0  0  0  0  0  0  0  0  0
  -22.5812   -7.3461   21.0614 C   0  0  0  0  0  0  0  0  0  0  0  0
  -29.6809  -21.1929   19.9149 C   0  0  0  0  0  0  0  0  0  0  0  0
  -27.8503  -28.4955   20.1902 C   0  0  0  0  0  0  0  0  0  0  0  0
  -30.1627  -23.9299   19.6721 C   0  0  0  0  0  0  0  0  0  0  0  0
  -21.6237   -5.8228   22.5729 C   0  0  0  0  0  0  0  0  0  0  0  0
  -21.9545   -3.8508   24.5182 C   0  0  0  0  0  0  0  0  0  0  0  0
  -21.1101   -6.0152   23.8554 C   0  0  0  0  0  0  0  0  0  0  0  0
  -26.0670   -9.0421   19.3669 C   0  0  0  0  0  0  0  0  0  0  0  0
  -28.0475   -9.3506   18.4629 C   0  0  0  0  0  0  0  0  0  0  0  0
  -27.5024   -6.9547   18.9223 C   0  0  0  0  0  0  0  0  0  0  0  0
  -24.1130  -31.2383   23.0139 C   0  0  0  0  0  0  0  0  0  0  0  0
  -21.9736  -30.5178   20.6845 C   0  0  0  0  0  0  0  0  0  0  0  0
  -21.3340  -28.9458   17.7237 C   0  0  0  0  0  0  0  0  0  0  0  0
  -28.7291  -14.9397   19.7611 C   0  0  0  0  0  0  0  0  0  0  0  0
  -24.5087  -34.6310   26.8074 C   0  0  0  0  0  0  0  0  0  0  0  0
  -25.3713  -31.9327   20.9426 C   0  0  0  0  0  0  0  0  0  0  0  0
  -24.1564  -29.2534   20.6423 C   0  0  0  0  0  0  0  0  0  0  0  0
  -23.3609  -33.9856   26.0353 C   0  0  0  0  0  0  0  0  0  0  0  0
  -27.9715  -13.7309   16.5538 C   0  0  0  0  0  0  0  0  0  0  0  0
  -27.9182  -23.7990   16.7525 C   0  0  0  0  0  0  0  0  0  0  0  0
  -28.7304  -25.0152   17.0711 C   0  0  0  0  0  0  0  0  0  0  0  0
  -23.5457  -32.4728   25.9696 C   0  0  0  0  0  0  0  0  0  0  0  0
  -27.5040  -12.3099   16.8677 C   0  0  0  0  0  0  0  0  0  0  0  0
  -30.5659  -18.0377   18.8803 C   0  0  0  0  0  0  0  0  0  0  0  0
  -28.0825  -18.4452   18.6047 C   0  0  0  0  0  0  0  0  0  0  0  0
  -27.4569  -14.7430   17.5788 C   0  0  0  0  0  0  0  0  0  0  0  0
  -30.2462  -16.8834   19.8289 C   0  0  0  0  0  0  0  0  0  0  0  0
  -27.8199  -17.2848   19.5619 C   0  0  0  0  0  0  0  0  0  0  0  0
  -27.3023  -12.9691   19.2952 C   0  0  0  0  0  0  0  0  0  0  0  0
  -28.1551  -24.1856   18.1883 C   0  0  0  0  0  0  0  0  0  0  0  0
  -24.8381  -32.1065   25.2300 C   0  0  1  0  0  0  0  0  0  0  0  0
  -24.0171  -31.5915   21.5566 C   0  0  1  0  0  0  0  0  0  0  0  0
  -27.8522  -11.9208   18.3155 C   0  0  1  0  0  0  0  0  0  0  0  0
  -29.4533  -19.0854   18.8301 C   0  0  0  0  0  0  0  0  0  0  0  0
  -19.4829  -28.5027   16.0882 C   0  0  0  0  0  0  0  0  0  0  0  0
  -20.8029  -28.4316   22.5785 C   0  0  0  0  0  0  0  0  0  0  0  0
  -19.6374  -27.4046   20.6151 C   0  0  0  0  0  0  0  0  0  0  0  0
  -19.1051  -29.7449   21.2950 C   0  0  0  0  0  0  0  0  0  0  0  0
  -22.7703  -30.3389   15.5431 C   0  0  0  0  0  0  0  0  0  0  0  0
  -29.9623  -27.4385   20.4701 C   0  0  0  0  0  0  0  0  0  1  0  0
  -30.4125  -26.0227   20.7738 C   0  0  0  0  0  0  0  0  0  0  0  0
  -21.3225  -29.2504   20.1857 C   0  0  1  0  0  0  0  0  0  0  0  0
  -20.6369  -29.4202   16.4613 C   0  0  2  0  0  0  0  0  0  0  0  0
  -20.2452  -28.7111   21.1686 C   0  0  0  0  0  0  0  0  0  0  0  0
  -26.1589  -10.3648   19.2059 N   0  0  0  0  0  0  0  0  0  0  0  0
  -27.3743  -10.5212   18.6543 N   0  0  0  0  0  0  0  0  0  0  0  0
  -23.3600  -30.4672   20.8871 N   0  0  0  0  0  0  0  0  0  0  0  0
  -27.7779  -14.3091   18.9451 N   0  0  0  0  0  0  0  0  0  0  0  0
  -28.9249  -16.3167   19.5607 N   0  0  0  0  0  0  0  0  0  0  0  0
  -29.2827   -9.3264   17.9186 N   0  0  0  0  0  0  0  0  0  0  0  0
  -26.5363   -6.0752   19.4296 N   0  0  0  0  0  0  0  0  0  0  0  0
  -24.6563  -32.2363   23.8002 N   0  0  0  0  0  0  0  0  0  0  0  0
  -20.8168  -29.5495   18.8503 N   0  0  0  0  0  0  0  0  0  0  0  0
  -21.5966  -29.4555   15.3217 N   0  3  0  0  0  0  0  0  0  0  0  0
  -28.5907   -6.4947   18.5011 O   0  0  0  0  0  0  0  0  0  0  0  0
  -23.7215  -30.1420   23.3969 O   0  0  0  0  0  0  0  0  0  0  0  0
  -21.2787  -31.5181   20.8801 O   0  0  0  0  0  0  0  0  0  0  0  0
  -22.2435  -28.1193   17.7118 O   0  0  0  0  0  0  0  0  0  0  0  0
  -29.3683  -14.3126   20.6150 O   0  0  0  0  0  0  0  0  0  0  0  0
  -21.4596   -6.8004   21.6060 O   0  0  0  0  0  0  0  0  0  0  0  0
  -29.4450  -19.8486   20.0346 O   0  0  0  0  0  0  0  0  0  0  0  0
  -28.6405  -27.4033   19.9454 O   0  0  0  0  0  0  0  0  0  1  0  0
  -30.4137  -25.2650   19.5657 O   0  0  0  0  0  0  0  0  0  0  0  0
  -22.1121   -2.9032   25.4517 F   0  0  0  0  0  0  0  0  0  0  0  0
  -20.4559   -7.1447   24.1588 F   0  0  0  0  0  0  0  0  0  0  0  0
  1  2  1  0  0  0  0
  1  5  2  0  0  0  0
  2  6  2  0  0  0  0
  3  8  2  0  0  0  0
  3 18  1  0  0  0  0
  4  9  1  0  0  0  0
  4 18  2  0  0  0  0
  5 20  1  0  0  0  0
  6 22  1  0  0  0  0
  7 10  2  0  0  0  0
  7 21  1  0  0  0  0
  8 25  1  0  0  0  0
  9 25  2  0  0  0  0
 10 27  1  0  0  0  0
 11 12  2  0  0  0  0
 11 26  1  0  0  0  0
 12 28  1  0  0  0  0
 13 14  2  0  0  0  0
 13 29  1  0  0  0  0
 14 30  1  0  0  0  0
 15 23  1  0  0  0  0
 15 27  2  0  0  0  0
 16 24  1  0  0  0  0
 16 26  2  0  0  0  0
 17 30  2  0  0  0  0
 17 31  1  0  0  0  0
 18 32  1  0  0  0  0
 19 32  1  0  0  0  0
 19 33  2  0  0  0  0
 19 34  1  0  0  0  0
 20 22  2  0  0  0  0
 20 39  1  0  0  0  0
 21 23  2  0  0  0  0
 21 40  1  0  0  0  0
 22 55  1  0  0  0  0
 23 41  1  0  0  0  0
 24 28  2  0  0  0  0
 24 54  1  0  0  0  0
 25 84  1  0  0  0  0
 26 85  1  0  0  0  0
 27 86  1  0  0  0  0
 28 87  1  0  0  0  0
 29 31  2  0  0  0  0
 29 84  1  0  0  0  0
 30 88  1  0  0  0  0
 31 89  1  0  0  0  0
 32 69  2  0  0  0  0
 33 70  1  0  0  0  0
 33 74  1  0  0  0  0
 34 75  1  0  0  0  0
 34 79  2  0  0  0  0
 35 56  1  0  0  0  0
 35 76  1  0  0  0  0
 35 80  2  0  0  0  0
 36 66  1  0  0  0  0
 36 71  1  0  0  0  0
 36 81  2  0  0  0  0
 37 67  1  0  0  0  0
 37 77  1  0  0  0  0
 37 82  2  0  0  0  0
 38 72  1  0  0  0  0
 38 73  1  0  0  0  0
 38 83  2  0  0  0  0
 39 42  1  0  0  0  0
 40 56  1  0  0  0  0
 41 71  1  0  0  0  0
 42 46  1  0  0  0  0
 43 47  1  0  0  0  0
 43 50  1  0  0  0  0
 44 45  1  0  0  0  0
 44 54  1  0  0  0  0
 45 54  1  0  0  0  0
 46 55  1  0  0  0  0
 47 57  1  0  0  0  0
 48 51  1  0  0  0  0
 48 58  1  0  0  0  0
 49 52  1  0  0  0  0
 49 58  1  0  0  0  0
 50 72  1  0  0  0  0
 51 73  1  0  0  0  0
 52 73  1  0  0  0  0
 53 57  1  0  0  0  0
 53 72  1  0  0  0  0
 55 76  1  0  0  0  0
 56 71  1  0  0  0  0
 57 70  1  0  0  0  0
 58 85  1  0  0  0  0
 59 67  1  0  0  0  0
 60 68  1  0  0  0  0
 61 68  1  0  0  0  0
 62 68  1  0  0  0  0
 63 78  1  0  0  0  0
 64 65  1  0  0  0  0
 64 86  1  0  0  0  0
 65 87  1  0  0  0  0
 66 68  1  0  0  0  0
 66 77  1  0  0  0  0
 67 78  1  0  0  0  0
 69 70  1  0  0  0  0
M  CHG  1  78   1
M  ISO  4  38 100  64 101  73 100  86 101
M  END
> <Batch ID>
0147

> <Smiles>
CNC(C)C(=O)NC(C(=O)N1Cc2cc([101O:1][101CH2:1]COc3ccc(OC4CC[100N:0]([100C:0](=O)N5CCCC(n6nc(-c7ccc(Oc8ccc(F)cc8F)cc7)c(C(N)=O)c6N)C5)CC4)cc3C3CC3)ccc2CC1C(=O)NC1CCCc2ccccc21)C(C)(C)C

> <Shape>
0.318

> <Color>
0.101

> <Negative vol penalty>
0.000

$$$$

  -OEChem-04052321333D

 88 97  0     1  0  0  0  0  0999 V2000
  -29.1665  -34.6059   27.5194 C   0  0  0  0  0  0  0  0  0  0  0  0
  -28.9599  -33.4194   26.8229 C   0  0  0  0  0  0  0  0  0  0  0  0
  -24.1170   -9.3809   22.1418 C   0  0  0  0  0  0  0  0  0  0  0  0
  -24.5526   -8.4932   19.9375 C   0  0  0  0  0  0  0  0  0  0  0  0
  -28.1308  -35.5312   27.6406 C   0  0  0  0  0  0  0  0  0  0  0  0
  -27.7168  -33.1573   26.2480 C   0  0  0  0  0  0  0  0  0  0  0  0
  -28.0994  -31.3431   21.5356 C   0  0  0  0  0  0  0  0  0  0  0  0
  -23.0547   -8.4894   22.2910 C   0  0  0  0  0  0  0  0  0  0  0  0
  -23.4903   -7.6017   20.0866 C   0  0  0  0  0  0  0  0  0  0  0  0
  -28.4392  -29.9981   21.3967 C   0  0  0  0  0  0  0  0  0  0  0  0
  -22.6339   -5.2178   23.0343 C   0  0  0  0  0  0  0  0  0  0  0  0
  -22.5276   -4.5328   24.2446 C   0  0  0  0  0  0  0  0  0  0  0  0
  -26.1187  -29.4568   21.0207 C   0  0  0  0  0  0  0  0  0  0  0  0
  -27.0407  -24.5655   21.7359 C   0  0  0  0  0  0  0  0  0  0  0  0
  -28.4603  -23.7040   19.4942 C   0  0  0  0  0  0  0  0  0  0  0  0
  -20.3496   -5.5133   24.6082 C   0  0  0  0  0  0  0  0  0  0  0  0
  -24.8660   -9.3829   20.9650 C   0  0  0  0  0  0  0  0  0  0  0  0
  -27.3092  -10.0896   21.1623 C   0  0  0  0  0  0  0  0  0  0  0  0
  -26.8773  -35.2846   27.0587 C   0  0  0  0  0  0  0  0  0  0  0  0
  -26.7630  -31.7543   21.4287 C   0  0  0  0  0  0  0  0  0  0  0  0
  -26.6628  -34.0796   26.3627 C   0  0  0  0  0  0  0  0  0  0  0  0
  -25.7649  -30.8080   21.1561 C   0  0  0  0  0  0  0  0  0  0  0  0
  -27.2536  -25.4370   20.6678 C   0  0  0  0  0  0  0  0  0  0  0  0
  -27.5378  -23.2633   21.6831 C   0  0  0  0  0  0  0  0  0  0  0  0
  -27.9633  -25.0063   19.5470 C   0  0  0  0  0  0  0  0  0  0  0  0
  -22.7413   -7.5998   21.2634 C   0  0  0  0  0  0  0  0  0  0  0  0
  -27.4485  -29.0543   21.1421 C   0  0  0  0  0  0  0  0  0  0  0  0
  -21.5982   -6.0507   22.6109 C   0  0  0  0  0  0  0  0  0  0  0  0
  -28.2475  -22.8325   20.5623 C   0  0  0  0  0  0  0  0  0  0  0  0
  -21.3854   -4.6805   25.0316 C   0  0  0  0  0  0  0  0  0  0  0  0
  -20.4560   -6.1984   23.3979 C   0  0  0  0  0  0  0  0  0  0  0  0
  -25.9631  -10.3039   20.8102 C   0  0  0  0  0  0  0  0  0  0  0  0
  -27.9446  -11.2572   20.8167 C   0  0  0  0  0  0  0  0  0  0  0  0
  -27.9297   -8.9379   21.7491 C   0  0  0  0  0  0  0  0  0  0  0  0
  -24.6829  -33.1518   23.3841 C   0  0  0  0  0  0  0  0  0  0  0  0
  -22.8202  -33.2110   20.7291 C   0  0  0  0  0  0  0  0  0  0  0  0
  -22.0864  -31.8779   17.6744 C   0  0  0  0  0  0  0  0  0  0  0  0
  -28.3485  -16.6065   20.6324 C   0  0  0  0  0  0  0  0  0  0  0  0
  -25.7738  -36.2935   27.2567 C   0  0  0  0  0  0  0  0  0  0  0  0
  -26.4163  -33.2125   21.5545 C   0  0  0  0  0  0  0  0  0  0  0  0
  -24.3179  -31.2006   21.0122 C   0  0  0  0  0  0  0  0  0  0  0  0
  -24.5999  -36.1082   26.2986 C   0  0  0  0  0  0  0  0  0  0  0  0
  -26.3472  -15.2108   18.1087 C   0  0  0  0  0  0  0  0  0  0  0  0
  -24.1900  -34.6403   26.2343 C   0  0  0  0  0  0  0  0  0  0  0  0
  -26.1733  -13.7796   18.6162 C   0  0  0  0  0  0  0  0  0  0  0  0
  -29.3725  -19.7679   18.9878 C   0  0  0  0  0  0  0  0  0  0  0  0
  -26.9992  -20.0106   19.8351 C   0  0  0  0  0  0  0  0  0  0  0  0
  -26.2633  -16.2348   19.2420 C   0  0  0  0  0  0  0  0  0  0  0  0
  -29.5907  -18.6401   19.9953 C   0  0  0  0  0  0  0  0  0  0  0  0
  -27.2727  -18.8805   20.8250 C   0  0  0  0  0  0  0  0  0  0  0  0
  -27.0137  -14.5337   20.8729 C   0  0  0  0  0  0  0  0  0  0  0  0
  -25.3360  -33.7703   25.7040 C   0  0  1  0  0  0  0  0  0  0  0  0
  -24.9586  -33.4492   21.9373 C   0  0  1  0  0  0  0  0  0  0  0  0
  -27.1519  -13.4779   19.7651 C   0  0  1  0  0  0  0  0  0  0  0  0
  -28.2770  -20.7426   19.4215 C   0  0  0  0  0  0  0  0  0  0  0  0
  -27.2998  -22.3435   22.8351 C   0  0  0  0  0  0  0  0  0  0  0  0
  -27.5521  -25.4102   17.0931 C   0  0  0  0  0  0  0  0  0  0  0  0
  -29.7018  -26.1879   18.1557 C   0  0  0  0  0  0  0  0  0  0  0  0
  -20.4860  -32.1122   15.7558 C   0  0  0  0  0  0  0  0  0  0  0  0
  -20.6529  -31.8264   22.3710 C   0  0  0  0  0  0  0  0  0  0  0  0
  -19.4990  -31.2431   20.2270 C   0  0  0  0  0  0  0  0  0  0  0  0
  -19.8199  -33.6351   20.8580 C   0  0  0  0  0  0  0  0  0  0  0  0
  -24.2700  -32.5086   15.7788 C   0  0  0  0  0  0  0  0  0  0  0  0
  -26.7136  -26.8273   20.7470 C   0  0  0  0  0  0  0  0  0  1  0  0
  -28.2039  -25.9210   18.3912 C   0  0  0  0  0  0  0  0  0  0  0  0
  -21.8134  -32.2729   20.1083 C   0  0  1  0  0  0  0  0  0  0  0  0
  -21.8330  -32.5280   16.3262 C   0  0  2  0  0  0  0  0  0  0  0  0
  -20.4732  -32.2364   20.8957 C   0  0  0  0  0  0  0  0  0  0  0  0
  -25.7546  -11.5127   20.2817 N   0  0  0  0  0  0  0  0  0  0  0  0
  -26.9781  -12.0684   20.2991 N   0  0  0  0  0  0  0  0  0  0  0  0
  -24.0284  -32.6375   21.1498 N   0  0  0  0  0  0  0  0  0  0  0  0
  -27.1850  -15.8831   20.3304 N   0  0  0  0  0  0  0  0  0  0  0  0
  -28.3327  -17.9825   20.3475 N   0  0  0  0  0  0  0  0  0  0  0  0
  -29.2302  -11.6588   20.9082 N   0  0  0  0  0  0  0  0  0  0  0  0
  -27.1306   -7.8241   22.0406 N   0  0  0  0  0  0  0  0  0  0  0  0
  -25.4426  -33.8962   24.2662 N   0  0  0  0  0  0  0  0  0  0  0  0
  -21.6770  -32.6843   18.7152 N   0  0  0  0  0  0  0  0  0  0  0  0
  -22.8948  -32.1386   15.3556 N   0  3  0  0  0  0  0  0  0  0  0  0
  -29.1535   -8.9040   22.0225 O   0  0  0  0  0  0  0  0  0  0  0  0
  -23.8420  -32.3103   23.6784 O   0  0  0  0  0  0  0  0  0  0  0  0
  -22.5475  -34.4098   20.8303 O   0  0  0  0  0  0  0  0  0  0  0  0
  -22.5932  -30.7644   17.7923 O   0  0  0  0  0  0  0  0  0  0  0  0
  -29.3434  -16.0586   21.1232 O   0  0  0  0  0  0  0  0  0  0  0  0
  -21.7049   -6.7295   21.4086 O   0  0  0  0  0  0  0  0  0  0  0  0
  -28.7437  -21.5572   20.4948 O   0  0  0  0  0  0  0  0  0  0  0  0
  -27.7797  -27.7314   21.0059 O   0  0  0  0  0  0  0  0  0  1  0  0
  -21.2828   -4.0213   26.1931 F   0  0  0  0  0  0  0  0  0  0  0  0
  -19.4572   -6.9962   22.9958 F   0  0  0  0  0  0  0  0  0  0  0  0
  1  2  1  0  0  0  0
  1  5  2  0  0  0  0
  2  6  2  0  0  0  0
  3  8  2  0  0  0  0
  3 17  1  0  0  0  0
  4  9  1  0  0  0  0
  4 17  2  0  0  0  0
  5 19  1  0  0  0  0
  6 21  1  0  0  0  0
  7 10  2  0  0  0  0
  7 20  1  0  0  0  0
  8 26  1  0  0  0  0
  9 26  2  0  0  0  0
 10 27  1  0  0  0  0
 11 12  2  0  0  0  0
 11 28  1  0  0  0  0
 12 30  1  0  0  0  0
 13 22  1  0  0  0  0
 13 27  2  0  0  0  0
 14 23  1  0  0  0  0
 14 24  2  0  0  0  0
 15 25  1  0  0  0  0
 15 29  2  0  0  0  0
 16 30  2  0  0  0  0
 16 31  1  0  0  0  0
 17 32  1  0  0  0  0
 18 32  1  0  0  0  0
 18 33  2  0  0  0  0
 18 34  1  0  0  0  0
 19 21  2  0  0  0  0
 19 39  1  0  0  0  0
 20 22  2  0  0  0  0
 20 40  1  0  0  0  0
 21 52  1  0  0  0  0
 22 41  1  0  0  0  0
 23 25  2  0  0  0  0
 23 64  1  0  0  0  0
 24 29  1  0  0  0  0
 24 56  1  0  0  0  0
 25 65  1  0  0  0  0
 26 84  1  0  0  0  0
 27 86  1  0  0  0  0
 28 31  2  0  0  0  0
 28 84  1  0  0  0  0
 29 85  1  0  0  0  0
 30 87  1  0  0  0  0
 31 88  1  0  0  0  0
 32 69  2  0  0  0  0
 33 70  1  0  0  0  0
 33 74  1  0  0  0  0
 34 75  1  0  0  0  0
 34 79  2  0  0  0  0
 35 53  1  0  0  0  0
 35 76  1  0  0  0  0
 35 80  2  0  0  0  0
 36 66  1  0  0  0  0
 36 71  1  0  0  0  0
 36 81  2  0  0  0  0
 37 67  1  0  0  0  0
 37 77  1  0  0  0  0
 37 82  2  0  0  0  0
 38 72  1  0  0  0  0
 38 73  1  0  0  0  0
 38 83  2  0  0  0  0
 39 42  1  0  0  0  0
 40 53  1  0  0  0  0
 41 71  1  0  0  0  0
 42 44  1  0  0  0  0
 43 45  1  0  0  0  0
 43 48  1  0  0  0  0
 44 52  1  0  0  0  0
 45 54  1  0  0  0  0
 46 49  1  0  0  0  0
 46 55  1  0  0  0  0
 47 50  1  0  0  0  0
 47 55  1  0  0  0  0
 48 72  1  0  0  0  0
 49 73  1  0  0  0  0
 50 73  1  0  0  0  0
 51 54  1  0  0  0  0
 51 72  1  0  0  0  0
 52 76  1  0  0  0  0
 53 71  1  0  0  0  0
 54 70  1  0  0  0  0
 55 85  1  0  0  0  0
 57 65  1  0  0  0  0
 58 65  1  0  0  0  0
 59 67  1  0  0  0  0
 60 68  1  0  0  0  0
 61 68  1  0  0  0  0
 62 68  1  0  0  0  0
 63 78  1  0  0  0  0
 64 86  1  0  0  0  0
 66 68  1  0  0  0  0
 66 77  1  0  0  0  0
 67 78  1  0  0  0  0
 69 70  1  0  0  0  0
M  CHG  1  78   1
M  ISO  4  38 100  64 101  73 100  86 101
M  END
> <Batch ID>
0147

> <Smiles>
CNC(C)C(=O)NC(C(=O)N1Cc2cc([101O:1][101CH2:1]c3cc(C)c(OC4CC[100N:0]([100C:0](=O)N5CCCC(n6nc(-c7ccc(Oc8ccc(F)cc8F)cc7)c(C(N)=O)c6N)C5)CC4)cc3C(C)C)ccc2CC1C(=O)NC1CCCc2ccccc21)C(C)(C)C

> <Shape>
0.251

> <Color>
0.104

> <Negative vol penalty>
0.000

$$$$

  -OEChem-04052321333D

 83 92  0     1  0  0  0  0  0999 V2000
  -20.0258  -12.3764   17.9012 C   0  0  0  0  0  0  0  0  0  0  0  0
  -20.4610  -13.6868   17.7313 C   0  0  0  0  0  0  0  0  0  0  0  0
  -18.7780  -27.3711   22.8473 C   0  0  0  0  0  0  0  0  0  0  0  0
  -20.0562  -25.3258   22.9891 C   0  0  0  0  0  0  0  0  0  0  0  0
  -20.6574  -11.5478   18.8276 C   0  0  0  0  0  0  0  0  0  0  0  0
  -21.5275  -14.1698   18.4888 C   0  0  0  0  0  0  0  0  0  0  0  0
  -27.0596  -18.7030   18.0864 C   0  0  0  0  0  0  0  0  0  0  0  0
  -17.6292  -26.6334   22.5619 C   0  0  0  0  0  0  0  0  0  0  0  0
  -18.9073  -24.5881   22.7037 C   0  0  0  0  0  0  0  0  0  0  0  0
  -27.6267  -19.7741   18.7756 C   0  0  0  0  0  0  0  0  0  0  0  0
  -16.1634  -23.5146   24.3587 C   0  0  0  0  0  0  0  0  0  0  0  0
  -15.9142  -22.3809   25.1322 C   0  0  0  0  0  0  0  0  0  0  0  0
  -28.6928  -18.2279   20.2894 C   0  0  0  0  0  0  0  0  0  0  0  0
  -15.9879  -21.0088   23.1450 C   0  0  0  0  0  0  0  0  0  0  0  0
  -19.9916  -26.7173   23.0609 C   0  0  0  0  0  0  0  0  0  0  0  0
  -21.6504  -27.8613   24.6253 C   0  0  0  0  0  0  0  0  0  0  0  0
  -21.7385  -12.0179   19.5899 C   0  0  0  0  0  0  0  0  0  0  0  0
  -27.2965  -17.3845   18.5009 C   0  0  0  0  0  0  0  0  0  0  0  0
  -22.1734  -13.3471   19.4273 C   0  0  0  0  0  0  0  0  0  0  0  0
  -28.1296  -17.1417   19.6022 C   0  0  0  0  0  0  0  0  0  0  0  0
  -29.1393  -24.3231   20.5194 C   0  0  0  0  0  0  0  0  0  0  0  0
  -30.2450  -24.8418   19.8455 C   0  0  0  0  0  0  0  0  0  0  0  0
  -27.9956  -25.0800   20.6824 C   0  0  0  0  0  0  0  0  0  0  0  0
  -17.6938  -25.2419   22.4901 C   0  0  0  0  0  0  0  0  0  0  0  0
  -28.4411  -19.5368   19.8790 C   0  0  0  0  0  0  0  0  0  0  0  0
  -16.3247  -23.3954   22.9783 C   0  0  0  0  0  0  0  0  0  0  0  0
  -15.8265  -21.1280   24.5254 C   0  0  0  0  0  0  0  0  0  0  0  0
  -16.2370  -22.1425   22.3715 C   0  0  0  0  0  0  0  0  0  0  0  0
  -21.1788  -27.4788   23.3552 C   0  0  0  0  0  0  0  0  0  0  0  0
  -30.1767  -26.1163   19.3339 C   0  0  0  0  0  0  0  0  0  0  0  0
  -28.0229  -26.3581   20.1434 C   0  0  0  0  0  0  0  0  0  0  0  0
  -22.8027  -28.5625   24.3669 C   0  0  0  0  0  0  0  0  0  0  0  0
  -21.0963  -27.6055   25.9227 C   0  0  0  0  0  0  0  0  0  0  0  0
  -25.4742  -15.0029   19.5548 C   0  0  0  0  0  0  0  0  0  0  0  0
  -28.2450  -13.3250   19.3832 C   0  0  0  0  0  0  0  0  0  0  0  0
  -31.6576  -13.3601   19.3758 C   0  0  0  0  0  0  0  0  0  0  0  0
  -26.7022  -28.4818   19.8400 C   0  0  0  0  0  0  0  0  0  0  0  0
  -22.3592  -11.0997   20.6128 C   0  0  0  0  0  0  0  0  0  0  0  0
  -26.6989  -16.2391   17.7306 C   0  0  0  0  0  0  0  0  0  0  0  0
  -31.3473  -23.8425   19.7520 C   0  0  0  0  0  0  0  0  0  0  0  0
  -28.4316  -15.7440   20.0753 C   0  0  0  0  0  0  0  0  0  0  0  0
  -23.7234  -11.5729   21.1078 C   0  0  0  0  0  0  0  0  0  0  0  0
  -30.9357  -22.8481   20.8506 C   0  0  0  0  0  0  0  0  0  0  0  0
  -24.8522  -31.2912   21.0071 C   0  0  0  0  0  0  0  0  0  0  0  0
  -23.6814  -13.0590   21.4493 C   0  0  0  0  0  0  0  0  0  0  0  0
  -23.7468  -30.6675   21.8622 C   0  0  0  0  0  0  0  0  0  0  0  0
  -25.1704  -30.4375   19.7808 C   0  0  0  0  0  0  0  0  0  0  0  0
  -24.3698  -28.4061   20.9216 C   0  0  0  0  0  0  0  0  0  0  0  0
  -29.3964  -22.9133   20.9688 C   0  0  2  0  0  0  0  0  0  0  0  0
  -23.3430  -13.8999   20.2125 C   0  0  1  0  0  0  0  0  0  0  0  0
  -26.5921  -14.9579   18.5519 C   0  0  1  0  0  0  0  0  0  0  0  0
  -24.0596  -29.1972   22.2028 C   0  0  2  0  0  0  0  0  0  0  0  0
  -26.8073  -24.5772   21.4236 C   0  0  0  0  0  0  0  0  0  0  0  0
  -31.3278  -26.7072   18.5951 C   0  0  0  0  0  0  0  0  0  0  0  0
  -33.6431  -11.8298   19.2605 C   0  0  0  0  0  0  0  0  0  0  0  0
  -27.7967  -12.5278   22.2941 C   0  0  0  0  0  0  0  0  0  0  0  0
  -30.1992  -11.8314   22.4007 C   0  0  0  0  0  0  0  0  0  0  0  0
  -28.6393  -10.6867   20.8261 C   0  0  0  0  0  0  0  0  0  0  0  0
  -32.6203  -14.6085   16.8711 C   0  0  0  0  0  0  0  0  0  0  0  0
  -28.7004  -21.8925   20.0766 C   0  0  0  0  0  0  0  0  0  1  0  0
  -29.3886  -13.0497   20.3295 C   0  0  1  0  0  0  0  0  0  0  0  0
  -32.6699  -12.6873   18.4665 C   0  0  2  0  0  0  0  0  0  0  0  0
  -28.9989  -12.0504   21.4551 C   0  0  0  0  0  0  0  0  0  0  0  0
  -21.9672  -27.9022   22.3636 N   0  0  0  0  0  0  0  0  0  0  0  0
  -29.0795  -26.8949   19.4751 N   0  0  0  0  0  0  0  0  0  0  0  0
  -22.9457  -28.5579   23.0106 N   0  0  0  0  0  0  0  0  0  0  0  0
  -27.8188  -14.6577   19.2930 N   0  0  0  0  0  0  0  0  0  0  0  0
  -25.4606  -29.0589   20.1808 N   0  0  0  0  0  0  0  0  0  0  0  0
  -23.6975  -29.1765   25.1699 N   0  0  0  0  0  0  0  0  0  0  0  0
  -19.9069  -26.8690   26.0079 N   0  0  0  0  0  0  0  0  0  0  0  0
  -26.8781  -27.1778   20.3019 N   0  0  0  0  0  0  0  0  0  0  0  0
  -24.5053  -14.0369   19.3611 N   0  0  0  0  0  0  0  0  0  0  0  0
  -30.5069  -12.6110   19.5018 N   0  0  0  0  0  0  0  0  0  0  0  0
  -33.4503  -13.7098   17.7140 N   0  3  0  0  0  0  0  0  0  0  0  0
  -21.6310  -28.0318   26.9743 O   0  0  0  0  0  0  0  0  0  0  0  0
  -25.4903  -15.8503   20.4399 O   0  0  0  0  0  0  0  0  0  0  0  0
  -27.7530  -12.3931   18.7421 O   0  0  0  0  0  0  0  0  0  0  0  0
  -31.8682  -14.4403   19.9229 O   0  0  0  0  0  0  0  0  0  0  0  0
  -27.5581  -29.1084   19.2101 O   0  0  0  0  0  0  0  0  0  0  0  0
  -16.5729  -24.5217   22.2119 O   0  0  0  0  0  0  0  0  0  0  0  0
  -28.9954  -20.5804   20.5538 O   0  0  0  0  0  0  0  0  0  1  0  0
  -15.5887  -20.0393   25.2685 F   0  0  0  0  0  0  0  0  0  0  0  0
  -16.3923  -22.0216   21.0459 F   0  0  0  0  0  0  0  0  0  0  0  0
  1  2  1  0  0  0  0
  1  5  2  0  0  0  0
  2  6  2  0  0  0  0
  3  8  2  0  0  0  0
  3 15  1  0  0  0  0
  4  9  1  0  0  0  0
  4 15  2  0  0  0  0
  5 17  1  0  0  0  0
  6 19  1  0  0  0  0
  7 10  2  0  0  0  0
  7 18  1  0  0  0  0
  8 24  1  0  0  0  0
  9 24  2  0  0  0  0
 10 25  1  0  0  0  0
 11 12  2  0  0  0  0
 11 26  1  0  0  0  0
 12 27  1  0  0  0  0
 13 20  1  0  0  0  0
 13 25  2  0  0  0  0
 14 27  2  0  0  0  0
 14 28  1  0  0  0  0
 15 29  1  0  0  0  0
 16 29  1  0  0  0  0
 16 32  2  0  0  0  0
 16 33  1  0  0  0  0
 17 19  2  0  0  0  0
 17 38  1  0  0  0  0
 18 20  2  0  0  0  0
 18 39  1  0  0  0  0
 19 50  1  0  0  0  0
 20 41  1  0  0  0  0
 21 22  2  0  0  0  0
 21 23  1  0  0  0  0
 21 49  1  0  0  0  0
 22 30  1  0  0  0  0
 22 40  1  0  0  0  0
 23 31  2  0  0  0  0
 23 53  1  0  0  0  0
 24 80  1  0  0  0  0
 25 81  1  0  0  0  0
 26 28  2  0  0  0  0
 26 80  1  0  0  0  0
 27 82  1  0  0  0  0
 28 83  1  0  0  0  0
 29 64  2  0  0  0  0
 30 54  1  0  0  0  0
 30 65  2  0  0  0  0
 31 65  1  0  0  0  0
 31 71  1  0  0  0  0
 32 66  1  0  0  0  0
 32 69  1  0  0  0  0
 33 70  1  0  0  0  0
 33 75  2  0  0  0  0
 34 51  1  0  0  0  0
 34 72  1  0  0  0  0
 34 76  2  0  0  0  0
 35 61  1  0  0  0  0
 35 67  1  0  0  0  0
 35 77  2  0  0  0  0
 36 62  1  0  0  0  0
 36 73  1  0  0  0  0
 36 78  2  0  0  0  0
 37 68  1  0  0  0  0
 37 71  1  0  0  0  0
 37 79  2  0  0  0  0
 38 42  1  0  0  0  0
 39 51  1  0  0  0  0
 40 43  1  0  0  0  0
 41 67  1  0  0  0  0
 42 45  1  0  0  0  0
 43 49  1  0  0  0  0
 44 46  1  0  0  0  0
 44 47  1  0  0  0  0
 45 50  1  0  0  0  0
 46 52  1  0  0  0  0
 47 68  1  0  0  0  0
 48 52  1  0  0  0  0
 48 68  1  0  0  0  0
 49 60  1  0  0  0  0
 50 72  1  0  0  0  0
 51 67  1  0  0  0  0
 52 66  1  0  0  0  0
 55 62  1  0  0  0  0
 56 63  1  0  0  0  0
 57 63  1  0  0  0  0
 58 63  1  0  0  0  0
 59 74  1  0  0  0  0
 60 81  1  0  0  0  0
 61 63  1  0  0  0  0
 61 73  1  0  0  0  0
 62 74  1  0  0  0  0
 64 66  1  0  0  0  0
M  CHG  1  74   1
M  ISO  4  37 100  60 101  71 100  81 101
M  END
> <Batch ID>
0147

> <Smiles>
CNC(C)C(=O)NC(C(=O)N1Cc2cc([101O:1][101CH2:1]C3CCc4c(C)nc([100NH:0][100C:0](=O)N5CCCC(n6nc(-c7ccc(Oc8ccc(F)cc8F)cc7)c(C(N)=O)c6N)C5)c(C)c43)ccc2CC1C(=O)NC1CCCc2ccccc21)C(C)(C)C

> <Shape>
0.272

> <Color>
0.070

> <Negative vol penalty>
0.000

$$$$

  -OEChem-04052321333D

 85 94  0     1  0  0  0  0  0999 V2000
  -34.0382  -28.0262   15.7957 C   0  0  0  0  0  0  0  0  0  0  0  0
  -33.6017  -26.9912   16.6165 C   0  0  0  0  0  0  0  0  0  0  0  0
  -23.3401   -9.6495   20.9176 C   0  0  0  0  0  0  0  0  0  0  0  0
  -23.9697  -10.3591   23.1396 C   0  0  0  0  0  0  0  0  0  0  0  0
  -33.4377  -29.2817   15.8801 C   0  0  0  0  0  0  0  0  0  0  0  0
  -32.5652  -27.2114   17.5228 C   0  0  0  0  0  0  0  0  0  0  0  0
  -29.1510  -23.4712   17.5157 C   0  0  0  0  0  0  0  0  0  0  0  0
  -22.6674   -8.5537   21.4582 C   0  0  0  0  0  0  0  0  0  0  0  0
  -23.2970   -9.2633   23.6802 C   0  0  0  0  0  0  0  0  0  0  0  0
  -29.4870  -22.3011   18.1953 C   0  0  0  0  0  0  0  0  0  0  0  0
  -21.4409   -6.8509   25.6686 C   0  0  0  0  0  0  0  0  0  0  0  0
  -20.6261   -7.0724   26.7789 C   0  0  0  0  0  0  0  0  0  0  0  0
  -28.3434  -18.4938   22.3867 C   0  0  0  0  0  0  0  0  0  0  0  0
  -28.1532  -23.0163   20.0738 C   0  0  0  0  0  0  0  0  0  0  0  0
  -31.0725  -18.0278   22.7295 C   0  0  0  0  0  0  0  0  0  0  0  0
  -19.2892   -8.6176   25.4896 C   0  0  0  0  0  0  0  0  0  0  0  0
  -23.9913  -10.5523   21.7583 C   0  0  0  0  0  0  0  0  0  0  0  0
  -24.1587  -12.9633   20.9419 C   0  0  0  0  0  0  0  0  0  0  0  0
  -32.3868  -29.5147   16.7811 C   0  0  0  0  0  0  0  0  0  0  0  0
  -28.3210  -24.4293   18.1154 C   0  0  0  0  0  0  0  0  0  0  0  0
  -31.9510  -28.4715   17.6202 C   0  0  0  0  0  0  0  0  0  0  0  0
  -28.7824  -17.2820   22.9199 C   0  0  0  0  0  0  0  0  0  0  0  0
  -27.8061  -24.1965   19.3987 C   0  0  0  0  0  0  0  0  0  0  0  0
  -29.2689  -19.4726   22.0247 C   0  0  0  0  0  0  0  0  0  0  0  0
  -30.6335  -19.2396   22.1962 C   0  0  0  0  0  0  0  0  0  0  0  0
  -22.6458   -8.3605   22.8394 C   0  0  0  0  0  0  0  0  0  0  0  0
  -28.9904  -22.0748   19.4756 C   0  0  0  0  0  0  0  0  0  0  0  0
  -21.1800   -7.5129   24.4688 C   0  0  0  0  0  0  0  0  0  0  0  0
  -30.1469  -17.0490   23.0914 C   0  0  0  0  0  0  0  0  0  0  0  0
  -19.5502   -7.9556   26.6893 C   0  0  0  0  0  0  0  0  0  0  0  0
  -20.1041   -8.3962   24.3793 C   0  0  0  0  0  0  0  0  0  0  0  0
  -24.6868  -11.6842   21.2005 C   0  0  0  0  0  0  0  0  0  0  0  0
  -25.2132  -13.6705   20.4181 C   0  0  0  0  0  0  0  0  0  0  0  0
  -22.8336  -13.4671   21.1560 C   0  0  0  0  0  0  0  0  0  0  0  0
  -28.6629  -27.4700   18.9762 C   0  0  0  0  0  0  0  0  0  0  0  0
  -25.4947  -27.2349   19.6315 C   0  0  0  0  0  0  0  0  0  0  0  0
  -22.8366  -25.2394   20.4057 C   0  0  0  0  0  0  0  0  0  0  0  0
  -31.1528  -13.1094   20.9261 C   0  0  0  0  0  0  0  0  0  0  0  0
  -31.8005  -30.9015   16.8696 C   0  0  0  0  0  0  0  0  0  0  0  0
  -27.9464  -25.6739   17.3586 C   0  0  0  0  0  0  0  0  0  0  0  0
  -26.8948  -25.1842   20.0787 C   0  0  0  0  0  0  0  0  0  0  0  0
  -30.4569  -30.9497   17.5925 C   0  0  0  0  0  0  0  0  0  0  0  0
  -29.2486  -13.0742   17.9178 C   0  0  0  0  0  0  0  0  0  0  0  0
  -26.6801  -16.6082   24.2618 C   0  0  0  0  0  0  0  0  0  0  0  0
  -27.7851  -15.7006   24.7040 C   0  0  0  0  0  0  0  0  0  0  0  0
  -30.5166  -30.1416   18.8849 C   0  0  0  0  0  0  0  0  0  0  0  0
  -27.8159  -12.8294   18.3947 C   0  0  0  0  0  0  0  0  0  0  0  0
  -30.2630  -12.3030   18.7594 C   0  0  0  0  0  0  0  0  0  0  0  0
  -28.7310  -12.2874   20.6898 C   0  0  0  0  0  0  0  0  0  0  0  0
  -27.7796  -16.2440   23.2998 C   0  0  0  0  0  0  0  0  0  0  0  0
  -30.8127  -28.6645   18.5986 C   0  0  1  0  0  0  0  0  0  0  0  0
  -27.5091  -26.8177   18.2685 C   0  0  1  0  0  0  0  0  0  0  0  0
  -27.6763  -13.0880   19.9069 C   0  0  2  0  0  0  0  0  0  0  0  0
  -31.6429  -20.2725   21.8161 C   0  0  0  0  0  0  0  0  0  0  0  0
  -20.3821  -25.3390   20.9185 C   0  0  0  0  0  0  0  0  0  0  0  0
  -26.1241  -28.2738   22.4305 C   0  0  0  0  0  0  0  0  0  0  0  0
  -23.8716  -27.4625   23.1626 C   0  0  0  0  0  0  0  0  0  0  0  0
  -24.0503  -29.2251   21.4065 C   0  0  0  0  0  0  0  0  0  0  0  0
  -22.1616  -23.5540   18.0684 C   0  0  0  0  0  0  0  0  0  0  0  0
  -28.7731  -20.7668   21.4499 C   0  0  0  0  0  0  0  0  0  1  0  0
  -31.8939  -13.9004   23.1586 C   0  0  0  0  0  0  0  0  0  0  0  0
  -31.8758  -15.4184   23.1792 C   0  0  0  0  0  0  0  0  0  0  0  0
  -24.6791  -26.8428   20.8399 C   0  0  1  0  0  0  0  0  0  0  0  0
  -21.4327  -25.1646   19.8329 C   0  0  2  0  0  0  0  0  0  0  0  0
  -24.7000  -27.9331   21.9481 C   0  0  0  0  0  0  0  0  0  0  0  0
  -25.9764  -11.5819   20.8683 N   0  0  0  0  0  0  0  0  0  0  0  0
  -26.2676  -12.8057   20.3955 N   0  0  0  0  0  0  0  0  0  0  0  0
  -26.5626  -26.3889   19.3003 N   0  0  0  0  0  0  0  0  0  0  0  0
  -30.0779  -12.5938   20.1832 N   0  0  0  0  0  0  0  0  0  0  0  0
  -25.3321  -14.9416   19.9793 N   0  0  0  0  0  0  0  0  0  0  0  0
  -21.8718  -12.6065   21.7025 N   0  0  0  0  0  0  0  0  0  0  0  0
  -29.6207  -27.9921   18.1280 N   0  0  0  0  0  0  0  0  0  0  0  0
  -23.3454  -26.5195   20.3448 N   0  0  0  0  0  0  0  0  0  0  0  0
  -30.8905  -13.3629   22.2668 N   0  0  0  0  0  0  0  0  0  0  0  0
  -21.2122  -23.8468   19.1728 N   0  3  0  0  0  0  0  0  0  0  0  0
  -22.5076  -14.6406   20.8558 O   0  0  0  0  0  0  0  0  0  0  0  0
  -28.6821  -27.4988   20.2012 O   0  0  0  0  0  0  0  0  0  0  0  0
  -25.1909  -28.2503   19.0004 O   0  0  0  0  0  0  0  0  0  0  0  0
  -23.4217  -24.2610   20.8648 O   0  0  0  0  0  0  0  0  0  0  0  0
  -32.2623  -13.3326   20.4299 O   0  0  0  0  0  0  0  0  0  0  0  0
  -21.9894   -7.2914   23.3673 O   0  0  0  0  0  0  0  0  0  0  0  0
  -29.3173  -20.9339   20.1414 O   0  0  0  0  0  0  0  0  0  1  0  0
  -30.5941  -15.8710   23.6103 O   0  0  0  0  0  0  0  0  0  0  0  0
  -18.7669   -8.1670   27.7551 F   0  0  0  0  0  0  0  0  0  0  0  0
  -19.8477   -9.0341   23.2290 F   0  0  0  0  0  0  0  0  0  0  0  0
  1  2  1  0  0  0  0
  1  5  2  0  0  0  0
  2  6  2  0  0  0  0
  3  8  2  0  0  0  0
  3 17  1  0  0  0  0
  4  9  1  0  0  0  0
  4 17  2  0  0  0  0
  5 19  1  0  0  0  0
  6 21  1  0  0  0  0
  7 10  2  0  0  0  0
  7 20  1  0  0  0  0
  8 26  1  0  0  0  0
  9 26  2  0  0  0  0
 10 27  1  0  0  0  0
 11 12  2  0  0  0  0
 11 28  1  0  0  0  0
 12 30  1  0  0  0  0
 13 22  2  0  0  0  0
 13 24  1  0  0  0  0
 14 23  1  0  0  0  0
 14 27  2  0  0  0  0
 15 25  1  0  0  0  0
 15 29  2  0  0  0  0
 16 30  2  0  0  0  0
 16 31  1  0  0  0  0
 17 32  1  0  0  0  0
 18 32  1  0  0  0  0
 18 33  2  0  0  0  0
 18 34  1  0  0  0  0
 19 21  2  0  0  0  0
 19 39  1  0  0  0  0
 20 23  2  0  0  0  0
 20 40  1  0  0  0  0
 21 51  1  0  0  0  0
 22 29  1  0  0  0  0
 22 50  1  0  0  0  0
 23 41  1  0  0  0  0
 24 25  2  0  0  0  0
 24 60  1  0  0  0  0
 25 54  1  0  0  0  0
 26 81  1  0  0  0  0
 27 82  1  0  0  0  0
 28 31  2  0  0  0  0
 28 81  1  0  0  0  0
 29 83  1  0  0  0  0
 30 84  1  0  0  0  0
 31 85  1  0  0  0  0
 32 66  2  0  0  0  0
 33 67  1  0  0  0  0
 33 70  1  0  0  0  0
 34 71  1  0  0  0  0
 34 76  2  0  0  0  0
 35 52  1  0  0  0  0
 35 72  1  0  0  0  0
 35 77  2  0  0  0  0
 36 63  1  0  0  0  0
 36 68  1  0  0  0  0
 36 78  2  0  0  0  0
 37 64  1  0  0  0  0
 37 73  1  0  0  0  0
 37 79  2  0  0  0  0
 38 69  1  0  0  0  0
 38 74  1  0  0  0  0
 38 80  2  0  0  0  0
 39 42  1  0  0  0  0
 40 52  1  0  0  0  0
 41 68  1  0  0  0  0
 42 46  1  0  0  0  0
 43 47  1  0  0  0  0
 43 48  1  0  0  0  0
 44 45  1  0  0  0  0
 44 50  1  0  0  0  0
 45 50  1  0  0  0  0
 46 51  1  0  0  0  0
 47 53  1  0  0  0  0
 48 69  1  0  0  0  0
 49 53  1  0  0  0  0
 49 69  1  0  0  0  0
 51 72  1  0  0  0  0
 52 68  1  0  0  0  0
 53 67  1  0  0  0  0
 55 64  1  0  0  0  0
 56 65  1  0  0  0  0
 57 65  1  0  0  0  0
 58 65  1  0  0  0  0
 59 75  1  0  0  0  0
 60 82  1  0  0  0  0
 61 62  1  0  0  0  0
 61 74  1  0  0  0  0
 62 83  1  0  0  0  0
 63 65  1  0  0  0  0
 63 73  1  0  0  0  0
 64 75  1  0  0  0  0
 66 67  1  0  0  0  0
M  CHG  1  75   1
M  ISO  4  38 100  60 101  74 100  82 101
M  END
> <Batch ID>
0147

> <Smiles>
CNC(C)C(=O)NC(C(=O)N1Cc2cc([101O:1][101CH2:1]c3cc(C4CC4)c(OCC[100NH:0][100C:0](=O)N4CCCC(n5nc(-c6ccc(Oc7ccc(F)cc7F)cc6)c(C(N)=O)c5N)C4)cc3C)ccc2CC1C(=O)NC1CCCc2ccccc21)C(C)(C)C

> <Shape>
0.243

> <Color>
0.165

> <Negative vol penalty>
0.000

$$$$

  -OEChem-04052321333D

 87 96  0     1  0  0  0  0  0999 V2000
  -17.4594  -31.6052   25.1558 C   0  0  0  0  0  0  0  0  0  0  0  0
  -18.7697  -31.7081   25.6116 C   0  0  0  0  0  0  0  0  0  0  0  0
  -23.7207   -9.4401   20.1043 C   0  0  0  0  0  0  0  0  0  0  0  0
  -23.8880   -9.9613   22.4575 C   0  0  0  0  0  0  0  0  0  0  0  0
  -17.1427  -30.6961   24.1472 C   0  0  0  0  0  0  0  0  0  0  0  0
  -19.7640  -30.9010   25.0599 C   0  0  0  0  0  0  0  0  0  0  0  0
  -26.7436  -30.9561   23.4478 C   0  0  0  0  0  0  0  0  0  0  0  0
  -23.1440   -8.2094   20.4178 C   0  0  0  0  0  0  0  0  0  0  0  0
  -23.3112   -8.7306   22.7710 C   0  0  0  0  0  0  0  0  0  0  0  0
  -27.9019  -30.2071   23.6509 C   0  0  0  0  0  0  0  0  0  0  0  0
  -20.2158   -7.3760   22.8335 C   0  0  0  0  0  0  0  0  0  0  0  0
  -19.2149   -7.3598   23.8049 C   0  0  0  0  0  0  0  0  0  0  0  0
  -28.1045  -18.8471   22.5989 C   0  0  0  0  0  0  0  0  0  0  0  0
  -27.2530  -28.7287   21.8586 C   0  0  0  0  0  0  0  0  0  0  0  0
  -27.3621  -22.3459   23.5878 C   0  0  0  0  0  0  0  0  0  0  0  0
  -20.5487   -5.8639   25.1542 C   0  0  0  0  0  0  0  0  0  0  0  0
  -28.2456  -20.2141   22.8673 C   0  0  0  0  0  0  0  0  0  0  0  0
  -24.0928  -10.3161   21.1241 C   0  0  0  0  0  0  0  0  0  0  0  0
  -24.0224  -12.8070   20.5784 C   0  0  0  0  0  0  0  0  0  0  0  0
  -18.1354  -29.8843   23.5762 C   0  0  0  0  0  0  0  0  0  0  0  0
  -25.8244  -30.5899   22.4541 C   0  0  0  0  0  0  0  0  0  0  0  0
  -19.4601  -29.9792   24.0437 C   0  0  0  0  0  0  0  0  0  0  0  0
  -26.0851  -29.4761   21.6432 C   0  0  0  0  0  0  0  0  0  0  0  0
  -27.1784  -20.9934   23.3344 C   0  0  0  0  0  0  0  0  0  0  0  0
  -29.4859  -20.8460   22.6696 C   0  0  0  0  0  0  0  0  0  0  0  0
  -22.9392   -7.8546   21.7512 C   0  0  0  0  0  0  0  0  0  0  0  0
  -28.1553  -29.0916   22.8582 C   0  0  0  0  0  0  0  0  0  0  0  0
  -21.3831   -6.6361   23.0224 C   0  0  0  0  0  0  0  0  0  0  0  0
  -19.3813   -6.6038   24.9652 C   0  0  0  0  0  0  0  0  0  0  0  0
  -21.5495   -5.8801   24.1828 C   0  0  0  0  0  0  0  0  0  0  0  0
  -24.6891  -11.5873   20.8009 C   0  0  0  0  0  0  0  0  0  0  0  0
  -30.5150  -20.0427   22.2075 C   0  0  0  0  0  0  0  0  0  0  0  0
  -29.2103  -18.1542   22.1405 C   0  0  0  0  0  0  0  0  0  0  0  0
  -28.6181  -22.8747   23.3628 C   0  0  0  0  0  0  0  0  0  0  0  0
  -25.0275  -13.7036   20.3092 C   0  0  0  0  0  0  0  0  0  0  0  0
  -22.6200  -13.1031   20.6120 C   0  0  0  0  0  0  0  0  0  0  0  0
  -22.7763  -29.6883   22.4404 C   0  0  0  0  0  0  0  0  0  0  0  0
  -23.1480  -29.8496   19.2220 C   0  0  0  0  0  0  0  0  0  0  0  0
  -25.2575  -29.7574   16.5409 C   0  0  0  0  0  0  0  0  0  0  0  0
  -30.0301  -15.8874   21.4084 C   0  0  0  0  0  0  0  0  0  0  0  0
  -17.7363  -28.8829   22.5214 C   0  0  0  0  0  0  0  0  0  0  0  0
  -24.5928  -31.4238   22.2299 C   0  0  0  0  0  0  0  0  0  0  0  0
  -25.1400  -29.0528   20.5495 C   0  0  0  0  0  0  0  0  0  0  0  0
  -18.9177  -28.3297   21.7286 C   0  0  0  0  0  0  0  0  0  0  0  0
  -29.9484  -12.9567   19.3881 C   0  0  0  0  0  0  0  0  0  0  0  0
  -20.0501  -27.9283   22.6685 C   0  0  0  0  0  0  0  0  0  0  0  0
  -28.5180  -12.4395   19.5573 C   0  0  0  0  0  0  0  0  0  0  0  0
  -30.4919  -13.5556   20.6841 C   0  0  0  0  0  0  0  0  0  0  0  0
  -28.2124  -14.0685   21.4651 C   0  0  0  0  0  0  0  0  0  0  0  0
  -20.5711  -29.1385   23.4530 C   0  0  1  0  0  0  0  0  0  0  0  0
  -23.4731  -30.6597   21.5301 C   0  0  1  0  0  0  0  0  0  0  0  0
  -27.5986  -13.5148   20.1689 C   0  0  2  0  0  0  0  0  0  0  0  0
  -25.8195  -20.4171   23.5791 C   0  0  0  0  0  0  0  0  0  0  0  0
  -31.8680  -20.6371   21.9718 C   0  0  0  0  0  0  0  0  0  0  0  0
  -25.2641  -29.8790   14.0344 C   0  0  0  0  0  0  0  0  0  0  0  0
  -22.0975  -26.9883   19.0829 C   0  0  0  0  0  0  0  0  0  0  0  0
  -23.0067  -26.8417   16.7548 C   0  0  0  0  0  0  0  0  0  0  0  0
  -21.2293  -28.5064   17.2951 C   0  0  0  0  0  0  0  0  0  0  0  0
  -26.9581  -32.1796   16.5471 C   0  0  0  0  0  0  0  0  0  0  0  0
  -30.1886  -26.1963   23.6295 C   0  0  0  0  0  0  0  0  0  0  0  0
  -29.2169  -26.9662   22.7489 C   0  0  0  0  0  0  0  0  0  1  0  0
  -30.1413  -24.7011   23.3568 C   0  0  0  0  0  0  0  0  0  0  0  0
  -23.5801  -28.8830   18.1459 C   0  0  1  0  0  0  0  0  0  0  0  0
  -25.3886  -30.6644   15.3307 C   0  0  2  0  0  0  0  0  0  0  0  0
  -22.4954  -27.8114   17.8415 C   0  0  0  0  0  0  0  0  0  0  0  0
  -29.6735  -22.1583   22.9129 N   0  0  0  0  0  0  0  0  0  0  0  0
  -26.0152  -11.6955   20.6831 N   0  0  0  0  0  0  0  0  0  0  0  0
  -30.4166  -18.7194   21.9372 N   0  0  0  0  0  0  0  0  0  0  0  0
  -26.1898  -12.9939   20.3836 N   0  0  0  0  0  0  0  0  0  0  0  0
  -23.9466  -29.8967   20.3735 N   0  0  0  0  0  0  0  0  0  0  0  0
  -29.5708  -14.5692   21.2028 N   0  0  0  0  0  0  0  0  0  0  0  0
  -25.0215  -15.0218   20.0184 N   0  0  0  0  0  0  0  0  0  0  0  0
  -21.7248  -12.0652   20.9048 N   0  0  0  0  0  0  0  0  0  0  0  0
  -29.0567  -16.7712   21.8731 N   0  0  0  0  0  0  0  0  0  0  0  0
  -21.4312  -29.9497   22.6184 N   0  0  0  0  0  0  0  0  0  0  0  0
  -23.9569  -29.6958   16.9944 N   0  0  0  0  0  0  0  0  0  0  0  0
  -26.7112  -31.3512   15.3389 N   0  3  0  0  0  0  0  0  0  0  0  0
  -22.1727  -14.2504   20.3730 O   0  0  0  0  0  0  0  0  0  0  0  0
  -23.4118  -28.7688   22.9428 O   0  0  0  0  0  0  0  0  0  0  0  0
  -22.1431  -30.5427   19.0443 O   0  0  0  0  0  0  0  0  0  0  0  0
  -26.2127  -29.1602   17.0323 O   0  0  0  0  0  0  0  0  0  0  0  0
  -31.1938  -16.2149   21.1624 O   0  0  0  0  0  0  0  0  0  0  0  0
  -22.3762   -6.6539   22.0575 O   0  0  0  0  0  0  0  0  0  0  0  0
  -29.2848  -28.3584   23.0548 O   0  0  0  0  0  0  0  0  0  1  0  0
  -28.8320  -24.2069   23.6043 O   0  0  0  0  0  0  0  0  0  0  0  0
  -18.4207   -6.5895   25.8986 F   0  0  0  0  0  0  0  0  0  0  0  0
  -22.6693   -5.1682   24.3704 F   0  0  0  0  0  0  0  0  0  0  0  0
  1  2  1  0  0  0  0
  1  5  2  0  0  0  0
  2  6  2  0  0  0  0
  3  8  2  0  0  0  0
  3 18  1  0  0  0  0
  4  9  1  0  0  0  0
  4 18  2  0  0  0  0
  5 20  1  0  0  0  0
  6 22  1  0  0  0  0
  7 10  2  0  0  0  0
  7 21  1  0  0  0  0
  8 26  1  0  0  0  0
  9 26  2  0  0  0  0
 10 27  1  0  0  0  0
 11 12  2  0  0  0  0
 11 28  1  0  0  0  0
 12 29  1  0  0  0  0
 13 17  1  0  0  0  0
 13 33  2  0  0  0  0
 14 23  1  0  0  0  0
 14 27  2  0  0  0  0
 15 24  2  0  0  0  0
 15 34  1  0  0  0  0
 16 29  2  0  0  0  0
 16 30  1  0  0  0  0
 17 24  1  0  0  0  0
 17 25  2  0  0  0  0
 18 31  1  0  0  0  0
 19 31  1  0  0  0  0
 19 35  2  0  0  0  0
 19 36  1  0  0  0  0
 20 22  2  0  0  0  0
 20 41  1  0  0  0  0
 21 23  2  0  0  0  0
 21 42  1  0  0  0  0
 22 50  1  0  0  0  0
 23 43  1  0  0  0  0
 24 53  1  0  0  0  0
 25 32  1  0  0  0  0
 25 66  1  0  0  0  0
 26 83  1  0  0  0  0
 27 84  1  0  0  0  0
 28 30  2  0  0  0  0
 28 83  1  0  0  0  0
 29 86  1  0  0  0  0
 30 87  1  0  0  0  0
 31 67  2  0  0  0  0
 32 54  1  0  0  0  0
 32 68  2  0  0  0  0
 33 68  1  0  0  0  0
 33 74  1  0  0  0  0
 34 66  2  0  0  0  0
 34 85  1  0  0  0  0
 35 69  1  0  0  0  0
 35 72  1  0  0  0  0
 36 73  1  0  0  0  0
 36 78  2  0  0  0  0
 37 51  1  0  0  0  0
 37 75  1  0  0  0  0
 37 79  2  0  0  0  0
 38 63  1  0  0  0  0
 38 70  1  0  0  0  0
 38 80  2  0  0  0  0
 39 64  1  0  0  0  0
 39 76  1  0  0  0  0
 39 81  2  0  0  0  0
 40 71  1  0  0  0  0
 40 74  1  0  0  0  0
 40 82  2  0  0  0  0
 41 44  1  0  0  0  0
 42 51  1  0  0  0  0
 43 70  1  0  0  0  0
 44 46  1  0  0  0  0
 45 47  1  0  0  0  0
 45 48  1  0  0  0  0
 46 50  1  0  0  0  0
 47 52  1  0  0  0  0
 48 71  1  0  0  0  0
 49 52  1  0  0  0  0
 49 71  1  0  0  0  0
 50 75  1  0  0  0  0
 51 70  1  0  0  0  0
 52 69  1  0  0  0  0
 55 64  1  0  0  0  0
 56 65  1  0  0  0  0
 57 65  1  0  0  0  0
 58 65  1  0  0  0  0
 59 77  1  0  0  0  0
 60 61  1  0  0  0  0
 60 62  1  0  0  0  0
 61 84  1  0  0  0  0
 62 85  1  0  0  0  0
 63 65  1  0  0  0  0
 63 76  1  0  0  0  0
 64 77  1  0  0  0  0
 67 69  1  0  0  0  0
M  CHG  1  77   1
M  ISO  4  40 100  61 101  74 100  84 101
M  END
> <Batch ID>
0147

> <Smiles>
CNC(C)C(=O)NC(C(=O)N1Cc2cc([101O:1][101CH2:1]CCOc3cc(C)c4cc([100NH:0][100C:0](=O)N5CCCC(n6nc(-c7ccc(Oc8ccc(F)cc8F)cc7)c(C(N)=O)c6N)C5)nc(C)c4n3)ccc2CC1C(=O)NC1CCCc2ccccc21)C(C)(C)C

> <Shape>
0.309

> <Color>
0.172

> <Negative vol penalty>
0.000

$$$$

  -OEChem-04052321333D

 89 99  0     1  0  0  0  0  0999 V2000
  -19.3237  -32.0806   19.0643 C   0  0  0  0  0  0  0  0  0  0  0  0
  -20.3782  -31.7005   18.2403 C   0  0  0  0  0  0  0  0  0  0  0  0
  -22.8451  -11.2686   22.4033 C   0  0  0  0  0  0  0  0  0  0  0  0
  -23.4356   -9.6143   20.7444 C   0  0  0  0  0  0  0  0  0  0  0  0
  -19.5648  -32.4034   20.3990 C   0  0  0  0  0  0  0  0  0  0  0  0
  -21.6748  -31.6441   18.7504 C   0  0  0  0  0  0  0  0  0  0  0  0
  -25.4588  -25.5165   18.5910 C   0  0  0  0  0  0  0  0  0  0  0  0
  -21.9867  -10.3525   23.0112 C   0  0  0  0  0  0  0  0  0  0  0  0
  -22.5772   -8.6983   21.3523 C   0  0  0  0  0  0  0  0  0  0  0  0
  -26.3236  -24.4375   18.4063 C   0  0  0  0  0  0  0  0  0  0  0  0
  -22.6164   -6.6602   24.0477 C   0  0  0  0  0  0  0  0  0  0  0  0
  -23.0873   -5.3612   24.2388 C   0  0  0  0  0  0  0  0  0  0  0  0
  -28.0708  -25.6221   19.5860 C   0  0  0  0  0  0  0  0  0  0  0  0
  -30.0688  -19.2281   20.8273 C   0  0  0  0  0  0  0  0  0  0  0  0
  -29.1372  -20.4208   22.7323 C   0  0  0  0  0  0  0  0  0  0  0  0
  -21.2881   -4.5077   22.8709 C   0  0  0  0  0  0  0  0  0  0  0  0
  -23.5695  -10.8995   21.2698 C   0  0  0  0  0  0  0  0  0  0  0  0
  -24.1135  -13.0947   20.0897 C   0  0  0  0  0  0  0  0  0  0  0  0
  -20.8635  -32.3415   20.9283 C   0  0  0  0  0  0  0  0  0  0  0  0
  -25.8925  -26.6476   19.2881 C   0  0  0  0  0  0  0  0  0  0  0  0
  -21.9337  -31.9676   20.0932 C   0  0  0  0  0  0  0  0  0  0  0  0
  -27.2052  -26.7009   19.7849 C   0  0  0  0  0  0  0  0  0  0  0  0
  -30.3852  -18.1825   21.6800 C   0  0  0  0  0  0  0  0  0  0  0  0
  -30.0856  -18.2519   23.0463 C   0  0  0  0  0  0  0  0  0  0  0  0
  -29.4542  -19.3608   23.5843 C   0  0  0  0  0  0  0  0  0  0  0  0
  -21.8527   -9.0674   22.4858 C   0  0  0  0  0  0  0  0  0  0  0  0
  -27.6264  -24.4903   18.9024 C   0  0  0  0  0  0  0  0  0  0  0  0
  -21.4812   -6.8829   23.2683 C   0  0  0  0  0  0  0  0  0  0  0  0
  -29.4431  -20.3553   21.3638 C   0  0  0  0  0  0  0  0  0  0  0  0
  -22.4232   -4.2850   23.6504 C   0  0  0  0  0  0  0  0  0  0  0  0
  -20.8171   -5.8066   22.6798 C   0  0  0  0  0  0  0  0  0  0  0  0
  -24.4560  -11.8455   20.6410 C   0  0  0  0  0  0  0  0  0  0  0  0
  -25.3016  -13.6009   19.6218 C   0  0  0  0  0  0  0  0  0  0  0  0
  -22.8358  -13.7400   20.0079 C   0  0  0  0  0  0  0  0  0  0  0  0
  -25.0514  -30.0545   20.6153 C   0  0  0  0  0  0  0  0  0  0  0  0
  -30.7519  -14.5992   20.3877 C   0  0  0  0  0  0  0  0  0  0  0  0
  -26.7272  -28.6490   22.7663 C   0  0  0  0  0  0  0  0  0  0  0  0
  -29.6951  -27.2684   23.7268 C   0  0  0  0  0  0  0  0  0  0  0  0
  -21.0820  -32.7452   22.3649 C   0  0  0  0  0  0  0  0  0  0  0  0
  -25.0151  -27.8581   19.4572 C   0  0  0  0  0  0  0  0  0  0  0  0
  -30.4863  -16.9931   23.7476 C   0  0  0  0  0  0  0  0  0  0  0  0
  -27.6392  -27.9521   20.4985 C   0  0  0  0  0  0  0  0  0  0  0  0
  -22.4299  -32.2984   22.9250 C   0  0  0  0  0  0  0  0  0  0  0  0
  -31.4702  -16.3871   22.7344 C   0  0  0  0  0  0  0  0  0  0  0  0
  -29.8170  -11.4161   19.0336 C   0  0  0  0  0  0  0  0  0  0  0  0
  -23.5498  -32.6182   21.9399 C   0  0  0  0  0  0  0  0  0  0  0  0
  -26.7508  -18.3114   25.3367 C   0  0  0  0  0  0  0  0  0  0  0  0
  -27.0153  -19.0968   26.5909 C   0  0  0  0  0  0  0  0  0  0  0  0
  -28.3168  -11.3338   19.3129 C   0  0  0  0  0  0  0  0  0  0  0  0
  -30.5540  -12.1457   20.1524 C   0  0  0  0  0  0  0  0  0  0  0  0
  -28.5179  -13.4299   20.7240 C   0  0  0  0  0  0  0  0  0  0  0  0
  -31.0347  -16.8723   21.3349 C   0  0  1  0  0  0  0  0  0  0  0  0
  -23.3504  -31.8704   20.6161 C   0  0  1  0  0  0  0  0  0  0  0  0
  -25.2303  -28.5764   20.8014 C   0  0  1  0  0  0  0  0  0  0  0  0
  -27.6016  -19.5500   25.2826 C   0  0  0  0  0  0  0  0  0  0  0  0
  -27.7314  -12.7271   19.6033 C   0  0  2  0  0  0  0  0  0  0  0  0
  -29.8484  -20.5946   25.7469 C   0  0  0  0  0  0  0  0  0  0  0  0
  -29.5315  -16.4772   19.3515 C   0  0  0  0  0  0  0  0  0  0  0  0
  -31.0605  -26.7575   25.7693 C   0  0  0  0  0  0  0  0  0  0  0  0
  -27.4906  -31.5939   22.9879 C   0  0  0  0  0  0  0  0  0  0  0  0
  -29.4866  -30.9021   24.3317 C   0  0  0  0  0  0  0  0  0  0  0  0
  -27.1891  -30.4262   25.1788 C   0  0  0  0  0  0  0  0  0  0  0  0
  -29.6514  -24.3618   23.1711 C   0  0  0  0  0  0  0  0  0  0  0  0
  -27.8670  -22.1373   18.6511 C   0  0  0  0  0  0  0  0  0  1  0  0
  -28.8445  -21.1108   19.1900 C   0  0  0  0  0  0  0  0  0  0  0  0
  -29.1185  -19.4400   25.0329 C   0  0  2  0  0  0  0  0  0  0  0  0
  -30.0618  -15.9117   20.6620 C   0  0  1  0  0  0  0  0  0  0  0  0
  -28.0915  -29.0945   23.2284 C   0  0  1  0  0  0  0  0  0  0  0  0
  -30.0286  -26.2313   24.7840 C   0  0  2  0  0  0  0  0  0  0  0  0
  -28.0603  -30.4937   23.9056 C   0  0  0  0  0  0  0  0  0  0  0  0
  -25.7595  -11.5745   20.5339 N   0  0  0  0  0  0  0  0  0  0  0  0
  -26.2465  -12.6605   19.9098 N   0  0  0  0  0  0  0  0  0  0  0  0
  -26.5688  -28.4163   21.3947 N   0  0  0  0  0  0  0  0  0  0  0  0
  -29.9539  -13.4553   20.4130 N   0  0  0  0  0  0  0  0  0  0  0  0
  -25.6196  -14.7540   18.9962 N   0  0  0  0  0  0  0  0  0  0  0  0
  -22.0393  -13.5042   18.8790 N   0  0  0  0  0  0  0  0  0  0  0  0
  -23.7457  -30.4850   20.7537 N   0  0  0  0  0  0  0  0  0  0  0  0
  -28.6011  -28.0280   24.0837 N   0  0  0  0  0  0  0  0  0  0  0  0
  -30.5727  -24.9987   24.1471 N   0  3  0  0  0  0  0  0  0  0  0  0
  -22.4199  -14.5160   20.9014 O   0  0  0  0  0  0  0  0  0  0  0  0
  -26.0259  -30.7544   20.3659 O   0  0  0  0  0  0  0  0  0  0  0  0
  -31.9636  -14.5932   20.1553 O   0  0  0  0  0  0  0  0  0  0  0  0
  -25.8232  -28.5157   23.5959 O   0  0  0  0  0  0  0  0  0  0  0  0
  -30.3428  -27.3946   22.6899 O   0  0  0  0  0  0  0  0  0  0  0  0
  -21.0154   -8.1731   23.0789 O   0  0  0  0  0  0  0  0  0  0  0  0
  -28.4639  -23.4315   18.7225 O   0  0  0  0  0  0  0  0  0  1  0  0
  -29.1324  -21.4124   20.5499 O   0  0  0  0  0  0  0  0  0  0  0  0
  -22.8765   -3.0378   23.8327 F   0  0  0  0  0  0  0  0  0  0  0  0
  -19.7268   -6.0145   21.9290 F   0  0  0  0  0  0  0  0  0  0  0  0
  1  2  1  0  0  0  0
  1  5  2  0  0  0  0
  2  6  2  0  0  0  0
  3  8  2  0  0  0  0
  3 17  1  0  0  0  0
  4  9  1  0  0  0  0
  4 17  2  0  0  0  0
  5 19  1  0  0  0  0
  6 21  1  0  0  0  0
  7 10  2  0  0  0  0
  7 20  1  0  0  0  0
  8 26  1  0  0  0  0
  9 26  2  0  0  0  0
 10 27  1  0  0  0  0
 11 12  2  0  0  0  0
 11 28  1  0  0  0  0
 12 30  1  0  0  0  0
 13 22  1  0  0  0  0
 13 27  2  0  0  0  0
 14 23  1  0  0  0  0
 14 29  2  0  0  0  0
 15 25  2  0  0  0  0
 15 29  1  0  0  0  0
 16 30  2  0  0  0  0
 16 31  1  0  0  0  0
 17 32  1  0  0  0  0
 18 32  1  0  0  0  0
 18 33  2  0  0  0  0
 18 34  1  0  0  0  0
 19 21  2  0  0  0  0
 19 39  1  0  0  0  0
 20 22  2  0  0  0  0
 20 40  1  0  0  0  0
 21 53  1  0  0  0  0
 22 42  1  0  0  0  0
 23 24  2  0  0  0  0
 23 52  1  0  0  0  0
 24 25  1  0  0  0  0
 24 41  1  0  0  0  0
 25 66  1  0  0  0  0
 26 85  1  0  0  0  0
 27 86  1  0  0  0  0
 28 31  2  0  0  0  0
 28 85  1  0  0  0  0
 29 87  1  0  0  0  0
 30 88  1  0  0  0  0
 31 89  1  0  0  0  0
 32 71  2  0  0  0  0
 33 72  1  0  0  0  0
 33 75  1  0  0  0  0
 34 76  1  0  0  0  0
 34 80  2  0  0  0  0
 35 54  1  0  0  0  0
 35 77  1  0  0  0  0
 35 81  2  0  0  0  0
 36 67  1  0  0  0  0
 36 74  1  0  0  0  0
 36 82  2  0  0  0  0
 37 68  1  0  0  0  0
 37 73  1  0  0  0  0
 37 83  2  0  0  0  0
 38 69  1  0  0  0  0
 38 78  1  0  0  0  0
 38 84  2  0  0  0  0
 39 43  1  0  0  0  0
 40 54  1  0  0  0  0
 41 44  1  0  0  0  0
 42 73  1  0  0  0  0
 43 46  1  0  0  0  0
 44 52  1  0  0  0  0
 45 49  1  0  0  0  0
 45 50  1  0  0  0  0
 46 53  1  0  0  0  0
 47 48  1  0  0  0  0
 47 55  1  0  0  0  0
 48 55  1  0  0  0  0
 49 56  1  0  0  0  0
 50 74  1  0  0  0  0
 51 56  1  0  0  0  0
 51 74  1  0  0  0  0
 52 67  1  0  0  0  0
 53 77  1  0  0  0  0
 54 73  1  0  0  0  0
 55 66  1  0  0  0  0
 56 72  1  0  0  0  0
 57 66  1  0  0  0  0
 58 67  1  0  0  0  0
 59 69  1  0  0  0  0
 60 70  1  0  0  0  0
 61 70  1  0  0  0  0
 62 70  1  0  0  0  0
 63 79  1  0  0  0  0
 64 65  1  0  0  0  0
 64 86  1  0  0  0  0
 65 87  1  0  0  0  0
 68 70  1  0  0  0  0
 68 78  1  0  0  0  0
 69 79  1  0  0  0  0
 71 72  1  0  0  0  0
M  CHG  1  79   1
M  ISO  4  36 100  64 101  67 100  86 101
M  END
> <Batch ID>
0147

> <Smiles>
CNC(C)C(=O)NC(C(=O)N1Cc2cc([101O:1][101CH2:1]COc3cc(C(C)C4CC4)c4c(c3)C([100CH:0](C)[100C:0](=O)N3CCCC(n5nc(-c6ccc(Oc7ccc(F)cc7F)cc6)c(C(N)=O)c5N)C3)CC4)ccc2CC1C(=O)NC1CCCc2ccccc21)C(C)(C)C

> <Shape>
0.296

> <Color>
0.147

> <Negative vol penalty>
0.000

$$$$

  -OEChem-04052321333D

 91102  0     1  0  0  0  0  0999 V2000
  -28.0433  -33.1460   22.4195 C   0  0  0  0  0  0  0  0  0  0  0  0
  -28.4888  -31.9085   21.9661 C   0  0  0  0  0  0  0  0  0  0  0  0
  -31.4392  -21.2578   19.6278 C   0  0  0  0  0  0  0  0  0  0  0  0
  -29.2180  -20.5073   19.0447 C   0  0  0  0  0  0  0  0  0  0  0  0
  -26.9237  -33.2223   23.2468 C   0  0  0  0  0  0  0  0  0  0  0  0
  -27.8154  -30.7463   22.3407 C   0  0  0  0  0  0  0  0  0  0  0  0
  -26.1189  -24.2369   19.8778 C   0  0  0  0  0  0  0  0  0  0  0  0
  -31.2844  -22.3645   18.7932 C   0  0  0  0  0  0  0  0  0  0  0  0
  -29.0632  -21.6141   18.2100 C   0  0  0  0  0  0  0  0  0  0  0  0
  -26.1984  -22.8933   20.2414 C   0  0  0  0  0  0  0  0  0  0  0  0
  -29.7498  -25.3753   18.9074 C   0  0  0  0  0  0  0  0  0  0  0  0
  -30.1492  -26.6183   19.3983 C   0  0  0  0  0  0  0  0  0  0  0  0
  -24.2289  -23.1532   21.6099 C   0  0  0  0  0  0  0  0  0  0  0  0
  -23.6990  -11.8392   20.9757 C   0  0  0  0  0  0  0  0  0  0  0  0
  -25.0906  -13.7942   20.8145 C   0  0  0  0  0  0  0  0  0  0  0  0
  -31.7351  -26.8240   17.5873 C   0  0  0  0  0  0  0  0  0  0  0  0
  -30.4060  -20.3291   19.7535 C   0  0  0  0  0  0  0  0  0  0  0  0
  -30.8089  -19.1928   22.0017 C   0  0  0  0  0  0  0  0  0  0  0  0
  -26.2304  -32.0613   23.6238 C   0  0  0  0  0  0  0  0  0  0  0  0
  -25.0984  -25.0528   20.3870 C   0  0  0  0  0  0  0  0  0  0  0  0
  -26.6861  -30.8070   23.1749 C   0  0  0  0  0  0  0  0  0  0  0  0
  -24.1371  -24.5062   21.2492 C   0  0  0  0  0  0  0  0  0  0  0  0
  -23.8476  -13.2194   21.0549 C   0  0  0  0  0  0  0  0  0  0  0  0
  -30.0964  -22.5427   18.0843 C   0  0  0  0  0  0  0  0  0  0  0  0
  -25.2551  -22.3520   21.1098 C   0  0  0  0  0  0  0  0  0  0  0  0
  -30.3431  -24.8566   17.7565 C   0  0  0  0  0  0  0  0  0  0  0  0
  -31.1418  -27.3427   18.7383 C   0  0  0  0  0  0  0  0  0  0  0  0
  -31.3357  -25.5809   17.0964 C   0  0  0  0  0  0  0  0  0  0  0  0
  -30.5655  -19.1852   20.6151 C   0  0  0  0  0  0  0  0  0  0  0  0
  -24.8156  -11.0841   20.6551 C   0  0  0  0  0  0  0  0  0  0  0  0
  -26.1449  -12.9516   20.5012 C   0  0  0  0  0  0  0  0  0  0  0  0
  -30.8786  -17.8648   22.3452 C   0  0  0  0  0  0  0  0  0  0  0  0
  -30.9586  -20.3011   22.8989 C   0  0  0  0  0  0  0  0  0  0  0  0
  -25.0070  -27.6643   22.1968 C   0  0  0  0  0  0  0  0  0  0  0  0
  -21.8365  -27.5496   21.5204 C   0  0  0  0  0  0  0  0  0  0  0  0
  -19.2851  -25.0098   21.2815 C   0  0  0  0  0  0  0  0  0  0  0  0
  -28.5978  -12.8981   19.9296 C   0  0  0  0  0  0  0  0  0  0  0  0
  -25.0534  -32.1898   24.5581 C   0  0  0  0  0  0  0  0  0  0  0  0
  -25.0108  -26.4936   19.9640 C   0  0  0  0  0  0  0  0  0  0  0  0
  -23.0100  -25.3347   21.8076 C   0  0  0  0  0  0  0  0  0  0  0  0
  -24.1736  -30.9432   24.6044 C   0  0  0  0  0  0  0  0  0  0  0  0
  -32.0383  -13.5847   20.5367 C   0  0  0  0  0  0  0  0  0  0  0  0
  -25.0312  -29.6893   24.7426 C   0  0  0  0  0  0  0  0  0  0  0  0
  -21.1272  -13.9382   23.5770 C   0  0  0  0  0  0  0  0  0  0  0  0
  -22.3135  -13.0608   23.8435 C   0  0  0  0  0  0  0  0  0  0  0  0
  -23.5932  -18.1008   19.9003 C   0  0  0  0  0  0  0  0  0  0  0  0
  -22.5267  -18.6148   22.1351 C   0  0  0  0  0  0  0  0  0  0  0  0
  -32.0723  -15.0987   20.7579 C   0  0  0  0  0  0  0  0  0  0  0  0
  -24.7014  -19.1050   20.2024 C   0  0  0  0  0  0  0  0  0  0  0  0
  -23.6376  -19.6181   22.4307 C   0  0  0  0  0  0  0  0  0  0  0  0
  -21.4758  -14.0154   20.4482 C   0  0  0  0  0  0  0  0  0  0  0  0
  -31.0217  -13.1906   19.4667 C   0  0  0  0  0  0  0  0  0  0  0  0
  -29.6982  -15.2227   19.9005 C   0  0  0  0  0  0  0  0  0  0  0  0
  -25.9676  -29.5260   23.5393 C   0  0  1  0  0  0  0  0  0  0  0  0
  -24.2293  -27.3588   20.9480 C   0  0  1  0  0  0  0  0  0  0  0  0
  -22.4477  -14.2414   22.9150 C   0  0  0  0  0  0  0  0  0  0  0  0
  -23.0036  -17.5060   21.1867 C   0  0  0  0  0  0  0  0  0  0  0  0
  -22.3694  -15.2164   20.4093 C   0  0  2  0  0  0  0  0  0  0  0  0
  -30.6612  -15.6624   21.0154 C   0  0  2  0  0  0  0  0  0  0  0  0
  -24.2245  -20.2039   21.1482 C   0  0  0  0  0  0  0  0  0  1  0  0
  -22.6724  -14.0839   21.3978 C   0  0  1  0  0  0  0  0  0  0  0  0
  -24.6929   -9.5999   20.5607 C   0  0  0  0  0  0  0  0  0  0  0  0
  -17.1638  -24.9491   19.9423 C   0  0  0  0  0  0  0  0  0  0  0  0
  -20.5448  -28.6460   24.0579 C   0  0  0  0  0  0  0  0  0  0  0  0
  -18.5610  -27.1910   23.5933 C   0  0  0  0  0  0  0  0  0  0  0  0
  -19.2005  -28.9788   21.9754 C   0  0  0  0  0  0  0  0  0  0  0  0
  -20.0323  -22.4502   19.9972 C   0  0  0  0  0  0  0  0  0  0  0  0
  -21.8609  -16.5455   20.8623 C   0  0  0  0  0  0  0  0  0  0  0  0
  -20.6305  -26.9016   22.1564 C   0  0  1  0  0  0  0  0  0  0  0  0
  -18.6176  -24.5086   20.0135 C   0  0  2  0  0  0  0  0  0  0  0  0
  -19.7602  -27.9180   22.9482 C   0  0  0  0  0  0  0  0  0  0  0  0
  -30.4861  -17.9504   20.1122 N   0  0  0  0  0  0  0  0  0  0  0  0
  -26.0391  -11.6066   20.4149 N   0  0  0  0  0  0  0  0  0  0  0  0
  -30.6808  -17.1696   21.1886 N   0  0  0  0  0  0  0  0  0  0  0  0
  -22.9710  -26.7396   21.3693 N   0  0  0  0  0  0  0  0  0  0  0  0
  -29.7075  -13.7564   19.7792 N   0  0  0  0  0  0  0  0  0  0  0  0
  -31.0894  -17.2355   23.5208 N   0  0  0  0  0  0  0  0  0  0  0  0
  -29.8149  -20.8089   23.5301 N   0  0  0  0  0  0  0  0  0  0  0  0
  -27.4078  -13.5465   20.2582 N   0  0  0  0  0  0  0  0  0  0  0  0
  -25.2402  -29.0112   22.3990 N   0  0  0  0  0  0  0  0  0  0  0  0
  -19.9204  -26.2171   21.0814 N   0  0  0  0  0  0  0  0  0  0  0  0
  -18.6609  -23.0200   19.9590 N   0  3  0  0  0  0  0  0  0  0  0  0
  -32.0712  -20.8360   23.1213 O   0  0  0  0  0  0  0  0  0  0  0  0
  -25.3674  -26.7461   22.9240 O   0  0  0  0  0  0  0  0  0  0  0  0
  -21.7721  -28.7288   21.1640 O   0  0  0  0  0  0  0  0  0  0  0  0
  -19.2438  -24.3938   22.3442 O   0  0  0  0  0  0  0  0  0  0  0  0
  -28.7017  -11.6751   19.8048 O   0  0  0  0  0  0  0  0  0  0  0  0
  -29.9449  -23.6227   17.2699 O   0  0  0  0  0  0  0  0  0  0  0  0
  -25.3308  -21.0410   21.4668 O   0  0  0  0  0  0  0  0  0  1  0  0
  -31.5242  -28.5370   19.2089 F   0  0  0  0  0  0  0  0  0  0  0  0
  -31.9085  -25.0883   15.9896 F   0  0  0  0  0  0  0  0  0  0  0  0
  1  2  1  0  0  0  0
  1  5  2  0  0  0  0
  2  6  2  0  0  0  0
  3  8  2  0  0  0  0
  3 17  1  0  0  0  0
  4  9  1  0  0  0  0
  4 17  2  0  0  0  0
  5 19  1  0  0  0  0
  6 21  1  0  0  0  0
  7 10  2  0  0  0  0
  7 20  1  0  0  0  0
  8 24  1  0  0  0  0
  9 24  2  0  0  0  0
 10 25  1  0  0  0  0
 11 12  2  0  0  0  0
 11 26  1  0  0  0  0
 12 27  1  0  0  0  0
 13 22  1  0  0  0  0
 13 25  2  0  0  0  0
 14 23  1  0  0  0  0
 14 30  2  0  0  0  0
 15 23  2  0  0  0  0
 15 31  1  0  0  0  0
 16 27  2  0  0  0  0
 16 28  1  0  0  0  0
 17 29  1  0  0  0  0
 18 29  1  0  0  0  0
 18 32  2  0  0  0  0
 18 33  1  0  0  0  0
 19 21  2  0  0  0  0
 19 38  1  0  0  0  0
 20 22  2  0  0  0  0
 20 39  1  0  0  0  0
 21 54  1  0  0  0  0
 22 40  1  0  0  0  0
 23 61  1  0  0  0  0
 24 88  1  0  0  0  0
 25 89  1  0  0  0  0
 26 28  2  0  0  0  0
 26 88  1  0  0  0  0
 27 90  1  0  0  0  0
 28 91  1  0  0  0  0
 29 72  2  0  0  0  0
 30 62  1  0  0  0  0
 30 73  1  0  0  0  0
 31 73  2  0  0  0  0
 31 79  1  0  0  0  0
 32 74  1  0  0  0  0
 32 77  1  0  0  0  0
 33 78  1  0  0  0  0
 33 83  2  0  0  0  0
 34 55  1  0  0  0  0
 34 80  1  0  0  0  0
 34 84  2  0  0  0  0
 35 69  1  0  0  0  0
 35 75  1  0  0  0  0
 35 85  2  0  0  0  0
 36 70  1  0  0  0  0
 36 81  1  0  0  0  0
 36 86  2  0  0  0  0
 37 76  1  0  0  0  0
 37 79  1  0  0  0  0
 37 87  2  0  0  0  0
 38 41  1  0  0  0  0
 39 55  1  0  0  0  0
 40 75  1  0  0  0  0
 41 43  1  0  0  0  0
 42 48  1  0  0  0  0
 42 52  1  0  0  0  0
 43 54  1  0  0  0  0
 44 45  1  0  0  0  0
 44 56  1  0  0  0  0
 45 56  1  0  0  0  0
 46 49  1  0  0  0  0
 46 57  1  0  0  0  0
 47 50  1  0  0  0  0
 47 57  1  0  0  0  0
 48 59  1  0  0  0  0
 49 60  1  0  0  0  0
 50 60  1  0  0  0  0
 51 58  1  0  0  0  0
 51 61  1  0  0  0  0
 52 76  1  0  0  0  0
 53 59  1  0  0  0  0
 53 76  1  0  0  0  0
 54 80  1  0  0  0  0
 55 75  1  0  0  0  0
 56 61  1  0  0  0  0
 57 68  1  0  0  0  0
 58 61  1  0  0  0  0
 58 68  1  0  0  0  0
 59 74  1  0  0  0  0
 60 89  1  0  0  0  0
 63 70  1  0  0  0  0
 64 71  1  0  0  0  0
 65 71  1  0  0  0  0
 66 71  1  0  0  0  0
 67 82  1  0  0  0  0
 69 71  1  0  0  0  0
 69 81  1  0  0  0  0
 70 82  1  0  0  0  0
 72 74  1  0  0  0  0
M  CHG  1  82   1
M  ISO  4  37 100  60 101  79 100  89 101
M  END
> <Batch ID>
0147

> <Smiles>
CNC(C)C(=O)NC(C(=O)N1Cc2cc([101O:1][101CH:1]3CCC(CC4CC4(c4cc(C)nc([100NH:0][100C:0](=O)N5CCCC(n6nc(-c7ccc(Oc8ccc(F)cc8F)cc7)c(C(N)=O)c6N)C5)c4)C4CC4)CC3)ccc2CC1C(=O)NC1CCCc2ccccc21)C(C)(C)C

> <Shape>
0.281

> <Color>
0.051

> <Negative vol penalty>
0.000

$$$$

  -OEChem-04052321333D

 86 94  0     1  0  0  0  0  0999 V2000
  -19.0020   -9.5183   22.0602 C   0  0  0  0  0  0  0  0  0  0  0  0
  -18.6703  -10.8693   22.0632 C   0  0  0  0  0  0  0  0  0  0  0  0
  -29.7725  -23.9597   20.4703 C   0  0  0  0  0  0  0  0  0  0  0  0
  -27.8137  -23.8586   19.0597 C   0  0  0  0  0  0  0  0  0  0  0  0
  -20.2824   -9.1152   22.4369 C   0  0  0  0  0  0  0  0  0  0  0  0
  -19.6186  -11.8181   22.4440 C   0  0  0  0  0  0  0  0  0  0  0  0
  -21.6475  -18.5487   21.0658 C   0  0  0  0  0  0  0  0  0  0  0  0
  -29.8303  -22.5662   20.4900 C   0  0  0  0  0  0  0  0  0  0  0  0
  -27.8715  -22.4651   19.0793 C   0  0  0  0  0  0  0  0  0  0  0  0
  -21.9171  -19.7483   21.7230 C   0  0  0  0  0  0  0  0  0  0  0  0
  -28.2627  -20.0310   22.0836 C   0  0  0  0  0  0  0  0  0  0  0  0
  -28.4867  -19.4097   23.3122 C   0  0  0  0  0  0  0  0  0  0  0  0
  -24.1217  -18.9417   22.2781 C   0  0  0  0  0  0  0  0  0  0  0  0
  -21.5677  -27.0304   21.6187 C   0  0  0  0  0  0  0  0  0  0  0  0
  -30.5042  -18.4084   22.4380 C   0  0  0  0  0  0  0  0  0  0  0  0
  -19.8138  -26.4091   23.1000 C   0  0  0  0  0  0  0  0  0  0  0  0
  -28.7641  -24.6060   19.7552 C   0  0  0  0  0  0  0  0  0  0  0  0
  -29.3232  -26.9094   18.8123 C   0  0  0  0  0  0  0  0  0  0  0  0
  -21.2499  -10.0602   22.8132 C   0  0  0  0  0  0  0  0  0  0  0  0
  -22.6107  -17.5306   21.0191 C   0  0  0  0  0  0  0  0  0  0  0  0
  -20.9128  -11.4271   22.8274 C   0  0  0  0  0  0  0  0  0  0  0  0
  -23.8628  -17.7311   21.6175 C   0  0  0  0  0  0  0  0  0  0  0  0
  -20.8490  -28.1763   21.2969 C   0  0  0  0  0  0  0  0  0  0  0  0
  -28.8798  -21.8189   19.7945 C   0  0  0  0  0  0  0  0  0  0  0  0
  -23.1533  -19.9439   22.3318 C   0  0  0  0  0  0  0  0  0  0  0  0
  -29.1594  -19.8410   21.0322 C   0  0  0  0  0  0  0  0  0  0  0  0
  -21.0473  -26.1248   22.5365 C   0  0  0  0  0  0  0  0  0  0  0  0
  -29.6074  -18.5984   23.4894 C   0  0  0  0  0  0  0  0  0  0  0  0
  -30.2802  -19.0297   21.2094 C   0  0  0  0  0  0  0  0  0  0  0  0
  -28.7036  -26.0454   19.7349 C   0  0  0  0  0  0  0  0  0  0  0  0
  -19.6243  -28.3686   21.9157 C   0  0  0  0  0  0  0  0  0  0  0  0
  -28.9606  -28.1686   19.2240 C   0  0  0  0  0  0  0  0  0  0  0  0
  -30.1523  -26.6014   17.6839 C   0  0  0  0  0  0  0  0  0  0  0  0
  -22.7623  -14.5360   22.0743 C   0  0  0  0  0  0  0  0  0  0  0  0
  -25.5646  -14.5144   20.4406 C   0  0  0  0  0  0  0  0  0  0  0  0
  -28.1658  -16.2902   19.1263 C   0  0  0  0  0  0  0  0  0  0  0  0
  -24.3080  -30.2488   22.3668 C   0  0  0  0  0  0  0  0  0  0  0  0
  -22.6062   -9.5729   23.2579 C   0  0  0  0  0  0  0  0  0  0  0  0
  -22.3140  -16.2527   20.2832 C   0  0  0  0  0  0  0  0  0  0  0  0
  -24.9383  -16.6774   21.5784 C   0  0  0  0  0  0  0  0  0  0  0  0
  -23.6676  -10.6697   23.2881 C   0  0  0  0  0  0  0  0  0  0  0  0
  -27.7606  -30.6231   23.1517 C   0  0  0  0  0  0  0  0  0  0  0  0
  -23.1243  -11.9196   23.9731 C   0  0  0  0  0  0  0  0  0  0  0  0
  -28.4497  -29.5703   22.2818 C   0  0  0  0  0  0  0  0  0  0  0  0
  -26.4111  -30.1312   23.6704 C   0  0  0  0  0  0  0  0  0  0  0  0
  -26.1755  -28.5938   21.7586 C   0  0  0  0  0  0  0  0  0  0  0  0
  -21.9216  -12.4882   23.2102 C   0  0  1  0  0  0  0  0  0  0  0  0
  -23.1825  -15.0847   20.7401 C   0  0  1  0  0  0  0  0  0  0  0  0
  -27.5147  -29.0652   21.1664 C   0  0  2  0  0  0  0  0  0  0  0  0
  -30.3246  -15.9927   17.8819 C   0  0  0  0  0  0  0  0  0  0  0  0
  -22.3964  -31.4682   20.0379 C   0  0  0  0  0  0  0  0  0  0  0  0
  -26.9087  -13.5551   23.0064 C   0  0  0  0  0  0  0  0  0  0  0  0
  -29.1147  -14.1841   22.0034 C   0  0  0  0  0  0  0  0  0  0  0  0
  -27.7112  -12.4271   20.9237 C   0  0  0  0  0  0  0  0  0  0  0  0
  -27.1998  -17.8939   16.8342 C   0  0  0  0  0  0  0  0  0  0  0  0
  -17.6384  -29.6207   22.2958 C   0  0  0  0  0  0  0  0  0  0  0  0
  -21.3964  -29.1531   20.3153 C   0  0  0  0  0  0  0  0  0  0  0  0
  -23.6301  -23.5076   22.7605 C   0  0  0  0  0  0  0  0  0  0  0  0
  -22.7679  -22.2856   22.4856 C   0  0  0  0  0  0  0  0  0  1  0  0
  -22.9894  -24.7847   22.2399 C   0  0  0  0  0  0  0  0  0  0  0  0
  -26.9988  -14.8482   20.7735 C   0  0  1  0  0  0  0  0  0  0  0  0
  -28.8295  -16.2439   17.7619 C   0  0  2  0  0  0  0  0  0  0  0  0
  -22.2654  -30.2579   20.9571 C   0  0  1  0  0  0  0  0  0  0  0  0
  -27.6626  -13.7729   21.6793 C   0  0  0  0  0  0  0  0  0  0  0  0
  -19.0863  -27.5116   22.8122 N   0  0  0  0  0  0  0  0  0  0  0  0
  -28.0008  -26.7003   20.6630 N   0  0  0  0  0  0  0  0  0  0  0  0
  -28.1767  -27.9892   20.3256 N   0  0  0  0  0  0  0  0  0  0  0  0
  -24.5979  -15.4428   20.8522 N   0  0  0  0  0  0  0  0  0  0  0  0
  -25.5717  -29.6678   22.5628 N   0  0  0  0  0  0  0  0  0  0  0  0
  -29.2392  -29.4006   18.7477 N   0  0  0  0  0  0  0  0  0  0  0  0
  -30.4251  -25.2557   17.4028 N   0  0  0  0  0  0  0  0  0  0  0  0
  -22.3634  -13.2135   22.0384 N   0  0  0  0  0  0  0  0  0  0  0  0
  -27.6761  -15.0560   19.4982 N   0  0  0  0  0  0  0  0  0  0  0  0
  -23.5798  -29.7561   21.2907 N   0  0  0  0  0  0  0  0  0  0  0  0
  -28.6258  -17.5333   17.0428 N   0  3  0  0  0  0  0  0  0  0  0  0
  -30.6503  -27.4937   16.9563 O   0  0  0  0  0  0  0  0  0  0  0  0
  -22.7988  -15.2586   23.0633 O   0  0  0  0  0  0  0  0  0  0  0  0
  -25.3121  -13.4720   19.8314 O   0  0  0  0  0  0  0  0  0  0  0  0
  -28.0926  -17.3175   19.7970 O   0  0  0  0  0  0  0  0  0  0  0  0
  -23.8638  -31.1442   23.0934 O   0  0  0  0  0  0  0  0  0  0  0  0
  -28.9360  -20.4591   19.8133 O   0  0  0  0  0  0  0  0  0  0  0  0
  -23.4188  -21.1136   22.9745 O   0  0  0  0  0  0  0  0  0  1  0  0
  -21.7329  -24.9867   22.8727 O   0  0  0  0  0  0  0  0  0  0  0  0
  -18.8855  -29.4861   21.6250 O   0  0  0  0  0  0  0  0  0  0  0  0
  -29.8232  -18.0031   24.6697 F   0  0  0  0  0  0  0  0  0  0  0  0
  -31.1458  -18.8443   20.2033 F   0  0  0  0  0  0  0  0  0  0  0  0
  1  2  1  0  0  0  0
  1  5  2  0  0  0  0
  2  6  2  0  0  0  0
  3  8  2  0  0  0  0
  3 17  1  0  0  0  0
  4  9  1  0  0  0  0
  4 17  2  0  0  0  0
  5 19  1  0  0  0  0
  6 21  1  0  0  0  0
  7 10  2  0  0  0  0
  7 20  1  0  0  0  0
  8 24  1  0  0  0  0
  9 24  2  0  0  0  0
 10 25  1  0  0  0  0
 11 12  2  0  0  0  0
 11 26  1  0  0  0  0
 12 28  1  0  0  0  0
 13 22  1  0  0  0  0
 13 25  2  0  0  0  0
 14 23  1  0  0  0  0
 14 27  2  0  0  0  0
 15 28  2  0  0  0  0
 15 29  1  0  0  0  0
 16 27  1  0  0  0  0
 16 65  2  0  0  0  0
 17 30  1  0  0  0  0
 18 30  1  0  0  0  0
 18 32  2  0  0  0  0
 18 33  1  0  0  0  0
 19 21  2  0  0  0  0
 19 38  1  0  0  0  0
 20 22  2  0  0  0  0
 20 39  1  0  0  0  0
 21 47  1  0  0  0  0
 22 40  1  0  0  0  0
 23 31  2  0  0  0  0
 23 57  1  0  0  0  0
 24 81  1  0  0  0  0
 25 82  1  0  0  0  0
 26 29  2  0  0  0  0
 26 81  1  0  0  0  0
 27 83  1  0  0  0  0
 28 85  1  0  0  0  0
 29 86  1  0  0  0  0
 30 66  2  0  0  0  0
 31 65  1  0  0  0  0
 31 84  1  0  0  0  0
 32 67  1  0  0  0  0
 32 70  1  0  0  0  0
 33 71  1  0  0  0  0
 33 76  2  0  0  0  0
 34 48  1  0  0  0  0
 34 72  1  0  0  0  0
 34 77  2  0  0  0  0
 35 61  1  0  0  0  0
 35 68  1  0  0  0  0
 35 78  2  0  0  0  0
 36 62  1  0  0  0  0
 36 73  1  0  0  0  0
 36 79  2  0  0  0  0
 37 69  1  0  0  0  0
 37 74  1  0  0  0  0
 37 80  2  0  0  0  0
 38 41  1  0  0  0  0
 39 48  1  0  0  0  0
 40 68  1  0  0  0  0
 41 43  1  0  0  0  0
 42 44  1  0  0  0  0
 42 45  1  0  0  0  0
 43 47  1  0  0  0  0
 44 49  1  0  0  0  0
 45 69  1  0  0  0  0
 46 49  1  0  0  0  0
 46 69  1  0  0  0  0
 47 72  1  0  0  0  0
 48 68  1  0  0  0  0
 49 67  1  0  0  0  0
 50 62  1  0  0  0  0
 51 63  1  0  0  0  0
 52 64  1  0  0  0  0
 53 64  1  0  0  0  0
 54 64  1  0  0  0  0
 55 75  1  0  0  0  0
 56 84  1  0  0  0  0
 57 63  1  0  0  0  0
 58 59  1  0  0  0  0
 58 60  1  0  0  0  0
 59 82  1  0  0  0  0
 60 83  1  0  0  0  0
 61 64  1  0  0  0  0
 61 73  1  0  0  0  0
 62 75  1  0  0  0  0
 63 74  1  0  0  0  0
 66 67  1  0  0  0  0
M  CHG  1  75   1
M  ISO  4  37 100  59 101  74 100  82 101
M  END
> <Batch ID>
0147

> <Smiles>
CNC(C)C(=O)NC(C(=O)N1Cc2cc([101O:1][101CH2:1]CCOc3cnc(OC)c(CC(C)[100NH:0][100C:0](=O)N4CCCC(n5nc(-c6ccc(Oc7ccc(F)cc7F)cc6)c(C(N)=O)c5N)C4)c3)ccc2CC1C(=O)NC1CCCc2ccccc21)C(C)(C)C

> <Shape>
0.248

> <Color>
0.050

> <Negative vol penalty>
0.000

$$$$

  -OEChem-04052321333D

 86 94  0     1  0  0  0  0  0999 V2000
  -23.2655  -29.4192   22.6221 C   0  0  0  0  0  0  0  0  0  0  0  0
  -22.6906  -28.3411   21.9570 C   0  0  0  0  0  0  0  0  0  0  0  0
  -28.8613  -12.1302   21.0993 C   0  0  0  0  0  0  0  0  0  0  0  0
  -28.2703  -12.7865   18.8505 C   0  0  0  0  0  0  0  0  0  0  0  0
  -24.5394  -29.8586   22.2643 C   0  0  0  0  0  0  0  0  0  0  0  0
  -23.3889  -27.7023   20.9329 C   0  0  0  0  0  0  0  0  0  0  0  0
  -23.1474  -22.6553   21.2710 C   0  0  0  0  0  0  0  0  0  0  0  0
  -30.2034  -12.0603   20.7262 C   0  0  0  0  0  0  0  0  0  0  0  0
  -29.6125  -12.7166   18.4774 C   0  0  0  0  0  0  0  0  0  0  0  0
  -21.9707  -22.0438   20.8403 C   0  0  0  0  0  0  0  0  0  0  0  0
  -32.9267  -13.0611   17.0230 C   0  0  0  0  0  0  0  0  0  0  0  0
  -33.4418  -14.1040   16.2533 C   0  0  0  0  0  0  0  0  0  0  0  0
  -23.0347  -21.4832   18.7492 C   0  0  0  0  0  0  0  0  0  0  0  0
  -18.4889  -16.5912   18.4384 C   0  0  0  0  0  0  0  0  0  0  0  0
  -32.9016  -15.6693   18.0126 C   0  0  0  0  0  0  0  0  0  0  0  0
  -27.8946  -12.4933   20.1614 C   0  0  0  0  0  0  0  0  0  0  0  0
  -25.8233  -13.6860   21.0529 C   0  0  0  0  0  0  0  0  0  0  0  0
  -25.2576  -29.2188   21.2419 C   0  0  0  0  0  0  0  0  0  0  0  0
  -24.2750  -22.6949   20.4384 C   0  0  0  0  0  0  0  0  0  0  0  0
  -24.6730  -28.1344   20.5602 C   0  0  0  0  0  0  0  0  0  0  0  0
  -24.2252  -22.0934   19.1727 C   0  0  0  0  0  0  0  0  0  0  0  0
  -18.1273  -15.3717   17.8769 C   0  0  0  0  0  0  0  0  0  0  0  0
  -19.1137  -14.4823   17.4655 C   0  0  0  0  0  0  0  0  0  0  0  0
  -30.5791  -12.3535   19.4152 C   0  0  0  0  0  0  0  0  0  0  0  0
  -21.9134  -21.4602   19.5781 C   0  0  0  0  0  0  0  0  0  0  0  0
  -32.3990  -13.3222   18.2876 C   0  0  0  0  0  0  0  0  0  0  0  0
  -33.4293  -15.4081   16.7481 C   0  0  0  0  0  0  0  0  0  0  0  0
  -32.3865  -14.6263   18.7823 C   0  0  0  0  0  0  0  0  0  0  0  0
  -26.5079  -12.5652   20.5461 C   0  0  0  0  0  0  0  0  0  0  0  0
  -20.4367  -14.8569   17.6361 C   0  0  0  0  0  0  0  0  0  0  0  0
  -19.8399  -16.8713   18.5657 C   0  0  0  0  0  0  0  0  0  0  0  0
  -24.5406  -13.2405   21.2591 C   0  0  0  0  0  0  0  0  0  0  0  0
  -26.3039  -15.0114   21.3139 C   0  0  0  0  0  0  0  0  0  0  0  0
  -25.9927  -25.0086   19.0969 C   0  0  0  0  0  0  0  0  0  0  0  0
  -27.8965  -22.5408   18.1982 C   0  0  0  0  0  0  0  0  0  0  0  0
  -28.1987  -19.2063   17.5375 C   0  0  0  0  0  0  0  0  0  0  0  0
  -20.0423  -10.4046   19.5655 C   0  0  0  0  0  0  0  0  0  0  0  0
  -26.6123  -29.7595   20.8584 C   0  0  0  0  0  0  0  0  0  0  0  0
  -25.5450  -23.3348   20.9282 C   0  0  0  0  0  0  0  0  0  0  0  0
  -25.4145  -22.0911   18.2485 C   0  0  0  0  0  0  0  0  0  0  0  0
  -27.4382  -28.7913   20.0153 C   0  0  0  0  0  0  0  0  0  0  0  0
  -22.6277   -8.5586   21.1732 C   0  0  0  0  0  0  0  0  0  0  0  0
  -26.5884  -28.2003   18.8950 C   0  0  0  0  0  0  0  0  0  0  0  0
  -23.8122   -9.5263   21.1894 C   0  0  0  0  0  0  0  0  0  0  0  0
  -21.8048   -8.6952   19.8940 C   0  0  0  0  0  0  0  0  0  0  0  0
  -22.5322  -11.0329   19.6113 C   0  0  0  0  0  0  0  0  0  0  0  0
  -25.4091  -27.3998   19.4607 C   0  0  1  0  0  0  0  0  0  0  0  0
  -26.4713  -23.7677   19.7960 C   0  0  1  0  0  0  0  0  0  0  0  0
  -23.3596  -10.9715   20.9066 C   0  0  2  0  0  0  0  0  0  0  0  0
  -16.6793  -15.0410   17.7262 C   0  0  0  0  0  0  0  0  0  0  0  0
  -21.5396  -13.9427   17.2125 C   0  0  0  0  0  0  0  0  0  0  0  0
  -18.0027  -13.3533   15.5206 C   0  0  0  0  0  0  0  0  0  0  0  0
  -29.3293  -17.0350   16.9855 C   0  0  0  0  0  0  0  0  0  0  0  0
  -27.6527  -23.5602   15.3326 C   0  0  0  0  0  0  0  0  0  0  0  0
  -28.5070  -21.3425   14.5450 C   0  0  0  0  0  0  0  0  0  0  0  0
  -29.9449  -22.7942   15.9759 C   0  0  0  0  0  0  0  0  0  0  0  0
  -28.7443  -18.6319   20.3891 C   0  0  0  0  0  0  0  0  0  0  0  0
  -17.9185  -12.2443   17.7883 C   0  0  0  0  0  0  0  0  0  0  0  0
  -18.3936  -12.2310   19.2414 C   0  0  0  0  0  0  0  0  0  0  0  0
  -19.2214  -19.0670   19.5766 C   0  0  0  0  0  0  0  0  0  0  0  0
  -19.9303  -20.2806   20.1542 C   0  0  0  0  0  0  0  0  0  1  0  0
  -18.7545  -13.1687   16.8562 C   0  0  2  0  0  0  0  0  0  0  0  0
  -27.9581  -21.6174   17.0055 C   0  0  1  0  0  0  0  0  0  0  0  0
  -29.2267  -18.1808   17.9802 C   0  0  2  0  0  0  0  0  0  0  0  0
  -28.4925  -22.3302   15.7312 C   0  0  0  0  0  0  0  0  0  0  0  0
  -25.7250  -11.4886   20.4372 N   0  0  0  0  0  0  0  0  0  0  0  0
  -20.8266  -16.0327   18.1775 N   0  0  0  0  0  0  0  0  0  0  0  0
  -24.5351  -11.9308   20.8785 N   0  0  0  0  0  0  0  0  0  0  0  0
  -26.6313  -22.7347   18.7705 N   0  0  0  0  0  0  0  0  0  0  0  0
  -21.4058  -10.0891   19.6850 N   0  0  0  0  0  0  0  0  0  0  0  0
  -23.4280  -13.8452   21.7272 N   0  0  0  0  0  0  0  0  0  0  0  0
  -27.6490  -15.2993   21.0452 N   0  0  0  0  0  0  0  0  0  0  0  0
  -20.1858  -18.0899   19.1259 N   0  0  0  0  0  0  0  0  0  0  0  0
  -25.8549  -26.1045   19.9273 N   0  0  0  0  0  0  0  0  0  0  0  0
  -28.7498  -20.4650   17.4220 N   0  0  0  0  0  0  0  0  0  0  0  0
  -19.7505  -11.7498   19.3755 N   0  0  0  0  0  0  0  0  0  0  0  0
  -28.8573  -17.6175   19.3095 N   0  3  0  0  0  0  0  0  0  0  0  0
  -25.5666  -15.9091   21.7871 O   0  0  0  0  0  0  0  0  0  0  0  0
  -25.7667  -24.9748   17.8930 O   0  0  0  0  0  0  0  0  0  0  0  0
  -28.9339  -23.0650   18.6114 O   0  0  0  0  0  0  0  0  0  0  0  0
  -27.0251  -18.9188   17.3128 O   0  0  0  0  0  0  0  0  0  0  0  0
  -19.1507   -9.5514   19.6290 O   0  0  0  0  0  0  0  0  0  0  0  0
  -31.8887  -12.2856   19.0509 O   0  0  0  0  0  0  0  0  0  0  0  0
  -20.7659  -20.8633   19.1550 O   0  0  0  0  0  0  0  0  0  1  0  0
  -33.9254  -16.4094   16.0094 F   0  0  0  0  0  0  0  0  0  0  0  0
  -31.8819  -14.8832   19.9969 F   0  0  0  0  0  0  0  0  0  0  0  0
  1  2  1  0  0  0  0
  1  5  2  0  0  0  0
  2  6  2  0  0  0  0
  3  8  2  0  0  0  0
  3 16  1  0  0  0  0
  4  9  1  0  0  0  0
  4 16  2  0  0  0  0
  5 18  1  0  0  0  0
  6 20  1  0  0  0  0
  7 10  2  0  0  0  0
  7 19  1  0  0  0  0
  8 24  1  0  0  0  0
  9 24  2  0  0  0  0
 10 25  1  0  0  0  0
 11 12  2  0  0  0  0
 11 26  1  0  0  0  0
 12 27  1  0  0  0  0
 13 21  1  0  0  0  0
 13 25  2  0  0  0  0
 14 22  2  0  0  0  0
 14 31  1  0  0  0  0
 15 27  2  0  0  0  0
 15 28  1  0  0  0  0
 16 29  1  0  0  0  0
 17 29  1  0  0  0  0
 17 32  2  0  0  0  0
 17 33  1  0  0  0  0
 18 20  2  0  0  0  0
 18 38  1  0  0  0  0
 19 21  2  0  0  0  0
 19 39  1  0  0  0  0
 20 47  1  0  0  0  0
 21 40  1  0  0  0  0
 22 23  1  0  0  0  0
 22 50  1  0  0  0  0
 23 30  2  0  0  0  0
 23 62  1  0  0  0  0
 24 83  1  0  0  0  0
 25 84  1  0  0  0  0
 26 28  2  0  0  0  0
 26 83  1  0  0  0  0
 27 85  1  0  0  0  0
 28 86  1  0  0  0  0
 29 66  2  0  0  0  0
 30 51  1  0  0  0  0
 30 67  1  0  0  0  0
 31 67  2  0  0  0  0
 31 73  1  0  0  0  0
 32 68  1  0  0  0  0
 32 71  1  0  0  0  0
 33 72  1  0  0  0  0
 33 78  2  0  0  0  0
 34 48  1  0  0  0  0
 34 74  1  0  0  0  0
 34 79  2  0  0  0  0
 35 63  1  0  0  0  0
 35 69  1  0  0  0  0
 35 80  2  0  0  0  0
 36 64  1  0  0  0  0
 36 75  1  0  0  0  0
 36 81  2  0  0  0  0
 37 70  1  0  0  0  0
 37 76  1  0  0  0  0
 37 82  2  0  0  0  0
 38 41  1  0  0  0  0
 39 48  1  0  0  0  0
 40 69  1  0  0  0  0
 41 43  1  0  0  0  0
 42 44  1  0  0  0  0
 42 45  1  0  0  0  0
 43 47  1  0  0  0  0
 44 49  1  0  0  0  0
 45 70  1  0  0  0  0
 46 49  1  0  0  0  0
 46 70  1  0  0  0  0
 47 74  1  0  0  0  0
 48 69  1  0  0  0  0
 49 68  1  0  0  0  0
 52 62  1  0  0  0  0
 53 64  1  0  0  0  0
 54 65  1  0  0  0  0
 55 65  1  0  0  0  0
 56 65  1  0  0  0  0
 57 77  1  0  0  0  0
 58 59  1  0  0  0  0
 58 62  1  0  0  0  0
 59 76  1  0  0  0  0
 60 61  1  0  0  0  0
 60 73  1  0  0  0  0
 61 84  1  0  0  0  0
 63 65  1  0  0  0  0
 63 75  1  0  0  0  0
 64 77  1  0  0  0  0
 66 68  1  0  0  0  0
M  CHG  1  77   1
M  ISO  4  37 100  61 101  76 100  84 101
M  END
> <Batch ID>
0147

> <Smiles>
CNC(C)C(=O)NC(C(=O)N1Cc2cc([101O:1][101CH2:1]CNc3cc(C)c(C(C)CC[100NH:0][100C:0](=O)N4CCCC(n5nc(-c6ccc(Oc7ccc(F)cc7F)cc6)c(C(N)=O)c5N)C4)c(C)n3)ccc2CC1C(=O)NC1CCCc2ccccc21)C(C)(C)C

> <Shape>
0.198

> <Color>
0.097

> <Negative vol penalty>
0.000

$$$$

  -OEChem-04052321333D

 88 98  0     1  0  0  0  0  0999 V2000
  -26.4599  -38.1107   24.2047 C   0  0  0  0  0  0  0  0  0  0  0  0
  -27.1680  -37.3238   23.3020 C   0  0  0  0  0  0  0  0  0  0  0  0
  -22.3701   -6.7399   20.7052 C   0  0  0  0  0  0  0  0  0  0  0  0
  -22.8767   -7.6830   18.5393 C   0  0  0  0  0  0  0  0  0  0  0  0
  -25.7049  -37.5082   25.2102 C   0  0  0  0  0  0  0  0  0  0  0  0
  -27.1223  -35.9339   23.4049 C   0  0  0  0  0  0  0  0  0  0  0  0
  -27.2810  -30.0278   19.3541 C   0  0  0  0  0  0  0  0  0  0  0  0
  -31.2414  -24.9196   19.2814 C   0  0  0  0  0  0  0  0  0  0  0  0
  -31.7839  -23.6346   19.2768 C   0  0  0  0  0  0  0  0  0  0  0  0
  -22.3102   -5.4674   20.1372 C   0  0  0  0  0  0  0  0  0  0  0  0
  -22.8169   -6.4104   17.9713 C   0  0  0  0  0  0  0  0  0  0  0  0
  -27.9591  -28.8145   19.2449 C   0  0  0  0  0  0  0  0  0  0  0  0
  -20.1078   -3.6473   18.3314 C   0  0  0  0  0  0  0  0  0  0  0  0
  -19.0429   -2.8243   18.6977 C   0  0  0  0  0  0  0  0  0  0  0  0
  -29.0832  -24.0107   18.6870 C   0  0  0  0  0  0  0  0  0  0  0  0
  -26.5579  -27.8828   20.9734 C   0  0  0  0  0  0  0  0  0  0  0  0
  -20.6012   -1.1916   19.5598 C   0  0  0  0  0  0  0  0  0  0  0  0
  -22.6532   -7.8478   19.9063 C   0  0  0  0  0  0  0  0  0  0  0  0
  -21.6838   -9.8397   21.1713 C   0  0  0  0  0  0  0  0  0  0  0  0
  -25.6422  -36.1101   25.3195 C   0  0  0  0  0  0  0  0  0  0  0  0
  -26.2417  -30.1813   20.2830 C   0  0  0  0  0  0  0  0  0  0  0  0
  -26.3668  -35.3122   24.4136 C   0  0  0  0  0  0  0  0  0  0  0  0
  -29.6258  -22.7256   18.6823 C   0  0  0  0  0  0  0  0  0  0  0  0
  -25.8665  -29.0982   21.0906 C   0  0  0  0  0  0  0  0  0  0  0  0
  -29.8910  -25.1076   18.9865 C   0  0  0  0  0  0  0  0  0  0  0  0
  -30.9761  -22.5376   18.9772 C   0  0  0  0  0  0  0  0  0  0  0  0
  -22.5337   -5.3026   18.7702 C   0  0  0  0  0  0  0  0  0  0  0  0
  -27.5995  -27.7427   20.0567 C   0  0  0  0  0  0  0  0  0  0  0  0
  -21.4195   -3.2425   18.5792 C   0  0  0  0  0  0  0  0  0  0  0  0
  -19.2896   -1.5965   19.3119 C   0  0  0  0  0  0  0  0  0  0  0  0
  -21.6661   -2.0147   19.1934 C   0  0  0  0  0  0  0  0  0  0  0  0
  -22.7146   -9.1626   20.4924 C   0  0  0  0  0  0  0  0  0  0  0  0
  -22.2412  -11.0427   21.5298 C   0  0  0  0  0  0  0  0  0  0  0  0
  -20.3425   -9.4188   21.4527 C   0  0  0  0  0  0  0  0  0  0  0  0
  -25.7543  -32.0365   22.8176 C   0  0  0  0  0  0  0  0  0  0  0  0
  -22.8088  -30.6791   22.7578 C   0  0  0  0  0  0  0  0  0  0  0  0
  -20.8502  -28.0470   21.8182 C   0  0  0  0  0  0  0  0  0  0  0  0
  -25.2254  -15.4704   19.8617 C   0  0  0  0  0  0  0  0  0  0  0  0
  -24.8506  -35.5053   26.4519 C   0  0  0  0  0  0  0  0  0  0  0  0
  -25.5024  -31.4883   20.3697 C   0  0  0  0  0  0  0  0  0  0  0  0
  -24.7443  -29.2052   22.0895 C   0  0  0  0  0  0  0  0  0  0  0  0
  -24.5540  -34.0199   26.2625 C   0  0  0  0  0  0  0  0  0  0  0  0
  -27.0403  -12.6255   21.4004 C   0  0  0  0  0  0  0  0  0  0  0  0
  -25.8117  -33.2760   25.8247 C   0  0  0  0  0  0  0  0  0  0  0  0
  -25.9902  -11.5171   21.3129 C   0  0  0  0  0  0  0  0  0  0  0  0
  -28.1042  -17.7053   20.3406 C   0  0  0  0  0  0  0  0  0  0  0  0
  -27.2530  -21.8501   18.0926 C   0  0  0  0  0  0  0  0  0  0  0  0
  -26.8933  -13.6078   20.2457 C   0  0  0  0  0  0  0  0  0  0  0  0
  -27.6369  -16.2569   20.2362 C   0  0  0  0  0  0  0  0  0  0  0  0
  -24.4848  -13.1228   20.0434 C   0  0  0  0  0  0  0  0  0  0  0  0
  -26.0581  -17.6840   19.1181 C   0  0  0  0  0  0  0  0  0  0  0  0
  -26.6196  -20.4756   18.1286 C   0  0  0  0  0  0  0  0  0  0  0  0
  -28.6605  -20.5009   19.4700 C   0  0  0  0  0  0  0  0  0  0  0  0
  -28.7299  -21.5507   18.3539 C   0  0  2  0  0  0  0  0  0  0  0  0
  -26.3223  -33.8009   24.4774 C   0  0  1  0  0  0  0  0  0  0  0  0
  -24.8008  -31.6901   21.7093 C   0  0  1  0  0  0  0  0  0  0  0  0
  -24.5714  -12.1025   21.1924 C   0  0  1  0  0  0  0  0  0  0  0  0
  -27.4283  -18.3365   19.1326 C   0  0  1  0  0  0  0  0  0  0  0  0
  -31.5796  -21.1714   18.9773 C   0  0  0  0  0  0  0  0  0  0  0  0
  -18.4896  -27.2048   21.9432 C   0  0  0  0  0  0  0  0  0  0  0  0
  -23.2383  -29.9161   25.6807 C   0  0  0  0  0  0  0  0  0  0  0  0
  -21.3355  -28.3031   25.4668 C   0  0  0  0  0  0  0  0  0  0  0  0
  -20.9402  -30.7451   25.1458 C   0  0  0  0  0  0  0  0  0  0  0  0
  -20.5772  -28.0302   18.8713 C   0  0  0  0  0  0  0  0  0  0  0  0
  -29.3114  -26.4817   18.9911 C   0  0  0  0  0  0  0  0  0  1  0  0
  -22.1867  -29.4473   23.3698 C   0  0  1  0  0  0  0  0  0  0  0  0
  -19.5008  -27.9926   21.1249 C   0  0  2  0  0  0  0  0  0  0  0  0
  -21.9477  -29.6012   24.8984 C   0  0  0  0  0  0  0  0  0  0  0  0
  -23.8414   -9.8763   20.4223 N   0  0  0  0  0  0  0  0  0  0  0  0
  -23.5220  -11.0143   21.0617 N   0  0  0  0  0  0  0  0  0  0  0  0
  -24.0560  -30.5056   22.1413 N   0  0  0  0  0  0  0  0  0  0  0  0
  -25.5299  -14.1405   20.1734 N   0  0  0  0  0  0  0  0  0  0  0  0
  -26.2912  -16.3461   19.6597 N   0  0  0  0  0  0  0  0  0  0  0  0
  -21.7558  -12.1115   22.1964 N   0  0  0  0  0  0  0  0  0  0  0  0
  -19.9333   -8.1526   21.0126 N   0  0  0  0  0  0  0  0  0  0  0  0
  -25.5235  -33.2714   23.3930 N   0  0  0  0  0  0  0  0  0  0  0  0
  -20.9774  -29.1755   22.6003 N   0  0  0  0  0  0  0  0  0  0  0  0
  -27.3285  -19.7981   19.2767 N   0  3  2  0  0  0  0  0  0  0  0  0
  -19.6306  -27.3453   19.7888 N   0  3  0  0  0  0  0  0  0  0  0  0
  -19.5257  -10.1506   22.0618 O   0  0  0  0  0  0  0  0  0  0  0  0
  -26.6335  -31.2415   23.1287 O   0  0  0  0  0  0  0  0  0  0  0  0
  -22.2069  -31.7541   22.8181 O   0  0  0  0  0  0  0  0  0  0  0  0
  -21.7044  -27.1738   21.6827 O   0  0  0  0  0  0  0  0  0  0  0  0
  -24.0542  -15.8693   19.8139 O   0  0  0  0  0  0  0  0  0  0  0  0
  -22.4756   -4.0610   18.2156 O   0  0  0  0  0  0  0  0  0  0  0  0
  -28.2647  -26.5494   19.9519 O   0  0  0  0  0  0  0  0  0  1  0  0
  -18.2668   -0.8070   19.6650 F   0  0  0  0  0  0  0  0  0  0  0  0
  -22.9240   -1.6209   19.4351 F   0  0  0  0  0  0  0  0  0  0  0  0
  1  2  1  0  0  0  0
  1  5  2  0  0  0  0
  2  6  2  0  0  0  0
  3 10  2  0  0  0  0
  3 18  1  0  0  0  0
  4 11  1  0  0  0  0
  4 18  2  0  0  0  0
  5 20  1  0  0  0  0
  6 22  1  0  0  0  0
  7 12  2  0  0  0  0
  7 21  1  0  0  0  0
  8  9  2  0  0  0  0
  8 25  1  0  0  0  0
  9 26  1  0  0  0  0
 10 27  1  0  0  0  0
 11 27  2  0  0  0  0
 12 28  1  0  0  0  0
 13 14  2  0  0  0  0
 13 29  1  0  0  0  0
 14 30  1  0  0  0  0
 15 23  1  0  0  0  0
 15 25  2  0  0  0  0
 16 24  1  0  0  0  0
 16 28  2  0  0  0  0
 17 30  2  0  0  0  0
 17 31  1  0  0  0  0
 18 32  1  0  0  0  0
 19 32  1  0  0  0  0
 19 33  2  0  0  0  0
 19 34  1  0  0  0  0
 20 22  2  0  0  0  0
 20 39  1  0  0  0  0
 21 24  2  0  0  0  0
 21 40  1  0  0  0  0
 22 55  1  0  0  0  0
 23 26  2  0  0  0  0
 23 54  1  0  0  0  0
 24 41  1  0  0  0  0
 25 65  1  0  0  0  0
 26 59  1  0  0  0  0
 27 85  1  0  0  0  0
 28 86  1  0  0  0  0
 29 31  2  0  0  0  0
 29 85  1  0  0  0  0
 30 87  1  0  0  0  0
 31 88  1  0  0  0  0
 32 69  2  0  0  0  0
 33 70  1  0  0  0  0
 33 74  1  0  0  0  0
 34 75  1  0  0  0  0
 34 80  2  0  0  0  0
 35 56  1  0  0  0  0
 35 76  1  0  0  0  0
 35 81  2  0  0  0  0
 36 66  1  0  0  0  0
 36 71  1  0  0  0  0
 36 82  2  0  0  0  0
 37 67  1  0  0  0  0
 37 77  1  0  0  0  0
 37 83  2  0  0  0  0
 38 72  1  0  0  0  0
 38 73  1  0  0  0  0
 38 84  2  0  0  0  0
 39 42  1  0  0  0  0
 40 56  1  0  0  0  0
 41 71  1  0  0  0  0
 42 44  1  0  0  0  0
 43 45  1  0  0  0  0
 43 48  1  0  0  0  0
 44 55  1  0  0  0  0
 45 57  1  0  0  0  0
 46 49  1  0  0  0  0
 46 58  1  0  0  0  0
 47 52  1  0  0  0  0
 47 54  1  0  0  0  0
 48 72  1  0  0  0  0
 49 73  1  0  0  0  0
 50 57  1  0  0  0  0
 50 72  1  0  0  0  0
 51 58  1  0  0  0  0
 51 73  1  0  0  0  0
 52 78  1  0  0  0  0
 53 54  1  0  0  0  0
 53 78  1  0  0  0  0
 55 76  1  0  0  0  0
 56 71  1  0  0  0  0
 57 70  1  0  0  0  0
 58 78  1  0  0  0  0
 60 67  1  0  0  0  0
 61 68  1  0  0  0  0
 62 68  1  0  0  0  0
 63 68  1  0  0  0  0
 64 79  1  0  0  0  0
 65 86  1  0  0  0  0
 66 68  1  0  0  0  0
 66 77  1  0  0  0  0
 67 79  1  0  0  0  0
 69 70  1  0  0  0  0
M  CHG  2  78   1  79   1
M  ISO  4  38 100  65 101  73 100  86 101
M  END
> <Batch ID>
0147

> <Smiles>
CNC(C)C(=O)NC(C(=O)N1Cc2cc([101O:1][101CH2:1]c3ccc(C)c(C4CCN(C5CC[100N:0]([100C:0](=O)N6CCCC(n7nc(-c8ccc(Oc9ccc(F)cc9F)cc8)c(C(N)=O)c7N)C6)C5)C4)c3)ccc2CC1C(=O)NC1CCCc2ccccc21)C(C)(C)C

> <Shape>
0.309

> <Color>
0.092

> <Negative vol penalty>
0.000

$$$$

  -OEChem-04052321333D

 85 94  0     1  0  0  0  0  0999 V2000
  -20.9995  -11.0896   16.2023 C   0  0  0  0  0  0  0  0  0  0  0  0
  -21.3843  -12.4264   16.2245 C   0  0  0  0  0  0  0  0  0  0  0  0
  -26.4910  -29.8983   19.8241 C   0  0  0  0  0  0  0  0  0  0  0  0
  -25.8792  -28.8105   21.8927 C   0  0  0  0  0  0  0  0  0  0  0  0
  -21.3598  -10.2442   17.2508 C   0  0  0  0  0  0  0  0  0  0  0  0
  -22.1287  -12.9187   17.2959 C   0  0  0  0  0  0  0  0  0  0  0  0
  -25.9862  -15.8397   15.8018 C   0  0  0  0  0  0  0  0  0  0  0  0
  -25.3176  -30.6509   19.8728 C   0  0  0  0  0  0  0  0  0  0  0  0
  -24.7059  -29.5631   21.9415 C   0  0  0  0  0  0  0  0  0  0  0  0
  -25.6848  -17.1464   15.4201 C   0  0  0  0  0  0  0  0  0  0  0  0
  -21.3763  -30.9381   22.4247 C   0  0  0  0  0  0  0  0  0  0  0  0
  -20.1929  -30.2738   22.7469 C   0  0  0  0  0  0  0  0  0  0  0  0
  -26.4064  -17.9378   17.5817 C   0  0  0  0  0  0  0  0  0  0  0  0
  -23.9906  -22.0231   21.5863 C   0  0  0  0  0  0  0  0  0  0  0  0
  -20.4669  -28.8487   20.8153 C   0  0  0  0  0  0  0  0  0  0  0  0
  -25.5650  -20.7857   23.4761 C   0  0  0  0  0  0  0  0  0  0  0  0
  -26.7718  -28.9780   20.8340 C   0  0  0  0  0  0  0  0  0  0  0  0
  -29.2348  -28.5389   21.3325 C   0  0  0  0  0  0  0  0  0  0  0  0
  -22.1173  -10.7241   18.3308 C   0  0  0  0  0  0  0  0  0  0  0  0
  -26.4906  -15.5706   17.0823 C   0  0  0  0  0  0  0  0  0  0  0  0
  -22.4983  -12.0792   18.3605 C   0  0  0  0  0  0  0  0  0  0  0  0
  -26.7158  -16.6272   17.9762 C   0  0  0  0  0  0  0  0  0  0  0  0
  -25.8739  -20.6240   22.1330 C   0  0  0  0  0  0  0  0  0  0  0  0
  -25.0754  -21.2512   21.1814 C   0  0  0  0  0  0  0  0  0  0  0  0
  -24.4251  -30.4834   20.9315 C   0  0  0  0  0  0  0  0  0  0  0  0
  -25.8922  -18.1953   16.3111 C   0  0  0  0  0  0  0  0  0  0  0  0
  -22.1050  -30.5578   21.2977 C   0  0  0  0  0  0  0  0  0  0  0  0
  -19.7382  -29.2291   21.9422 C   0  0  0  0  0  0  0  0  0  0  0  0
  -21.6503  -29.5131   20.4930 C   0  0  0  0  0  0  0  0  0  0  0  0
  -27.9834  -28.1999   20.7839 C   0  0  0  0  0  0  0  0  0  0  0  0
  -30.0474  -27.4779   21.0158 C   0  0  0  0  0  0  0  0  0  0  0  0
  -23.7292  -22.1493   22.9432 C   0  0  0  0  0  0  0  0  0  0  0  0
  -29.6275  -29.7084   22.0631 C   0  0  0  0  0  0  0  0  0  0  0  0
  -25.4850  -13.8809   19.5798 C   0  0  0  0  0  0  0  0  0  0  0  0
  -28.4039  -14.6397   20.7742 C   0  0  0  0  0  0  0  0  0  0  0  0
  -31.0794  -16.7582   20.7583 C   0  0  0  0  0  0  0  0  0  0  0  0
  -28.9481  -21.7147   19.8208 C   0  0  0  0  0  0  0  0  0  0  0  0
  -22.4426   -9.7836   19.4641 C   0  0  0  0  0  0  0  0  0  0  0  0
  -26.8357  -14.1587   17.4693 C   0  0  0  0  0  0  0  0  0  0  0  0
  -27.2744  -16.3937   19.3553 C   0  0  0  0  0  0  0  0  0  0  0  0
  -23.5518  -10.2943   20.3802 C   0  0  0  0  0  0  0  0  0  0  0  0
  -30.6229  -24.0542   17.7237 C   0  0  0  0  0  0  0  0  0  0  0  0
  -23.3134  -11.7566   20.7432 C   0  0  0  0  0  0  0  0  0  0  0  0
  -30.2492  -25.4126   18.3197 C   0  0  0  0  0  0  0  0  0  0  0  0
  -24.2336  -21.5303   16.2213 C   0  0  0  0  0  0  0  0  0  0  0  0
  -29.4642  -23.0630   17.8079 C   0  0  0  0  0  0  0  0  0  0  0  0
  -28.5220  -24.2465   19.7535 C   0  0  0  0  0  0  0  0  0  0  0  0
  -23.3274  -12.6447   19.4932 C   0  0  1  0  0  0  0  0  0  0  0  0
  -26.8609  -13.9422   18.9792 C   0  0  1  0  0  0  0  0  0  0  0  0
  -25.1059  -21.3958   17.4387 C   0  0  2  0  0  0  0  0  0  0  0  0
  -29.6770  -25.2625   19.7421 C   0  0  2  0  0  0  0  0  0  0  0  0
  -24.6232  -20.1649   16.7191 C   0  0  2  0  0  0  0  0  0  1  0  0
  -33.2956  -17.1410   21.8715 C   0  0  0  0  0  0  0  0  0  0  0  0
  -26.9740  -15.7186   23.2444 C   0  0  0  0  0  0  0  0  0  0  0  0
  -29.0863  -16.9136   23.8594 C   0  0  0  0  0  0  0  0  0  0  0  0
  -29.0576  -14.4227   23.7279 C   0  0  0  0  0  0  0  0  0  0  0  0
  -32.5439  -16.4696   18.2027 C   0  0  0  0  0  0  0  0  0  0  0  0
  -27.0468  -19.7879   21.7465 C   0  0  0  0  0  0  0  0  0  0  0  0
  -24.5689  -21.7336   18.7864 C   0  0  0  0  0  0  0  0  0  0  0  0
  -28.3929  -20.5029   21.9143 C   0  0  0  0  0  0  0  0  0  0  0  0
  -28.9600  -15.7777   21.5956 C   0  0  1  0  0  0  0  0  0  0  0  0
  -32.5731  -16.4939   20.7001 C   0  0  2  0  0  0  0  0  0  0  0  0
  -28.5071  -15.7127   23.0816 C   0  0  0  0  0  0  0  0  0  0  0  0
  -27.9952  -27.0161   20.1655 N   0  0  0  0  0  0  0  0  0  0  0  0
  -29.2640  -26.6020   20.3235 N   0  0  0  0  0  0  0  0  0  0  0  0
  -24.5144  -21.5345   23.8383 N   0  3  0  0  0  0  0  0  0  0  0  0
  -27.5902  -14.9950   19.6891 N   0  0  0  0  0  0  0  0  0  0  0  0
  -28.9687  -22.9660   19.1830 N   0  0  0  0  0  0  0  0  0  0  0  0
  -31.3485  -27.2180   21.2648 N   0  0  0  0  0  0  0  0  0  0  0  0
  -22.6510  -22.9130   23.4107 N   0  0  0  0  0  0  0  0  0  0  0  0
  -28.6675  -30.7015   22.3006 N   0  0  0  0  0  0  0  0  0  0  0  0
  -25.3472  -21.1170   19.8256 N   0  0  0  0  0  0  0  0  0  0  0  0
  -24.6868  -12.8816   19.0567 N   0  0  0  0  0  0  0  0  0  0  0  0
  -30.4067  -15.7463   21.4099 N   0  0  0  0  0  0  0  0  0  0  0  0
  -28.4695  -21.7122   21.1253 N   0  0  0  0  0  0  0  0  0  0  0  0
  -33.1465  -17.0371   19.4363 N   0  3  0  0  0  0  0  0  0  0  0  0
  -30.7993  -29.8754   22.4784 O   0  0  0  0  0  0  0  0  0  0  0  0
  -25.1713  -14.6801   20.4541 O   0  0  0  0  0  0  0  0  0  0  0  0
  -28.6869  -13.4786   21.0798 O   0  0  0  0  0  0  0  0  0  0  0  0
  -30.5616  -17.7637   20.2772 O   0  0  0  0  0  0  0  0  0  0  0  0
  -29.3330  -20.6774   19.2705 O   0  0  0  0  0  0  0  0  0  0  0  0
  -23.2801  -31.2178   20.9796 O   0  0  0  0  0  0  0  0  0  0  0  0
  -25.5983  -19.4715   15.9413 O   0  0  0  0  0  0  0  0  0  1  0  0
  -18.6026  -28.5903   22.2527 F   0  0  0  0  0  0  0  0  0  0  0  0
  -22.3467  -29.1424   19.4098 F   0  0  0  0  0  0  0  0  0  0  0  0
  1  2  1  0  0  0  0
  1  5  2  0  0  0  0
  2  6  2  0  0  0  0
  3  8  2  0  0  0  0
  3 17  1  0  0  0  0
  4  9  1  0  0  0  0
  4 17  2  0  0  0  0
  5 19  1  0  0  0  0
  6 21  1  0  0  0  0
  7 10  2  0  0  0  0
  7 20  1  0  0  0  0
  8 25  1  0  0  0  0
  9 25  2  0  0  0  0
 10 26  1  0  0  0  0
 11 12  2  0  0  0  0
 11 27  1  0  0  0  0
 12 28  1  0  0  0  0
 13 22  1  0  0  0  0
 13 26  2  0  0  0  0
 14 24  1  0  0  0  0
 14 32  2  0  0  0  0
 15 28  2  0  0  0  0
 15 29  1  0  0  0  0
 16 23  1  0  0  0  0
 16 66  2  0  0  0  0
 17 30  1  0  0  0  0
 18 30  1  0  0  0  0
 18 31  2  0  0  0  0
 18 33  1  0  0  0  0
 19 21  2  0  0  0  0
 19 38  1  0  0  0  0
 20 22  2  0  0  0  0
 20 39  1  0  0  0  0
 21 48  1  0  0  0  0
 22 40  1  0  0  0  0
 23 24  2  0  0  0  0
 23 58  1  0  0  0  0
 24 72  1  0  0  0  0
 25 82  1  0  0  0  0
 26 83  1  0  0  0  0
 27 29  2  0  0  0  0
 27 82  1  0  0  0  0
 28 84  1  0  0  0  0
 29 85  1  0  0  0  0
 30 64  2  0  0  0  0
 31 65  1  0  0  0  0
 31 69  1  0  0  0  0
 32 66  1  0  0  0  0
 32 70  1  0  0  0  0
 33 71  1  0  0  0  0
 33 77  2  0  0  0  0
 34 49  1  0  0  0  0
 34 73  1  0  0  0  0
 34 78  2  0  0  0  0
 35 61  1  0  0  0  0
 35 67  1  0  0  0  0
 35 79  2  0  0  0  0
 36 62  1  0  0  0  0
 36 74  1  0  0  0  0
 36 80  2  0  0  0  0
 37 68  1  0  0  0  0
 37 75  1  0  0  0  0
 37 81  2  0  0  0  0
 38 41  1  0  0  0  0
 39 49  1  0  0  0  0
 40 67  1  0  0  0  0
 41 43  1  0  0  0  0
 42 44  1  0  0  0  0
 42 46  1  0  0  0  0
 43 48  1  0  0  0  0
 44 51  1  0  0  0  0
 45 50  1  0  0  0  0
 45 52  1  0  0  0  0
 46 68  1  0  0  0  0
 47 51  1  0  0  0  0
 47 68  1  0  0  0  0
 48 73  1  0  0  0  0
 49 67  1  0  0  0  0
 50 52  1  0  0  0  0
 50 59  1  0  0  0  0
 51 65  1  0  0  0  0
 52 83  1  0  0  0  0
 53 62  1  0  0  0  0
 54 63  1  0  0  0  0
 55 63  1  0  0  0  0
 56 63  1  0  0  0  0
 57 76  1  0  0  0  0
 58 60  1  0  0  0  0
 59 72  1  0  0  0  0
 60 75  1  0  0  0  0
 61 63  1  0  0  0  0
 61 74  1  0  0  0  0
 62 76  1  0  0  0  0
 64 65  1  0  0  0  0
M  CHG  2  66   1  76   1
M  ISO  4  37 100  52 101  75 100  83 101
M  END
> <Batch ID>
0147

> <Smiles>
CNC(C)C(=O)NC(C(=O)N1Cc2cc([101O:1][101CH:1]3CC3CNc3cc(N)ncc3CC[100NH:0][100C:0](=O)N3CCCC(n4nc(-c5ccc(Oc6ccc(F)cc6F)cc5)c(C(N)=O)c4N)C3)ccc2CC1C(=O)NC1CCCc2ccccc21)C(C)(C)C

> <Shape>
0.232

> <Color>
0.062

> <Negative vol penalty>
0.000

$$$$

  -OEChem-04052321333D

 85 93  0     1  0  0  0  0  0999 V2000
  -31.7269  -14.5893   22.9291 C   0  0  0  0  0  0  0  0  0  0  0  0
  -30.6368  -15.3591   23.3220 C   0  0  0  0  0  0  0  0  0  0  0  0
  -28.5961  -26.0803   19.9477 C   0  0  0  0  0  0  0  0  0  0  0  0
  -26.6023  -25.2413   18.8718 C   0  0  0  0  0  0  0  0  0  0  0  0
  -31.6703  -13.8560   21.7446 C   0  0  0  0  0  0  0  0  0  0  0  0
  -29.4896  -15.3968   22.5302 C   0  0  0  0  0  0  0  0  0  0  0  0
  -23.6953  -15.8417   24.4625 C   0  0  0  0  0  0  0  0  0  0  0  0
  -19.4749  -23.6524   24.3866 C   0  0  0  0  0  0  0  0  0  0  0  0
  -18.9354  -24.8106   23.8271 C   0  0  0  0  0  0  0  0  0  0  0  0
  -29.2554  -24.8859   19.6574 C   0  0  0  0  0  0  0  0  0  0  0  0
  -27.2616  -24.0469   18.5814 C   0  0  0  0  0  0  0  0  0  0  0  0
  -22.8225  -16.9236   24.5687 C   0  0  0  0  0  0  0  0  0  0  0  0
  -28.1153  -21.2120   20.2140 C   0  0  0  0  0  0  0  0  0  0  0  0
  -27.4315  -20.0199   20.4524 C   0  0  0  0  0  0  0  0  0  0  0  0
  -21.8725  -16.3602   22.4241 C   0  0  0  0  0  0  0  0  0  0  0  0
  -21.3816  -23.8287   22.9134 C   0  0  0  0  0  0  0  0  0  0  0  0
  -27.6209  -19.4436   18.1138 C   0  0  0  0  0  0  0  0  0  0  0  0
  -27.2695  -26.2580   19.5549 C   0  0  0  0  0  0  0  0  0  0  0  0
  -26.5323  -28.6485   19.0550 C   0  0  0  0  0  0  0  0  0  0  0  0
  -30.5182  -13.8771   20.9427 C   0  0  0  0  0  0  0  0  0  0  0  0
  -23.6707  -15.0160   23.3294 C   0  0  0  0  0  0  0  0  0  0  0  0
  -29.4180  -14.6641   21.3332 C   0  0  0  0  0  0  0  0  0  0  0  0
  -22.7444  -15.2669   22.3071 C   0  0  0  0  0  0  0  0  0  0  0  0
  -20.6980  -23.1615   23.9298 C   0  0  0  0  0  0  0  0  0  0  0  0
  -19.6190  -25.4779   22.8107 C   0  0  0  0  0  0  0  0  0  0  0  0
  -28.5881  -23.8692   18.9743 C   0  0  0  0  0  0  0  0  0  0  0  0
  -21.9128  -17.1847   23.5482 C   0  0  0  0  0  0  0  0  0  0  0  0
  -28.5518  -21.5200   18.9255 C   0  0  0  0  0  0  0  0  0  0  0  0
  -20.8421  -24.9870   22.3538 C   0  0  0  0  0  0  0  0  0  0  0  0
  -27.1843  -19.1357   19.4023 C   0  0  0  0  0  0  0  0  0  0  0  0
  -28.3047  -20.6358   17.8754 C   0  0  0  0  0  0  0  0  0  0  0  0
  -26.5878  -27.4914   19.8550 C   0  0  0  0  0  0  0  0  0  0  0  0
  -25.7690  -29.5308   19.7798 C   0  0  0  0  0  0  0  0  0  0  0  0
  -27.1184  -28.9030   17.7715 C   0  0  0  0  0  0  0  0  0  0  0  0
  -25.7544  -14.2798   21.0446 C   0  0  0  0  0  0  0  0  0  0  0  0
  -23.4438  -12.1852   20.1524 C   0  0  0  0  0  0  0  0  0  0  0  0
  -20.1386  -11.3354   20.1737 C   0  0  0  0  0  0  0  0  0  0  0  0
  -21.5697  -28.7916   23.9836 C   0  0  0  0  0  0  0  0  0  0  0  0
  -30.5215  -13.1053   19.6470 C   0  0  0  0  0  0  0  0  0  0  0  0
  -24.6007  -13.8370   23.2421 C   0  0  0  0  0  0  0  0  0  0  0  0
  -22.6639  -14.3984   21.0792 C   0  0  0  0  0  0  0  0  0  0  0  0
  -29.1290  -12.9033   19.0549 C   0  0  0  0  0  0  0  0  0  0  0  0
  -24.5948  -30.6454   24.2820 C   0  0  0  0  0  0  0  0  0  0  0  0
  -28.3444  -14.2112   19.0776 C   0  0  0  0  0  0  0  0  0  0  0  0
  -25.4436  -30.1517   23.1091 C   0  0  0  0  0  0  0  0  0  0  0  0
  -23.7585  -29.5198   24.8867 C   0  0  0  0  0  0  0  0  0  0  0  0
  -23.7662  -28.2928   22.7493 C   0  0  0  0  0  0  0  0  0  0  0  0
  -28.1467  -14.7111   20.5137 C   0  0  1  0  0  0  0  0  0  0  0  0
  -24.8379  -13.3678   21.8100 C   0  0  1  0  0  0  0  0  0  0  0  0
  -24.5850  -29.4045   22.0710 C   0  0  2  0  0  0  0  0  0  0  0  0
  -18.5485   -9.5878   19.3283 C   0  0  0  0  0  0  0  0  0  0  0  0
  -18.8260  -29.2399   22.2996 C   0  0  0  0  0  0  0  0  0  0  0  0
  -23.5895  -13.4069   17.3602 C   0  0  0  0  0  0  0  0  0  0  0  0
  -21.3922  -12.3223   16.8468 C   0  0  0  0  0  0  0  0  0  0  0  0
  -23.3767  -10.9154   17.3990 C   0  0  0  0  0  0  0  0  0  0  0  0
  -19.3409  -10.5674   22.9183 C   0  0  0  0  0  0  0  0  0  0  0  0
  -22.7657  -25.0561   20.9571 C   0  0  0  0  0  0  0  0  0  0  0  0
  -21.2811  -21.9098   24.5356 C   0  0  0  0  0  0  0  0  0  0  0  0
  -19.0257  -26.7152   22.2225 C   0  0  0  0  0  0  0  0  0  0  0  0
  -20.8516  -20.6241   23.8255 C   0  0  0  0  0  0  0  0  0  0  0  0
  -21.5130  -19.3725   24.3907 C   0  0  0  0  0  0  0  0  0  1  0  0
  -22.2480  -12.2405   19.2326 C   0  0  1  0  0  0  0  0  0  0  0  0
  -19.4375  -10.0248   20.4821 C   0  0  2  0  0  0  0  0  0  0  0  0
  -19.4555  -28.0096   22.9454 C   0  0  1  0  0  0  0  0  0  0  0  0
  -22.6542  -12.2390   17.7318 C   0  0  0  0  0  0  0  0  0  0  0  0
  -25.9135  -27.6237   21.0004 N   0  0  0  0  0  0  0  0  0  0  0  0
  -25.4272  -28.8742   20.9254 N   0  0  0  0  0  0  0  0  0  0  0  0
  -23.5984  -13.2616   21.0375 N   0  0  0  0  0  0  0  0  0  0  0  0
  -22.9667  -28.8529   23.8502 N   0  0  0  0  0  0  0  0  0  0  0  0
  -25.3635  -30.7964   19.5427 N   0  0  0  0  0  0  0  0  0  0  0  0
  -27.8724  -27.8873   17.1680 N   0  0  0  0  0  0  0  0  0  0  0  0
  -27.0940  -13.9643   21.1684 N   0  0  0  0  0  0  0  0  0  0  0  0
  -21.3841  -11.1301   19.6190 N   0  0  0  0  0  0  0  0  0  0  0  0
  -20.8948  -28.1475   22.9538 N   0  0  0  0  0  0  0  0  0  0  0  0
  -18.5912  -10.1643   21.7008 N   0  3  0  0  0  0  0  0  0  0  0  0
  -26.9913  -30.0044   17.1848 O   0  0  0  0  0  0  0  0  0  0  0  0
  -25.2812  -15.2006   20.3891 O   0  0  0  0  0  0  0  0  0  0  0  0
  -24.2084  -11.2190   20.0928 O   0  0  0  0  0  0  0  0  0  0  0  0
  -19.6305  -12.4317   20.3987 O   0  0  0  0  0  0  0  0  0  0  0  0
  -20.9680  -29.2797   24.9462 O   0  0  0  0  0  0  0  0  0  0  0  0
  -29.2312  -22.7036   18.6906 O   0  0  0  0  0  0  0  0  0  0  0  0
  -21.5234  -25.6271   21.3627 O   0  0  0  0  0  0  0  0  0  0  0  0
  -21.0602  -18.2405   23.6491 O   0  0  0  0  0  0  0  0  0  1  0  0
  -26.5290  -17.9902   19.6316 F   0  0  0  0  0  0  0  0  0  0  0  0
  -28.7226  -20.9257   16.6356 F   0  0  0  0  0  0  0  0  0  0  0  0
  1  2  1  0  0  0  0
  1  5  2  0  0  0  0
  2  6  2  0  0  0  0
  3 10  2  0  0  0  0
  3 18  1  0  0  0  0
  4 11  1  0  0  0  0
  4 18  2  0  0  0  0
  5 20  1  0  0  0  0
  6 22  1  0  0  0  0
  7 12  2  0  0  0  0
  7 21  1  0  0  0  0
  8  9  2  0  0  0  0
  8 24  1  0  0  0  0
  9 25  1  0  0  0  0
 10 26  1  0  0  0  0
 11 26  2  0  0  0  0
 12 27  1  0  0  0  0
 13 14  2  0  0  0  0
 13 28  1  0  0  0  0
 14 30  1  0  0  0  0
 15 23  1  0  0  0  0
 15 27  2  0  0  0  0
 16 24  2  0  0  0  0
 16 29  1  0  0  0  0
 17 30  2  0  0  0  0
 17 31  1  0  0  0  0
 18 32  1  0  0  0  0
 19 32  1  0  0  0  0
 19 33  2  0  0  0  0
 19 34  1  0  0  0  0
 20 22  2  0  0  0  0
 20 39  1  0  0  0  0
 21 23  2  0  0  0  0
 21 40  1  0  0  0  0
 22 48  1  0  0  0  0
 23 41  1  0  0  0  0
 24 58  1  0  0  0  0
 25 29  2  0  0  0  0
 25 59  1  0  0  0  0
 26 81  1  0  0  0  0
 27 83  1  0  0  0  0
 28 31  2  0  0  0  0
 28 81  1  0  0  0  0
 29 82  1  0  0  0  0
 30 84  1  0  0  0  0
 31 85  1  0  0  0  0
 32 66  2  0  0  0  0
 33 67  1  0  0  0  0
 33 70  1  0  0  0  0
 34 71  1  0  0  0  0
 34 76  2  0  0  0  0
 35 49  1  0  0  0  0
 35 72  1  0  0  0  0
 35 77  2  0  0  0  0
 36 62  1  0  0  0  0
 36 68  1  0  0  0  0
 36 78  2  0  0  0  0
 37 63  1  0  0  0  0
 37 73  1  0  0  0  0
 37 79  2  0  0  0  0
 38 69  1  0  0  0  0
 38 74  1  0  0  0  0
 38 80  2  0  0  0  0
 39 42  1  0  0  0  0
 40 49  1  0  0  0  0
 41 68  1  0  0  0  0
 42 44  1  0  0  0  0
 43 45  1  0  0  0  0
 43 46  1  0  0  0  0
 44 48  1  0  0  0  0
 45 50  1  0  0  0  0
 46 69  1  0  0  0  0
 47 50  1  0  0  0  0
 47 69  1  0  0  0  0
 48 72  1  0  0  0  0
 49 68  1  0  0  0  0
 50 67  1  0  0  0  0
 51 63  1  0  0  0  0
 52 64  1  0  0  0  0
 53 65  1  0  0  0  0
 54 65  1  0  0  0  0
 55 65  1  0  0  0  0
 56 75  1  0  0  0  0
 57 82  1  0  0  0  0
 58 60  1  0  0  0  0
 59 64  1  0  0  0  0
 60 61  1  0  0  0  0
 61 83  1  0  0  0  0
 62 65  1  0  0  0  0
 62 73  1  0  0  0  0
 63 75  1  0  0  0  0
 64 74  1  0  0  0  0
 66 67  1  0  0  0  0
M  CHG  1  75   1
M  ISO  4  38 100  61 101  74 100  83 101
M  END
> <Batch ID>
0147

> <Smiles>
CNC(C)C(=O)NC(C(=O)N1Cc2cc([101O:1][101CH2:1]CCc3ccc(CC(C)[100NH:0][100C:0](=O)N4CCCC(n5nc(-c6ccc(Oc7ccc(F)cc7F)cc6)c(C(N)=O)c5N)C4)c(OC)c3)ccc2CC1C(=O)NC1CCCc2ccccc21)C(C)(C)C

> <Shape>
0.224

> <Color>
0.061

> <Negative vol penalty>
0.000

$$$$

  -OEChem-04052321333D

 90100  0     1  0  0  0  0  0999 V2000
  -25.2662  -35.1339   23.6761 C   0  0  0  0  0  0  0  0  0  0  0  0
  -25.9503  -33.9660   23.3547 C   0  0  0  0  0  0  0  0  0  0  0  0
  -20.8504  -18.5638   21.7573 C   0  0  0  0  0  0  0  0  0  0  0  0
  -20.2527  -17.9059   19.5108 C   0  0  0  0  0  0  0  0  0  0  0  0
  -23.9637  -35.0643   24.1689 C   0  0  0  0  0  0  0  0  0  0  0  0
  -25.3328  -32.7277   23.5269 C   0  0  0  0  0  0  0  0  0  0  0  0
  -26.0339  -29.6407   19.5742 C   0  0  0  0  0  0  0  0  0  0  0  0
  -19.5718  -19.0892   21.9437 C   0  0  0  0  0  0  0  0  0  0  0  0
  -18.9740  -18.4313   19.6971 C   0  0  0  0  0  0  0  0  0  0  0  0
  -27.2697  -29.0027   19.4759 C   0  0  0  0  0  0  0  0  0  0  0  0
  -16.3510  -20.2808   23.1359 C   0  0  0  0  0  0  0  0  0  0  0  0
  -15.6991  -19.9910   24.3345 C   0  0  0  0  0  0  0  0  0  0  0  0
  -32.6250  -22.4804   21.3974 C   0  0  0  0  0  0  0  0  0  0  0  0
  -31.3951  -23.5804   19.6328 C   0  0  0  0  0  0  0  0  0  0  0  0
  -26.3002  -26.9959   20.3991 C   0  0  0  0  0  0  0  0  0  0  0  0
  -32.4140  -24.8872   21.3910 C   0  0  0  0  0  0  0  0  0  0  0  0
  -15.8214  -17.6313   23.8303 C   0  0  0  0  0  0  0  0  0  0  0  0
  -21.1909  -17.9722   20.5408 C   0  0  0  0  0  0  0  0  0  0  0  0
  -22.9392  -16.1161   20.6183 C   0  0  0  0  0  0  0  0  0  0  0  0
  -23.3265  -33.8250   24.3381 C   0  0  0  0  0  0  0  0  0  0  0  0
  -24.9228  -28.9634   20.0967 C   0  0  0  0  0  0  0  0  0  0  0  0
  -24.0211  -32.6414   24.0236 C   0  0  0  0  0  0  0  0  0  0  0  0
  -31.8754  -22.4115   20.2232 C   0  0  0  0  0  0  0  0  0  0  0  0
  -25.0509  -27.6268   20.5006 C   0  0  0  0  0  0  0  0  0  0  0  0
  -18.6336  -19.0229   20.9136 C   0  0  0  0  0  0  0  0  0  0  0  0
  -27.4036  -27.6810   19.8911 C   0  0  0  0  0  0  0  0  0  0  0  0
  -16.7380  -19.2459   22.2845 C   0  0  0  0  0  0  0  0  0  0  0  0
  -32.8943  -23.7182   21.9814 C   0  0  0  0  0  0  0  0  0  0  0  0
  -31.6644  -24.8183   20.2167 C   0  0  0  0  0  0  0  0  0  0  0  0
  -15.4343  -18.6662   24.6817 C   0  0  0  0  0  0  0  0  0  0  0  0
  -16.4732  -17.9212   22.6317 C   0  0  0  0  0  0  0  0  0  0  0  0
  -22.5117  -17.4298   20.3475 C   0  0  0  0  0  0  0  0  0  0  0  0
  -24.2669  -16.1078   20.2666 C   0  0  0  0  0  0  0  0  0  0  0  0
  -22.2021  -15.0029   21.1408 C   0  0  0  0  0  0  0  0  0  0  0  0
  -23.0229  -29.3761   22.6114 C   0  0  0  0  0  0  0  0  0  0  0  0
  -21.3722  -26.9238   21.2760 C   0  0  0  0  0  0  0  0  0  0  0  0
  -21.3918  -24.1926   19.2298 C   0  0  0  0  0  0  0  0  0  0  0  0
  -29.2082  -18.2198   20.2131 C   0  0  0  0  0  0  0  0  0  0  0  0
  -21.9347  -33.7977   24.9185 C   0  0  0  0  0  0  0  0  0  0  0  0
  -23.5903  -29.6573   20.1712 C   0  0  0  0  0  0  0  0  0  0  0  0
  -23.8838  -26.8490   21.0497 C   0  0  0  0  0  0  0  0  0  0  0  0
  -21.2173  -32.4652   24.7183 C   0  0  0  0  0  0  0  0  0  0  0  0
  -27.0412  -19.4992   17.7533 C   0  0  0  0  0  0  0  0  0  0  0  0
  -22.1383  -31.3037   25.0780 C   0  0  0  0  0  0  0  0  0  0  0  0
  -34.5575  -22.1576   18.5014 C   0  0  0  0  0  0  0  0  0  0  0  0
  -35.1363  -20.8579   18.0159 C   0  0  0  0  0  0  0  0  0  0  0  0
  -25.6905  -18.9689   18.2327 C   0  0  0  0  0  0  0  0  0  0  0  0
  -32.4719  -18.8908   18.6214 C   0  0  0  0  0  0  0  0  0  0  0  0
  -27.9160  -19.9725   18.9152 C   0  0  0  0  0  0  0  0  0  0  0  0
  -31.5945  -18.1152   19.5955 C   0  0  0  0  0  0  0  0  0  0  0  0
  -30.7162  -20.2165   20.5401 C   0  0  0  0  0  0  0  0  0  0  0  0
  -26.7517  -18.4278   20.4572 C   0  0  0  0  0  0  0  0  0  0  0  0
  -31.5805  -21.0610   19.5868 C   0  0  2  0  0  0  0  0  0  0  0  0
  -23.3762  -31.2806   24.1732 C   0  0  1  0  0  0  0  0  0  0  0  0
  -22.6487  -29.0342   21.1970 C   0  0  1  0  0  0  0  0  0  0  0  0
  -33.6453  -21.0298   18.1051 C   0  0  0  0  0  0  0  0  0  0  0  0
  -32.8548  -20.2839   19.1564 C   0  0  2  0  0  0  0  0  0  0  0  0
  -25.8737  -17.8913   19.3161 C   0  0  1  0  0  0  0  0  0  0  0  0
  -19.9014  -22.3680   18.3654 C   0  0  0  0  0  0  0  0  0  0  0  0
  -21.5725  -25.4909   23.9624 C   0  0  0  0  0  0  0  0  0  0  0  0
  -20.9414  -23.3665   22.7975 C   0  0  0  0  0  0  0  0  0  0  0  0
  -19.3497  -25.2869   22.8344 C   0  0  0  0  0  0  0  0  0  0  0  0
  -21.7489  -25.0701   16.4259 C   0  0  0  0  0  0  0  0  0  0  0  0
  -34.0858  -22.5532   23.6781 C   0  0  0  0  0  0  0  0  0  0  0  0
  -29.7742  -27.8710   19.9134 C   0  0  0  0  0  0  0  0  0  1  0  0
  -30.9024  -27.0520   20.5099 C   0  0  0  0  0  0  0  0  0  0  0  0
  -21.4179  -25.4189   21.3861 C   0  0  1  0  0  0  0  0  0  0  0  0
  -20.4551  -23.7621   18.1154 C   0  0  2  0  0  0  0  0  0  0  0  0
  -20.8430  -24.9058   22.7366 C   0  0  0  0  0  0  0  0  0  0  0  0
  -23.4886  -18.2001   19.8615 N   0  0  0  0  0  0  0  0  0  0  0  0
  -24.5432  -17.3680   19.8241 N   0  0  0  0  0  0  0  0  0  0  0  0
  -22.6034  -27.5732   21.1085 N   0  0  0  0  0  0  0  0  0  0  0  0
  -28.0280  -18.9287   19.9427 N   0  0  0  0  0  0  0  0  0  0  0  0
  -30.4200  -18.8916   19.9822 N   0  0  0  0  0  0  0  0  0  0  0  0
  -25.2132  -15.1455   20.2958 N   0  0  0  0  0  0  0  0  0  0  0  0
  -20.8469  -15.1844   21.4490 N   0  0  0  0  0  0  0  0  0  0  0  0
  -23.0437  -30.7322   22.8758 N   0  0  0  0  0  0  0  0  0  0  0  0
  -20.7288  -24.9023   20.2086 N   0  0  0  0  0  0  0  0  0  0  0  0
  -21.1727  -23.7555   16.8092 N   0  3  0  0  0  0  0  0  0  0  0  0
  -22.7336  -13.8850   21.3443 O   0  0  0  0  0  0  0  0  0  0  0  0
  -23.2729  -28.4761   23.4047 O   0  0  0  0  0  0  0  0  0  0  0  0
  -20.2834  -27.5012   21.3292 O   0  0  0  0  0  0  0  0  0  0  0  0
  -22.5908  -23.9228   19.2336 O   0  0  0  0  0  0  0  0  0  0  0  0
  -29.1835  -17.0564   20.6340 O   0  0  0  0  0  0  0  0  0  0  0  0
  -17.3858  -19.5353   21.0952 O   0  0  0  0  0  0  0  0  0  0  0  0
  -33.6257  -23.7863   23.1275 O   0  0  0  0  0  0  0  0  0  0  0  0
  -28.6170  -27.0519   19.7963 O   0  0  0  0  0  0  0  0  0  1  0  0
  -31.1946  -25.9588   19.6409 O   0  0  0  0  0  0  0  0  0  0  0  0
  -14.8097  -18.3879   25.8335 F   0  0  0  0  0  0  0  0  0  0  0  0
  -16.8437  -16.9226   21.8184 F   0  0  0  0  0  0  0  0  0  0  0  0
  1  2  1  0  0  0  0
  1  5  2  0  0  0  0
  2  6  2  0  0  0  0
  3  8  2  0  0  0  0
  3 18  1  0  0  0  0
  4  9  1  0  0  0  0
  4 18  2  0  0  0  0
  5 20  1  0  0  0  0
  6 22  1  0  0  0  0
  7 10  2  0  0  0  0
  7 21  1  0  0  0  0
  8 25  1  0  0  0  0
  9 25  2  0  0  0  0
 10 26  1  0  0  0  0
 11 12  2  0  0  0  0
 11 27  1  0  0  0  0
 12 30  1  0  0  0  0
 13 23  2  0  0  0  0
 13 28  1  0  0  0  0
 14 23  1  0  0  0  0
 14 29  2  0  0  0  0
 15 24  1  0  0  0  0
 15 26  2  0  0  0  0
 16 28  2  0  0  0  0
 16 29  1  0  0  0  0
 17 30  2  0  0  0  0
 17 31  1  0  0  0  0
 18 32  1  0  0  0  0
 19 32  1  0  0  0  0
 19 33  2  0  0  0  0
 19 34  1  0  0  0  0
 20 22  2  0  0  0  0
 20 39  1  0  0  0  0
 21 24  2  0  0  0  0
 21 40  1  0  0  0  0
 22 54  1  0  0  0  0
 23 53  1  0  0  0  0
 24 41  1  0  0  0  0
 25 85  1  0  0  0  0
 26 87  1  0  0  0  0
 27 31  2  0  0  0  0
 27 85  1  0  0  0  0
 28 86  1  0  0  0  0
 29 88  1  0  0  0  0
 30 89  1  0  0  0  0
 31 90  1  0  0  0  0
 32 70  2  0  0  0  0
 33 71  1  0  0  0  0
 33 75  1  0  0  0  0
 34 76  1  0  0  0  0
 34 80  2  0  0  0  0
 35 55  1  0  0  0  0
 35 77  1  0  0  0  0
 35 81  2  0  0  0  0
 36 67  1  0  0  0  0
 36 72  1  0  0  0  0
 36 82  2  0  0  0  0
 37 68  1  0  0  0  0
 37 78  1  0  0  0  0
 37 83  2  0  0  0  0
 38 73  1  0  0  0  0
 38 74  1  0  0  0  0
 38 84  2  0  0  0  0
 39 42  1  0  0  0  0
 40 55  1  0  0  0  0
 41 72  1  0  0  0  0
 42 44  1  0  0  0  0
 43 47  1  0  0  0  0
 43 49  1  0  0  0  0
 44 54  1  0  0  0  0
 45 46  1  0  0  0  0
 45 56  1  0  0  0  0
 46 56  1  0  0  0  0
 47 58  1  0  0  0  0
 48 50  1  0  0  0  0
 48 57  1  0  0  0  0
 49 73  1  0  0  0  0
 50 74  1  0  0  0  0
 51 53  1  0  0  0  0
 51 74  1  0  0  0  0
 52 58  1  0  0  0  0
 52 73  1  0  0  0  0
 53 57  1  0  0  0  0
 54 77  1  0  0  0  0
 55 72  1  0  0  0  0
 56 57  1  0  0  0  0
 58 71  1  0  0  0  0
 59 68  1  0  0  0  0
 60 69  1  0  0  0  0
 61 69  1  0  0  0  0
 62 69  1  0  0  0  0
 63 79  1  0  0  0  0
 64 86  1  0  0  0  0
 65 66  1  0  0  0  0
 65 87  1  0  0  0  0
 66 88  1  0  0  0  0
 67 69  1  0  0  0  0
 67 78  1  0  0  0  0
 68 79  1  0  0  0  0
 70 71  1  0  0  0  0
M  CHG  1  79   1
M  ISO  4  38 100  65 101  74 100  87 101
M  END
> <Batch ID>
0147

> <Smiles>
CNC(C)C(=O)NC(C(=O)N1Cc2cc([101O:1][101CH2:1]COc3cc(OC)cc(C4C[100N:0]([100C:0](=O)N5CCCC(n6nc(-c7ccc(Oc8ccc(F)cc8F)cc7)c(C(N)=O)c6N)C5)CCC4C4CC4)c3)ccc2CC1C(=O)NC1CCCc2ccccc21)C(C)(C)C

> <Shape>
0.183

> <Color>
0.110

> <Negative vol penalty>
0.000

$$$$

  -OEChem-04052321333D

 87 96  0     1  0  0  0  0  0999 V2000
  -30.2579  -30.2664   25.8760 C   0  0  0  0  0  0  0  0  0  0  0  0
  -29.6951  -29.2613   25.0959 C   0  0  0  0  0  0  0  0  0  0  0  0
  -27.2773  -21.5530   16.3700 C   0  0  0  0  0  0  0  0  0  0  0  0
  -23.2373  -10.8222   23.4829 C   0  0  0  0  0  0  0  0  0  0  0  0
  -23.5859  -12.6690   25.0011 C   0  0  0  0  0  0  0  0  0  0  0  0
  -29.4396  -31.2237   26.4741 C   0  0  0  0  0  0  0  0  0  0  0  0
  -28.3134  -29.2125   24.9144 C   0  0  0  0  0  0  0  0  0  0  0  0
  -27.0163  -28.3503   20.0958 C   0  0  0  0  0  0  0  0  0  0  0  0
  -27.3635  -22.8558   16.8608 C   0  0  0  0  0  0  0  0  0  0  0  0
  -27.0995  -20.4862   17.2510 C   0  0  0  0  0  0  0  0  0  0  0  0
  -22.4692  -10.1727   24.4492 C   0  0  0  0  0  0  0  0  0  0  0  0
  -22.8177  -12.0195   25.9675 C   0  0  0  0  0  0  0  0  0  0  0  0
  -27.1160  -27.0385   19.6345 C   0  0  0  0  0  0  0  0  0  0  0  0
  -19.3188  -10.3553   25.6633 C   0  0  0  0  0  0  0  0  0  0  0  0
  -18.1168   -9.7772   25.2551 C   0  0  0  0  0  0  0  0  0  0  0  0
  -24.7393  -26.7577   19.9373 C   0  0  0  0  0  0  0  0  0  0  0  0
  -18.9117   -7.6134   25.9785 C   0  0  0  0  0  0  0  0  0  0  0  0
  -23.7957  -12.0703   23.7588 C   0  0  0  0  0  0  0  0  0  0  0  0
  -24.1358  -13.6379   21.7753 C   0  0  0  0  0  0  0  0  0  0  0  0
  -28.0481  -31.1923   26.2920 C   0  0  0  0  0  0  0  0  0  0  0  0
  -25.7769  -28.8732   20.4922 C   0  0  0  0  0  0  0  0  0  0  0  0
  -27.4756  -30.1696   25.5118 C   0  0  0  0  0  0  0  0  0  0  0  0
  -24.6261  -28.0774   20.4008 C   0  0  0  0  0  0  0  0  0  0  0  0
  -27.2722  -23.0918   18.2325 C   0  0  0  0  0  0  0  0  0  0  0  0
  -27.0082  -20.7222   18.6227 C   0  0  0  0  0  0  0  0  0  0  0  0
  -27.0945  -22.0250   19.1135 C   0  0  0  0  0  0  0  0  0  0  0  0
  -22.2594  -10.7713   25.6915 C   0  0  0  0  0  0  0  0  0  0  0  0
  -25.9779  -26.2410   19.5579 C   0  0  0  0  0  0  0  0  0  0  0  0
  -20.3173   -9.5624   26.2291 C   0  0  0  0  0  0  0  0  0  0  0  0
  -17.9132   -8.4063   25.4127 C   0  0  0  0  0  0  0  0  0  0  0  0
  -20.1138   -8.1915   26.3867 C   0  0  0  0  0  0  0  0  0  0  0  0
  -24.5897  -12.7415   22.7612 C   0  0  0  0  0  0  0  0  0  0  0  0
  -25.2693  -13.9923   21.0854 C   0  0  0  0  0  0  0  0  0  0  0  0
  -22.8082  -14.1084   21.5071 C   0  0  0  0  0  0  0  0  0  0  0  0
  -24.5867  -30.0043   23.2139 C   0  0  0  0  0  0  0  0  0  0  0  0
  -22.0375  -30.7303   21.3439 C   0  0  0  0  0  0  0  0  0  0  0  0
  -20.2486  -30.0912   18.5088 C   0  0  0  0  0  0  0  0  0  0  0  0
  -30.5384  -15.4548   20.8226 C   0  0  0  0  0  0  0  0  0  0  0  0
  -27.2002  -32.2210   26.9973 C   0  0  0  0  0  0  0  0  0  0  0  0
  -25.6819  -30.2988   20.9623 C   0  0  0  0  0  0  0  0  0  0  0  0
  -23.2688  -28.5977   20.7951 C   0  0  0  0  0  0  0  0  0  0  0  0
  -25.7789  -32.3184   26.4489 C   0  0  0  0  0  0  0  0  0  0  0  0
  -29.9396  -12.0697   21.1913 C   0  0  0  0  0  0  0  0  0  0  0  0
  -25.1765  -30.9276   26.2769 C   0  0  0  0  0  0  0  0  0  0  0  0
  -28.4556  -12.0008   21.5513 C   0  0  0  0  0  0  0  0  0  0  0  0
  -28.7206  -18.0399   18.8887 C   0  0  0  0  0  0  0  0  0  0  0  0
  -27.9745  -18.1423   21.2932 C   0  0  0  0  0  0  0  0  0  0  0  0
  -30.6217  -13.2299   21.9071 C   0  0  0  0  0  0  0  0  0  0  0  0
  -30.0071  -17.3518   19.3366 C   0  0  0  0  0  0  0  0  0  0  0  0
  -29.2765  -17.4578   21.6961 C   0  0  0  0  0  0  0  0  0  0  0  0
  -28.5042  -14.5040   21.9989 C   0  0  0  0  0  0  0  0  0  0  0  0
  -25.9833  -30.0976   25.2710 C   0  0  1  0  0  0  0  0  0  0  0  0
  -24.4520  -30.5626   21.8255 C   0  0  1  0  0  0  0  0  0  0  0  0
  -28.1433  -18.9370   19.9912 C   0  0  0  0  0  0  0  0  0  0  0  0
  -27.7616  -13.3504   21.2950 C   0  0  2  0  0  0  0  0  0  0  0  0
  -26.9966  -22.2781   20.5843 C   0  0  0  0  0  0  0  0  0  0  0  0
  -18.1918  -30.8219   17.2707 C   0  0  0  0  0  0  0  0  0  0  0  0
  -20.2995  -29.2120   23.3400 C   0  0  0  0  0  0  0  0  0  0  0  0
  -18.4876  -29.1554   21.6131 C   0  0  0  0  0  0  0  0  0  0  0  0
  -19.2994  -31.3430   22.4954 C   0  0  0  0  0  0  0  0  0  0  0  0
  -21.8251  -30.9221   16.1459 C   0  0  0  0  0  0  0  0  0  0  0  0
  -24.6665  -18.8656   18.8949 C   0  0  0  0  0  0  0  0  0  0  0  0
  -27.3674  -24.4964   18.7323 C   0  0  0  0  0  0  0  0  0  1  0  0
  -26.8158  -19.5511   19.5535 C   0  0  2  0  0  0  0  0  0  0  0  0
  -20.7750  -30.0125   20.9318 C   0  0  1  0  0  0  0  0  0  0  0  0
  -19.6908  -31.0139   17.4402 C   0  0  2  0  0  0  0  0  0  0  0  0
  -19.7411  -29.9200   22.0894 C   0  0  0  0  0  0  0  0  0  0  0  0
  -25.9087  -12.5387   22.7059 N   0  0  0  0  0  0  0  0  0  0  0  0
  -26.2934  -13.3127   21.6768 N   0  0  0  0  0  0  0  0  0  0  0  0
  -23.2285  -29.9959   21.2543 N   0  0  0  0  0  0  0  0  0  0  0  0
  -29.9308  -14.4918   21.6423 N   0  0  0  0  0  0  0  0  0  0  0  0
  -29.8224  -16.6432   20.6023 N   0  0  0  0  0  0  0  0  0  0  0  0
  -25.4801  -14.8157   20.0365 N   0  0  0  0  0  0  0  0  0  0  0  0
  -21.7593  -13.6436   22.3121 N   0  0  0  0  0  0  0  0  0  0  0  0
  -25.6686  -30.4992   23.9167 N   0  0  0  0  0  0  0  0  0  0  0  0
  -20.2824  -30.7022   19.7444 N   0  0  0  0  0  0  0  0  0  0  0  0
  -20.3499  -30.7476   16.1304 N   0  3  0  0  0  0  0  0  0  0  0  0
  -22.5571  -14.9043   20.5706 O   0  0  0  0  0  0  0  0  0  0  0  0
  -23.7688  -29.1863   23.6182 O   0  0  0  0  0  0  0  0  0  0  0  0
  -21.9704  -31.9018   21.7244 O   0  0  0  0  0  0  0  0  0  0  0  0
  -20.6140  -28.9419   18.2719 O   0  0  0  0  0  0  0  0  0  0  0  0
  -31.6502  -15.2655   20.3137 O   0  0  0  0  0  0  0  0  0  0  0  0
  -21.5098  -10.1380   26.6346 O   0  0  0  0  0  0  0  0  0  0  0  0
  -26.0732  -24.9508   19.1055 O   0  0  0  0  0  0  0  0  0  1  0  0
  -26.0522  -18.5561   18.8776 O   0  0  0  0  0  0  0  0  0  0  0  0
  -16.7583   -7.8516   25.0221 F   0  0  0  0  0  0  0  0  0  0  0  0
  -21.0689   -7.4249   26.9306 F   0  0  0  0  0  0  0  0  0  0  0  0
  1  2  1  0  0  0  0
  1  6  2  0  0  0  0
  2  7  2  0  0  0  0
  3  9  2  0  0  0  0
  3 10  1  0  0  0  0
  4 11  2  0  0  0  0
  4 18  1  0  0  0  0
  5 12  1  0  0  0  0
  5 18  2  0  0  0  0
  6 20  1  0  0  0  0
  7 22  1  0  0  0  0
  8 13  2  0  0  0  0
  8 21  1  0  0  0  0
  9 24  1  0  0  0  0
 10 25  2  0  0  0  0
 11 27  1  0  0  0  0
 12 27  2  0  0  0  0
 13 28  1  0  0  0  0
 14 15  2  0  0  0  0
 14 29  1  0  0  0  0
 15 30  1  0  0  0  0
 16 23  1  0  0  0  0
 16 28  2  0  0  0  0
 17 30  2  0  0  0  0
 17 31  1  0  0  0  0
 18 32  1  0  0  0  0
 19 32  1  0  0  0  0
 19 33  2  0  0  0  0
 19 34  1  0  0  0  0
 20 22  2  0  0  0  0
 20 39  1  0  0  0  0
 21 23  2  0  0  0  0
 21 40  1  0  0  0  0
 22 52  1  0  0  0  0
 23 41  1  0  0  0  0
 24 26  2  0  0  0  0
 24 63  1  0  0  0  0
 25 26  1  0  0  0  0
 25 64  1  0  0  0  0
 26 56  1  0  0  0  0
 27 83  1  0  0  0  0
 28 84  1  0  0  0  0
 29 31  2  0  0  0  0
 29 83  1  0  0  0  0
 30 86  1  0  0  0  0
 31 87  1  0  0  0  0
 32 68  2  0  0  0  0
 33 69  1  0  0  0  0
 33 73  1  0  0  0  0
 34 74  1  0  0  0  0
 34 78  2  0  0  0  0
 35 53  1  0  0  0  0
 35 75  1  0  0  0  0
 35 79  2  0  0  0  0
 36 65  1  0  0  0  0
 36 70  1  0  0  0  0
 36 80  2  0  0  0  0
 37 66  1  0  0  0  0
 37 76  1  0  0  0  0
 37 81  2  0  0  0  0
 38 71  1  0  0  0  0
 38 72  1  0  0  0  0
 38 82  2  0  0  0  0
 39 42  1  0  0  0  0
 40 53  1  0  0  0  0
 41 70  1  0  0  0  0
 42 44  1  0  0  0  0
 43 45  1  0  0  0  0
 43 48  1  0  0  0  0
 44 52  1  0  0  0  0
 45 55  1  0  0  0  0
 46 49  1  0  0  0  0
 46 54  1  0  0  0  0
 47 50  1  0  0  0  0
 47 54  1  0  0  0  0
 48 71  1  0  0  0  0
 49 72  1  0  0  0  0
 50 72  1  0  0  0  0
 51 55  1  0  0  0  0
 51 71  1  0  0  0  0
 52 75  1  0  0  0  0
 53 70  1  0  0  0  0
 54 64  1  0  0  0  0
 55 69  1  0  0  0  0
 57 66  1  0  0  0  0
 58 67  1  0  0  0  0
 59 67  1  0  0  0  0
 60 67  1  0  0  0  0
 61 77  1  0  0  0  0
 62 85  1  0  0  0  0
 63 84  1  0  0  0  0
 64 85  1  0  0  0  0
 65 67  1  0  0  0  0
 65 76  1  0  0  0  0
 66 77  1  0  0  0  0
 68 69  1  0  0  0  0
M  CHG  1  77   1
M  ISO  4  38 100  63 101  72 100  84 101
M  END
> <Batch ID>
0147

> <Smiles>
CNC(C)C(=O)NC(C(=O)N1Cc2cc([101O:1][101CH2:1]c3cccc(C(OC)C4CC[100N:0]([100C:0](=O)N5CCCC(n6nc(-c7ccc(Oc8ccc(F)cc8F)cc7)c(C(N)=O)c6N)C5)CC4)c3C)ccc2CC1C(=O)NC1CCCc2ccccc21)C(C)(C)C

> <Shape>
0.244

> <Color>
0.110

> <Negative vol penalty>
0.000

$$$$

  -OEChem-04052321333D

 88 98  0     1  0  0  0  0  0999 V2000
  -29.6852  -34.3960   26.6085 C   0  0  0  0  0  0  0  0  0  0  0  0
  -29.3148  -33.1807   26.0417 C   0  0  0  0  0  0  0  0  0  0  0  0
  -26.5602   -8.3713   22.3564 C   0  0  0  0  0  0  0  0  0  0  0  0
  -24.9137   -7.9581   20.6373 C   0  0  0  0  0  0  0  0  0  0  0  0
  -28.7255  -35.3840   26.8253 C   0  0  0  0  0  0  0  0  0  0  0  0
  -27.9844  -32.9522   25.6923 C   0  0  0  0  0  0  0  0  0  0  0  0
  -27.5144  -30.8196   21.1233 C   0  0  0  0  0  0  0  0  0  0  0  0
  -26.0337   -7.3241   23.1124 C   0  0  0  0  0  0  0  0  0  0  0  0
  -24.3872   -6.9108   21.3933 C   0  0  0  0  0  0  0  0  0  0  0  0
  -27.7662  -29.4515   21.0302 C   0  0  0  0  0  0  0  0  0  0  0  0
  -22.3463   -6.5467   24.0641 C   0  0  0  0  0  0  0  0  0  0  0  0
  -20.9589   -6.4690   24.1859 C   0  0  0  0  0  0  0  0  0  0  0  0
  -28.7082  -24.7495   19.4827 C   0  0  0  0  0  0  0  0  0  0  0  0
  -25.3934  -29.0184   21.0682 C   0  0  0  0  0  0  0  0  0  0  0  0
  -28.1364  -24.5068   21.8175 C   0  0  0  0  0  0  0  0  0  0  0  0
  -20.9909   -4.2841   23.1551 C   0  0  0  0  0  0  0  0  0  0  0  0
  -26.0002   -8.6884   21.1188 C   0  0  0  0  0  0  0  0  0  0  0  0
  -27.5675   -9.6934   19.3749 C   0  0  0  0  0  0  0  0  0  0  0  0
  -27.3844  -35.1712   26.4695 C   0  0  0  0  0  0  0  0  0  0  0  0
  -26.1983  -31.2975   21.2006 C   0  0  0  0  0  0  0  0  0  0  0  0
  -27.0057  -33.9378   25.9058 C   0  0  0  0  0  0  0  0  0  0  0  0
  -28.7763  -23.3622   19.3552 C   0  0  0  0  0  0  0  0  0  0  0  0
  -25.1275  -30.3931   21.1595 C   0  0  0  0  0  0  0  0  0  0  0  0
  -28.3883  -25.3218   20.7139 C   0  0  0  0  0  0  0  0  0  0  0  0
  -28.2044  -23.1194   21.6899 C   0  0  0  0  0  0  0  0  0  0  0  0
  -24.9472   -6.5938   22.6309 C   0  0  0  0  0  0  0  0  0  0  0  0
  -26.7058  -28.5505   21.0056 C   0  0  0  0  0  0  0  0  0  0  0  0
  -23.0560   -5.4932   23.4878 C   0  0  0  0  0  0  0  0  0  0  0  0
  -28.5244  -22.5471   20.4587 C   0  0  0  0  0  0  0  0  0  0  0  0
  -20.2813   -5.3377   23.7314 C   0  0  0  0  0  0  0  0  0  0  0  0
  -22.3783   -4.3619   23.0333 C   0  0  0  0  0  0  0  0  0  0  0  0
  -26.5433   -9.7705   20.3376 C   0  0  0  0  0  0  0  0  0  0  0  0
  -27.7130  -10.9827   18.9244 C   0  0  0  0  0  0  0  0  0  0  0  0
  -28.3200   -8.5578   18.9277 C   0  0  0  0  0  0  0  0  0  0  0  0
  -24.5285  -32.9327   23.3550 C   0  0  0  0  0  0  0  0  0  0  0  0
  -22.2638  -32.9253   21.0326 C   0  0  0  0  0  0  0  0  0  0  0  0
  -20.9844  -31.4415   18.2383 C   0  0  0  0  0  0  0  0  0  0  0  0
  -28.1485  -16.2824   19.6571 C   0  0  0  0  0  0  0  0  0  0  0  0
  -26.3744  -36.2511   26.7665 C   0  0  0  0  0  0  0  0  0  0  0  0
  -25.9426  -32.7779   21.2736 C   0  0  0  0  0  0  0  0  0  0  0  0
  -23.6956  -30.8563   21.2193 C   0  0  0  0  0  0  0  0  0  0  0  0
  -25.0533  -36.0707   26.0232 C   0  0  0  0  0  0  0  0  0  0  0  0
  -24.8506  -15.0801   19.6551 C   0  0  0  0  0  0  0  0  0  0  0  0
  -30.2850  -21.8181   17.9362 C   0  0  0  0  0  0  0  0  0  0  0  0
  -30.3944  -23.1898   17.3476 C   0  0  0  0  0  0  0  0  0  0  0  0
  -24.5726  -34.6270   26.1316 C   0  0  0  0  0  0  0  0  0  0  0  0
  -25.0774  -13.5719   19.7561 C   0  0  0  0  0  0  0  0  0  0  0  0
  -27.5684  -19.7981   18.6320 C   0  0  0  0  0  0  0  0  0  0  0  0
  -26.9706  -19.5434   21.0789 C   0  0  0  0  0  0  0  0  0  0  0  0
  -25.8134  -15.8653   20.5474 C   0  0  0  0  0  0  0  0  0  0  0  0
  -28.4480  -18.5536   18.7428 C   0  0  0  0  0  0  0  0  0  0  0  0
  -27.8662  -18.3079   21.1346 C   0  0  0  0  0  0  0  0  0  0  0  0
  -27.4662  -14.0295   20.4284 C   0  0  0  0  0  0  0  0  0  0  0  0
  -29.1205  -22.7676   18.0299 C   0  0  0  0  0  0  0  0  0  0  0  0
  -25.5769  -33.6616   25.4905 C   0  0  1  0  0  0  0  0  0  0  0  0
  -24.5787  -33.1203   21.8651 C   0  0  1  0  0  0  0  0  0  0  0  0
  -26.5525  -13.2164   19.4982 C   0  0  1  0  0  0  0  0  0  0  0  0
  -27.3866  -20.5130   19.9713 C   0  0  0  0  0  0  0  0  0  0  0  0
  -27.9321  -22.2636   22.8831 C   0  0  0  0  0  0  0  0  0  0  0  0
  -19.1058  -31.6412   16.5866 C   0  0  0  0  0  0  0  0  0  0  0  0
  -20.3319  -31.7732   23.0942 C   0  0  0  0  0  0  0  0  0  0  0  0
  -18.8200  -31.1187   21.2090 C   0  0  0  0  0  0  0  0  0  0  0  0
  -19.3465  -33.5246   21.6056 C   0  0  0  0  0  0  0  0  0  0  0  0
  -22.8572  -31.8251   15.9790 C   0  0  0  0  0  0  0  0  0  0  0  0
  -28.3138  -26.8052   20.8498 C   0  0  0  0  0  0  0  0  0  1  0  0
  -21.1284  -32.0071   20.6495 C   0  0  1  0  0  0  0  0  0  0  0  0
  -20.5449  -32.0165   16.9039 C   0  0  2  0  0  0  0  0  0  0  0  0
  -19.9336  -32.0967   21.6404 C   0  0  0  0  0  0  0  0  0  0  0  0
  -26.0716  -11.0107   20.4906 N   0  0  0  0  0  0  0  0  0  0  0  0
  -26.8028  -11.7248   19.6179 N   0  0  0  0  0  0  0  0  0  0  0  0
  -23.4973  -32.3131   21.2964 N   0  0  0  0  0  0  0  0  0  0  0  0
  -27.2033  -15.4637   20.2932 N   0  0  0  0  0  0  0  0  0  0  0  0
  -27.9973  -17.6701   19.8176 N   0  0  0  0  0  0  0  0  0  0  0  0
  -28.5296  -11.5427   18.0068 N   0  0  0  0  0  0  0  0  0  0  0  0
  -28.0424   -7.3068   19.4954 N   0  0  0  0  0  0  0  0  0  0  0  0
  -25.4541  -33.6885   24.0488 N   0  0  0  0  0  0  0  0  0  0  0  0
  -20.7862  -32.3349   19.2697 N   0  0  0  0  0  0  0  0  0  0  0  0
  -21.4163  -31.5065   15.8078 N   0  3  0  0  0  0  0  0  0  0  0  0
  -29.2233   -8.6526   18.0626 O   0  0  0  0  0  0  0  0  0  0  0  0
  -23.7095  -32.1605   23.8395 O   0  0  0  0  0  0  0  0  0  0  0  0
  -22.0655  -34.1415   21.0886 O   0  0  0  0  0  0  0  0  0  0  0  0
  -21.4529  -30.3112   18.3547 O   0  0  0  0  0  0  0  0  0  0  0  0
  -29.0702  -15.8054   18.9832 O   0  0  0  0  0  0  0  0  0  0  0  0
  -24.4334   -5.5716   23.3683 O   0  0  0  0  0  0  0  0  0  0  0  0
  -28.5908  -21.1843   20.3352 O   0  0  0  0  0  0  0  0  0  0  0  0
  -26.9505  -27.2053   20.9148 O   0  0  0  0  0  0  0  0  0  1  0  0
  -18.9492   -5.2625   23.8498 F   0  0  0  0  0  0  0  0  0  0  0  0
  -23.0548   -3.3461   22.4798 F   0  0  0  0  0  0  0  0  0  0  0  0
  1  2  1  0  0  0  0
  1  5  2  0  0  0  0
  2  6  2  0  0  0  0
  3  8  2  0  0  0  0
  3 17  1  0  0  0  0
  4  9  1  0  0  0  0
  4 17  2  0  0  0  0
  5 19  1  0  0  0  0
  6 21  1  0  0  0  0
  7 10  2  0  0  0  0
  7 20  1  0  0  0  0
  8 26  1  0  0  0  0
  9 26  2  0  0  0  0
 10 27  1  0  0  0  0
 11 12  2  0  0  0  0
 11 28  1  0  0  0  0
 12 30  1  0  0  0  0
 13 22  1  0  0  0  0
 13 24  2  0  0  0  0
 14 23  1  0  0  0  0
 14 27  2  0  0  0  0
 15 24  1  0  0  0  0
 15 25  2  0  0  0  0
 16 30  2  0  0  0  0
 16 31  1  0  0  0  0
 17 32  1  0  0  0  0
 18 32  1  0  0  0  0
 18 33  2  0  0  0  0
 18 34  1  0  0  0  0
 19 21  2  0  0  0  0
 19 39  1  0  0  0  0
 20 23  2  0  0  0  0
 20 40  1  0  0  0  0
 21 55  1  0  0  0  0
 22 29  2  0  0  0  0
 22 54  1  0  0  0  0
 23 41  1  0  0  0  0
 24 65  1  0  0  0  0
 25 29  1  0  0  0  0
 25 59  1  0  0  0  0
 26 84  1  0  0  0  0
 27 86  1  0  0  0  0
 28 31  2  0  0  0  0
 28 84  1  0  0  0  0
 29 85  1  0  0  0  0
 30 87  1  0  0  0  0
 31 88  1  0  0  0  0
 32 69  2  0  0  0  0
 33 70  1  0  0  0  0
 33 74  1  0  0  0  0
 34 75  1  0  0  0  0
 34 79  2  0  0  0  0
 35 56  1  0  0  0  0
 35 76  1  0  0  0  0
 35 80  2  0  0  0  0
 36 66  1  0  0  0  0
 36 71  1  0  0  0  0
 36 81  2  0  0  0  0
 37 67  1  0  0  0  0
 37 77  1  0  0  0  0
 37 82  2  0  0  0  0
 38 72  1  0  0  0  0
 38 73  1  0  0  0  0
 38 83  2  0  0  0  0
 39 42  1  0  0  0  0
 40 56  1  0  0  0  0
 41 71  1  0  0  0  0
 42 46  1  0  0  0  0
 43 47  1  0  0  0  0
 43 50  1  0  0  0  0
 44 45  1  0  0  0  0
 44 54  1  0  0  0  0
 45 54  1  0  0  0  0
 46 55  1  0  0  0  0
 47 57  1  0  0  0  0
 48 51  1  0  0  0  0
 48 58  1  0  0  0  0
 49 52  1  0  0  0  0
 49 58  1  0  0  0  0
 50 72  1  0  0  0  0
 51 73  1  0  0  0  0
 52 73  1  0  0  0  0
 53 57  1  0  0  0  0
 53 72  1  0  0  0  0
 55 76  1  0  0  0  0
 56 71  1  0  0  0  0
 57 70  1  0  0  0  0
 58 85  1  0  0  0  0
 60 67  1  0  0  0  0
 61 68  1  0  0  0  0
 62 68  1  0  0  0  0
 63 68  1  0  0  0  0
 64 78  1  0  0  0  0
 65 86  1  0  0  0  0
 66 68  1  0  0  0  0
 66 77  1  0  0  0  0
 67 78  1  0  0  0  0
 69 70  1  0  0  0  0
M  CHG  1  78   1
M  ISO  4  38 100  65 101  73 100  86 101
M  END
> <Batch ID>
0147

> <Smiles>
CNC(C)C(=O)NC(C(=O)N1Cc2cc([101O:1][101CH2:1]c3cc(C)c(OC4CC[100N:0]([100C:0](=O)N5CCCC(n6nc(-c7ccc(Oc8ccc(F)cc8F)cc7)c(C(N)=O)c6N)C5)CC4)c(C4CC4)c3)ccc2CC1C(=O)NC1CCCc2ccccc21)C(C)(C)C

> <Shape>
0.251

> <Color>
0.077

> <Negative vol penalty>
0.000

$$$$

  -OEChem-04052321333D

 91101  0     1  0  0  0  0  0999 V2000
  -18.0214  -29.9694   23.8809 C   0  0  0  0  0  0  0  0  0  0  0  0
  -19.4100  -30.0283   23.8193 C   0  0  0  0  0  0  0  0  0  0  0  0
  -24.6695  -13.7324   18.9825 C   0  0  0  0  0  0  0  0  0  0  0  0
  -23.5233  -15.2714   20.4504 C   0  0  0  0  0  0  0  0  0  0  0  0
  -17.3530  -28.8284   23.4390 C   0  0  0  0  0  0  0  0  0  0  0  0
  -20.1310  -28.9458   23.3166 C   0  0  0  0  0  0  0  0  0  0  0  0
  -25.3202  -29.1667   20.0717 C   0  0  0  0  0  0  0  0  0  0  0  0
  -34.1034  -25.9853   18.7686 C   0  0  0  0  0  0  0  0  0  0  0  0
  -23.7941  -12.7159   19.3647 C   0  0  0  0  0  0  0  0  0  0  0  0
  -22.6479  -14.2549   20.8326 C   0  0  0  0  0  0  0  0  0  0  0  0
  -26.6580  -29.0065   20.4299 C   0  0  0  0  0  0  0  0  0  0  0  0
  -33.1182  -26.9580   18.8983 C   0  0  0  0  0  0  0  0  0  0  0  0
  -23.4028  -10.6223   21.9892 C   0  0  0  0  0  0  0  0  0  0  0  0
  -23.9505   -9.3748   22.2880 C   0  0  0  0  0  0  0  0  0  0  0  0
  -26.5532  -26.6907   19.7627 C   0  0  0  0  0  0  0  0  0  0  0  0
  -22.6346   -8.3750   20.5257 C   0  0  0  0  0  0  0  0  0  0  0  0
  -24.5341  -15.0102   19.5254 C   0  0  0  0  0  0  0  0  0  0  0  0
  -25.2797  -16.9623   18.0623 C   0  0  0  0  0  0  0  0  0  0  0  0
  -18.0656  -27.7351   22.9217 C   0  0  0  0  0  0  0  0  0  0  0  0
  -24.5845  -28.0854   19.5657 C   0  0  0  0  0  0  0  0  0  0  0  0
  -33.7432  -24.6558   18.5540 C   0  0  0  0  0  0  0  0  0  0  0  0
  -19.4716  -27.7886   22.8686 C   0  0  0  0  0  0  0  0  0  0  0  0
  -25.2069  -26.8404   19.3964 C   0  0  0  0  0  0  0  0  0  0  0  0
  -32.3925  -24.2831   18.4569 C   0  0  0  0  0  0  0  0  0  0  0  0
  -31.3933  -25.2654   18.5910 C   0  0  0  0  0  0  0  0  0  0  0  0
  -22.7833  -12.9772   20.2897 C   0  0  0  0  0  0  0  0  0  0  0  0
  -27.2739  -27.7676   20.2782 C   0  0  0  0  0  0  0  0  0  0  0  0
  -31.7732  -26.6011   18.8112 C   0  0  0  0  0  0  0  0  0  0  0  0
  -22.4710  -10.7462   20.9586 C   0  0  0  0  0  0  0  0  0  0  0  0
  -23.5664   -8.2511   21.5563 C   0  0  0  0  0  0  0  0  0  0  0  0
  -22.0869   -9.6225   20.2269 C   0  0  0  0  0  0  0  0  0  0  0  0
  -25.4385  -16.0605   19.1315 C   0  0  0  0  0  0  0  0  0  0  0  0
  -26.4016  -17.7531   18.1106 C   0  0  0  0  0  0  0  0  0  0  0  0
  -24.2133  -17.0752   17.1105 C   0  0  0  0  0  0  0  0  0  0  0  0
  -22.0037  -26.4894   20.5120 C   0  0  0  0  0  0  0  0  0  0  0  0
  -22.3391  -25.0177   17.6408 C   0  0  0  0  0  0  0  0  0  0  0  0
  -24.3926  -24.1239   15.0657 C   0  0  0  0  0  0  0  0  0  0  0  0
  -30.1144  -20.7622   20.9928 C   0  0  0  0  0  0  0  0  0  0  0  0
  -17.3020  -26.5048   22.5000 C   0  0  0  0  0  0  0  0  0  0  0  0
  -23.1498  -28.2814   19.1588 C   0  0  0  0  0  0  0  0  0  0  0  0
  -32.0618  -22.8228   18.2830 C   0  0  0  0  0  0  0  0  0  0  0  0
  -24.4668  -25.6531   18.8386 C   0  0  0  0  0  0  0  0  0  0  0  0
  -18.1178  -25.5489   21.6333 C   0  0  0  0  0  0  0  0  0  0  0  0
  -30.6089  -22.5587   17.8960 C   0  0  0  0  0  0  0  0  0  0  0  0
  -30.6703  -17.2520   20.7778 C   0  0  0  0  0  0  0  0  0  0  0  0
  -35.2528  -22.8835   19.6737 C   0  0  0  0  0  0  0  0  0  0  0  0
  -36.1608  -23.9310   19.1094 C   0  0  0  0  0  0  0  0  0  0  0  0
  -19.5013  -25.3297   22.2371 C   0  0  0  0  0  0  0  0  0  0  0  0
  -29.3441  -16.7033   20.2484 C   0  0  0  0  0  0  0  0  0  0  0  0
  -30.4551  -18.4231   21.7339 C   0  0  0  0  0  0  0  0  0  0  0  0
  -28.3032  -18.9709   20.6647 C   0  0  0  0  0  0  0  0  0  0  0  0
  -34.8420  -23.6465   18.4446 C   0  0  0  0  0  0  0  0  0  0  0  0
  -29.9165  -24.9270   18.4774 C   0  0  2  0  0  0  0  0  0  0  0  0
  -20.2874  -26.6445   22.3068 C   0  0  1  0  0  0  0  0  0  0  0  0
  -22.3523  -26.9810   19.1357 C   0  0  1  0  0  0  0  0  0  0  0  0
  -29.6239  -23.4218   18.6937 C   0  0  2  0  0  0  0  0  0  0  0  0
  -28.4713  -17.8244   19.6530 C   0  0  2  0  0  0  0  0  0  0  0  0
  -24.3880  -22.8938   12.8784 C   0  0  0  0  0  0  0  0  0  0  0  0
  -30.4244  -25.1556   16.0310 C   0  0  0  0  0  0  0  0  0  0  0  0
  -28.0769  -24.6878   16.7884 C   0  0  0  0  0  0  0  0  0  0  0  0
  -22.2910  -22.3597   19.1384 C   0  0  0  0  0  0  0  0  0  0  0  0
  -23.2250  -21.2674   17.0883 C   0  0  0  0  0  0  0  0  0  0  0  0
  -20.9923  -22.3766   17.0012 C   0  0  0  0  0  0  0  0  0  0  0  0
  -25.2006  -26.5460   13.5693 C   0  0  0  0  0  0  0  0  0  0  0  0
  -29.6310  -23.0583   20.1847 C   0  0  0  0  0  0  0  0  0  0  0  0
  -29.4279  -28.7492   20.5080 C   0  0  0  0  0  0  0  0  0  1  0  0
  -30.8406  -28.2941   20.1968 C   0  0  0  0  0  0  0  0  0  0  0  0
  -23.0780  -23.7985   17.1442 C   0  0  1  0  0  0  0  0  0  0  0  0
  -24.2318  -24.2438   13.5610 C   0  0  2  0  0  0  0  0  0  0  0  0
  -29.3832  -25.3988   17.1155 C   0  0  0  0  0  0  0  0  0  0  0  0
  -22.4102  -22.4722   17.6054 C   0  0  0  0  0  0  0  0  0  0  0  0
  -26.5721  -16.2589   19.8094 N   0  0  0  0  0  0  0  0  0  0  0  0
  -27.1358  -17.2945   19.1646 N   0  0  0  0  0  0  0  0  0  0  0  0
  -23.0641  -25.8934   18.4613 N   0  0  0  0  0  0  0  0  0  0  0  0
  -29.6211  -19.4520   21.1080 N   0  0  0  0  0  0  0  0  0  0  0  0
  -26.8220  -18.7890   17.3539 N   0  0  0  0  0  0  0  0  0  0  0  0
  -23.1367  -16.1828   17.2044 N   0  0  0  0  0  0  0  0  0  0  0  0
  -20.8126  -26.9892   21.0031 N   0  0  0  0  0  0  0  0  0  0  0  0
  -23.1795  -23.9443   15.6962 N   0  0  0  0  0  0  0  0  0  0  0  0
  -29.2626  -21.6740   20.3814 N   0  0  0  0  0  0  0  0  0  0  0  0
  -25.2544  -25.1735   13.0033 N   0  3  0  0  0  0  0  0  0  0  0  0
  -24.2230  -17.9313   16.1937 O   0  0  0  0  0  0  0  0  0  0  0  0
  -22.7586  -25.7128   21.0854 O   0  0  0  0  0  0  0  0  0  0  0  0
  -21.1642  -25.1905   17.3070 O   0  0  0  0  0  0  0  0  0  0  0  0
  -25.4853  -24.1798   15.6254 O   0  0  0  0  0  0  0  0  0  0  0  0
  -31.2333  -21.0934   21.3994 O   0  0  0  0  0  0  0  0  0  0  0  0
  -21.9288  -11.9856   20.6627 O   0  0  0  0  0  0  0  0  0  0  0  0
  -28.5883  -27.6073   20.6301 O   0  0  0  0  0  0  0  0  0  1  0  0
  -30.8397  -27.5860   18.9602 O   0  0  0  0  0  0  0  0  0  0  0  0
  -24.0935   -7.0534   21.8423 F   0  0  0  0  0  0  0  0  0  0  0  0
  -21.1930   -9.7355   19.2349 F   0  0  0  0  0  0  0  0  0  0  0  0
  1  2  1  0  0  0  0
  1  5  2  0  0  0  0
  2  6  2  0  0  0  0
  3  9  2  0  0  0  0
  3 17  1  0  0  0  0
  4 10  1  0  0  0  0
  4 17  2  0  0  0  0
  5 19  1  0  0  0  0
  6 22  1  0  0  0  0
  7 11  2  0  0  0  0
  7 20  1  0  0  0  0
  8 12  2  0  0  0  0
  8 21  1  0  0  0  0
  9 26  1  0  0  0  0
 10 26  2  0  0  0  0
 11 27  1  0  0  0  0
 12 28  1  0  0  0  0
 13 14  2  0  0  0  0
 13 29  1  0  0  0  0
 14 30  1  0  0  0  0
 15 23  1  0  0  0  0
 15 27  2  0  0  0  0
 16 30  2  0  0  0  0
 16 31  1  0  0  0  0
 17 32  1  0  0  0  0
 18 32  1  0  0  0  0
 18 33  2  0  0  0  0
 18 34  1  0  0  0  0
 19 22  2  0  0  0  0
 19 39  1  0  0  0  0
 20 23  2  0  0  0  0
 20 40  1  0  0  0  0
 21 24  2  0  0  0  0
 21 52  1  0  0  0  0
 22 54  1  0  0  0  0
 23 42  1  0  0  0  0
 24 25  1  0  0  0  0
 24 41  1  0  0  0  0
 25 28  2  0  0  0  0
 25 53  1  0  0  0  0
 26 87  1  0  0  0  0
 27 88  1  0  0  0  0
 28 89  1  0  0  0  0
 29 31  2  0  0  0  0
 29 87  1  0  0  0  0
 30 90  1  0  0  0  0
 31 91  1  0  0  0  0
 32 72  2  0  0  0  0
 33 73  1  0  0  0  0
 33 76  1  0  0  0  0
 34 77  1  0  0  0  0
 34 82  2  0  0  0  0
 35 55  1  0  0  0  0
 35 78  1  0  0  0  0
 35 83  2  0  0  0  0
 36 68  1  0  0  0  0
 36 74  1  0  0  0  0
 36 84  2  0  0  0  0
 37 69  1  0  0  0  0
 37 79  1  0  0  0  0
 37 85  2  0  0  0  0
 38 75  1  0  0  0  0
 38 80  1  0  0  0  0
 38 86  2  0  0  0  0
 39 43  1  0  0  0  0
 40 55  1  0  0  0  0
 41 44  1  0  0  0  0
 42 74  1  0  0  0  0
 43 48  1  0  0  0  0
 44 56  1  0  0  0  0
 45 49  1  0  0  0  0
 45 50  1  0  0  0  0
 46 47  1  0  0  0  0
 46 52  1  0  0  0  0
 47 52  1  0  0  0  0
 48 54  1  0  0  0  0
 49 57  1  0  0  0  0
 50 75  1  0  0  0  0
 51 57  1  0  0  0  0
 51 75  1  0  0  0  0
 53 56  1  0  0  0  0
 53 70  1  0  0  0  0
 54 78  1  0  0  0  0
 55 74  1  0  0  0  0
 56 65  1  0  0  0  0
 57 73  1  0  0  0  0
 58 69  1  0  0  0  0
 59 70  1  0  0  0  0
 60 70  1  0  0  0  0
 61 71  1  0  0  0  0
 62 71  1  0  0  0  0
 63 71  1  0  0  0  0
 64 81  1  0  0  0  0
 65 80  1  0  0  0  0
 66 67  1  0  0  0  0
 66 88  1  0  0  0  0
 67 89  1  0  0  0  0
 68 71  1  0  0  0  0
 68 79  1  0  0  0  0
 69 81  1  0  0  0  0
 72 73  1  0  0  0  0
M  CHG  1  81   1
M  ISO  4  38 100  66 101  80 100  88 101
M  END
> <Batch ID>
0147

> <Smiles>
CNC(C)C(=O)NC(C(=O)N1Cc2cc([101O:1][101CH2:1]COc3ccc(C4CC4)c4c3C(C(C)C)C(C[100NH:0][100C:0](=O)N3CCCC(n5nc(-c6ccc(Oc7ccc(F)cc7F)cc6)c(C(N)=O)c5N)C3)CC4)ccc2CC1C(=O)NC1CCCc2ccccc21)C(C)(C)C

> <Shape>
0.274

> <Color>
0.051

> <Negative vol penalty>
0.000

$$$$

  -OEChem-04052321333D

 88 97  0     1  0  0  0  0  0999 V2000
  -16.7328  -26.7729   29.6449 C   0  0  0  0  0  0  0  0  0  0  0  0
  -17.6275  -26.0748   28.8401 C   0  0  0  0  0  0  0  0  0  0  0  0
  -22.8911  -10.0708   20.0316 C   0  0  0  0  0  0  0  0  0  0  0  0
  -23.6196  -10.0547   22.3351 C   0  0  0  0  0  0  0  0  0  0  0  0
  -15.5372  -27.2474   29.1072 C   0  0  0  0  0  0  0  0  0  0  0  0
  -17.3265  -25.8499   27.4972 C   0  0  0  0  0  0  0  0  0  0  0  0
  -21.2676  -26.7466   24.4462 C   0  0  0  0  0  0  0  0  0  0  0  0
  -24.8525  -21.4713   24.2509 C   0  0  0  0  0  0  0  0  0  0  0  0
  -25.7854  -20.4626   24.0107 C   0  0  0  0  0  0  0  0  0  0  0  0
  -22.0698   -8.9719   20.2836 C   0  0  0  0  0  0  0  0  0  0  0  0
  -22.7983   -8.9558   22.5872 C   0  0  0  0  0  0  0  0  0  0  0  0
  -22.2578  -25.7673   24.3808 C   0  0  0  0  0  0  0  0  0  0  0  0
  -22.8775   -5.6156   22.0698 C   0  0  0  0  0  0  0  0  0  0  0  0
  -23.4148   -4.5606   22.8073 C   0  0  0  0  0  0  0  0  0  0  0  0
  -21.3141  -24.9598   22.3128 C   0  0  0  0  0  0  0  0  0  0  0  0
  -26.4832  -23.1331   23.6057 C   0  0  0  0  0  0  0  0  0  0  0  0
  -21.7062   -4.8654   24.4881 C   0  0  0  0  0  0  0  0  0  0  0  0
  -23.6661  -10.6122   21.0573 C   0  0  0  0  0  0  0  0  0  0  0  0
  -24.1747  -13.1079   20.9148 C   0  0  0  0  0  0  0  0  0  0  0  0
  -15.2257  -27.0365   27.7547 C   0  0  0  0  0  0  0  0  0  0  0  0
  -20.2850  -26.8330   23.4495 C   0  0  0  0  0  0  0  0  0  0  0  0
  -16.1249  -26.3209   26.9412 C   0  0  0  0  0  0  0  0  0  0  0  0
  -20.3140  -25.9426   22.3666 C   0  0  0  0  0  0  0  0  0  0  0  0
  -25.2013  -22.8066   24.0484 C   0  0  0  0  0  0  0  0  0  0  0  0
  -27.4161  -22.1244   23.3655 C   0  0  0  0  0  0  0  0  0  0  0  0
  -27.0672  -20.7891   23.5681 C   0  0  0  0  0  0  0  0  0  0  0  0
  -22.0234   -8.4144   21.5614 C   0  0  0  0  0  0  0  0  0  0  0  0
  -22.2795  -24.8719   23.3155 C   0  0  0  0  0  0  0  0  0  0  0  0
  -21.7546   -6.2956   22.5415 C   0  0  0  0  0  0  0  0  0  0  0  0
  -22.8291   -4.1855   24.0164 C   0  0  0  0  0  0  0  0  0  0  0  0
  -21.1689   -5.9205   23.7506 C   0  0  0  0  0  0  0  0  0  0  0  0
  -24.5151  -11.7470   20.7974 C   0  0  0  0  0  0  0  0  0  0  0  0
  -25.3184  -13.7798   20.5586 C   0  0  0  0  0  0  0  0  0  0  0  0
  -22.9354  -13.7108   21.3104 C   0  0  0  0  0  0  0  0  0  0  0  0
  -17.1192  -26.5541   23.3902 C   0  0  0  0  0  0  0  0  0  0  0  0
  -17.4851  -27.4818   20.3035 C   0  0  0  0  0  0  0  0  0  0  0  0
  -19.5101  -27.7030   17.5653 C   0  0  0  0  0  0  0  0  0  0  0  0
  -30.7413  -14.5252   20.6454 C   0  0  0  0  0  0  0  0  0  0  0  0
  -13.8996  -27.5273   27.2301 C   0  0  0  0  0  0  0  0  0  0  0  0
  -19.2395  -27.9119   23.5207 C   0  0  0  0  0  0  0  0  0  0  0  0
  -19.2940  -26.0061   21.2603 C   0  0  0  0  0  0  0  0  0  0  0  0
  -13.8264  -27.5722   25.7060 C   0  0  0  0  0  0  0  0  0  0  0  0
  -29.5931  -12.1317   18.4303 C   0  0  0  0  0  0  0  0  0  0  0  0
  -14.3699  -26.2789   25.1071 C   0  0  0  0  0  0  0  0  0  0  0  0
  -28.1376  -11.9205   18.8467 C   0  0  0  0  0  0  0  0  0  0  0  0
  -29.3015  -17.7888   21.6464 C   0  0  0  0  0  0  0  0  0  0  0  0
  -28.6971  -16.0626   23.3795 C   0  0  0  0  0  0  0  0  0  0  0  0
  -30.4955  -12.2704   19.6511 C   0  0  0  0  0  0  0  0  0  0  0  0
  -30.4716  -16.9124   21.2084 C   0  0  0  0  0  0  0  0  0  0  0  0
  -29.8810  -15.2219   22.9130 C   0  0  0  0  0  0  0  0  0  0  0  0
  -28.6324  -13.1663   21.0081 C   0  0  0  0  0  0  0  0  0  0  0  0
  -15.8453  -26.0784   25.4739 C   0  0  1  0  0  0  0  0  0  0  0  0
  -17.9848  -27.5820   22.7180 C   0  0  1  0  0  0  0  0  0  0  0  0
  -28.9376  -17.5556   23.1184 C   0  0  0  0  0  0  0  0  0  0  0  0
  -27.6722  -13.0272   19.8097 C   0  0  2  0  0  0  0  0  0  0  0  0
  -29.7513  -22.7906   24.0379 C   0  0  0  0  0  0  0  0  0  0  0  0
  -19.5168  -28.4747   15.1775 C   0  0  0  0  0  0  0  0  0  0  0  0
  -15.8912  -25.0067   19.5016 C   0  0  0  0  0  0  0  0  0  0  0  0
  -16.7319  -25.3085   17.1628 C   0  0  0  0  0  0  0  0  0  0  0  0
  -15.3217  -27.0755   18.2171 C   0  0  0  0  0  0  0  0  0  0  0  0
  -21.6537  -29.6756   18.0874 C   0  0  0  0  0  0  0  0  0  0  0  0
  -24.2035  -23.8848   24.3053 C   0  0  0  0  0  0  0  0  0  1  0  0
  -27.7148  -18.3801   23.5138 C   0  0  0  0  0  0  0  0  0  0  0  0
  -28.7819  -22.5024   22.8919 C   0  0  2  0  0  0  0  0  0  0  0  0
  -17.7086  -26.7683   18.9920 C   0  0  1  0  0  0  0  0  0  0  0  0
  -19.8056  -28.8546   16.6214 C   0  0  2  0  0  0  0  0  0  0  0  0
  -16.4316  -26.0371   18.4901 C   0  0  0  0  0  0  0  0  0  0  0  0
  -25.7763  -11.5635   20.3978 N   0  0  0  0  0  0  0  0  0  0  0  0
  -26.2384  -12.8180   20.2609 N   0  0  0  0  0  0  0  0  0  0  0  0
  -18.2881  -27.0746   21.3783 N   0  0  0  0  0  0  0  0  0  0  0  0
  -30.0178  -13.3275   20.5421 N   0  0  0  0  0  0  0  0  0  0  0  0
  -30.2285  -15.5032   21.5136 N   0  0  0  0  0  0  0  0  0  0  0  0
  -25.6168  -15.0937   20.4741 N   0  0  0  0  0  0  0  0  0  0  0  0
  -21.8616  -12.8739   21.6434 N   0  0  0  0  0  0  0  0  0  0  0  0
  -27.9884  -19.7660   23.3327 N   0  0  0  0  0  0  0  0  0  0  0  0
  -16.6892  -26.9189   24.6518 N   0  0  0  0  0  0  0  0  0  0  0  0
  -18.2270  -27.7693   18.0659 N   0  0  0  0  0  0  0  0  0  0  0  0
  -21.2374  -29.2548   16.7248 N   0  3  0  0  0  0  0  0  0  0  0  0
  -22.7799  -14.9548   21.3512 O   0  0  0  0  0  0  0  0  0  0  0  0
  -16.8594  -25.5082   22.8069 O   0  0  0  0  0  0  0  0  0  0  0  0
  -16.6345  -28.3728   20.3699 O   0  0  0  0  0  0  0  0  0  0  0  0
  -20.3337  -26.8298   17.8291 O   0  0  0  0  0  0  0  0  0  0  0  0
  -31.7796  -14.7137   19.9994 O   0  0  0  0  0  0  0  0  0  0  0  0
  -28.6840  -23.6770   22.0799 O   0  0  0  0  0  0  0  0  0  0  0  0
  -21.2219   -7.3423   21.8078 O   0  0  0  0  0  0  0  0  0  0  0  0
  -23.2512  -23.9082   23.2491 O   0  0  0  0  0  0  0  0  0  1  0  0
  -23.3442   -3.1713   24.7237 F   0  0  0  0  0  0  0  0  0  0  0  0
  -20.0893   -6.5692   24.2082 F   0  0  0  0  0  0  0  0  0  0  0  0
  1  2  1  0  0  0  0
  1  5  2  0  0  0  0
  2  6  2  0  0  0  0
  3 10  2  0  0  0  0
  3 18  1  0  0  0  0
  4 11  1  0  0  0  0
  4 18  2  0  0  0  0
  5 20  1  0  0  0  0
  6 22  1  0  0  0  0
  7 12  2  0  0  0  0
  7 21  1  0  0  0  0
  8  9  2  0  0  0  0
  8 24  1  0  0  0  0
  9 26  1  0  0  0  0
 10 27  1  0  0  0  0
 11 27  2  0  0  0  0
 12 28  1  0  0  0  0
 13 14  2  0  0  0  0
 13 29  1  0  0  0  0
 14 30  1  0  0  0  0
 15 23  1  0  0  0  0
 15 28  2  0  0  0  0
 16 24  2  0  0  0  0
 16 25  1  0  0  0  0
 17 30  2  0  0  0  0
 17 31  1  0  0  0  0
 18 32  1  0  0  0  0
 19 32  1  0  0  0  0
 19 33  2  0  0  0  0
 19 34  1  0  0  0  0
 20 22  2  0  0  0  0
 20 39  1  0  0  0  0
 21 23  2  0  0  0  0
 21 40  1  0  0  0  0
 22 52  1  0  0  0  0
 23 41  1  0  0  0  0
 24 62  1  0  0  0  0
 25 26  2  0  0  0  0
 25 64  1  0  0  0  0
 26 75  1  0  0  0  0
 27 85  1  0  0  0  0
 28 86  1  0  0  0  0
 29 31  2  0  0  0  0
 29 85  1  0  0  0  0
 30 87  1  0  0  0  0
 31 88  1  0  0  0  0
 32 68  2  0  0  0  0
 33 69  1  0  0  0  0
 33 73  1  0  0  0  0
 34 74  1  0  0  0  0
 34 79  2  0  0  0  0
 35 53  1  0  0  0  0
 35 76  1  0  0  0  0
 35 80  2  0  0  0  0
 36 65  1  0  0  0  0
 36 70  1  0  0  0  0
 36 81  2  0  0  0  0
 37 66  1  0  0  0  0
 37 77  1  0  0  0  0
 37 82  2  0  0  0  0
 38 71  1  0  0  0  0
 38 72  1  0  0  0  0
 38 83  2  0  0  0  0
 39 42  1  0  0  0  0
 40 53  1  0  0  0  0
 41 70  1  0  0  0  0
 42 44  1  0  0  0  0
 43 45  1  0  0  0  0
 43 48  1  0  0  0  0
 44 52  1  0  0  0  0
 45 55  1  0  0  0  0
 46 49  1  0  0  0  0
 46 54  1  0  0  0  0
 47 50  1  0  0  0  0
 47 54  1  0  0  0  0
 48 71  1  0  0  0  0
 49 72  1  0  0  0  0
 50 72  1  0  0  0  0
 51 55  1  0  0  0  0
 51 71  1  0  0  0  0
 52 76  1  0  0  0  0
 53 70  1  0  0  0  0
 54 63  1  0  0  0  0
 55 69  1  0  0  0  0
 56 64  1  0  0  0  0
 57 66  1  0  0  0  0
 58 67  1  0  0  0  0
 59 67  1  0  0  0  0
 60 67  1  0  0  0  0
 61 78  1  0  0  0  0
 62 86  1  0  0  0  0
 63 75  1  0  0  0  0
 64 84  1  0  0  0  0
 65 67  1  0  0  0  0
 65 77  1  0  0  0  0
 66 78  1  0  0  0  0
 68 69  1  0  0  0  0
M  CHG  1  78   1
M  ISO  4  38 100  62 101  72 100  86 101
M  END
> <Batch ID>
0147

> <Smiles>
CNC(C)C(=O)NC(C(=O)N1Cc2cc([101O:1][101CH2:1]c3ccc(NCC4CC[100N:0]([100C:0](=O)N5CCCC(n6nc(-c7ccc(Oc8ccc(F)cc8F)cc7)c(C(N)=O)c6N)C5)CC4)c(C(C)O)c3)ccc2CC1C(=O)NC1CCCc2ccccc21)C(C)(C)C

> <Shape>
0.237

> <Color>
0.203

> <Negative vol penalty>
0.000

$$$$

  -OEChem-04052321333D

 87 96  0     1  0  0  0  0  0999 V2000
  -29.7395  -33.4147   24.5625 C   0  0  0  0  0  0  0  0  0  0  0  0
  -29.7466  -32.0426   24.3332 C   0  0  0  0  0  0  0  0  0  0  0  0
  -24.7837   -8.5611   21.4774 C   0  0  0  0  0  0  0  0  0  0  0  0
  -23.2853   -9.5564   19.8645 C   0  0  0  0  0  0  0  0  0  0  0  0
  -28.5426  -34.1262   24.4902 C   0  0  0  0  0  0  0  0  0  0  0  0
  -28.5565  -31.3809   24.0325 C   0  0  0  0  0  0  0  0  0  0  0  0
  -29.0628  -28.1228   20.1889 C   0  0  0  0  0  0  0  0  0  0  0  0
  -23.7898   -7.6523   21.8401 C   0  0  0  0  0  0  0  0  0  0  0  0
  -22.2913   -8.6475   20.2272 C   0  0  0  0  0  0  0  0  0  0  0  0
  -29.6653  -26.8970   20.4684 C   0  0  0  0  0  0  0  0  0  0  0  0
  -22.4719   -4.7855   20.6244 C   0  0  0  0  0  0  0  0  0  0  0  0
  -22.8375   -3.4468   20.7646 C   0  0  0  0  0  0  0  0  0  0  0  0
  -27.4902  -25.8593   20.5761 C   0  0  0  0  0  0  0  0  0  0  0  0
  -28.7672  -22.2849   20.9675 C   0  0  0  0  0  0  0  0  0  0  0  0
  -22.1324   -3.4962   23.0749 C   0  0  0  0  0  0  0  0  0  0  0  0
  -24.5315   -9.5132   20.4896 C   0  0  0  0  0  0  0  0  0  0  0  0
  -26.5315  -10.2924   19.1110 C   0  0  0  0  0  0  0  0  0  0  0  0
  -27.3389  -33.4746   24.1790 C   0  0  0  0  0  0  0  0  0  0  0  0
  -27.6666  -28.2285   20.1115 C   0  0  0  0  0  0  0  0  0  0  0  0
  -27.3422  -32.0841   23.9573 C   0  0  0  0  0  0  0  0  0  0  0  0
  -26.8726  -27.0871   20.2929 C   0  0  0  0  0  0  0  0  0  0  0  0
  -28.0825  -21.2770   18.8939 C   0  0  0  0  0  0  0  0  0  0  0  0
  -28.3003  -21.1803   20.2638 C   0  0  0  0  0  0  0  0  0  0  0  0
  -22.5436   -7.6954   21.2150 C   0  0  0  0  0  0  0  0  0  0  0  0
  -28.8788  -25.7656   20.6650 C   0  0  0  0  0  0  0  0  0  0  0  0
  -21.9366   -5.4797   21.7095 C   0  0  0  0  0  0  0  0  0  0  0  0
  -22.6677   -2.8021   21.9898 C   0  0  0  0  0  0  0  0  0  0  0  0
  -21.7669   -4.8350   22.9347 C   0  0  0  0  0  0  0  0  0  0  0  0
  -25.5577  -10.4527   20.1149 C   0  0  0  0  0  0  0  0  0  0  0  0
  -28.3450  -22.4909   18.2796 C   0  0  0  0  0  0  0  0  0  0  0  0
  -28.9990  -23.4538   20.2604 C   0  0  0  0  0  0  0  0  0  1  0  0
  -27.2603  -11.4559   19.1506 C   0  0  0  0  0  0  0  0  0  0  0  0
  -26.7571   -9.1903   18.2221 C   0  0  0  0  0  0  0  0  0  0  0  0
  -25.4461  -29.8356   21.7209 C   0  0  0  0  0  0  0  0  0  0  0  0
  -23.4774  -28.6292   19.4426 C   0  0  0  0  0  0  0  0  0  0  0  0
  -22.8786  -26.2002   17.1212 C   0  0  0  0  0  0  0  0  0  0  0  0
  -25.5890  -16.9220   21.3568 C   0  0  0  0  0  0  0  0  0  0  0  0
  -26.0626  -34.2780   24.1587 C   0  0  0  0  0  0  0  0  0  0  0  0
  -27.0333  -29.5526   19.7827 C   0  0  0  0  0  0  0  0  0  0  0  0
  -25.3703  -27.1433   20.2004 C   0  0  0  0  0  0  0  0  0  0  0  0
  -24.9046  -33.5644   23.4659 C   0  0  0  0  0  0  0  0  0  0  0  0
  -28.6176  -14.9385   22.1280 C   0  0  0  0  0  0  0  0  0  0  0  0
  -24.8037  -32.1201   23.9460 C   0  0  0  0  0  0  0  0  0  0  0  0
  -28.2206  -13.5345   21.6748 C   0  0  0  0  0  0  0  0  0  0  0  0
  -28.7049  -19.1872   17.6535 C   0  0  0  0  0  0  0  0  0  0  0  0
  -27.4056  -15.7598   22.5571 C   0  0  0  0  0  0  0  0  0  0  0  0
  -25.9382  -14.4339   21.0729 C   0  0  0  0  0  0  0  0  0  0  0  0
  -26.0758  -31.3349   23.6041 C   0  0  1  0  0  0  0  0  0  0  0  0
  -27.5821  -20.1084   18.1132 C   0  0  1  0  0  0  0  0  0  0  0  0
  -25.5798  -29.6487   20.2360 C   0  0  1  0  0  0  0  0  0  0  0  0
  -28.0059  -17.8424   17.6307 C   0  0  2  0  0  0  0  0  0  0  0  0
  -27.1314  -13.5958   20.5898 C   0  0  2  0  0  0  0  0  0  0  0  0
  -27.1344  -17.9458   18.8783 C   0  0  2  0  0  0  0  0  0  0  0  0
  -28.0415  -19.9066   20.9987 C   0  0  0  0  0  0  0  0  0  0  0  0
  -28.1300  -22.6550   16.8104 C   0  0  0  0  0  0  0  0  0  0  0  0
  -28.9587  -16.6601   17.6347 C   0  0  0  0  0  0  0  0  0  0  0  0
  -21.1679  -25.4597   15.4412 C   0  0  0  0  0  0  0  0  0  0  0  0
  -21.7298  -27.5526   21.7002 C   0  0  0  0  0  0  0  0  0  0  0  0
  -20.6125  -26.0596   20.0296 C   0  0  0  0  0  0  0  0  0  0  0  0
  -20.4648  -28.5373   19.7806 C   0  0  0  0  0  0  0  0  0  0  0  0
  -23.8561  -17.9095   19.9071 C   0  0  0  0  0  0  0  0  0  0  0  0
  -24.7847  -26.4971   14.8768 C   0  0  0  0  0  0  0  0  0  0  0  0
  -25.9115  -17.0469   18.8502 C   0  0  0  0  0  0  0  0  0  0  0  0
  -22.6554  -27.3713   19.2968 C   0  0  1  0  0  0  0  0  0  0  0  0
  -22.4276  -26.2793   15.6739 C   0  0  2  0  0  0  0  0  0  0  0  0
  -21.3938  -27.3792   20.2055 C   0  0  0  0  0  0  0  0  0  0  0  0
  -25.6563  -11.6256   20.7463 N   0  0  0  0  0  0  0  0  0  0  0  0
  -28.7992  -23.5857   18.9299 N   0  0  0  0  0  0  0  0  0  0  0  0
  -26.7007  -12.2128   20.1377 N   0  0  0  0  0  0  0  0  0  0  0  0
  -24.7980  -28.4621   19.8829 N   0  0  0  0  0  0  0  0  0  0  0  0
  -26.3682  -15.7656   21.5252 N   0  0  0  0  0  0  0  0  0  0  0  0
  -28.3188  -11.8952   18.4372 N   0  0  0  0  0  0  0  0  0  0  0  0
  -25.9157   -8.0734   18.3157 N   0  0  0  0  0  0  0  0  0  0  0  0
  -26.0801  -30.9638   22.2053 N   0  0  0  0  0  0  0  0  0  0  0  0
  -22.3656  -27.2357   17.8734 N   0  0  0  0  0  0  0  0  0  0  0  0
  -25.1114  -17.1889   20.0648 N   0  0  0  0  0  0  0  0  0  0  0  0
  -23.4956  -25.7665   14.7698 N   0  3  0  0  0  0  0  0  0  0  0  0
  -27.6878   -9.1890   17.3811 O   0  0  0  0  0  0  0  0  0  0  0  0
  -24.8132  -29.0177   22.3782 O   0  0  0  0  0  0  0  0  0  0  0  0
  -22.9687  -29.7191   19.1687 O   0  0  0  0  0  0  0  0  0  0  0  0
  -23.6096  -25.3069   17.5433 O   0  0  0  0  0  0  0  0  0  0  0  0
  -25.3427  -17.6782   22.3052 O   0  0  0  0  0  0  0  0  0  0  0  0
  -26.7130  -19.3207   18.9500 O   0  0  0  0  0  0  0  0  0  0  0  0
  -21.5735   -6.8086   21.5684 O   0  0  0  0  0  0  0  0  0  0  0  0
  -29.4643  -24.5680   20.9386 O   0  0  0  0  0  0  0  0  0  1  0  0
  -23.0174   -1.5161   22.1239 F   0  0  0  0  0  0  0  0  0  0  0  0
  -21.2521   -5.4964   23.9804 F   0  0  0  0  0  0  0  0  0  0  0  0
  1  2  1  0  0  0  0
  1  5  2  0  0  0  0
  2  6  2  0  0  0  0
  3  8  2  0  0  0  0
  3 16  1  0  0  0  0
  4  9  1  0  0  0  0
  4 16  2  0  0  0  0
  5 18  1  0  0  0  0
  6 20  1  0  0  0  0
  7 10  2  0  0  0  0
  7 19  1  0  0  0  0
  8 24  1  0  0  0  0
  9 24  2  0  0  0  0
 10 25  1  0  0  0  0
 11 12  2  0  0  0  0
 11 26  1  0  0  0  0
 12 27  1  0  0  0  0
 13 21  1  0  0  0  0
 13 25  2  0  0  0  0
 14 23  2  0  0  0  0
 14 31  1  0  0  0  0
 15 27  2  0  0  0  0
 15 28  1  0  0  0  0
 16 29  1  0  0  0  0
 17 29  1  0  0  0  0
 17 32  2  0  0  0  0
 17 33  1  0  0  0  0
 18 20  2  0  0  0  0
 18 38  1  0  0  0  0
 19 21  2  0  0  0  0
 19 39  1  0  0  0  0
 20 48  1  0  0  0  0
 21 40  1  0  0  0  0
 22 23  1  0  0  0  0
 22 30  2  0  0  0  0
 22 49  1  0  0  0  0
 23 54  1  0  0  0  0
 24 84  1  0  0  0  0
 25 85  1  0  0  0  0
 26 28  2  0  0  0  0
 26 84  1  0  0  0  0
 27 86  1  0  0  0  0
 28 87  1  0  0  0  0
 29 67  2  0  0  0  0
 30 55  1  0  0  0  0
 30 68  1  0  0  0  0
 31 68  2  0  0  0  0
 31 85  1  0  0  0  0
 32 69  1  0  0  0  0
 32 72  1  0  0  0  0
 33 73  1  0  0  0  0
 33 78  2  0  0  0  0
 34 50  1  0  0  0  0
 34 74  1  0  0  0  0
 34 79  2  0  0  0  0
 35 64  1  0  0  0  0
 35 70  1  0  0  0  0
 35 80  2  0  0  0  0
 36 65  1  0  0  0  0
 36 75  1  0  0  0  0
 36 81  2  0  0  0  0
 37 71  1  0  0  0  0
 37 76  1  0  0  0  0
 37 82  2  0  0  0  0
 38 41  1  0  0  0  0
 39 50  1  0  0  0  0
 40 70  1  0  0  0  0
 41 43  1  0  0  0  0
 42 44  1  0  0  0  0
 42 46  1  0  0  0  0
 43 48  1  0  0  0  0
 44 52  1  0  0  0  0
 45 49  1  0  0  0  0
 45 51  1  0  0  0  0
 46 71  1  0  0  0  0
 47 52  1  0  0  0  0
 47 71  1  0  0  0  0
 48 74  1  0  0  0  0
 49 83  1  0  0  0  0
 50 70  1  0  0  0  0
 51 53  1  0  0  0  0
 51 56  1  0  0  0  0
 52 69  1  0  0  0  0
 53 63  1  0  0  0  0
 53 83  1  0  0  0  0
 57 65  1  0  0  0  0
 58 66  1  0  0  0  0
 59 66  1  0  0  0  0
 60 66  1  0  0  0  0
 61 76  1  0  0  0  0
 62 77  1  0  0  0  0
 63 76  1  0  0  0  0
 64 66  1  0  0  0  0
 64 75  1  0  0  0  0
 65 77  1  0  0  0  0
 67 69  1  0  0  0  0
M  CHG  1  77   1
M  ISO  4  31 101  37 100  76 100  85 101
M  END
> <Batch ID>
0147

> <Smiles>
CNC(C)C(=O)NC(C(=O)N1Cc2cc([101O:1][101c:1]3cc(C)c(C4CC(C)C(C[100N:0](C)[100C:0](=O)N5CCCC(n6nc(-c7ccc(Oc8ccc(F)cc8F)cc7)c(C(N)=O)c6N)C5)O4)c(C)n3)ccc2CC1C(=O)NC1CCCc2ccccc21)C(C)(C)C

> <Shape>
0.299

> <Color>
0.080

> <Negative vol penalty>
0.000

$$$$

  -OEChem-04052321333D

 91101  0     1  0  0  0  0  0999 V2000
  -28.8901  -11.3120   19.6872 C   0  0  0  0  0  0  0  0  0  0  0  0
  -28.8764  -12.6141   19.1975 C   0  0  0  0  0  0  0  0  0  0  0  0
  -18.1704  -27.2128   21.6735 C   0  0  0  0  0  0  0  0  0  0  0  0
  -19.5011  -25.1963   21.6591 C   0  0  0  0  0  0  0  0  0  0  0  0
  -27.7347  -10.7661   20.2449 C   0  0  0  0  0  0  0  0  0  0  0  0
  -27.7070  -13.3707   19.2642 C   0  0  0  0  0  0  0  0  0  0  0  0
  -28.5410  -18.0985   20.8757 C   0  0  0  0  0  0  0  0  0  0  0  0
  -17.0117  -26.4493   21.5321 C   0  0  0  0  0  0  0  0  0  0  0  0
  -18.3423  -24.4327   21.5178 C   0  0  0  0  0  0  0  0  0  0  0  0
  -29.0648  -19.0027   19.9527 C   0  0  0  0  0  0  0  0  0  0  0  0
  -15.7052  -21.9300   21.5155 C   0  0  0  0  0  0  0  0  0  0  0  0
  -15.5762  -20.7923   22.3120 C   0  0  0  0  0  0  0  0  0  0  0  0
  -30.5648  -27.4556   19.1960 C   0  0  0  0  0  0  0  0  0  0  0  0
  -29.3680  -25.5352   20.0423 C   0  0  0  0  0  0  0  0  0  0  0  0
  -26.8574  -19.9082   19.5964 C   0  0  0  0  0  0  0  0  0  0  0  0
  -30.5477  -25.3926   17.9388 C   0  0  0  0  0  0  0  0  0  0  0  0
  -15.7164  -22.1650   24.2953 C   0  0  0  0  0  0  0  0  0  0  0  0
  -19.4151  -26.5863   21.7370 C   0  0  0  0  0  0  0  0  0  0  0  0
  -21.2279  -27.7718   23.0847 C   0  0  0  0  0  0  0  0  0  0  0  0
  -26.5532  -11.5196   20.3272 C   0  0  0  0  0  0  0  0  0  0  0  0
  -27.1676  -18.0851   21.1583 C   0  0  0  0  0  0  0  0  0  0  0  0
  -26.5343  -12.8338   19.8223 C   0  0  0  0  0  0  0  0  0  0  0  0
  -29.7726  -26.8631   20.1792 C   0  0  0  0  0  0  0  0  0  0  0  0
  -26.3192  -19.0046   20.5252 C   0  0  0  0  0  0  0  0  0  0  0  0
  -17.0977  -25.0593   21.4543 C   0  0  0  0  0  0  0  0  0  0  0  0
  -28.2225  -19.9058   19.3107 C   0  0  0  0  0  0  0  0  0  0  0  0
  -15.8399  -23.1852   22.1088 C   0  0  0  0  0  0  0  0  0  0  0  0
  -30.9524  -26.7204   18.0757 C   0  0  0  0  0  0  0  0  0  0  0  0
  -29.7555  -24.7999   18.9221 C   0  0  0  0  0  0  0  0  0  0  0  0
  -15.5817  -20.9098   23.7019 C   0  0  0  0  0  0  0  0  0  0  0  0
  -15.8455  -23.3027   23.4987 C   0  0  0  0  0  0  0  0  0  0  0  0
  -20.6125  -27.3746   21.8825 C   0  0  0  0  0  0  0  0  0  0  0  0
  -22.3241  -28.4970   22.6859 C   0  0  0  0  0  0  0  0  0  0  0  0
  -20.8431  -27.5088   24.4405 C   0  0  0  0  0  0  0  0  0  0  0  0
  -24.8328  -15.9518   20.8401 C   0  0  0  0  0  0  0  0  0  0  0  0
  -23.0998  -18.1908   22.4231 C   0  0  0  0  0  0  0  0  0  0  0  0
  -22.6898  -21.4709   23.2717 C   0  0  0  0  0  0  0  0  0  0  0  0
  -26.7750  -29.1732   19.3878 C   0  0  0  0  0  0  0  0  0  0  0  0
  -25.3162  -10.8703   20.8955 C   0  0  0  0  0  0  0  0  0  0  0  0
  -26.6224  -17.1213   22.1763 C   0  0  0  0  0  0  0  0  0  0  0  0
  -24.8405  -19.0445   20.8086 C   0  0  0  0  0  0  0  0  0  0  0  0
  -24.2220  -11.8671   21.2692 C   0  0  0  0  0  0  0  0  0  0  0  0
  -23.6268  -30.2563   18.1259 C   0  0  0  0  0  0  0  0  0  0  0  0
  -24.0168  -12.8799   20.1472 C   0  0  0  0  0  0  0  0  0  0  0  0
  -33.2150  -26.3843   24.3526 C   0  0  0  0  0  0  0  0  0  0  0  0
  -33.5030  -26.6770   22.9065 C   0  0  0  0  0  0  0  0  0  0  0  0
  -22.6132  -29.6309   19.0858 C   0  0  0  0  0  0  0  0  0  0  0  0
  -28.7599  -29.7670   22.2893 C   0  0  0  0  0  0  0  0  0  0  0  0
  -24.8162  -29.3307   17.8795 C   0  0  0  0  0  0  0  0  0  0  0  0
  -24.4819  -28.2317   20.0599 C   0  0  0  0  0  0  0  0  0  0  0  0
  -30.1952  -29.5333   22.7258 C   0  0  0  0  0  0  0  0  0  0  0  0
  -25.2921  -13.6946   19.8993 C   0  0  1  0  0  0  0  0  0  0  0  0
  -29.3573  -27.6495   21.3763 C   0  0  2  0  0  0  0  0  0  0  0  0
  -25.1304  -16.8523   22.0055 C   0  0  1  0  0  0  0  0  0  0  0  0
  -32.4215  -27.4345   23.6258 C   0  0  0  0  0  0  0  0  0  0  0  0
  -23.2916  -29.1510   20.3830 C   0  0  2  0  0  0  0  0  0  0  0  0
  -28.6381  -28.9521   21.0122 C   0  0  1  0  0  0  0  0  0  0  0  0
  -21.1599  -23.0001   24.5438 C   0  0  0  0  0  0  0  0  0  0  0  0
  -21.0674  -18.0428   20.1521 C   0  0  0  0  0  0  0  0  0  0  0  0
  -20.0997  -20.2019   20.9706 C   0  0  0  0  0  0  0  0  0  0  0  0
  -20.0670  -18.1861   22.4397 C   0  0  0  0  0  0  0  0  0  0  0  0
  -24.8512  -22.2826   25.1232 C   0  0  0  0  0  0  0  0  0  0  0  0
  -32.1034  -28.6588   17.3181 C   0  0  0  0  0  0  0  0  0  0  0  0
  -30.9672  -27.1922   23.2861 C   0  0  0  0  0  0  0  0  0  0  0  0
  -30.0767  -21.2196   18.6093 C   0  0  0  0  0  0  0  0  0  1  0  0
  -30.2304  -22.6298   18.0732 C   0  0  0  0  0  0  0  0  0  0  0  0
  -22.2574  -19.3755   22.0159 C   0  0  1  0  0  0  0  0  0  0  0  0
  -22.4118  -22.1389   24.6062 C   0  0  2  0  0  0  0  0  0  0  0  0
  -20.9004  -18.9498   21.3876 C   0  0  0  0  0  0  0  0  0  0  0  0
  -21.2635  -27.8113   20.8011 N   0  0  0  0  0  0  0  0  0  0  0  0
  -22.2994  -28.4906   21.3223 N   0  0  0  0  0  0  0  0  0  0  0  0
  -24.3542  -18.0780   21.8071 N   0  0  0  0  0  0  0  0  0  0  0  0
  -25.4153  -28.9133   19.1495 N   0  0  0  0  0  0  0  0  0  0  0  0
  -23.2970  -29.1332   23.3723 N   0  0  0  0  0  0  0  0  0  0  0  0
  -19.6897  -26.7470   24.6719 N   0  0  0  0  0  0  0  0  0  0  0  0
  -25.4451  -14.7152   20.9139 N   0  0  0  0  0  0  0  0  0  0  0  0
  -22.1293  -20.2129   23.2037 N   0  0  0  0  0  0  0  0  0  0  0  0
  -27.2614  -28.7504   20.6188 N   0  0  0  0  0  0  0  0  0  0  0  0
  -30.5460  -28.1469   22.2114 N   0  3  2  0  0  0  0  0  0  0  0  0
  -23.5587  -23.0048   25.0009 N   0  3  0  0  0  0  0  0  0  0  0  0
  -21.4934  -27.9505   25.4180 O   0  0  0  0  0  0  0  0  0  0  0  0
  -24.1005  -16.3488   19.9413 O   0  0  0  0  0  0  0  0  0  0  0  0
  -22.6639  -17.3987   23.2623 O   0  0  0  0  0  0  0  0  0  0  0  0
  -23.3361  -22.0124   22.3775 O   0  0  0  0  0  0  0  0  0  0  0  0
  -27.5002  -29.7449   18.5667 O   0  0  0  0  0  0  0  0  0  0  0  0
  -15.9672  -24.3139   21.3165 O   0  0  0  0  0  0  0  0  0  0  0  0
  -31.7253  -27.2980   17.1155 O   0  0  0  0  0  0  0  0  0  0  0  0
  -28.7310  -20.7890   18.4089 O   0  0  0  0  0  0  0  0  0  1  0  0
  -29.3570  -23.4961   18.7873 O   0  0  0  0  0  0  0  0  0  0  0  0
  -15.4562  -19.8173   24.4668 F   0  0  0  0  0  0  0  0  0  0  0  0
  -15.9734  -24.5060   24.0744 F   0  0  0  0  0  0  0  0  0  0  0  0
  1  2  1  0  0  0  0
  1  5  2  0  0  0  0
  2  6  2  0  0  0  0
  3  8  2  0  0  0  0
  3 18  1  0  0  0  0
  4  9  1  0  0  0  0
  4 18  2  0  0  0  0
  5 20  1  0  0  0  0
  6 22  1  0  0  0  0
  7 10  2  0  0  0  0
  7 21  1  0  0  0  0
  8 25  1  0  0  0  0
  9 25  2  0  0  0  0
 10 26  1  0  0  0  0
 11 12  2  0  0  0  0
 11 27  1  0  0  0  0
 12 30  1  0  0  0  0
 13 23  2  0  0  0  0
 13 28  1  0  0  0  0
 14 23  1  0  0  0  0
 14 29  2  0  0  0  0
 15 24  1  0  0  0  0
 15 26  2  0  0  0  0
 16 28  2  0  0  0  0
 16 29  1  0  0  0  0
 17 30  2  0  0  0  0
 17 31  1  0  0  0  0
 18 32  1  0  0  0  0
 19 32  1  0  0  0  0
 19 33  2  0  0  0  0
 19 34  1  0  0  0  0
 20 22  2  0  0  0  0
 20 39  1  0  0  0  0
 21 24  2  0  0  0  0
 21 40  1  0  0  0  0
 22 52  1  0  0  0  0
 23 53  1  0  0  0  0
 24 41  1  0  0  0  0
 25 86  1  0  0  0  0
 26 88  1  0  0  0  0
 27 31  2  0  0  0  0
 27 86  1  0  0  0  0
 28 87  1  0  0  0  0
 29 89  1  0  0  0  0
 30 90  1  0  0  0  0
 31 91  1  0  0  0  0
 32 70  2  0  0  0  0
 33 71  1  0  0  0  0
 33 74  1  0  0  0  0
 34 75  1  0  0  0  0
 34 81  2  0  0  0  0
 35 54  1  0  0  0  0
 35 76  1  0  0  0  0
 35 82  2  0  0  0  0
 36 67  1  0  0  0  0
 36 72  1  0  0  0  0
 36 83  2  0  0  0  0
 37 68  1  0  0  0  0
 37 77  1  0  0  0  0
 37 84  2  0  0  0  0
 38 73  1  0  0  0  0
 38 78  1  0  0  0  0
 38 85  2  0  0  0  0
 39 42  1  0  0  0  0
 40 54  1  0  0  0  0
 41 72  1  0  0  0  0
 42 44  1  0  0  0  0
 43 47  1  0  0  0  0
 43 49  1  0  0  0  0
 44 52  1  0  0  0  0
 45 46  1  0  0  0  0
 45 55  1  0  0  0  0
 46 55  1  0  0  0  0
 47 56  1  0  0  0  0
 48 51  1  0  0  0  0
 48 57  1  0  0  0  0
 49 73  1  0  0  0  0
 50 56  1  0  0  0  0
 50 73  1  0  0  0  0
 51 79  1  0  0  0  0
 52 76  1  0  0  0  0
 53 57  1  0  0  0  0
 53 79  1  0  0  0  0
 54 72  1  0  0  0  0
 55 64  1  0  0  0  0
 56 71  1  0  0  0  0
 57 78  1  0  0  0  0
 58 68  1  0  0  0  0
 59 69  1  0  0  0  0
 60 69  1  0  0  0  0
 61 69  1  0  0  0  0
 62 80  1  0  0  0  0
 63 87  1  0  0  0  0
 64 79  1  0  0  0  0
 65 66  1  0  0  0  0
 65 88  1  0  0  0  0
 66 89  1  0  0  0  0
 67 69  1  0  0  0  0
 67 77  1  0  0  0  0
 68 80  1  0  0  0  0
 70 71  1  0  0  0  0
M  CHG  2  79   1  80   1
M  ISO  4  38 100  65 101  78 100  88 101
M  END
> <Batch ID>
0147

> <Smiles>
CNC(C)C(=O)NC(C(=O)N1Cc2cc([101O:1][101CH2:1]COc3cc(OC)cc(C4C([100NH:0][100C:0](=O)N5CCCC(n6nc(-c7ccc(Oc8ccc(F)cc8F)cc7)c(C(N)=O)c6N)C5)CCN4CC4CC4)c3)ccc2CC1C(=O)NC1CCCc2ccccc21)C(C)(C)C

> <Shape>
0.239

> <Color>
0.058

> <Negative vol penalty>
0.000

$$$$

  -OEChem-04052321333D

 84 93  0     1  0  0  0  0  0999 V2000
  -28.8357  -34.3654   27.8794 C   0  0  0  0  0  0  0  0  0  0  0  0
  -28.4436  -33.1129   27.4179 C   0  0  0  0  0  0  0  0  0  0  0  0
  -24.4769   -9.5357   20.8801 C   0  0  0  0  0  0  0  0  0  0  0  0
  -24.9636  -10.3190   23.1131 C   0  0  0  0  0  0  0  0  0  0  0  0
  -28.0514  -35.4850   27.6050 C   0  0  0  0  0  0  0  0  0  0  0  0
  -27.2664  -32.9791   26.6826 C   0  0  0  0  0  0  0  0  0  0  0  0
  -27.8437  -30.0223   22.6121 C   0  0  0  0  0  0  0  0  0  0  0  0
  -24.2039   -8.2646   21.3854 C   0  0  0  0  0  0  0  0  0  0  0  0
  -24.6905   -9.0479   23.6185 C   0  0  0  0  0  0  0  0  0  0  0  0
  -27.8599  -28.6443   22.8233 C   0  0  0  0  0  0  0  0  0  0  0  0
  -21.6546   -6.7092   22.9713 C   0  0  0  0  0  0  0  0  0  0  0  0
  -20.5125   -6.0580   22.5054 C   0  0  0  0  0  0  0  0  0  0  0  0
  -25.5528  -28.5171   22.1301 C   0  0  0  0  0  0  0  0  0  0  0  0
  -26.8122  -21.0701   21.0910 C   0  0  0  0  0  0  0  0  0  0  0  0
  -28.9125  -19.8198   19.7464 C   0  0  0  0  0  0  0  0  0  0  0  0
  -21.8834   -4.2545   21.6657 C   0  0  0  0  0  0  0  0  0  0  0  0
  -24.8568  -10.5629   21.7439 C   0  0  0  0  0  0  0  0  0  0  0  0
  -24.2295  -12.9360   21.0491 C   0  0  0  0  0  0  0  0  0  0  0  0
  -26.8689  -35.3664   26.8578 C   0  0  0  0  0  0  0  0  0  0  0  0
  -26.6768  -30.6607   22.1681 C   0  0  0  0  0  0  0  0  0  0  0  0
  -26.4649  -34.0980   26.3991 C   0  0  0  0  0  0  0  0  0  0  0  0
  -25.5252  -29.9030   21.9116 C   0  0  0  0  0  0  0  0  0  0  0  0
  -27.5082  -21.7547   20.0948 C   0  0  0  0  0  0  0  0  0  0  0  0
  -27.1663  -19.7604   21.4150 C   0  0  0  0  0  0  0  0  0  0  0  0
  -28.5584  -21.1295   19.4225 C   0  0  0  0  0  0  0  0  0  0  0  0
  -28.2165  -19.1353   20.7427 C   0  0  0  0  0  0  0  0  0  0  0  0
  -24.3106   -8.0207   22.7546 C   0  0  0  0  0  0  0  0  0  0  0  0
  -26.7135  -27.8919   22.5850 C   0  0  0  0  0  0  0  0  0  0  0  0
  -22.9111   -6.1332   22.7843 C   0  0  0  0  0  0  0  0  0  0  0  0
  -20.6269   -4.8306   21.8526 C   0  0  0  0  0  0  0  0  0  0  0  0
  -23.0255   -4.9058   22.1316 C   0  0  0  0  0  0  0  0  0  0  0  0
  -25.1396  -11.8760   21.2224 C   0  0  0  0  0  0  0  0  0  0  0  0
  -24.9863  -13.9564   20.5272 C   0  0  0  0  0  0  0  0  0  0  0  0
  -22.8256  -12.9931   21.3346 C   0  0  0  0  0  0  0  0  0  0  0  0
  -24.7513  -32.8940   23.3550 C   0  0  0  0  0  0  0  0  0  0  0  0
  -23.3469  -32.6804   20.4387 C   0  0  0  0  0  0  0  0  0  0  0  0
  -22.7405  -30.8171   17.6446 C   0  0  0  0  0  0  0  0  0  0  0  0
  -29.6121  -17.0551   20.4749 C   0  0  0  0  0  0  0  0  0  0  0  0
  -26.0295  -36.5979   26.6267 C   0  0  0  0  0  0  0  0  0  0  0  0
  -26.6835  -32.1442   21.9196 C   0  0  0  0  0  0  0  0  0  0  0  0
  -24.2528  -30.5374   21.4147 C   0  0  0  0  0  0  0  0  0  0  0  0
  -24.9907  -36.4284   25.5212 C   0  0  0  0  0  0  0  0  0  0  0  0
  -29.7143  -13.9590   18.7197 C   0  0  0  0  0  0  0  0  0  0  0  0
  -24.2470  -35.1068   25.6855 C   0  0  0  0  0  0  0  0  0  0  0  0
  -28.4584  -13.2283   19.2001 C   0  0  0  0  0  0  0  0  0  0  0  0
  -27.5053  -24.2406   22.1044 C   0  0  0  0  0  0  0  0  0  0  0  0
  -27.3712  -25.6524   20.5101 C   0  0  0  0  0  0  0  0  0  0  0  0
  -30.3606  -14.7723   19.8398 C   0  0  0  0  0  0  0  0  0  0  0  0
  -28.2030  -14.9715   21.0120 C   0  0  0  0  0  0  0  0  0  0  0  0
  -25.2073  -33.9162   25.5771 C   0  0  1  0  0  0  0  0  0  0  0  0
  -25.2895  -32.7628   21.9583 C   0  0  1  0  0  0  0  0  0  0  0  0
  -27.8585  -24.1858   20.5982 C   0  0  0  0  0  0  0  0  0  0  0  0
  -27.4804  -14.1906   19.9022 C   0  0  2  0  0  0  0  0  0  0  0  0
  -27.6662  -25.7765   22.0235 C   0  0  0  0  0  0  0  0  0  1  0  0
  -26.4033  -19.0511   22.4863 C   0  0  0  0  0  0  0  0  0  0  0  0
  -29.3181  -21.8427   18.3526 C   0  0  0  0  0  0  0  0  0  0  0  0
  -21.5284  -30.8965   15.4487 C   0  0  0  0  0  0  0  0  0  0  0  0
  -20.7004  -32.2195   21.8857 C   0  0  0  0  0  0  0  0  0  0  0  0
  -19.7479  -31.3771   19.7290 C   0  0  0  0  0  0  0  0  0  0  0  0
  -20.5537  -33.7317   19.8992 C   0  0  0  0  0  0  0  0  0  0  0  0
  -25.2533  -30.4982   16.1139 C   0  0  0  0  0  0  0  0  0  0  0  0
  -27.1074  -23.1705   19.7620 C   0  0  0  0  0  0  0  0  0  0  0  0
  -22.2374  -31.8465   19.8450 C   0  0  1  0  0  0  0  0  0  0  0  0
  -22.8436  -31.1532   16.1678 C   0  0  2  0  0  0  0  0  0  0  0  0
  -20.8331  -32.2817   20.3509 C   0  0  0  0  0  0  0  0  0  0  0  0
  -26.3797  -12.1936   20.8413 N   0  0  0  0  0  0  0  0  0  0  0  0
  -26.2542  -13.4647   20.4233 N   0  0  0  0  0  0  0  0  0  0  0  0
  -24.3075  -31.9919   21.1930 N   0  0  0  0  0  0  0  0  0  0  0  0
  -29.3757  -15.6642   20.4556 N   0  0  0  0  0  0  0  0  0  0  0  0
  -24.6842  -15.2174   20.1515 N   0  0  0  0  0  0  0  0  0  0  0  0
  -22.2054  -11.8551   21.8681 N   0  0  0  0  0  0  0  0  0  0  0  0
  -28.5911  -17.8054   21.0573 N   0  0  0  0  0  0  0  0  0  0  0  0
  -25.5401  -33.6597   24.1922 N   0  0  0  0  0  0  0  0  0  0  0  0
  -22.4005  -31.9213   18.3972 N   0  0  0  0  0  0  0  0  0  0  0  0
  -23.9019  -30.3269   15.5212 N   0  3  0  0  0  0  0  0  0  0  0  0
  -22.1380  -14.0174   21.1074 O   0  0  0  0  0  0  0  0  0  0  0  0
  -23.6976  -32.3427   23.6507 O   0  0  0  0  0  0  0  0  0  0  0  0
  -23.3646  -33.8968   20.2348 O   0  0  0  0  0  0  0  0  0  0  0  0
  -22.9379  -29.6872   18.0859 O   0  0  0  0  0  0  0  0  0  0  0  0
  -30.6317  -17.5470   19.9846 O   0  0  0  0  0  0  0  0  0  0  0  0
  -24.0440   -6.7806   23.2481 O   0  0  0  0  0  0  0  0  0  0  0  0
  -26.7264  -26.5468   22.7909 O   0  0  0  0  0  0  0  0  0  1  0  0
  -19.5299   -4.2046   21.4067 F   0  0  0  0  0  0  0  0  0  0  0  0
  -24.2299   -4.3468   21.9501 F   0  0  0  0  0  0  0  0  0  0  0  0
  1  2  1  0  0  0  0
  1  5  2  0  0  0  0
  2  6  2  0  0  0  0
  3  8  2  0  0  0  0
  3 17  1  0  0  0  0
  4  9  1  0  0  0  0
  4 17  2  0  0  0  0
  5 19  1  0  0  0  0
  6 21  1  0  0  0  0
  7 10  2  0  0  0  0
  7 20  1  0  0  0  0
  8 27  1  0  0  0  0
  9 27  2  0  0  0  0
 10 28  1  0  0  0  0
 11 12  2  0  0  0  0
 11 29  1  0  0  0  0
 12 30  1  0  0  0  0
 13 22  1  0  0  0  0
 13 28  2  0  0  0  0
 14 23  1  0  0  0  0
 14 24  2  0  0  0  0
 15 25  1  0  0  0  0
 15 26  2  0  0  0  0
 16 30  2  0  0  0  0
 16 31  1  0  0  0  0
 17 32  1  0  0  0  0
 18 32  1  0  0  0  0
 18 33  2  0  0  0  0
 18 34  1  0  0  0  0
 19 21  2  0  0  0  0
 19 39  1  0  0  0  0
 20 22  2  0  0  0  0
 20 40  1  0  0  0  0
 21 50  1  0  0  0  0
 22 41  1  0  0  0  0
 23 25  2  0  0  0  0
 23 62  1  0  0  0  0
 24 26  1  0  0  0  0
 24 55  1  0  0  0  0
 25 56  1  0  0  0  0
 26 72  1  0  0  0  0
 27 81  1  0  0  0  0
 28 82  1  0  0  0  0
 29 31  2  0  0  0  0
 29 81  1  0  0  0  0
 30 83  1  0  0  0  0
 31 84  1  0  0  0  0
 32 66  2  0  0  0  0
 33 67  1  0  0  0  0
 33 70  1  0  0  0  0
 34 71  1  0  0  0  0
 34 76  2  0  0  0  0
 35 51  1  0  0  0  0
 35 73  1  0  0  0  0
 35 77  2  0  0  0  0
 36 63  1  0  0  0  0
 36 68  1  0  0  0  0
 36 78  2  0  0  0  0
 37 64  1  0  0  0  0
 37 74  1  0  0  0  0
 37 79  2  0  0  0  0
 38 69  1  0  0  0  0
 38 72  1  0  0  0  0
 38 80  2  0  0  0  0
 39 42  1  0  0  0  0
 40 51  1  0  0  0  0
 41 68  1  0  0  0  0
 42 44  1  0  0  0  0
 43 45  1  0  0  0  0
 43 48  1  0  0  0  0
 44 50  1  0  0  0  0
 45 53  1  0  0  0  0
 46 52  1  0  0  0  0
 46 54  1  0  0  0  0
 47 52  1  0  0  0  0
 47 54  1  0  0  0  0
 48 69  1  0  0  0  0
 49 53  1  0  0  0  0
 49 69  1  0  0  0  0
 50 73  1  0  0  0  0
 51 68  1  0  0  0  0
 52 62  1  0  0  0  0
 53 67  1  0  0  0  0
 54 82  1  0  0  0  0
 57 64  1  0  0  0  0
 58 65  1  0  0  0  0
 59 65  1  0  0  0  0
 60 65  1  0  0  0  0
 61 75  1  0  0  0  0
 63 65  1  0  0  0  0
 63 74  1  0  0  0  0
 64 75  1  0  0  0  0
 66 67  1  0  0  0  0
M  CHG  1  75   1
M  ISO  4  38 100  54 101  72 100  82 101
M  END
> <Batch ID>
0147

> <Smiles>
CNC(C)C(=O)NC(C(=O)N1Cc2cc([101O:1][101CH:1]3CC(Cc4cc(C)c([100NH:0][100C:0](=O)N5CCCC(n6nc(-c7ccc(Oc8ccc(F)cc8F)cc7)c(C(N)=O)c6N)C5)cc4C)C3)ccc2CC1C(=O)NC1CCCc2ccccc21)C(C)(C)C

> <Shape>
0.265

> <Color>
0.138

> <Negative vol penalty>
0.000

$$$$

  -OEChem-04052321333D

 84 93  0     1  0  0  0  0  0999 V2000
  -22.3047  -32.2919   13.8107 C   0  0  0  0  0  0  0  0  0  0  0  0
  -23.0890  -31.1587   14.0013 C   0  0  0  0  0  0  0  0  0  0  0  0
  -22.9953   -9.9716   19.9121 C   0  0  0  0  0  0  0  0  0  0  0  0
  -23.8294   -9.8216   22.1746 C   0  0  0  0  0  0  0  0  0  0  0  0
  -22.4605  -33.3951   14.6489 C   0  0  0  0  0  0  0  0  0  0  0  0
  -24.0303  -31.1286   15.0296 C   0  0  0  0  0  0  0  0  0  0  0  0
  -25.6586  -26.2737   18.3888 C   0  0  0  0  0  0  0  0  0  0  0  0
  -22.2189   -8.8321   20.1228 C   0  0  0  0  0  0  0  0  0  0  0  0
  -23.0529   -8.6821   22.3853 C   0  0  0  0  0  0  0  0  0  0  0  0
  -26.7382  -25.3955   18.3063 C   0  0  0  0  0  0  0  0  0  0  0  0
  -19.8194   -7.9620   23.0536 C   0  0  0  0  0  0  0  0  0  0  0  0
  -19.1001   -7.8811   24.2460 C   0  0  0  0  0  0  0  0  0  0  0  0
  -27.9199  -26.7030   19.9534 C   0  0  0  0  0  0  0  0  0  0  0  0
  -29.5636  -18.4749   21.2407 C   0  0  0  0  0  0  0  0  0  0  0  0
  -31.7348  -18.2126   20.2141 C   0  0  0  0  0  0  0  0  0  0  0  0
  -20.2942   -5.8634   24.8294 C   0  0  0  0  0  0  0  0  0  0  0  0
  -23.8006  -10.4663   20.9380 C   0  0  0  0  0  0  0  0  0  0  0  0
  -24.2292  -12.9810   20.9477 C   0  0  0  0  0  0  0  0  0  0  0  0
  -23.3975  -33.3748   15.6940 C   0  0  0  0  0  0  0  0  0  0  0  0
  -25.7059  -27.3811   19.2477 C   0  0  0  0  0  0  0  0  0  0  0  0
  -24.1997  -32.2331   15.8817 C   0  0  0  0  0  0  0  0  0  0  0  0
  -26.8385  -27.5923   20.0469 C   0  0  0  0  0  0  0  0  0  0  0  0
  -30.2764  -20.0070   19.5139 C   0  0  0  0  0  0  0  0  0  0  0  0
  -30.7734  -17.7893   21.1319 C   0  0  0  0  0  0  0  0  0  0  0  0
  -29.3150  -19.5837   20.4316 C   0  0  0  0  0  0  0  0  0  0  0  0
  -31.4863  -19.3214   19.4051 C   0  0  0  0  0  0  0  0  0  0  0  0
  -22.2476   -8.1874   21.3594 C   0  0  0  0  0  0  0  0  0  0  0  0
  -27.8703  -25.6116   19.0865 C   0  0  0  0  0  0  0  0  0  0  0  0
  -20.7761   -6.9935   22.7491 C   0  0  0  0  0  0  0  0  0  0  0  0
  -19.3375   -6.8319   25.1339 C   0  0  0  0  0  0  0  0  0  0  0  0
  -21.0135   -5.9443   23.6371 C   0  0  0  0  0  0  0  0  0  0  0  0
  -24.6033  -11.6430   20.7209 C   0  0  0  0  0  0  0  0  0  0  0  0
  -25.3352  -13.7123   20.5894 C   0  0  0  0  0  0  0  0  0  0  0  0
  -22.9925  -13.5152   21.4386 C   0  0  0  0  0  0  0  0  0  0  0  0
  -25.5923  -30.5330   18.8521 C   0  0  0  0  0  0  0  0  0  0  0  0
  -25.5323  -30.5463   22.0954 C   0  0  0  0  0  0  0  0  0  0  0  0
  -26.2690  -28.9371   25.0133 C   0  0  0  0  0  0  0  0  0  0  0  0
  -30.8554  -14.5309   20.6445 C   0  0  0  0  0  0  0  0  0  0  0  0
  -23.5630  -34.6092   16.5447 C   0  0  0  0  0  0  0  0  0  0  0  0
  -24.5222  -28.3041   19.3448 C   0  0  0  0  0  0  0  0  0  0  0  0
  -26.9310  -28.7550   20.9999 C   0  0  0  0  0  0  0  0  0  0  0  0
  -24.3211  -34.3556   17.8451 C   0  0  0  0  0  0  0  0  0  0  0  0
  -29.5553  -12.3269   18.1689 C   0  0  0  0  0  0  0  0  0  0  0  0
  -25.5740  -33.5268   17.5798 C   0  0  0  0  0  0  0  0  0  0  0  0
  -28.1230  -12.0582   18.6342 C   0  0  0  0  0  0  0  0  0  0  0  0
  -30.9995  -22.3327   18.6461 C   0  0  0  0  0  0  0  0  0  0  0  0
  -30.5184  -12.4473   19.3478 C   0  0  0  0  0  0  0  0  0  0  0  0
  -28.6906  -13.1625   20.8381 C   0  0  0  0  0  0  0  0  0  0  0  0
  -30.0122  -21.1857   18.6540 C   0  0  2  0  0  0  0  0  0  0  0  0
  -25.2143  -32.1528   17.0016 C   0  0  1  0  0  0  0  0  0  0  0  0
  -24.8855  -29.6881   19.8740 C   0  0  1  0  0  0  0  0  0  0  0  0
  -29.6622  -22.5092   19.3016 C   0  0  2  0  0  0  0  0  0  0  0  0
  -27.6728  -13.0889   19.6870 C   0  0  2  0  0  0  0  0  0  0  0  0
  -28.0107  -20.2990   20.5693 C   0  0  0  0  0  0  0  0  0  0  0  0
  -32.5336  -19.7527   18.4310 C   0  0  0  0  0  0  0  0  0  0  0  0
  -26.1363  -29.2146   27.5038 C   0  0  0  0  0  0  0  0  0  0  0  0
  -27.9104  -32.4560   22.0068 C   0  0  0  0  0  0  0  0  0  0  0  0
  -28.3202  -31.9468   24.4237 C   0  0  0  0  0  0  0  0  0  0  0  0
  -26.1812  -33.0220   23.7226 C   0  0  0  0  0  0  0  0  0  0  0  0
  -24.5128  -26.5722   25.2998 C   0  0  0  0  0  0  0  0  0  0  0  0
  -31.0391  -16.6038   21.9968 C   0  0  0  0  0  0  0  0  0  0  0  0
  -28.6373  -23.3968   18.6837 C   0  0  0  0  0  0  0  0  0  1  0  0
  -26.5777  -30.5839   23.1838 C   0  0  1  0  0  0  0  0  0  0  0  0
  -25.4412  -28.6828   26.2601 C   0  0  2  0  0  0  0  0  0  0  0  0
  -27.2467  -31.9813   23.3150 C   0  0  0  0  0  0  0  0  0  0  0  0
  -25.8496  -11.5280   20.2544 N   0  0  0  0  0  0  0  0  0  0  0  0
  -26.2682  -12.8032   20.1851 N   0  0  0  0  0  0  0  0  0  0  0  0
  -25.7504  -29.6328   21.0543 N   0  0  0  0  0  0  0  0  0  0  0  0
  -30.0346  -13.4417   20.3084 N   0  0  0  0  0  0  0  0  0  0  0  0
  -25.5911  -15.0378   20.5837 N   0  0  0  0  0  0  0  0  0  0  0  0
  -21.9600  -12.6233   21.7593 N   0  0  0  0  0  0  0  0  0  0  0  0
  -24.7443  -31.2712   18.0487 N   0  0  0  0  0  0  0  0  0  0  0  0
  -25.9178  -30.1209   24.3998 N   0  0  0  0  0  0  0  0  0  0  0  0
  -30.3179  -15.4300   21.5574 N   0  0  0  0  0  0  0  0  0  0  0  0
  -25.2104  -27.2214   26.4395 N   0  3  0  0  0  0  0  0  0  0  0  0
  -22.8028  -14.7479   21.5728 O   0  0  0  0  0  0  0  0  0  0  0  0
  -26.8164  -30.5176   18.7976 O   0  0  0  0  0  0  0  0  0  0  0  0
  -24.5546  -31.2947   22.1699 O   0  0  0  0  0  0  0  0  0  0  0  0
  -27.1426  -28.1647   24.6247 O   0  0  0  0  0  0  0  0  0  0  0  0
  -31.9815  -14.6931   20.1624 O   0  0  0  0  0  0  0  0  0  0  0  0
  -21.4899   -7.0756   21.5653 O   0  0  0  0  0  0  0  0  0  0  0  0
  -28.9258  -24.7564   19.0074 O   0  0  0  0  0  0  0  0  0  1  0  0
  -18.6478   -6.7552   26.2796 F   0  0  0  0  0  0  0  0  0  0  0  0
  -21.9321   -5.0116   23.3506 F   0  0  0  0  0  0  0  0  0  0  0  0
  1  2  1  0  0  0  0
  1  5  2  0  0  0  0
  2  6  2  0  0  0  0
  3  8  2  0  0  0  0
  3 17  1  0  0  0  0
  4  9  1  0  0  0  0
  4 17  2  0  0  0  0
  5 19  1  0  0  0  0
  6 21  1  0  0  0  0
  7 10  2  0  0  0  0
  7 20  1  0  0  0  0
  8 27  1  0  0  0  0
  9 27  2  0  0  0  0
 10 28  1  0  0  0  0
 11 12  2  0  0  0  0
 11 29  1  0  0  0  0
 12 30  1  0  0  0  0
 13 22  1  0  0  0  0
 13 28  2  0  0  0  0
 14 24  1  0  0  0  0
 14 25  2  0  0  0  0
 15 24  2  0  0  0  0
 15 26  1  0  0  0  0
 16 30  2  0  0  0  0
 16 31  1  0  0  0  0
 17 32  1  0  0  0  0
 18 32  1  0  0  0  0
 18 33  2  0  0  0  0
 18 34  1  0  0  0  0
 19 21  2  0  0  0  0
 19 39  1  0  0  0  0
 20 22  2  0  0  0  0
 20 40  1  0  0  0  0
 21 50  1  0  0  0  0
 22 41  1  0  0  0  0
 23 25  1  0  0  0  0
 23 26  2  0  0  0  0
 23 49  1  0  0  0  0
 24 61  1  0  0  0  0
 25 54  1  0  0  0  0
 26 55  1  0  0  0  0
 27 81  1  0  0  0  0
 28 82  1  0  0  0  0
 29 31  2  0  0  0  0
 29 81  1  0  0  0  0
 30 83  1  0  0  0  0
 31 84  1  0  0  0  0
 32 66  2  0  0  0  0
 33 67  1  0  0  0  0
 33 70  1  0  0  0  0
 34 71  1  0  0  0  0
 34 76  2  0  0  0  0
 35 51  1  0  0  0  0
 35 72  1  0  0  0  0
 35 77  2  0  0  0  0
 36 63  1  0  0  0  0
 36 68  1  0  0  0  0
 36 78  2  0  0  0  0
 37 64  1  0  0  0  0
 37 73  1  0  0  0  0
 37 79  2  0  0  0  0
 38 69  1  0  0  0  0
 38 74  1  0  0  0  0
 38 80  2  0  0  0  0
 39 42  1  0  0  0  0
 40 51  1  0  0  0  0
 41 68  1  0  0  0  0
 42 44  1  0  0  0  0
 43 45  1  0  0  0  0
 43 47  1  0  0  0  0
 44 50  1  0  0  0  0
 45 53  1  0  0  0  0
 46 49  1  0  0  0  0
 46 52  1  0  0  0  0
 47 69  1  0  0  0  0
 48 53  1  0  0  0  0
 48 69  1  0  0  0  0
 49 52  1  0  0  0  0
 50 72  1  0  0  0  0
 51 68  1  0  0  0  0
 52 62  1  0  0  0  0
 53 67  1  0  0  0  0
 56 64  1  0  0  0  0
 57 65  1  0  0  0  0
 58 65  1  0  0  0  0
 59 65  1  0  0  0  0
 60 75  1  0  0  0  0
 61 74  1  0  0  0  0
 62 82  1  0  0  0  0
 63 65  1  0  0  0  0
 63 73  1  0  0  0  0
 64 75  1  0  0  0  0
 66 67  1  0  0  0  0
M  CHG  1  75   1
M  ISO  4  38 100  62 101  74 100  82 101
M  END
> <Batch ID>
0147

> <Smiles>
CNC(C)C(=O)NC(C(=O)N1Cc2cc([101O:1][101CH2:1]C3CC3c3c(C)cc(C[100NH:0][100C:0](=O)N4CCCC(n5nc(-c6ccc(Oc7ccc(F)cc7F)cc6)c(C(N)=O)c5N)C4)cc3C)ccc2CC1C(=O)NC1CCCc2ccccc21)C(C)(C)C

> <Shape>
0.340

> <Color>
0.220

> <Negative vol penalty>
0.000

$$$$

  -OEChem-04052321333D

 86 95  0     1  0  0  0  0  0999 V2000
  -14.9117  -26.7155   23.0782 C   0  0  0  0  0  0  0  0  0  0  0  0
  -15.7362  -26.2186   22.0738 C   0  0  0  0  0  0  0  0  0  0  0  0
  -26.1024  -13.2451   21.0032 C   0  0  0  0  0  0  0  0  0  0  0  0
  -24.3607  -14.9004   21.2551 C   0  0  0  0  0  0  0  0  0  0  0  0
  -15.3325  -27.7954   23.8533 C   0  0  0  0  0  0  0  0  0  0  0  0
  -16.9816  -26.8020   21.8433 C   0  0  0  0  0  0  0  0  0  0  0  0
  -22.1082  -23.9579   20.0726 C   0  0  0  0  0  0  0  0  0  0  0  0
  -25.2545  -12.2723   21.5327 C   0  0  0  0  0  0  0  0  0  0  0  0
  -23.5128  -13.9277   21.7846 C   0  0  0  0  0  0  0  0  0  0  0  0
  -22.7162  -23.8098   18.8267 C   0  0  0  0  0  0  0  0  0  0  0  0
  -22.6710  -10.3706   20.4641 C   0  0  0  0  0  0  0  0  0  0  0  0
  -22.6143   -9.1373   19.8151 C   0  0  0  0  0  0  0  0  0  0  0  0
  -24.1436  -25.6944   19.3060 C   0  0  0  0  0  0  0  0  0  0  0  0
  -28.5078  -23.1875   17.9779 C   0  0  0  0  0  0  0  0  0  0  0  0
  -23.3691   -8.0415   21.8317 C   0  0  0  0  0  0  0  0  0  0  0  0
  -25.6555  -14.5591   20.8644 C   0  0  0  0  0  0  0  0  0  0  0  0
  -26.6747  -15.9219   18.9639 C   0  0  0  0  0  0  0  0  0  0  0  0
  -16.5877  -28.3861   23.6385 C   0  0  0  0  0  0  0  0  0  0  0  0
  -22.5065  -24.9839   20.9415 C   0  0  0  0  0  0  0  0  0  0  0  0
  -17.4190  -27.8916   22.6154 C   0  0  0  0  0  0  0  0  0  0  0  0
  -23.5409  -25.8519   20.5633 C   0  0  0  0  0  0  0  0  0  0  0  0
  -28.6600  -24.3186   17.1652 C   0  0  0  0  0  0  0  0  0  0  0  0
  -29.6353  -25.2651   17.5242 C   0  0  0  0  0  0  0  0  0  0  0  0
  -23.9597  -12.6136   21.9234 C   0  0  0  0  0  0  0  0  0  0  0  0
  -23.7321  -24.6799   18.4420 C   0  0  0  0  0  0  0  0  0  0  0  0
  -23.0769  -10.4395   21.7969 C   0  0  0  0  0  0  0  0  0  0  0  0
  -22.9633   -7.9727   20.4989 C   0  0  0  0  0  0  0  0  0  0  0  0
  -23.4259   -9.2749   22.4807 C   0  0  0  0  0  0  0  0  0  0  0  0
  -26.5311  -15.5645   20.3179 C   0  0  0  0  0  0  0  0  0  0  0  0
  -29.2836  -23.0714   19.1217 C   0  0  0  0  0  0  0  0  0  0  0  0
  -30.3511  -25.0520   18.7021 C   0  0  0  0  0  0  0  0  0  0  0  0
  -27.6207  -16.9176   18.9700 C   0  0  0  0  0  0  0  0  0  0  0  0
  -26.0120  -15.4005   17.8043 C   0  0  0  0  0  0  0  0  0  0  0  0
  -21.0745  -27.5091   22.2364 C   0  0  0  0  0  0  0  0  0  0  0  0
  -23.8766  -27.7832   23.8475 C   0  0  0  0  0  0  0  0  0  0  0  0
  -27.2203  -27.1128   23.9795 C   0  0  0  0  0  0  0  0  0  0  0  0
  -29.7560  -21.5947   21.1073 C   0  0  0  0  0  0  0  0  0  0  0  0
  -16.9793  -29.5816   24.4705 C   0  0  0  0  0  0  0  0  0  0  0  0
  -21.8590  -25.1138   22.2929 C   0  0  0  0  0  0  0  0  0  0  0  0
  -29.8951  -26.5056   16.7158 C   0  0  0  0  0  0  0  0  0  0  0  0
  -24.0192  -26.9571   21.4679 C   0  0  0  0  0  0  0  0  0  0  0  0
  -18.4702  -29.9037   24.4102 C   0  0  0  0  0  0  0  0  0  0  0  0
  -29.3751  -26.3938   15.2875 C   0  0  0  0  0  0  0  0  0  0  0  0
  -30.6825  -18.5297   22.6644 C   0  0  0  0  0  0  0  0  0  0  0  0
  -27.9380  -25.8927   15.2964 C   0  0  0  0  0  0  0  0  0  0  0  0
  -18.9647  -29.8747   22.9675 C   0  0  0  0  0  0  0  0  0  0  0  0
  -29.6968  -17.5144   22.0813 C   0  0  0  0  0  0  0  0  0  0  0  0
  -30.0259  -19.8897   22.8948 C   0  0  0  0  0  0  0  0  0  0  0  0
  -28.3540  -19.4386   21.1425 C   0  0  0  0  0  0  0  0  0  0  0  0
  -27.8502  -24.4719   15.8853 C   0  0  2  0  0  0  0  0  0  0  0  0
  -18.7873  -28.4817   22.3513 C   0  0  1  0  0  0  0  0  0  0  0  0
  -21.9917  -26.5126   22.8871 C   0  0  1  0  0  0  0  0  0  0  0  0
  -28.9863  -18.0719   20.8324 C   0  0  2  0  0  0  0  0  0  0  0  0
  -32.9921  -26.7862   20.5688 C   0  0  0  0  0  0  0  0  0  0  0  0
  -29.2521  -27.4985   25.4009 C   0  0  0  0  0  0  0  0  0  0  0  0
  -24.0212  -30.6648   22.8547 C   0  0  0  0  0  0  0  0  0  0  0  0
  -26.4451  -30.6856   23.4813 C   0  0  0  0  0  0  0  0  0  0  0  0
  -24.7073  -30.3470   25.2386 C   0  0  0  0  0  0  0  0  0  0  0  0
  -27.6231  -24.2104   24.3952 C   0  0  0  0  0  0  0  0  0  0  0  0
  -26.3694  -24.1037   16.0462 C   0  0  0  0  0  0  0  0  0  0  0  0
  -31.9880  -25.6838   20.3079 C   0  0  0  0  0  0  0  0  0  0  0  0
  -25.6914  -24.9413   17.1197 C   0  0  0  0  0  0  0  0  0  1  0  0
  -25.1894  -28.4854   23.5973 C   0  0  1  0  0  0  0  0  0  0  0  0
  -28.0941  -26.5623   25.0921 C   0  0  2  0  0  0  0  0  0  0  0  0
  -25.0806  -30.0262   23.7749 C   0  0  0  0  0  0  0  0  0  0  0  0
  -27.3228  -16.2753   21.1255 N   0  0  0  0  0  0  0  0  0  0  0  0
  -30.1986  -23.9811   19.5099 N   0  0  0  0  0  0  0  0  0  0  0  0
  -27.9729  -17.0892   20.2764 N   0  0  0  0  0  0  0  0  0  0  0  0
  -23.3505  -27.0471   22.7764 N   0  0  0  0  0  0  0  0  0  0  0  0
  -29.3767  -20.3567   21.6679 N   0  0  0  0  0  0  0  0  0  0  0  0
  -28.1775  -17.6543   17.9852 N   0  0  0  0  0  0  0  0  0  0  0  0
  -25.0676  -14.3794   17.9770 N   0  0  0  0  0  0  0  0  0  0  0  0
  -29.0939  -21.9187   19.9236 N   0  0  0  0  0  0  0  0  0  0  0  0
  -19.8238  -27.5865   22.8189 N   0  0  0  0  0  0  0  0  0  0  0  0
  -26.1659  -27.8501   24.4755 N   0  0  0  0  0  0  0  0  0  0  0  0
  -28.6524  -25.2362   24.7041 N   0  3  0  0  0  0  0  0  0  0  0  0
  -26.2623  -15.8160   16.6475 O   0  0  0  0  0  0  0  0  0  0  0  0
  -21.4726  -28.1605   21.2779 O   0  0  0  0  0  0  0  0  0  0  0  0
  -23.3414  -27.8783   24.9548 O   0  0  0  0  0  0  0  0  0  0  0  0
  -27.4521  -26.9122   22.7893 O   0  0  0  0  0  0  0  0  0  0  0  0
  -30.6252  -22.3018   21.6236 O   0  0  0  0  0  0  0  0  0  0  0  0
  -23.1320  -11.6646   22.4400 O   0  0  0  0  0  0  0  0  0  0  0  0
  -24.3268  -24.5379   17.2263 O   0  0  0  0  0  0  0  0  0  1  0  0
  -31.2964  -25.9641   19.0975 O   0  0  0  0  0  0  0  0  0  0  0  0
  -22.9072   -6.7882   19.8760 F   0  0  0  0  0  0  0  0  0  0  0  0
  -23.8154   -9.3346   23.7615 F   0  0  0  0  0  0  0  0  0  0  0  0
  1  2  1  0  0  0  0
  1  5  2  0  0  0  0
  2  6  2  0  0  0  0
  3  8  2  0  0  0  0
  3 16  1  0  0  0  0
  4  9  1  0  0  0  0
  4 16  2  0  0  0  0
  5 18  1  0  0  0  0
  6 20  1  0  0  0  0
  7 10  2  0  0  0  0
  7 19  1  0  0  0  0
  8 24  1  0  0  0  0
  9 24  2  0  0  0  0
 10 25  1  0  0  0  0
 11 12  2  0  0  0  0
 11 26  1  0  0  0  0
 12 27  1  0  0  0  0
 13 21  1  0  0  0  0
 13 25  2  0  0  0  0
 14 22  2  0  0  0  0
 14 30  1  0  0  0  0
 15 27  2  0  0  0  0
 15 28  1  0  0  0  0
 16 29  1  0  0  0  0
 17 29  1  0  0  0  0
 17 32  2  0  0  0  0
 17 33  1  0  0  0  0
 18 20  2  0  0  0  0
 18 38  1  0  0  0  0
 19 21  2  0  0  0  0
 19 39  1  0  0  0  0
 20 51  1  0  0  0  0
 21 41  1  0  0  0  0
 22 23  1  0  0  0  0
 22 50  1  0  0  0  0
 23 31  2  0  0  0  0
 23 40  1  0  0  0  0
 24 82  1  0  0  0  0
 25 83  1  0  0  0  0
 26 28  2  0  0  0  0
 26 82  1  0  0  0  0
 27 85  1  0  0  0  0
 28 86  1  0  0  0  0
 29 66  2  0  0  0  0
 30 67  2  0  0  0  0
 30 73  1  0  0  0  0
 31 67  1  0  0  0  0
 31 84  1  0  0  0  0
 32 68  1  0  0  0  0
 32 71  1  0  0  0  0
 33 72  1  0  0  0  0
 33 77  2  0  0  0  0
 34 52  1  0  0  0  0
 34 74  1  0  0  0  0
 34 78  2  0  0  0  0
 35 63  1  0  0  0  0
 35 69  1  0  0  0  0
 35 79  2  0  0  0  0
 36 64  1  0  0  0  0
 36 75  1  0  0  0  0
 36 80  2  0  0  0  0
 37 70  1  0  0  0  0
 37 73  1  0  0  0  0
 37 81  2  0  0  0  0
 38 42  1  0  0  0  0
 39 52  1  0  0  0  0
 40 43  1  0  0  0  0
 41 69  1  0  0  0  0
 42 46  1  0  0  0  0
 43 45  1  0  0  0  0
 44 47  1  0  0  0  0
 44 48  1  0  0  0  0
 45 50  1  0  0  0  0
 46 51  1  0  0  0  0
 47 53  1  0  0  0  0
 48 70  1  0  0  0  0
 49 53  1  0  0  0  0
 49 70  1  0  0  0  0
 50 60  1  0  0  0  0
 51 74  1  0  0  0  0
 52 69  1  0  0  0  0
 53 68  1  0  0  0  0
 54 61  1  0  0  0  0
 55 64  1  0  0  0  0
 56 65  1  0  0  0  0
 57 65  1  0  0  0  0
 58 65  1  0  0  0  0
 59 76  1  0  0  0  0
 60 62  1  0  0  0  0
 61 84  1  0  0  0  0
 62 83  1  0  0  0  0
 63 65  1  0  0  0  0
 63 75  1  0  0  0  0
 64 76  1  0  0  0  0
 66 68  1  0  0  0  0
M  CHG  1  76   1
M  ISO  4  37 100  62 101  73 100  83 101
M  END
> <Batch ID>
0147

> <Smiles>
CCOc1nc([100NH:0][100C:0](=O)N2CCCC(n3nc(-c4ccc(Oc5ccc(F)cc5F)cc4)c(C(N)=O)c3N)C2)cc2c1CCCC2C[101CH2:1][101O:1]c1ccc2c(c1)CN(C(=O)C(NC(=O)C(C)NC)C(C)(C)C)C(C(=O)NC1CCCc3ccccc31)C2

> <Shape>
0.251

> <Color>
0.050

> <Negative vol penalty>
0.000

$$$$

  -OEChem-04052321333D

 89 99  0     1  0  0  0  0  0999 V2000
  -29.0397  -35.4810   17.7139 C   0  0  0  0  0  0  0  0  0  0  0  0
  -29.2063  -34.3301   18.4775 C   0  0  0  0  0  0  0  0  0  0  0  0
  -22.6389  -16.0736   22.3930 C   0  0  0  0  0  0  0  0  0  0  0  0
  -21.7983  -15.5808   20.1822 C   0  0  0  0  0  0  0  0  0  0  0  0
  -27.9196  -36.2883   17.9071 C   0  0  0  0  0  0  0  0  0  0  0  0
  -28.2533  -33.9866   19.4358 C   0  0  0  0  0  0  0  0  0  0  0  0
  -27.0486  -29.0697   19.3019 C   0  0  0  0  0  0  0  0  0  0  0  0
  -21.5053  -16.8438   22.6524 C   0  0  0  0  0  0  0  0  0  0  0  0
  -20.6646  -16.3509   20.4416 C   0  0  0  0  0  0  0  0  0  0  0  0
  -27.9470  -28.1779   19.8861 C   0  0  0  0  0  0  0  0  0  0  0  0
  -19.0009  -19.2337   23.7659 C   0  0  0  0  0  0  0  0  0  0  0  0
  -19.1839  -20.4756   24.3740 C   0  0  0  0  0  0  0  0  0  0  0  0
  -29.8826  -21.9290   21.8183 C   0  0  0  0  0  0  0  0  0  0  0  0
  -26.5618  -28.0841   21.8588 C   0  0  0  0  0  0  0  0  0  0  0  0
  -31.7945  -23.1384   22.6558 C   0  0  0  0  0  0  0  0  0  0  0  0
  -20.5548  -21.1838   22.5149 C   0  0  0  0  0  0  0  0  0  0  0  0
  -22.7855  -15.4421   21.1579 C   0  0  0  0  0  0  0  0  0  0  0  0
  -24.1236  -13.2704   21.1323 C   0  0  0  0  0  0  0  0  0  0  0  0
  -26.9475  -35.9494   18.8615 C   0  0  0  0  0  0  0  0  0  0  0  0
  -25.9037  -29.4846   19.9973 C   0  0  0  0  0  0  0  0  0  0  0  0
  -27.1198  -34.7909   19.6429 C   0  0  0  0  0  0  0  0  0  0  0  0
  -30.5735  -20.7144   21.9488 C   0  0  0  0  0  0  0  0  0  0  0  0
  -25.6491  -28.9793   21.2802 C   0  0  0  0  0  0  0  0  0  0  0  0
  -31.9001  -20.7217   22.4174 C   0  0  0  0  0  0  0  0  0  0  0  0
  -32.4956  -21.9394   22.7803 C   0  0  0  0  0  0  0  0  0  0  0  0
  -20.5181  -16.9824   21.6767 C   0  0  0  0  0  0  0  0  0  0  0  0
  -27.7052  -27.6872   21.1659 C   0  0  0  0  0  0  0  0  0  0  0  0
  -19.5949  -18.9668   22.5324 C   0  0  0  0  0  0  0  0  0  0  0  0
  -30.4895  -23.1335   22.1726 C   0  0  0  0  0  0  0  0  0  0  0  0
  -19.9608  -21.4507   23.7485 C   0  0  0  0  0  0  0  0  0  0  0  0
  -20.3718  -19.9419   21.9069 C   0  0  0  0  0  0  0  0  0  0  0  0
  -23.9566  -14.6469   20.8891 C   0  0  0  0  0  0  0  0  0  0  0  0
  -25.4008  -12.9990   20.7062 C   0  0  0  0  0  0  0  0  0  0  0  0
  -23.2062  -12.3219   21.6930 C   0  0  0  0  0  0  0  0  0  0  0  0
  -24.8080  -32.2760   21.0513 C   0  0  0  0  0  0  0  0  0  0  0  0
  -22.1884  -30.5194   21.8093 C   0  0  0  0  0  0  0  0  0  0  0  0
  -20.8645  -27.4613   22.5454 C   0  0  0  0  0  0  0  0  0  0  0  0
  -30.1223  -16.8247   20.0541 C   0  0  0  0  0  0  0  0  0  0  0  0
  -25.7774  -36.8784   19.0674 C   0  0  0  0  0  0  0  0  0  0  0  0
  -24.9307  -30.4264   19.3426 C   0  0  0  0  0  0  0  0  0  0  0  0
  -29.8930  -19.4359   21.5224 C   0  0  0  0  0  0  0  0  0  0  0  0
  -32.6797  -19.4438   22.5983 C   0  0  0  0  0  0  0  0  0  0  0  0
  -24.4242  -29.3777   22.0608 C   0  0  0  0  0  0  0  0  0  0  0  0
  -24.6253  -36.2443   19.8427 C   0  0  0  0  0  0  0  0  0  0  0  0
  -32.0884  -18.2595   21.8337 C   0  0  0  0  0  0  0  0  0  0  0  0
  -28.7103  -14.4730   17.5859 C   0  0  0  0  0  0  0  0  0  0  0  0
  -25.1496  -35.5110   21.0732 C   0  0  0  0  0  0  0  0  0  0  0  0
  -27.3202  -14.1854   18.1524 C   0  0  0  0  0  0  0  0  0  0  0  0
  -29.9504  -14.4710   22.0087 C   0  0  0  0  0  0  0  0  0  0  0  0
  -30.7634  -15.1353   23.0793 C   0  0  0  0  0  0  0  0  0  0  0  0
  -29.2058  -15.8638   17.9726 C   0  0  0  0  0  0  0  0  0  0  0  0
  -27.7878  -15.8471   19.9944 C   0  0  0  0  0  0  0  0  0  0  0  0
  -26.0955  -34.3716   20.6750 C   0  0  1  0  0  0  0  0  0  0  0  0
  -24.0617  -31.1797   20.3450 C   0  0  1  0  0  0  0  0  0  0  0  0
  -27.2808  -14.4341   19.6708 C   0  0  1  0  0  0  0  0  0  0  0  0
  -30.5804  -18.1794   22.0655 C   0  0  2  0  0  0  0  0  0  0  0  0
  -29.6893  -15.9089   22.3649 C   0  0  0  0  0  0  0  0  0  0  0  0
  -18.7008  -26.3469   23.1571 C   0  0  0  0  0  0  0  0  0  0  0  0
  -22.4295  -31.6145   24.6470 C   0  0  0  0  0  0  0  0  0  0  0  0
  -20.8925  -29.7902   25.4070 C   0  0  0  0  0  0  0  0  0  0  0  0
  -20.0903  -31.4936   23.7707 C   0  0  0  0  0  0  0  0  0  0  0  0
  -20.9230  -25.7588   20.1252 C   0  0  0  0  0  0  0  0  0  0  0  0
  -33.8899  -21.9987   23.3190 C   0  0  0  0  0  0  0  0  0  0  0  0
  -29.7266  -26.4495   20.9717 C   0  0  0  0  0  0  0  0  0  1  0  0
  -30.5686  -25.4768   21.7745 C   0  0  0  0  0  0  0  0  0  0  0  0
  -21.7415  -29.7332   23.0181 C   0  0  1  0  0  0  0  0  0  0  0  0
  -19.6324  -26.7448   22.0228 C   0  0  2  0  0  0  0  0  0  0  0  0
  -21.3126  -30.6517   24.1971 C   0  0  0  0  0  0  0  0  0  0  0  0
  -25.0410  -15.2107   20.3506 N   0  0  0  0  0  0  0  0  0  0  0  0
  -25.9018  -14.1833   20.2518 N   0  0  0  0  0  0  0  0  0  0  0  0
  -23.5060  -30.3058   21.3802 N   0  0  0  0  0  0  0  0  0  0  0  0
  -29.1195  -16.0769   19.4176 N   0  0  0  0  0  0  0  0  0  0  0  0
  -26.1330  -11.8651   20.6798 N   0  0  0  0  0  0  0  0  0  0  0  0
  -21.9347  -12.7690   22.0776 N   0  0  0  0  0  0  0  0  0  0  0  0
  -25.3412  -33.2294   20.2051 N   0  0  0  0  0  0  0  0  0  0  0  0
  -20.6947  -28.8296   22.5532 N   0  0  0  0  0  0  0  0  0  0  0  0
  -30.0194  -16.9837   21.4470 N   0  0  0  0  0  0  0  0  0  0  0  0
  -20.0248  -25.5123   21.2826 N   0  3  0  0  0  0  0  0  0  0  0  0
  -23.5108  -11.1171   21.8636 O   0  0  0  0  0  0  0  0  0  0  0  0
  -24.8924  -32.2590   22.2738 O   0  0  0  0  0  0  0  0  0  0  0  0
  -21.3953  -31.2892   21.2616 O   0  0  0  0  0  0  0  0  0  0  0  0
  -21.8749  -26.8664   22.9135 O   0  0  0  0  0  0  0  0  0  0  0  0
  -31.0713  -17.3036   19.4198 O   0  0  0  0  0  0  0  0  0  0  0  0
  -33.8933  -21.5315   24.6608 O   0  0  0  0  0  0  0  0  0  0  0  0
  -19.4116  -17.7336   21.9296 O   0  0  0  0  0  0  0  0  0  0  0  0
  -28.5808  -26.8171   21.7387 O   0  0  0  0  0  0  0  0  0  1  0  0
  -29.8003  -24.3107   22.0451 O   0  0  0  0  0  0  0  0  0  0  0  0
  -20.1352  -22.6438   24.3318 F   0  0  0  0  0  0  0  0  0  0  0  0
  -20.9440  -19.6917   20.7212 F   0  0  0  0  0  0  0  0  0  0  0  0
  1  2  1  0  0  0  0
  1  5  2  0  0  0  0
  2  6  2  0  0  0  0
  3  8  2  0  0  0  0
  3 17  1  0  0  0  0
  4  9  1  0  0  0  0
  4 17  2  0  0  0  0
  5 19  1  0  0  0  0
  6 21  1  0  0  0  0
  7 10  2  0  0  0  0
  7 20  1  0  0  0  0
  8 26  1  0  0  0  0
  9 26  2  0  0  0  0
 10 27  1  0  0  0  0
 11 12  2  0  0  0  0
 11 28  1  0  0  0  0
 12 30  1  0  0  0  0
 13 22  1  0  0  0  0
 13 29  2  0  0  0  0
 14 23  1  0  0  0  0
 14 27  2  0  0  0  0
 15 25  2  0  0  0  0
 15 29  1  0  0  0  0
 16 30  2  0  0  0  0
 16 31  1  0  0  0  0
 17 32  1  0  0  0  0
 18 32  1  0  0  0  0
 18 33  2  0  0  0  0
 18 34  1  0  0  0  0
 19 21  2  0  0  0  0
 19 39  1  0  0  0  0
 20 23  2  0  0  0  0
 20 40  1  0  0  0  0
 21 53  1  0  0  0  0
 22 24  2  0  0  0  0
 22 41  1  0  0  0  0
 23 43  1  0  0  0  0
 24 25  1  0  0  0  0
 24 42  1  0  0  0  0
 25 63  1  0  0  0  0
 26 85  1  0  0  0  0
 27 86  1  0  0  0  0
 28 31  2  0  0  0  0
 28 85  1  0  0  0  0
 29 87  1  0  0  0  0
 30 88  1  0  0  0  0
 31 89  1  0  0  0  0
 32 69  2  0  0  0  0
 33 70  1  0  0  0  0
 33 73  1  0  0  0  0
 34 74  1  0  0  0  0
 34 79  2  0  0  0  0
 35 54  1  0  0  0  0
 35 75  1  0  0  0  0
 35 80  2  0  0  0  0
 36 66  1  0  0  0  0
 36 71  1  0  0  0  0
 36 81  2  0  0  0  0
 37 67  1  0  0  0  0
 37 76  1  0  0  0  0
 37 82  2  0  0  0  0
 38 72  1  0  0  0  0
 38 77  1  0  0  0  0
 38 83  2  0  0  0  0
 39 44  1  0  0  0  0
 40 54  1  0  0  0  0
 41 56  1  0  0  0  0
 42 45  1  0  0  0  0
 43 71  1  0  0  0  0
 44 47  1  0  0  0  0
 45 56  1  0  0  0  0
 46 48  1  0  0  0  0
 46 51  1  0  0  0  0
 47 53  1  0  0  0  0
 48 55  1  0  0  0  0
 49 50  1  0  0  0  0
 49 57  1  0  0  0  0
 50 57  1  0  0  0  0
 51 72  1  0  0  0  0
 52 55  1  0  0  0  0
 52 72  1  0  0  0  0
 53 75  1  0  0  0  0
 54 71  1  0  0  0  0
 55 70  1  0  0  0  0
 56 77  1  0  0  0  0
 57 77  1  0  0  0  0
 58 67  1  0  0  0  0
 59 68  1  0  0  0  0
 60 68  1  0  0  0  0
 61 68  1  0  0  0  0
 62 78  1  0  0  0  0
 63 84  1  0  0  0  0
 64 65  1  0  0  0  0
 64 86  1  0  0  0  0
 65 87  1  0  0  0  0
 66 68  1  0  0  0  0
 66 76  1  0  0  0  0
 67 78  1  0  0  0  0
 69 70  1  0  0  0  0
M  CHG  1  78   1
M  ISO  4  38 100  64 101  77 100  86 101
M  END
> <Batch ID>
0147

> <Smiles>
CNC(C)C(=O)NC(C(=O)N1Cc2cc([101O:1][101CH2:1]COc3cc(CO)c4c(c3)CC([100N:0](C3CC3)[100C:0](=O)N3CCCC(n5nc(-c6ccc(Oc7ccc(F)cc7F)cc6)c(C(N)=O)c5N)C3)CC4)ccc2CC1C(=O)NC1CCCc2ccccc21)C(C)(C)C

> <Shape>
0.228

> <Color>
0.098

> <Negative vol penalty>
0.000

$$$$

  -OEChem-04052321333D

 86 95  0     1  0  0  0  0  0999 V2000
  -40.2723  -28.7866   20.8690 C   0  0  0  0  0  0  0  0  0  0  0  0
  -39.7130  -27.9903   21.8633 C   0  0  0  0  0  0  0  0  0  0  0  0
  -23.1561   -9.8633   19.9613 C   0  0  0  0  0  0  0  0  0  0  0  0
  -23.8329   -9.9600   22.2786 C   0  0  0  0  0  0  0  0  0  0  0  0
  -39.5219  -29.1241   19.7435 C   0  0  0  0  0  0  0  0  0  0  0  0
  -38.4026  -27.5318   21.7329 C   0  0  0  0  0  0  0  0  0  0  0  0
  -36.1781  -22.1520   23.6341 C   0  0  0  0  0  0  0  0  0  0  0  0
  -22.4465   -8.6901   20.2175 C   0  0  0  0  0  0  0  0  0  0  0  0
  -23.1233   -8.7867   22.5348 C   0  0  0  0  0  0  0  0  0  0  0  0
  -35.4633  -21.7821   24.7725 C   0  0  0  0  0  0  0  0  0  0  0  0
  -23.5553   -5.4643   22.0810 C   0  0  0  0  0  0  0  0  0  0  0  0
  -24.1819   -4.4824   22.8482 C   0  0  0  0  0  0  0  0  0  0  0  0
  -33.4011  -21.9925   23.5387 C   0  0  0  0  0  0  0  0  0  0  0  0
  -33.1559  -16.1862   24.1619 C   0  0  0  0  0  0  0  0  0  0  0  0
  -22.4155   -4.6374   24.4892 C   0  0  0  0  0  0  0  0  0  0  0  0
  -23.8494  -10.4982   20.9919 C   0  0  0  0  0  0  0  0  0  0  0  0
  -24.1026  -13.0303   20.8132 C   0  0  0  0  0  0  0  0  0  0  0  0
  -38.2049  -28.6616   19.5947 C   0  0  0  0  0  0  0  0  0  0  0  0
  -35.5080  -22.4560   22.4404 C   0  0  0  0  0  0  0  0  0  0  0  0
  -37.6334  -27.8646   20.6049 C   0  0  0  0  0  0  0  0  0  0  0  0
  -34.1099  -22.3635   22.3858 C   0  0  0  0  0  0  0  0  0  0  0  0
  -32.5107  -15.3375   23.2692 C   0  0  0  0  0  0  0  0  0  0  0  0
  -31.1271  -15.3923   23.1430 C   0  0  0  0  0  0  0  0  0  0  0  0
  -22.4300   -8.1518   21.5042 C   0  0  0  0  0  0  0  0  0  0  0  0
  -34.0744  -21.7051   24.7257 C   0  0  0  0  0  0  0  0  0  0  0  0
  -22.3588   -6.0329   22.5179 C   0  0  0  0  0  0  0  0  0  0  0  0
  -23.6120   -4.0689   24.0523 C   0  0  0  0  0  0  0  0  0  0  0  0
  -21.7889   -5.6194   23.7220 C   0  0  0  0  0  0  0  0  0  0  0  0
  -24.5830  -11.7098   20.7277 C   0  0  0  0  0  0  0  0  0  0  0  0
  -30.4401  -16.3060   23.9259 C   0  0  0  0  0  0  0  0  0  0  0  0
  -32.3781  -17.0645   24.8990 C   0  0  0  0  0  0  0  0  0  0  0  0
  -25.1788  -13.8104   20.4672 C   0  0  0  0  0  0  0  0  0  0  0  0
  -22.7999  -13.5090   21.1732 C   0  0  0  0  0  0  0  0  0  0  0  0
  -35.2507  -25.0405   20.6080 C   0  0  0  0  0  0  0  0  0  0  0  0
  -33.6542  -23.0117   18.6441 C   0  0  0  0  0  0  0  0  0  0  0  0
  -31.8355  -20.1446   18.2991 C   0  0  0  0  0  0  0  0  0  0  0  0
  -30.9223  -14.0204   21.0401 C   0  0  0  0  0  0  0  0  0  0  0  0
  -37.4170  -29.0918   18.3828 C   0  0  0  0  0  0  0  0  0  0  0  0
  -36.2953  -22.8274   21.2138 C   0  0  0  0  0  0  0  0  0  0  0  0
  -33.3443  -22.6600   21.1231 C   0  0  0  0  0  0  0  0  0  0  0  0
  -36.1623  -28.2558   18.1437 C   0  0  0  0  0  0  0  0  0  0  0  0
  -29.3870  -13.0378   17.9816 C   0  0  0  0  0  0  0  0  0  0  0  0
  -32.9988  -12.9133   22.5217 C   0  0  0  0  0  0  0  0  0  0  0  0
  -34.2467  -13.4258   23.1701 C   0  0  0  0  0  0  0  0  0  0  0  0
  -35.3854  -28.0751   19.4439 C   0  0  0  0  0  0  0  0  0  0  0  0
  -27.9443  -12.7240   18.3845 C   0  0  0  0  0  0  0  0  0  0  0  0
  -30.3819  -12.6171   19.0618 C   0  0  0  0  0  0  0  0  0  0  0  0
  -28.6561  -12.8264   20.8073 C   0  0  0  0  0  0  0  0  0  0  0  0
  -33.3250  -14.3814   22.4610 C   0  0  0  0  0  0  0  0  0  0  0  0
  -36.2235  -27.3275   20.4880 C   0  0  1  0  0  0  0  0  0  0  0  0
  -35.4773  -23.6140   20.1942 C   0  0  1  0  0  0  0  0  0  0  0  0
  -27.6125  -13.2914   19.7786 C   0  0  2  0  0  0  0  0  0  0  0  0
  -28.5011  -17.1705   22.5920 C   0  0  0  0  0  0  0  0  0  0  0  0
  -30.6357  -18.7680   16.5779 C   0  0  0  0  0  0  0  0  0  0  0  0
  -31.3570  -25.0199   18.6428 C   0  0  0  0  0  0  0  0  0  0  0  0
  -29.8750  -23.2186   17.7331 C   0  0  0  0  0  0  0  0  0  0  0  0
  -31.8464  -23.9933   16.4155 C   0  0  0  0  0  0  0  0  0  0  0  0
  -33.5876  -17.8079   18.7780 C   0  0  0  0  0  0  0  0  0  0  0  0
  -28.9521  -16.4137   23.8371 C   0  0  0  0  0  0  0  0  0  0  0  0
  -32.9829  -19.6228   27.4797 C   0  0  0  0  0  0  0  0  0  0  0  0
  -34.0207  -20.4649   26.7543 C   0  0  0  0  0  0  0  0  0  1  0  0
  -32.1489  -18.7932   26.5161 C   0  0  0  0  0  0  0  0  0  0  0  0
  -32.2135  -22.5893   18.4858 C   0  0  1  0  0  0  0  0  0  0  0  0
  -31.9463  -18.9936   17.3155 C   0  0  2  0  0  0  0  0  0  0  0  0
  -31.3370  -23.7015   17.8438 C   0  0  0  0  0  0  0  0  0  0  0  0
  -25.8647  -11.6505   20.3564 N   0  0  0  0  0  0  0  0  0  0  0  0
  -31.0320  -17.1465   24.8038 N   0  0  0  0  0  0  0  0  0  0  0  0
  -26.1987  -12.9434   20.2053 N   0  0  0  0  0  0  0  0  0  0  0  0
  -34.1586  -23.0250   19.9522 N   0  0  0  0  0  0  0  0  0  0  0  0
  -30.0063  -13.1953   20.3538 N   0  0  0  0  0  0  0  0  0  0  0  0
  -25.3428  -15.1464   20.3643 N   0  0  0  0  0  0  0  0  0  0  0  0
  -21.8106  -12.5718   21.5005 N   0  0  0  0  0  0  0  0  0  0  0  0
  -30.4425  -14.5394   22.2421 N   0  0  0  0  0  0  0  0  0  0  0  0
  -36.2439  -25.9096   20.1986 N   0  0  0  0  0  0  0  0  0  0  0  0
  -32.2350  -21.3380   17.7359 N   0  0  0  0  0  0  0  0  0  0  0  0
  -32.3069  -17.7357   18.0286 N   0  3  0  0  0  0  0  0  0  0  0  0
  -22.5169  -14.7310   21.1879 O   0  0  0  0  0  0  0  0  0  0  0  0
  -34.2482  -25.3315   21.2499 O   0  0  0  0  0  0  0  0  0  0  0  0
  -34.3099  -23.3116   17.6432 O   0  0  0  0  0  0  0  0  0  0  0  0
  -31.4312  -20.0000   19.4507 O   0  0  0  0  0  0  0  0  0  0  0  0
  -32.0395  -14.2716   20.5810 O   0  0  0  0  0  0  0  0  0  0  0  0
  -21.7375   -7.0071   21.7546 O   0  0  0  0  0  0  0  0  0  0  0  0
  -33.3742  -21.3450   25.8356 O   0  0  0  0  0  0  0  0  0  1  0  0
  -32.9908  -17.9123   25.7847 O   0  0  0  0  0  0  0  0  0  0  0  0
  -24.2131   -3.1248   24.7882 F   0  0  0  0  0  0  0  0  0  0  0  0
  -20.6390   -6.1611   24.1463 F   0  0  0  0  0  0  0  0  0  0  0  0
  1  2  1  0  0  0  0
  1  5  2  0  0  0  0
  2  6  2  0  0  0  0
  3  8  2  0  0  0  0
  3 16  1  0  0  0  0
  4  9  1  0  0  0  0
  4 16  2  0  0  0  0
  5 18  1  0  0  0  0
  6 20  1  0  0  0  0
  7 10  2  0  0  0  0
  7 19  1  0  0  0  0
  8 24  1  0  0  0  0
  9 24  2  0  0  0  0
 10 25  1  0  0  0  0
 11 12  2  0  0  0  0
 11 26  1  0  0  0  0
 12 27  1  0  0  0  0
 13 21  1  0  0  0  0
 13 25  2  0  0  0  0
 14 22  2  0  0  0  0
 14 31  1  0  0  0  0
 15 27  2  0  0  0  0
 15 28  1  0  0  0  0
 16 29  1  0  0  0  0
 17 29  1  0  0  0  0
 17 32  2  0  0  0  0
 17 33  1  0  0  0  0
 18 20  2  0  0  0  0
 18 38  1  0  0  0  0
 19 21  2  0  0  0  0
 19 39  1  0  0  0  0
 20 50  1  0  0  0  0
 21 40  1  0  0  0  0
 22 23  1  0  0  0  0
 22 49  1  0  0  0  0
 23 30  2  0  0  0  0
 23 73  1  0  0  0  0
 24 82  1  0  0  0  0
 25 83  1  0  0  0  0
 26 28  2  0  0  0  0
 26 82  1  0  0  0  0
 27 85  1  0  0  0  0
 28 86  1  0  0  0  0
 29 66  2  0  0  0  0
 30 59  1  0  0  0  0
 30 67  1  0  0  0  0
 31 67  2  0  0  0  0
 31 84  1  0  0  0  0
 32 68  1  0  0  0  0
 32 71  1  0  0  0  0
 33 72  1  0  0  0  0
 33 77  2  0  0  0  0
 34 51  1  0  0  0  0
 34 74  1  0  0  0  0
 34 78  2  0  0  0  0
 35 63  1  0  0  0  0
 35 69  1  0  0  0  0
 35 79  2  0  0  0  0
 36 64  1  0  0  0  0
 36 75  1  0  0  0  0
 36 80  2  0  0  0  0
 37 70  1  0  0  0  0
 37 73  1  0  0  0  0
 37 81  2  0  0  0  0
 38 41  1  0  0  0  0
 39 51  1  0  0  0  0
 40 69  1  0  0  0  0
 41 45  1  0  0  0  0
 42 46  1  0  0  0  0
 42 47  1  0  0  0  0
 43 44  1  0  0  0  0
 43 49  1  0  0  0  0
 44 49  1  0  0  0  0
 45 50  1  0  0  0  0
 46 52  1  0  0  0  0
 47 70  1  0  0  0  0
 48 52  1  0  0  0  0
 48 70  1  0  0  0  0
 50 74  1  0  0  0  0
 51 69  1  0  0  0  0
 52 68  1  0  0  0  0
 53 59  1  0  0  0  0
 54 64  1  0  0  0  0
 55 65  1  0  0  0  0
 56 65  1  0  0  0  0
 57 65  1  0  0  0  0
 58 76  1  0  0  0  0
 60 61  1  0  0  0  0
 60 62  1  0  0  0  0
 61 83  1  0  0  0  0
 62 84  1  0  0  0  0
 63 65  1  0  0  0  0
 63 75  1  0  0  0  0
 64 76  1  0  0  0  0
 66 68  1  0  0  0  0
M  CHG  1  76   1
M  ISO  4  37 100  61 101  73 100  83 101
M  END
> <Batch ID>
0147

> <Smiles>
CCc1nc(OCC[101CH2:1][101O:1]c2ccc3c(c2)CN(C(=O)C(NC(=O)C(C)NC)C(C)(C)C)C(C(=O)NC2CCCc4ccccc42)C3)cc(C2CC2)c1[100NH:0][100C:0](=O)N1CCCC(n2nc(-c3ccc(Oc4ccc(F)cc4F)cc3)c(C(N)=O)c2N)C1

> <Shape>
0.181

> <Color>
0.184

> <Negative vol penalty>
0.000

$$$$

  -OEChem-04052321333D

 87 96  0     1  0  0  0  0  0999 V2000
  -22.0544  -16.2187   20.5978 C   0  0  0  0  0  0  0  0  0  0  0  0
  -22.3539  -17.5090   21.0230 C   0  0  0  0  0  0  0  0  0  0  0  0
  -29.1272  -17.6913   19.2532 C   0  0  0  0  0  0  0  0  0  0  0  0
  -30.3736  -18.1345   21.2749 C   0  0  0  0  0  0  0  0  0  0  0  0
  -22.5525  -15.7535   19.3815 C   0  0  0  0  0  0  0  0  0  0  0  0
  -23.1528  -18.3345   20.2326 C   0  0  0  0  0  0  0  0  0  0  0  0
  -22.6719  -24.4063   19.5934 C   0  0  0  0  0  0  0  0  0  0  0  0
  -29.6468  -16.3974   19.2165 C   0  0  0  0  0  0  0  0  0  0  0  0
  -30.8932  -16.8405   21.2382 C   0  0  0  0  0  0  0  0  0  0  0  0
  -23.3562  -25.4686   20.1825 C   0  0  0  0  0  0  0  0  0  0  0  0
  -29.0762  -13.4395   20.7522 C   0  0  0  0  0  0  0  0  0  0  0  0
  -28.1930  -12.3937   20.4841 C   0  0  0  0  0  0  0  0  0  0  0  0
  -24.8314  -25.5674   18.2763 C   0  0  0  0  0  0  0  0  0  0  0  0
  -25.8706  -30.9559   23.7890 C   0  0  0  0  0  0  0  0  0  0  0  0
  -27.4819  -30.5422   25.5409 C   0  0  0  0  0  0  0  0  0  0  0  0
  -29.4784  -11.8109   18.5231 C   0  0  0  0  0  0  0  0  0  0  0  0
  -29.4906  -18.5599   20.2824 C   0  0  0  0  0  0  0  0  0  0  0  0
  -27.7726  -20.3210   20.9565 C   0  0  0  0  0  0  0  0  0  0  0  0
  -23.3498  -16.5771   18.5712 C   0  0  0  0  0  0  0  0  0  0  0  0
  -23.0697  -23.9086   18.3442 C   0  0  0  0  0  0  0  0  0  0  0  0
  -23.6631  -17.8795   19.0049 C   0  0  0  0  0  0  0  0  0  0  0  0
  -24.1488  -24.5004   17.6724 C   0  0  0  0  0  0  0  0  0  0  0  0
  -26.4746  -31.3331   24.9884 C   0  0  0  0  0  0  0  0  0  0  0  0
  -27.2812  -28.9967   23.6947 C   0  0  0  0  0  0  0  0  0  0  0  0
  -26.2739  -29.7877   23.1422 C   0  0  0  0  0  0  0  0  0  0  0  0
  -30.5297  -15.9719   20.2090 C   0  0  0  0  0  0  0  0  0  0  0  0
  -24.4379  -26.0474   19.5253 C   0  0  0  0  0  0  0  0  0  0  0  0
  -30.1604  -13.6711   19.9057 C   0  0  0  0  0  0  0  0  0  0  0  0
  -27.8852  -29.3739   24.8941 C   0  0  0  0  0  0  0  0  0  0  0  0
  -28.3941  -11.5794   19.3696 C   0  0  0  0  0  0  0  0  0  0  0  0
  -30.3615  -12.8568   18.7912 C   0  0  0  0  0  0  0  0  0  0  0  0
  -28.9547  -19.8968   20.3205 C   0  0  0  0  0  0  0  0  0  0  0  0
  -27.7098  -21.6690   20.7007 C   0  0  0  0  0  0  0  0  0  0  0  0
  -26.8168  -19.5642   21.7112 C   0  0  0  0  0  0  0  0  0  0  0  0
  -24.1469  -21.1127   17.2830 C   0  0  0  0  0  0  0  0  0  0  0  0
  -23.8955  -22.5557   14.3887 C   0  0  0  0  0  0  0  0  0  0  0  0
  -23.8073  -25.4588   12.5967 C   0  0  0  0  0  0  0  0  0  0  0  0
  -30.1448  -26.6803   20.3792 C   0  0  0  0  0  0  0  0  0  0  0  0
  -23.9044  -16.0138   17.2867 C   0  0  0  0  0  0  0  0  0  0  0  0
  -22.3044  -22.7796   17.7101 C   0  0  0  0  0  0  0  0  0  0  0  0
  -24.6030  -24.0164   16.3204 C   0  0  0  0  0  0  0  0  0  0  0  0
  -24.4342  -17.0809   16.3324 C   0  0  0  0  0  0  0  0  0  0  0  0
  -30.4105  -24.5495   17.5392 C   0  0  0  0  0  0  0  0  0  0  0  0
  -25.3087  -18.0809   17.0821 C   0  0  0  0  0  0  0  0  0  0  0  0
  -29.9641  -23.1836   18.0636 C   0  0  0  0  0  0  0  0  0  0  0  0
  -24.9968  -29.4639   19.6978 C   0  0  0  0  0  0  0  0  0  0  0  0
  -31.1980  -25.3279   18.5908 C   0  0  0  0  0  0  0  0  0  0  0  0
  -26.1378  -29.8482   20.6396 C   0  0  0  0  0  0  0  0  0  0  0  0
  -30.0689  -24.1132   20.4139 C   0  0  0  0  0  0  0  0  0  0  0  0
  -24.4747  -28.5859   21.8690 C   0  0  0  0  0  0  0  0  0  0  0  0
  -24.5058  -18.8135   18.1638 C   0  0  1  0  0  0  0  0  0  0  0  0
  -23.1173  -22.0178   16.6679 C   0  0  1  0  0  0  0  0  0  0  0  0
  -29.2230  -23.3140   19.4079 C   0  0  2  0  0  0  0  0  0  0  0  0
  -24.3606  -28.2617   20.3801 C   0  0  2  0  0  0  0  0  0  1  0  0
  -26.0434  -32.5822   25.6796 C   0  0  0  0  0  0  0  0  0  0  0  0
  -23.6320  -26.3177   10.2453 C   0  0  0  0  0  0  0  0  0  0  0  0
  -26.8095  -21.7966   13.8968 C   0  0  0  0  0  0  0  0  0  0  0  0
  -26.8532  -23.4569   12.0234 C   0  0  0  0  0  0  0  0  0  0  0  0
  -25.3068  -21.5023   11.9195 C   0  0  0  0  0  0  0  0  0  0  0  0
  -21.2908  -26.9001   13.1874 C   0  0  0  0  0  0  0  0  0  0  0  0
  -29.4307  -29.0766   26.6770 C   0  0  0  0  0  0  0  0  0  0  0  0
  -27.7190  -27.7415   23.0084 C   0  0  0  0  0  0  0  0  0  0  0  0
  -29.0315  -27.8961   22.2344 C   0  0  0  0  0  0  0  0  0  0  0  0
  -24.8121  -23.3901   13.5269 C   0  0  1  0  0  0  0  0  0  0  0  0
  -22.8685  -25.9407   11.5054 C   0  0  2  0  0  0  0  0  0  0  0  0
  -25.9383  -22.5446   12.8680 C   0  0  0  0  0  0  0  0  0  0  0  0
  -29.5965  -20.8945   19.7067 N   0  0  0  0  0  0  0  0  0  0  0  0
  -28.8148  -21.9589   19.9558 N   0  0  0  0  0  0  0  0  0  0  0  0
  -25.6659  -29.4314   21.9567 N   0  0  3  0  0  0  0  0  0  0  0  0
  -23.8266  -22.9060   15.7446 N   0  0  0  0  0  0  0  0  0  0  0  0
  -30.4392  -25.4168   19.8408 N   0  0  0  0  0  0  0  0  0  0  0  0
  -26.8176  -22.6227   21.0426 N   0  0  0  0  0  0  0  0  0  0  0  0
  -27.0343  -18.1896   21.8775 N   0  0  0  0  0  0  0  0  0  0  0  0
  -23.6810  -19.8439   17.5702 N   0  0  0  0  0  0  0  0  0  0  0  0
  -23.9543  -24.0879   12.5753 N   0  0  0  0  0  0  0  0  0  0  0  0
  -29.4165  -26.6749   21.5626 N   0  0  0  0  0  0  0  0  0  0  0  0
  -22.1062  -27.1348   11.9680 N   0  3  0  0  0  0  0  0  0  0  0  0
  -25.7916  -20.0882   22.2089 O   0  0  0  0  0  0  0  0  0  0  0  0
  -25.2806  -21.5338   17.4810 O   0  0  0  0  0  0  0  0  0  0  0  0
  -23.2586  -21.6320   13.8763 O   0  0  0  0  0  0  0  0  0  0  0  0
  -24.3581  -26.2224   13.3866 O   0  0  0  0  0  0  0  0  0  0  0  0
  -30.4997  -27.7350   19.8422 O   0  0  0  0  0  0  0  0  0  0  0  0
  -31.0368  -14.7093   20.1737 O   0  0  0  0  0  0  0  0  0  0  0  0
  -25.1080  -27.0840   20.0983 O   0  0  0  0  0  0  0  0  0  1  0  0
  -28.8704  -28.6142   25.4499 O   0  0  0  0  0  0  0  0  0  0  0  0
  -27.5468  -10.5741   19.1131 F   0  0  0  0  0  0  0  0  0  0  0  0
  -31.4020  -13.0737   17.9750 F   0  0  0  0  0  0  0  0  0  0  0  0
  1  2  1  0  0  0  0
  1  5  2  0  0  0  0
  2  6  2  0  0  0  0
  3  8  2  0  0  0  0
  3 17  1  0  0  0  0
  4  9  1  0  0  0  0
  4 17  2  0  0  0  0
  5 19  1  0  0  0  0
  6 21  1  0  0  0  0
  7 10  2  0  0  0  0
  7 20  1  0  0  0  0
  8 26  1  0  0  0  0
  9 26  2  0  0  0  0
 10 27  1  0  0  0  0
 11 12  2  0  0  0  0
 11 28  1  0  0  0  0
 12 30  1  0  0  0  0
 13 22  1  0  0  0  0
 13 27  2  0  0  0  0
 14 23  2  0  0  0  0
 14 25  1  0  0  0  0
 15 23  1  0  0  0  0
 15 29  2  0  0  0  0
 16 30  2  0  0  0  0
 16 31  1  0  0  0  0
 17 32  1  0  0  0  0
 18 32  1  0  0  0  0
 18 33  2  0  0  0  0
 18 34  1  0  0  0  0
 19 21  2  0  0  0  0
 19 39  1  0  0  0  0
 20 22  2  0  0  0  0
 20 40  1  0  0  0  0
 21 51  1  0  0  0  0
 22 41  1  0  0  0  0
 23 55  1  0  0  0  0
 24 25  2  0  0  0  0
 24 29  1  0  0  0  0
 24 62  1  0  0  0  0
 25 69  1  0  0  0  0
 26 83  1  0  0  0  0
 27 84  1  0  0  0  0
 28 31  2  0  0  0  0
 28 83  1  0  0  0  0
 29 85  1  0  0  0  0
 30 86  1  0  0  0  0
 31 87  1  0  0  0  0
 32 67  2  0  0  0  0
 33 68  1  0  0  0  0
 33 72  1  0  0  0  0
 34 73  1  0  0  0  0
 34 78  2  0  0  0  0
 35 52  1  0  0  0  0
 35 74  1  0  0  0  0
 35 79  2  0  0  0  0
 36 64  1  0  0  0  0
 36 70  1  0  0  0  0
 36 80  2  0  0  0  0
 37 65  1  0  0  0  0
 37 75  1  0  0  0  0
 37 81  2  0  0  0  0
 38 71  1  0  0  0  0
 38 76  1  0  0  0  0
 38 82  2  0  0  0  0
 39 42  1  0  0  0  0
 40 52  1  0  0  0  0
 41 70  1  0  0  0  0
 42 44  1  0  0  0  0
 43 45  1  0  0  0  0
 43 47  1  0  0  0  0
 44 51  1  0  0  0  0
 45 53  1  0  0  0  0
 46 48  1  0  0  0  0
 46 54  1  0  0  0  0
 47 71  1  0  0  0  0
 48 69  1  0  0  0  0
 49 53  1  0  0  0  0
 49 71  1  0  0  0  0
 50 54  1  0  0  0  0
 50 69  1  0  0  0  0
 51 74  1  0  0  0  0
 52 70  1  0  0  0  0
 53 68  1  0  0  0  0
 54 84  1  0  0  0  0
 56 65  1  0  0  0  0
 57 66  1  0  0  0  0
 58 66  1  0  0  0  0
 59 66  1  0  0  0  0
 60 77  1  0  0  0  0
 61 85  1  0  0  0  0
 62 63  1  0  0  0  0
 63 76  1  0  0  0  0
 64 66  1  0  0  0  0
 64 75  1  0  0  0  0
 65 77  1  0  0  0  0
 67 68  1  0  0  0  0
M  CHG  1  77   1
M  ISO  4  38 100  54 101  76 100  84 101
M  END
> <Batch ID>
0147

> <Smiles>
CNC(C)C(=O)NC(C(=O)N1Cc2cc([101O:1][101CH:1]3CCN(c4cc(C)cc(OC)c4CC[100NH:0][100C:0](=O)N4CCCC(n5nc(-c6ccc(Oc7ccc(F)cc7F)cc6)c(C(N)=O)c5N)C4)C3)ccc2CC1C(=O)NC1CCCc2ccccc21)C(C)(C)C

> <Shape>
0.235

> <Color>
0.049

> <Negative vol penalty>
0.000

$$$$

  -OEChem-04052321333D

 88 97  0     1  0  0  0  0  0999 V2000
  -27.3135  -37.3292   25.9849 C   0  0  0  0  0  0  0  0  0  0  0  0
  -26.9437  -36.1749   26.6678 C   0  0  0  0  0  0  0  0  0  0  0  0
  -24.4801   -9.4106   21.6750 C   0  0  0  0  0  0  0  0  0  0  0  0
  -22.7533  -10.3875   20.2964 C   0  0  0  0  0  0  0  0  0  0  0  0
  -26.8038  -37.5777   24.7112 C   0  0  0  0  0  0  0  0  0  0  0  0
  -26.0631  -35.2689   26.0777 C   0  0  0  0  0  0  0  0  0  0  0  0
  -27.9820  -28.4137   24.9757 C   0  0  0  0  0  0  0  0  0  0  0  0
  -23.6945   -8.2716   21.8519 C   0  0  0  0  0  0  0  0  0  0  0  0
  -21.9677   -9.2485   20.4732 C   0  0  0  0  0  0  0  0  0  0  0  0
  -28.1983  -27.0365   24.9236 C   0  0  0  0  0  0  0  0  0  0  0  0
  -21.9917   -5.2559   22.9608 C   0  0  0  0  0  0  0  0  0  0  0  0
  -21.8884   -4.7312   24.2490 C   0  0  0  0  0  0  0  0  0  0  0  0
  -26.0505  -26.7287   23.8559 C   0  0  0  0  0  0  0  0  0  0  0  0
  -27.6967  -22.7003   19.8875 C   0  0  0  0  0  0  0  0  0  0  0  0
  -20.9396   -6.8145   25.0215 C   0  0  0  0  0  0  0  0  0  0  0  0
  -24.0094  -10.4686   20.8973 C   0  0  0  0  0  0  0  0  0  0  0  0
  -26.1030  -11.7133   20.1387 C   0  0  0  0  0  0  0  0  0  0  0  0
  -25.9240  -36.6696   24.1012 C   0  0  0  0  0  0  0  0  0  0  0  0
  -26.8044  -28.9558   24.4534 C   0  0  0  0  0  0  0  0  0  0  0  0
  -25.5401  -35.5062   24.7952 C   0  0  0  0  0  0  0  0  0  0  0  0
  -25.8338  -28.1087   23.8939 C   0  0  0  0  0  0  0  0  0  0  0  0
  -28.0907  -20.4376   19.1739 C   0  0  0  0  0  0  0  0  0  0  0  0
  -22.4384   -8.1906   21.2510 C   0  0  0  0  0  0  0  0  0  0  0  0
  -27.2349  -26.1961   24.3653 C   0  0  0  0  0  0  0  0  0  0  0  0
  -21.5691   -6.5600   22.7029 C   0  0  0  0  0  0  0  0  0  0  0  0
  -27.6197  -21.7181   18.9063 C   0  0  0  0  0  0  0  0  0  0  0  0
  -21.3623   -5.5105   25.2793 C   0  0  0  0  0  0  0  0  0  0  0  0
  -21.0430   -7.3393   23.7332 C   0  0  0  0  0  0  0  0  0  0  0  0
  -24.8202  -11.6456   20.7147 C   0  0  0  0  0  0  0  0  0  0  0  0
  -28.6254  -20.1922   20.4284 C   0  0  0  0  0  0  0  0  0  0  0  0
  -28.2489  -22.3536   21.1101 C   0  0  0  0  0  0  0  0  0  0  0  0
  -26.4365  -13.0443   20.1988 C   0  0  0  0  0  0  0  0  0  0  0  0
  -26.9199  -10.6666   19.5977 C   0  0  0  0  0  0  0  0  0  0  0  0
  -24.7782  -32.0387   23.7709 C   0  0  0  0  0  0  0  0  0  0  0  0
  -24.4891  -30.2211   21.3167 C   0  0  0  0  0  0  0  0  0  0  0  0
  -24.7692  -28.1220   18.6423 C   0  0  0  0  0  0  0  0  0  0  0  0
  -25.1143  -18.4271   19.5486 C   0  0  0  0  0  0  0  0  0  0  0  0
  -25.3621  -37.0045   22.7423 C   0  0  0  0  0  0  0  0  0  0  0  0
  -26.5021  -30.4270   24.5436 C   0  0  0  0  0  0  0  0  0  0  0  0
  -24.5669  -28.7327   23.3757 C   0  0  0  0  0  0  0  0  0  0  0  0
  -24.7275  -35.8102   22.0344 C   0  0  0  0  0  0  0  0  0  0  0  0
  -27.8084  -19.5822   15.6875 C   0  0  0  0  0  0  0  0  0  0  0  0
  -24.2225  -16.8866   22.6321 C   0  0  0  0  0  0  0  0  0  0  0  0
  -28.8128  -19.6629   16.8338 C   0  0  0  0  0  0  0  0  0  0  0  0
  -23.8158  -35.0462   22.9894 C   0  0  0  0  0  0  0  0  0  0  0  0
  -24.3982  -15.3919   22.3586 C   0  0  0  0  0  0  0  0  0  0  0  0
  -26.7351  -18.6352   16.1995 C   0  0  0  0  0  0  0  0  0  0  0  0
  -23.6868  -17.6253   21.4076 C   0  0  0  0  0  0  0  0  0  0  0  0
  -24.6415  -15.9269   19.8982 C   0  0  0  0  0  0  0  0  0  0  0  0
  -28.0175  -19.3525   18.1221 C   0  0  2  0  0  0  0  0  0  0  0  0
  -24.6065  -34.4873   24.1784 C   0  0  1  0  0  0  0  0  0  0  0  0
  -25.7204  -30.9580   23.3286 C   0  0  1  0  0  0  0  0  0  0  0  0
  -25.2324  -15.1489   21.0864 C   0  0  2  0  0  0  0  0  0  0  0  0
  -26.5754  -19.0741   17.6497 C   0  0  2  0  0  0  0  0  0  0  0  0
  -29.1471  -18.8356   20.7732 C   0  0  0  0  0  0  0  0  0  0  0  0
  -23.9852  -27.8307   16.2763 C   0  0  0  0  0  0  0  0  0  0  0  0
  -21.7611  -29.3143   22.3363 C   0  0  0  0  0  0  0  0  0  0  0  0
  -21.3958  -28.1769   20.1360 C   0  0  0  0  0  0  0  0  0  0  0  0
  -21.6940  -30.6520   20.2243 C   0  0  0  0  0  0  0  0  0  0  0  0
  -27.5329  -28.2359   17.5898 C   0  0  0  0  0  0  0  0  0  0  0  0
  -26.6248  -23.3651   17.5086 C   0  0  0  0  0  0  0  0  0  0  0  0
  -28.8670  -23.1335   23.3982 C   0  0  0  0  0  0  0  0  0  0  0  0
  -28.8100  -24.4213   24.2027 C   0  0  0  0  0  0  0  0  0  1  0  0
  -23.6868  -29.1485   20.6245 C   0  0  1  0  0  0  0  0  0  0  0  0
  -25.0739  -28.3892   17.1794 C   0  0  2  0  0  0  0  0  0  0  0  0
  -22.1571  -29.3166   20.8463 C   0  0  0  0  0  0  0  0  0  0  0  0
  -24.3696  -12.8387   21.1116 N   0  0  0  0  0  0  0  0  0  0  0  0
  -28.7170  -21.1205   21.4069 N   0  0  0  0  0  0  0  0  0  0  0  0
  -25.3748  -13.6686   20.7846 N   0  0  0  0  0  0  0  0  0  0  0  0
  -24.8801  -29.9658   22.6368 N   0  0  0  0  0  0  0  0  0  0  0  0
  -24.5235  -17.3541   20.2361 N   0  0  0  0  0  0  0  0  0  0  0  0
  -27.5316  -13.7298   19.8073 N   0  0  0  0  0  0  0  0  0  0  0  0
  -26.7935  -10.3561   18.2368 N   0  0  0  0  0  0  0  0  0  0  0  0
  -28.3188  -23.3422   22.0776 N   0  0  0  0  0  0  0  0  0  0  0  0
  -25.3383  -33.3019   23.7862 N   0  0  0  0  0  0  0  0  0  0  0  0
  -24.0939  -29.1742   19.2238 N   0  0  0  0  0  0  0  0  0  0  0  0
  -25.8969  -18.0819   18.4535 N   0  0  0  0  0  0  0  0  0  0  0  0
  -26.3699  -27.7606   16.7970 N   0  3  0  0  0  0  0  0  0  0  0  0
  -27.7260  -10.0146   20.3038 O   0  0  0  0  0  0  0  0  0  0  0  0
  -23.6268  -31.7495   24.0747 O   0  0  0  0  0  0  0  0  0  0  0  0
  -24.7585  -31.2604   20.7079 O   0  0  0  0  0  0  0  0  0  0  0  0
  -25.0942  -27.0822   19.2113 O   0  0  0  0  0  0  0  0  0  0  0  0
  -24.9604  -19.6050   19.8888 O   0  0  0  0  0  0  0  0  0  0  0  0
  -21.6717   -7.0792   21.4232 O   0  0  0  0  0  0  0  0  0  0  0  0
  -27.0821  -22.0267   17.6936 O   0  0  0  0  0  0  0  0  0  0  0  0
  -27.4544  -24.8530   24.3136 O   0  0  0  0  0  0  0  0  0  1  0  0
  -21.2617   -5.0059   26.5161 F   0  0  0  0  0  0  0  0  0  0  0  0
  -20.6343   -8.5924   23.4913 F   0  0  0  0  0  0  0  0  0  0  0  0
  1  2  1  0  0  0  0
  1  5  2  0  0  0  0
  2  6  2  0  0  0  0
  3  8  2  0  0  0  0
  3 16  1  0  0  0  0
  4  9  1  0  0  0  0
  4 16  2  0  0  0  0
  5 18  1  0  0  0  0
  6 20  1  0  0  0  0
  7 10  2  0  0  0  0
  7 19  1  0  0  0  0
  8 23  1  0  0  0  0
  9 23  2  0  0  0  0
 10 24  1  0  0  0  0
 11 12  2  0  0  0  0
 11 25  1  0  0  0  0
 12 27  1  0  0  0  0
 13 21  1  0  0  0  0
 13 24  2  0  0  0  0
 14 26  2  0  0  0  0
 14 31  1  0  0  0  0
 15 27  2  0  0  0  0
 15 28  1  0  0  0  0
 16 29  1  0  0  0  0
 17 29  1  0  0  0  0
 17 32  2  0  0  0  0
 17 33  1  0  0  0  0
 18 20  2  0  0  0  0
 18 38  1  0  0  0  0
 19 21  2  0  0  0  0
 19 39  1  0  0  0  0
 20 51  1  0  0  0  0
 21 40  1  0  0  0  0
 22 26  1  0  0  0  0
 22 30  2  0  0  0  0
 22 50  1  0  0  0  0
 23 84  1  0  0  0  0
 24 86  1  0  0  0  0
 25 28  2  0  0  0  0
 25 84  1  0  0  0  0
 26 85  1  0  0  0  0
 27 87  1  0  0  0  0
 28 88  1  0  0  0  0
 29 67  2  0  0  0  0
 30 55  1  0  0  0  0
 30 68  1  0  0  0  0
 31 68  2  0  0  0  0
 31 74  1  0  0  0  0
 32 69  1  0  0  0  0
 32 72  1  0  0  0  0
 33 73  1  0  0  0  0
 33 79  2  0  0  0  0
 34 52  1  0  0  0  0
 34 75  1  0  0  0  0
 34 80  2  0  0  0  0
 35 64  1  0  0  0  0
 35 70  1  0  0  0  0
 35 81  2  0  0  0  0
 36 65  1  0  0  0  0
 36 76  1  0  0  0  0
 36 82  2  0  0  0  0
 37 71  1  0  0  0  0
 37 77  1  0  0  0  0
 37 83  2  0  0  0  0
 38 41  1  0  0  0  0
 39 52  1  0  0  0  0
 40 70  1  0  0  0  0
 41 45  1  0  0  0  0
 42 44  1  0  0  0  0
 42 47  1  0  0  0  0
 43 46  1  0  0  0  0
 43 48  1  0  0  0  0
 44 50  1  0  0  0  0
 45 51  1  0  0  0  0
 46 53  1  0  0  0  0
 47 54  1  0  0  0  0
 48 71  1  0  0  0  0
 49 53  1  0  0  0  0
 49 71  1  0  0  0  0
 50 54  1  0  0  0  0
 51 75  1  0  0  0  0
 52 70  1  0  0  0  0
 53 69  1  0  0  0  0
 54 77  1  0  0  0  0
 56 65  1  0  0  0  0
 57 66  1  0  0  0  0
 58 66  1  0  0  0  0
 59 66  1  0  0  0  0
 60 78  1  0  0  0  0
 61 85  1  0  0  0  0
 62 63  1  0  0  0  0
 62 74  1  0  0  0  0
 63 86  1  0  0  0  0
 64 66  1  0  0  0  0
 64 76  1  0  0  0  0
 65 78  1  0  0  0  0
 67 69  1  0  0  0  0
M  CHG  1  78   1
M  ISO  4  37 100  63 101  77 100  86 101
M  END
> <Batch ID>
0147

> <Smiles>
CNC(C)C(=O)NC(C(=O)N1Cc2cc([101O:1][101CH2:1]CNc3cc(OC)c(C4CCCC4[100NH:0][100C:0](=O)N4CCCC(n5nc(-c6ccc(Oc7ccc(F)cc7F)cc6)c(C(N)=O)c5N)C4)c(C)n3)ccc2CC1C(=O)NC1CCCc2ccccc21)C(C)(C)C

> <Shape>
0.314

> <Color>
0.089

> <Negative vol penalty>
0.000

$$$$

  -OEChem-04052321333D

 82 90  0     1  0  0  0  0  0999 V2000
  -18.0256  -28.0713   22.6111 C   0  0  0  0  0  0  0  0  0  0  0  0
  -18.6063  -27.1007   21.8011 C   0  0  0  0  0  0  0  0  0  0  0  0
  -24.2791  -11.0404   23.7827 C   0  0  0  0  0  0  0  0  0  0  0  0
  -24.1426  -13.4336   24.0838 C   0  0  0  0  0  0  0  0  0  0  0  0
  -18.8312  -28.9870   23.2867 C   0  0  0  0  0  0  0  0  0  0  0  0
  -19.9930  -27.0459   21.6654 C   0  0  0  0  0  0  0  0  0  0  0  0
  -25.3285  -22.3617   20.7128 C   0  0  0  0  0  0  0  0  0  0  0  0
  -23.8038  -10.8500   25.0802 C   0  0  0  0  0  0  0  0  0  0  0  0
  -23.6673  -13.2433   25.3813 C   0  0  0  0  0  0  0  0  0  0  0  0
  -26.4236  -22.1309   19.8814 C   0  0  0  0  0  0  0  0  0  0  0  0
  -20.7403  -12.4395   26.8670 C   0  0  0  0  0  0  0  0  0  0  0  0
  -19.6499  -13.2075   27.2752 C   0  0  0  0  0  0  0  0  0  0  0  0
  -27.7195  -23.7147   21.1587 C   0  0  0  0  0  0  0  0  0  0  0  0
  -20.9825  -14.1539   29.0544 C   0  0  0  0  0  0  0  0  0  0  0  0
  -24.4486  -12.3322   23.2845 C   0  0  0  0  0  0  0  0  0  0  0  0
  -24.1773  -12.6344   20.7661 C   0  0  0  0  0  0  0  0  0  0  0  0
  -20.2290  -28.9373   23.1668 C   0  0  0  0  0  0  0  0  0  0  0  0
  -25.4175  -23.2803   21.7686 C   0  0  0  0  0  0  0  0  0  0  0  0
  -20.8180  -27.9626   22.3390 C   0  0  0  0  0  0  0  0  0  0  0  0
  -26.6249  -23.9534   22.0037 C   0  0  0  0  0  0  0  0  0  0  0  0
  -23.4978  -11.9514   25.8794 C   0  0  0  0  0  0  0  0  0  0  0  0
  -27.6184  -22.8096   20.1025 C   0  0  0  0  0  0  0  0  0  0  0  0
  -21.9519  -12.5286   27.5525 C   0  0  0  0  0  0  0  0  0  0  0  0
  -19.7710  -14.0647   28.3689 C   0  0  0  0  0  0  0  0  0  0  0  0
  -22.0730  -13.3858   28.6462 C   0  0  0  0  0  0  0  0  0  0  0  0
  -24.9401  -12.5295   21.9445 C   0  0  0  0  0  0  0  0  0  0  0  0
  -25.1063  -12.8135   19.7704 C   0  0  0  0  0  0  0  0  0  0  0  0
  -22.7559  -12.5754   20.5873 C   0  0  0  0  0  0  0  0  0  0  0  0
  -23.9420  -25.9967   22.5089 C   0  0  0  0  0  0  0  0  0  0  0  0
  -25.6527  -25.7242   25.2514 C   0  0  0  0  0  0  0  0  0  0  0  0
  -28.3913  -24.4549   26.8438 C   0  0  0  0  0  0  0  0  0  0  0  0
  -30.6792  -15.0030   19.7396 C   0  0  0  0  0  0  0  0  0  0  0  0
  -21.0561  -29.9781   23.8791 C   0  0  0  0  0  0  0  0  0  0  0  0
  -24.2354  -23.4981   22.6729 C   0  0  0  0  0  0  0  0  0  0  0  0
  -26.7784  -24.9346   23.1360 C   0  0  0  0  0  0  0  0  0  0  0  0
  -22.5360  -29.6170   23.9780 C   0  0  0  0  0  0  0  0  0  0  0  0
  -29.6405  -11.7766   18.6494 C   0  0  0  0  0  0  0  0  0  0  0  0
  -23.0565  -29.1244   22.6313 C   0  0  0  0  0  0  0  0  0  0  0  0
  -28.2493  -11.6132   19.2639 C   0  0  0  0  0  0  0  0  0  0  0  0
  -30.2617  -17.9899   18.5642 C   0  0  0  0  0  0  0  0  0  0  0  0
  -30.5842  -12.5326   19.5821 C   0  0  0  0  0  0  0  0  0  0  0  0
  -28.6870  -13.6727   20.6660 C   0  0  0  0  0  0  0  0  0  0  0  0
  -30.8649  -19.8523   20.7455 C   0  0  0  0  0  0  0  0  0  0  0  0
  -22.3198  -27.8554   22.1859 C   0  0  1  0  0  0  0  0  0  0  0  0
  -24.2800  -24.8371   23.4026 C   0  0  1  0  0  0  0  0  0  0  0  0
  -27.6838  -12.9651   19.7390 C   0  0  2  0  0  0  0  0  0  0  0  0
  -30.6232  -17.4743   19.9595 C   0  0  1  0  0  0  0  0  0  0  0  0
  -30.8683  -19.3679   18.2722 C   0  0  1  0  0  0  0  0  0  0  0  0
  -30.2433  -18.4803   21.0771 C   0  0  0  0  0  0  0  0  0  0  0  0
  -30.3951  -19.8609   16.9056 C   0  0  0  0  0  0  0  0  0  0  0  0
  -28.7144  -18.6096   21.2509 C   0  0  0  0  0  0  0  0  0  0  0  0
  -30.8339  -18.0264   22.4309 C   0  0  0  0  0  0  0  0  0  0  0  0
  -29.5401  -24.4359   29.0748 C   0  0  0  0  0  0  0  0  0  0  0  0
  -26.6820  -28.5512   24.7427 C   0  0  0  0  0  0  0  0  0  0  0  0
  -28.4924  -28.1184   26.4171 C   0  0  0  0  0  0  0  0  0  0  0  0
  -26.1013  -28.0655   27.1263 C   0  0  0  0  0  0  0  0  0  0  0  0
  -28.1071  -21.5197   27.0952 C   0  0  0  0  0  0  0  0  0  0  0  0
  -30.9564  -21.7462   19.1544 C   0  0  0  0  0  0  0  0  0  0  0  0
  -30.0131  -22.7251   19.8252 C   0  0  0  0  0  0  0  0  0  1  0  0
  -27.0163  -26.1811   25.7107 C   0  0  1  0  0  0  0  0  0  0  0  0
  -28.5402  -23.7322   28.1704 C   0  0  2  0  0  0  0  0  0  0  0  0
  -27.0698  -27.7121   25.9766 C   0  0  0  0  0  0  0  0  0  0  0  0
  -26.2527  -12.6331   21.7200 N   0  0  0  0  0  0  0  0  0  0  0  0
  -26.3219  -12.8050   20.3889 N   0  0  0  0  0  0  0  0  0  0  0  0
  -25.5922  -25.1180   23.9886 N   0  0  0  0  0  0  0  0  0  0  0  0
  -29.9894  -13.8062   19.9945 N   0  0  0  0  0  0  0  0  0  0  0  0
  -24.9939  -12.9759   18.4350 N   0  0  0  0  0  0  0  0  0  0  0  0
  -21.9478  -12.3865   21.7168 N   0  0  0  0  0  0  0  0  0  0  0  0
  -22.8210  -26.7022   22.9025 N   0  0  0  0  0  0  0  0  0  0  0  0
  -27.3525  -25.3612   26.8697 N   0  0  0  0  0  0  0  0  0  0  0  0
  -30.0421  -16.1651   20.1571 N   0  0  0  0  0  0  0  0  0  0  0  0
  -30.4504  -20.3385   19.3697 N   0  3  2  0  0  0  0  0  0  0  0  0
  -29.0087  -22.3348   27.9494 N   0  3  0  0  0  0  0  0  0  0  0  0
  -22.2194  -12.6705   19.4575 O   0  0  0  0  0  0  0  0  0  0  0  0
  -24.6470  -26.2346   21.5352 O   0  0  0  0  0  0  0  0  0  0  0  0
  -24.6784  -25.8924   25.9890 O   0  0  0  0  0  0  0  0  0  0  0  0
  -29.1256  -24.2397   25.8820 O   0  0  0  0  0  0  0  0  0  0  0  0
  -31.7787  -15.0339   19.1765 O   0  0  0  0  0  0  0  0  0  0  0  0
  -23.0338  -11.7660   27.1455 O   0  0  0  0  0  0  0  0  0  0  0  0
  -28.7098  -22.5823   19.2759 O   0  0  0  0  0  0  0  0  0  1  0  0
  -18.7242  -14.8033   28.7599 F   0  0  0  0  0  0  0  0  0  0  0  0
  -23.2347  -13.4766   29.3079 F   0  0  0  0  0  0  0  0  0  0  0  0
  1  2  1  0  0  0  0
  1  5  2  0  0  0  0
  2  6  2  0  0  0  0
  3  8  2  0  0  0  0
  3 15  1  0  0  0  0
  4  9  1  0  0  0  0
  4 15  2  0  0  0  0
  5 17  1  0  0  0  0
  6 19  1  0  0  0  0
  7 10  2  0  0  0  0
  7 18  1  0  0  0  0
  8 21  1  0  0  0  0
  9 21  2  0  0  0  0
 10 22  1  0  0  0  0
 11 12  2  0  0  0  0
 11 23  1  0  0  0  0
 12 24  1  0  0  0  0
 13 20  1  0  0  0  0
 13 22  2  0  0  0  0
 14 24  2  0  0  0  0
 14 25  1  0  0  0  0
 15 26  1  0  0  0  0
 16 26  1  0  0  0  0
 16 27  2  0  0  0  0
 16 28  1  0  0  0  0
 17 19  2  0  0  0  0
 17 33  1  0  0  0  0
 18 20  2  0  0  0  0
 18 34  1  0  0  0  0
 19 44  1  0  0  0  0
 20 35  1  0  0  0  0
 21 79  1  0  0  0  0
 22 80  1  0  0  0  0
 23 25  2  0  0  0  0
 23 79  1  0  0  0  0
 24 81  1  0  0  0  0
 25 82  1  0  0  0  0
 26 63  2  0  0  0  0
 27 64  1  0  0  0  0
 27 67  1  0  0  0  0
 28 68  1  0  0  0  0
 28 74  2  0  0  0  0
 29 45  1  0  0  0  0
 29 69  1  0  0  0  0
 29 75  2  0  0  0  0
 30 60  1  0  0  0  0
 30 65  1  0  0  0  0
 30 76  2  0  0  0  0
 31 61  1  0  0  0  0
 31 70  1  0  0  0  0
 31 77  2  0  0  0  0
 32 66  1  0  0  0  0
 32 71  1  0  0  0  0
 32 78  2  0  0  0  0
 33 36  1  0  0  0  0
 34 45  1  0  0  0  0
 35 65  1  0  0  0  0
 36 38  1  0  0  0  0
 37 39  1  0  0  0  0
 37 41  1  0  0  0  0
 38 44  1  0  0  0  0
 39 46  1  0  0  0  0
 40 47  1  0  0  0  0
 40 48  1  0  0  0  0
 41 66  1  0  0  0  0
 42 46  1  0  0  0  0
 42 66  1  0  0  0  0
 43 49  1  0  0  0  0
 43 72  1  0  0  0  0
 44 69  1  0  0  0  0
 45 65  1  0  0  0  0
 46 64  1  0  0  0  0
 47 49  1  0  0  0  0
 47 71  1  0  0  0  0
 48 50  1  0  0  0  0
 48 72  1  0  0  0  0
 49 51  1  0  0  0  0
 49 52  1  0  0  0  0
 53 61  1  0  0  0  0
 54 62  1  0  0  0  0
 55 62  1  0  0  0  0
 56 62  1  0  0  0  0
 57 73  1  0  0  0  0
 58 59  1  0  0  0  0
 58 72  1  0  0  0  0
 59 80  1  0  0  0  0
 60 62  1  0  0  0  0
 60 70  1  0  0  0  0
 61 73  1  0  0  0  0
 63 64  1  0  0  0  0
M  CHG  2  72   1  73   1
M  ISO  4  32 100  59 101  71 100  80 101
M  END
> <Batch ID>
0147

> <Smiles>
CNC(C)C(=O)NC(C(=O)N1Cc2cc([101O:1][101CH2:1]CN3CC(C)(C)C([100NH:0][100C:0](=O)N4CCCC(n5nc(-c6ccc(Oc7ccc(F)cc7F)cc6)c(C(N)=O)c5N)C4)CC3C)ccc2CC1C(=O)NC1CCCc2ccccc21)C(C)(C)C

> <Shape>
0.192

> <Color>
0.090

> <Negative vol penalty>
0.000

$$$$

  -OEChem-04052321333D

 90100  0     1  0  0  0  0  0999 V2000
  -28.7779  -11.8153   23.5488 C   0  0  0  0  0  0  0  0  0  0  0  0
  -29.5877  -12.9339   23.7165 C   0  0  0  0  0  0  0  0  0  0  0  0
  -19.2791  -20.6220   23.6014 C   0  0  0  0  0  0  0  0  0  0  0  0
  -19.9327  -20.7471   21.2788 C   0  0  0  0  0  0  0  0  0  0  0  0
  -28.2467  -11.5225   22.2934 C   0  0  0  0  0  0  0  0  0  0  0  0
  -29.8678  -13.7600   22.6285 C   0  0  0  0  0  0  0  0  0  0  0  0
  -28.7242  -21.4381   21.7534 C   0  0  0  0  0  0  0  0  0  0  0  0
  -27.2751  -29.8777   21.2451 C   0  0  0  0  0  0  0  0  0  0  0  0
  -18.6199  -19.4186   23.3511 C   0  0  0  0  0  0  0  0  0  0  0  0
  -19.2735  -19.5435   21.0285 C   0  0  0  0  0  0  0  0  0  0  0  0
  -28.4261  -22.7599   21.4214 C   0  0  0  0  0  0  0  0  0  0  0  0
  -27.6950  -28.8063   20.4505 C   0  0  0  0  0  0  0  0  0  0  0  0
  -19.8568  -16.2454   21.4788 C   0  0  0  0  0  0  0  0  0  0  0  0
  -20.5210  -15.2929   20.7061 C   0  0  0  0  0  0  0  0  0  0  0  0
  -28.3187  -22.1592   19.0814 C   0  0  0  0  0  0  0  0  0  0  0  0
  -25.4033  -28.3235   19.8114 C   0  0  0  0  0  0  0  0  0  0  0  0
  -18.7356  -15.3671   19.0801 C   0  0  0  0  0  0  0  0  0  0  0  0
  -19.9355  -21.2863   22.5652 C   0  0  0  0  0  0  0  0  0  0  0  0
  -21.9591  -22.6996   23.2099 C   0  0  0  0  0  0  0  0  0  0  0  0
  -28.5125  -12.3508   21.1915 C   0  0  0  0  0  0  0  0  0  0  0  0
  -28.8056  -20.4677   20.7509 C   0  0  0  0  0  0  0  0  0  0  0  0
  -29.3407  -13.4773   21.3569 C   0  0  0  0  0  0  0  0  0  0  0  0
  -28.6047  -20.8312   19.4091 C   0  0  0  0  0  0  0  0  0  0  0  0
  -24.9996  -29.3798   20.6129 C   0  0  0  0  0  0  0  0  0  0  0  0
  -25.9201  -30.1623   21.3254 C   0  0  0  0  0  0  0  0  0  0  0  0
  -18.6171  -18.8793   22.0647 C   0  0  0  0  0  0  0  0  0  0  0  0
  -28.2241  -23.1195   20.0887 C   0  0  0  0  0  0  0  0  0  0  0  0
  -26.7657  -28.0350   19.7384 C   0  0  0  0  0  0  0  0  0  0  0  0
  -18.6319  -16.7587   21.0523 C   0  0  0  0  0  0  0  0  0  0  0  0
  -19.9605  -14.8538   19.5067 C   0  0  0  0  0  0  0  0  0  0  0  0
  -18.0714  -16.3195   19.8529 C   0  0  0  0  0  0  0  0  0  0  0  0
  -20.6162  -22.5298   22.8230 C   0  0  0  0  0  0  0  0  0  0  0  0
  -22.1138  -24.0594   23.3257 C   0  0  0  0  0  0  0  0  0  0  0  0
  -22.9758  -21.7160   23.4435 C   0  0  0  0  0  0  0  0  0  0  0  0
  -29.3925  -16.8651   19.8829 C   0  0  0  0  0  0  0  0  0  0  0  0
  -27.0857  -17.8437   18.1133 C   0  0  0  0  0  0  0  0  0  0  0  0
  -24.3108  -19.1900   16.6556 C   0  0  0  0  0  0  0  0  0  0  0  0
  -21.3039  -29.2318   21.3930 C   0  0  0  0  0  0  0  0  0  0  0  0
  -27.9545  -11.9674   19.8438 C   0  0  0  0  0  0  0  0  0  0  0  0
  -29.1849  -19.0440   21.0560 C   0  0  0  0  0  0  0  0  0  0  0  0
  -28.7364  -19.7605   18.3607 C   0  0  0  0  0  0  0  0  0  0  0  0
  -27.9939  -13.1018   18.8232 C   0  0  0  0  0  0  0  0  0  0  0  0
  -18.6827  -27.7761   23.3131 C   0  0  0  0  0  0  0  0  0  0  0  0
  -29.3576  -13.7851   18.8368 C   0  0  0  0  0  0  0  0  0  0  0  0
  -26.1751  -34.4869   23.6535 C   0  0  0  0  0  0  0  0  0  0  0  0
  -25.9991  -34.3915   22.1636 C   0  0  0  0  0  0  0  0  0  0  0  0
  -19.0596  -26.2953   23.3832 C   0  0  0  0  0  0  0  0  0  0  0  0
  -19.0456  -28.3875   21.9616 C   0  0  0  0  0  0  0  0  0  0  0  0
  -23.8580  -30.8677   22.0340 C   0  0  0  0  0  0  0  0  0  0  0  0
  -20.8274  -26.7187   21.6241 C   0  0  0  0  0  0  0  0  0  0  0  0
  -29.6472  -14.4113   20.2063 C   0  0  1  0  0  0  0  0  0  0  0  0
  -23.6205  -29.9238   20.8328 C   0  0  2  0  0  0  0  0  0  0  0  0
  -28.4757  -18.0228   20.1486 C   0  0  1  0  0  0  0  0  0  0  0  0
  -25.3727  -33.3613   23.0620 C   0  0  0  0  0  0  0  0  0  0  0  0
  -20.5318  -26.0720   22.9882 C   0  0  2  0  0  0  0  0  0  0  0  0
  -22.2035  -19.2740   15.2957 C   0  0  0  0  0  0  0  0  0  0  0  0
  -26.2340  -29.7976   24.5010 C   0  0  0  0  0  0  0  0  0  0  0  0
  -26.3839  -32.0536   25.5834 C   0  0  0  0  0  0  0  0  0  0  0  0
  -29.0322  -18.1563   15.7858 C   0  0  0  0  0  0  0  0  0  0  0  0
  -27.0657  -18.5482   14.2865 C   0  0  0  0  0  0  0  0  0  0  0  0
  -27.3115  -16.3684   15.4743 C   0  0  0  0  0  0  0  0  0  0  0  0
  -22.6448  -18.4175   18.9764 C   0  0  0  0  0  0  0  0  0  0  0  0
  -27.1217  -24.6267   18.6153 C   0  0  0  0  0  0  0  0  0  1  0  0
  -26.3123  -25.8947   18.8059 C   0  0  0  0  0  0  0  0  0  0  0  0
  -26.6688  -18.4304   16.7884 C   0  0  1  0  0  0  0  0  0  0  0  0
  -22.8959  -18.6617   16.5034 C   0  0  2  0  0  0  0  0  0  0  0  0
  -25.9139  -31.9337   23.0885 C   0  0  1  0  0  0  0  0  0  0  0  0
  -25.7281  -31.2431   24.4594 C   0  0  0  0  0  0  0  0  0  0  0  0
  -27.5238  -17.8922   15.6066 C   0  0  0  0  0  0  0  0  0  0  0  0
  -19.9642  -23.6892   22.7014 N   0  0  0  0  0  0  0  0  0  0  0  0
  -20.9013  -24.6004   23.0137 N   0  0  0  0  0  0  0  0  0  0  0  0
  -25.2879  -31.1752   22.0351 N   0  0  1  0  0  0  0  0  0  0  0  0
  -28.0843  -18.5244   18.8204 N   0  0  0  0  0  0  0  0  0  0  0  0
  -20.4551  -28.1419   21.6472 N   0  0  0  0  0  0  0  0  0  0  0  0
  -23.1673  -24.8331   23.6631 N   0  0  0  0  0  0  0  0  0  0  0  0
  -22.6473  -20.3634   23.2791 N   0  0  0  0  0  0  0  0  0  0  0  0
  -28.9228  -15.6551   20.3567 N   0  0  0  0  0  0  0  0  0  0  0  0
  -25.2391  -18.1704   16.6586 N   0  0  0  0  0  0  0  0  0  0  0  0
  -22.6259  -28.9113   21.1095 N   0  0  0  0  0  0  0  0  0  0  0  0
  -22.0913  -18.9785   17.7171 N   0  3  0  0  0  0  0  0  0  0  0  0
  -24.1365  -22.0264   23.8039 O   0  0  0  0  0  0  0  0  0  0  0  0
  -30.4483  -17.0543   19.2901 O   0  0  0  0  0  0  0  0  0  0  0  0
  -26.5464  -16.8069   18.5103 O   0  0  0  0  0  0  0  0  0  0  0  0
  -24.5674  -20.3876   16.7576 O   0  0  0  0  0  0  0  0  0  0  0  0
  -20.9138  -30.4040   21.4220 O   0  0  0  0  0  0  0  0  0  0  0  0
  -17.9741  -17.7049   21.8202 O   0  0  0  0  0  0  0  0  0  0  0  0
  -27.9290  -24.4108   19.7721 O   0  0  0  0  0  0  0  0  0  1  0  0
  -27.2011  -26.9944   18.9607 O   0  0  0  0  0  0  0  0  0  0  0  0
  -20.5992  -13.9402   18.7639 F   0  0  0  0  0  0  0  0  0  0  0  0
  -16.8955  -16.8099   19.4373 F   0  0  0  0  0  0  0  0  0  0  0  0
  1  2  1  0  0  0  0
  1  5  2  0  0  0  0
  2  6  2  0  0  0  0
  3  9  2  0  0  0  0
  3 18  1  0  0  0  0
  4 10  1  0  0  0  0
  4 18  2  0  0  0  0
  5 20  1  0  0  0  0
  6 22  1  0  0  0  0
  7 11  2  0  0  0  0
  7 21  1  0  0  0  0
  8 12  2  0  0  0  0
  8 25  1  0  0  0  0
  9 26  1  0  0  0  0
 10 26  2  0  0  0  0
 11 27  1  0  0  0  0
 12 28  1  0  0  0  0
 13 14  2  0  0  0  0
 13 29  1  0  0  0  0
 14 30  1  0  0  0  0
 15 23  1  0  0  0  0
 15 27  2  0  0  0  0
 16 24  1  0  0  0  0
 16 28  2  0  0  0  0
 17 30  2  0  0  0  0
 17 31  1  0  0  0  0
 18 32  1  0  0  0  0
 19 32  1  0  0  0  0
 19 33  2  0  0  0  0
 19 34  1  0  0  0  0
 20 22  2  0  0  0  0
 20 39  1  0  0  0  0
 21 23  2  0  0  0  0
 21 40  1  0  0  0  0
 22 51  1  0  0  0  0
 23 41  1  0  0  0  0
 24 25  2  0  0  0  0
 24 52  1  0  0  0  0
 25 72  1  0  0  0  0
 26 86  1  0  0  0  0
 27 87  1  0  0  0  0
 28 88  1  0  0  0  0
 29 31  2  0  0  0  0
 29 86  1  0  0  0  0
 30 89  1  0  0  0  0
 31 90  1  0  0  0  0
 32 70  2  0  0  0  0
 33 71  1  0  0  0  0
 33 75  1  0  0  0  0
 34 76  1  0  0  0  0
 34 81  2  0  0  0  0
 35 53  1  0  0  0  0
 35 77  1  0  0  0  0
 35 82  2  0  0  0  0
 36 65  1  0  0  0  0
 36 73  1  0  0  0  0
 36 83  2  0  0  0  0
 37 66  1  0  0  0  0
 37 78  1  0  0  0  0
 37 84  2  0  0  0  0
 38 74  1  0  0  0  0
 38 79  1  0  0  0  0
 38 85  2  0  0  0  0
 39 42  1  0  0  0  0
 40 53  1  0  0  0  0
 41 73  1  0  0  0  0
 42 44  1  0  0  0  0
 43 47  1  0  0  0  0
 43 48  1  0  0  0  0
 44 51  1  0  0  0  0
 45 46  1  0  0  0  0
 45 54  1  0  0  0  0
 46 54  1  0  0  0  0
 47 55  1  0  0  0  0
 48 74  1  0  0  0  0
 49 52  1  0  0  0  0
 49 72  1  0  0  0  0
 50 55  1  0  0  0  0
 50 74  1  0  0  0  0
 51 77  1  0  0  0  0
 52 79  1  0  0  0  0
 53 73  1  0  0  0  0
 54 67  1  0  0  0  0
 55 71  1  0  0  0  0
 56 66  1  0  0  0  0
 57 68  1  0  0  0  0
 58 68  1  0  0  0  0
 59 69  1  0  0  0  0
 60 69  1  0  0  0  0
 61 69  1  0  0  0  0
 62 80  1  0  0  0  0
 63 64  1  0  0  0  0
 63 87  1  0  0  0  0
 64 88  1  0  0  0  0
 65 69  1  0  0  0  0
 65 78  1  0  0  0  0
 66 80  1  0  0  0  0
 67 68  1  0  0  0  0
 67 72  1  0  0  0  0
 70 71  1  0  0  0  0
M  CHG  1  80   1
M  ISO  4  38 100  63 101  79 100  87 101
M  END
> <Batch ID>
0147

> <Smiles>
CNC(C)C(=O)NC(C(=O)N1Cc2cc([101O:1][101CH2:1]COc3ccc4c(c3)C([100NH:0][100C:0](=O)N3CCCC(n5nc(-c6ccc(Oc7ccc(F)cc7F)cc6)c(C(N)=O)c5N)C3)CN4C(C(C)C)C3CC3)ccc2CC1C(=O)NC1CCCc2ccccc21)C(C)(C)C

> <Shape>
0.251

> <Color>
0.069

> <Negative vol penalty>
0.000

$$$$

  -OEChem-04052321333D

 89 99  0     1  0  0  0  0  0999 V2000
  -29.5119  -31.2850   26.4446 C   0  0  0  0  0  0  0  0  0  0  0  0
  -29.2257  -30.2724   25.5347 C   0  0  0  0  0  0  0  0  0  0  0  0
  -28.4161  -13.6973   19.0518 C   0  0  0  0  0  0  0  0  0  0  0  0
  -28.1805  -11.8098   20.5414 C   0  0  0  0  0  0  0  0  0  0  0  0
  -28.4730  -31.9935   27.0469 C   0  0  0  0  0  0  0  0  0  0  0  0
  -27.9004  -29.9669   25.2273 C   0  0  0  0  0  0  0  0  0  0  0  0
  -27.1500  -29.3571   20.2563 C   0  0  0  0  0  0  0  0  0  0  0  0
  -27.7383  -24.8044   24.0522 C   0  0  0  0  0  0  0  0  0  0  0  0
  -29.7424  -13.3402   18.8090 C   0  0  0  0  0  0  0  0  0  0  0  0
  -29.5068  -11.4526   20.2986 C   0  0  0  0  0  0  0  0  0  0  0  0
  -27.5518  -28.1455   19.6956 C   0  0  0  0  0  0  0  0  0  0  0  0
  -31.4084  -11.0759   16.9301 C   0  0  0  0  0  0  0  0  0  0  0  0
  -31.8527  -11.0930   15.6080 C   0  0  0  0  0  0  0  0  0  0  0  0
  -26.9303  -25.2392   25.0969 C   0  0  0  0  0  0  0  0  0  0  0  0
  -25.2699  -27.3658   19.7604 C   0  0  0  0  0  0  0  0  0  0  0  0
  -33.5276  -12.7333   16.1921 C   0  0  0  0  0  0  0  0  0  0  0  0
  -27.6351  -12.9321   19.9181 C   0  0  0  0  0  0  0  0  0  0  0  0
  -25.1268  -12.8799   19.4566 C   0  0  0  0  0  0  0  0  0  0  0  0
  -27.1345  -31.7030   26.7394 C   0  0  0  0  0  0  0  0  0  0  0  0
  -25.8046  -29.5784   20.5839 C   0  0  0  0  0  0  0  0  0  0  0  0
  -26.8426  -30.6712   25.8270 C   0  0  0  0  0  0  0  0  0  0  0  0
  -24.8532  -28.5820   20.3228 C   0  0  0  0  0  0  0  0  0  0  0  0
  -27.3598  -23.6960   23.3029 C   0  0  0  0  0  0  0  0  0  0  0  0
  -30.2878  -12.2178   19.4324 C   0  0  0  0  0  0  0  0  0  0  0  0
  -26.6121  -27.1485   19.4503 C   0  0  0  0  0  0  0  0  0  0  0  0
  -32.0236  -11.8876   17.8832 C   0  0  0  0  0  0  0  0  0  0  0  0
  -32.9123  -11.9217   15.2390 C   0  0  0  0  0  0  0  0  0  0  0  0
  -33.0832  -12.7163   17.5142 C   0  0  0  0  0  0  0  0  0  0  0  0
  -26.2652  -13.3009   20.1698 C   0  0  0  0  0  0  0  0  0  0  0  0
  -26.1734  -23.0624   23.6360 C   0  0  0  0  0  0  0  0  0  0  0  0
  -25.7632  -24.5366   25.3496 C   0  0  0  0  0  0  0  0  0  0  0  0
  -24.0775  -13.5053   20.0845 C   0  0  0  0  0  0  0  0  0  0  0  0
  -25.0267  -12.0019   18.3275 C   0  0  0  0  0  0  0  0  0  0  0  0
  -24.2185  -30.1659   23.2752 C   0  0  0  0  0  0  0  0  0  0  0  0
  -21.7110  -30.5536   21.2542 C   0  0  0  0  0  0  0  0  0  0  0  0
  -20.2960  -29.8612   18.2268 C   0  0  0  0  0  0  0  0  0  0  0  0
  -23.5070  -18.4107   23.2558 C   0  0  0  0  0  0  0  0  0  0  0  0
  -26.0444  -32.4642   27.4515 C   0  0  0  0  0  0  0  0  0  0  0  0
  -25.3831  -30.9009   21.1634 C   0  0  0  0  0  0  0  0  0  0  0  0
  -23.3933  -28.7775   20.6374 C   0  0  0  0  0  0  0  0  0  0  0  0
  -24.6756  -32.3306   26.7890 C   0  0  0  0  0  0  0  0  0  0  0  0
  -22.7296  -15.2201   24.3345 C   0  0  0  0  0  0  0  0  0  0  0  0
  -24.3886  -30.8723   26.4460 C   0  0  0  0  0  0  0  0  0  0  0  0
  -28.3914  -23.1158   19.6465 C   0  0  0  0  0  0  0  0  0  0  0  0
  -23.4315  -14.3136   23.3236 C   0  0  0  0  0  0  0  0  0  0  0  0
  -28.5572  -24.1607   18.5373 C   0  0  0  0  0  0  0  0  0  0  0  0
  -26.2919  -20.5401   23.4219 C   0  0  0  0  0  0  0  0  0  0  0  0
  -24.1753  -21.7664   22.7696 C   0  0  0  0  0  0  0  0  0  0  0  0
  -28.4713  -25.2691   20.6899 C   0  0  0  0  0  0  0  0  0  0  0  0
  -23.6104  -16.4070   24.7068 C   0  0  0  0  0  0  0  0  0  0  0  0
  -25.7946  -19.3155   22.6485 C   0  0  0  0  0  0  0  0  0  0  0  0
  -23.7415  -20.5268   21.9926 C   0  0  0  0  0  0  0  0  0  0  0  0
  -24.7538  -16.3306   22.5148 C   0  0  0  0  0  0  0  0  0  0  0  0
  -25.4182  -30.3270   25.4490 C   0  0  1  0  0  0  0  0  0  0  0  0
  -25.7103  -21.8474   22.8544 C   0  0  0  0  0  0  0  0  0  0  0  0
  -24.0680  -30.8242   21.9329 C   0  0  1  0  0  0  0  0  0  0  0  0
  -27.8609  -23.8787   20.8599 C   0  0  2  0  0  0  0  0  0  0  0  0
  -23.9027  -15.1143   22.0967 C   0  0  1  0  0  0  0  0  0  0  0  0
  -28.3281  -25.5219   19.1942 C   0  0  2  0  0  0  0  0  0  1  0  0
  -24.8719  -24.9762   26.4631 C   0  0  0  0  0  0  0  0  0  0  0  0
  -18.2238  -30.2878   16.8771 C   0  0  0  0  0  0  0  0  0  0  0  0
  -20.1910  -28.5235   22.9507 C   0  0  0  0  0  0  0  0  0  0  0  0
  -18.5553  -28.2815   21.0707 C   0  0  0  0  0  0  0  0  0  0  0  0
  -18.8318  -30.4859   22.2050 C   0  0  0  0  0  0  0  0  0  0  0  0
  -21.8267  -31.2265   16.0933 C   0  0  0  0  0  0  0  0  0  0  0  0
  -28.2217  -23.2252   22.1830 C   0  0  0  0  0  0  0  0  0  0  0  0
  -20.6568  -29.6435   20.6715 C   0  0  1  0  0  0  0  0  0  0  0  0
  -19.6348  -30.7575   17.1953 C   0  0  2  0  0  0  0  0  0  0  0  0
  -19.5865  -29.2289   21.7202 C   0  0  0  0  0  0  0  0  0  0  0  0
  -25.9673  -14.1298   21.1738 N   0  0  0  0  0  0  0  0  0  0  0  0
  -25.3625  -23.4555   24.6437 N   0  0  0  0  0  0  0  0  0  0  0  0
  -24.6297  -14.2348   21.0960 N   0  0  0  0  0  0  0  0  0  0  0  0
  -23.0317  -30.0853   21.2087 N   0  0  0  0  0  0  0  0  0  0  0  0
  -24.0398  -17.1390   23.5154 N   0  0  0  0  0  0  0  0  0  0  0  0
  -24.3275  -19.3150   22.5648 N   0  0  0  0  0  0  0  0  0  0  0  0
  -22.7456  -13.4971   19.8646 N   0  0  0  0  0  0  0  0  0  0  0  0
  -26.2033  -11.4455   17.8074 N   0  0  0  0  0  0  0  0  0  0  0  0
  -25.1224  -30.7932   24.1112 N   0  0  0  0  0  0  0  0  0  0  0  0
  -20.1159  -30.3378   19.5080 N   0  0  0  0  0  0  0  0  0  0  0  0
  -20.4245  -30.7630   15.9315 N   0  3  0  0  0  0  0  0  0  0  0  0
  -23.9282  -11.7320   17.7854 O   0  0  0  0  0  0  0  0  0  0  0  0
  -23.5620  -29.1640   23.5338 O   0  0  0  0  0  0  0  0  0  0  0  0
  -21.3758  -31.6432   21.7256 O   0  0  0  0  0  0  0  0  0  0  0  0
  -20.9076  -28.8384   17.9263 O   0  0  0  0  0  0  0  0  0  0  0  0
  -22.3654  -18.7205   23.6191 O   0  0  0  0  0  0  0  0  0  0  0  0
  -31.5819  -11.8689   19.1955 O   0  0  0  0  0  0  0  0  0  0  0  0
  -27.0041  -25.9574   18.9003 O   0  0  0  0  0  0  0  0  0  1  0  0
  -33.3399  -11.9368   13.9697 F   0  0  0  0  0  0  0  0  0  0  0  0
  -33.6790  -13.4974   18.4256 F   0  0  0  0  0  0  0  0  0  0  0  0
  1  2  1  0  0  0  0
  1  5  2  0  0  0  0
  2  6  2  0  0  0  0
  3  9  2  0  0  0  0
  3 17  1  0  0  0  0
  4 10  1  0  0  0  0
  4 17  2  0  0  0  0
  5 19  1  0  0  0  0
  6 21  1  0  0  0  0
  7 11  2  0  0  0  0
  7 20  1  0  0  0  0
  8 14  2  0  0  0  0
  8 23  1  0  0  0  0
  9 24  1  0  0  0  0
 10 24  2  0  0  0  0
 11 25  1  0  0  0  0
 12 13  2  0  0  0  0
 12 26  1  0  0  0  0
 13 27  1  0  0  0  0
 14 31  1  0  0  0  0
 15 22  1  0  0  0  0
 15 25  2  0  0  0  0
 16 27  2  0  0  0  0
 16 28  1  0  0  0  0
 17 29  1  0  0  0  0
 18 29  1  0  0  0  0
 18 32  2  0  0  0  0
 18 33  1  0  0  0  0
 19 21  2  0  0  0  0
 19 38  1  0  0  0  0
 20 22  2  0  0  0  0
 20 39  1  0  0  0  0
 21 54  1  0  0  0  0
 22 40  1  0  0  0  0
 23 30  2  0  0  0  0
 23 66  1  0  0  0  0
 24 86  1  0  0  0  0
 25 87  1  0  0  0  0
 26 28  2  0  0  0  0
 26 86  1  0  0  0  0
 27 88  1  0  0  0  0
 28 89  1  0  0  0  0
 29 70  2  0  0  0  0
 30 55  1  0  0  0  0
 30 71  1  0  0  0  0
 31 60  1  0  0  0  0
 31 71  2  0  0  0  0
 32 72  1  0  0  0  0
 32 76  1  0  0  0  0
 33 77  1  0  0  0  0
 33 81  2  0  0  0  0
 34 56  1  0  0  0  0
 34 78  1  0  0  0  0
 34 82  2  0  0  0  0
 35 67  1  0  0  0  0
 35 73  1  0  0  0  0
 35 83  2  0  0  0  0
 36 68  1  0  0  0  0
 36 79  1  0  0  0  0
 36 84  2  0  0  0  0
 37 74  1  0  0  0  0
 37 75  1  0  0  0  0
 37 85  2  0  0  0  0
 38 41  1  0  0  0  0
 39 56  1  0  0  0  0
 40 73  1  0  0  0  0
 41 43  1  0  0  0  0
 42 45  1  0  0  0  0
 42 50  1  0  0  0  0
 43 54  1  0  0  0  0
 44 46  1  0  0  0  0
 44 57  1  0  0  0  0
 45 58  1  0  0  0  0
 46 59  1  0  0  0  0
 47 51  1  0  0  0  0
 47 55  1  0  0  0  0
 48 52  1  0  0  0  0
 48 55  1  0  0  0  0
 49 57  1  0  0  0  0
 49 59  1  0  0  0  0
 50 74  1  0  0  0  0
 51 75  1  0  0  0  0
 52 75  1  0  0  0  0
 53 58  1  0  0  0  0
 53 74  1  0  0  0  0
 54 78  1  0  0  0  0
 56 73  1  0  0  0  0
 57 66  1  0  0  0  0
 58 72  1  0  0  0  0
 59 87  1  0  0  0  0
 61 68  1  0  0  0  0
 62 69  1  0  0  0  0
 63 69  1  0  0  0  0
 64 69  1  0  0  0  0
 65 80  1  0  0  0  0
 67 69  1  0  0  0  0
 67 79  1  0  0  0  0
 68 80  1  0  0  0  0
 70 72  1  0  0  0  0
M  CHG  1  80   1
M  ISO  4  37 100  59 101  75 100  87 101
M  END
> <Batch ID>
0147

> <Smiles>
CNC(C)C(=O)NC(C(=O)N1Cc2cc([101O:1][101CH:1]3CCC(Cc4ccc(C)nc4C4CC[100N:0]([100C:0](=O)N5CCCC(n6nc(-c7ccc(Oc8ccc(F)cc8F)cc7)c(C(N)=O)c6N)C5)CC4)C3)ccc2CC1C(=O)NC1CCCc2ccccc21)C(C)(C)C

> <Shape>
0.225

> <Color>
0.082

> <Negative vol penalty>
0.000

$$$$

  -OEChem-04052321333D

 90 99  0     1  0  0  0  0  0999 V2000
  -26.2914  -38.6554   21.4138 C   0  0  0  0  0  0  0  0  0  0  0  0
  -26.9598  -37.6772   20.6845 C   0  0  0  0  0  0  0  0  0  0  0  0
  -22.1589  -10.2840   20.5919 C   0  0  0  0  0  0  0  0  0  0  0  0
  -24.3843   -9.3998   20.9132 C   0  0  0  0  0  0  0  0  0  0  0  0
  -25.6397  -38.3165   22.5988 C   0  0  0  0  0  0  0  0  0  0  0  0
  -26.9778  -36.3596   21.1406 C   0  0  0  0  0  0  0  0  0  0  0  0
  -27.0651  -29.6163   18.7244 C   0  0  0  0  0  0  0  0  0  0  0  0
  -21.6203   -9.0254   20.8591 C   0  0  0  0  0  0  0  0  0  0  0  0
  -23.8456   -8.1412   21.1804 C   0  0  0  0  0  0  0  0  0  0  0  0
  -27.7810  -28.4290   18.8707 C   0  0  0  0  0  0  0  0  0  0  0  0
  -23.0387   -4.7781   22.3014 C   0  0  0  0  0  0  0  0  0  0  0  0
  -23.5493   -4.0712   23.3900 C   0  0  0  0  0  0  0  0  0  0  0  0
  -26.5536  -27.9447   20.8902 C   0  0  0  0  0  0  0  0  0  0  0  0
  -29.8659  -24.3615   22.1350 C   0  0  0  0  0  0  0  0  0  0  0  0
  -30.4831  -22.1923   21.2687 C   0  0  0  0  0  0  0  0  0  0  0  0
  -22.8733   -5.8589   24.8680 C   0  0  0  0  0  0  0  0  0  0  0  0
  -23.5409  -10.4712   20.6189 C   0  0  0  0  0  0  0  0  0  0  0  0
  -24.3706  -12.7939   21.2704 C   0  0  0  0  0  0  0  0  0  0  0  0
  -25.6415  -36.9922   23.0645 C   0  0  0  0  0  0  0  0  0  0  0  0
  -26.0940  -29.9827   19.6674 C   0  0  0  0  0  0  0  0  0  0  0  0
  -26.3266  -36.0028   22.3337 C   0  0  0  0  0  0  0  0  0  0  0  0
  -25.8249  -29.1360   20.7522 C   0  0  0  0  0  0  0  0  0  0  0  0
  -30.7062  -23.2483   22.1522 C   0  0  0  0  0  0  0  0  0  0  0  0
  -28.8023  -24.4186   21.2343 C   0  0  0  0  0  0  0  0  0  0  0  0
  -29.4195  -22.2494   20.3680 C   0  0  0  0  0  0  0  0  0  0  0  0
  -28.5791  -23.3626   20.3508 C   0  0  0  0  0  0  0  0  0  0  0  0
  -22.4636   -7.9540   21.1533 C   0  0  0  0  0  0  0  0  0  0  0  0
  -27.5274  -27.5944   19.9553 C   0  0  0  0  0  0  0  0  0  0  0  0
  -22.4455   -6.0255   22.4960 C   0  0  0  0  0  0  0  0  0  0  0  0
  -23.4666   -4.6115   24.6733 C   0  0  0  0  0  0  0  0  0  0  0  0
  -22.3628   -6.5658   23.7793 C   0  0  0  0  0  0  0  0  0  0  0  0
  -24.0980  -11.7710   20.3425 C   0  0  0  0  0  0  0  0  0  0  0  0
  -24.8871  -13.8163   20.5126 C   0  0  0  0  0  0  0  0  0  0  0  0
  -24.1745  -12.8177   22.6905 C   0  0  0  0  0  0  0  0  0  0  0  0
  -25.7265  -32.4161   21.6792 C   0  0  0  0  0  0  0  0  0  0  0  0
  -22.8417  -31.0322   22.2128 C   0  0  0  0  0  0  0  0  0  0  0  0
  -20.9245  -28.2098   22.1399 C   0  0  0  0  0  0  0  0  0  0  0  0
  -28.2686  -15.6480   16.4684 C   0  0  0  0  0  0  0  0  0  0  0  0
  -24.9631  -36.6828   24.3755 C   0  0  0  0  0  0  0  0  0  0  0  0
  -25.3117  -31.2538   19.4809 C   0  0  0  0  0  0  0  0  0  0  0  0
  -24.7784  -29.4738   21.7813 C   0  0  0  0  0  0  0  0  0  0  0  0
  -24.7127  -35.1931   24.5951 C   0  0  0  0  0  0  0  0  0  0  0  0
  -25.0687  -14.4277   15.4946 C   0  0  0  0  0  0  0  0  0  0  0  0
  -26.5694  -19.1822   19.9839 C   0  0  0  0  0  0  0  0  0  0  0  0
  -25.9623  -34.3862   24.2571 C   0  0  0  0  0  0  0  0  0  0  0  0
  -24.5566  -13.7072   16.7430 C   0  0  0  0  0  0  0  0  0  0  0  0
  -27.5652  -19.8415   20.9194 C   0  0  0  0  0  0  0  0  0  0  0  0
  -26.5755  -14.2516   15.3196 C   0  0  0  0  0  0  0  0  0  0  0  0
  -26.8717  -13.9095   17.7422 C   0  0  0  0  0  0  0  0  0  0  0  0
  -27.3760  -18.0533   19.3820 C   0  0  0  0  0  0  0  0  0  0  0  0
  -26.3477  -34.5579   22.7828 C   0  0  1  0  0  0  0  0  0  0  0  0
  -24.7062  -31.7787   20.7790 C   0  0  1  0  0  0  0  0  0  0  0  0
  -25.3664  -14.1048   17.9918 C   0  0  2  0  0  0  0  0  0  0  0  0
  -28.8941  -19.8075   20.1650 C   0  0  2  0  0  0  0  0  0  0  0  0
  -31.8429  -23.1870   23.1157 C   0  0  0  0  0  0  0  0  0  0  0  0
  -27.4390  -23.4243   19.3849 C   0  0  0  0  0  0  0  0  0  0  0  0
  -30.3889  -20.8979   18.4738 C   0  0  0  0  0  0  0  0  0  0  0  0
  -18.6158  -27.3824   22.6717 C   0  0  0  0  0  0  0  0  0  0  0  0
  -31.2864  -16.3838   17.4570 C   0  0  0  0  0  0  0  0  0  0  0  0
  -23.5221  -31.0527   25.1871 C   0  0  0  0  0  0  0  0  0  0  0  0
  -21.6748  -29.4023   25.5499 C   0  0  0  0  0  0  0  0  0  0  0  0
  -21.1587  -31.6722   24.6533 C   0  0  0  0  0  0  0  0  0  0  0  0
  -20.4295  -27.4326   19.3274 C   0  0  0  0  0  0  0  0  0  0  0  0
  -27.9139  -25.6278   21.2355 C   0  0  0  0  0  0  0  0  0  1  0  0
  -29.8549  -17.7112   19.1016 C   0  0  0  0  0  0  0  0  0  0  0  0
  -29.2020  -21.1054   19.4321 C   0  0  2  0  0  0  0  0  0  0  0  0
  -22.3177  -29.9867   23.1675 C   0  0  1  0  0  0  0  0  0  0  0  0
  -19.5296  -27.9533   21.5985 C   0  0  2  0  0  0  0  0  0  0  0  0
  -29.9156  -16.9811   17.7605 C   0  0  2  0  0  0  0  0  0  0  0  0
  -22.1895  -30.5228   24.6213 C   0  0  0  0  0  0  0  0  0  0  0  0
  -24.4149  -12.1125   19.0907 N   0  0  0  0  0  0  0  0  0  0  0  0
  -24.8920  -13.3615   19.2268 N   0  0  0  0  0  0  0  0  0  0  0  0
  -24.0445  -30.7305   21.5585 N   0  0  0  0  0  0  0  0  0  0  0  0
  -27.2852  -14.6476   16.5384 N   0  0  0  0  0  0  0  0  0  0  0  0
  -25.3330  -15.0510   20.8272 N   0  0  0  0  0  0  0  0  0  0  0  0
  -23.6334  -11.6826   23.3095 N   0  0  0  0  0  0  0  0  0  0  0  0
  -25.4907  -33.7526   21.9393 N   0  0  0  0  0  0  0  0  0  0  0  0
  -21.0654  -29.5033   22.5962 N   0  0  0  0  0  0  0  0  0  0  0  0
  -28.8882  -15.9677   17.6703 N   0  0  0  0  0  0  0  0  0  0  0  0
  -28.7246  -18.6904   19.1373 N   0  3  1  0  0  0  0  0  0  0  0  0
  -19.5835  -26.9877   20.4647 N   0  3  0  0  0  0  0  0  0  0  0  0
  -24.4552  -13.8221   23.3877 O   0  0  0  0  0  0  0  0  0  0  0  0
  -26.6579  -31.7447   22.1074 O   0  0  0  0  0  0  0  0  0  0  0  0
  -22.2035  -32.0749   22.0481 O   0  0  0  0  0  0  0  0  0  0  0  0
  -21.8003  -27.3477   22.1596 O   0  0  0  0  0  0  0  0  0  0  0  0
  -28.5684  -16.2181   15.4138 O   0  0  0  0  0  0  0  0  0  0  0  0
  -21.9384   -6.7258   21.4143 O   0  0  0  0  0  0  0  0  0  0  0  0
  -28.2252  -26.4352   20.1008 O   0  0  0  0  0  0  0  0  0  1  0  0
  -23.9556   -3.9318   25.7188 F   0  0  0  0  0  0  0  0  0  0  0  0
  -21.7929   -7.7632   23.9727 F   0  0  0  0  0  0  0  0  0  0  0  0
  1  2  1  0  0  0  0
  1  5  2  0  0  0  0
  2  6  2  0  0  0  0
  3  8  2  0  0  0  0
  3 17  1  0  0  0  0
  4  9  1  0  0  0  0
  4 17  2  0  0  0  0
  5 19  1  0  0  0  0
  6 21  1  0  0  0  0
  7 10  2  0  0  0  0
  7 20  1  0  0  0  0
  8 27  1  0  0  0  0
  9 27  2  0  0  0  0
 10 28  1  0  0  0  0
 11 12  2  0  0  0  0
 11 29  1  0  0  0  0
 12 30  1  0  0  0  0
 13 22  1  0  0  0  0
 13 28  2  0  0  0  0
 14 23  2  0  0  0  0
 14 24  1  0  0  0  0
 15 23  1  0  0  0  0
 15 25  2  0  0  0  0
 16 30  2  0  0  0  0
 16 31  1  0  0  0  0
 17 32  1  0  0  0  0
 18 32  1  0  0  0  0
 18 33  2  0  0  0  0
 18 34  1  0  0  0  0
 19 21  2  0  0  0  0
 19 39  1  0  0  0  0
 20 22  2  0  0  0  0
 20 40  1  0  0  0  0
 21 51  1  0  0  0  0
 22 41  1  0  0  0  0
 23 55  1  0  0  0  0
 24 26  2  0  0  0  0
 24 64  1  0  0  0  0
 25 26  1  0  0  0  0
 25 66  1  0  0  0  0
 26 56  1  0  0  0  0
 27 87  1  0  0  0  0
 28 88  1  0  0  0  0
 29 31  2  0  0  0  0
 29 87  1  0  0  0  0
 30 89  1  0  0  0  0
 31 90  1  0  0  0  0
 32 71  2  0  0  0  0
 33 72  1  0  0  0  0
 33 75  1  0  0  0  0
 34 76  1  0  0  0  0
 34 82  2  0  0  0  0
 35 52  1  0  0  0  0
 35 77  1  0  0  0  0
 35 83  2  0  0  0  0
 36 67  1  0  0  0  0
 36 73  1  0  0  0  0
 36 84  2  0  0  0  0
 37 68  1  0  0  0  0
 37 78  1  0  0  0  0
 37 85  2  0  0  0  0
 38 74  1  0  0  0  0
 38 79  1  0  0  0  0
 38 86  2  0  0  0  0
 39 42  1  0  0  0  0
 40 52  1  0  0  0  0
 41 73  1  0  0  0  0
 42 45  1  0  0  0  0
 43 46  1  0  0  0  0
 43 48  1  0  0  0  0
 44 47  1  0  0  0  0
 44 50  1  0  0  0  0
 45 51  1  0  0  0  0
 46 53  1  0  0  0  0
 47 54  1  0  0  0  0
 48 74  1  0  0  0  0
 49 53  1  0  0  0  0
 49 74  1  0  0  0  0
 50 80  1  0  0  0  0
 51 77  1  0  0  0  0
 52 73  1  0  0  0  0
 53 72  1  0  0  0  0
 54 66  1  0  0  0  0
 54 80  1  0  0  0  0
 57 66  1  0  0  0  0
 58 68  1  0  0  0  0
 59 69  1  0  0  0  0
 60 70  1  0  0  0  0
 61 70  1  0  0  0  0
 62 70  1  0  0  0  0
 63 81  1  0  0  0  0
 64 88  1  0  0  0  0
 65 69  1  0  0  0  0
 65 80  1  0  0  0  0
 67 70  1  0  0  0  0
 67 78  1  0  0  0  0
 68 81  1  0  0  0  0
 69 79  1  0  0  0  0
 71 72  1  0  0  0  0
M  CHG  2  80   1  81   1
M  ISO  4  38 100  64 101  79 100  88 101
M  END
> <Batch ID>
0147

> <Smiles>
CNC(C)C(=O)NC(C(=O)N1Cc2cc([101O:1][101CH2:1]c3cc(C)cc(C(C)C4CCCN4CC(C)[100NH:0][100C:0](=O)N4CCCC(n5nc(-c6ccc(Oc7ccc(F)cc7F)cc6)c(C(N)=O)c5N)C4)c3C)ccc2CC1C(=O)NC1CCCc2ccccc21)C(C)(C)C

> <Shape>
0.310

> <Color>
0.134

> <Negative vol penalty>
0.000

$$$$

  -OEChem-04052321333D

 84 93  0     1  0  0  0  0  0999 V2000
  -29.8343  -11.4981   19.4291 C   0  0  0  0  0  0  0  0  0  0  0  0
  -29.1580  -12.0115   18.3271 C   0  0  0  0  0  0  0  0  0  0  0  0
  -16.6443  -20.2777   14.8014 C   0  0  0  0  0  0  0  0  0  0  0  0
  -25.4319  -28.4977   18.9269 C   0  0  0  0  0  0  0  0  0  0  0  0
  -25.9249  -26.9420   20.7084 C   0  0  0  0  0  0  0  0  0  0  0  0
  -29.7520  -12.1468   20.6605 C   0  0  0  0  0  0  0  0  0  0  0  0
  -28.3980  -13.1735   18.4562 C   0  0  0  0  0  0  0  0  0  0  0  0
  -17.6400  -20.2771   13.8223 C   0  0  0  0  0  0  0  0  0  0  0  0
  -26.3823  -18.9659   14.7546 C   0  0  0  0  0  0  0  0  0  0  0  0
  -16.9741  -20.4311   16.1573 C   0  0  0  0  0  0  0  0  0  0  0  0
  -26.4836  -29.3119   19.3469 C   0  0  0  0  0  0  0  0  0  0  0  0
  -26.9767  -27.7562   21.1284 C   0  0  0  0  0  0  0  0  0  0  0  0
  -25.2329  -19.6688   14.3961 C   0  0  0  0  0  0  0  0  0  0  0  0
  -29.5641  -29.6032   22.8901 C   0  0  0  0  0  0  0  0  0  0  0  0
  -29.6872  -29.8497   24.2574 C   0  0  0  0  0  0  0  0  0  0  0  0
  -25.2276  -20.7484   16.5534 C   0  0  0  0  0  0  0  0  0  0  0  0
  -27.4891  -30.8524   24.2745 C   0  0  0  0  0  0  0  0  0  0  0  0
  -25.1524  -27.3127   19.6078 C   0  0  0  0  0  0  0  0  0  0  0  0
  -24.1247  -25.4200   18.2405 C   0  0  0  0  0  0  0  0  0  0  0  0
  -28.9984  -13.3226   20.8024 C   0  0  0  0  0  0  0  0  0  0  0  0
  -18.9551  -20.4436   14.2229 C   0  0  0  0  0  0  0  0  0  0  0  0
  -26.9577  -19.1411   16.0214 C   0  0  0  0  0  0  0  0  0  0  0  0
  -28.3044  -13.8378   19.6910 C   0  0  0  0  0  0  0  0  0  0  0  0
  -26.3858  -20.0484   16.9245 C   0  0  0  0  0  0  0  0  0  0  0  0
  -19.2838  -20.5964   15.5742 C   0  0  0  0  0  0  0  0  0  0  0  0
  -27.2561  -28.9412   20.4476 C   0  0  0  0  0  0  0  0  0  0  0  0
  -24.6537  -20.5581   15.2966 C   0  0  0  0  0  0  0  0  0  0  0  0
  -18.3043  -20.5861   16.5531 C   0  0  0  0  0  0  0  0  0  0  0  0
  -28.4036  -29.9814   22.2149 C   0  0  0  0  0  0  0  0  0  0  0  0
  -28.6497  -30.4742   24.9497 C   0  0  0  0  0  0  0  0  0  0  0  0
  -27.3661  -30.6060   22.9071 C   0  0  0  0  0  0  0  0  0  0  0  0
  -24.0657  -26.4714   19.1748 C   0  0  0  0  0  0  0  0  0  0  0  0
  -22.8386  -24.9419   18.1801 C   0  0  0  0  0  0  0  0  0  0  0  0
  -25.2422  -24.9202   17.4942 C   0  0  0  0  0  0  0  0  0  0  0  0
  -27.5095  -17.2495   18.5155 C   0  0  0  0  0  0  0  0  0  0  0  0
  -29.0498  -19.8636   19.6626 C   0  0  0  0  0  0  0  0  0  0  0  0
  -29.4247  -23.2555   19.6222 C   0  0  0  0  0  0  0  0  0  0  0  0
  -18.1125  -23.3572   20.6896 C   0  0  0  0  0  0  0  0  0  0  0  0
  -28.9009  -13.9624   22.1647 C   0  0  0  0  0  0  0  0  0  0  0  0
  -28.2129  -18.3953   16.3829 C   0  0  0  0  0  0  0  0  0  0  0  0
  -20.1837  -20.4408   13.3689 C   0  0  0  0  0  0  0  0  0  0  0  0
  -20.7645  -20.7111   15.7563 C   0  0  0  0  0  0  0  0  0  0  0  0
  -26.9763  -20.2877   18.2893 C   0  0  0  0  0  0  0  0  0  0  0  0
  -28.3782  -15.3962   22.1283 C   0  0  0  0  0  0  0  0  0  0  0  0
  -18.5322  -26.8329   20.0416 C   0  0  0  0  0  0  0  0  0  0  0  0
  -27.1491  -15.4936   21.2302 C   0  0  0  0  0  0  0  0  0  0  0  0
  -20.0147  -26.9626   19.6876 C   0  0  0  0  0  0  0  0  0  0  0  0
  -18.3013  -25.7875   21.1306 C   0  0  0  0  0  0  0  0  0  0  0  0
  -20.3576  -24.5887   20.4914 C   0  0  0  0  0  0  0  0  0  0  0  0
  -27.4899  -15.1097   19.7852 C   0  0  1  0  0  0  0  0  0  0  0  0
  -28.4194  -18.2679   17.8890 C   0  0  1  0  0  0  0  0  0  0  0  0
  -21.2203  -21.0691   14.3253 C   0  0  1  0  0  0  0  0  0  0  0  0
  -20.6345  -25.5913   19.3580 C   0  0  2  0  0  0  0  0  0  0  0  0
  -30.7365  -25.1053   20.6968 C   0  0  0  0  0  0  0  0  0  0  0  0
  -27.3348  -19.6175   22.1742 C   0  0  0  0  0  0  0  0  0  0  0  0
  -27.9847  -21.9624   22.7635 C   0  0  0  0  0  0  0  0  0  0  0  0
  -29.7319  -20.1895   22.5998 C   0  0  0  0  0  0  0  0  0  0  0  0
  -30.6004  -24.0817   17.0349 C   0  0  0  0  0  0  0  0  0  0  0  0
  -22.6406  -20.6124   14.0316 C   0  0  0  0  0  0  0  0  0  1  0  0
  -18.0803  -20.9239   20.2025 C   0  0  0  0  0  0  0  0  0  0  0  0
  -17.5382  -20.7048   18.8013 C   0  0  0  0  0  0  0  0  0  0  0  0
  -28.6509  -21.0632   20.4879 C   0  0  1  0  0  0  0  0  0  0  0  0
  -30.6614  -24.1312   19.5314 C   0  0  2  0  0  0  0  0  0  0  0  0
  -28.4131  -20.7024   21.9814 C   0  0  0  0  0  0  0  0  0  0  0  0
  -22.8391  -26.6512   19.6719 N   0  0  0  0  0  0  0  0  0  0  0  0
  -22.1155  -25.7064   19.0477 N   0  0  0  0  0  0  0  0  0  0  0  0
  -28.2002  -19.5300   18.5983 N   0  0  0  0  0  0  0  0  0  0  0  0
  -18.9123  -24.5100   20.7556 N   0  0  0  0  0  0  0  0  0  0  0  0
  -22.2669  -23.9463   17.4698 N   0  0  0  0  0  0  0  0  0  0  0  0
  -26.4926  -25.5266   17.6767 N   0  0  0  0  0  0  0  0  0  0  0  0
  -28.1727  -16.1990   19.1205 N   0  0  0  0  0  0  0  0  0  0  0  0
  -29.6861  -22.0686   20.2735 N   0  0  0  0  0  0  0  0  0  0  0  0
  -18.7692  -22.1897   20.3204 N   0  0  0  0  0  0  0  0  0  0  0  0
  -30.6492  -24.9149   18.2639 N   0  3  0  0  0  0  0  0  0  0  0  0
  -25.1318  -23.9749   16.6771 O   0  0  0  0  0  0  0  0  0  0  0  0
  -26.2955  -17.4060   18.4559 O   0  0  0  0  0  0  0  0  0  0  0  0
  -30.0812  -19.2497   19.9473 O   0  0  0  0  0  0  0  0  0  0  0  0
  -28.3349  -23.5923   19.1647 O   0  0  0  0  0  0  0  0  0  0  0  0
  -16.9016  -23.3686   20.9360 O   0  0  0  0  0  0  0  0  0  0  0  0
  -28.2826  -29.7353   20.8575 O   0  0  0  0  0  0  0  0  0  0  0  0
  -23.5314  -21.2450   14.9495 O   0  0  0  0  0  0  0  0  0  1  0  0
  -18.6180  -20.7251   17.8664 O   0  0  0  0  0  0  0  0  0  0  0  0
  -28.7674  -30.7095   26.2631 F   0  0  0  0  0  0  0  0  0  0  0  0
  -26.2483  -30.9705   22.2641 F   0  0  0  0  0  0  0  0  0  0  0  0
  1  2  1  0  0  0  0
  1  6  2  0  0  0  0
  2  7  2  0  0  0  0
  3  8  2  0  0  0  0
  3 10  1  0  0  0  0
  4 11  2  0  0  0  0
  4 18  1  0  0  0  0
  5 12  1  0  0  0  0
  5 18  2  0  0  0  0
  6 20  1  0  0  0  0
  7 23  1  0  0  0  0
  8 21  1  0  0  0  0
  9 13  2  0  0  0  0
  9 22  1  0  0  0  0
 10 28  2  0  0  0  0
 11 26  1  0  0  0  0
 12 26  2  0  0  0  0
 13 27  1  0  0  0  0
 14 15  2  0  0  0  0
 14 29  1  0  0  0  0
 15 30  1  0  0  0  0
 16 24  1  0  0  0  0
 16 27  2  0  0  0  0
 17 30  2  0  0  0  0
 17 31  1  0  0  0  0
 18 32  1  0  0  0  0
 19 32  1  0  0  0  0
 19 33  2  0  0  0  0
 19 34  1  0  0  0  0
 20 23  2  0  0  0  0
 20 39  1  0  0  0  0
 21 25  2  0  0  0  0
 21 41  1  0  0  0  0
 22 24  2  0  0  0  0
 22 40  1  0  0  0  0
 23 50  1  0  0  0  0
 24 43  1  0  0  0  0
 25 28  1  0  0  0  0
 25 42  1  0  0  0  0
 26 80  1  0  0  0  0
 27 81  1  0  0  0  0
 28 82  1  0  0  0  0
 29 31  2  0  0  0  0
 29 80  1  0  0  0  0
 30 83  1  0  0  0  0
 31 84  1  0  0  0  0
 32 65  2  0  0  0  0
 33 66  1  0  0  0  0
 33 69  1  0  0  0  0
 34 70  1  0  0  0  0
 34 75  2  0  0  0  0
 35 51  1  0  0  0  0
 35 71  1  0  0  0  0
 35 76  2  0  0  0  0
 36 62  1  0  0  0  0
 36 67  1  0  0  0  0
 36 77  2  0  0  0  0
 37 63  1  0  0  0  0
 37 72  1  0  0  0  0
 37 78  2  0  0  0  0
 38 68  1  0  0  0  0
 38 73  1  0  0  0  0
 38 79  2  0  0  0  0
 39 44  1  0  0  0  0
 40 51  1  0  0  0  0
 41 52  1  0  0  0  0
 42 52  1  0  0  0  0
 43 67  1  0  0  0  0
 44 46  1  0  0  0  0
 45 47  1  0  0  0  0
 45 48  1  0  0  0  0
 46 50  1  0  0  0  0
 47 53  1  0  0  0  0
 48 68  1  0  0  0  0
 49 53  1  0  0  0  0
 49 68  1  0  0  0  0
 50 71  1  0  0  0  0
 51 67  1  0  0  0  0
 52 59  1  0  0  0  0
 53 66  1  0  0  0  0
 54 63  1  0  0  0  0
 55 64  1  0  0  0  0
 56 64  1  0  0  0  0
 57 64  1  0  0  0  0
 58 74  1  0  0  0  0
 59 81  1  0  0  0  0
 60 61  1  0  0  0  0
 60 73  1  0  0  0  0
 61 82  1  0  0  0  0
 62 64  1  0  0  0  0
 62 72  1  0  0  0  0
 63 74  1  0  0  0  0
 65 66  1  0  0  0  0
M  CHG  1  74   1
M  ISO  4  38 100  59 101  73 100  81 101
M  END
> <Batch ID>
0147

> <Smiles>
CNC(C)C(=O)NC(C(=O)N1Cc2cc([101O:1][101CH2:1]C3Cc4cccc(OCC[100NH:0][100C:0](=O)N5CCCC(n6nc(-c7ccc(Oc8ccc(F)cc8F)cc7)c(C(N)=O)c6N)C5)c4C3)ccc2CC1C(=O)NC1CCCc2ccccc21)C(C)(C)C

> <Shape>
0.194

> <Color>
0.049

> <Negative vol penalty>
0.000

$$$$

  -OEChem-04052321333D

 90100  0     1  0  0  0  0  0999 V2000
  -23.8801  -25.1580   18.9386 C   0  0  0  0  0  0  0  0  0  0  0  0
  -24.5581  -24.4828   19.9486 C   0  0  0  0  0  0  0  0  0  0  0  0
  -23.0686   -9.8769   19.9484 C   0  0  0  0  0  0  0  0  0  0  0  0
  -23.7987   -9.9157   22.2511 C   0  0  0  0  0  0  0  0  0  0  0  0
  -24.2098  -26.4798   18.6422 C   0  0  0  0  0  0  0  0  0  0  0  0
  -25.5670  -25.1289   20.6620 C   0  0  0  0  0  0  0  0  0  0  0  0
  -26.9474  -24.3820   26.5817 C   0  0  0  0  0  0  0  0  0  0  0  0
  -22.3356   -8.7172   20.2003 C   0  0  0  0  0  0  0  0  0  0  0  0
  -23.0656   -8.7560   22.5031 C   0  0  0  0  0  0  0  0  0  0  0  0
  -27.9234  -23.6257   27.2290 C   0  0  0  0  0  0  0  0  0  0  0  0
  -23.4040   -5.4325   21.9826 C   0  0  0  0  0  0  0  0  0  0  0  0
  -24.0226   -4.4219   22.7186 C   0  0  0  0  0  0  0  0  0  0  0  0
  -29.3530  -25.5662   27.3279 C   0  0  0  0  0  0  0  0  0  0  0  0
  -30.3292  -18.4816   24.0634 C   0  0  0  0  0  0  0  0  0  0  0  0
  -31.9404  -16.7419   22.5937 C   0  0  0  0  0  0  0  0  0  0  0  0
  -22.2973   -4.5914   24.4014 C   0  0  0  0  0  0  0  0  0  0  0  0
  -23.8002  -10.4761   20.9738 C   0  0  0  0  0  0  0  0  0  0  0  0
  -24.1129  -13.0040   20.8330 C   0  0  0  0  0  0  0  0  0  0  0  0
  -25.2168  -27.1455   19.3589 C   0  0  0  0  0  0  0  0  0  0  0  0
  -27.1716  -25.7357   26.2923 C   0  0  0  0  0  0  0  0  0  0  0  0
  -25.9115  -26.4605   20.3740 C   0  0  0  0  0  0  0  0  0  0  0  0
  -28.3773  -26.3382   26.6791 C   0  0  0  0  0  0  0  0  0  0  0  0
  -31.7140  -18.5066   24.2282 C   0  0  0  0  0  0  0  0  0  0  0  0
  -32.5196  -17.6368   23.4934 C   0  0  0  0  0  0  0  0  0  0  0  0
  -30.5556  -16.7169   22.4289 C   0  0  0  0  0  0  0  0  0  0  0  0
  -22.3341   -8.1568   21.4776 C   0  0  0  0  0  0  0  0  0  0  0  0
  -29.1276  -24.2170   27.5997 C   0  0  0  0  0  0  0  0  0  0  0  0
  -22.2321   -6.0227   22.4561 C   0  0  0  0  0  0  0  0  0  0  0  0
  -29.7499  -17.5867   23.1637 C   0  0  0  0  0  0  0  0  0  0  0  0
  -23.4692   -4.0014   23.9279 C   0  0  0  0  0  0  0  0  0  0  0  0
  -21.6788   -5.6021   23.6654 C   0  0  0  0  0  0  0  0  0  0  0  0
  -24.5580  -11.6737   20.7140 C   0  0  0  0  0  0  0  0  0  0  0  0
  -25.2005  -13.7632   20.4762 C   0  0  0  0  0  0  0  0  0  0  0  0
  -22.8309  -13.5083   21.2305 C   0  0  0  0  0  0  0  0  0  0  0  0
  -27.3472  -27.4609   23.6284 C   0  0  0  0  0  0  0  0  0  0  0  0
  -27.5359  -29.9412   25.7103 C   0  0  0  0  0  0  0  0  0  0  0  0
  -28.3262  -31.0406   28.8430 C   0  0  0  0  0  0  0  0  0  0  0  0
  -30.6509  -14.8773   20.7103 C   0  0  0  0  0  0  0  0  0  0  0  0
  -25.5704  -28.5594   18.9707 C   0  0  0  0  0  0  0  0  0  0  0  0
  -26.0981  -26.5446   25.6173 C   0  0  0  0  0  0  0  0  0  0  0  0
  -28.6590  -27.7930   26.4096 C   0  0  0  0  0  0  0  0  0  0  0  0
  -26.3958  -29.2922   20.0252 C   0  0  0  0  0  0  0  0  0  0  0  0
  -29.5964  -12.4269   18.3522 C   0  0  0  0  0  0  0  0  0  0  0  0
  -27.5346  -28.4071   20.5217 C   0  0  0  0  0  0  0  0  0  0  0  0
  -28.1550  -12.1220   18.7662 C   0  0  0  0  0  0  0  0  0  0  0  0
  -27.7219  -19.0003   21.0926 C   0  0  0  0  0  0  0  0  0  0  0  0
  -26.4773  -18.6438   21.8518 C   0  0  0  0  0  0  0  0  0  0  0  0
  -31.9835  -20.9168   24.7809 C   0  0  0  0  0  0  0  0  0  0  0  0
  -31.7955  -19.1916   26.6180 C   0  0  0  0  0  0  0  0  0  0  0  0
  -30.4931  -12.6787   19.5631 C   0  0  0  0  0  0  0  0  0  0  0  0
  -28.5599  -13.3933   20.9126 C   0  0  0  0  0  0  0  0  0  0  0  0
  -32.5088  -21.9251   25.7947 C   0  0  0  0  0  0  0  0  0  0  0  0
  -32.3227  -20.2131   27.6178 C   0  0  0  0  0  0  0  0  0  0  0  0
  -32.3119  -19.4742   25.1980 C   0  0  0  0  0  0  0  0  0  0  0  0
  -26.9951  -27.1352   21.1869 C   0  0  1  0  0  0  0  0  0  0  0  0
  -26.6385  -27.7852   24.9130 C   0  0  1  0  0  0  0  0  0  0  0  0
  -27.6045  -13.1966   19.7242 C   0  0  2  0  0  0  0  0  0  0  0  0
  -27.7835  -18.7894   22.5785 C   0  0  0  0  0  0  0  0  0  0  0  0
  -34.0044  -17.6453   23.6537 C   0  0  0  0  0  0  0  0  0  0  0  0
  -28.4121  -33.1266   30.2353 C   0  0  0  0  0  0  0  0  0  0  0  0
  -30.0811  -30.7996   24.2628 C   0  0  0  0  0  0  0  0  0  0  0  0
  -30.6200  -32.2606   26.2232 C   0  0  0  0  0  0  0  0  0  0  0  0
  -28.5535  -32.6779   24.8898 C   0  0  0  0  0  0  0  0  0  0  0  0
  -26.3669  -29.9654   30.7832 C   0  0  0  0  0  0  0  0  0  0  0  0
  -32.3354  -22.6427   28.1758 C   0  0  0  0  0  0  0  0  0  0  0  0
  -31.4416  -23.8563   28.0134 C   0  0  0  0  0  0  0  0  0  1  0  0
  -28.6595  -30.6634   26.4138 C   0  0  1  0  0  0  0  0  0  0  0  0
  -27.5742  -31.9277   29.8187 C   0  0  2  0  0  0  0  0  0  0  0  0
  -29.4743  -31.5725   25.4509 C   0  0  0  0  0  0  0  0  0  0  0  0
  -25.8292  -11.5893   20.3129 N   0  0  0  0  0  0  0  0  0  0  0  0
  -26.1922  -12.8761   20.1766 N   0  0  0  0  0  0  0  0  0  0  0  0
  -27.5807  -28.5402   25.7415 N   0  0  0  0  0  0  0  0  0  0  0  0
  -29.9104  -13.7112   20.4229 N   0  0  0  0  0  0  0  0  0  0  0  0
  -25.3956  -15.0963   20.3926 N   0  0  0  0  0  0  0  0  0  0  0  0
  -21.8259  -12.5901   21.5638 N   0  0  0  0  0  0  0  0  0  0  0  0
  -29.9818  -15.8024   21.5111 N   0  0  0  0  0  0  0  0  0  0  0  0
  -26.5195  -27.4261   22.5224 N   0  0  0  0  0  0  0  0  0  0  0  0
  -28.0507  -31.3732   27.5336 N   0  0  0  0  0  0  0  0  0  0  0  0
  -31.9550  -21.6162   27.1729 N   0  3  0  0  0  0  0  0  0  0  0  0
  -27.2112  -31.1598   31.0432 N   0  3  0  0  0  0  0  0  0  0  0  0
  -22.5791  -14.7364   21.2725 O   0  0  0  0  0  0  0  0  0  0  0  0
  -28.5558  -27.2587   23.6395 O   0  0  0  0  0  0  0  0  0  0  0  0
  -26.6473  -30.5960   25.1597 O   0  0  0  0  0  0  0  0  0  0  0  0
  -29.0851  -30.1446   29.2062 O   0  0  0  0  0  0  0  0  0  0  0  0
  -31.7838  -15.0553   20.2555 O   0  0  0  0  0  0  0  0  0  0  0  0
  -21.6188   -7.0253   21.7239 O   0  0  0  0  0  0  0  0  0  0  0  0
  -28.3948  -17.5782   23.0171 O   0  0  0  0  0  0  0  0  0  0  0  0
  -30.0822  -23.4808   28.2311 O   0  0  0  0  0  0  0  0  0  1  0  0
  -24.0625   -3.0298   24.6338 F   0  0  0  0  0  0  0  0  0  0  0  0
  -20.5525   -6.1644   24.1248 F   0  0  0  0  0  0  0  0  0  0  0  0
  1  2  1  0  0  0  0
  1  5  2  0  0  0  0
  2  6  2  0  0  0  0
  3  8  2  0  0  0  0
  3 17  1  0  0  0  0
  4  9  1  0  0  0  0
  4 17  2  0  0  0  0
  5 19  1  0  0  0  0
  6 21  1  0  0  0  0
  7 10  2  0  0  0  0
  7 20  1  0  0  0  0
  8 26  1  0  0  0  0
  9 26  2  0  0  0  0
 10 27  1  0  0  0  0
 11 12  2  0  0  0  0
 11 28  1  0  0  0  0
 12 30  1  0  0  0  0
 13 22  1  0  0  0  0
 13 27  2  0  0  0  0
 14 23  1  0  0  0  0
 14 29  2  0  0  0  0
 15 24  1  0  0  0  0
 15 25  2  0  0  0  0
 16 30  2  0  0  0  0
 16 31  1  0  0  0  0
 17 32  1  0  0  0  0
 18 32  1  0  0  0  0
 18 33  2  0  0  0  0
 18 34  1  0  0  0  0
 19 21  2  0  0  0  0
 19 39  1  0  0  0  0
 20 22  2  0  0  0  0
 20 40  1  0  0  0  0
 21 55  1  0  0  0  0
 22 41  1  0  0  0  0
 23 24  2  0  0  0  0
 23 54  1  0  0  0  0
 24 59  1  0  0  0  0
 25 29  1  0  0  0  0
 25 76  1  0  0  0  0
 26 86  1  0  0  0  0
 27 88  1  0  0  0  0
 28 31  2  0  0  0  0
 28 86  1  0  0  0  0
 29 87  1  0  0  0  0
 30 89  1  0  0  0  0
 31 90  1  0  0  0  0
 32 70  2  0  0  0  0
 33 71  1  0  0  0  0
 33 74  1  0  0  0  0
 34 75  1  0  0  0  0
 34 81  2  0  0  0  0
 35 56  1  0  0  0  0
 35 77  1  0  0  0  0
 35 82  2  0  0  0  0
 36 67  1  0  0  0  0
 36 72  1  0  0  0  0
 36 83  2  0  0  0  0
 37 68  1  0  0  0  0
 37 78  1  0  0  0  0
 37 84  2  0  0  0  0
 38 73  1  0  0  0  0
 38 76  1  0  0  0  0
 38 85  2  0  0  0  0
 39 42  1  0  0  0  0
 40 56  1  0  0  0  0
 41 72  1  0  0  0  0
 42 44  1  0  0  0  0
 43 45  1  0  0  0  0
 43 50  1  0  0  0  0
 44 55  1  0  0  0  0
 45 57  1  0  0  0  0
 46 47  1  0  0  0  0
 46 58  1  0  0  0  0
 47 58  1  0  0  0  0
 48 52  1  0  0  0  0
 48 54  1  0  0  0  0
 49 53  1  0  0  0  0
 49 54  1  0  0  0  0
 50 73  1  0  0  0  0
 51 57  1  0  0  0  0
 51 73  1  0  0  0  0
 52 79  1  0  0  0  0
 53 79  1  0  0  0  0
 55 77  1  0  0  0  0
 56 72  1  0  0  0  0
 57 71  1  0  0  0  0
 58 87  1  0  0  0  0
 60 68  1  0  0  0  0
 61 69  1  0  0  0  0
 62 69  1  0  0  0  0
 63 69  1  0  0  0  0
 64 80  1  0  0  0  0
 65 66  1  0  0  0  0
 65 79  1  0  0  0  0
 66 88  1  0  0  0  0
 67 69  1  0  0  0  0
 67 78  1  0  0  0  0
 68 80  1  0  0  0  0
 70 71  1  0  0  0  0
M  CHG  2  79   1  80   1
M  ISO  4  38 100  66 101  76 100  88 101
M  END
> <Batch ID>
0147

> <Smiles>
CNC(C)C(=O)NC(C(=O)N1Cc2cc([101O:1][101CH2:1]CN3CCC(c4cc(OC5CC5)c([100NH:0][100C:0](=O)N5CCCC(n6nc(-c7ccc(Oc8ccc(F)cc8F)cc7)c(C(N)=O)c6N)C5)cc4C)CC3)ccc2CC1C(=O)NC1CCCc2ccccc21)C(C)(C)C

> <Shape>
0.240

> <Color>
0.207

> <Negative vol penalty>
0.000

$$$$

  -OEChem-04052321333D

 85 94  0     1  0  0  0  0  0999 V2000
  -27.6590  -32.1826   25.9638 C   0  0  0  0  0  0  0  0  0  0  0  0
  -27.8562  -31.0097   25.2421 C   0  0  0  0  0  0  0  0  0  0  0  0
  -24.2529   -9.8316   21.1670 C   0  0  0  0  0  0  0  0  0  0  0  0
  -24.7555  -10.7337   23.3512 C   0  0  0  0  0  0  0  0  0  0  0  0
  -26.3795  -32.5252   26.3991 C   0  0  0  0  0  0  0  0  0  0  0  0
  -26.7741  -30.1780   24.9563 C   0  0  0  0  0  0  0  0  0  0  0  0
  -26.7776  -28.5663   20.1555 C   0  0  0  0  0  0  0  0  0  0  0  0
  -23.8750   -8.6235   21.7529 C   0  0  0  0  0  0  0  0  0  0  0  0
  -24.3776   -9.5256   23.9371 C   0  0  0  0  0  0  0  0  0  0  0  0
  -27.6511  -27.5286   19.8329 C   0  0  0  0  0  0  0  0  0  0  0  0
  -21.1860   -7.3784   23.3814 C   0  0  0  0  0  0  0  0  0  0  0  0
  -20.0068   -6.7822   22.9347 C   0  0  0  0  0  0  0  0  0  0  0  0
  -25.8258  -25.9575   19.9704 C   0  0  0  0  0  0  0  0  0  0  0  0
  -28.0322  -21.2954   21.5250 C   0  0  0  0  0  0  0  0  0  0  0  0
  -30.2224  -21.2403   20.5067 C   0  0  0  0  0  0  0  0  0  0  0  0
  -21.2528   -4.8268   22.2557 C   0  0  0  0  0  0  0  0  0  0  0  0
  -24.6932  -10.8867   21.9662 C   0  0  0  0  0  0  0  0  0  0  0  0
  -24.2604  -13.2443   21.0931 C   0  0  0  0  0  0  0  0  0  0  0  0
  -25.2796  -31.7021   26.1101 C   0  0  0  0  0  0  0  0  0  0  0  0
  -25.4215  -28.3053   20.3991 C   0  0  0  0  0  0  0  0  0  0  0  0
  -25.4788  -30.5092   25.3893 C   0  0  0  0  0  0  0  0  0  0  0  0
  -24.9367  -26.9939   20.2934 C   0  0  0  0  0  0  0  0  0  0  0  0
  -27.9703  -19.9031   21.4673 C   0  0  0  0  0  0  0  0  0  0  0  0
  -29.0345  -19.1794   20.9293 C   0  0  0  0  0  0  0  0  0  0  0  0
  -23.9373   -8.4705   23.1379 C   0  0  0  0  0  0  0  0  0  0  0  0
  -27.1758  -26.2236   19.7431 C   0  0  0  0  0  0  0  0  0  0  0  0
  -22.3987   -6.6989   23.2652 C   0  0  0  0  0  0  0  0  0  0  0  0
  -29.1583  -21.9640   21.0446 C   0  0  0  0  0  0  0  0  0  0  0  0
  -30.1606  -19.8480   20.4490 C   0  0  0  0  0  0  0  0  0  0  0  0
  -20.0402   -5.5064   22.3719 C   0  0  0  0  0  0  0  0  0  0  0  0
  -22.4320   -5.4230   22.7024 C   0  0  0  0  0  0  0  0  0  0  0  0
  -25.0842  -12.1348   21.3615 C   0  0  0  0  0  0  0  0  0  0  0  0
  -25.1019  -14.1660   20.5197 C   0  0  0  0  0  0  0  0  0  0  0  0
  -22.8597  -13.4256   21.3401 C   0  0  0  0  0  0  0  0  0  0  0  0
  -23.4834  -28.6524   22.8945 C   0  0  0  0  0  0  0  0  0  0  0  0
  -21.2144  -27.7360   20.7652 C   0  0  0  0  0  0  0  0  0  0  0  0
  -20.4505  -26.0963   17.8713 C   0  0  0  0  0  0  0  0  0  0  0  0
  -29.9491  -16.9014   20.3631 C   0  0  0  0  0  0  0  0  0  0  0  0
  -23.9228  -32.0901   26.6424 C   0  0  0  0  0  0  0  0  0  0  0  0
  -24.4870  -29.4394   20.7198 C   0  0  0  0  0  0  0  0  0  0  0  0
  -23.4856  -26.6638   20.5256 C   0  0  0  0  0  0  0  0  0  0  0  0
  -22.7705  -31.3436   25.9753 C   0  0  0  0  0  0  0  0  0  0  0  0
  -29.8496  -13.6892   18.8305 C   0  0  0  0  0  0  0  0  0  0  0  0
  -26.3160  -19.4793   23.4058 C   0  0  0  0  0  0  0  0  0  0  0  0
  -26.9107  -18.1535   23.0467 C   0  0  0  0  0  0  0  0  0  0  0  0
  -23.0784  -29.8520   25.8910 C   0  0  0  0  0  0  0  0  0  0  0  0
  -28.5332  -13.0897   19.3303 C   0  0  0  0  0  0  0  0  0  0  0  0
  -30.5345  -14.5300   19.9065 C   0  0  0  0  0  0  0  0  0  0  0  0
  -28.3766  -14.9716   21.0099 C   0  0  0  0  0  0  0  0  0  0  0  0
  -26.7526  -19.2137   21.9902 C   0  0  0  0  0  0  0  0  0  0  0  0
  -24.3263  -29.5936   25.0381 C   0  0  1  0  0  0  0  0  0  0  0  0
  -23.2275  -28.9869   21.4522 C   0  0  1  0  0  0  0  0  0  0  0  0
  -27.6178  -14.1695   19.9400 C   0  0  2  0  0  0  0  0  0  0  0  0
  -18.5058  -25.4854   16.4077 C   0  0  0  0  0  0  0  0  0  0  0  0
  -20.4021  -25.5687   22.7534 C   0  0  0  0  0  0  0  0  0  0  0  0
  -19.1586  -24.4330   20.9008 C   0  0  0  0  0  0  0  0  0  0  0  0
  -18.4894  -26.7231   21.6292 C   0  0  0  0  0  0  0  0  0  0  0  0
  -21.5606  -27.5941   15.5728 C   0  0  0  0  0  0  0  0  0  0  0  0
  -32.3187  -19.9293   19.4533 C   0  0  0  0  0  0  0  0  0  0  0  0
  -29.3878  -25.3544   19.8312 C   0  0  0  0  0  0  0  0  0  1  0  0
  -29.9778  -23.9813   20.0883 C   0  0  0  0  0  0  0  0  0  0  0  0
  -20.6331  -26.4142   20.3249 C   0  0  1  0  0  0  0  0  0  0  0  0
  -19.6051  -26.5011   16.6772 C   0  0  2  0  0  0  0  0  0  0  0  0
  -19.6986  -25.7904   21.3995 C   0  0  0  0  0  0  0  0  0  0  0  0
  -26.3517  -12.3316   20.9891 N   0  0  0  0  0  0  0  0  0  0  0  0
  -26.3306  -13.5754   20.4808 N   0  0  0  0  0  0  0  0  0  0  0  0
  -22.6126  -27.8061   20.8426 N   0  0  0  0  0  0  0  0  0  0  0  0
  -29.6086  -15.5341   20.4349 N   0  0  0  0  0  0  0  0  0  0  0  0
  -24.9032  -15.4160   20.0500 N   0  0  0  0  0  0  0  0  0  0  0  0
  -22.1453  -12.3776   21.9365 N   0  0  0  0  0  0  0  0  0  0  0  0
  -28.9771  -17.7650   20.8672 N   0  0  0  0  0  0  0  0  0  0  0  0
  -24.0068  -29.6983   23.6304 N   0  0  0  0  0  0  0  0  0  0  0  0
  -19.9861  -26.6604   19.0406 N   0  0  0  0  0  0  0  0  0  0  0  0
  -20.4524  -26.6117   15.4562 N   0  3  0  0  0  0  0  0  0  0  0  0
  -22.2561  -14.4793   21.0258 O   0  0  0  0  0  0  0  0  0  0  0  0
  -23.2238  -27.5289   23.3094 O   0  0  0  0  0  0  0  0  0  0  0  0
  -20.4562  -28.6740   21.0238 O   0  0  0  0  0  0  0  0  0  0  0  0
  -21.4233  -25.3511   17.7767 O   0  0  0  0  0  0  0  0  0  0  0  0
  -31.0121  -17.2801   19.8644 O   0  0  0  0  0  0  0  0  0  0  0  0
  -23.5684   -7.2918   23.7100 O   0  0  0  0  0  0  0  0  0  0  0  0
  -31.2116  -19.1607   19.9186 O   0  0  0  0  0  0  0  0  0  0  0  0
  -28.0264  -25.2088   19.4290 O   0  0  0  0  0  0  0  0  0  1  0  0
  -29.2187  -23.3316   21.1007 O   0  0  0  0  0  0  0  0  0  0  0  0
  -18.9075   -4.9333   21.9443 F   0  0  0  0  0  0  0  0  0  0  0  0
  -23.5938   -4.7648   22.5892 F   0  0  0  0  0  0  0  0  0  0  0  0
  1  2  1  0  0  0  0
  1  5  2  0  0  0  0
  2  6  2  0  0  0  0
  3  8  2  0  0  0  0
  3 17  1  0  0  0  0
  4  9  1  0  0  0  0
  4 17  2  0  0  0  0
  5 19  1  0  0  0  0
  6 21  1  0  0  0  0
  7 10  2  0  0  0  0
  7 20  1  0  0  0  0
  8 25  1  0  0  0  0
  9 25  2  0  0  0  0
 10 26  1  0  0  0  0
 11 12  2  0  0  0  0
 11 27  1  0  0  0  0
 12 30  1  0  0  0  0
 13 22  1  0  0  0  0
 13 26  2  0  0  0  0
 14 23  1  0  0  0  0
 14 28  2  0  0  0  0
 15 28  1  0  0  0  0
 15 29  2  0  0  0  0
 16 30  2  0  0  0  0
 16 31  1  0  0  0  0
 17 32  1  0  0  0  0
 18 32  1  0  0  0  0
 18 33  2  0  0  0  0
 18 34  1  0  0  0  0
 19 21  2  0  0  0  0
 19 39  1  0  0  0  0
 20 22  2  0  0  0  0
 20 40  1  0  0  0  0
 21 51  1  0  0  0  0
 22 41  1  0  0  0  0
 23 24  2  0  0  0  0
 23 50  1  0  0  0  0
 24 29  1  0  0  0  0
 24 71  1  0  0  0  0
 25 80  1  0  0  0  0
 26 82  1  0  0  0  0
 27 31  2  0  0  0  0
 27 80  1  0  0  0  0
 28 83  1  0  0  0  0
 29 81  1  0  0  0  0
 30 84  1  0  0  0  0
 31 85  1  0  0  0  0
 32 65  2  0  0  0  0
 33 66  1  0  0  0  0
 33 69  1  0  0  0  0
 34 70  1  0  0  0  0
 34 75  2  0  0  0  0
 35 52  1  0  0  0  0
 35 72  1  0  0  0  0
 35 76  2  0  0  0  0
 36 62  1  0  0  0  0
 36 67  1  0  0  0  0
 36 77  2  0  0  0  0
 37 63  1  0  0  0  0
 37 73  1  0  0  0  0
 37 78  2  0  0  0  0
 38 68  1  0  0  0  0
 38 71  1  0  0  0  0
 38 79  2  0  0  0  0
 39 42  1  0  0  0  0
 40 52  1  0  0  0  0
 41 67  1  0  0  0  0
 42 46  1  0  0  0  0
 43 47  1  0  0  0  0
 43 48  1  0  0  0  0
 44 45  1  0  0  0  0
 44 50  1  0  0  0  0
 45 50  1  0  0  0  0
 46 51  1  0  0  0  0
 47 53  1  0  0  0  0
 48 68  1  0  0  0  0
 49 53  1  0  0  0  0
 49 68  1  0  0  0  0
 51 72  1  0  0  0  0
 52 67  1  0  0  0  0
 53 66  1  0  0  0  0
 54 63  1  0  0  0  0
 55 64  1  0  0  0  0
 56 64  1  0  0  0  0
 57 64  1  0  0  0  0
 58 74  1  0  0  0  0
 59 81  1  0  0  0  0
 60 61  1  0  0  0  0
 60 82  1  0  0  0  0
 61 83  1  0  0  0  0
 62 64  1  0  0  0  0
 62 73  1  0  0  0  0
 63 74  1  0  0  0  0
 65 66  1  0  0  0  0
M  CHG  1  74   1
M  ISO  4  38 100  60 101  71 100  82 101
M  END
> <Batch ID>
0147

> <Smiles>
CNC(C)C(=O)NC(C(=O)N1Cc2cc([101O:1][101CH2:1]COc3cc(OC)c([100NH:0][100C:0](=O)N4CCCC(n5nc(-c6ccc(Oc7ccc(F)cc7F)cc6)c(C(N)=O)c5N)C4)c(C4CC4)c3)ccc2CC1C(=O)NC1CCCc2ccccc21)C(C)(C)C

> <Shape>
0.335

> <Color>
0.113

> <Negative vol penalty>
0.000

$$$$

  -OEChem-04052321333D

 77 85  0     1  0  0  0  0  0999 V2000
  -28.5926  -35.9685   18.7835 C   0  0  0  0  0  0  0  0  0  0  0  0
  -29.0758  -34.7050   18.4587 C   0  0  0  0  0  0  0  0  0  0  0  0
  -24.3006   -9.6348   22.1674 C   0  0  0  0  0  0  0  0  0  0  0  0
  -24.1962   -8.9206   19.8618 C   0  0  0  0  0  0  0  0  0  0  0  0
  -27.8365  -36.1480   19.9411 C   0  0  0  0  0  0  0  0  0  0  0  0
  -28.8041  -33.6204   19.2920 C   0  0  0  0  0  0  0  0  0  0  0  0
  -27.6065  -26.5616   19.0562 C   0  0  0  0  0  0  0  0  0  0  0  0
  -23.1125   -8.9538   22.4322 C   0  0  0  0  0  0  0  0  0  0  0  0
  -23.0081   -8.2396   20.1265 C   0  0  0  0  0  0  0  0  0  0  0  0
  -28.0569  -25.3730   19.6290 C   0  0  0  0  0  0  0  0  0  0  0  0
  -20.2973   -7.1042   23.7992 C   0  0  0  0  0  0  0  0  0  0  0  0
  -20.2379   -6.3300   24.9579 C   0  0  0  0  0  0  0  0  0  0  0  0
  -26.6733  -25.7871   21.5613 C   0  0  0  0  0  0  0  0  0  0  0  0
  -22.0816   -4.9898   24.1568 C   0  0  0  0  0  0  0  0  0  0  0  0
  -24.8425   -9.6183   20.8822 C   0  0  0  0  0  0  0  0  0  0  0  0
  -27.3796   -9.8162   20.7051 C   0  0  0  0  0  0  0  0  0  0  0  0
  -27.5472  -35.0633   20.7839 C   0  0  0  0  0  0  0  0  0  0  0  0
  -26.6929  -27.3787   19.7375 C   0  0  0  0  0  0  0  0  0  0  0  0
  -28.0446  -33.7858   20.4626 C   0  0  0  0  0  0  0  0  0  0  0  0
  -26.2109  -26.9842   20.9938 C   0  0  0  0  0  0  0  0  0  0  0  0
  -22.4662   -8.2562   21.4117 C   0  0  0  0  0  0  0  0  0  0  0  0
  -27.5925  -24.9870   20.8830 C   0  0  0  0  0  0  0  0  0  0  0  0
  -21.2488   -6.8212   22.8192 C   0  0  0  0  0  0  0  0  0  0  0  0
  -21.1301   -5.2728   25.1367 C   0  0  0  0  0  0  0  0  0  0  0  0
  -22.1409   -5.7640   22.9981 C   0  0  0  0  0  0  0  0  0  0  0  0
  -26.0695  -10.3220   20.6079 C   0  0  0  0  0  0  0  0  0  0  0  0
  -28.1824  -10.8697   20.3416 C   0  0  0  0  0  0  0  0  0  0  0  0
  -27.8307   -8.5106   21.0896 C   0  0  0  0  0  0  0  0  0  0  0  0
  -26.7491  -30.3492   20.8675 C   0  0  0  0  0  0  0  0  0  0  0  0
  -23.6221  -29.7550   21.4928 C   0  0  0  0  0  0  0  0  0  0  0  0
  -21.1714  -27.4538   22.0801 C   0  0  0  0  0  0  0  0  0  0  0  0
  -27.1862  -16.7370   20.6247 C   0  0  0  0  0  0  0  0  0  0  0  0
  -26.7658  -35.3152   22.0491 C   0  0  0  0  0  0  0  0  0  0  0  0
  -26.1964  -28.6444   19.0943 C   0  0  0  0  0  0  0  0  0  0  0  0
  -25.2141  -27.8158   21.7576 C   0  0  0  0  0  0  0  0  0  0  0  0
  -26.2063  -34.0440   22.6827 C   0  0  0  0  0  0  0  0  0  0  0  0
  -28.2208  -14.8080   17.6547 C   0  0  0  0  0  0  0  0  0  0  0  0
  -27.2767  -32.9587   22.7368 C   0  0  0  0  0  0  0  0  0  0  0  0
  -27.8483  -13.3910   18.0808 C   0  0  0  0  0  0  0  0  0  0  0  0
  -28.4822  -20.2260   20.3899 C   0  0  0  0  0  0  0  0  0  0  0  0
  -27.2544  -15.8490   18.2181 C   0  0  0  0  0  0  0  0  0  0  0  0
  -26.7263  -14.3573   20.1260 C   0  0  0  0  0  0  0  0  0  0  0  0
  -26.2559  -19.8906   21.1535 C   0  0  0  0  0  0  0  0  0  0  0  0
  -27.7501  -32.5800   21.3283 C   0  0  1  0  0  0  0  0  0  0  0  0
  -25.6581  -29.6554   20.1020 C   0  0  1  0  0  0  0  0  0  0  0  0
  -27.7153  -13.3014   19.6088 C   0  0  1  0  0  0  0  0  0  0  0  0
  -27.5700  -19.1551   20.9668 C   0  0  1  0  0  0  0  0  0  0  0  0
  -28.1455  -21.4427   21.2440 C   0  0  1  0  0  0  0  0  0  0  0  0
  -18.7220  -27.2723   22.5948 C   0  0  0  0  0  0  0  0  0  0  0  0
  -24.1680  -30.5955   24.3747 C   0  0  0  0  0  0  0  0  0  0  0  0
  -22.0079  -29.5106   25.0268 C   0  0  0  0  0  0  0  0  0  0  0  0
  -22.0062  -31.4319   23.4358 C   0  0  0  0  0  0  0  0  0  0  0  0
  -20.6448  -25.9269   19.6000 C   0  0  0  0  0  0  0  0  0  0  0  0
  -28.3902  -22.7706   20.5560 C   0  0  0  0  0  0  0  0  0  1  0  0
  -22.8555  -29.1807   22.6596 C   0  0  1  0  0  0  0  0  0  0  0  0
  -19.7773  -27.2966   21.5001 C   0  0  2  0  0  0  0  0  0  0  0  0
  -22.7797  -30.1647   23.8610 C   0  0  0  0  0  0  0  0  0  0  0  0
  -26.0373  -11.5978   20.2137 N   0  0  0  0  0  0  0  0  0  0  0  0
  -27.3372  -11.9024   20.0600 N   0  0  0  0  0  0  0  0  0  0  0  0
  -24.7636  -29.0479   21.0894 N   0  0  0  0  0  0  0  0  0  0  0  0
  -27.0921  -15.7052   19.6734 N   0  0  0  0  0  0  0  0  0  0  0  0
  -29.5217  -11.0042   20.2385 N   0  0  0  0  0  0  0  0  0  0  0  0
  -26.8726   -7.5468   21.4323 N   0  0  0  0  0  0  0  0  0  0  0  0
  -26.7819  -31.7184   20.6843 N   0  0  0  0  0  0  0  0  0  0  0  0
  -21.5555  -28.7769   22.1349 N   0  0  0  0  0  0  0  0  0  0  0  0
  -27.4523  -18.0046   20.1193 N   0  0  0  0  0  0  0  0  0  0  0  0
  -26.6772  -21.2794   21.5506 N   0  3  0  0  0  0  0  0  0  0  0  0
  -19.6790  -26.0279   20.7243 N   0  3  0  0  0  0  0  0  0  0  0  0
  -29.0480   -8.2126   21.1439 O   0  0  0  0  0  0  0  0  0  0  0  0
  -27.5044  -29.6911   21.5734 O   0  0  0  0  0  0  0  0  0  0  0  0
  -23.2188  -30.7890   20.9544 O   0  0  0  0  0  0  0  0  0  0  0  0
  -21.8501  -26.4987   22.4510 O   0  0  0  0  0  0  0  0  0  0  0  0
  -27.0383  -16.5460   21.8369 O   0  0  0  0  0  0  0  0  0  0  0  0
  -21.3069   -7.5913   21.6698 O   0  0  0  0  0  0  0  0  0  0  0  0
  -28.0310  -23.8277   21.4447 O   0  0  0  0  0  0  0  0  0  1  0  0
  -21.0740   -4.5303   26.2502 F   0  0  0  0  0  0  0  0  0  0  0  0
  -23.0580   -5.4881   22.0607 F   0  0  0  0  0  0  0  0  0  0  0  0
  1  2  1  0  0  0  0
  1  5  2  0  0  0  0
  2  6  2  0  0  0  0
  3  8  2  0  0  0  0
  3 15  1  0  0  0  0
  4  9  1  0  0  0  0
  4 15  2  0  0  0  0
  5 17  1  0  0  0  0
  6 19  1  0  0  0  0
  7 10  2  0  0  0  0
  7 18  1  0  0  0  0
  8 21  1  0  0  0  0
  9 21  2  0  0  0  0
 10 22  1  0  0  0  0
 11 12  2  0  0  0  0
 11 23  1  0  0  0  0
 12 24  1  0  0  0  0
 13 20  1  0  0  0  0
 13 22  2  0  0  0  0
 14 24  2  0  0  0  0
 14 25  1  0  0  0  0
 15 26  1  0  0  0  0
 16 26  1  0  0  0  0
 16 27  2  0  0  0  0
 16 28  1  0  0  0  0
 17 19  2  0  0  0  0
 17 33  1  0  0  0  0
 18 20  2  0  0  0  0
 18 34  1  0  0  0  0
 19 44  1  0  0  0  0
 20 35  1  0  0  0  0
 21 74  1  0  0  0  0
 22 75  1  0  0  0  0
 23 25  2  0  0  0  0
 23 74  1  0  0  0  0
 24 76  1  0  0  0  0
 25 77  1  0  0  0  0
 26 58  2  0  0  0  0
 27 59  1  0  0  0  0
 27 62  1  0  0  0  0
 28 63  1  0  0  0  0
 28 69  2  0  0  0  0
 29 45  1  0  0  0  0
 29 64  1  0  0  0  0
 29 70  2  0  0  0  0
 30 55  1  0  0  0  0
 30 60  1  0  0  0  0
 30 71  2  0  0  0  0
 31 56  1  0  0  0  0
 31 65  1  0  0  0  0
 31 72  2  0  0  0  0
 32 61  1  0  0  0  0
 32 66  1  0  0  0  0
 32 73  2  0  0  0  0
 33 36  1  0  0  0  0
 34 45  1  0  0  0  0
 35 60  1  0  0  0  0
 36 38  1  0  0  0  0
 37 39  1  0  0  0  0
 37 41  1  0  0  0  0
 38 44  1  0  0  0  0
 39 46  1  0  0  0  0
 40 47  1  0  0  0  0
 40 48  1  0  0  0  0
 41 61  1  0  0  0  0
 42 46  1  0  0  0  0
 42 61  1  0  0  0  0
 43 47  1  0  0  0  0
 43 67  1  0  0  0  0
 44 64  1  0  0  0  0
 45 60  1  0  0  0  0
 46 59  1  0  0  0  0
 47 66  1  0  0  0  0
 48 54  1  0  0  0  0
 48 67  1  0  0  0  0
 49 56  1  0  0  0  0
 50 57  1  0  0  0  0
 51 57  1  0  0  0  0
 52 57  1  0  0  0  0
 53 68  1  0  0  0  0
 54 75  1  0  0  0  0
 55 57  1  0  0  0  0
 55 65  1  0  0  0  0
 56 68  1  0  0  0  0
 58 59  1  0  0  0  0
M  CHG  2  67   1  68   1
M  ISO  4  32 100  54 101  66 100  75 101
M  END
> <Batch ID>
0147

> <Smiles>
CNC(C)C(=O)NC(C(=O)N1Cc2cc([101O:1][101CH2:1]C3CC([100NH:0][100C:0](=O)N4CCCC(n5nc(-c6ccc(Oc7ccc(F)cc7F)cc6)c(C(N)=O)c5N)C4)CN3)ccc2CC1C(=O)NC1CCCc2ccccc21)C(C)(C)C

> <Shape>
0.272

> <Color>
0.077

> <Negative vol penalty>
0.000

$$$$

  -OEChem-04052321333D

 88 97  0     1  0  0  0  0  0999 V2000
  -16.4369  -29.1860   23.4448 C   0  0  0  0  0  0  0  0  0  0  0  0
  -17.0667  -28.7361   22.2888 C   0  0  0  0  0  0  0  0  0  0  0  0
  -26.3689  -13.7567   21.7503 C   0  0  0  0  0  0  0  0  0  0  0  0
  -26.0330  -14.7671   19.5816 C   0  0  0  0  0  0  0  0  0  0  0  0
  -17.1143  -30.0318   24.3221 C   0  0  0  0  0  0  0  0  0  0  0  0
  -18.3740  -29.1326   22.0089 C   0  0  0  0  0  0  0  0  0  0  0  0
  -22.7177  -25.8115   19.2506 C   0  0  0  0  0  0  0  0  0  0  0  0
  -25.0191  -13.4084   21.7971 C   0  0  0  0  0  0  0  0  0  0  0  0
  -24.6831  -14.4188   19.6284 C   0  0  0  0  0  0  0  0  0  0  0  0
  -23.1792  -25.7777   17.9354 C   0  0  0  0  0  0  0  0  0  0  0  0
  -23.0173  -11.0155   20.4933 C   0  0  0  0  0  0  0  0  0  0  0  0
  -22.6951   -9.7250   20.9131 C   0  0  0  0  0  0  0  0  0  0  0  0
  -29.9192  -21.5638   17.3989 C   0  0  0  0  0  0  0  0  0  0  0  0
  -24.9654  -27.2862   18.5298 C   0  0  0  0  0  0  0  0  0  0  0  0
  -30.5632  -23.0837   19.1886 C   0  0  0  0  0  0  0  0  0  0  0  0
  -21.4157  -10.6410   22.7465 C   0  0  0  0  0  0  0  0  0  0  0  0
  -26.8759  -14.4361   20.6425 C   0  0  0  0  0  0  0  0  0  0  0  0
  -29.3288  -14.0295   20.0720 C   0  0  0  0  0  0  0  0  0  0  0  0
  -18.4339  -30.4311   24.0577 C   0  0  0  0  0  0  0  0  0  0  0  0
  -23.3713  -26.5928   20.2144 C   0  0  0  0  0  0  0  0  0  0  0  0
  -19.0692  -29.9856   22.8829 C   0  0  0  0  0  0  0  0  0  0  0  0
  -29.5980  -22.6672   16.6298 C   0  0  0  0  0  0  0  0  0  0  0  0
  -24.5117  -27.3262   19.8571 C   0  0  0  0  0  0  0  0  0  0  0  0
  -30.2255  -24.1885   18.4048 C   0  0  0  0  0  0  0  0  0  0  0  0
  -30.4125  -21.7795   18.6885 C   0  0  0  0  0  0  0  0  0  0  0  0
  -29.7520  -23.9515   17.1290 C   0  0  0  0  0  0  0  0  0  0  0  0
  -24.1762  -13.7394   20.7362 C   0  0  0  0  0  0  0  0  0  0  0  0
  -24.3015  -26.5174   17.5742 C   0  0  0  0  0  0  0  0  0  0  0  0
  -22.5388  -12.1188   21.2000 C   0  0  0  0  0  0  0  0  0  0  0  0
  -21.8942   -9.5378   22.0397 C   0  0  0  0  0  0  0  0  0  0  0  0
  -21.7380  -11.9316   22.3266 C   0  0  0  0  0  0  0  0  0  0  0  0
  -28.2700  -14.7967   20.5938 C   0  0  0  0  0  0  0  0  0  0  0  0
  -30.4436  -14.8091   20.2616 C   0  0  0  0  0  0  0  0  0  0  0  0
  -29.3065  -12.7285   19.4698 C   0  0  0  0  0  0  0  0  0  0  0  0
  -22.5454  -29.0646   22.0343 C   0  0  0  0  0  0  0  0  0  0  0  0
  -25.4773  -28.5856   23.3370 C   0  0  0  0  0  0  0  0  0  0  0  0
  -28.9962  -27.8135   23.1410 C   0  0  0  0  0  0  0  0  0  0  0  0
  -31.2589  -20.7037   20.8033 C   0  0  0  0  0  0  0  0  0  0  0  0
  -19.1089  -31.3844   25.0119 C   0  0  0  0  0  0  0  0  0  0  0  0
  -22.8767  -26.5975   21.6349 C   0  0  0  0  0  0  0  0  0  0  0  0
  -29.0095  -22.7316   15.2737 C   0  0  0  0  0  0  0  0  0  0  0  0
  -25.2612  -28.1649   20.8588 C   0  0  0  0  0  0  0  0  0  0  0  0
  -20.6229  -31.4569   24.8311 C   0  0  0  0  0  0  0  0  0  0  0  0
  -32.1943  -18.1997   23.1553 C   0  0  0  0  0  0  0  0  0  0  0  0
  -20.9784  -31.5914   23.3539 C   0  0  0  0  0  0  0  0  0  0  0  0
  -31.3951  -16.9713   22.7142 C   0  0  0  0  0  0  0  0  0  0  0  0
  -31.3996  -19.4907   22.9675 C   0  0  0  0  0  0  0  0  0  0  0  0
  -30.0522  -18.4636   21.1791 C   0  0  0  0  0  0  0  0  0  0  0  0
  -20.4951  -30.3737   22.5570 C   0  0  1  0  0  0  0  0  0  0  0  0
  -23.3154  -27.8321   22.4163 C   0  0  1  0  0  0  0  0  0  0  0  0
  -30.8354  -17.1452   21.2887 C   0  0  2  0  0  0  0  0  0  0  0  0
  -29.2220  -24.2260   14.9853 C   0  0  1  0  0  0  0  0  0  0  0  0
  -29.0379  -26.3236   19.0251 C   0  0  0  0  0  0  0  0  0  0  0  0
  -31.3921  -26.4058   18.1271 C   0  0  0  0  0  0  0  0  0  0  0  0
  -31.1352  -27.3807   24.3798 C   0  0  0  0  0  0  0  0  0  0  0  0
  -28.4341  -26.1794   13.5937 C   0  0  0  0  0  0  0  0  0  0  0  0
  -26.0653  -31.5284   22.7851 C   0  0  0  0  0  0  0  0  0  0  0  0
  -28.4960  -31.0346   23.1260 C   0  0  0  0  0  0  0  0  0  0  0  0
  -26.8823  -30.6985   24.9984 C   0  0  0  0  0  0  0  0  0  0  0  0
  -28.6728  -24.8808   22.9091 C   0  0  0  0  0  0  0  0  0  0  0  0
  -25.6019  -25.1349   14.4923 C   0  0  0  0  0  0  0  0  0  0  0  0
  -24.5280  -25.2875   15.5514 C   0  0  0  0  0  0  0  0  0  1  0  0
  -30.3799  -25.5699   18.9358 C   0  0  0  0  0  0  0  0  0  0  0  0
  -26.8708  -29.0895   23.0482 C   0  0  1  0  0  0  0  0  0  0  0  0
  -29.7625  -26.8373   24.0153 C   0  0  2  0  0  0  0  0  0  0  0  0
  -28.0664  -24.8403   14.2124 C   0  0  2  0  0  0  0  0  0  0  0  0
  -27.0636  -30.5736   23.4699 C   0  0  0  0  0  0  0  0  0  0  0  0
  -28.6759  -15.9733   21.0785 N   0  0  0  0  0  0  0  0  0  0  0  0
  -30.0021  -15.9512   20.8623 N   0  0  0  0  0  0  0  0  0  0  0  0
  -24.7349  -28.1418   22.2336 N   0  0  0  0  0  0  0  0  0  0  0  0
  -30.9046  -19.5892   21.5927 N   0  0  0  0  0  0  0  0  0  0  0  0
  -31.7487  -14.6221   19.9715 N   0  0  0  0  0  0  0  0  0  0  0  0
  -28.0763  -12.0673   19.3532 N   0  0  0  0  0  0  0  0  0  0  0  0
  -30.7566  -20.6722   19.5028 N   0  0  0  0  0  0  0  0  0  0  0  0
  -21.3849  -29.2507   22.7610 N   0  0  0  0  0  0  0  0  0  0  0  0
  -27.7849  -28.1591   23.7018 N   0  0  0  0  0  0  0  0  0  0  0  0
  -29.9440  -25.5391   23.3062 N   0  3  0  0  0  0  0  0  0  0  0  0
  -26.9302  -25.0498   15.1501 N   0  3  0  0  0  0  0  0  0  0  0  0
  -30.3491  -12.1621   19.0626 O   0  0  0  0  0  0  0  0  0  0  0  0
  -22.9734  -29.7935   21.1471 O   0  0  0  0  0  0  0  0  0  0  0  0
  -25.0654  -28.5793   24.4998 O   0  0  0  0  0  0  0  0  0  0  0  0
  -29.4306  -28.2308   22.0697 O   0  0  0  0  0  0  0  0  0  0  0  0
  -31.9790  -21.6054   21.2396 O   0  0  0  0  0  0  0  0  0  0  0  0
  -29.3712  -24.9298   16.2467 O   0  0  0  0  0  0  0  0  0  0  0  0
  -22.8590  -13.3994   20.7815 O   0  0  0  0  0  0  0  0  0  0  0  0
  -24.7537  -26.4868   16.2910 O   0  0  0  0  0  0  0  0  0  1  0  0
  -21.5836   -8.2984   22.4419 F   0  0  0  0  0  0  0  0  0  0  0  0
  -21.2744  -12.9876   23.0090 F   0  0  0  0  0  0  0  0  0  0  0  0
  1  2  1  0  0  0  0
  1  5  2  0  0  0  0
  2  6  2  0  0  0  0
  3  8  2  0  0  0  0
  3 17  1  0  0  0  0
  4  9  1  0  0  0  0
  4 17  2  0  0  0  0
  5 19  1  0  0  0  0
  6 21  1  0  0  0  0
  7 10  2  0  0  0  0
  7 20  1  0  0  0  0
  8 27  1  0  0  0  0
  9 27  2  0  0  0  0
 10 28  1  0  0  0  0
 11 12  2  0  0  0  0
 11 29  1  0  0  0  0
 12 30  1  0  0  0  0
 13 22  1  0  0  0  0
 13 25  2  0  0  0  0
 14 23  1  0  0  0  0
 14 28  2  0  0  0  0
 15 24  2  0  0  0  0
 15 25  1  0  0  0  0
 16 30  2  0  0  0  0
 16 31  1  0  0  0  0
 17 32  1  0  0  0  0
 18 32  1  0  0  0  0
 18 33  2  0  0  0  0
 18 34  1  0  0  0  0
 19 21  2  0  0  0  0
 19 39  1  0  0  0  0
 20 23  2  0  0  0  0
 20 40  1  0  0  0  0
 21 49  1  0  0  0  0
 22 26  2  0  0  0  0
 22 41  1  0  0  0  0
 23 42  1  0  0  0  0
 24 26  1  0  0  0  0
 24 63  1  0  0  0  0
 25 74  1  0  0  0  0
 26 84  1  0  0  0  0
 27 85  1  0  0  0  0
 28 86  1  0  0  0  0
 29 31  2  0  0  0  0
 29 85  1  0  0  0  0
 30 87  1  0  0  0  0
 31 88  1  0  0  0  0
 32 68  2  0  0  0  0
 33 69  1  0  0  0  0
 33 72  1  0  0  0  0
 34 73  1  0  0  0  0
 34 79  2  0  0  0  0
 35 50  1  0  0  0  0
 35 75  1  0  0  0  0
 35 80  2  0  0  0  0
 36 64  1  0  0  0  0
 36 70  1  0  0  0  0
 36 81  2  0  0  0  0
 37 65  1  0  0  0  0
 37 76  1  0  0  0  0
 37 82  2  0  0  0  0
 38 71  1  0  0  0  0
 38 74  1  0  0  0  0
 38 83  2  0  0  0  0
 39 43  1  0  0  0  0
 40 50  1  0  0  0  0
 41 52  1  0  0  0  0
 42 70  1  0  0  0  0
 43 45  1  0  0  0  0
 44 46  1  0  0  0  0
 44 47  1  0  0  0  0
 45 49  1  0  0  0  0
 46 51  1  0  0  0  0
 47 71  1  0  0  0  0
 48 51  1  0  0  0  0
 48 71  1  0  0  0  0
 49 75  1  0  0  0  0
 50 70  1  0  0  0  0
 51 69  1  0  0  0  0
 52 66  1  0  0  0  0
 52 84  1  0  0  0  0
 53 63  1  0  0  0  0
 54 63  1  0  0  0  0
 55 65  1  0  0  0  0
 56 66  1  0  0  0  0
 57 67  1  0  0  0  0
 58 67  1  0  0  0  0
 59 67  1  0  0  0  0
 60 77  1  0  0  0  0
 61 62  1  0  0  0  0
 61 78  1  0  0  0  0
 62 86  1  0  0  0  0
 64 67  1  0  0  0  0
 64 76  1  0  0  0  0
 65 77  1  0  0  0  0
 66 78  1  0  0  0  0
 68 69  1  0  0  0  0
M  CHG  2  77   1  78   1
M  ISO  4  38 100  62 101  74 100  86 101
M  END
> <Batch ID>
0147

> <Smiles>
CNC(C)C(=O)NC(C(=O)N1Cc2cc([101O:1][101CH2:1]CNC(C)C3Cc4cc([100NH:0][100C:0](=O)N5CCCC(n6nc(-c7ccc(Oc8ccc(F)cc8F)cc7)c(C(N)=O)c6N)C5)cc(C(C)C)c4O3)ccc2CC1C(=O)NC1CCCc2ccccc21)C(C)(C)C

> <Shape>
0.297

> <Color>
0.056

> <Negative vol penalty>
0.000

$$$$

  -OEChem-04052321333D

 86 95  0     1  0  0  0  0  0999 V2000
  -28.4888  -37.6446   23.5868 C   0  0  0  0  0  0  0  0  0  0  0  0
  -28.9249  -36.4477   23.0277 C   0  0  0  0  0  0  0  0  0  0  0  0
  -27.7435  -11.7489   22.8537 C   0  0  0  0  0  0  0  0  0  0  0  0
  -26.3794  -13.4590   23.8794 C   0  0  0  0  0  0  0  0  0  0  0  0
  -27.4383  -37.6425   24.5036 C   0  0  0  0  0  0  0  0  0  0  0  0
  -28.3114  -35.2478   23.3859 C   0  0  0  0  0  0  0  0  0  0  0  0
  -27.3594  -30.3827   19.7900 C   0  0  0  0  0  0  0  0  0  0  0  0
  -30.6141  -21.0719   20.4285 C   0  0  0  0  0  0  0  0  0  0  0  0
  -28.5170  -11.6713   24.0119 C   0  0  0  0  0  0  0  0  0  0  0  0
  -27.1529  -13.3814   25.0375 C   0  0  0  0  0  0  0  0  0  0  0  0
  -28.0521  -29.1831   19.6322 C   0  0  0  0  0  0  0  0  0  0  0  0
  -31.0159  -13.4271   25.4599 C   0  0  0  0  0  0  0  0  0  0  0  0
  -32.4022  -13.3890   25.3111 C   0  0  0  0  0  0  0  0  0  0  0  0
  -30.5005  -22.4518   20.5556 C   0  0  0  0  0  0  0  0  0  0  0  0
  -26.5367  -28.1122   21.1737 C   0  0  0  0  0  0  0  0  0  0  0  0
  -32.4620  -11.2423   26.4179 C   0  0  0  0  0  0  0  0  0  0  0  0
  -26.6747  -12.6428   22.7875 C   0  0  0  0  0  0  0  0  0  0  0  0
  -24.7182  -11.9814   21.2901 C   0  0  0  0  0  0  0  0  0  0  0  0
  -26.8053  -36.4431   24.8659 C   0  0  0  0  0  0  0  0  0  0  0  0
  -26.2550  -30.4589   20.6507 C   0  0  0  0  0  0  0  0  0  0  0  0
  -27.2524  -35.2295   24.3094 C   0  0  0  0  0  0  0  0  0  0  0  0
  -30.0463  -20.4311   19.3329 C   0  0  0  0  0  0  0  0  0  0  0  0
  -25.8302  -29.3133   21.3387 C   0  0  0  0  0  0  0  0  0  0  0  0
  -28.2217  -12.4875   25.1038 C   0  0  0  0  0  0  0  0  0  0  0  0
  -27.6426  -28.0483   20.3263 C   0  0  0  0  0  0  0  0  0  0  0  0
  -30.3526  -12.3729   26.0878 C   0  0  0  0  0  0  0  0  0  0  0  0
  -33.1253  -12.2966   25.7901 C   0  0  0  0  0  0  0  0  0  0  0  0
  -31.0756  -11.2804   26.5668 C   0  0  0  0  0  0  0  0  0  0  0  0
  -25.8757  -12.7239   21.5912 C   0  0  0  0  0  0  0  0  0  0  0  0
  -29.3806  -21.2094   18.3997 C   0  0  0  0  0  0  0  0  0  0  0  0
  -29.8147  -23.1397   19.5675 C   0  0  0  0  0  0  0  0  0  0  0  0
  -24.3389  -12.4256   20.0470 C   0  0  0  0  0  0  0  0  0  0  0  0
  -24.0458  -10.9797   22.0649 C   0  0  0  0  0  0  0  0  0  0  0  0
  -25.5735  -32.1012   23.2855 C   0  0  0  0  0  0  0  0  0  0  0  0
  -22.6495  -30.7500   22.9031 C   0  0  0  0  0  0  0  0  0  0  0  0
  -20.7820  -28.2009   21.6142 C   0  0  0  0  0  0  0  0  0  0  0  0
  -28.6330  -15.6521   18.9541 C   0  0  0  0  0  0  0  0  0  0  0  0
  -25.7052  -36.4855   25.8968 C   0  0  0  0  0  0  0  0  0  0  0  0
  -25.5022  -31.7537   20.7895 C   0  0  0  0  0  0  0  0  0  0  0  0
  -24.6383  -29.3375   22.2592 C   0  0  0  0  0  0  0  0  0  0  0  0
  -24.8614  -35.2141   25.9398 C   0  0  0  0  0  0  0  0  0  0  0  0
  -25.0704  -16.5906   19.1765 C   0  0  0  0  0  0  0  0  0  0  0  0
  -25.7566  -33.9789   25.9356 C   0  0  0  0  0  0  0  0  0  0  0  0
  -24.4004  -15.4217   18.4664 C   0  0  0  0  0  0  0  0  0  0  0  0
  -30.9155  -18.2357   20.3295 C   0  0  0  0  0  0  0  0  0  0  0  0
  -26.4454  -16.9050   18.5936 C   0  0  0  0  0  0  0  0  0  0  0  0
  -28.8319  -18.1832   19.1725 C   0  0  0  0  0  0  0  0  0  0  0  0
  -26.7065  -14.5273   17.8958 C   0  0  0  0  0  0  0  0  0  0  0  0
  -30.1667  -18.9348   19.1894 C   0  0  1  0  0  0  0  0  0  0  0  0
  -26.5960  -33.9102   24.6541 C   0  0  1  0  0  0  0  0  0  0  0  0
  -24.7046  -31.8451   22.0867 C   0  0  1  0  0  0  0  0  0  0  0  0
  -25.2969  -14.1769   18.4027 C   0  0  1  0  0  0  0  0  0  0  0  0
  -30.5155  -16.7660   20.1534 C   0  0  1  0  0  0  0  0  0  0  0  0
  -28.7514  -20.5750   17.2026 C   0  0  0  0  0  0  0  0  0  0  0  0
  -30.5005  -16.0184   21.4805 C   0  0  0  0  0  0  0  0  0  0  0  0
  -18.4244  -27.3487   21.4995 C   0  0  0  0  0  0  0  0  0  0  0  0
  -22.8729  -29.7523   25.7780 C   0  0  0  0  0  0  0  0  0  0  0  0
  -21.0017  -28.1599   25.2971 C   0  0  0  0  0  0  0  0  0  0  0  0
  -20.6135  -30.6195   25.1473 C   0  0  0  0  0  0  0  0  0  0  0  0
  -20.7219  -28.4236   18.6636 C   0  0  0  0  0  0  0  0  0  0  0  0
  -28.9470  -26.6475   18.9149 C   0  0  0  0  0  0  0  0  0  1  0  0
  -28.9757  -25.1582   18.6307 C   0  0  0  0  0  0  0  0  0  0  0  0
  -21.9935  -29.4718   23.3667 C   0  0  1  0  0  0  0  0  0  0  0  0
  -19.4864  -28.2015   20.8230 C   0  0  2  0  0  0  0  0  0  0  0  0
  -21.6441  -29.5006   24.8815 C   0  0  0  0  0  0  0  0  0  0  0  0
  -26.2099  -13.5751   20.6177 N   0  0  0  0  0  0  0  0  0  0  0  0
  -29.2497  -22.5520   18.4890 N   0  0  0  0  0  0  0  0  0  0  0  0
  -25.2568  -13.3702   19.6927 N   0  0  0  0  0  0  0  0  0  0  0  0
  -23.9390  -30.6286   22.3664 N   0  0  0  0  0  0  0  0  0  0  0  0
  -27.3039  -15.7190   18.5068 N   0  0  0  0  0  0  0  0  0  0  0  0
  -29.1947  -16.8039   19.5110 N   0  0  0  0  0  0  0  0  0  0  0  0
  -23.3133  -12.0965   19.2333 N   0  0  0  0  0  0  0  0  0  0  0  0
  -24.5694  -10.6432   23.3206 N   0  0  0  0  0  0  0  0  0  0  0  0
  -25.7907  -33.4406   23.5471 N   0  0  0  0  0  0  0  0  0  0  0  0
  -20.8447  -29.2621   22.4923 N   0  0  0  0  0  0  0  0  0  0  0  0
  -19.7166  -27.6652   19.4518 N   0  3  0  0  0  0  0  0  0  0  0  0
  -23.0207  -10.3885   21.6487 O   0  0  0  0  0  0  0  0  0  0  0  0
  -26.0131  -31.1539   23.9266 O   0  0  0  0  0  0  0  0  0  0  0  0
  -22.0373  -31.8159   23.0066 O   0  0  0  0  0  0  0  0  0  0  0  0
  -21.6498  -27.3426   21.4704 O   0  0  0  0  0  0  0  0  0  0  0  0
  -29.2969  -14.6121   18.8467 O   0  0  0  0  0  0  0  0  0  0  0  0
  -28.9761  -12.4119   26.2341 O   0  0  0  0  0  0  0  0  0  0  0  0
  -28.3219  -26.8683   20.1735 O   0  0  0  0  0  0  0  0  0  1  0  0
  -29.6887  -24.5003   19.6712 O   0  0  0  0  0  0  0  0  0  0  0  0
  -34.4565  -12.2594   25.6457 F   0  0  0  0  0  0  0  0  0  0  0  0
  -30.4438  -10.2641   27.1698 F   0  0  0  0  0  0  0  0  0  0  0  0
  1  2  1  0  0  0  0
  1  5  2  0  0  0  0
  2  6  2  0  0  0  0
  3  9  2  0  0  0  0
  3 17  1  0  0  0  0
  4 10  1  0  0  0  0
  4 17  2  0  0  0  0
  5 19  1  0  0  0  0
  6 21  1  0  0  0  0
  7 11  2  0  0  0  0
  7 20  1  0  0  0  0
  8 14  2  0  0  0  0
  8 22  1  0  0  0  0
  9 24  1  0  0  0  0
 10 24  2  0  0  0  0
 11 25  1  0  0  0  0
 12 13  2  0  0  0  0
 12 26  1  0  0  0  0
 13 27  1  0  0  0  0
 14 31  1  0  0  0  0
 15 23  1  0  0  0  0
 15 25  2  0  0  0  0
 16 27  2  0  0  0  0
 16 28  1  0  0  0  0
 17 29  1  0  0  0  0
 18 29  1  0  0  0  0
 18 32  2  0  0  0  0
 18 33  1  0  0  0  0
 19 21  2  0  0  0  0
 19 38  1  0  0  0  0
 20 23  2  0  0  0  0
 20 39  1  0  0  0  0
 21 50  1  0  0  0  0
 22 30  2  0  0  0  0
 22 49  1  0  0  0  0
 23 40  1  0  0  0  0
 24 82  1  0  0  0  0
 25 83  1  0  0  0  0
 26 28  2  0  0  0  0
 26 82  1  0  0  0  0
 27 85  1  0  0  0  0
 28 86  1  0  0  0  0
 29 66  2  0  0  0  0
 30 54  1  0  0  0  0
 30 67  1  0  0  0  0
 31 67  2  0  0  0  0
 31 84  1  0  0  0  0
 32 68  1  0  0  0  0
 32 72  1  0  0  0  0
 33 73  1  0  0  0  0
 33 77  2  0  0  0  0
 34 51  1  0  0  0  0
 34 74  1  0  0  0  0
 34 78  2  0  0  0  0
 35 63  1  0  0  0  0
 35 69  1  0  0  0  0
 35 79  2  0  0  0  0
 36 64  1  0  0  0  0
 36 75  1  0  0  0  0
 36 80  2  0  0  0  0
 37 70  1  0  0  0  0
 37 71  1  0  0  0  0
 37 81  2  0  0  0  0
 38 41  1  0  0  0  0
 39 51  1  0  0  0  0
 40 69  1  0  0  0  0
 41 43  1  0  0  0  0
 42 44  1  0  0  0  0
 42 46  1  0  0  0  0
 43 50  1  0  0  0  0
 44 52  1  0  0  0  0
 45 49  1  0  0  0  0
 45 53  1  0  0  0  0
 46 70  1  0  0  0  0
 47 49  1  0  0  0  0
 47 71  1  0  0  0  0
 48 52  1  0  0  0  0
 48 70  1  0  0  0  0
 50 74  1  0  0  0  0
 51 69  1  0  0  0  0
 52 68  1  0  0  0  0
 53 55  1  0  0  0  0
 53 71  1  0  0  0  0
 56 64  1  0  0  0  0
 57 65  1  0  0  0  0
 58 65  1  0  0  0  0
 59 65  1  0  0  0  0
 60 76  1  0  0  0  0
 61 62  1  0  0  0  0
 61 83  1  0  0  0  0
 62 84  1  0  0  0  0
 63 65  1  0  0  0  0
 63 75  1  0  0  0  0
 64 76  1  0  0  0  0
 66 68  1  0  0  0  0
M  CHG  1  76   1
M  ISO  4  37 100  61 101  71 100  83 101
M  END
> <Batch ID>
0147

> <Smiles>
CNC(C)C(=O)NC(C(=O)N1Cc2cc([101O:1][101CH2:1]COc3ccc(C4CC(C)[100N:0]([100C:0](=O)N5CCCC(n6nc(-c7ccc(Oc8ccc(F)cc8F)cc7)c(C(N)=O)c6N)C5)C4)c(C)n3)ccc2CC1C(=O)NC1CCCc2ccccc21)C(C)(C)C

> <Shape>
0.277

> <Color>
0.092

> <Negative vol penalty>
0.000

$$$$

  -OEChem-04052321333D

 93103  0     1  0  0  0  0  0999 V2000
  -27.3687  -39.4194   23.7854 C   0  0  0  0  0  0  0  0  0  0  0  0
  -28.1950  -38.4296   24.3078 C   0  0  0  0  0  0  0  0  0  0  0  0
  -23.6243   -9.2905   21.4848 C   0  0  0  0  0  0  0  0  0  0  0  0
  -25.9084   -8.6523   21.9457 C   0  0  0  0  0  0  0  0  0  0  0  0
  -25.9853  -39.2463   23.7922 C   0  0  0  0  0  0  0  0  0  0  0  0
  -27.6382  -37.2664   24.8383 C   0  0  0  0  0  0  0  0  0  0  0  0
  -29.3594  -30.7907   22.1937 C   0  0  0  0  0  0  0  0  0  0  0  0
  -23.1826   -8.4447   22.5021 C   0  0  0  0  0  0  0  0  0  0  0  0
  -25.4668   -7.8064   22.9631 C   0  0  0  0  0  0  0  0  0  0  0  0
  -29.7982  -29.5035   21.8825 C   0  0  0  0  0  0  0  0  0  0  0  0
  -22.6437   -5.1356   22.9313 C   0  0  0  0  0  0  0  0  0  0  0  0
  -21.5461   -4.3180   22.6624 C   0  0  0  0  0  0  0  0  0  0  0  0
  -28.2034  -28.5712   23.4432 C   0  0  0  0  0  0  0  0  0  0  0  0
  -24.5450  -20.2868   20.7995 C   0  0  0  0  0  0  0  0  0  0  0  0
  -20.3269   -5.3604   24.4690 C   0  0  0  0  0  0  0  0  0  0  0  0
  -24.9873   -9.3943   21.2065 C   0  0  0  0  0  0  0  0  0  0  0  0
  -25.1085  -10.2019   18.7898 C   0  0  0  0  0  0  0  0  0  0  0  0
  -25.4117  -38.0762   24.3143 C   0  0  0  0  0  0  0  0  0  0  0  0
  -28.3292  -30.9724   23.1205 C   0  0  0  0  0  0  0  0  0  0  0  0
  -26.2457  -37.0780   24.8533 C   0  0  0  0  0  0  0  0  0  0  0  0
  -27.7512  -29.8574   23.7495 C   0  0  0  0  0  0  0  0  0  0  0  0
  -23.8123  -19.1112   20.9194 C   0  0  0  0  0  0  0  0  0  0  0  0
  -24.4595  -17.8835   20.8355 C   0  0  0  0  0  0  0  0  0  0  0  0
  -24.1038   -7.7026   23.2413 C   0  0  0  0  0  0  0  0  0  0  0  0
  -29.2217  -28.3965   22.5060 C   0  0  0  0  0  0  0  0  0  0  0  0
  -22.5830   -6.0657   23.9691 C   0  0  0  0  0  0  0  0  0  0  0  0
  -20.3877   -4.4304   23.4313 C   0  0  0  0  0  0  0  0  0  0  0  0
  -21.4246   -6.1781   24.7379 C   0  0  0  0  0  0  0  0  0  0  0  0
  -25.4441  -10.2675   20.1554 C   0  0  0  0  0  0  0  0  0  0  0  0
  -25.9118  -20.1814   20.5983 C   0  0  0  0  0  0  0  0  0  0  0  0
  -25.8302  -17.8857   20.6325 C   0  0  0  0  0  0  0  0  0  0  0  0
  -25.7957  -11.2440   18.2169 C   0  0  0  0  0  0  0  0  0  0  0  0
  -24.2521   -9.2813   18.1007 C   0  0  0  0  0  0  0  0  0  0  0  0
  -26.1072  -33.3867   24.9398 C   0  0  0  0  0  0  0  0  0  0  0  0
  -24.3644  -30.9857   24.1599 C   0  0  0  0  0  0  0  0  0  0  0  0
  -21.8174  -28.8975   23.2714 C   0  0  0  0  0  0  0  0  0  0  0  0
  -27.8657  -16.4294   20.3456 C   0  0  0  0  0  0  0  0  0  0  0  0
  -23.9087  -37.9548   24.3429 C   0  0  0  0  0  0  0  0  0  0  0  0
  -27.8669  -32.3439   23.5317 C   0  0  0  0  0  0  0  0  0  0  0  0
  -26.6695  -30.1027   24.7658 C   0  0  0  0  0  0  0  0  0  0  0  0
  -23.4172  -36.5295   24.5825 C   0  0  0  0  0  0  0  0  0  0  0  0
  -29.7660  -13.8646   18.7684 C   0  0  0  0  0  0  0  0  0  0  0  0
  -24.1838  -35.8870   25.7341 C   0  0  0  0  0  0  0  0  0  0  0  0
  -21.7235  -20.5374   18.9500 C   0  0  0  0  0  0  0  0  0  0  0  0
  -20.4305  -20.2801   19.6722 C   0  0  0  0  0  0  0  0  0  0  0  0
  -28.8404  -12.6467   18.8153 C   0  0  0  0  0  0  0  0  0  0  0  0
  -28.4562  -22.8452   21.2519 C   0  0  0  0  0  0  0  0  0  0  0  0
  -26.6763  -23.7183   19.7189 C   0  0  0  0  0  0  0  0  0  0  0  0
  -29.6414  -14.7204   20.0276 C   0  0  0  0  0  0  0  0  0  0  0  0
  -28.0368  -21.4130   20.9187 C   0  0  0  0  0  0  0  0  0  0  0  0
  -26.2668  -22.2841   19.3857 C   0  0  0  0  0  0  0  0  0  0  0  0
  -27.3470  -13.9112   20.4147 C   0  0  0  0  0  0  0  0  0  0  0  0
  -25.6807  -35.7915   25.4151 C   0  0  1  0  0  0  0  0  0  0  0  0
  -26.3584  -32.4078   23.8307 C   0  0  1  0  0  0  0  0  0  0  0  0
  -21.7102  -20.4203   20.4490 C   0  0  0  0  0  0  0  0  0  0  0  0
  -27.3895  -13.0537   19.1393 C   0  0  2  0  0  0  0  0  0  0  0  0
  -28.1528  -23.7866   20.0921 C   0  0  0  0  0  0  0  0  0  0  0  0
  -23.4579  -15.9375   19.6122 C   0  0  0  0  0  0  0  0  0  0  0  0
  -21.9626  -19.1823   22.6305 C   0  0  0  0  0  0  0  0  0  0  0  0
  -19.5279  -28.1654   23.9923 C   0  0  0  0  0  0  0  0  0  0  0  0
  -25.6066  -29.2901   26.3702 C   0  0  0  0  0  0  0  0  0  0  0  0
  -23.5104  -27.9215   26.4010 C   0  0  0  0  0  0  0  0  0  0  0  0
  -23.4217  -30.3487   26.9702 C   0  0  0  0  0  0  0  0  0  0  0  0
  -20.5908  -29.8599   20.7558 C   0  0  0  0  0  0  0  0  0  0  0  0
  -23.6895  -16.6105   20.9619 C   0  0  0  0  0  0  0  0  0  0  0  0
  -29.9385  -25.4888   20.4721 C   0  0  0  0  0  0  0  0  0  0  0  0
  -30.1458  -26.9364   20.8715 C   0  0  0  0  0  0  0  0  0  1  0  0
  -22.3373  -19.1938   21.1371 C   0  0  2  0  0  0  0  0  0  0  0  0
  -23.7931  -29.6515   24.5685 C   0  0  1  0  0  0  0  0  0  0  0  0
  -20.3243  -29.1327   23.1304 C   0  0  2  0  0  0  0  0  0  0  0  0
  -24.0979  -29.3060   26.0535 C   0  0  0  0  0  0  0  0  0  0  0  0
  -26.2797  -11.2718   20.4333 N   0  0  0  0  0  0  0  0  0  0  0  0
  -26.5757  -19.0069   20.5114 N   0  0  0  0  0  0  0  0  0  0  0  0
  -26.4750  -11.8468   19.2345 N   0  0  0  0  0  0  0  0  0  0  0  0
  -26.6364  -21.3737   20.4799 N   0  0  0  0  0  0  0  0  0  0  0  0
  -25.7504  -31.1438   24.2798 N   0  0  0  0  0  0  0  0  0  0  0  0
  -28.2402  -15.0712   20.2690 N   0  0  0  0  0  0  0  0  0  0  0  0
  -25.8793  -11.6943   16.9470 N   0  0  0  0  0  0  0  0  0  0  0  0
  -24.8142   -8.1081   17.5792 N   0  0  0  0  0  0  0  0  0  0  0  0
  -26.5019  -16.6411   20.5455 N   0  0  0  0  0  0  0  0  0  0  0  0
  -25.9357  -34.6894   24.5123 N   0  0  0  0  0  0  0  0  0  0  0  0
  -22.3711  -29.7004   24.2461 N   0  0  0  0  0  0  0  0  0  0  0  0
  -28.4871  -25.1770   20.4958 N   0  3  0  0  0  0  0  0  0  0  0  0
  -19.9035  -28.9542   21.7120 N   0  3  0  0  0  0  0  0  0  0  0  0
  -23.0278   -9.5006   17.9377 O   0  0  0  0  0  0  0  0  0  0  0  0
  -26.0700  -32.9902   26.0987 O   0  0  0  0  0  0  0  0  0  0  0  0
  -23.6040  -31.8675   23.7506 O   0  0  0  0  0  0  0  0  0  0  0  0
  -22.4304  -28.0805   22.5879 O   0  0  0  0  0  0  0  0  0  0  0  0
  -28.6897  -17.3382   20.2144 O   0  0  0  0  0  0  0  0  0  0  0  0
  -23.6732   -6.8773   24.2343 O   0  0  0  0  0  0  0  0  0  0  0  0
  -29.6517  -27.1425   22.1942 O   0  0  0  0  0  0  0  0  0  1  0  0
  -19.3332   -3.6462   23.1720 F   0  0  0  0  0  0  0  0  0  0  0  0
  -21.3598   -7.0706   25.7355 F   0  0  0  0  0  0  0  0  0  0  0  0
  1  2  1  0  0  0  0
  1  5  2  0  0  0  0
  2  6  2  0  0  0  0
  3  8  2  0  0  0  0
  3 16  1  0  0  0  0
  4  9  1  0  0  0  0
  4 16  2  0  0  0  0
  5 18  1  0  0  0  0
  6 20  1  0  0  0  0
  7 10  2  0  0  0  0
  7 19  1  0  0  0  0
  8 24  1  0  0  0  0
  9 24  2  0  0  0  0
 10 25  1  0  0  0  0
 11 12  2  0  0  0  0
 11 26  1  0  0  0  0
 12 27  1  0  0  0  0
 13 21  1  0  0  0  0
 13 25  2  0  0  0  0
 14 22  2  0  0  0  0
 14 30  1  0  0  0  0
 15 27  2  0  0  0  0
 15 28  1  0  0  0  0
 16 29  1  0  0  0  0
 17 29  1  0  0  0  0
 17 32  2  0  0  0  0
 17 33  1  0  0  0  0
 18 20  2  0  0  0  0
 18 38  1  0  0  0  0
 19 21  2  0  0  0  0
 19 39  1  0  0  0  0
 20 53  1  0  0  0  0
 21 40  1  0  0  0  0
 22 23  1  0  0  0  0
 22 68  1  0  0  0  0
 23 31  2  0  0  0  0
 23 65  1  0  0  0  0
 24 90  1  0  0  0  0
 25 91  1  0  0  0  0
 26 28  2  0  0  0  0
 26 90  1  0  0  0  0
 27 92  1  0  0  0  0
 28 93  1  0  0  0  0
 29 72  2  0  0  0  0
 30 73  2  0  0  0  0
 30 75  1  0  0  0  0
 31 73  1  0  0  0  0
 31 80  1  0  0  0  0
 32 74  1  0  0  0  0
 32 78  1  0  0  0  0
 33 79  1  0  0  0  0
 33 85  2  0  0  0  0
 34 54  1  0  0  0  0
 34 81  1  0  0  0  0
 34 86  2  0  0  0  0
 35 69  1  0  0  0  0
 35 76  1  0  0  0  0
 35 87  2  0  0  0  0
 36 70  1  0  0  0  0
 36 82  1  0  0  0  0
 36 88  2  0  0  0  0
 37 77  1  0  0  0  0
 37 80  1  0  0  0  0
 37 89  2  0  0  0  0
 38 41  1  0  0  0  0
 39 54  1  0  0  0  0
 40 76  1  0  0  0  0
 41 43  1  0  0  0  0
 42 46  1  0  0  0  0
 42 49  1  0  0  0  0
 43 53  1  0  0  0  0
 44 45  1  0  0  0  0
 44 55  1  0  0  0  0
 45 55  1  0  0  0  0
 46 56  1  0  0  0  0
 47 50  1  0  0  0  0
 47 57  1  0  0  0  0
 48 51  1  0  0  0  0
 48 57  1  0  0  0  0
 49 77  1  0  0  0  0
 50 75  1  0  0  0  0
 51 75  1  0  0  0  0
 52 56  1  0  0  0  0
 52 77  1  0  0  0  0
 53 81  1  0  0  0  0
 54 76  1  0  0  0  0
 55 68  1  0  0  0  0
 56 74  1  0  0  0  0
 57 83  1  0  0  0  0
 58 65  1  0  0  0  0
 59 68  1  0  0  0  0
 60 70  1  0  0  0  0
 61 71  1  0  0  0  0
 62 71  1  0  0  0  0
 63 71  1  0  0  0  0
 64 84  1  0  0  0  0
 66 67  1  0  0  0  0
 66 83  1  0  0  0  0
 67 91  1  0  0  0  0
 69 71  1  0  0  0  0
 69 82  1  0  0  0  0
 70 84  1  0  0  0  0
 72 74  1  0  0  0  0
M  CHG  2  83   1  84   1
M  ISO  4  37 100  67 101  80 100  91 101
M  END
> <Batch ID>
0147

> <Smiles>
CCc1c(C(C)C2CC2)cc(N2CCC(NC[101CH2:1][101O:1]c3ccc4c(c3)CN(C(=O)C(NC(=O)C(C)NC)C(C)(C)C)C(C(=O)NC3CCCc5ccccc53)C4)CC2)nc1[100NH:0][100C:0](=O)N1CCCC(n2nc(-c3ccc(Oc4ccc(F)cc4F)cc3)c(C(N)=O)c2N)C1

> <Shape>
0.281

> <Color>
0.064

> <Negative vol penalty>
0.000

$$$$

  -OEChem-04052321333D

 87 97  0     1  0  0  0  0  0999 V2000
  -34.8022  -36.3614   19.9513 C   0  0  0  0  0  0  0  0  0  0  0  0
  -34.4435  -35.0370   19.7217 C   0  0  0  0  0  0  0  0  0  0  0  0
  -24.7857   -8.8071   21.6893 C   0  0  0  0  0  0  0  0  0  0  0  0
  -24.2452   -8.3295   19.3835 C   0  0  0  0  0  0  0  0  0  0  0  0
  -34.2229  -37.0665   21.0054 C   0  0  0  0  0  0  0  0  0  0  0  0
  -33.5061  -34.4166   20.5468 C   0  0  0  0  0  0  0  0  0  0  0  0
  -29.3559  -30.2244   18.9015 C   0  0  0  0  0  0  0  0  0  0  0  0
  -28.2810  -23.9211   18.6202 C   0  0  0  0  0  0  0  0  0  0  0  0
  -23.5978   -8.1982   22.0939 C   0  0  0  0  0  0  0  0  0  0  0  0
  -23.0573   -7.7205   19.7881 C   0  0  0  0  0  0  0  0  0  0  0  0
  -29.3387  -28.8336   18.9973 C   0  0  0  0  0  0  0  0  0  0  0  0
  -28.1379  -22.5529   18.8510 C   0  0  0  0  0  0  0  0  0  0  0  0
  -20.8807   -6.4496   23.7597 C   0  0  0  0  0  0  0  0  0  0  0  0
  -20.9374   -5.5739   24.8439 C   0  0  0  0  0  0  0  0  0  0  0  0
  -29.9428  -24.0424   20.3697 C   0  0  0  0  0  0  0  0  0  0  0  0
  -28.0908  -28.9967   21.0552 C   0  0  0  0  0  0  0  0  0  0  0  0
  -22.4955   -4.1781   23.6350 C   0  0  0  0  0  0  0  0  0  0  0  0
  -25.1093   -8.8728   20.3341 C   0  0  0  0  0  0  0  0  0  0  0  0
  -27.5920   -8.8890   19.7479 C   0  0  0  0  0  0  0  0  0  0  0  0
  -33.2709  -36.4574   21.8380 C   0  0  0  0  0  0  0  0  0  0  0  0
  -28.7491  -31.0134   19.8893 C   0  0  0  0  0  0  0  0  0  0  0  0
  -32.9146  -35.1138   21.6139 C   0  0  0  0  0  0  0  0  0  0  0  0
  -29.7996  -22.6742   20.6006 C   0  0  0  0  0  0  0  0  0  0  0  0
  -28.0995  -30.3972   20.9684 C   0  0  0  0  0  0  0  0  0  0  0  0
  -29.1836  -24.6658   19.3795 C   0  0  0  0  0  0  0  0  0  0  0  0
  -22.7336   -7.6548   21.1434 C   0  0  0  0  0  0  0  0  0  0  0  0
  -28.7086  -28.2196   20.0757 C   0  0  0  0  0  0  0  0  0  0  0  0
  -28.8971  -21.9295   19.8413 C   0  0  0  0  0  0  0  0  0  0  0  0
  -21.6313   -6.1895   22.6131 C   0  0  0  0  0  0  0  0  0  0  0  0
  -21.7449   -4.4382   24.7816 C   0  0  0  0  0  0  0  0  0  0  0  0
  -22.4388   -5.0539   22.5508 C   0  0  0  0  0  0  0  0  0  0  0  0
  -26.3360   -9.5023   19.9155 C   0  0  0  0  0  0  0  0  0  0  0  0
  -28.4198   -9.9071   19.3420 C   0  0  0  0  0  0  0  0  0  0  0  0
  -27.9761   -7.5213   19.9416 C   0  0  0  0  0  0  0  0  0  0  0  0
  -29.7739  -33.1981   21.9583 C   0  0  0  0  0  0  0  0  0  0  0  0
  -26.6077  -33.5275   22.5821 C   0  0  0  0  0  0  0  0  0  0  0  0
  -23.4866  -32.1480   22.5349 C   0  0  0  0  0  0  0  0  0  0  0  0
  -28.4464  -15.6268   20.1626 C   0  0  0  0  0  0  0  0  0  0  0  0
  -32.7072  -37.2454   22.9939 C   0  0  0  0  0  0  0  0  0  0  0  0
  -28.7532  -32.5117   19.7575 C   0  0  0  0  0  0  0  0  0  0  0  0
  -27.4157  -31.1986   22.0448 C   0  0  0  0  0  0  0  0  0  0  0  0
  -31.4444  -36.6306   23.5919 C   0  0  0  0  0  0  0  0  0  0  0  0
  -28.3726  -14.0795   17.0125 C   0  0  0  0  0  0  0  0  0  0  0  0
  -29.9230  -21.2493   22.7519 C   0  0  0  0  0  0  0  0  0  0  0  0
  -30.5622  -22.5654   23.0674 C   0  0  0  0  0  0  0  0  0  0  0  0
  -31.6290  -35.1312   23.8031 C   0  0  0  0  0  0  0  0  0  0  0  0
  -27.9606  -12.6552   17.3837 C   0  0  0  0  0  0  0  0  0  0  0  0
  -30.1822  -18.7883   19.3028 C   0  0  0  0  0  0  0  0  0  0  0  0
  -27.7668  -18.9457   18.5605 C   0  0  0  0  0  0  0  0  0  0  0  0
  -27.6085  -15.1269   17.8242 C   0  0  0  0  0  0  0  0  0  0  0  0
  -29.7806  -17.6972   20.2941 C   0  0  0  0  0  0  0  0  0  0  0  0
  -27.4202  -17.8544   19.5708 C   0  0  0  0  0  0  0  0  0  0  0  0
  -27.2748  -13.5030   19.6594 C   0  0  0  0  0  0  0  0  0  0  0  0
  -30.6194  -22.0229   21.6639 C   0  0  0  0  0  0  0  0  0  0  0  0
  -31.8832  -34.4138   22.4719 C   0  0  1  0  0  0  0  0  0  0  0  0
  -28.5491  -33.2291   21.0884 C   0  0  1  0  0  0  0  0  0  0  0  0
  -28.0680  -12.4267   18.9019 C   0  0  1  0  0  0  0  0  0  0  0  0
  -29.0238  -19.7235   18.9539 C   0  0  0  0  0  0  0  0  0  0  0  0
  -21.1035  -32.6455   23.1440 C   0  0  0  0  0  0  0  0  0  0  0  0
  -27.2686  -33.0765   25.5265 C   0  0  0  0  0  0  0  0  0  0  0  0
  -24.8374  -32.6384   25.9332 C   0  0  0  0  0  0  0  0  0  0  0  0
  -25.5784  -34.8696   25.0996 C   0  0  0  0  0  0  0  0  0  0  0  0
  -22.5867  -31.8533   19.7309 C   0  0  0  0  0  0  0  0  0  0  0  0
  -29.3371  -26.1286   19.1330 C   0  0  0  0  0  0  0  0  0  1  0  0
  -25.6336  -32.8822   23.5379 C   0  0  1  0  0  0  0  0  0  0  0  0
  -22.1544  -32.6868   22.0455 C   0  0  2  0  0  0  0  0  0  0  0  0
  -25.8440  -33.3513   25.0052 C   0  0  0  0  0  0  0  0  0  0  0  0
  -26.3591  -10.8088   19.6389 N   0  0  0  0  0  0  0  0  0  0  0  0
  -27.6397  -11.0249   19.2935 N   0  0  0  0  0  0  0  0  0  0  0  0
  -27.4524  -32.6605   21.8746 N   0  0  0  0  0  0  0  0  0  0  0  0
  -27.7073  -14.8445   19.2624 N   0  0  0  0  0  0  0  0  0  0  0  0
  -28.5746  -16.9930   19.8599 N   0  0  0  0  0  0  0  0  0  0  0  0
  -29.7316   -9.9464   19.0257 N   0  0  0  0  0  0  0  0  0  0  0  0
  -27.0007   -6.6063   20.3606 N   0  0  0  0  0  0  0  0  0  0  0  0
  -30.6444  -34.2492   21.7419 N   0  0  0  0  0  0  0  0  0  0  0  0
  -24.3015  -33.1543   23.0087 N   0  0  0  0  0  0  0  0  0  0  0  0
  -21.6616  -31.8807   20.8930 N   0  3  0  0  0  0  0  0  0  0  0  0
  -29.1533   -7.1257   19.7647 O   0  0  0  0  0  0  0  0  0  0  0  0
  -29.9177  -32.2887   22.7670 O   0  0  0  0  0  0  0  0  0  0  0  0
  -26.6139  -34.7552   22.4622 O   0  0  0  0  0  0  0  0  0  0  0  0
  -23.7740  -30.9534   22.5037 O   0  0  0  0  0  0  0  0  0  0  0  0
  -28.9642  -15.1365   21.1738 O   0  0  0  0  0  0  0  0  0  0  0  0
  -21.5745   -7.0603   21.5378 O   0  0  0  0  0  0  0  0  0  0  0  0
  -28.7419  -20.5851   20.0546 O   0  0  0  0  0  0  0  0  0  0  0  0
  -28.6908  -26.8529   20.1726 O   0  0  0  0  0  0  0  0  0  1  0  0
  -21.8004   -3.5982   25.8234 F   0  0  0  0  0  0  0  0  0  0  0  0
  -23.1631   -4.7994   21.4524 F   0  0  0  0  0  0  0  0  0  0  0  0
  1  2  1  0  0  0  0
  1  5  2  0  0  0  0
  2  6  2  0  0  0  0
  3  9  2  0  0  0  0
  3 18  1  0  0  0  0
  4 10  1  0  0  0  0
  4 18  2  0  0  0  0
  5 20  1  0  0  0  0
  6 22  1  0  0  0  0
  7 11  2  0  0  0  0
  7 21  1  0  0  0  0
  8 12  2  0  0  0  0
  8 25  1  0  0  0  0
  9 26  1  0  0  0  0
 10 26  2  0  0  0  0
 11 27  1  0  0  0  0
 12 28  1  0  0  0  0
 13 14  2  0  0  0  0
 13 29  1  0  0  0  0
 14 30  1  0  0  0  0
 15 23  1  0  0  0  0
 15 25  2  0  0  0  0
 16 24  1  0  0  0  0
 16 27  2  0  0  0  0
 17 30  2  0  0  0  0
 17 31  1  0  0  0  0
 18 32  1  0  0  0  0
 19 32  1  0  0  0  0
 19 33  2  0  0  0  0
 19 34  1  0  0  0  0
 20 22  2  0  0  0  0
 20 39  1  0  0  0  0
 21 24  2  0  0  0  0
 21 40  1  0  0  0  0
 22 55  1  0  0  0  0
 23 28  2  0  0  0  0
 23 54  1  0  0  0  0
 24 41  1  0  0  0  0
 25 64  1  0  0  0  0
 26 83  1  0  0  0  0
 27 85  1  0  0  0  0
 28 84  1  0  0  0  0
 29 31  2  0  0  0  0
 29 83  1  0  0  0  0
 30 86  1  0  0  0  0
 31 87  1  0  0  0  0
 32 68  2  0  0  0  0
 33 69  1  0  0  0  0
 33 73  1  0  0  0  0
 34 74  1  0  0  0  0
 34 78  2  0  0  0  0
 35 56  1  0  0  0  0
 35 75  1  0  0  0  0
 35 79  2  0  0  0  0
 36 65  1  0  0  0  0
 36 70  1  0  0  0  0
 36 80  2  0  0  0  0
 37 66  1  0  0  0  0
 37 76  1  0  0  0  0
 37 81  2  0  0  0  0
 38 71  1  0  0  0  0
 38 72  1  0  0  0  0
 38 82  2  0  0  0  0
 39 42  1  0  0  0  0
 40 56  1  0  0  0  0
 41 70  1  0  0  0  0
 42 46  1  0  0  0  0
 43 47  1  0  0  0  0
 43 50  1  0  0  0  0
 44 45  1  0  0  0  0
 44 54  1  0  0  0  0
 45 54  1  0  0  0  0
 46 55  1  0  0  0  0
 47 57  1  0  0  0  0
 48 51  1  0  0  0  0
 48 58  1  0  0  0  0
 49 52  1  0  0  0  0
 49 58  1  0  0  0  0
 50 71  1  0  0  0  0
 51 72  1  0  0  0  0
 52 72  1  0  0  0  0
 53 57  1  0  0  0  0
 53 71  1  0  0  0  0
 55 75  1  0  0  0  0
 56 70  1  0  0  0  0
 57 69  1  0  0  0  0
 58 84  1  0  0  0  0
 59 66  1  0  0  0  0
 60 67  1  0  0  0  0
 61 67  1  0  0  0  0
 62 67  1  0  0  0  0
 63 77  1  0  0  0  0
 64 85  1  0  0  0  0
 65 67  1  0  0  0  0
 65 76  1  0  0  0  0
 66 77  1  0  0  0  0
 68 69  1  0  0  0  0
M  CHG  1  77   1
M  ISO  4  38 100  64 101  72 100  85 101
M  END
> <Batch ID>
0147

> <Smiles>
CNC(C)C(=O)NC(C(=O)N1Cc2cc([101O:1][101CH2:1]c3ccc(OC4CC[100N:0]([100C:0](=O)N5CCCC(n6nc(-c7ccc(Oc8ccc(F)cc8F)cc7)c(C(N)=O)c6N)C5)CC4)c(C4CC4)c3)ccc2CC1C(=O)NC1CCCc2ccccc21)C(C)(C)C

> <Shape>
0.254

> <Color>
0.098

> <Negative vol penalty>
0.000

$$$$

  -OEChem-04052321333D

 87 96  0     1  0  0  0  0  0999 V2000
  -30.0568  -32.3446   25.2561 C   0  0  0  0  0  0  0  0  0  0  0  0
  -29.8972  -31.2004   24.4810 C   0  0  0  0  0  0  0  0  0  0  0  0
  -23.1621   -9.8152   19.9488 C   0  0  0  0  0  0  0  0  0  0  0  0
  -23.7809   -9.9738   22.2788 C   0  0  0  0  0  0  0  0  0  0  0  0
  -29.0219  -32.7724   26.0867 C   0  0  0  0  0  0  0  0  0  0  0  0
  -28.7030  -30.4827   24.5369 C   0  0  0  0  0  0  0  0  0  0  0  0
  -27.0251  -29.1428   19.9506 C   0  0  0  0  0  0  0  0  0  0  0  0
  -29.2170  -19.6187   22.2574 C   0  0  0  0  0  0  0  0  0  0  0  0
  -29.1062  -18.2294   22.3136 C   0  0  0  0  0  0  0  0  0  0  0  0
  -22.4533   -8.6441   20.2167 C   0  0  0  0  0  0  0  0  0  0  0  0
  -23.0721   -8.8027   22.5468 C   0  0  0  0  0  0  0  0  0  0  0  0
  -27.6434  -28.0526   19.3399 C   0  0  0  0  0  0  0  0  0  0  0  0
  -23.5349   -5.4729   22.1869 C   0  0  0  0  0  0  0  0  0  0  0  0
  -24.1482   -4.5144   22.9936 C   0  0  0  0  0  0  0  0  0  0  0  0
  -25.8085  -26.6405   20.0169 C   0  0  0  0  0  0  0  0  0  0  0  0
  -30.8493  -18.0232   20.6533 C   0  0  0  0  0  0  0  0  0  0  0  0
  -22.3409   -4.6986   24.5864 C   0  0  0  0  0  0  0  0  0  0  0  0
  -23.8259  -10.4800   20.9799 C   0  0  0  0  0  0  0  0  0  0  0  0
  -24.0685  -13.0085   20.7442 C   0  0  0  0  0  0  0  0  0  0  0  0
  -27.8108  -32.0649   26.1456 C   0  0  0  0  0  0  0  0  0  0  0  0
  -25.7971  -28.9874   20.6096 C   0  0  0  0  0  0  0  0  0  0  0  0
  -27.6515  -30.9006   25.3701 C   0  0  0  0  0  0  0  0  0  0  0  0
  -25.1755  -27.7308   20.6330 C   0  0  0  0  0  0  0  0  0  0  0  0
  -30.1439  -20.2103   21.3991 C   0  0  0  0  0  0  0  0  0  0  0  0
  -30.9600  -19.4126   20.5971 C   0  0  0  0  0  0  0  0  0  0  0  0
  -29.9224  -17.4316   21.5116 C   0  0  0  0  0  0  0  0  0  0  0  0
  -22.4083   -8.1378   21.5157 C   0  0  0  0  0  0  0  0  0  0  0  0
  -27.0365  -26.8006   19.3755 C   0  0  0  0  0  0  0  0  0  0  0  0
  -22.3246   -6.0443   22.5799 C   0  0  0  0  0  0  0  0  0  0  0  0
  -23.5512   -4.1272   24.1933 C   0  0  0  0  0  0  0  0  0  0  0  0
  -21.7276   -5.6571   23.7797 C   0  0  0  0  0  0  0  0  0  0  0  0
  -24.5587  -11.6895   20.7036 C   0  0  0  0  0  0  0  0  0  0  0  0
  -25.1483  -13.7867   20.4053 C   0  0  0  0  0  0  0  0  0  0  0  0
  -22.7545  -13.4875   21.0601 C   0  0  0  0  0  0  0  0  0  0  0  0
  -24.7940  -29.3637   23.6023 C   0  0  0  0  0  0  0  0  0  0  0  0
  -21.8879  -28.7659   22.2909 C   0  0  0  0  0  0  0  0  0  0  0  0
  -20.0872  -27.3600   19.7556 C   0  0  0  0  0  0  0  0  0  0  0  0
  -30.5454  -15.0845   20.8414 C   0  0  0  0  0  0  0  0  0  0  0  0
  -26.7383  -32.5393   27.0940 C   0  0  0  0  0  0  0  0  0  0  0  0
  -25.1302  -30.1790   21.2404 C   0  0  0  0  0  0  0  0  0  0  0  0
  -23.8474  -27.5155   21.3100 C   0  0  0  0  0  0  0  0  0  0  0  0
  -25.3656  -31.9333   26.8135 C   0  0  0  0  0  0  0  0  0  0  0  0
  -29.6782  -12.5049   18.5456 C   0  0  0  0  0  0  0  0  0  0  0  0
  -25.4807  -30.4275   26.5987 C   0  0  0  0  0  0  0  0  0  0  0  0
  -28.2286  -12.1713   18.9057 C   0  0  0  0  0  0  0  0  0  0  0  0
  -30.5086  -12.8359   19.7844 C   0  0  0  0  0  0  0  0  0  0  0  0
  -28.4929  -13.5437   21.0113 C   0  0  0  0  0  0  0  0  0  0  0  0
  -28.5381  -22.1281   19.6500 C   0  0  0  0  0  0  0  0  0  0  0  0
  -26.3618  -30.1091   25.3847 C   0  0  1  0  0  0  0  0  0  0  0  0
  -24.1291  -29.7979   22.3267 C   0  0  1  0  0  0  0  0  0  0  0  0
  -28.6002  -23.5680   19.0954 C   0  0  2  0  0  0  0  0  0  0  0  0
  -27.6012  -13.2668   19.7899 C   0  0  2  0  0  0  0  0  0  0  0  0
  -29.8085  -23.7440   20.0523 C   0  0  2  0  0  0  0  0  0  0  0  0
  -31.9609  -20.0238   19.6723 C   0  0  0  0  0  0  0  0  0  0  0  0
  -17.7283  -27.0014   18.9782 C   0  0  0  0  0  0  0  0  0  0  0  0
  -30.6478  -25.8775   19.0289 C   0  0  0  0  0  0  0  0  0  0  0  0
  -32.1411  -24.5361   20.5369 C   0  0  0  0  0  0  0  0  0  0  0  0
  -21.5352  -26.5713   24.3813 C   0  0  0  0  0  0  0  0  0  0  0  0
  -19.6623  -25.6511   22.9979 C   0  0  0  0  0  0  0  0  0  0  0  0
  -19.4902  -27.9471   23.9579 C   0  0  0  0  0  0  0  0  0  0  0  0
  -20.5557  -28.8799   17.2597 C   0  0  0  0  0  0  0  0  0  0  0  0
  -30.2441  -21.7066   21.3556 C   0  0  0  0  0  0  0  0  0  0  0  0
  -27.3928  -24.4493   19.3500 C   0  0  0  0  0  0  0  0  0  1  0  0
  -21.0683  -27.5256   22.0281 C   0  0  1  0  0  0  0  0  0  0  0  0
  -18.9519  -27.9015   18.9058 C   0  0  2  0  0  0  0  0  0  0  0  0
  -31.0192  -24.4680   19.4974 C   0  0  0  0  0  0  0  0  0  0  0  0
  -20.4650  -26.9271   23.3302 C   0  0  0  0  0  0  0  0  0  0  0  0
  -25.8494  -11.6293   20.3654 N   0  0  0  0  0  0  0  0  0  0  0  0
  -26.1794  -12.9202   20.1904 N   0  0  0  0  0  0  0  0  0  0  0  0
  -23.2383  -28.7101   21.9178 N   0  0  0  0  0  0  0  0  0  0  0  0
  -29.8549  -13.8841   20.5710 N   0  0  0  0  0  0  0  0  0  0  0  0
  -25.3068  -15.1208   20.2732 N   0  0  0  0  0  0  0  0  0  0  0  0
  -21.7629  -12.5522   21.3864 N   0  0  0  0  0  0  0  0  0  0  0  0
  -29.8116  -16.0202   21.5698 N   0  0  0  0  0  0  0  0  0  0  0  0
  -25.6251  -30.3183   24.1568 N   0  0  0  0  0  0  0  0  0  0  0  0
  -20.0758  -27.8971   21.0255 N   0  0  0  0  0  0  0  0  0  0  0  0
  -29.9638  -22.2679   20.0151 N   0  3  1  0  0  0  0  0  0  0  0  0
  -19.3754  -28.0051   17.4807 N   0  3  0  0  0  0  0  0  0  0  0  0
  -22.4639  -14.7075   21.0373 O   0  0  0  0  0  0  0  0  0  0  0  0
  -24.5685  -28.2459   24.0510 O   0  0  0  0  0  0  0  0  0  0  0  0
  -21.3481  -29.7504   22.8017 O   0  0  0  0  0  0  0  0  0  0  0  0
  -20.9005  -26.5395   19.3361 O   0  0  0  0  0  0  0  0  0  0  0  0
  -31.6926  -15.2796   20.4319 O   0  0  0  0  0  0  0  0  0  0  0  0
  -21.7166   -6.9952   21.7776 O   0  0  0  0  0  0  0  0  0  0  0  0
  -27.6381  -25.7347   18.7807 O   0  0  0  0  0  0  0  0  0  1  0  0
  -24.1395   -3.2057   24.9671 F   0  0  0  0  0  0  0  0  0  0  0  0
  -20.5644   -6.2017   24.1620 F   0  0  0  0  0  0  0  0  0  0  0  0
  1  2  1  0  0  0  0
  1  5  2  0  0  0  0
  2  6  2  0  0  0  0
  3 10  2  0  0  0  0
  3 18  1  0  0  0  0
  4 11  1  0  0  0  0
  4 18  2  0  0  0  0
  5 20  1  0  0  0  0
  6 22  1  0  0  0  0
  7 12  2  0  0  0  0
  7 21  1  0  0  0  0
  8  9  2  0  0  0  0
  8 24  1  0  0  0  0
  9 26  1  0  0  0  0
 10 27  1  0  0  0  0
 11 27  2  0  0  0  0
 12 28  1  0  0  0  0
 13 14  2  0  0  0  0
 13 29  1  0  0  0  0
 14 30  1  0  0  0  0
 15 23  1  0  0  0  0
 15 28  2  0  0  0  0
 16 25  1  0  0  0  0
 16 26  2  0  0  0  0
 17 30  2  0  0  0  0
 17 31  1  0  0  0  0
 18 32  1  0  0  0  0
 19 32  1  0  0  0  0
 19 33  2  0  0  0  0
 19 34  1  0  0  0  0
 20 22  2  0  0  0  0
 20 39  1  0  0  0  0
 21 23  2  0  0  0  0
 21 40  1  0  0  0  0
 22 49  1  0  0  0  0
 23 41  1  0  0  0  0
 24 25  2  0  0  0  0
 24 62  1  0  0  0  0
 25 54  1  0  0  0  0
 26 74  1  0  0  0  0
 27 84  1  0  0  0  0
 28 85  1  0  0  0  0
 29 31  2  0  0  0  0
 29 84  1  0  0  0  0
 30 86  1  0  0  0  0
 31 87  1  0  0  0  0
 32 68  2  0  0  0  0
 33 69  1  0  0  0  0
 33 72  1  0  0  0  0
 34 73  1  0  0  0  0
 34 79  2  0  0  0  0
 35 50  1  0  0  0  0
 35 75  1  0  0  0  0
 35 80  2  0  0  0  0
 36 64  1  0  0  0  0
 36 70  1  0  0  0  0
 36 81  2  0  0  0  0
 37 65  1  0  0  0  0
 37 76  1  0  0  0  0
 37 82  2  0  0  0  0
 38 71  1  0  0  0  0
 38 74  1  0  0  0  0
 38 83  2  0  0  0  0
 39 42  1  0  0  0  0
 40 50  1  0  0  0  0
 41 70  1  0  0  0  0
 42 44  1  0  0  0  0
 43 45  1  0  0  0  0
 43 46  1  0  0  0  0
 44 49  1  0  0  0  0
 45 52  1  0  0  0  0
 46 71  1  0  0  0  0
 47 52  1  0  0  0  0
 47 71  1  0  0  0  0
 48 51  1  0  0  0  0
 48 77  1  0  0  0  0
 49 75  1  0  0  0  0
 50 70  1  0  0  0  0
 51 53  1  0  0  0  0
 51 63  1  0  0  0  0
 52 69  1  0  0  0  0
 53 66  1  0  0  0  0
 53 77  1  0  0  0  0
 55 65  1  0  0  0  0
 56 66  1  0  0  0  0
 57 66  1  0  0  0  0
 58 67  1  0  0  0  0
 59 67  1  0  0  0  0
 60 67  1  0  0  0  0
 61 78  1  0  0  0  0
 62 77  1  0  0  0  0
 63 85  1  0  0  0  0
 64 67  1  0  0  0  0
 64 76  1  0  0  0  0
 65 78  1  0  0  0  0
 68 69  1  0  0  0  0
M  CHG  2  77   1  78   1
M  ISO  4  38 100  63 101  74 100  85 101
M  END
> <Batch ID>
0147

> <Smiles>
CNC(C)C(=O)NC(C(=O)N1Cc2cc([101O:1][101CH2:1]C3CN(Cc4ccc([100NH:0][100C:0](=O)N5CCCC(n6nc(-c7ccc(Oc8ccc(F)cc8F)cc7)c(C(N)=O)c6N)C5)cc4C)C3C(C)C)ccc2CC1C(=O)NC1CCCc2ccccc21)C(C)(C)C

> <Shape>
0.410

> <Color>
0.206

> <Negative vol penalty>
0.000

$$$$

  -OEChem-04052321333D

 88 98  0     1  0  0  0  0  0999 V2000
  -36.6725    3.4606   25.3506 C   0  0  0  0  0  0  0  0  0  0  0  0
  -35.2854    3.5384   25.4223 C   0  0  0  0  0  0  0  0  0  0  0  0
  -22.8569  -10.0580   20.0435 C   0  0  0  0  0  0  0  0  0  0  0  0
  -24.2931   -9.4523   21.8894 C   0  0  0  0  0  0  0  0  0  0  0  0
  -37.3831    2.7766   26.3361 C   0  0  0  0  0  0  0  0  0  0  0  0
  -34.6080    2.9331   26.4803 C   0  0  0  0  0  0  0  0  0  0  0  0
  -30.1968  -10.0093   27.3108 C   0  0  0  0  0  0  0  0  0  0  0  0
  -29.6125   -2.1164   25.2804 C   0  0  0  0  0  0  0  0  0  0  0  0
  -29.9090   -9.8984   28.6711 C   0  0  0  0  0  0  0  0  0  0  0  0
  -22.1565   -8.8614   20.1957 C   0  0  0  0  0  0  0  0  0  0  0  0
  -23.5927   -8.2557   22.0417 C   0  0  0  0  0  0  0  0  0  0  0  0
  -28.4957   -2.9375   25.1238 C   0  0  0  0  0  0  0  0  0  0  0  0
  -20.6697   -7.2376   23.3983 C   0  0  0  0  0  0  0  0  0  0  0  0
  -20.3148   -6.8563   24.6922 C   0  0  0  0  0  0  0  0  0  0  0  0
  -28.3047   -3.1538   27.5248 C   0  0  0  0  0  0  0  0  0  0  0  0
  -28.2579   -8.2033   28.1836 C   0  0  0  0  0  0  0  0  0  0  0  0
  -21.5985   -4.8244   24.4454 C   0  0  0  0  0  0  0  0  0  0  0  0
  -23.9253  -10.3535   20.8903 C   0  0  0  0  0  0  0  0  0  0  0  0
  -24.1332  -12.8953   20.8295 C   0  0  0  0  0  0  0  0  0  0  0  0
  -36.7133    2.1544   27.4014 C   0  0  0  0  0  0  0  0  0  0  0  0
  -30.0895   -1.8230   26.5610 C   0  0  0  0  0  0  0  0  0  0  0  0
  -35.3103    2.2412   27.4816 C   0  0  0  0  0  0  0  0  0  0  0  0
  -29.5151   -9.2172   26.3869 C   0  0  0  0  0  0  0  0  0  0  0  0
  -29.4304   -2.3420   27.6875 C   0  0  0  0  0  0  0  0  0  0  0  0
  -28.9396   -8.9954   29.1076 C   0  0  0  0  0  0  0  0  0  0  0  0
  -22.5244   -7.9603   21.1948 C   0  0  0  0  0  0  0  0  0  0  0  0
  -27.8433   -3.4547   26.2433 C   0  0  0  0  0  0  0  0  0  0  0  0
  -21.4889   -6.4123   22.6279 C   0  0  0  0  0  0  0  0  0  0  0  0
  -28.5457   -8.3142   26.8233 C   0  0  0  0  0  0  0  0  0  0  0  0
  -20.7792   -5.6497   25.2158 C   0  0  0  0  0  0  0  0  0  0  0  0
  -21.9533   -5.2057   23.1515 C   0  0  0  0  0  0  0  0  0  0  0  0
  -24.6495  -11.5891   20.7332 C   0  0  0  0  0  0  0  0  0  0  0  0
  -25.2154  -13.7099   20.6023 C   0  0  0  0  0  0  0  0  0  0  0  0
  -22.7950  -13.3330   21.1002 C   0  0  0  0  0  0  0  0  0  0  0  0
  -31.1211  -12.8064   21.2851 C   0  0  0  0  0  0  0  0  0  0  0  0
  -32.6577   -0.0526   28.6456 C   0  0  0  0  0  0  0  0  0  0  0  0
  -32.1899   -2.7919   29.9447 C   0  0  0  0  0  0  0  0  0  0  0  0
  -31.6969   -6.0520   30.8199 C   0  0  0  0  0  0  0  0  0  0  0  0
  -37.5278    1.4667   28.4684 C   0  0  0  0  0  0  0  0  0  0  0  0
  -31.2521   -0.8931   26.7790 C   0  0  0  0  0  0  0  0  0  0  0  0
  -29.9581   -1.9714   29.0466 C   0  0  0  0  0  0  0  0  0  0  0  0
  -36.7069    0.5335   29.3547 C   0  0  0  0  0  0  0  0  0  0  0  0
  -29.4031  -13.8344   18.3062 C   0  0  0  0  0  0  0  0  0  0  0  0
  -35.4196    1.2184   29.8027 C   0  0  0  0  0  0  0  0  0  0  0  0
  -27.9470  -13.4652   18.5875 C   0  0  0  0  0  0  0  0  0  0  0  0
  -31.8615  -12.2209   23.6962 C   0  0  0  0  0  0  0  0  0  0  0  0
  -30.3647  -12.8268   18.9283 C   0  0  0  0  0  0  0  0  0  0  0  0
  -28.7115  -12.2591   20.6820 C   0  0  0  0  0  0  0  0  0  0  0  0
  -29.8341   -9.3492   24.9349 C   0  0  2  0  0  0  0  0  0  0  0  0
  -34.5379    1.5765   28.6003 C   0  0  1  0  0  0  0  0  0  0  0  0
  -30.7802  -12.6116   22.7272 C   0  0  2  0  0  0  0  0  0  0  0  0
  -32.1238   -1.2890   27.9842 C   0  0  1  0  0  0  0  0  0  0  0  0
  -30.8076  -11.2155   23.3111 C   0  0  2  0  0  0  0  0  0  0  0  0
  -29.7512  -10.7199   24.2873 C   0  0  1  0  0  0  0  0  0  0  0  0
  -28.7200   -9.6663   23.9682 C   0  0  1  0  0  0  0  0  0  0  0  0
  -27.7084  -13.2678   20.0951 C   0  0  2  0  0  0  0  0  0  0  0  0
  -28.6320   -8.8772   30.5619 C   0  0  0  0  0  0  0  0  0  0  0  0
  -28.6737   -8.9897   22.6413 C   0  0  0  0  0  0  0  0  0  0  0  0
  -32.4017   -7.7653   32.5126 C   0  0  0  0  0  0  0  0  0  0  0  0
  -30.3876   -1.4745   32.0232 C   0  0  0  0  0  0  0  0  0  0  0  0
  -30.3703   -3.6410   33.2778 C   0  0  0  0  0  0  0  0  0  0  0  0
  -32.5168   -2.4171   32.9355 C   0  0  0  0  0  0  0  0  0  0  0  0
  -32.8399   -7.8124   28.7334 C   0  0  0  0  0  0  0  0  0  0  0  0
  -25.9215   -6.3294   25.1665 C   0  0  0  0  0  0  0  0  0  0  0  0
  -26.7072   -5.0551   24.8995 C   0  0  0  0  0  0  0  0  0  1  0  0
  -26.5402   -7.1558   26.2830 C   0  0  0  0  0  0  0  0  0  0  0  0
  -31.4328   -3.5902   30.9757 C   0  0  1  0  0  0  0  0  0  0  0  0
  -32.6747   -7.1679   31.1409 C   0  0  2  0  0  0  0  0  0  0  0  0
  -31.1684   -2.7796   32.2759 C   0  0  0  0  0  0  0  0  0  0  0  0
  -25.9579  -11.5703   20.4656 N   0  0  0  0  0  0  0  0  0  0  0  0
  -26.2729  -12.8747   20.3916 N   0  0  0  0  0  0  0  0  0  0  0  0
  -30.0898  -12.6464   20.3541 N   0  0  0  0  0  0  0  0  0  0  0  0
  -31.4282   -2.0323   29.0485 N   0  0  0  0  0  0  0  0  0  0  0  0
  -25.3561  -15.0520   20.5641 N   0  0  0  0  0  0  0  0  0  0  0  0
  -22.4183  -13.5457   22.4333 N   0  0  0  0  0  0  0  0  0  0  0  0
  -33.8484    0.4017   28.1115 N   0  0  0  0  0  0  0  0  0  0  0  0
  -32.1941   -4.8177   31.1812 N   0  0  0  0  0  0  0  0  0  0  0  0
  -32.5719   -8.2545   30.1262 N   0  3  0  0  0  0  0  0  0  0  0  0
  -21.9531  -13.5140   20.1880 O   0  0  0  0  0  0  0  0  0  0  0  0
  -32.2810  -13.0957   21.0029 O   0  0  0  0  0  0  0  0  0  0  0  0
  -32.0368    0.4523   29.5737 O   0  0  0  0  0  0  0  0  0  0  0  0
  -33.4234   -2.8343   29.9356 O   0  0  0  0  0  0  0  0  0  0  0  0
  -30.6001   -6.2553   30.3039 O   0  0  0  0  0  0  0  0  0  0  0  0
  -21.8410   -6.7926   21.3437 O   0  0  0  0  0  0  0  0  0  0  0  0
  -26.7563   -4.2594   26.0831 O   0  0  0  0  0  0  0  0  0  1  0  0
  -27.8660   -7.5271   25.9305 O   0  0  0  0  0  0  0  0  0  0  0  0
  -20.4396   -5.2844   26.4589 F   0  0  0  0  0  0  0  0  0  0  0  0
  -22.7416   -4.4092   22.4166 F   0  0  0  0  0  0  0  0  0  0  0  0
  1  2  1  0  0  0  0
  1  5  2  0  0  0  0
  2  6  2  0  0  0  0
  3 10  2  0  0  0  0
  3 18  1  0  0  0  0
  4 11  1  0  0  0  0
  4 18  2  0  0  0  0
  5 20  1  0  0  0  0
  6 22  1  0  0  0  0
  7  9  2  0  0  0  0
  7 23  1  0  0  0  0
  8 12  2  0  0  0  0
  8 21  1  0  0  0  0
  9 25  1  0  0  0  0
 10 26  1  0  0  0  0
 11 26  2  0  0  0  0
 12 27  1  0  0  0  0
 13 14  2  0  0  0  0
 13 28  1  0  0  0  0
 14 30  1  0  0  0  0
 15 24  1  0  0  0  0
 15 27  2  0  0  0  0
 16 25  2  0  0  0  0
 16 29  1  0  0  0  0
 17 30  2  0  0  0  0
 17 31  1  0  0  0  0
 18 32  1  0  0  0  0
 19 32  1  0  0  0  0
 19 33  2  0  0  0  0
 19 34  1  0  0  0  0
 20 22  2  0  0  0  0
 20 39  1  0  0  0  0
 21 24  2  0  0  0  0
 21 40  1  0  0  0  0
 22 50  1  0  0  0  0
 23 29  2  0  0  0  0
 23 49  1  0  0  0  0
 24 41  1  0  0  0  0
 25 57  1  0  0  0  0
 26 84  1  0  0  0  0
 27 85  1  0  0  0  0
 28 31  2  0  0  0  0
 28 84  1  0  0  0  0
 29 86  1  0  0  0  0
 30 87  1  0  0  0  0
 31 88  1  0  0  0  0
 32 70  2  0  0  0  0
 33 71  1  0  0  0  0
 33 74  1  0  0  0  0
 34 75  1  0  0  0  0
 34 79  2  0  0  0  0
 35 51  1  0  0  0  0
 35 72  1  0  0  0  0
 35 80  2  0  0  0  0
 36 52  1  0  0  0  0
 36 76  1  0  0  0  0
 36 81  2  0  0  0  0
 37 67  1  0  0  0  0
 37 73  1  0  0  0  0
 37 82  2  0  0  0  0
 38 68  1  0  0  0  0
 38 77  1  0  0  0  0
 38 83  2  0  0  0  0
 39 42  1  0  0  0  0
 40 52  1  0  0  0  0
 41 73  1  0  0  0  0
 42 44  1  0  0  0  0
 43 45  1  0  0  0  0
 43 47  1  0  0  0  0
 44 50  1  0  0  0  0
 45 56  1  0  0  0  0
 46 51  1  0  0  0  0
 46 53  1  0  0  0  0
 47 72  1  0  0  0  0
 48 56  1  0  0  0  0
 48 72  1  0  0  0  0
 49 54  1  0  0  0  0
 49 55  1  0  0  0  0
 50 76  1  0  0  0  0
 51 53  1  0  0  0  0
 52 73  1  0  0  0  0
 53 54  1  0  0  0  0
 54 55  1  0  0  0  0
 55 58  1  0  0  0  0
 56 71  1  0  0  0  0
 59 68  1  0  0  0  0
 60 69  1  0  0  0  0
 61 69  1  0  0  0  0
 62 69  1  0  0  0  0
 63 78  1  0  0  0  0
 64 65  1  0  0  0  0
 64 66  1  0  0  0  0
 65 85  1  0  0  0  0
 66 86  1  0  0  0  0
 67 69  1  0  0  0  0
 67 77  1  0  0  0  0
 68 78  1  0  0  0  0
 70 71  1  0  0  0  0
M  CHG  1  78   1
M  ISO  4  35 100  51 100  65 101  85 101
M  END
> <Batch ID>
0147

> <Smiles>
CNC(C)C(=O)NC(C(=O)N1Cc2cc([101O:1][101CH2:1]CCOc3cc(C)ccc3C3C(C)C3C3C[100CH:0]3[100C:0](=O)N3CCCC(n4nc(-c5ccc(Oc6ccc(F)cc6F)cc5)c(C(N)=O)c4N)C3)ccc2CC1C(=O)NC1CCCc2ccccc21)C(C)(C)C

> <Shape>
0.148

> <Color>
0.167

> <Negative vol penalty>
0.000

$$$$

  -OEChem-04052321333D

 89 99  0     1  0  0  0  0  0999 V2000
  -19.2725   -8.2796   28.9641 C   0  0  0  0  0  0  0  0  0  0  0  0
  -20.5148   -8.2497   28.3387 C   0  0  0  0  0  0  0  0  0  0  0  0
  -23.2854   -9.7968   19.9089 C   0  0  0  0  0  0  0  0  0  0  0  0
  -23.7169   -9.9392   22.2818 C   0  0  0  0  0  0  0  0  0  0  0  0
  -18.4342   -9.3807   28.7943 C   0  0  0  0  0  0  0  0  0  0  0  0
  -20.9191   -9.3204   27.5421 C   0  0  0  0  0  0  0  0  0  0  0  0
  -25.7099  -10.7014   28.4291 C   0  0  0  0  0  0  0  0  0  0  0  0
  -22.5526   -8.6275   20.1123 C   0  0  0  0  0  0  0  0  0  0  0  0
  -22.9840   -8.7700   22.4852 C   0  0  0  0  0  0  0  0  0  0  0  0
  -26.7139   -9.9138   27.8675 C   0  0  0  0  0  0  0  0  0  0  0  0
  -23.1884   -5.3514   20.6481 C   0  0  0  0  0  0  0  0  0  0  0  0
  -23.4198   -4.2833   19.7813 C   0  0  0  0  0  0  0  0  0  0  0  0
  -26.9699  -11.5208   26.0867 C   0  0  0  0  0  0  0  0  0  0  0  0
  -35.2583   -9.1526   24.2861 C   0  0  0  0  0  0  0  0  0  0  0  0
  -21.1036   -4.3375   19.0962 C   0  0  0  0  0  0  0  0  0  0  0  0
  -23.8676  -10.4526   20.9936 C   0  0  0  0  0  0  0  0  0  0  0  0
  -24.1390  -12.9812   20.7933 C   0  0  0  0  0  0  0  0  0  0  0  0
  -18.8325  -10.4697   28.0031 C   0  0  0  0  0  0  0  0  0  0  0  0
  -25.3201  -11.9012   27.8168 C   0  0  0  0  0  0  0  0  0  0  0  0
  -20.0848  -10.4365   27.3605 C   0  0  0  0  0  0  0  0  0  0  0  0
  -25.9624  -12.3230   26.6439 C   0  0  0  0  0  0  0  0  0  0  0  0
  -36.2239  -10.7860   22.8083 C   0  0  0  0  0  0  0  0  0  0  0  0
  -36.3540   -9.6369   23.5803 C   0  0  0  0  0  0  0  0  0  0  0  0
  -22.4019   -8.1141   21.4005 C   0  0  0  0  0  0  0  0  0  0  0  0
  -27.3421  -10.3220   26.6945 C   0  0  0  0  0  0  0  0  0  0  0  0
  -21.9146   -5.9125   20.7390 C   0  0  0  0  0  0  0  0  0  0  0  0
  -22.3774   -3.7764   19.0054 C   0  0  0  0  0  0  0  0  0  0  0  0
  -20.8722   -5.4056   19.9631 C   0  0  0  0  0  0  0  0  0  0  0  0
  -24.6253  -11.6602   20.7840 C   0  0  0  0  0  0  0  0  0  0  0  0
  -34.9866  -11.4088   22.7757 C   0  0  0  0  0  0  0  0  0  0  0  0
  -34.0643   -9.8487   24.1876 C   0  0  0  0  0  0  0  0  0  0  0  0
  -25.2457  -13.7563   20.5464 C   0  0  0  0  0  0  0  0  0  0  0  0
  -22.8060  -13.4646   21.0063 C   0  0  0  0  0  0  0  0  0  0  0  0
  -22.6211  -12.9966   26.5444 C   0  0  0  0  0  0  0  0  0  0  0  0
  -24.3101  -15.7559   26.3073 C   0  0  0  0  0  0  0  0  0  0  0  0
  -27.6642  -16.7199   25.3918 C   0  0  0  0  0  0  0  0  0  0  0  0
  -30.9861  -12.8424   21.5364 C   0  0  0  0  0  0  0  0  0  0  0  0
  -17.8724  -11.6169   27.8109 C   0  0  0  0  0  0  0  0  0  0  0  0
  -24.2539  -12.7526   28.4498 C   0  0  0  0  0  0  0  0  0  0  0  0
  -25.5949  -13.6128   25.9585 C   0  0  0  0  0  0  0  0  0  0  0  0
  -18.5316  -12.8759   27.2534 C   0  0  0  0  0  0  0  0  0  0  0  0
  -29.4893  -13.6288   18.3378 C   0  0  0  0  0  0  0  0  0  0  0  0
  -37.2243  -11.5573   20.5548 C   0  0  0  0  0  0  0  0  0  0  0  0
  -38.0929  -10.4463   21.0562 C   0  0  0  0  0  0  0  0  0  0  0  0
  -19.4363  -12.5280   26.0757 C   0  0  0  0  0  0  0  0  0  0  0  0
  -35.3686  -14.0547   22.3827 C   0  0  0  0  0  0  0  0  0  0  0  0
  -28.0138  -13.3352   18.6142 C   0  0  0  0  0  0  0  0  0  0  0  0
  -34.1028  -14.7888   21.9029 C   0  0  0  0  0  0  0  0  0  0  0  0
  -30.3957  -12.6246   19.0442 C   0  0  0  0  0  0  0  0  0  0  0  0
  -28.7046  -12.2328   20.7921 C   0  0  0  0  0  0  0  0  0  0  0  0
  -37.3753  -11.3362   22.0371 C   0  0  0  0  0  0  0  0  0  0  0  0
  -20.5693  -11.5897   26.5087 C   0  0  1  0  0  0  0  0  0  0  0  0
  -34.6844  -12.7249   21.9420 C   0  0  2  0  0  0  0  0  0  0  0  0
  -23.5810  -13.7002   27.4615 C   0  0  1  0  0  0  0  0  0  0  0  0
  -27.7379  -13.2283   20.1255 C   0  0  2  0  0  0  0  0  0  0  0  0
  -33.3324  -13.4768   22.1682 C   0  0  2  0  0  0  0  0  0  0  0  0
  -37.6539   -8.9076   23.6675 C   0  0  0  0  0  0  0  0  0  0  0  0
  -29.0341  -18.7084   26.0748 C   0  0  0  0  0  0  0  0  0  0  0  0
  -23.2212  -17.0194   23.7523 C   0  0  0  0  0  0  0  0  0  0  0  0
  -25.4667  -18.0681   23.3969 C   0  0  0  0  0  0  0  0  0  0  0  0
  -24.1263  -18.6498   25.4187 C   0  0  0  0  0  0  0  0  0  0  0  0
  -29.8795  -15.0092   26.3534 C   0  0  0  0  0  0  0  0  0  0  0  0
  -30.6522   -9.4703   25.5237 C   0  0  0  0  0  0  0  0  0  0  0  0
  -29.3409  -10.2317   25.4090 C   0  0  0  0  0  0  0  0  0  1  0  0
  -31.7696  -10.1406   24.7398 C   0  0  0  0  0  0  0  0  0  0  0  0
  -25.2113  -16.3715   25.2642 C   0  0  1  0  0  0  0  0  0  0  0  0
  -28.7474  -17.2354   26.3219 C   0  0  2  0  0  0  0  0  0  0  0  0
  -24.5038  -17.4990   24.4607 C   0  0  0  0  0  0  0  0  0  0  0  0
  -25.9386  -11.5958   20.5496 N   0  0  0  0  0  0  0  0  0  0  0  0
  -33.8996  -10.9682   23.4478 N   0  0  0  0  0  0  0  0  0  0  0  0
  -26.2870  -12.8862   20.4092 N   0  0  0  0  0  0  0  0  0  0  0  0
  -24.5421  -14.4073   26.6127 N   0  0  0  0  0  0  0  0  0  0  0  0
  -30.0947  -12.5855   20.4826 N   0  0  0  0  0  0  0  0  0  0  0  0
  -25.4200  -15.0903   20.4353 N   0  0  0  0  0  0  0  0  0  0  0  0
  -21.7876  -12.5322   21.2467 N   0  0  0  0  0  0  0  0  0  0  0  0
  -21.6029  -12.3305   27.1994 N   0  0  0  0  0  0  0  0  0  0  0  0
  -26.4141  -16.8035   25.9677 N   0  0  0  0  0  0  0  0  0  0  0  0
  -32.2862  -13.1737   21.1699 N   0  0  0  0  0  0  0  0  0  0  0  0
  -30.0105  -16.4706   26.1203 N   0  3  0  0  0  0  0  0  0  0  0  0
  -22.5234  -14.6861   20.9677 O   0  0  0  0  0  0  0  0  0  0  0  0
  -22.7907  -13.0551   25.3322 O   0  0  0  0  0  0  0  0  0  0  0  0
  -23.4372  -16.4481   26.8369 O   0  0  0  0  0  0  0  0  0  0  0  0
  -27.9026  -16.2897   24.2654 O   0  0  0  0  0  0  0  0  0  0  0  0
  -30.6521  -12.7882   22.7252 O   0  0  0  0  0  0  0  0  0  0  0  0
  -21.6866   -6.9734   21.5994 O   0  0  0  0  0  0  0  0  0  0  0  0
  -28.3220   -9.5549   26.1439 O   0  0  0  0  0  0  0  0  0  1  0  0
  -32.9697   -9.3913   24.8741 O   0  0  0  0  0  0  0  0  0  0  0  0
  -22.6001   -2.7517   18.1719 F   0  0  0  0  0  0  0  0  0  0  0  0
  -19.6466   -5.9413   20.0452 F   0  0  0  0  0  0  0  0  0  0  0  0
  1  2  1  0  0  0  0
  1  5  2  0  0  0  0
  2  6  2  0  0  0  0
  3  8  2  0  0  0  0
  3 16  1  0  0  0  0
  4  9  1  0  0  0  0
  4 16  2  0  0  0  0
  5 18  1  0  0  0  0
  6 20  1  0  0  0  0
  7 10  2  0  0  0  0
  7 19  1  0  0  0  0
  8 24  1  0  0  0  0
  9 24  2  0  0  0  0
 10 25  1  0  0  0  0
 11 12  2  0  0  0  0
 11 26  1  0  0  0  0
 12 27  1  0  0  0  0
 13 21  1  0  0  0  0
 13 25  2  0  0  0  0
 14 23  2  0  0  0  0
 14 31  1  0  0  0  0
 15 27  2  0  0  0  0
 15 28  1  0  0  0  0
 16 29  1  0  0  0  0
 17 29  1  0  0  0  0
 17 32  2  0  0  0  0
 17 33  1  0  0  0  0
 18 20  2  0  0  0  0
 18 38  1  0  0  0  0
 19 21  2  0  0  0  0
 19 39  1  0  0  0  0
 20 52  1  0  0  0  0
 21 40  1  0  0  0  0
 22 23  1  0  0  0  0
 22 30  2  0  0  0  0
 22 51  1  0  0  0  0
 23 57  1  0  0  0  0
 24 85  1  0  0  0  0
 25 86  1  0  0  0  0
 26 28  2  0  0  0  0
 26 85  1  0  0  0  0
 27 88  1  0  0  0  0
 28 89  1  0  0  0  0
 29 69  2  0  0  0  0
 30 53  1  0  0  0  0
 30 70  1  0  0  0  0
 31 70  2  0  0  0  0
 31 87  1  0  0  0  0
 32 71  1  0  0  0  0
 32 74  1  0  0  0  0
 33 75  1  0  0  0  0
 33 80  2  0  0  0  0
 34 54  1  0  0  0  0
 34 76  1  0  0  0  0
 34 81  2  0  0  0  0
 35 66  1  0  0  0  0
 35 72  1  0  0  0  0
 35 82  2  0  0  0  0
 36 67  1  0  0  0  0
 36 77  1  0  0  0  0
 36 83  2  0  0  0  0
 37 73  1  0  0  0  0
 37 78  1  0  0  0  0
 37 84  2  0  0  0  0
 38 41  1  0  0  0  0
 39 54  1  0  0  0  0
 40 72  1  0  0  0  0
 41 45  1  0  0  0  0
 42 47  1  0  0  0  0
 42 49  1  0  0  0  0
 43 44  1  0  0  0  0
 43 51  1  0  0  0  0
 44 51  1  0  0  0  0
 45 52  1  0  0  0  0
 46 48  1  0  0  0  0
 46 53  1  0  0  0  0
 47 55  1  0  0  0  0
 48 56  1  0  0  0  0
 49 73  1  0  0  0  0
 50 55  1  0  0  0  0
 50 73  1  0  0  0  0
 52 76  1  0  0  0  0
 53 56  1  0  0  0  0
 54 72  1  0  0  0  0
 55 71  1  0  0  0  0
 56 78  1  0  0  0  0
 58 67  1  0  0  0  0
 59 68  1  0  0  0  0
 60 68  1  0  0  0  0
 61 68  1  0  0  0  0
 62 79  1  0  0  0  0
 63 64  1  0  0  0  0
 63 65  1  0  0  0  0
 64 86  1  0  0  0  0
 65 87  1  0  0  0  0
 66 68  1  0  0  0  0
 66 77  1  0  0  0  0
 67 79  1  0  0  0  0
 69 71  1  0  0  0  0
M  CHG  1  79   1
M  ISO  4  37 100  64 101  78 100  86 101
M  END
> <Batch ID>
0147

> <Smiles>
CNC(C)C(=O)NC(C(=O)N1Cc2cc([101O:1][101CH2:1]CCOc3cc(C)c(C4CC4)c(C4CCC4[100NH:0][100C:0](=O)N4CCCC(n5nc(-c6ccc(Oc7ccc(F)cc7F)cc6)c(C(N)=O)c5N)C4)n3)ccc2CC1C(=O)NC1CCCc2ccccc21)C(C)(C)C

> <Shape>
0.117

> <Color>
0.170

> <Negative vol penalty>
0.000

$$$$

  -OEChem-04052321333D

 88 98  0     1  0  0  0  0  0999 V2000
  -27.3319  -37.6366   20.6079 C   0  0  0  0  0  0  0  0  0  0  0  0
  -27.9377  -36.3930   20.7556 C   0  0  0  0  0  0  0  0  0  0  0  0
  -24.6759  -10.0438   22.1769 C   0  0  0  0  0  0  0  0  0  0  0  0
  -24.7054  -11.4829   24.1173 C   0  0  0  0  0  0  0  0  0  0  0  0
  -26.0618  -37.8594   21.1381 C   0  0  0  0  0  0  0  0  0  0  0  0
  -27.2741  -35.3717   21.4347 C   0  0  0  0  0  0  0  0  0  0  0  0
  -27.5109  -29.3761   20.2088 C   0  0  0  0  0  0  0  0  0  0  0  0
  -24.3523   -8.9564   22.9883 C   0  0  0  0  0  0  0  0  0  0  0  0
  -24.3818  -10.3955   24.9287 C   0  0  0  0  0  0  0  0  0  0  0  0
  -28.2465  -28.3326   20.7688 C   0  0  0  0  0  0  0  0  0  0  0  0
  -21.5991   -7.7150   24.5087 C   0  0  0  0  0  0  0  0  0  0  0  0
  -20.5871   -6.8596   24.0730 C   0  0  0  0  0  0  0  0  0  0  0  0
  -26.3750  -27.7834   22.1884 C   0  0  0  0  0  0  0  0  0  0  0  0
  -27.2815  -21.8645   20.6672 C   0  0  0  0  0  0  0  0  0  0  0  0
  -29.3449  -21.6561   21.9066 C   0  0  0  0  0  0  0  0  0  0  0  0
  -22.1486   -5.0160   24.0660 C   0  0  0  0  0  0  0  0  0  0  0  0
  -24.8525  -11.3071   22.7414 C   0  0  0  0  0  0  0  0  0  0  0  0
  -24.2936  -13.3109   21.2649 C   0  0  0  0  0  0  0  0  0  0  0  0
  -25.3783  -36.8374   21.8155 C   0  0  0  0  0  0  0  0  0  0  0  0
  -26.2035  -29.6384   20.6428 C   0  0  0  0  0  0  0  0  0  0  0  0
  -25.9942  -35.5814   21.9756 C   0  0  0  0  0  0  0  0  0  0  0  0
  -25.6240  -28.8292   21.6304 C   0  0  0  0  0  0  0  0  0  0  0  0
  -27.3210  -20.5018   20.3723 C   0  0  0  0  0  0  0  0  0  0  0  0
  -28.3724  -19.7162   20.8446 C   0  0  0  0  0  0  0  0  0  0  0  0
  -24.2052   -9.1322   24.3642 C   0  0  0  0  0  0  0  0  0  0  0  0
  -27.6796  -27.5378   21.7608 C   0  0  0  0  0  0  0  0  0  0  0  0
  -22.8858   -7.2210   24.7229 C   0  0  0  0  0  0  0  0  0  0  0  0
  -28.2936  -22.4417   21.4343 C   0  0  0  0  0  0  0  0  0  0  0  0
  -29.3844  -20.2933   21.6117 C   0  0  0  0  0  0  0  0  0  0  0  0
  -20.8619   -5.5101   23.8517 C   0  0  0  0  0  0  0  0  0  0  0  0
  -23.1606   -5.8715   24.5016 C   0  0  0  0  0  0  0  0  0  0  0  0
  -25.1873  -12.4307   21.9038 C   0  0  0  0  0  0  0  0  0  0  0  0
  -25.1029  -14.1968   20.5966 C   0  0  0  0  0  0  0  0  0  0  0  0
  -22.8599  -13.3264   21.2747 C   0  0  0  0  0  0  0  0  0  0  0  0
  -24.7534  -32.1015   22.0335 C   0  0  0  0  0  0  0  0  0  0  0  0
  -22.0956  -30.3034   21.5594 C   0  0  0  0  0  0  0  0  0  0  0  0
  -20.7378  -27.2080   21.0886 C   0  0  0  0  0  0  0  0  0  0  0  0
  -29.5545  -17.5358   20.4033 C   0  0  0  0  0  0  0  0  0  0  0  0
  -24.0267  -37.1399   22.4125 C   0  0  0  0  0  0  0  0  0  0  0  0
  -25.4138  -30.7511   20.0096 C   0  0  0  0  0  0  0  0  0  0  0  0
  -24.2169  -29.0566   22.1169 C   0  0  0  0  0  0  0  0  0  0  0  0
  -23.2353  -35.8911   22.7925 C   0  0  0  0  0  0  0  0  0  0  0  0
  -30.0854  -14.0838   19.7113 C   0  0  0  0  0  0  0  0  0  0  0  0
  -26.5764  -19.1616   18.2930 C   0  0  0  0  0  0  0  0  0  0  0  0
  -25.9211  -20.5041   18.2001 C   0  0  0  0  0  0  0  0  0  0  0  0
  -24.1210  -34.9082   23.5516 C   0  0  0  0  0  0  0  0  0  0  0  0
  -31.0796  -17.6389   25.2806 C   0  0  0  0  0  0  0  0  0  0  0  0
  -30.2993  -16.9810   24.1769 C   0  0  0  0  0  0  0  0  0  0  0  0
  -28.7849  -13.4184   20.1674 C   0  0  0  0  0  0  0  0  0  0  0  0
  -30.4817  -15.2411   20.6264 C   0  0  0  0  0  0  0  0  0  0  0  0
  -28.1358  -15.5847   21.2955 C   0  0  0  0  0  0  0  0  0  0  0  0
  -26.2231  -19.9105   19.5497 C   0  0  0  0  0  0  0  0  0  0  0  0
  -25.2961  -34.4410   22.6841 C   0  0  1  0  0  0  0  0  0  0  0  0
  -24.2737  -31.2513   20.8913 C   0  0  1  0  0  0  0  0  0  0  0  0
  -31.1913  -18.1523   23.8718 C   0  0  0  0  0  0  0  0  0  0  0  0
  -27.6616  -14.4547   20.3672 C   0  0  2  0  0  0  0  0  0  0  0  0
  -18.5336  -26.0514   20.7703 C   0  0  0  0  0  0  0  0  0  0  0  0
  -21.5016  -30.6215   24.5353 C   0  0  0  0  0  0  0  0  0  0  0  0
  -19.8854  -28.7189   24.3450 C   0  0  0  0  0  0  0  0  0  0  0  0
  -19.5017  -30.8137   23.0460 C   0  0  0  0  0  0  0  0  0  0  0  0
  -21.5274  -26.1851   18.4261 C   0  0  0  0  0  0  0  0  0  0  0  0
  -30.5904  -19.4905   23.4976 C   0  0  0  0  0  0  0  0  0  0  0  0
  -29.3673  -25.8863   21.4779 C   0  0  0  0  0  0  0  0  0  1  0  0
  -29.5064  -24.4349   21.8947 C   0  0  0  0  0  0  0  0  0  0  0  0
  -21.3626  -29.2488   22.3530 C   0  0  1  0  0  0  0  0  0  0  0  0
  -19.7262  -26.6946   20.0798 C   0  0  2  0  0  0  0  0  0  0  0  0
  -20.5901  -29.8474   23.5623 C   0  0  0  0  0  0  0  0  0  0  0  0
  -26.4665  -12.7301   21.6629 N   0  0  0  0  0  0  0  0  0  0  0  0
  -26.3824  -13.8083   20.8651 N   0  0  0  0  0  0  0  0  0  0  0  0
  -23.4876  -30.1607   21.4715 N   0  0  0  0  0  0  0  0  0  0  0  0
  -29.3702  -16.1846   20.7653 N   0  0  0  0  0  0  0  0  0  0  0  0
  -24.8378  -15.2623   19.8112 N   0  0  0  0  0  0  0  0  0  0  0  0
  -22.1861  -12.3438   22.0127 N   0  0  0  0  0  0  0  0  0  0  0  0
  -28.4184  -18.3315   20.5476 N   0  0  0  0  0  0  0  0  0  0  0  0
  -24.8556  -33.4457   21.7302 N   0  0  0  0  0  0  0  0  0  0  0  0
  -20.5203  -28.5333   21.4008 N   0  0  0  0  0  0  0  0  0  0  0  0
  -20.3546  -25.6811   19.1860 N   0  3  0  0  0  0  0  0  0  0  0  0
  -22.1958  -14.1763   20.6341 O   0  0  0  0  0  0  0  0  0  0  0  0
  -25.0103  -31.5769   23.1108 O   0  0  0  0  0  0  0  0  0  0  0  0
  -21.4557  -31.2160   21.0308 O   0  0  0  0  0  0  0  0  0  0  0  0
  -21.6292  -26.5027   21.5560 O   0  0  0  0  0  0  0  0  0  0  0  0
  -30.6326  -17.9502   19.9697 O   0  0  0  0  0  0  0  0  0  0  0  0
  -23.8892   -8.0714   25.1562 O   0  0  0  0  0  0  0  0  0  0  0  0
  -30.4215  -19.5445   22.0829 O   0  0  0  0  0  0  0  0  0  0  0  0
  -28.3956  -26.5190   22.3097 O   0  0  0  0  0  0  0  0  0  1  0  0
  -28.2552  -23.7804   21.7234 O   0  0  0  0  0  0  0  0  0  0  0  0
  -19.8896   -4.6884   23.4348 F   0  0  0  0  0  0  0  0  0  0  0  0
  -24.3945   -5.3908   24.7069 F   0  0  0  0  0  0  0  0  0  0  0  0
  1  2  1  0  0  0  0
  1  5  2  0  0  0  0
  2  6  2  0  0  0  0
  3  8  2  0  0  0  0
  3 17  1  0  0  0  0
  4  9  1  0  0  0  0
  4 17  2  0  0  0  0
  5 19  1  0  0  0  0
  6 21  1  0  0  0  0
  7 10  2  0  0  0  0
  7 20  1  0  0  0  0
  8 25  1  0  0  0  0
  9 25  2  0  0  0  0
 10 26  1  0  0  0  0
 11 12  2  0  0  0  0
 11 27  1  0  0  0  0
 12 30  1  0  0  0  0
 13 22  1  0  0  0  0
 13 26  2  0  0  0  0
 14 23  1  0  0  0  0
 14 28  2  0  0  0  0
 15 28  1  0  0  0  0
 15 29  2  0  0  0  0
 16 30  2  0  0  0  0
 16 31  1  0  0  0  0
 17 32  1  0  0  0  0
 18 32  1  0  0  0  0
 18 33  2  0  0  0  0
 18 34  1  0  0  0  0
 19 21  2  0  0  0  0
 19 39  1  0  0  0  0
 20 22  2  0  0  0  0
 20 40  1  0  0  0  0
 21 53  1  0  0  0  0
 22 41  1  0  0  0  0
 23 24  2  0  0  0  0
 23 52  1  0  0  0  0
 24 29  1  0  0  0  0
 24 74  1  0  0  0  0
 25 83  1  0  0  0  0
 26 85  1  0  0  0  0
 27 31  2  0  0  0  0
 27 83  1  0  0  0  0
 28 86  1  0  0  0  0
 29 84  1  0  0  0  0
 30 87  1  0  0  0  0
 31 88  1  0  0  0  0
 32 68  2  0  0  0  0
 33 69  1  0  0  0  0
 33 72  1  0  0  0  0
 34 73  1  0  0  0  0
 34 78  2  0  0  0  0
 35 54  1  0  0  0  0
 35 75  1  0  0  0  0
 35 79  2  0  0  0  0
 36 65  1  0  0  0  0
 36 70  1  0  0  0  0
 36 80  2  0  0  0  0
 37 66  1  0  0  0  0
 37 76  1  0  0  0  0
 37 81  2  0  0  0  0
 38 71  1  0  0  0  0
 38 74  1  0  0  0  0
 38 82  2  0  0  0  0
 39 42  1  0  0  0  0
 40 54  1  0  0  0  0
 41 70  1  0  0  0  0
 42 46  1  0  0  0  0
 43 49  1  0  0  0  0
 43 50  1  0  0  0  0
 44 45  1  0  0  0  0
 44 52  1  0  0  0  0
 45 52  1  0  0  0  0
 46 53  1  0  0  0  0
 47 48  1  0  0  0  0
 47 55  1  0  0  0  0
 48 55  1  0  0  0  0
 49 56  1  0  0  0  0
 50 71  1  0  0  0  0
 51 56  1  0  0  0  0
 51 71  1  0  0  0  0
 53 75  1  0  0  0  0
 54 70  1  0  0  0  0
 55 62  1  0  0  0  0
 56 69  1  0  0  0  0
 57 66  1  0  0  0  0
 58 67  1  0  0  0  0
 59 67  1  0  0  0  0
 60 67  1  0  0  0  0
 61 77  1  0  0  0  0
 62 84  1  0  0  0  0
 63 64  1  0  0  0  0
 63 85  1  0  0  0  0
 64 86  1  0  0  0  0
 65 67  1  0  0  0  0
 65 76  1  0  0  0  0
 66 77  1  0  0  0  0
 68 69  1  0  0  0  0
M  CHG  1  77   1
M  ISO  4  38 100  63 101  74 100  85 101
M  END
> <Batch ID>
0147

> <Smiles>
CNC(C)C(=O)NC(C(=O)N1Cc2cc([101O:1][101CH2:1]COc3cc(OCC4CC4)c([100NH:0][100C:0](=O)N4CCCC(n5nc(-c6ccc(Oc7ccc(F)cc7F)cc6)c(C(N)=O)c5N)C4)c(C4CC4)c3)ccc2CC1C(=O)NC1CCCc2ccccc21)C(C)(C)C

> <Shape>
0.310

> <Color>
0.106

> <Negative vol penalty>
0.000

$$$$

  -OEChem-04052321333D

 87 97  0     1  0  0  0  0  0999 V2000
  -28.7201  -11.1267   19.9229 C   0  0  0  0  0  0  0  0  0  0  0  0
  -28.9107  -12.4627   19.5849 C   0  0  0  0  0  0  0  0  0  0  0  0
  -19.4663  -27.0598   23.5486 C   0  0  0  0  0  0  0  0  0  0  0  0
  -20.0614  -28.4995   21.7020 C   0  0  0  0  0  0  0  0  0  0  0  0
  -27.4554  -10.6782   20.3015 C   0  0  0  0  0  0  0  0  0  0  0  0
  -27.8363  -13.3507   19.6241 C   0  0  0  0  0  0  0  0  0  0  0  0
  -29.0304  -17.7482   21.8335 C   0  0  0  0  0  0  0  0  0  0  0  0
  -18.1759  -27.5893   23.5457 C   0  0  0  0  0  0  0  0  0  0  0  0
  -18.7709  -29.0290   21.6990 C   0  0  0  0  0  0  0  0  0  0  0  0
  -29.7528  -18.6671   21.0736 C   0  0  0  0  0  0  0  0  0  0  0  0
  -16.6294  -30.3868   24.6442 C   0  0  0  0  0  0  0  0  0  0  0  0
  -16.0681  -30.7311   25.8738 C   0  0  0  0  0  0  0  0  0  0  0  0
  -27.7172  -19.8762   20.6116 C   0  0  0  0  0  0  0  0  0  0  0  0
  -31.8918  -26.1267   19.8299 C   0  0  0  0  0  0  0  0  0  0  0  0
  -29.5035  -26.3526   20.0017 C   0  0  0  0  0  0  0  0  0  0  0  0
  -14.2683  -29.1656   25.4906 C   0  0  0  0  0  0  0  0  0  0  0  0
  -20.4091  -27.5149   22.6268 C   0  0  0  0  0  0  0  0  0  0  0  0
  -22.2053  -25.8522   21.9081 C   0  0  0  0  0  0  0  0  0  0  0  0
  -26.3671  -11.5632   20.3547 C   0  0  0  0  0  0  0  0  0  0  0  0
  -27.6420  -17.8805   21.9795 C   0  0  0  0  0  0  0  0  0  0  0  0
  -26.5556  -12.9133   20.0025 C   0  0  0  0  0  0  0  0  0  0  0  0
  -26.9799  -18.9591   21.3760 C   0  0  0  0  0  0  0  0  0  0  0  0
  -30.6235  -25.9260   19.2966 C   0  0  0  0  0  0  0  0  0  0  0  0
  -17.8282  -28.5739   22.6208 C   0  0  0  0  0  0  0  0  0  0  0  0
  -29.0958  -19.7297   20.4601 C   0  0  0  0  0  0  0  0  0  0  0  0
  -16.0101  -29.4319   23.8377 C   0  0  0  0  0  0  0  0  0  0  0  0
  -14.8876  -30.1205   26.2970 C   0  0  0  0  0  0  0  0  0  0  0  0
  -14.8296  -28.8213   24.2609 C   0  0  0  0  0  0  0  0  0  0  0  0
  -21.7424  -26.9688   22.6298 C   0  0  0  0  0  0  0  0  0  0  0  0
  -31.9856  -26.7538   21.0619 C   0  0  0  0  0  0  0  0  0  0  0  0
  -29.7042  -26.9694   21.2260 C   0  0  0  0  0  0  0  0  0  0  0  0
  -23.5308  -25.7466   22.2519 C   0  0  0  0  0  0  0  0  0  0  0  0
  -21.5000  -24.9877   21.0075 C   0  0  0  0  0  0  0  0  0  0  0  0
  -25.1250  -16.1032   21.1986 C   0  0  0  0  0  0  0  0  0  0  0  0
  -23.5001  -18.3729   22.8511 C   0  0  0  0  0  0  0  0  0  0  0  0
  -23.3818  -21.5761   24.0224 C   0  0  0  0  0  0  0  0  0  0  0  0
  -28.5206  -28.0381   23.1762 C   0  0  0  0  0  0  0  0  0  0  0  0
  -25.0087  -11.0220   20.7242 C   0  0  0  0  0  0  0  0  0  0  0  0
  -26.8811  -16.8960   22.8245 C   0  0  0  0  0  0  0  0  0  0  0  0
  -25.4936  -19.1574   21.5185 C   0  0  0  0  0  0  0  0  0  0  0  0
  -24.0029  -12.1066   21.1014 C   0  0  0  0  0  0  0  0  0  0  0  0
  -26.1918  -28.0824   25.8692 C   0  0  0  0  0  0  0  0  0  0  0  0
  -24.0399  -13.2451   20.0869 C   0  0  0  0  0  0  0  0  0  0  0  0
  -30.1455  -28.6319   15.9057 C   0  0  0  0  0  0  0  0  0  0  0  0
  -30.6080  -28.6821   17.3352 C   0  0  0  0  0  0  0  0  0  0  0  0
  -24.8647  -27.7047   25.2071 C   0  0  0  0  0  0  0  0  0  0  0  0
  -30.1270  -22.7383   17.3093 C   0  0  0  0  0  0  0  0  0  0  0  0
  -27.0518  -28.9563   24.9580 C   0  0  0  0  0  0  0  0  0  0  0  0
  -25.9583  -28.0334   22.9526 C   0  0  0  0  0  0  0  0  0  0  0  0
  -25.4203  -13.9124   20.0567 C   0  0  1  0  0  0  0  0  0  0  0  0
  -25.3957  -16.8368   22.4817 C   0  0  1  0  0  0  0  0  0  0  0  0
  -30.7414  -27.4090   16.5463 C   0  0  0  0  0  0  0  0  0  0  0  0
  -30.2197  -22.8040   18.8112 C   0  0  1  0  0  0  0  0  0  0  0  0
  -29.6731  -23.9760   18.0378 C   0  0  1  0  0  0  0  0  0  0  0  0
  -25.0856  -27.0995   23.8070 C   0  0  2  0  0  0  0  0  0  0  0  0
  -33.3309  -26.9850   21.6653 C   0  0  0  0  0  0  0  0  0  0  0  0
  -21.9093  -23.1509   25.3065 C   0  0  0  0  0  0  0  0  0  0  0  0
  -21.7245  -18.7131   20.3931 C   0  0  0  0  0  0  0  0  0  0  0  0
  -20.9294  -20.8839   21.3540 C   0  0  0  0  0  0  0  0  0  0  0  0
  -20.5035  -18.7509   22.5753 C   0  0  0  0  0  0  0  0  0  0  0  0
  -25.4073  -21.9168   26.1532 C   0  0  0  0  0  0  0  0  0  0  0  0
  -29.8624  -26.2081   16.8738 C   0  0  0  0  0  0  0  0  0  0  0  0
  -29.2976  -21.9629   19.6677 C   0  0  0  0  0  0  0  0  0  1  0  0
  -30.4603  -25.2362   17.9350 C   0  0  1  0  0  0  0  0  0  0  0  0
  -22.8498  -19.6897   22.5016 C   0  0  1  0  0  0  0  0  0  0  0  0
  -23.0388  -22.1362   25.3910 C   0  0  2  0  0  0  0  0  0  0  0  0
  -21.5295  -19.5049   21.7015 C   0  0  0  0  0  0  0  0  0  0  0  0
  -22.6964  -27.5321   23.3758 N   0  0  0  0  0  0  0  0  0  0  0  0
  -30.9207  -27.1818   21.7763 N   0  0  0  0  0  0  0  0  0  0  0  0
  -23.7719  -26.7664   23.1248 N   0  0  0  0  0  0  0  0  0  0  0  0
  -24.7928  -18.1647   22.3497 N   0  0  0  0  0  0  0  0  0  0  0  0
  -27.2216  -28.3175   23.6511 N   0  0  0  0  0  0  0  0  0  0  0  0
  -24.5021  -24.8817   21.8897 N   0  0  0  0  0  0  0  0  0  0  0  0
  -20.1423  -25.2384   20.7664 N   0  0  0  0  0  0  0  0  0  0  0  0
  -28.5565  -27.4000   21.9368 N   0  0  0  0  0  0  0  0  0  0  0  0
  -25.5785  -14.7979   21.1904 N   0  0  0  0  0  0  0  0  0  0  0  0
  -22.6905  -20.4126   23.7588 N   0  0  0  0  0  0  0  0  0  0  0  0
  -24.2282  -22.8055   25.9897 N   0  3  0  0  0  0  0  0  0  0  0  0
  -22.0533  -24.0118   20.4462 O   0  0  0  0  0  0  0  0  0  0  0  0
  -24.5462  -16.6784   20.2844 O   0  0  0  0  0  0  0  0  0  0  0  0
  -22.8865  -17.5619   23.5493 O   0  0  0  0  0  0  0  0  0  0  0  0
  -24.1802  -22.1187   23.2617 O   0  0  0  0  0  0  0  0  0  0  0  0
  -29.5261  -28.3179   23.8340 O   0  0  0  0  0  0  0  0  0  0  0  0
  -16.5690  -29.0906   22.6175 O   0  0  0  0  0  0  0  0  0  0  0  0
  -29.7985  -20.6276   19.7172 O   0  0  0  0  0  0  0  0  0  1  0  0
  -14.3495  -30.4501   27.4786 F   0  0  0  0  0  0  0  0  0  0  0  0
  -14.2307  -27.9024   23.4910 F   0  0  0  0  0  0  0  0  0  0  0  0
  1  2  1  0  0  0  0
  1  5  2  0  0  0  0
  2  6  2  0  0  0  0
  3  8  2  0  0  0  0
  3 17  1  0  0  0  0
  4  9  1  0  0  0  0
  4 17  2  0  0  0  0
  5 19  1  0  0  0  0
  6 21  1  0  0  0  0
  7 10  2  0  0  0  0
  7 20  1  0  0  0  0
  8 24  1  0  0  0  0
  9 24  2  0  0  0  0
 10 25  1  0  0  0  0
 11 12  2  0  0  0  0
 11 26  1  0  0  0  0
 12 27  1  0  0  0  0
 13 22  1  0  0  0  0
 13 25  2  0  0  0  0
 14 23  1  0  0  0  0
 14 30  2  0  0  0  0
 15 23  2  0  0  0  0
 15 31  1  0  0  0  0
 16 27  2  0  0  0  0
 16 28  1  0  0  0  0
 17 29  1  0  0  0  0
 18 29  1  0  0  0  0
 18 32  2  0  0  0  0
 18 33  1  0  0  0  0
 19 21  2  0  0  0  0
 19 38  1  0  0  0  0
 20 22  2  0  0  0  0
 20 39  1  0  0  0  0
 21 50  1  0  0  0  0
 22 40  1  0  0  0  0
 23 64  1  0  0  0  0
 24 84  1  0  0  0  0
 25 85  1  0  0  0  0
 26 28  2  0  0  0  0
 26 84  1  0  0  0  0
 27 86  1  0  0  0  0
 28 87  1  0  0  0  0
 29 68  2  0  0  0  0
 30 56  1  0  0  0  0
 30 69  1  0  0  0  0
 31 69  2  0  0  0  0
 31 75  1  0  0  0  0
 32 70  1  0  0  0  0
 32 73  1  0  0  0  0
 33 74  1  0  0  0  0
 33 79  2  0  0  0  0
 34 51  1  0  0  0  0
 34 76  1  0  0  0  0
 34 80  2  0  0  0  0
 35 65  1  0  0  0  0
 35 71  1  0  0  0  0
 35 81  2  0  0  0  0
 36 66  1  0  0  0  0
 36 77  1  0  0  0  0
 36 82  2  0  0  0  0
 37 72  1  0  0  0  0
 37 75  1  0  0  0  0
 37 83  2  0  0  0  0
 38 41  1  0  0  0  0
 39 51  1  0  0  0  0
 40 71  1  0  0  0  0
 41 43  1  0  0  0  0
 42 46  1  0  0  0  0
 42 48  1  0  0  0  0
 43 50  1  0  0  0  0
 44 45  1  0  0  0  0
 44 52  1  0  0  0  0
 45 52  1  0  0  0  0
 46 55  1  0  0  0  0
 47 53  1  0  0  0  0
 47 54  1  0  0  0  0
 48 72  1  0  0  0  0
 49 55  1  0  0  0  0
 49 72  1  0  0  0  0
 50 76  1  0  0  0  0
 51 71  1  0  0  0  0
 52 62  1  0  0  0  0
 53 54  1  0  0  0  0
 53 63  1  0  0  0  0
 54 64  1  0  0  0  0
 55 70  1  0  0  0  0
 57 66  1  0  0  0  0
 58 67  1  0  0  0  0
 59 67  1  0  0  0  0
 60 67  1  0  0  0  0
 61 78  1  0  0  0  0
 62 64  1  0  0  0  0
 63 85  1  0  0  0  0
 65 67  1  0  0  0  0
 65 77  1  0  0  0  0
 66 78  1  0  0  0  0
 68 70  1  0  0  0  0
M  CHG  1  78   1
M  ISO  4  37 100  63 101  75 100  85 101
M  END
> <Batch ID>
0147

> <Smiles>
CNC(C)C(=O)NC(C(=O)N1Cc2cc([101O:1][101CH2:1]C3CC3C(CC3CC3)c3cc(C)nc([100NH:0][100C:0](=O)N4CCCC(n5nc(-c6ccc(Oc7ccc(F)cc7F)cc6)c(C(N)=O)c5N)C4)c3)ccc2CC1C(=O)NC1CCCc2ccccc21)C(C)(C)C

> <Shape>
0.222

> <Color>
0.061

> <Negative vol penalty>
0.000

$$$$

  -OEChem-04052321333D

 82 91  0     1  0  0  0  0  0999 V2000
  -17.8917  -28.0642   22.7842 C   0  0  0  0  0  0  0  0  0  0  0  0
  -18.7497  -26.9691   22.7905 C   0  0  0  0  0  0  0  0  0  0  0  0
  -23.0726   -9.8102   19.9395 C   0  0  0  0  0  0  0  0  0  0  0  0
  -23.8156   -9.8352   22.2383 C   0  0  0  0  0  0  0  0  0  0  0  0
  -18.3988  -29.3444   22.5654 C   0  0  0  0  0  0  0  0  0  0  0  0
  -20.1153  -27.1535   22.5769 C   0  0  0  0  0  0  0  0  0  0  0  0
  -28.9799  -18.7327   21.3462 C   0  0  0  0  0  0  0  0  0  0  0  0
  -24.6997  -23.9856   25.1172 C   0  0  0  0  0  0  0  0  0  0  0  0
  -28.0725  -19.6608   21.8615 C   0  0  0  0  0  0  0  0  0  0  0  0
  -22.3368   -8.6520   20.1899 C   0  0  0  0  0  0  0  0  0  0  0  0
  -23.0797   -8.6770   22.4887 C   0  0  0  0  0  0  0  0  0  0  0  0
  -25.4728  -22.9211   24.6558 C   0  0  0  0  0  0  0  0  0  0  0  0
  -23.4030   -5.3548   21.9503 C   0  0  0  0  0  0  0  0  0  0  0  0
  -24.0220   -4.3384   22.6778 C   0  0  0  0  0  0  0  0  0  0  0  0
  -28.6679  -19.0460   24.1388 C   0  0  0  0  0  0  0  0  0  0  0  0
  -27.1788  -24.4737   23.9501 C   0  0  0  0  0  0  0  0  0  0  0  0
  -22.3067   -4.5060   24.3710 C   0  0  0  0  0  0  0  0  0  0  0  0
  -23.8120  -10.4018   20.9637 C   0  0  0  0  0  0  0  0  0  0  0  0
  -24.1332  -12.9292   20.8334 C   0  0  0  0  0  0  0  0  0  0  0  0
  -19.7726  -29.5457   22.3586 C   0  0  0  0  0  0  0  0  0  0  0  0
  -25.1563  -25.3052   24.9884 C   0  0  0  0  0  0  0  0  0  0  0  0
  -20.6411  -28.4375   22.3538 C   0  0  0  0  0  0  0  0  0  0  0  0
  -29.7258  -17.9769   22.2369 C   0  0  0  0  0  0  0  0  0  0  0  0
  -29.5736  -18.1361   23.6192 C   0  0  0  0  0  0  0  0  0  0  0  0
  -26.4107  -25.5530   24.4129 C   0  0  0  0  0  0  0  0  0  0  0  0
  -27.9174  -19.8160   23.2479 C   0  0  0  0  0  0  0  0  0  0  0  0
  -22.3403   -8.0854   21.4645 C   0  0  0  0  0  0  0  0  0  0  0  0
  -26.7112  -23.1652   24.0695 C   0  0  0  0  0  0  0  0  0  0  0  0
  -22.2359   -5.9469   22.4331 C   0  0  0  0  0  0  0  0  0  0  0  0
  -23.4738   -3.9140   23.8882 C   0  0  0  0  0  0  0  0  0  0  0  0
  -21.6878   -5.5224   23.6434 C   0  0  0  0  0  0  0  0  0  0  0  0
  -24.5728  -11.5979   20.7056 C   0  0  0  0  0  0  0  0  0  0  0  0
  -25.2215  -13.6862   20.4744 C   0  0  0  0  0  0  0  0  0  0  0  0
  -22.8553  -13.4362   21.2405 C   0  0  0  0  0  0  0  0  0  0  0  0
  -24.1225  -27.8982   23.4681 C   0  0  0  0  0  0  0  0  0  0  0  0
  -26.5767  -29.3223   25.0401 C   0  0  0  0  0  0  0  0  0  0  0  0
  -29.6025  -29.0013   26.5855 C   0  0  0  0  0  0  0  0  0  0  0  0
  -30.6948  -14.7531   20.6975 C   0  0  0  0  0  0  0  0  0  0  0  0
  -20.2677  -30.9427   22.0793 C   0  0  0  0  0  0  0  0  0  0  0  0
  -24.3222  -26.4405   25.5154 C   0  0  0  0  0  0  0  0  0  0  0  0
  -30.4566  -17.1888   24.3706 C   0  0  0  0  0  0  0  0  0  0  0  0
  -26.9553  -26.9499   24.2695 C   0  0  0  0  0  0  0  0  0  0  0  0
  -21.7786  -31.0957   22.2337 C   0  0  0  0  0  0  0  0  0  0  0  0
  -29.5951  -12.3470   18.3145 C   0  0  0  0  0  0  0  0  0  0  0  0
  -22.5054  -29.9526   21.5325 C   0  0  0  0  0  0  0  0  0  0  0  0
  -28.1571  -12.0432   18.7385 C   0  0  0  0  0  0  0  0  0  0  0  0
  -30.5015  -12.5817   19.5209 C   0  0  0  0  0  0  0  0  0  0  0  0
  -28.5835  -13.3034   20.8900 C   0  0  0  0  0  0  0  0  0  0  0  0
  -22.1319  -28.5998   22.1506 C   0  0  1  0  0  0  0  0  0  0  0  0
  -30.7333  -16.9103   21.9239 C   0  0  1  0  0  0  0  0  0  0  0  0
  -24.6582  -27.7799   24.8669 C   0  0  1  0  0  0  0  0  0  0  0  0
  -31.4700  -16.7653   23.2813 C   0  0  1  0  0  0  0  0  0  0  0  0
  -27.6195  -13.1146   19.7062 C   0  0  2  0  0  0  0  0  0  0  0  0
  -32.7233  -17.6506   23.3239 C   0  0  0  0  0  0  0  0  0  0  0  0
  -31.3786  -30.3484   27.7379 C   0  0  0  0  0  0  0  0  0  0  0  0
  -27.5450  -30.3539   22.3366 C   0  0  0  0  0  0  0  0  0  0  0  0
  -29.7573  -30.8524   23.3976 C   0  0  0  0  0  0  0  0  0  0  0  0
  -27.7005  -32.0119   24.2024 C   0  0  0  0  0  0  0  0  0  0  0  0
  -29.2576  -27.5064   29.1164 C   0  0  0  0  0  0  0  0  0  0  0  0
  -26.9308  -20.8154   23.7764 C   0  0  0  0  0  0  0  0  0  1  0  0
  -28.0372  -29.5658   24.7455 C   0  0  1  0  0  0  0  0  0  0  0  0
  -30.1142  -29.5225   27.9163 C   0  0  2  0  0  0  0  0  0  0  0  0
  -28.2491  -30.6697   23.6713 C   0  0  0  0  0  0  0  0  0  0  0  0
  -25.8414  -11.5109   20.2970 N   0  0  0  0  0  0  0  0  0  0  0  0
  -26.2083  -12.7970   20.1649 N   0  0  0  0  0  0  0  0  0  0  0  0
  -26.0997  -28.0270   24.7944 N   0  0  0  0  0  0  0  0  0  0  0  0
  -29.9357  -13.6099   20.3977 N   0  0  0  0  0  0  0  0  0  0  0  0
  -25.4211  -15.0190   20.3961 N   0  0  0  0  0  0  0  0  0  0  0  0
  -21.8487  -12.5200   21.5750 N   0  0  0  0  0  0  0  0  0  0  0  0
  -22.8377  -28.4021   23.3984 N   0  0  0  0  0  0  0  0  0  0  0  0
  -28.6703  -29.8511   26.0285 N   0  0  0  0  0  0  0  0  0  0  0  0
  -30.0816  -15.6809   21.5304 N   0  0  0  0  0  0  0  0  0  0  0  0
  -30.4190  -28.3886   28.8341 N   0  3  0  0  0  0  0  0  0  0  0  0
  -22.6081  -14.6650   21.2899 O   0  0  0  0  0  0  0  0  0  0  0  0
  -24.8235  -27.5588   22.5219 O   0  0  0  0  0  0  0  0  0  0  0  0
  -25.8863  -30.2456   25.4789 O   0  0  0  0  0  0  0  0  0  0  0  0
  -29.9935  -27.9477   26.0880 O   0  0  0  0  0  0  0  0  0  0  0  0
  -31.8325  -14.9360   20.2512 O   0  0  0  0  0  0  0  0  0  0  0  0
  -21.6222   -6.9553   21.7092 O   0  0  0  0  0  0  0  0  0  0  0  0
  -27.4675  -22.1280   23.6177 O   0  0  0  0  0  0  0  0  0  1  0  0
  -24.0675   -2.9368   24.5860 F   0  0  0  0  0  0  0  0  0  0  0  0
  -20.5661   -6.0866   24.1118 F   0  0  0  0  0  0  0  0  0  0  0  0
  1  2  1  0  0  0  0
  1  5  2  0  0  0  0
  2  6  2  0  0  0  0
  3 10  2  0  0  0  0
  3 18  1  0  0  0  0
  4 11  1  0  0  0  0
  4 18  2  0  0  0  0
  5 20  1  0  0  0  0
  6 22  1  0  0  0  0
  7  9  2  0  0  0  0
  7 23  1  0  0  0  0
  8 12  2  0  0  0  0
  8 21  1  0  0  0  0
  9 26  1  0  0  0  0
 10 27  1  0  0  0  0
 11 27  2  0  0  0  0
 12 28  1  0  0  0  0
 13 14  2  0  0  0  0
 13 29  1  0  0  0  0
 14 30  1  0  0  0  0
 15 24  1  0  0  0  0
 15 26  2  0  0  0  0
 16 25  1  0  0  0  0
 16 28  2  0  0  0  0
 17 30  2  0  0  0  0
 17 31  1  0  0  0  0
 18 32  1  0  0  0  0
 19 32  1  0  0  0  0
 19 33  2  0  0  0  0
 19 34  1  0  0  0  0
 20 22  2  0  0  0  0
 20 39  1  0  0  0  0
 21 25  2  0  0  0  0
 21 40  1  0  0  0  0
 22 49  1  0  0  0  0
 23 24  2  0  0  0  0
 23 50  1  0  0  0  0
 24 41  1  0  0  0  0
 25 42  1  0  0  0  0
 26 60  1  0  0  0  0
 27 79  1  0  0  0  0
 28 80  1  0  0  0  0
 29 31  2  0  0  0  0
 29 79  1  0  0  0  0
 30 81  1  0  0  0  0
 31 82  1  0  0  0  0
 32 64  2  0  0  0  0
 33 65  1  0  0  0  0
 33 68  1  0  0  0  0
 34 69  1  0  0  0  0
 34 74  2  0  0  0  0
 35 51  1  0  0  0  0
 35 70  1  0  0  0  0
 35 75  2  0  0  0  0
 36 61  1  0  0  0  0
 36 66  1  0  0  0  0
 36 76  2  0  0  0  0
 37 62  1  0  0  0  0
 37 71  1  0  0  0  0
 37 77  2  0  0  0  0
 38 67  1  0  0  0  0
 38 72  1  0  0  0  0
 38 78  2  0  0  0  0
 39 43  1  0  0  0  0
 40 51  1  0  0  0  0
 41 52  1  0  0  0  0
 42 66  1  0  0  0  0
 43 45  1  0  0  0  0
 44 46  1  0  0  0  0
 44 47  1  0  0  0  0
 45 49  1  0  0  0  0
 46 53  1  0  0  0  0
 47 67  1  0  0  0  0
 48 53  1  0  0  0  0
 48 67  1  0  0  0  0
 49 70  1  0  0  0  0
 50 52  1  0  0  0  0
 50 72  1  0  0  0  0
 51 66  1  0  0  0  0
 52 54  1  0  0  0  0
 53 65  1  0  0  0  0
 55 62  1  0  0  0  0
 56 63  1  0  0  0  0
 57 63  1  0  0  0  0
 58 63  1  0  0  0  0
 59 73  1  0  0  0  0
 60 80  1  0  0  0  0
 61 63  1  0  0  0  0
 61 71  1  0  0  0  0
 62 73  1  0  0  0  0
 64 65  1  0  0  0  0
M  CHG  1  73   1
M  ISO  4  38 100  60 101  72 100  80 101
M  END
> <Batch ID>
0147

> <Smiles>
CNC(C)C(=O)NC(C(=O)N1Cc2cc([101O:1][101CH2:1]c3ccc4c(c3)CC(C)C4[100NH:0][100C:0](=O)N3CCCC(n4nc(-c5ccc(Oc6ccc(F)cc6F)cc5)c(C(N)=O)c4N)C3)ccc2CC1C(=O)NC1CCCc2ccccc21)C(C)(C)C

> <Shape>
0.297

> <Color>
0.218

> <Negative vol penalty>
0.000

$$$$

  -OEChem-04052321333D

 85 94  0     1  0  0  0  0  0999 V2000
  -27.7752  -28.7266   16.7673 C   0  0  0  0  0  0  0  0  0  0  0  0
  -27.4661  -27.3711   16.7176 C   0  0  0  0  0  0  0  0  0  0  0  0
  -30.9359  -20.8428   20.2106 C   0  0  0  0  0  0  0  0  0  0  0  0
  -28.6704  -20.1019   19.8159 C   0  0  0  0  0  0  0  0  0  0  0  0
  -27.4380  -29.4765   17.8933 C   0  0  0  0  0  0  0  0  0  0  0  0
  -26.8205  -26.7644   17.7944 C   0  0  0  0  0  0  0  0  0  0  0  0
  -23.2390  -13.7303   21.3501 C   0  0  0  0  0  0  0  0  0  0  0  0
  -23.0393  -23.7293   16.3331 C   0  0  0  0  0  0  0  0  0  0  0  0
  -22.5387  -14.3172   20.2941 C   0  0  0  0  0  0  0  0  0  0  0  0
  -30.6136  -22.1002   19.7000 C   0  0  0  0  0  0  0  0  0  0  0  0
  -28.3481  -21.3593   19.3054 C   0  0  0  0  0  0  0  0  0  0  0  0
  -23.3861  -22.4715   15.8417 C   0  0  0  0  0  0  0  0  0  0  0  0
  -29.0361  -24.8932   20.7693 C   0  0  0  0  0  0  0  0  0  0  0  0
  -29.4768  -26.0121   21.4760 C   0  0  0  0  0  0  0  0  0  0  0  0
  -24.1484  -13.4547   18.6861 C   0  0  0  0  0  0  0  0  0  0  0  0
  -22.8500  -21.4945   17.9812 C   0  0  0  0  0  0  0  0  0  0  0  0
  -30.7329  -26.7376   19.5439 C   0  0  0  0  0  0  0  0  0  0  0  0
  -29.9643  -19.8436   20.2685 C   0  0  0  0  0  0  0  0  0  0  0  0
  -30.7672  -18.2461   22.0881 C   0  0  0  0  0  0  0  0  0  0  0  0
  -26.7793  -28.8808   18.9804 C   0  0  0  0  0  0  0  0  0  0  0  0
  -24.3802  -13.0028   21.0570 C   0  0  0  0  0  0  0  0  0  0  0  0
  -22.6049  -23.8809   17.6578 C   0  0  0  0  0  0  0  0  0  0  0  0
  -26.4753  -27.5067   18.9366 C   0  0  0  0  0  0  0  0  0  0  0  0
  -24.8340  -12.8693   19.7383 C   0  0  0  0  0  0  0  0  0  0  0  0
  -22.4959  -22.7549   18.4862 C   0  0  0  0  0  0  0  0  0  0  0  0
  -22.9897  -14.1799   18.9717 C   0  0  0  0  0  0  0  0  0  0  0  0
  -29.3198  -22.3585   19.2475 C   0  0  0  0  0  0  0  0  0  0  0  0
  -23.2942  -21.3543   16.6666 C   0  0  0  0  0  0  0  0  0  0  0  0
  -29.4439  -24.6964   19.4500 C   0  0  0  0  0  0  0  0  0  0  0  0
  -30.3251  -26.9344   20.8633 C   0  0  0  0  0  0  0  0  0  0  0  0
  -30.2922  -25.6186   18.8372 C   0  0  0  0  0  0  0  0  0  0  0  0
  -30.2968  -18.5443   20.7952 C   0  0  0  0  0  0  0  0  0  0  0  0
  -30.9301  -16.8823   22.0881 C   0  0  0  0  0  0  0  0  0  0  0  0
  -31.0330  -19.1234   23.1905 C   0  0  0  0  0  0  0  0  0  0  0  0
  -23.6764  -25.4540   20.2036 C   0  0  0  0  0  0  0  0  0  0  0  0
  -20.8866  -24.4456   21.5160 C   0  0  0  0  0  0  0  0  0  0  0  0
  -18.3350  -22.1793   21.5117 C   0  0  0  0  0  0  0  0  0  0  0  0
  -28.4230  -12.4764   18.9016 C   0  0  0  0  0  0  0  0  0  0  0  0
  -26.4772  -29.7217   20.1955 C   0  0  0  0  0  0  0  0  0  0  0  0
  -25.3062  -12.3199   22.0136 C   0  0  0  0  0  0  0  0  0  0  0  0
  -22.2091  -25.2406   18.1646 C   0  0  0  0  0  0  0  0  0  0  0  0
  -22.0158  -22.8612   19.9098 C   0  0  0  0  0  0  0  0  0  0  0  0
  -25.4591  -29.0858   21.1385 C   0  0  0  0  0  0  0  0  0  0  0  0
  -26.0796  -11.3892   21.0659 C   0  0  0  0  0  0  0  0  0  0  0  0
  -31.8942  -13.2264   19.1563 C   0  0  0  0  0  0  0  0  0  0  0  0
  -25.7997  -27.6188   21.3813 C   0  0  0  0  0  0  0  0  0  0  0  0
  -31.9209  -14.6474   19.7218 C   0  0  0  0  0  0  0  0  0  0  0  0
  -30.7305  -13.0261   18.1878 C   0  0  0  0  0  0  0  0  0  0  0  0
  -29.4326  -14.8051   19.2944 C   0  0  0  0  0  0  0  0  0  0  0  0
  -25.7533  -26.8181   20.0743 C   0  0  1  0  0  0  0  0  0  0  0  0
  -26.1031  -12.0735   19.6858 C   0  0  2  0  0  0  0  0  0  0  0  0
  -22.2699  -25.3527   19.6848 C   0  0  1  0  0  0  0  0  0  0  0  0
  -30.5559  -15.0389   20.3191 C   0  0  2  0  0  0  0  0  0  0  0  0
  -16.2196  -21.5923   22.7274 C   0  0  0  0  0  0  0  0  0  0  0  0
  -22.5299  -23.2880   23.8116 C   0  0  0  0  0  0  0  0  0  0  0  0
  -20.5301  -21.9319   24.4671 C   0  0  0  0  0  0  0  0  0  0  0  0
  -20.4145  -24.4234   24.5118 C   0  0  0  0  0  0  0  0  0  0  0  0
  -16.6948  -22.5535   19.0769 C   0  0  0  0  0  0  0  0  0  0  0  0
  -22.2130  -14.8117   17.8545 C   0  0  0  0  0  0  0  0  0  0  0  0
  -22.8774  -17.9032   15.6953 C   0  0  0  0  0  0  0  0  0  0  0  0
  -22.1517  -16.6522   16.1671 C   0  0  0  0  0  0  0  0  0  0  0  0
  -22.9528  -19.0021   16.7483 C   0  0  0  0  0  0  0  0  0  1  0  0
  -20.4476  -23.2239   22.2865 C   0  0  1  0  0  0  0  0  0  0  0  0
  -16.8285  -22.3585   21.5634 C   0  0  2  0  0  0  0  0  0  0  0  0
  -20.9915  -23.2147   23.7431 C   0  0  0  0  0  0  0  0  0  0  0  0
  -30.1692  -17.4574   20.0294 N   0  0  0  0  0  0  0  0  0  0  0  0
  -30.5620  -16.4629   20.8436 N   0  0  0  0  0  0  0  0  0  0  0  0
  -21.6465  -24.2131   20.3609 N   0  0  0  0  0  0  0  0  0  0  0  0
  -29.4653  -13.4141   18.8161 N   0  0  0  0  0  0  0  0  0  0  0  0
  -31.3509  -16.0129   23.0312 N   0  0  0  0  0  0  0  0  0  0  0  0
  -29.9965  -19.3935   24.0944 N   0  0  0  0  0  0  0  0  0  0  0  0
  -24.3835  -26.5317   19.7055 N   0  0  0  0  0  0  0  0  0  0  0  0
  -18.9924  -23.1827   22.1918 N   0  0  0  0  0  0  0  0  0  0  0  0
  -27.2605  -12.9238   19.5174 N   0  0  0  0  0  0  0  0  0  0  0  0
  -16.2051  -21.8694   20.3013 N   0  3  0  0  0  0  0  0  0  0  0  0
  -22.8609  -16.0388   17.3144 N   0  3  0  0  0  0  0  0  0  0  0  0
  -32.1517  -19.6650   23.3595 O   0  0  0  0  0  0  0  0  0  0  0  0
  -24.0891  -24.6173   20.9981 O   0  0  0  0  0  0  0  0  0  0  0  0
  -20.5611  -25.5647   21.9202 O   0  0  0  0  0  0  0  0  0  0  0  0
  -18.8746  -21.2409   20.9297 O   0  0  0  0  0  0  0  0  0  0  0  0
  -28.5229  -11.3242   18.4664 O   0  0  0  0  0  0  0  0  0  0  0  0
  -29.0049  -23.5854   18.7495 O   0  0  0  0  0  0  0  0  0  0  0  0
  -23.6327  -20.1255   16.1897 O   0  0  0  0  0  0  0  0  0  1  0  0
  -30.7470  -28.0096   21.5415 F   0  0  0  0  0  0  0  0  0  0  0  0
  -30.6864  -25.4355   17.5696 F   0  0  0  0  0  0  0  0  0  0  0  0
  1  2  1  0  0  0  0
  1  5  2  0  0  0  0
  2  6  2  0  0  0  0
  3 10  2  0  0  0  0
  3 18  1  0  0  0  0
  4 11  1  0  0  0  0
  4 18  2  0  0  0  0
  5 20  1  0  0  0  0
  6 23  1  0  0  0  0
  7  9  2  0  0  0  0
  7 21  1  0  0  0  0
  8 12  2  0  0  0  0
  8 22  1  0  0  0  0
  9 26  1  0  0  0  0
 10 27  1  0  0  0  0
 11 27  2  0  0  0  0
 12 28  1  0  0  0  0
 13 14  2  0  0  0  0
 13 29  1  0  0  0  0
 14 30  1  0  0  0  0
 15 24  1  0  0  0  0
 15 26  2  0  0  0  0
 16 25  1  0  0  0  0
 16 28  2  0  0  0  0
 17 30  2  0  0  0  0
 17 31  1  0  0  0  0
 18 32  1  0  0  0  0
 19 32  1  0  0  0  0
 19 33  2  0  0  0  0
 19 34  1  0  0  0  0
 20 23  2  0  0  0  0
 20 39  1  0  0  0  0
 21 24  2  0  0  0  0
 21 40  1  0  0  0  0
 22 25  2  0  0  0  0
 22 41  1  0  0  0  0
 23 50  1  0  0  0  0
 24 51  1  0  0  0  0
 25 42  1  0  0  0  0
 26 59  1  0  0  0  0
 27 82  1  0  0  0  0
 28 83  1  0  0  0  0
 29 31  2  0  0  0  0
 29 82  1  0  0  0  0
 30 84  1  0  0  0  0
 31 85  1  0  0  0  0
 32 66  2  0  0  0  0
 33 67  1  0  0  0  0
 33 70  1  0  0  0  0
 34 71  1  0  0  0  0
 34 77  2  0  0  0  0
 35 52  1  0  0  0  0
 35 72  1  0  0  0  0
 35 78  2  0  0  0  0
 36 63  1  0  0  0  0
 36 68  1  0  0  0  0
 36 79  2  0  0  0  0
 37 64  1  0  0  0  0
 37 73  1  0  0  0  0
 37 80  2  0  0  0  0
 38 69  1  0  0  0  0
 38 74  1  0  0  0  0
 38 81  2  0  0  0  0
 39 43  1  0  0  0  0
 40 44  1  0  0  0  0
 41 52  1  0  0  0  0
 42 68  1  0  0  0  0
 43 46  1  0  0  0  0
 44 51  1  0  0  0  0
 45 47  1  0  0  0  0
 45 48  1  0  0  0  0
 46 50  1  0  0  0  0
 47 53  1  0  0  0  0
 48 69  1  0  0  0  0
 49 53  1  0  0  0  0
 49 69  1  0  0  0  0
 50 72  1  0  0  0  0
 51 74  1  0  0  0  0
 52 68  1  0  0  0  0
 53 67  1  0  0  0  0
 54 64  1  0  0  0  0
 55 65  1  0  0  0  0
 56 65  1  0  0  0  0
 57 65  1  0  0  0  0
 58 75  1  0  0  0  0
 59 76  1  0  0  0  0
 60 61  1  0  0  0  0
 60 62  1  0  0  0  0
 61 76  1  0  0  0  0
 62 83  1  0  0  0  0
 63 65  1  0  0  0  0
 63 73  1  0  0  0  0
 64 75  1  0  0  0  0
 66 67  1  0  0  0  0
M  CHG  2  75   1  76   1
M  ISO  4  38 100  62 101  74 100  83 101
M  END
> <Batch ID>
0147

> <Smiles>
CNC(C)C(=O)NC(C(=O)N1Cc2cc([101O:1][101CH2:1]CCNCc3ccc4c(c3)C([100NH:0][100C:0](=O)N3CCCC(n5nc(-c6ccc(Oc7ccc(F)cc7F)cc6)c(C(N)=O)c5N)C3)CC4)ccc2CC1C(=O)NC1CCCc2ccccc21)C(C)(C)C

> <Shape>
0.213

> <Color>
0.066

> <Negative vol penalty>
0.000

$$$$

  -OEChem-04052321333D

 88 97  0     1  0  0  0  0  0999 V2000
  -29.6361  -34.9385   23.7941 C   0  0  0  0  0  0  0  0  0  0  0  0
  -29.6162  -33.6043   23.4004 C   0  0  0  0  0  0  0  0  0  0  0  0
  -24.5217  -14.6076   23.5658 C   0  0  0  0  0  0  0  0  0  0  0  0
  -24.2011  -15.7595   21.4664 C   0  0  0  0  0  0  0  0  0  0  0  0
  -28.5520  -35.4760   24.4867 C   0  0  0  0  0  0  0  0  0  0  0  0
  -28.5125  -32.8065   23.7001 C   0  0  0  0  0  0  0  0  0  0  0  0
  -27.0381  -29.9742   19.7695 C   0  0  0  0  0  0  0  0  0  0  0  0
  -24.0356  -15.7210   24.2510 C   0  0  0  0  0  0  0  0  0  0  0  0
  -23.7149  -16.8729   22.1517 C   0  0  0  0  0  0  0  0  0  0  0  0
  -27.7831  -28.8280   19.4956 C   0  0  0  0  0  0  0  0  0  0  0  0
  -24.9857  -19.4734   23.8991 C   0  0  0  0  0  0  0  0  0  0  0  0
  -25.4556  -20.7285   23.5123 C   0  0  0  0  0  0  0  0  0  0  0  0
  -26.1182  -27.4863   20.6123 C   0  0  0  0  0  0  0  0  0  0  0  0
  -31.9568  -21.3659   19.0364 C   0  0  0  0  0  0  0  0  0  0  0  0
  -30.0796  -20.8892   20.4806 C   0  0  0  0  0  0  0  0  0  0  0  0
  -23.1992  -21.4098   22.9818 C   0  0  0  0  0  0  0  0  0  0  0  0
  -24.6045  -14.6268   22.1735 C   0  0  0  0  0  0  0  0  0  0  0  0
  -24.3627  -12.3855   20.9796 C   0  0  0  0  0  0  0  0  0  0  0  0
  -27.4303  -34.6869   24.7866 C   0  0  0  0  0  0  0  0  0  0  0  0
  -25.8309  -29.8861   20.4776 C   0  0  0  0  0  0  0  0  0  0  0  0
  -27.4130  -33.3336   24.3985 C   0  0  0  0  0  0  0  0  0  0  0  0
  -25.3585  -28.6325   20.8917 C   0  0  0  0  0  0  0  0  0  0  0  0
  -31.4373  -22.6347   18.7798 C   0  0  0  0  0  0  0  0  0  0  0  0
  -29.5601  -22.1581   20.2241 C   0  0  0  0  0  0  0  0  0  0  0  0
  -31.2779  -20.4931   19.8867 C   0  0  0  0  0  0  0  0  0  0  0  0
  -23.6322  -16.8537   23.5440 C   0  0  0  0  0  0  0  0  0  0  0  0
  -27.3247  -27.5841   19.9196 C   0  0  0  0  0  0  0  0  0  0  0  0
  -23.6226  -19.1865   23.8271 C   0  0  0  0  0  0  0  0  0  0  0  0
  -30.2390  -23.0308   19.3737 C   0  0  0  0  0  0  0  0  0  0  0  0
  -24.5624  -21.6967   23.0536 C   0  0  0  0  0  0  0  0  0  0  0  0
  -22.7293  -20.1547   23.3685 C   0  0  0  0  0  0  0  0  0  0  0  0
  -25.1072  -13.4772   21.4651 C   0  0  0  0  0  0  0  0  0  0  0  0
  -25.2959  -11.5694   20.3883 C   0  0  0  0  0  0  0  0  0  0  0  0
  -22.9537  -12.1318   21.0561 C   0  0  0  0  0  0  0  0  0  0  0  0
  -24.7667  -31.0259   23.2474 C   0  0  0  0  0  0  0  0  0  0  0  0
  -21.9599  -29.7394   22.2529 C   0  0  0  0  0  0  0  0  0  0  0  0
  -20.3545  -27.4451   20.3021 C   0  0  0  0  0  0  0  0  0  0  0  0
  -30.1152  -14.1734   21.8035 C   0  0  0  0  0  0  0  0  0  0  0  0
  -26.3026  -35.2996   25.5786 C   0  0  0  0  0  0  0  0  0  0  0  0
  -25.0257  -31.1288   20.7418 C   0  0  0  0  0  0  0  0  0  0  0  0
  -24.0587  -28.4817   21.6375 C   0  0  0  0  0  0  0  0  0  0  0  0
  -25.0114  -34.4868   25.5287 C   0  0  0  0  0  0  0  0  0  0  0  0
  -28.5611  -13.5528   18.4545 C   0  0  0  0  0  0  0  0  0  0  0  0
  -25.3014  -33.0088   25.7702 C   0  0  0  0  0  0  0  0  0  0  0  0
  -28.1156  -12.0998   18.6045 C   0  0  0  0  0  0  0  0  0  0  0  0
  -32.1817  -17.2380   21.4821 C   0  0  0  0  0  0  0  0  0  0  0  0
  -30.0043  -17.5910   20.2646 C   0  0  0  0  0  0  0  0  0  0  0  0
  -29.7708  -13.8428   19.3315 C   0  0  0  0  0  0  0  0  0  0  0  0
  -31.5207  -16.1373   22.3088 C   0  0  0  0  0  0  0  0  0  0  0  0
  -29.3811  -16.4883   21.1155 C   0  0  0  0  0  0  0  0  0  0  0  0
  -29.0645  -12.1067   20.9551 C   0  0  0  0  0  0  0  0  0  0  0  0
  -26.2232  -32.4427   24.6834 C   0  0  1  0  0  0  0  0  0  0  0  0
  -24.0665  -30.9803   21.9187 C   0  0  1  0  0  0  0  0  0  0  0  0
  -27.8614  -11.7132   20.0746 C   0  0  1  0  0  0  0  0  0  0  0  0
  -31.1557  -18.2693   21.0091 C   0  0  0  0  0  0  0  0  0  0  0  0
  -32.1776  -23.5544   17.8655 C   0  0  0  0  0  0  0  0  0  0  0  0
  -28.2756  -22.5636   20.8688 C   0  0  0  0  0  0  0  0  0  0  0  0
  -18.0592  -26.6067   19.7309 C   0  0  0  0  0  0  0  0  0  0  0  0
  -21.8461  -28.2467   24.9116 C   0  0  0  0  0  0  0  0  0  0  0  0
  -20.1034  -26.7495   23.9169 C   0  0  0  0  0  0  0  0  0  0  0  0
  -19.6593  -29.1929   24.1521 C   0  0  0  0  0  0  0  0  0  0  0  0
  -20.6646  -28.1902   17.4547 C   0  0  0  0  0  0  0  0  0  0  0  0
  -29.4664  -26.6130   19.5647 C   0  0  0  0  0  0  0  0  0  1  0  0
  -30.1357  -25.3232   19.9984 C   0  0  0  0  0  0  0  0  0  0  0  0
  -21.2912  -28.3933   22.3944 C   0  0  1  0  0  0  0  0  0  0  0  0
  -19.1712  -27.5757   19.3602 C   0  0  2  0  0  0  0  0  0  0  0  0
  -20.7505  -28.1483   23.8314 C   0  0  0  0  0  0  0  0  0  0  0  0
  -26.4127  -13.3676   21.2050 N   0  0  0  0  0  0  0  0  0  0  0  0
  -26.4959  -12.1972   20.5496 N   0  0  0  0  0  0  0  0  0  0  0  0
  -23.3107  -29.7269   21.8772 N   0  0  0  0  0  0  0  0  0  0  0  0
  -29.5252  -13.4801   20.7318 N   0  0  0  0  0  0  0  0  0  0  0  0
  -30.3908  -15.5364   21.5994 N   0  0  0  0  0  0  0  0  0  0  0  0
  -25.1989  -10.3831   19.7513 N   0  0  0  0  0  0  0  0  0  0  0  0
  -22.1390  -13.0742   21.6985 N   0  0  0  0  0  0  0  0  0  0  0  0
  -31.7930  -19.2343   20.1404 N   0  0  0  0  0  0  0  0  0  0  0  0
  -25.4774  -32.1901   23.4692 N   0  0  0  0  0  0  0  0  0  0  0  0
  -20.2707  -28.3331   21.3536 N   0  0  0  0  0  0  0  0  0  0  0  0
  -19.5915  -27.2947   17.9583 N   0  3  0  0  0  0  0  0  0  0  0  0
  -22.4346  -11.0921   20.5837 O   0  0  0  0  0  0  0  0  0  0  0  0
  -24.6682  -30.0760   24.0152 O   0  0  0  0  0  0  0  0  0  0  0  0
  -21.3059  -30.7644   22.4609 O   0  0  0  0  0  0  0  0  0  0  0  0
  -21.2605  -26.6338   20.1249 O   0  0  0  0  0  0  0  0  0  0  0  0
  -30.3749  -13.6118   22.8750 O   0  0  0  0  0  0  0  0  0  0  0  0
  -23.1575  -17.9402   24.2123 O   0  0  0  0  0  0  0  0  0  0  0  0
  -28.0552  -26.4563   19.6523 O   0  0  0  0  0  0  0  0  0  1  0  0
  -29.7315  -24.2722   19.1244 O   0  0  0  0  0  0  0  0  0  0  0  0
  -25.0136  -22.9024   22.6837 F   0  0  0  0  0  0  0  0  0  0  0  0
  -21.4185  -19.8853   23.2983 F   0  0  0  0  0  0  0  0  0  0  0  0
  1  2  1  0  0  0  0
  1  5  2  0  0  0  0
  2  6  2  0  0  0  0
  3  8  2  0  0  0  0
  3 17  1  0  0  0  0
  4  9  1  0  0  0  0
  4 17  2  0  0  0  0
  5 19  1  0  0  0  0
  6 21  1  0  0  0  0
  7 10  2  0  0  0  0
  7 20  1  0  0  0  0
  8 26  1  0  0  0  0
  9 26  2  0  0  0  0
 10 27  1  0  0  0  0
 11 12  2  0  0  0  0
 11 28  1  0  0  0  0
 12 30  1  0  0  0  0
 13 22  1  0  0  0  0
 13 27  2  0  0  0  0
 14 23  2  0  0  0  0
 14 25  1  0  0  0  0
 15 24  1  0  0  0  0
 15 25  2  0  0  0  0
 16 30  2  0  0  0  0
 16 31  1  0  0  0  0
 17 32  1  0  0  0  0
 18 32  1  0  0  0  0
 18 33  2  0  0  0  0
 18 34  1  0  0  0  0
 19 21  2  0  0  0  0
 19 39  1  0  0  0  0
 20 22  2  0  0  0  0
 20 40  1  0  0  0  0
 21 52  1  0  0  0  0
 22 41  1  0  0  0  0
 23 29  1  0  0  0  0
 23 56  1  0  0  0  0
 24 29  2  0  0  0  0
 24 57  1  0  0  0  0
 25 75  1  0  0  0  0
 26 84  1  0  0  0  0
 27 85  1  0  0  0  0
 28 31  2  0  0  0  0
 28 84  1  0  0  0  0
 29 86  1  0  0  0  0
 30 87  1  0  0  0  0
 31 88  1  0  0  0  0
 32 68  2  0  0  0  0
 33 69  1  0  0  0  0
 33 73  1  0  0  0  0
 34 74  1  0  0  0  0
 34 79  2  0  0  0  0
 35 53  1  0  0  0  0
 35 76  1  0  0  0  0
 35 80  2  0  0  0  0
 36 65  1  0  0  0  0
 36 70  1  0  0  0  0
 36 81  2  0  0  0  0
 37 66  1  0  0  0  0
 37 77  1  0  0  0  0
 37 82  2  0  0  0  0
 38 71  1  0  0  0  0
 38 72  1  0  0  0  0
 38 83  2  0  0  0  0
 39 42  1  0  0  0  0
 40 53  1  0  0  0  0
 41 70  1  0  0  0  0
 42 44  1  0  0  0  0
 43 45  1  0  0  0  0
 43 48  1  0  0  0  0
 44 52  1  0  0  0  0
 45 54  1  0  0  0  0
 46 49  1  0  0  0  0
 46 55  1  0  0  0  0
 47 50  1  0  0  0  0
 47 55  1  0  0  0  0
 48 71  1  0  0  0  0
 49 72  1  0  0  0  0
 50 72  1  0  0  0  0
 51 54  1  0  0  0  0
 51 71  1  0  0  0  0
 52 76  1  0  0  0  0
 53 70  1  0  0  0  0
 54 69  1  0  0  0  0
 55 75  1  0  0  0  0
 58 66  1  0  0  0  0
 59 67  1  0  0  0  0
 60 67  1  0  0  0  0
 61 67  1  0  0  0  0
 62 78  1  0  0  0  0
 63 64  1  0  0  0  0
 63 85  1  0  0  0  0
 64 86  1  0  0  0  0
 65 67  1  0  0  0  0
 65 77  1  0  0  0  0
 66 78  1  0  0  0  0
 68 69  1  0  0  0  0
M  CHG  1  78   1
M  ISO  4  38 100  63 101  72 100  85 101
M  END
> <Batch ID>
0147

> <Smiles>
CNC(C)C(=O)NC(C(=O)N1Cc2cc([101O:1][101CH2:1]COc3c(C)cc(NC4CC[100N:0]([100C:0](=O)N5CCCC(n6nc(-c7ccc(Oc8ccc(F)cc8F)cc7)c(C(N)=O)c6N)C5)CC4)cc3C)ccc2CC1C(=O)NC1CCCc2ccccc21)C(C)(C)C

> <Shape>
0.327

> <Color>
0.102

> <Negative vol penalty>
0.000

$$$$

  -OEChem-04052321333D

 85 94  0     1  0  0  0  0  0999 V2000
  -23.0021  -28.9557   12.2888 C   0  0  0  0  0  0  0  0  0  0  0  0
  -22.7401  -27.9869   13.2523 C   0  0  0  0  0  0  0  0  0  0  0  0
  -24.1075   -9.0994   21.4539 C   0  0  0  0  0  0  0  0  0  0  0  0
  -23.2103  -11.3244   21.7390 C   0  0  0  0  0  0  0  0  0  0  0  0
  -24.2558  -29.5634   12.2359 C   0  0  0  0  0  0  0  0  0  0  0  0
  -23.7321  -27.6246   14.1628 C   0  0  0  0  0  0  0  0  0  0  0  0
  -22.9426  -26.0002   20.0146 C   0  0  0  0  0  0  0  0  0  0  0  0
  -23.2799   -8.6347   22.4760 C   0  0  0  0  0  0  0  0  0  0  0  0
  -22.3826  -10.8597   22.7610 C   0  0  0  0  0  0  0  0  0  0  0  0
  -22.8779  -24.7571   20.6425 C   0  0  0  0  0  0  0  0  0  0  0  0
  -20.0342   -7.7643   22.8514 C   0  0  0  0  0  0  0  0  0  0  0  0
  -19.3486   -6.5687   22.6372 C   0  0  0  0  0  0  0  0  0  0  0  0
  -25.2207  -24.9201   21.1934 C   0  0  0  0  0  0  0  0  0  0  0  0
  -27.8960  -18.0005   20.4803 C   0  0  0  0  0  0  0  0  0  0  0  0
  -20.4546   -5.5918   24.5502 C   0  0  0  0  0  0  0  0  0  0  0  0
  -30.2921  -19.2840   20.2417 C   0  0  0  0  0  0  0  0  0  0  0  0
  -24.0728  -10.4443   21.0854 C   0  0  0  0  0  0  0  0  0  0  0  0
  -24.6315  -10.9818   18.6551 C   0  0  0  0  0  0  0  0  0  0  0  0
  -25.2606  -29.2153   13.1524 C   0  0  0  0  0  0  0  0  0  0  0  0
  -24.1514  -26.7089   19.9619 C   0  0  0  0  0  0  0  0  0  0  0  0
  -25.0009  -28.2273   14.1213 C   0  0  0  0  0  0  0  0  0  0  0  0
  -25.2975  -26.1732   20.5665 C   0  0  0  0  0  0  0  0  0  0  0  0
  -29.1484  -20.0518   20.3902 C   0  0  0  0  0  0  0  0  0  0  0  0
  -22.4174   -9.5148   23.1295 C   0  0  0  0  0  0  0  0  0  0  0  0
  -24.0177  -24.2155   21.2295 C   0  0  0  0  0  0  0  0  0  0  0  0
  -20.9301   -7.8737   23.9150 C   0  0  0  0  0  0  0  0  0  0  0  0
  -27.9315  -19.3902   20.5112 C   0  0  0  0  0  0  0  0  0  0  0  0
  -19.5587   -5.4824   23.4866 C   0  0  0  0  0  0  0  0  0  0  0  0
  -21.1402   -6.7874   24.7644 C   0  0  0  0  0  0  0  0  0  0  0  0
  -24.9280  -10.9250   20.0301 C   0  0  0  0  0  0  0  0  0  0  0  0
  -29.0958  -17.3245   20.3274 C   0  0  0  0  0  0  0  0  0  0  0  0
  -25.7615  -11.5118   18.0818 C   0  0  0  0  0  0  0  0  0  0  0  0
  -23.4410  -10.5906   17.9584 C   0  0  0  0  0  0  0  0  0  0  0  0
  -26.0527  -27.7305   17.6284 C   0  0  0  0  0  0  0  0  0  0  0  0
  -27.6358  -29.1594   20.0726 C   0  0  0  0  0  0  0  0  0  0  0  0
  -28.3730  -29.2206   23.4042 C   0  0  0  0  0  0  0  0  0  0  0  0
  -30.1236  -15.0311   20.1535 C   0  0  0  0  0  0  0  0  0  0  0  0
  -26.6155  -29.8657   13.0260 C   0  0  0  0  0  0  0  0  0  0  0  0
  -24.1984  -28.0608   19.3042 C   0  0  0  0  0  0  0  0  0  0  0  0
  -26.6149  -26.9032   20.5551 C   0  0  0  0  0  0  0  0  0  0  0  0
  -27.4913  -29.6943   14.2645 C   0  0  0  0  0  0  0  0  0  0  0  0
  -30.5001  -11.7966   18.7136 C   0  0  0  0  0  0  0  0  0  0  0  0
  -27.4625  -28.2460   14.7424 C   0  0  0  0  0  0  0  0  0  0  0  0
  -27.7584  -22.4250   18.4342 C   0  0  0  0  0  0  0  0  0  0  0  0
  -28.6316  -23.5700   18.8656 C   0  0  0  0  0  0  0  0  0  0  0  0
  -29.0858  -11.2135   18.7571 C   0  0  0  0  0  0  0  0  0  0  0  0
  -30.8002  -12.6491   19.9452 C   0  0  0  0  0  0  0  0  0  0  0  0
  -28.4039  -13.1218   20.2673 C   0  0  0  0  0  0  0  0  0  0  0  0
  -26.0432  -27.8250   15.1420 C   0  0  1  0  0  0  0  0  0  0  0  0
  -25.6022  -28.4615   18.8614 C   0  0  1  0  0  0  0  0  0  0  0  0
  -29.1141  -22.1550   19.0257 C   0  0  0  0  0  0  0  0  0  0  0  0
  -28.0325  -12.3085   19.0166 C   0  0  2  0  0  0  0  0  0  0  0  0
  -29.7254  -30.4832   25.0996 C   0  0  0  0  0  0  0  0  0  0  0  0
  -30.1713  -27.7951   19.0626 C   0  0  0  0  0  0  0  0  0  0  0  0
  -31.2387  -28.2994   21.2704 C   0  0  0  0  0  0  0  0  0  0  0  0
  -30.4837  -30.1652   19.7968 C   0  0  0  0  0  0  0  0  0  0  0  0
  -25.9565  -29.9905   24.9296 C   0  0  0  0  0  0  0  0  0  0  0  0
  -29.2377  -21.5378   20.4175 C   0  0  0  0  0  0  0  0  0  0  0  0
  -24.7830  -20.7350   21.8710 C   0  0  0  0  0  0  0  0  0  0  0  0
  -25.1454  -22.2114   21.8357 C   0  0  0  0  0  0  0  0  0  1  0  0
  -26.0162  -19.8457   21.8453 C   0  0  0  0  0  0  0  0  0  0  0  0
  -28.7597  -28.7589   20.9976 C   0  0  1  0  0  0  0  0  0  0  0  0
  -28.3736  -30.3532   24.4151 C   0  0  2  0  0  0  0  0  0  0  0  0
  -30.1391  -28.7398   20.2806 C   0  0  0  0  0  0  0  0  0  0  0  0
  -30.2972  -17.9326   20.2070 N   0  0  0  0  0  0  0  0  0  0  0  0
  -26.1506  -11.3822   20.3133 N   0  0  0  0  0  0  0  0  0  0  0  0
  -26.6323  -11.7314   19.1083 N   0  0  0  0  0  0  0  0  0  0  0  0
  -26.6115  -28.2188   19.8943 N   0  0  0  0  0  0  0  0  0  0  0  0
  -29.7630  -13.6673   20.1254 N   0  0  0  0  0  0  0  0  0  0  0  0
  -26.0853  -11.8067   16.8049 N   0  0  0  0  0  0  0  0  0  0  0  0
  -22.3748  -10.0647   18.7006 N   0  0  0  0  0  0  0  0  0  0  0  0
  -29.0494  -15.9087   20.2971 N   0  0  0  0  0  0  0  0  0  0  0  0
  -25.7067  -28.3558   16.4457 N   0  0  0  0  0  0  0  0  0  0  0  0
  -28.6919  -29.6655   22.1387 N   0  0  0  0  0  0  0  0  0  0  0  0
  -27.3385  -30.1150   25.4604 N   0  3  0  0  0  0  0  0  0  0  0  0
  -23.3324  -10.6887   16.7125 O   0  0  0  0  0  0  0  0  0  0  0  0
  -26.6698  -26.6779   17.7416 O   0  0  0  0  0  0  0  0  0  0  0  0
  -27.6622  -30.2687   19.5340 O   0  0  0  0  0  0  0  0  0  0  0  0
  -28.1190  -28.0571   23.7077 O   0  0  0  0  0  0  0  0  0  0  0  0
  -31.2959  -15.3951   20.0299 O   0  0  0  0  0  0  0  0  0  0  0  0
  -21.6095   -9.0617   24.1267 O   0  0  0  0  0  0  0  0  0  0  0  0
  -23.9575  -23.0020   21.8424 O   0  0  0  0  0  0  0  0  0  1  0  0
  -26.7628  -20.0905   20.6611 O   0  0  0  0  0  0  0  0  0  0  0  0
  -18.8990   -4.3348   23.2818 F   0  0  0  0  0  0  0  0  0  0  0  0
  -21.9988   -6.8869   25.7885 F   0  0  0  0  0  0  0  0  0  0  0  0
  1  2  1  0  0  0  0
  1  5  2  0  0  0  0
  2  6  2  0  0  0  0
  3  8  2  0  0  0  0
  3 17  1  0  0  0  0
  4  9  1  0  0  0  0
  4 17  2  0  0  0  0
  5 19  1  0  0  0  0
  6 21  1  0  0  0  0
  7 10  2  0  0  0  0
  7 20  1  0  0  0  0
  8 24  1  0  0  0  0
  9 24  2  0  0  0  0
 10 25  1  0  0  0  0
 11 12  2  0  0  0  0
 11 26  1  0  0  0  0
 12 28  1  0  0  0  0
 13 22  1  0  0  0  0
 13 25  2  0  0  0  0
 14 27  1  0  0  0  0
 14 31  2  0  0  0  0
 15 28  2  0  0  0  0
 15 29  1  0  0  0  0
 16 23  1  0  0  0  0
 16 65  2  0  0  0  0
 17 30  1  0  0  0  0
 18 30  1  0  0  0  0
 18 32  2  0  0  0  0
 18 33  1  0  0  0  0
 19 21  2  0  0  0  0
 19 38  1  0  0  0  0
 20 22  2  0  0  0  0
 20 39  1  0  0  0  0
 21 49  1  0  0  0  0
 22 40  1  0  0  0  0
 23 27  2  0  0  0  0
 23 58  1  0  0  0  0
 24 81  1  0  0  0  0
 25 82  1  0  0  0  0
 26 29  2  0  0  0  0
 26 81  1  0  0  0  0
 27 83  1  0  0  0  0
 28 84  1  0  0  0  0
 29 85  1  0  0  0  0
 30 66  2  0  0  0  0
 31 65  1  0  0  0  0
 31 72  1  0  0  0  0
 32 67  1  0  0  0  0
 32 70  1  0  0  0  0
 33 71  1  0  0  0  0
 33 76  2  0  0  0  0
 34 50  1  0  0  0  0
 34 73  1  0  0  0  0
 34 77  2  0  0  0  0
 35 62  1  0  0  0  0
 35 68  1  0  0  0  0
 35 78  2  0  0  0  0
 36 63  1  0  0  0  0
 36 74  1  0  0  0  0
 36 79  2  0  0  0  0
 37 69  1  0  0  0  0
 37 72  1  0  0  0  0
 37 80  2  0  0  0  0
 38 41  1  0  0  0  0
 39 50  1  0  0  0  0
 40 68  1  0  0  0  0
 41 43  1  0  0  0  0
 42 46  1  0  0  0  0
 42 47  1  0  0  0  0
 43 49  1  0  0  0  0
 44 45  1  0  0  0  0
 44 51  1  0  0  0  0
 45 51  1  0  0  0  0
 46 52  1  0  0  0  0
 47 69  1  0  0  0  0
 48 52  1  0  0  0  0
 48 69  1  0  0  0  0
 49 73  1  0  0  0  0
 50 68  1  0  0  0  0
 51 58  1  0  0  0  0
 52 67  1  0  0  0  0
 53 63  1  0  0  0  0
 54 64  1  0  0  0  0
 55 64  1  0  0  0  0
 56 64  1  0  0  0  0
 57 75  1  0  0  0  0
 59 60  1  0  0  0  0
 59 61  1  0  0  0  0
 60 82  1  0  0  0  0
 61 83  1  0  0  0  0
 62 64  1  0  0  0  0
 62 74  1  0  0  0  0
 63 75  1  0  0  0  0
 66 67  1  0  0  0  0
M  CHG  1  75   1
M  ISO  4  37 100  60 101  72 100  82 101
M  END
> <Batch ID>
0147

> <Smiles>
CNC(C)C(=O)NC(C(=O)N1Cc2cc([101O:1][101CH2:1]CCOc3cc([100NH:0][100C:0](=O)N4CCCC(n5nc(-c6ccc(Oc7ccc(F)cc7F)cc6)c(C(N)=O)c5N)C4)ncc3CC3CC3)ccc2CC1C(=O)NC1CCCc2ccccc21)C(C)(C)C

> <Shape>
0.227

> <Color>
0.067

> <Negative vol penalty>
0.000

$$$$

  -OEChem-04052321333D

 92101  0     1  0  0  0  0  0999 V2000
  -16.9832  -30.1754   24.7068 C   0  0  0  0  0  0  0  0  0  0  0  0
  -17.3775  -28.8752   24.4073 C   0  0  0  0  0  0  0  0  0  0  0  0
  -22.7649  -11.7793   21.4045 C   0  0  0  0  0  0  0  0  0  0  0  0
  -23.7660  -13.0478   23.2005 C   0  0  0  0  0  0  0  0  0  0  0  0
  -17.5196  -31.2469   23.9941 C   0  0  0  0  0  0  0  0  0  0  0  0
  -18.3075  -28.6459   23.3940 C   0  0  0  0  0  0  0  0  0  0  0  0
  -22.5917  -24.2720   23.2503 C   0  0  0  0  0  0  0  0  0  0  0  0
  -21.8009  -11.2913   22.2865 C   0  0  0  0  0  0  0  0  0  0  0  0
  -22.8019  -12.5598   24.0826 C   0  0  0  0  0  0  0  0  0  0  0  0
  -22.6380  -23.0244   22.6298 C   0  0  0  0  0  0  0  0  0  0  0  0
  -21.5918   -8.9156   24.6816 C   0  0  0  0  0  0  0  0  0  0  0  0
  -21.3004   -7.5524   24.6326 C   0  0  0  0  0  0  0  0  0  0  0  0
  -23.8297  -23.9990   20.7726 C   0  0  0  0  0  0  0  0  0  0  0  0
  -30.8336  -18.2064   19.4695 C   0  0  0  0  0  0  0  0  0  0  0  0
  -33.0189  -17.8988   20.4527 C   0  0  0  0  0  0  0  0  0  0  0  0
  -31.7303  -19.8766   20.9674 C   0  0  0  0  0  0  0  0  0  0  0  0
  -19.0007   -8.0632   24.0963 C   0  0  0  0  0  0  0  0  0  0  0  0
  -23.7475  -12.6576   21.8615 C   0  0  0  0  0  0  0  0  0  0  0  0
  -24.6677  -14.3296   20.1689 C   0  0  0  0  0  0  0  0  0  0  0  0
  -18.4639  -31.0312   22.9781 C   0  0  0  0  0  0  0  0  0  0  0  0
  -23.1555  -25.3965   22.6306 C   0  0  0  0  0  0  0  0  0  0  0  0
  -18.8560  -29.7155   22.6661 C   0  0  0  0  0  0  0  0  0  0  0  0
  -23.7915  -25.2592   21.3885 C   0  0  0  0  0  0  0  0  0  0  0  0
  -31.9916  -17.4447   19.6257 C   0  0  0  0  0  0  0  0  0  0  0  0
  -21.8193  -11.6815   23.6255 C   0  0  0  0  0  0  0  0  0  0  0  0
  -23.2545  -22.8882   21.3894 C   0  0  0  0  0  0  0  0  0  0  0  0
  -20.5876   -9.8526   24.4381 C   0  0  0  0  0  0  0  0  0  0  0  0
  -30.7030  -19.4224   20.1403 C   0  0  0  0  0  0  0  0  0  0  0  0
  -32.8883  -19.1148   21.1236 C   0  0  0  0  0  0  0  0  0  0  0  0
  -20.0049   -7.1262   24.3399 C   0  0  0  0  0  0  0  0  0  0  0  0
  -19.2921   -9.4264   24.1454 C   0  0  0  0  0  0  0  0  0  0  0  0
  -24.7440  -13.1616   20.9510 C   0  0  0  0  0  0  0  0  0  0  0  0
  -25.8576  -14.3624   19.4836 C   0  0  0  0  0  0  0  0  0  0  0  0
  -23.6154  -15.2985   20.0706 C   0  0  0  0  0  0  0  0  0  0  0  0
  -22.0297  -28.1733   21.5695 C   0  0  0  0  0  0  0  0  0  0  0  0
  -25.1708  -28.8126   21.0728 C   0  0  0  0  0  0  0  0  0  0  0  0
  -28.3226  -27.6156   20.5432 C   0  0  0  0  0  0  0  0  0  0  0  0
  -31.4094  -13.8112   19.3430 C   0  0  0  0  0  0  0  0  0  0  0  0
  -18.9803  -32.2177   22.2032 C   0  0  0  0  0  0  0  0  0  0  0  0
  -23.1207  -26.7301   23.3253 C   0  0  0  0  0  0  0  0  0  0  0  0
  -24.4296  -26.4314   20.6905 C   0  0  0  0  0  0  0  0  0  0  0  0
  -20.2413  -31.9167   21.3972 C   0  0  0  0  0  0  0  0  0  0  0  0
  -29.4640  -10.8515   18.9795 C   0  0  0  0  0  0  0  0  0  0  0  0
  -20.0854  -30.6067   20.6314 C   0  0  0  0  0  0  0  0  0  0  0  0
  -28.0585  -11.2834   19.4013 C   0  0  0  0  0  0  0  0  0  0  0  0
  -27.4314  -19.4661   19.1549 C   0  0  0  0  0  0  0  0  0  0  0  0
  -27.6848  -20.3826   21.4839 C   0  0  0  0  0  0  0  0  0  0  0  0
  -30.5407  -11.5399   19.8154 C   0  0  0  0  0  0  0  0  0  0  0  0
  -29.0441  -13.4435   20.2739 C   0  0  0  0  0  0  0  0  0  0  0  0
  -26.0544  -18.9322   19.5176 C   0  0  0  0  0  0  0  0  0  0  0  0
  -26.3072  -19.8468   21.8413 C   0  0  0  0  0  0  0  0  0  0  0  0
  -19.8811  -29.4279   21.5906 C   0  0  1  0  0  0  0  0  0  0  0  0
  -23.2749  -27.9072   22.3671 C   0  0  1  0  0  0  0  0  0  0  0  0
  -27.9262  -12.8181   19.4221 C   0  0  2  0  0  0  0  0  0  0  0  0
  -28.3406  -19.5617   20.3764 C   0  0  0  0  0  0  0  0  0  0  0  0
  -34.1927  -20.9941   25.3864 C   0  0  0  0  0  0  0  0  0  0  0  0
  -32.0695  -16.2976   17.3807 C   0  0  0  0  0  0  0  0  0  0  0  0
  -30.6777  -28.3805   20.1359 C   0  0  0  0  0  0  0  0  0  0  0  0
  -24.4463  -29.5000   18.1896 C   0  0  0  0  0  0  0  0  0  0  0  0
  -26.8758  -29.3249   17.6108 C   0  0  0  0  0  0  0  0  0  0  0  0
  -26.1057  -31.0450   19.2450 C   0  0  0  0  0  0  0  0  0  0  0  0
  -29.2993  -26.3002   23.0079 C   0  0  0  0  0  0  0  0  0  0  0  0
  -34.5338  -20.1697   24.1581 C   0  0  0  0  0  0  0  0  0  0  0  0
  -24.0383  -19.3868   20.9136 C   0  0  0  0  0  0  0  0  0  0  0  0
  -33.5193  -20.3697   23.0427 C   0  0  0  0  0  0  0  0  0  0  0  0
  -23.3335  -20.5233   21.6277 C   0  0  0  0  0  0  0  0  0  1  0  0
  -32.1318  -16.1452   18.9075 C   0  0  2  0  0  0  0  0  0  0  0  0
  -26.1349  -28.6111   19.9287 C   0  0  1  0  0  0  0  0  0  0  0  0
  -29.6541  -27.9671   21.1819 C   0  0  2  0  0  0  0  0  0  0  0  0
  -25.8771  -29.5983   18.7555 C   0  0  0  0  0  0  0  0  0  0  0  0
  -25.8916  -12.5001   20.7792 N   0  0  0  0  0  0  0  0  0  0  0  0
  -26.5473  -13.2549   19.8812 N   0  0  0  0  0  0  0  0  0  0  0  0
  -24.3640  -27.7157   21.4072 N   0  0  0  0  0  0  0  0  0  0  0  0
  -30.3595  -12.9934   19.7923 N   0  0  0  0  0  0  0  0  0  0  0  0
  -26.3708  -15.2300   18.5858 N   0  0  0  0  0  0  0  0  0  0  0  0
  -22.4616  -15.1124   20.8441 N   0  0  0  0  0  0  0  0  0  0  0  0
  -21.1413  -29.0350   22.1840 N   0  0  0  0  0  0  0  0  0  0  0  0
  -27.4734  -28.7011   20.5022 N   0  0  0  0  0  0  0  0  0  0  0  0
  -31.1523  -15.1767   19.3472 N   0  0  0  0  0  0  0  0  0  0  0  0
  -25.4501  -19.7985   20.5980 N   0  3  0  0  0  0  0  0  0  0  0  0
  -30.1940  -26.7975   21.9312 N   0  3  0  0  0  0  0  0  0  0  0  0
  -23.6890  -16.2908   19.3067 O   0  0  0  0  0  0  0  0  0  0  0  0
  -21.8862  -27.6376   20.4767 O   0  0  0  0  0  0  0  0  0  0  0  0
  -25.1399  -29.9006   21.6531 O   0  0  0  0  0  0  0  0  0  0  0  0
  -28.0632  -26.4914   20.1194 O   0  0  0  0  0  0  0  0  0  0  0  0
  -32.4935  -13.3577   18.9611 O   0  0  0  0  0  0  0  0  0  0  0  0
  -20.8786  -11.2056   24.4865 O   0  0  0  0  0  0  0  0  0  0  0  0
  -29.5662  -20.1712   19.9874 O   0  0  0  0  0  0  0  0  0  0  0  0
  -23.3005  -21.6717   20.7813 O   0  0  0  0  0  0  0  0  0  1  0  0
  -33.8914  -19.5583   21.9298 O   0  0  0  0  0  0  0  0  0  0  0  0
  -19.7256   -5.8171   24.2912 F   0  0  0  0  0  0  0  0  0  0  0  0
  -18.3235  -10.3219   23.9094 F   0  0  0  0  0  0  0  0  0  0  0  0
  1  2  1  0  0  0  0
  1  5  2  0  0  0  0
  2  6  2  0  0  0  0
  3  8  2  0  0  0  0
  3 18  1  0  0  0  0
  4  9  1  0  0  0  0
  4 18  2  0  0  0  0
  5 20  1  0  0  0  0
  6 22  1  0  0  0  0
  7 10  2  0  0  0  0
  7 21  1  0  0  0  0
  8 25  1  0  0  0  0
  9 25  2  0  0  0  0
 10 26  1  0  0  0  0
 11 12  2  0  0  0  0
 11 27  1  0  0  0  0
 12 30  1  0  0  0  0
 13 23  1  0  0  0  0
 13 26  2  0  0  0  0
 14 24  2  0  0  0  0
 14 28  1  0  0  0  0
 15 24  1  0  0  0  0
 15 29  2  0  0  0  0
 16 28  2  0  0  0  0
 16 29  1  0  0  0  0
 17 30  2  0  0  0  0
 17 31  1  0  0  0  0
 18 32  1  0  0  0  0
 19 32  1  0  0  0  0
 19 33  2  0  0  0  0
 19 34  1  0  0  0  0
 20 22  2  0  0  0  0
 20 39  1  0  0  0  0
 21 23  2  0  0  0  0
 21 40  1  0  0  0  0
 22 52  1  0  0  0  0
 23 41  1  0  0  0  0
 24 67  1  0  0  0  0
 25 87  1  0  0  0  0
 26 89  1  0  0  0  0
 27 31  2  0  0  0  0
 27 87  1  0  0  0  0
 28 88  1  0  0  0  0
 29 90  1  0  0  0  0
 30 91  1  0  0  0  0
 31 92  1  0  0  0  0
 32 71  2  0  0  0  0
 33 72  1  0  0  0  0
 33 75  1  0  0  0  0
 34 76  1  0  0  0  0
 34 82  2  0  0  0  0
 35 53  1  0  0  0  0
 35 77  1  0  0  0  0
 35 83  2  0  0  0  0
 36 68  1  0  0  0  0
 36 73  1  0  0  0  0
 36 84  2  0  0  0  0
 37 69  1  0  0  0  0
 37 78  1  0  0  0  0
 37 85  2  0  0  0  0
 38 74  1  0  0  0  0
 38 79  1  0  0  0  0
 38 86  2  0  0  0  0
 39 42  1  0  0  0  0
 40 53  1  0  0  0  0
 41 73  1  0  0  0  0
 42 44  1  0  0  0  0
 43 45  1  0  0  0  0
 43 48  1  0  0  0  0
 44 52  1  0  0  0  0
 45 54  1  0  0  0  0
 46 50  1  0  0  0  0
 46 55  1  0  0  0  0
 47 51  1  0  0  0  0
 47 55  1  0  0  0  0
 48 74  1  0  0  0  0
 49 54  1  0  0  0  0
 49 74  1  0  0  0  0
 50 80  1  0  0  0  0
 51 80  1  0  0  0  0
 52 77  1  0  0  0  0
 53 73  1  0  0  0  0
 54 72  1  0  0  0  0
 55 88  1  0  0  0  0
 56 63  1  0  0  0  0
 57 67  1  0  0  0  0
 58 69  1  0  0  0  0
 59 70  1  0  0  0  0
 60 70  1  0  0  0  0
 61 70  1  0  0  0  0
 62 81  1  0  0  0  0
 63 65  1  0  0  0  0
 64 66  1  0  0  0  0
 64 80  1  0  0  0  0
 65 90  1  0  0  0  0
 66 89  1  0  0  0  0
 67 79  1  0  0  0  0
 68 70  1  0  0  0  0
 68 78  1  0  0  0  0
 69 81  1  0  0  0  0
 71 72  1  0  0  0  0
M  CHG  2  80   1  81   1
M  ISO  4  38 100  66 101  79 100  89 101
M  END
> <Batch ID>
0147

> <Smiles>
CCCOc1cc(OC2CCN(C[101CH2:1][101O:1]c3ccc4c(c3)CN(C(=O)C(NC(=O)C(C)NC)C(C)(C)C)C(C(=O)NC3CCCc5ccccc53)C4)CC2)cc(C(C)[100NH:0][100C:0](=O)N2CCCC(n3nc(-c4ccc(Oc5ccc(F)cc5F)cc4)c(C(N)=O)c3N)C2)c1

> <Shape>
0.232

> <Color>
0.087

> <Negative vol penalty>
0.000

$$$$

  -OEChem-04052321333D

 87 97  0     1  0  0  0  0  0999 V2000
  -16.9994  -29.2072   24.5414 C   0  0  0  0  0  0  0  0  0  0  0  0
  -17.3757  -28.1518   23.7168 C   0  0  0  0  0  0  0  0  0  0  0  0
  -24.9395  -16.6067   21.3517 C   0  0  0  0  0  0  0  0  0  0  0  0
  -25.2452  -15.6941   19.1357 C   0  0  0  0  0  0  0  0  0  0  0  0
  -17.6674  -30.4282   24.4577 C   0  0  0  0  0  0  0  0  0  0  0  0
  -18.4196  -28.3172   22.8072 C   0  0  0  0  0  0  0  0  0  0  0  0
  -22.5033  -24.0920   21.0820 C   0  0  0  0  0  0  0  0  0  0  0  0
  -23.7315  -15.9192   21.4683 C   0  0  0  0  0  0  0  0  0  0  0  0
  -24.0372  -15.0064   19.2523 C   0  0  0  0  0  0  0  0  0  0  0  0
  -22.5788  -23.2616   19.9646 C   0  0  0  0  0  0  0  0  0  0  0  0
  -20.7437  -14.1187   22.4913 C   0  0  0  0  0  0  0  0  0  0  0  0
  -20.4933  -13.4458   23.6871 C   0  0  0  0  0  0  0  0  0  0  0  0
  -25.8424  -20.7722   12.7653 C   0  0  0  0  0  0  0  0  0  0  0  0
  -25.9846  -22.0802   15.2601 C   0  0  0  0  0  0  0  0  0  0  0  0
  -24.0409  -24.8511   18.8898 C   0  0  0  0  0  0  0  0  0  0  0  0
  -22.4637  -12.0919   23.3379 C   0  0  0  0  0  0  0  0  0  0  0  0
  -25.6963  -16.4942   20.1854 C   0  0  0  0  0  0  0  0  0  0  0  0
  -28.2232  -16.7447   20.4299 C   0  0  0  0  0  0  0  0  0  0  0  0
  -18.7263  -30.6056   23.5533 C   0  0  0  0  0  0  0  0  0  0  0  0
  -23.1885  -25.3152   21.1074 C   0  0  0  0  0  0  0  0  0  0  0  0
  -19.1015  -29.5421   22.7103 C   0  0  0  0  0  0  0  0  0  0  0  0
  -27.0517  -20.9011   13.4347 C   0  0  0  0  0  0  0  0  0  0  0  0
  -24.7662  -21.9615   14.5866 C   0  0  0  0  0  0  0  0  0  0  0  0
  -23.9746  -25.6939   20.0098 C   0  0  0  0  0  0  0  0  0  0  0  0
  -24.6937  -21.3050   13.3511 C   0  0  0  0  0  0  0  0  0  0  0  0
  -27.1168  -21.5182   14.6862 C   0  0  0  0  0  0  0  0  0  0  0  0
  -23.2803  -15.1190   20.4186 C   0  0  0  0  0  0  0  0  0  0  0  0
  -23.3454  -23.6424   18.8671 C   0  0  0  0  0  0  0  0  0  0  0  0
  -21.8541  -13.7782   21.7187 C   0  0  0  0  0  0  0  0  0  0  0  0
  -21.3533  -12.4324   24.1104 C   0  0  0  0  0  0  0  0  0  0  0  0
  -22.7141  -12.7648   22.1420 C   0  0  0  0  0  0  0  0  0  0  0  0
  -26.9440  -17.2047   20.0641 C   0  0  0  0  0  0  0  0  0  0  0  0
  -29.0644  -17.7843   20.1168 C   0  0  0  0  0  0  0  0  0  0  0  0
  -28.6160  -15.4898   21.0014 C   0  0  0  0  0  0  0  0  0  0  0  0
  -22.3250  -28.3654   21.3402 C   0  0  0  0  0  0  0  0  0  0  0  0
  -25.5276  -28.8552   21.5005 C   0  0  0  0  0  0  0  0  0  0  0  0
  -28.6698  -27.7305   20.7876 C   0  0  0  0  0  0  0  0  0  0  0  0
  -28.9241  -22.1936   16.2817 C   0  0  0  0  0  0  0  0  0  0  0  0
  -19.3873  -31.9584   23.4658 C   0  0  0  0  0  0  0  0  0  0  0  0
  -23.1183  -26.1871   22.3310 C   0  0  0  0  0  0  0  0  0  0  0  0
  -24.7456  -26.9877   19.9952 C   0  0  0  0  0  0  0  0  0  0  0  0
  -20.7290  -31.9348   22.7381 C   0  0  0  0  0  0  0  0  0  0  0  0
  -29.1491  -22.5493   19.7027 C   0  0  0  0  0  0  0  0  0  0  0  0
  -20.6206  -31.1342   21.4442 C   0  0  0  0  0  0  0  0  0  0  0  0
  -28.7470  -21.1722   20.2331 C   0  0  0  0  0  0  0  0  0  0  0  0
  -22.8026  -23.8217   14.5640 C   0  0  0  0  0  0  0  0  0  0  0  0
  -28.2592  -22.9706   18.5379 C   0  0  0  0  0  0  0  0  0  0  0  0
  -27.8196  -20.6156   17.9337 C   0  0  0  0  0  0  0  0  0  0  0  0
  -23.4647  -22.5871   15.2427 C   0  0  2  0  0  0  0  0  0  0  0  0
  -28.4067  -20.4257   12.9906 C   0  0  2  0  0  0  0  0  0  0  0  0
  -20.2452  -29.6748   21.7283 C   0  0  1  0  0  0  0  0  0  0  0  0
  -23.4439  -27.6493   22.0422 C   0  0  1  0  0  0  0  0  0  0  0  0
  -22.4129  -24.3136   15.9773 C   0  0  1  0  0  0  0  0  0  0  0  0
  -28.7029  -20.1300   19.1002 C   0  0  2  0  0  0  0  0  0  0  0  0
  -23.6181  -23.4911   16.5095 C   0  0  1  0  0  0  0  0  0  1  0  0
  -29.3327  -21.0892   14.0455 C   0  0  2  0  0  0  0  0  0  0  0  0
  -23.3896  -21.1738   12.6346 C   0  0  0  0  0  0  0  0  0  0  0  0
  -28.7739  -20.8354   11.5703 C   0  0  0  0  0  0  0  0  0  0  0  0
  -22.4619  -25.8103   16.2084 C   0  0  0  0  0  0  0  0  0  0  0  0
  -30.4068  -20.1158   14.5278 C   0  0  0  0  0  0  0  0  0  0  0  0
  -31.1786  -27.6730   20.7895 C   0  0  0  0  0  0  0  0  0  0  0  0
  -25.2132  -30.8378   19.2026 C   0  0  0  0  0  0  0  0  0  0  0  0
  -27.6881  -30.7108   18.8466 C   0  0  0  0  0  0  0  0  0  0  0  0
  -26.7830  -31.5714   21.0059 C   0  0  0  0  0  0  0  0  0  0  0  0
  -28.7479  -26.1778   23.3059 C   0  0  0  0  0  0  0  0  0  0  0  0
  -26.6233  -29.1012   20.4917 C   0  0  1  0  0  0  0  0  0  0  0  0
  -29.9201  -27.6256   21.6420 C   0  0  2  0  0  0  0  0  0  0  0  0
  -26.5610  -30.5318   19.8859 C   0  0  0  0  0  0  0  0  0  0  0  0
  -26.9657  -18.4404   19.5577 N   0  0  0  0  0  0  0  0  0  0  0  0
  -28.2688  -18.7658   19.6030 N   0  0  0  0  0  0  0  0  0  0  0  0
  -28.4516  -21.5312   15.1533 N   0  0  0  0  0  0  0  0  0  0  0  0
  -24.6399  -27.8088   21.2126 N   0  0  0  0  0  0  0  0  0  0  0  0
  -28.2559  -21.9495   17.4909 N   0  0  0  0  0  0  0  0  0  0  0  0
  -30.3996  -17.9456   20.2338 N   0  0  0  0  0  0  0  0  0  0  0  0
  -27.6244  -14.5335   21.2592 N   0  0  0  0  0  0  0  0  0  0  0  0
  -21.4002  -28.9371   22.1931 N   0  0  0  0  0  0  0  0  0  0  0  0
  -27.8783  -28.7932   21.1688 N   0  0  0  0  0  0  0  0  0  0  0  0
  -29.9188  -26.3468   22.4073 N   0  3  0  0  0  0  0  0  0  0  0  0
  -29.8088  -15.2306   21.2905 O   0  0  0  0  0  0  0  0  0  0  0  0
  -22.3031  -28.3982   20.1154 O   0  0  0  0  0  0  0  0  0  0  0  0
  -25.4660  -29.5608   22.5105 O   0  0  0  0  0  0  0  0  0  0  0  0
  -28.4220  -26.9501   19.8710 O   0  0  0  0  0  0  0  0  0  0  0  0
  -29.9233  -22.9207   16.2213 O   0  0  0  0  0  0  0  0  0  0  0  0
  -22.1018  -14.4477   20.5321 O   0  0  0  0  0  0  0  0  0  0  0  0
  -23.4204  -22.8329   17.7732 O   0  0  0  0  0  0  0  0  0  1  0  0
  -21.1136  -11.7873   25.2596 F   0  0  0  0  0  0  0  0  0  0  0  0
  -23.7830  -12.4341   21.4046 F   0  0  0  0  0  0  0  0  0  0  0  0
  1  2  1  0  0  0  0
  1  5  2  0  0  0  0
  2  6  2  0  0  0  0
  3  8  2  0  0  0  0
  3 17  1  0  0  0  0
  4  9  1  0  0  0  0
  4 17  2  0  0  0  0
  5 19  1  0  0  0  0
  6 21  1  0  0  0  0
  7 10  2  0  0  0  0
  7 20  1  0  0  0  0
  8 27  1  0  0  0  0
  9 27  2  0  0  0  0
 10 28  1  0  0  0  0
 11 12  2  0  0  0  0
 11 29  1  0  0  0  0
 12 30  1  0  0  0  0
 13 22  2  0  0  0  0
 13 25  1  0  0  0  0
 14 23  1  0  0  0  0
 14 26  2  0  0  0  0
 15 24  1  0  0  0  0
 15 28  2  0  0  0  0
 16 30  2  0  0  0  0
 16 31  1  0  0  0  0
 17 32  1  0  0  0  0
 18 32  1  0  0  0  0
 18 33  2  0  0  0  0
 18 34  1  0  0  0  0
 19 21  2  0  0  0  0
 19 39  1  0  0  0  0
 20 24  2  0  0  0  0
 20 40  1  0  0  0  0
 21 51  1  0  0  0  0
 22 26  1  0  0  0  0
 22 50  1  0  0  0  0
 23 25  2  0  0  0  0
 23 49  1  0  0  0  0
 24 41  1  0  0  0  0
 25 57  1  0  0  0  0
 26 71  1  0  0  0  0
 27 84  1  0  0  0  0
 28 85  1  0  0  0  0
 29 31  2  0  0  0  0
 29 84  1  0  0  0  0
 30 86  1  0  0  0  0
 31 87  1  0  0  0  0
 32 69  2  0  0  0  0
 33 70  1  0  0  0  0
 33 74  1  0  0  0  0
 34 75  1  0  0  0  0
 34 79  2  0  0  0  0
 35 52  1  0  0  0  0
 35 76  1  0  0  0  0
 35 80  2  0  0  0  0
 36 66  1  0  0  0  0
 36 72  1  0  0  0  0
 36 81  2  0  0  0  0
 37 67  1  0  0  0  0
 37 77  1  0  0  0  0
 37 82  2  0  0  0  0
 38 71  1  0  0  0  0
 38 73  1  0  0  0  0
 38 83  2  0  0  0  0
 39 42  1  0  0  0  0
 40 52  1  0  0  0  0
 41 72  1  0  0  0  0
 42 44  1  0  0  0  0
 43 45  1  0  0  0  0
 43 47  1  0  0  0  0
 44 51  1  0  0  0  0
 45 54  1  0  0  0  0
 46 49  1  0  0  0  0
 46 53  1  0  0  0  0
 47 73  1  0  0  0  0
 48 54  1  0  0  0  0
 48 73  1  0  0  0  0
 49 55  1  0  0  0  0
 50 56  1  0  0  0  0
 50 58  1  0  0  0  0
 51 76  1  0  0  0  0
 52 72  1  0  0  0  0
 53 55  1  0  0  0  0
 53 59  1  0  0  0  0
 54 70  1  0  0  0  0
 55 85  1  0  0  0  0
 56 60  1  0  0  0  0
 56 71  1  0  0  0  0
 61 67  1  0  0  0  0
 62 68  1  0  0  0  0
 63 68  1  0  0  0  0
 64 68  1  0  0  0  0
 65 78  1  0  0  0  0
 66 68  1  0  0  0  0
 66 77  1  0  0  0  0
 67 78  1  0  0  0  0
 69 70  1  0  0  0  0
M  CHG  1  78   1
M  ISO  4  38 100  55 101  71 100  85 101
M  END
> <Batch ID>
0147

> <Smiles>
CNC(C)C(=O)NC(C(=O)N1Cc2cc([101O:1][101CH:1]3C(C)CC3c3cc4c(cc3C)C(C)C(C)[100N:0]4[100C:0](=O)N3CCCC(n4nc(-c5ccc(Oc6ccc(F)cc6F)cc5)c(C(N)=O)c4N)C3)ccc2CC1C(=O)NC1CCCc2ccccc21)C(C)(C)C

> <Shape>
0.214

> <Color>
0.088

> <Negative vol penalty>
0.000

$$$$

  -OEChem-04052321333D

 89 98  0     1  0  0  0  0  0999 V2000
  -18.0479  -22.9717   25.6315 C   0  0  0  0  0  0  0  0  0  0  0  0
  -19.4134  -22.7246   25.7294 C   0  0  0  0  0  0  0  0  0  0  0  0
  -23.2328   -9.6671   20.7203 C   0  0  0  0  0  0  0  0  0  0  0  0
  -23.8787  -10.2942   22.9623 C   0  0  0  0  0  0  0  0  0  0  0  0
  -17.5671  -23.8472   24.6587 C   0  0  0  0  0  0  0  0  0  0  0  0
  -20.2989  -23.3520   24.8539 C   0  0  0  0  0  0  0  0  0  0  0  0
  -26.9575  -25.9796   24.5799 C   0  0  0  0  0  0  0  0  0  0  0  0
  -22.5325   -8.5729   21.2281 C   0  0  0  0  0  0  0  0  0  0  0  0
  -23.1784   -9.1999   23.4701 C   0  0  0  0  0  0  0  0  0  0  0  0
  -28.1194  -25.8918   23.8144 C   0  0  0  0  0  0  0  0  0  0  0  0
  -23.2449   -5.4728   22.3711 C   0  0  0  0  0  0  0  0  0  0  0  0
  -23.4057   -4.2460   21.7273 C   0  0  0  0  0  0  0  0  0  0  0  0
  -27.1824  -27.4456   22.2248 C   0  0  0  0  0  0  0  0  0  0  0  0
  -29.2727  -19.7474   20.9214 C   0  0  0  0  0  0  0  0  0  0  0  0
  -30.8909  -17.8607   19.6547 C   0  0  0  0  0  0  0  0  0  0  0  0
  -21.0360   -4.1802   21.2609 C   0  0  0  0  0  0  0  0  0  0  0  0
  -23.9060  -10.5277   21.5874 C   0  0  0  0  0  0  0  0  0  0  0  0
  -24.1345  -12.9570   20.8431 C   0  0  0  0  0  0  0  0  0  0  0  0
  -18.4480  -24.4930   23.7770 C   0  0  0  0  0  0  0  0  0  0  0  0
  -25.8932  -26.7941   24.1673 C   0  0  0  0  0  0  0  0  0  0  0  0
  -19.8294  -24.2358   23.8675 C   0  0  0  0  0  0  0  0  0  0  0  0
  -26.0091  -27.5440   22.9882 C   0  0  0  0  0  0  0  0  0  0  0  0
  -30.1860  -20.1529   19.9483 C   0  0  0  0  0  0  0  0  0  0  0  0
  -29.9776  -17.4552   20.6279 C   0  0  0  0  0  0  0  0  0  0  0  0
  -22.5053   -8.3393   22.6030 C   0  0  0  0  0  0  0  0  0  0  0  0
  -28.2309  -26.6226   22.6351 C   0  0  0  0  0  0  0  0  0  0  0  0
  -21.9796   -6.0534   22.4599 C   0  0  0  0  0  0  0  0  0  0  0  0
  -30.9951  -19.2096   19.3149 C   0  0  0  0  0  0  0  0  0  0  0  0
  -22.3012   -3.5997   21.1721 C   0  0  0  0  0  0  0  0  0  0  0  0
  -29.1685  -18.3985   21.2613 C   0  0  0  0  0  0  0  0  0  0  0  0
  -20.8752   -5.4070   21.9048 C   0  0  0  0  0  0  0  0  0  0  0  0
  -24.6301  -11.6579   21.0635 C   0  0  0  0  0  0  0  0  0  0  0  0
  -25.2068  -13.6528   20.3405 C   0  0  0  0  0  0  0  0  0  0  0  0
  -22.8223  -13.4874   21.0723 C   0  0  0  0  0  0  0  0  0  0  0  0
  -22.8618  -26.2848   23.3581 C   0  0  0  0  0  0  0  0  0  0  0  0
  -22.7493  -29.5253   23.2651 C   0  0  0  0  0  0  0  0  0  0  0  0
  -24.4307  -32.4736   22.9083 C   0  0  0  0  0  0  0  0  0  0  0  0
  -30.6029  -15.0223   20.4376 C   0  0  0  0  0  0  0  0  0  0  0  0
  -17.8771  -25.3946   22.7112 C   0  0  0  0  0  0  0  0  0  0  0  0
  -24.6572  -26.8985   25.0181 C   0  0  0  0  0  0  0  0  0  0  0  0
  -24.9032  -28.4488   22.5119 C   0  0  0  0  0  0  0  0  0  0  0  0
  -18.9160  -26.3074   22.0649 C   0  0  0  0  0  0  0  0  0  0  0  0
  -29.7198  -12.0305   18.7210 C   0  0  0  0  0  0  0  0  0  0  0  0
  -20.1692  -25.5169   21.7020 C   0  0  0  0  0  0  0  0  0  0  0  0
  -28.2762  -11.7737   19.1593 C   0  0  0  0  0  0  0  0  0  0  0  0
  -28.9565  -22.3931   19.7073 C   0  0  0  0  0  0  0  0  0  0  0  0
  -30.5634  -12.6064   19.8570 C   0  0  0  0  0  0  0  0  0  0  0  0
  -28.5595  -13.5436   20.9410 C   0  0  0  0  0  0  0  0  0  0  0  0
  -29.1218  -23.8400   19.2579 C   0  0  0  0  0  0  0  0  0  0  0  0
  -31.5443  -23.7936   19.9446 C   0  0  0  0  0  0  0  0  0  0  0  0
  -30.2856  -21.6270   19.5910 C   0  0  1  0  0  0  0  0  0  0  0  0
  -20.8238  -24.9164   22.9520 C   0  0  1  0  0  0  0  0  0  0  0  0
  -23.4315  -27.3621   24.2370 C   0  0  1  0  0  0  0  0  0  0  0  0
  -27.6545  -13.0240   19.8120 C   0  0  2  0  0  0  0  0  0  0  0  0
  -31.3996  -22.3371   20.3837 C   0  0  2  0  0  0  0  0  0  0  0  0
  -24.0634  -34.9550   22.8402 C   0  0  0  0  0  0  0  0  0  0  0  0
  -21.6381  -29.2806   20.4339 C   0  0  0  0  0  0  0  0  0  0  0  0
  -22.1851  -31.6988   20.0851 C   0  0  0  0  0  0  0  0  0  0  0  0
  -20.5392  -31.0343   21.8380 C   0  0  0  0  0  0  0  0  0  0  0  0
  -26.1566  -32.9108   25.2725 C   0  0  0  0  0  0  0  0  0  0  0  0
  -32.6787  -18.5591   17.7663 C   0  0  0  0  0  0  0  0  0  0  0  0
  -30.3258  -25.9647   19.7579 C   0  0  0  0  0  0  0  0  0  0  0  0
  -29.2254  -26.7196   20.4771 C   0  0  0  0  0  0  0  0  0  1  0  0
  -22.9975  -30.5737   22.2077 C   0  0  1  0  0  0  0  0  0  0  0  0
  -24.3952  -33.7577   23.7172 C   0  0  2  0  0  0  0  0  0  0  0  0
  -21.8602  -30.6284   21.1489 C   0  0  0  0  0  0  0  0  0  0  0  0
  -25.9169  -11.5331   20.7282 N   0  0  0  0  0  0  0  0  0  0  0  0
  -26.2391  -12.7628   20.2920 N   0  0  0  0  0  0  0  0  0  0  0  0
  -23.7122  -28.5122   23.3752 N   0  0  0  0  0  0  0  0  0  0  0  0
  -29.9146  -13.7907   20.4239 N   0  0  0  0  0  0  0  0  0  0  0  0
  -25.3579  -14.9330   19.9397 N   0  0  0  0  0  0  0  0  0  0  0  0
  -21.8389  -12.6354   21.5931 N   0  0  0  0  0  0  0  0  0  0  0  0
  -29.8737  -16.0844   20.9712 N   0  0  0  0  0  0  0  0  0  0  0  0
  -21.5635  -25.9307   23.6720 N   0  0  0  0  0  0  0  0  0  0  0  0
  -23.2119  -31.8289   22.9197 N   0  0  0  0  0  0  0  0  0  0  0  0
  -30.2094  -24.4983   20.0725 N   0  3  1  0  0  0  0  0  0  0  0  0
  -25.7162  -33.9998   24.3630 N   0  3  0  0  0  0  0  0  0  0  0  0
  -22.5262  -14.6771   20.8073 O   0  0  0  0  0  0  0  0  0  0  0  0
  -23.5486  -25.8109   22.4607 O   0  0  0  0  0  0  0  0  0  0  0  0
  -21.7418  -29.6063   23.9723 O   0  0  0  0  0  0  0  0  0  0  0  0
  -25.4379  -32.0834   22.3218 O   0  0  0  0  0  0  0  0  0  0  0  0
  -31.7443  -15.1329   19.9827 O   0  0  0  0  0  0  0  0  0  0  0  0
  -31.1132  -22.3074   21.7822 O   0  0  0  0  0  0  0  0  0  0  0  0
  -21.8218   -7.2718   23.0988 O   0  0  0  0  0  0  0  0  0  0  0  0
  -31.8923  -19.5888   18.3621 O   0  0  0  0  0  0  0  0  0  0  0  0
  -29.3636  -26.5382   21.8857 O   0  0  0  0  0  0  0  0  0  1  0  0
  -22.4560   -2.4222   20.5525 F   0  0  0  0  0  0  0  0  0  0  0  0
  -28.2872  -18.0202   22.1981 F   0  0  0  0  0  0  0  0  0  0  0  0
  -19.6574   -5.9604   21.9859 F   0  0  0  0  0  0  0  0  0  0  0  0
  1  2  1  0  0  0  0
  1  5  2  0  0  0  0
  2  6  2  0  0  0  0
  3  8  2  0  0  0  0
  3 17  1  0  0  0  0
  4  9  1  0  0  0  0
  4 17  2  0  0  0  0
  5 19  1  0  0  0  0
  6 21  1  0  0  0  0
  7 10  2  0  0  0  0
  7 20  1  0  0  0  0
  8 25  1  0  0  0  0
  9 25  2  0  0  0  0
 10 26  1  0  0  0  0
 11 12  2  0  0  0  0
 11 27  1  0  0  0  0
 12 29  1  0  0  0  0
 13 22  1  0  0  0  0
 13 26  2  0  0  0  0
 14 23  1  0  0  0  0
 14 30  2  0  0  0  0
 15 24  2  0  0  0  0
 15 28  1  0  0  0  0
 16 29  2  0  0  0  0
 16 31  1  0  0  0  0
 17 32  1  0  0  0  0
 18 32  1  0  0  0  0
 18 33  2  0  0  0  0
 18 34  1  0  0  0  0
 19 21  2  0  0  0  0
 19 39  1  0  0  0  0
 20 22  2  0  0  0  0
 20 40  1  0  0  0  0
 21 52  1  0  0  0  0
 22 41  1  0  0  0  0
 23 28  2  0  0  0  0
 23 51  1  0  0  0  0
 24 30  1  0  0  0  0
 24 73  1  0  0  0  0
 25 84  1  0  0  0  0
 26 86  1  0  0  0  0
 27 31  2  0  0  0  0
 27 84  1  0  0  0  0
 28 85  1  0  0  0  0
 29 87  1  0  0  0  0
 30 88  1  0  0  0  0
 31 89  1  0  0  0  0
 32 67  2  0  0  0  0
 33 68  1  0  0  0  0
 33 71  1  0  0  0  0
 34 72  1  0  0  0  0
 34 78  2  0  0  0  0
 35 53  1  0  0  0  0
 35 74  1  0  0  0  0
 35 79  2  0  0  0  0
 36 64  1  0  0  0  0
 36 69  1  0  0  0  0
 36 80  2  0  0  0  0
 37 65  1  0  0  0  0
 37 75  1  0  0  0  0
 37 81  2  0  0  0  0
 38 70  1  0  0  0  0
 38 73  1  0  0  0  0
 38 82  2  0  0  0  0
 39 42  1  0  0  0  0
 40 53  1  0  0  0  0
 41 69  1  0  0  0  0
 42 44  1  0  0  0  0
 43 45  1  0  0  0  0
 43 47  1  0  0  0  0
 44 52  1  0  0  0  0
 45 54  1  0  0  0  0
 46 49  1  0  0  0  0
 46 51  1  0  0  0  0
 47 70  1  0  0  0  0
 48 54  1  0  0  0  0
 48 70  1  0  0  0  0
 49 76  1  0  0  0  0
 50 55  1  0  0  0  0
 50 76  1  0  0  0  0
 51 55  1  0  0  0  0
 52 74  1  0  0  0  0
 53 69  1  0  0  0  0
 54 68  1  0  0  0  0
 55 83  1  0  0  0  0
 56 65  1  0  0  0  0
 57 66  1  0  0  0  0
 58 66  1  0  0  0  0
 59 66  1  0  0  0  0
 60 77  1  0  0  0  0
 61 85  1  0  0  0  0
 62 63  1  0  0  0  0
 62 76  1  0  0  0  0
 63 86  1  0  0  0  0
 64 66  1  0  0  0  0
 64 75  1  0  0  0  0
 65 77  1  0  0  0  0
 67 68  1  0  0  0  0
M  CHG  2  76   1  77   1
M  ISO  4  38 100  63 101  73 100  86 101
M  END
> <Batch ID>
0147

> <Smiles>
CNC(C)C(=O)NC(C(=O)N1Cc2cc([101O:1][101CH2:1]CN3CCC(c4cc(F)c([100NH:0][100C:0](=O)N5CCCC(n6nc(-c7ccc(Oc8ccc(F)cc8F)cc7)c(C(N)=O)c6N)C5)cc4OC)C(O)C3)ccc2CC1C(=O)NC1CCCc2ccccc21)C(C)(C)C

> <Shape>
0.332

> <Color>
0.163

> <Negative vol penalty>
0.000

$$$$

  -OEChem-04052321333D

 92102  0     1  0  0  0  0  0999 V2000
  -37.9250  -22.2298   21.3367 C   0  0  0  0  0  0  0  0  0  0  0  0
  -36.8334  -22.7936   20.6860 C   0  0  0  0  0  0  0  0  0  0  0  0
  -23.1446   -9.8142   19.9091 C   0  0  0  0  0  0  0  0  0  0  0  0
  -23.8048   -9.8714   22.2324 C   0  0  0  0  0  0  0  0  0  0  0  0
  -38.1683  -22.5351   22.6741 C   0  0  0  0  0  0  0  0  0  0  0  0
  -35.9915  -23.6720   21.3690 C   0  0  0  0  0  0  0  0  0  0  0  0
  -32.5158  -25.9432   18.7300 C   0  0  0  0  0  0  0  0  0  0  0  0
  -22.4286   -8.6398   20.1414 C   0  0  0  0  0  0  0  0  0  0  0  0
  -23.0888   -8.6971   22.4648 C   0  0  0  0  0  0  0  0  0  0  0  0
  -31.3919  -25.2822   18.2364 C   0  0  0  0  0  0  0  0  0  0  0  0
  -19.4484   -7.7621   21.4759 C   0  0  0  0  0  0  0  0  0  0  0  0
  -18.1657   -7.6673   20.9361 C   0  0  0  0  0  0  0  0  0  0  0  0
  -30.0519  -26.2696   19.9825 C   0  0  0  0  0  0  0  0  0  0  0  0
  -18.8446   -5.7295   19.6630 C   0  0  0  0  0  0  0  0  0  0  0  0
  -23.8327  -10.4299   20.9546 C   0  0  0  0  0  0  0  0  0  0  0  0
  -24.0969  -12.9636   20.8180 C   0  0  0  0  0  0  0  0  0  0  0  0
  -37.3214  -23.4081   23.3767 C   0  0  0  0  0  0  0  0  0  0  0  0
  -32.4182  -26.7651   19.8620 C   0  0  0  0  0  0  0  0  0  0  0  0
  -36.2341  -24.0113   22.7124 C   0  0  0  0  0  0  0  0  0  0  0  0
  -31.1755  -26.9419   20.4869 C   0  0  0  0  0  0  0  0  0  0  0  0
  -22.4007   -8.0813   21.4193 C   0  0  0  0  0  0  0  0  0  0  0  0
  -30.1602  -25.4431   18.8643 C   0  0  0  0  0  0  0  0  0  0  0  0
  -20.4293   -6.8406   21.1091 C   0  0  0  0  0  0  0  0  0  0  0  0
  -17.8638   -6.6510   20.0297 C   0  0  0  0  0  0  0  0  0  0  0  0
  -20.1274   -5.8243   20.2027 C   0  0  0  0  0  0  0  0  0  0  0  0
  -24.5729  -11.6427   20.7150 C   0  0  0  0  0  0  0  0  0  0  0  0
  -25.1786  -13.7447   20.4922 C   0  0  0  0  0  0  0  0  0  0  0  0
  -22.7935  -13.4416   21.1761 C   0  0  0  0  0  0  0  0  0  0  0  0
  -33.6995  -26.7381   22.7708 C   0  0  0  0  0  0  0  0  0  0  0  0
  -32.2051  -29.6053   23.0314 C   0  0  0  0  0  0  0  0  0  0  0  0
  -29.6985  -31.6716   21.9854 C   0  0  0  0  0  0  0  0  0  0  0  0
  -30.4853  -14.9761   21.0111 C   0  0  0  0  0  0  0  0  0  0  0  0
  -37.6358  -23.7099   24.8207 C   0  0  0  0  0  0  0  0  0  0  0  0
  -33.6346  -27.4922   20.3660 C   0  0  0  0  0  0  0  0  0  0  0  0
  -31.0136  -27.8292   21.6931 C   0  0  0  0  0  0  0  0  0  0  0  0
  -36.4476  -24.2932   25.5785 C   0  0  0  0  0  0  0  0  0  0  0  0
  -29.6604  -12.5015   18.5024 C   0  0  0  0  0  0  0  0  0  0  0  0
  -35.8388  -25.4408   24.7868 C   0  0  0  0  0  0  0  0  0  0  0  0
  -29.7658  -17.2290   16.3707 C   0  0  0  0  0  0  0  0  0  0  0  0
  -30.8078  -16.3491   17.0030 C   0  0  0  0  0  0  0  0  0  0  0  0
  -28.2133  -12.1673   18.8691 C   0  0  0  0  0  0  0  0  0  0  0  0
  -28.7596  -19.9155   17.5879 C   0  0  0  0  0  0  0  0  0  0  0  0
  -29.7515  -20.4635   19.8376 C   0  0  0  0  0  0  0  0  0  0  0  0
  -34.8196  -17.3964   21.2671 C   0  0  0  0  0  0  0  0  0  0  0  0
  -33.0144  -18.7688   20.1732 C   0  0  0  0  0  0  0  0  0  0  0  0
  -30.5060  -12.7396   19.7499 C   0  0  0  0  0  0  0  0  0  0  0  0
  -28.5273  -13.4568   21.0321 C   0  0  0  0  0  0  0  0  0  0  0  0
  -27.7039  -20.9923   17.7983 C   0  0  0  0  0  0  0  0  0  0  0  0
  -28.6905  -21.5373   20.0366 C   0  0  0  0  0  0  0  0  0  0  0  0
  -35.2873  -24.9456   23.4438 C   0  0  1  0  0  0  0  0  0  0  0  0
  -33.5232  -27.8982   21.8323 C   0  0  1  0  0  0  0  0  0  0  0  0
  -29.8570  -17.1290   17.8682 C   0  0  0  0  0  0  0  0  0  0  0  0
  -29.2574  -19.3400   18.9188 C   0  0  0  0  0  0  0  0  0  0  0  0
  -34.5173  -18.4879   20.2329 C   0  0  1  0  0  0  0  0  0  0  0  0
  -34.0336  -16.1049   20.9847 C   0  0  2  0  0  0  0  0  0  0  0  0
  -27.6154  -13.2273   19.8131 C   0  0  2  0  0  0  0  0  0  0  0  0
  -32.5203  -16.3915   20.8993 C   0  0  1  0  0  0  0  0  0  0  0  0
  -32.2108  -17.5015   19.8850 C   0  0  1  0  0  0  0  0  0  0  0  0
  -35.2921  -19.7647   20.5546 C   0  0  0  0  0  0  0  0  0  0  0  0
  -34.3584  -15.0599   22.0565 C   0  0  0  0  0  0  0  0  0  0  0  0
  -28.7067  -33.9373   22.4106 C   0  0  0  0  0  0  0  0  0  0  0  0
  -30.9038  -28.5541   25.5832 C   0  0  0  0  0  0  0  0  0  0  0  0
  -29.2531  -30.4304   25.4314 C   0  0  0  0  0  0  0  0  0  0  0  0
  -31.6816  -30.9276   25.7102 C   0  0  0  0  0  0  0  0  0  0  0  0
  -30.2513  -32.5612   19.2174 C   0  0  0  0  0  0  0  0  0  0  0  0
  -27.3015  -23.2233   18.8353 C   0  0  0  0  0  0  0  0  0  0  0  0
  -28.0532  -24.4432   19.3300 C   0  0  0  0  0  0  0  0  0  1  0  0
  -30.8408  -30.0622   23.4885 C   0  0  1  0  0  0  0  0  0  0  0  0
  -29.7012  -33.1359   21.5850 C   0  0  2  0  0  0  0  0  0  0  0  0
  -30.3581  -18.3076   18.6848 C   0  0  1  0  0  0  0  0  0  0  0  0
  -30.6729  -29.9753   25.0318 C   0  0  0  0  0  0  0  0  0  0  0  0
  -25.8570  -11.5842   20.3521 N   0  0  0  0  0  0  0  0  0  0  0  0
  -26.1970  -12.8781   20.2240 N   0  0  0  0  0  0  0  0  0  0  0  0
  -32.2336  -28.5138   22.1519 N   0  0  0  0  0  0  0  0  0  0  0  0
  -29.8918  -13.7723   20.5963 N   0  0  0  0  0  0  0  0  0  0  0  0
  -25.3484  -15.0816   20.4117 N   0  0  0  0  0  0  0  0  0  0  0  0
  -21.7982  -12.5032   21.4813 N   0  0  0  0  0  0  0  0  0  0  0  0
  -34.9109  -26.0865   22.6385 N   0  0  0  0  0  0  0  0  0  0  0  0
  -30.6545  -31.4019   22.9417 N   0  0  0  0  0  0  0  0  0  0  0  0
  -31.7813  -15.1956   20.5606 N   0  0  0  0  0  0  0  0  0  0  0  0
  -28.2603  -22.0734   18.6927 N   0  3  0  0  0  0  0  0  0  0  0  0
  -29.3415  -33.2801   20.1460 N   0  3  0  0  0  0  0  0  0  0  0  0
  -22.5150  -14.6643   21.2081 O   0  0  0  0  0  0  0  0  0  0  0  0
  -32.8035  -26.4560   23.5577 O   0  0  0  0  0  0  0  0  0  0  0  0
  -33.2082  -30.1997   23.4340 O   0  0  0  0  0  0  0  0  0  0  0  0
  -28.9231  -30.8501   21.5012 O   0  0  0  0  0  0  0  0  0  0  0  0
  -29.9014  -15.7976   21.7260 O   0  0  0  0  0  0  0  0  0  0  0  0
  -21.7020   -6.9355   21.6464 O   0  0  0  0  0  0  0  0  0  0  0  0
  -29.0617  -24.7986   18.3850 O   0  0  0  0  0  0  0  0  0  1  0  0
  -30.8332  -17.8441   19.9429 O   0  0  0  0  0  0  0  0  0  0  0  0
  -16.6316   -6.5592   19.5127 F   0  0  0  0  0  0  0  0  0  0  0  0
  -21.0652   -4.9354   19.8475 F   0  0  0  0  0  0  0  0  0  0  0  0
  1  2  1  0  0  0  0
  1  5  2  0  0  0  0
  2  6  2  0  0  0  0
  3  8  2  0  0  0  0
  3 15  1  0  0  0  0
  4  9  1  0  0  0  0
  4 15  2  0  0  0  0
  5 17  1  0  0  0  0
  6 19  1  0  0  0  0
  7 10  2  0  0  0  0
  7 18  1  0  0  0  0
  8 21  1  0  0  0  0
  9 21  2  0  0  0  0
 10 22  1  0  0  0  0
 11 12  2  0  0  0  0
 11 23  1  0  0  0  0
 12 24  1  0  0  0  0
 13 20  1  0  0  0  0
 13 22  2  0  0  0  0
 14 24  2  0  0  0  0
 14 25  1  0  0  0  0
 15 26  1  0  0  0  0
 16 26  1  0  0  0  0
 16 27  2  0  0  0  0
 16 28  1  0  0  0  0
 17 19  2  0  0  0  0
 17 33  1  0  0  0  0
 18 20  2  0  0  0  0
 18 34  1  0  0  0  0
 19 50  1  0  0  0  0
 20 35  1  0  0  0  0
 21 88  1  0  0  0  0
 22 89  1  0  0  0  0
 23 25  2  0  0  0  0
 23 88  1  0  0  0  0
 24 91  1  0  0  0  0
 25 92  1  0  0  0  0
 26 72  2  0  0  0  0
 27 73  1  0  0  0  0
 27 76  1  0  0  0  0
 28 77  1  0  0  0  0
 28 83  2  0  0  0  0
 29 51  1  0  0  0  0
 29 78  1  0  0  0  0
 29 84  2  0  0  0  0
 30 68  1  0  0  0  0
 30 74  1  0  0  0  0
 30 85  2  0  0  0  0
 31 69  1  0  0  0  0
 31 79  1  0  0  0  0
 31 86  2  0  0  0  0
 32 75  1  0  0  0  0
 32 80  1  0  0  0  0
 32 87  2  0  0  0  0
 33 36  1  0  0  0  0
 34 51  1  0  0  0  0
 35 74  1  0  0  0  0
 36 38  1  0  0  0  0
 37 41  1  0  0  0  0
 37 46  1  0  0  0  0
 38 50  1  0  0  0  0
 39 40  1  0  0  0  0
 39 52  1  0  0  0  0
 40 52  1  0  0  0  0
 41 56  1  0  0  0  0
 42 48  1  0  0  0  0
 42 53  1  0  0  0  0
 43 49  1  0  0  0  0
 43 53  1  0  0  0  0
 44 54  1  0  0  0  0
 44 55  1  0  0  0  0
 45 54  1  0  0  0  0
 45 58  1  0  0  0  0
 46 75  1  0  0  0  0
 47 56  1  0  0  0  0
 47 75  1  0  0  0  0
 48 81  1  0  0  0  0
 49 81  1  0  0  0  0
 50 78  1  0  0  0  0
 51 74  1  0  0  0  0
 52 70  1  0  0  0  0
 53 70  1  0  0  0  0
 54 59  1  0  0  0  0
 55 57  1  0  0  0  0
 55 60  1  0  0  0  0
 56 73  1  0  0  0  0
 57 58  1  0  0  0  0
 57 80  1  0  0  0  0
 58 90  1  0  0  0  0
 61 69  1  0  0  0  0
 62 71  1  0  0  0  0
 63 71  1  0  0  0  0
 64 71  1  0  0  0  0
 65 82  1  0  0  0  0
 66 67  1  0  0  0  0
 66 81  1  0  0  0  0
 67 89  1  0  0  0  0
 68 71  1  0  0  0  0
 68 79  1  0  0  0  0
 69 82  1  0  0  0  0
 70 90  1  0  0  0  0
 72 73  1  0  0  0  0
M  CHG  2  81   1  82   1
M  ISO  4  32 100  67 101  80 100  89 101
M  END
> <Batch ID>
0147

> <Smiles>
CNC(C)C(=O)NC(C(=O)N1Cc2cc([101O:1][101CH2:1]CN3CCC(C(OC4CC(C)CC(C)C4[100NH:0][100C:0](=O)N4CCCC(n5nc(-c6ccc(Oc7ccc(F)cc7F)cc6)c(C(N)=O)c5N)C4)C4CC4)CC3)ccc2CC1C(=O)NC1CCCc2ccccc21)C(C)(C)C

> <Shape>
0.217

> <Color>
0.182

> <Negative vol penalty>
0.000

$$$$

  -OEChem-04052321333D

 84 93  0     1  0  0  0  0  0999 V2000
  -18.3183  -32.9813   23.2805 C   0  0  0  0  0  0  0  0  0  0  0  0
  -19.4853  -33.0142   22.5239 C   0  0  0  0  0  0  0  0  0  0  0  0
  -25.8864  -15.2980   22.7099 C   0  0  0  0  0  0  0  0  0  0  0  0
  -25.4203  -14.9175   20.3700 C   0  0  0  0  0  0  0  0  0  0  0  0
  -18.1349  -31.9806   24.2339 C   0  0  0  0  0  0  0  0  0  0  0  0
  -20.4702  -32.0470   22.7211 C   0  0  0  0  0  0  0  0  0  0  0  0
  -25.4726  -28.3647   19.1527 C   0  0  0  0  0  0  0  0  0  0  0  0
  -24.9406  -14.3328   23.0553 C   0  0  0  0  0  0  0  0  0  0  0  0
  -24.4745  -13.9522   20.7154 C   0  0  0  0  0  0  0  0  0  0  0  0
  -26.8320  -28.0609   19.2098 C   0  0  0  0  0  0  0  0  0  0  0  0
  -22.1955  -11.1311   20.9708 C   0  0  0  0  0  0  0  0  0  0  0  0
  -22.2052   -9.9298   20.2621 C   0  0  0  0  0  0  0  0  0  0  0  0
  -26.3718  -26.3334   20.8295 C   0  0  0  0  0  0  0  0  0  0  0  0
  -24.4705   -9.5165   20.9934 C   0  0  0  0  0  0  0  0  0  0  0  0
  -31.3186  -25.0991   17.9315 C   0  0  0  0  0  0  0  0  0  0  0  0
  -26.1262  -15.5905   21.3672 C   0  0  0  0  0  0  0  0  0  0  0  0
  -31.4942  -23.4429   19.4036 C   0  0  0  0  0  0  0  0  0  0  0  0
  -28.4750  -16.3862   20.7691 C   0  0  0  0  0  0  0  0  0  0  0  0
  -19.1139  -30.9950   24.4361 C   0  0  0  0  0  0  0  0  0  0  0  0
  -24.5522  -27.6612   19.9431 C   0  0  0  0  0  0  0  0  0  0  0  0
  -20.3004  -31.0330   23.6790 C   0  0  0  0  0  0  0  0  0  0  0  0
  -25.0009  -26.6285   20.7787 C   0  0  0  0  0  0  0  0  0  0  0  0
  -31.5149  -23.7276   18.0366 C   0  0  0  0  0  0  0  0  0  0  0  0
  -24.2347  -13.6598   22.0580 C   0  0  0  0  0  0  0  0  0  0  0  0
  -27.2822  -27.0471   20.0505 C   0  0  0  0  0  0  0  0  0  0  0  0
  -23.3233  -11.5252   21.6909 C   0  0  0  0  0  0  0  0  0  0  0  0
  -23.3426   -9.1225   20.2734 C   0  0  0  0  0  0  0  0  0  0  0  0
  -24.4608  -10.7179   21.7022 C   0  0  0  0  0  0  0  0  0  0  0  0
  -27.1027  -16.5879   21.0098 C   0  0  0  0  0  0  0  0  0  0  0  0
  -31.2917  -24.6120   20.0787 C   0  0  0  0  0  0  0  0  0  0  0  0
  -28.9583  -17.6362   20.4687 C   0  0  0  0  0  0  0  0  0  0  0  0
  -31.6071  -22.3777   20.3569 C   0  0  0  0  0  0  0  0  0  0  0  0
  -29.2441  -15.1769   20.8130 C   0  0  0  0  0  0  0  0  0  0  0  0
  -22.5279  -28.4464   22.2645 C   0  0  0  0  0  0  0  0  0  0  0  0
  -21.5962  -25.3536   21.9665 C   0  0  0  0  0  0  0  0  0  0  0  0
  -22.2335  -21.8352   21.4847 C   0  0  0  0  0  0  0  0  0  0  0  0
  -28.5089  -22.5150   17.7963 C   0  0  0  0  0  0  0  0  0  0  0  0
  -18.8916  -29.9609   25.5113 C   0  0  0  0  0  0  0  0  0  0  0  0
  -23.0859  -27.9831   19.8500 C   0  0  0  0  0  0  0  0  0  0  0  0
  -24.0511  -25.8299   21.6323 C   0  0  0  0  0  0  0  0  0  0  0  0
  -31.2461  -24.4697   21.5366 C   0  0  0  0  0  0  0  0  0  0  0  0
  -19.8197  -28.7543   25.3970 C   0  0  0  0  0  0  0  0  0  0  0  0
  -26.8029  -22.1916   20.9046 C   0  0  0  0  0  0  0  0  0  0  0  0
  -21.2571  -29.2069   25.1609 C   0  0  0  0  0  0  0  0  0  0  0  0
  -26.8367  -20.6883   21.1857 C   0  0  0  0  0  0  0  0  0  0  0  0
  -26.6342  -22.4835   19.4153 C   0  0  0  0  0  0  0  0  0  0  0  0
  -27.6539  -20.3202   18.8203 C   0  0  0  0  0  0  0  0  0  0  0  0
  -21.3810  -29.9869   23.8465 C   0  0  1  0  0  0  0  0  0  0  0  0
  -22.2992  -27.5476   21.0824 C   0  0  1  0  0  0  0  0  0  0  0  0
  -27.8787  -19.9760   20.3026 C   0  0  2  0  0  0  0  0  0  0  0  0
  -21.2718  -19.5385   21.1724 C   0  0  0  0  0  0  0  0  0  0  0  0
  -22.0637  -25.0544   24.9668 C   0  0  0  0  0  0  0  0  0  0  0  0
  -22.0294  -22.5706   24.6539 C   0  0  0  0  0  0  0  0  0  0  0  0
  -20.0033  -23.9221   24.1140 C   0  0  0  0  0  0  0  0  0  0  0  0
  -22.5735  -21.9659   18.5476 C   0  0  0  0  0  0  0  0  0  0  0  0
  -31.7053  -22.7788   16.9257 C   0  0  0  0  0  0  0  0  0  0  0  0
  -30.9531  -27.0899   19.5271 C   0  0  0  0  0  0  0  0  0  0  0  0
  -30.4044  -22.3859   16.1996 C   0  0  0  0  0  0  0  0  0  0  0  0
  -29.5141  -27.5230   19.2690 C   0  0  0  0  0  0  0  0  0  1  0  0
  -22.0174  -24.0453   22.5908 C   0  0  1  0  0  0  0  0  0  0  0  0
  -21.5030  -20.9008   20.5372 C   0  0  2  0  0  0  0  0  0  0  0  0
  -21.5468  -23.9143   24.0669 C   0  0  0  0  0  0  0  0  0  0  0  0
  -26.7378  -17.8655   20.8743 N   0  0  0  0  0  0  0  0  0  0  0  0
  -31.1816  -25.6340   19.2010 N   0  0  0  0  0  0  0  0  0  0  0  0
  -27.8878  -18.4780   20.5451 N   0  0  0  0  0  0  0  0  0  0  0  0
  -31.4578  -23.0087   21.6081 N   0  0  0  0  0  0  0  0  0  0  0  0
  -22.6279  -26.1865   21.5109 N   0  0  0  0  0  0  0  0  0  0  0  0
  -27.6540  -21.7797   18.6339 N   0  0  0  0  0  0  0  0  0  0  0  0
  -30.1902  -18.0866   20.1493 N   0  0  0  0  0  0  0  0  0  0  0  0
  -28.5903  -13.9807   21.1385 N   0  0  0  0  0  0  0  0  0  0  0  0
  -21.3868  -29.0796   22.7190 N   0  0  0  0  0  0  0  0  0  0  0  0
  -21.5207  -22.9939   21.7097 N   0  0  0  0  0  0  0  0  0  0  0  0
  -29.4509  -21.7713   17.0961 N   0  0  0  0  0  0  0  0  0  0  0  0
  -22.2926  -20.7089   19.2879 N   0  3  0  0  0  0  0  0  0  0  0  0
  -31.7919  -21.1970   20.1127 O   0  0  0  0  0  0  0  0  0  0  0  0
  -30.4778  -15.1604   20.5867 O   0  0  0  0  0  0  0  0  0  0  0  0
  -23.6558  -28.5561   22.7308 O   0  0  0  0  0  0  0  0  0  0  0  0
  -20.3956  -25.6234   21.8796 O   0  0  0  0  0  0  0  0  0  0  0  0
  -23.3253  -21.5628   21.9789 O   0  0  0  0  0  0  0  0  0  0  0  0
  -28.4414  -23.7438   17.6851 O   0  0  0  0  0  0  0  0  0  0  0  0
  -23.3118  -12.7177   22.3947 O   0  0  0  0  0  0  0  0  0  0  0  0
  -28.6087  -26.7489   20.1086 O   0  0  0  0  0  0  0  0  0  1  0  0
  -23.3512   -7.9682   19.5939 F   0  0  0  0  0  0  0  0  0  0  0  0
  -25.5468  -11.0906   22.3931 F   0  0  0  0  0  0  0  0  0  0  0  0
  1  2  1  0  0  0  0
  1  5  2  0  0  0  0
  2  6  2  0  0  0  0
  3  8  2  0  0  0  0
  3 16  1  0  0  0  0
  4  9  1  0  0  0  0
  4 16  2  0  0  0  0
  5 19  1  0  0  0  0
  6 21  1  0  0  0  0
  7 10  2  0  0  0  0
  7 20  1  0  0  0  0
  8 24  1  0  0  0  0
  9 24  2  0  0  0  0
 10 25  1  0  0  0  0
 11 12  2  0  0  0  0
 11 26  1  0  0  0  0
 12 27  1  0  0  0  0
 13 22  1  0  0  0  0
 13 25  2  0  0  0  0
 14 27  2  0  0  0  0
 14 28  1  0  0  0  0
 15 23  2  0  0  0  0
 15 64  1  0  0  0  0
 16 29  1  0  0  0  0
 17 23  1  0  0  0  0
 17 30  2  0  0  0  0
 17 32  1  0  0  0  0
 18 29  1  0  0  0  0
 18 31  2  0  0  0  0
 18 33  1  0  0  0  0
 19 21  2  0  0  0  0
 19 38  1  0  0  0  0
 20 22  2  0  0  0  0
 20 39  1  0  0  0  0
 21 48  1  0  0  0  0
 22 40  1  0  0  0  0
 23 56  1  0  0  0  0
 24 81  1  0  0  0  0
 25 82  1  0  0  0  0
 26 28  2  0  0  0  0
 26 81  1  0  0  0  0
 27 83  1  0  0  0  0
 28 84  1  0  0  0  0
 29 63  2  0  0  0  0
 30 41  1  0  0  0  0
 30 64  1  0  0  0  0
 31 65  1  0  0  0  0
 31 69  1  0  0  0  0
 32 66  1  0  0  0  0
 32 75  2  0  0  0  0
 33 70  1  0  0  0  0
 33 76  2  0  0  0  0
 34 49  1  0  0  0  0
 34 71  1  0  0  0  0
 34 77  2  0  0  0  0
 35 60  1  0  0  0  0
 35 67  1  0  0  0  0
 35 78  2  0  0  0  0
 36 61  1  0  0  0  0
 36 72  1  0  0  0  0
 36 79  2  0  0  0  0
 37 68  1  0  0  0  0
 37 73  1  0  0  0  0
 37 80  2  0  0  0  0
 38 42  1  0  0  0  0
 39 49  1  0  0  0  0
 40 67  1  0  0  0  0
 41 66  1  0  0  0  0
 42 44  1  0  0  0  0
 43 45  1  0  0  0  0
 43 46  1  0  0  0  0
 44 48  1  0  0  0  0
 45 50  1  0  0  0  0
 46 68  1  0  0  0  0
 47 50  1  0  0  0  0
 47 68  1  0  0  0  0
 48 71  1  0  0  0  0
 49 67  1  0  0  0  0
 50 65  1  0  0  0  0
 51 61  1  0  0  0  0
 52 62  1  0  0  0  0
 53 62  1  0  0  0  0
 54 62  1  0  0  0  0
 55 74  1  0  0  0  0
 56 58  1  0  0  0  0
 57 59  1  0  0  0  0
 57 64  1  0  0  0  0
 58 73  1  0  0  0  0
 59 82  1  0  0  0  0
 60 62  1  0  0  0  0
 60 72  1  0  0  0  0
 61 74  1  0  0  0  0
 63 65  1  0  0  0  0
M  CHG  1  74   1
M  ISO  4  37 100  59 101  73 100  82 101
M  END
> <Batch ID>
0147

> <Smiles>
CNC(C)C(=O)NC(C(=O)N1Cc2cc([101O:1][101CH2:1]Cn3cc(CC[100NH:0][100C:0](=O)N4CCCC(n5nc(-c6ccc(Oc7ccc(F)cc7F)cc6)c(C(N)=O)c5N)C4)c4c3CNC4=O)ccc2CC1C(=O)NC1CCCc2ccccc21)C(C)(C)C

> <Shape>
0.234

> <Color>
0.079

> <Negative vol penalty>
0.000

$$$$

  -OEChem-04052321333D

 88 97  0     1  0  0  0  0  0999 V2000
  -24.8251  -37.2643   17.0935 C   0  0  0  0  0  0  0  0  0  0  0  0
  -25.4727  -36.0388   16.9739 C   0  0  0  0  0  0  0  0  0  0  0  0
  -24.2658   -9.1191   21.3274 C   0  0  0  0  0  0  0  0  0  0  0  0
  -22.2033  -10.3388   21.0185 C   0  0  0  0  0  0  0  0  0  0  0  0
  -24.5274  -37.7737   18.3567 C   0  0  0  0  0  0  0  0  0  0  0  0
  -25.8239  -35.3225   18.1176 C   0  0  0  0  0  0  0  0  0  0  0  0
  -25.8795  -29.2341   18.7761 C   0  0  0  0  0  0  0  0  0  0  0  0
  -23.5446   -7.9322   21.4563 C   0  0  0  0  0  0  0  0  0  0  0  0
  -21.4820   -9.1518   21.1473 C   0  0  0  0  0  0  0  0  0  0  0  0
  -26.9057  -28.2927   18.7091 C   0  0  0  0  0  0  0  0  0  0  0  0
  -21.7363   -6.3634   23.8424 C   0  0  0  0  0  0  0  0  0  0  0  0
  -22.0924   -5.4987   24.8773 C   0  0  0  0  0  0  0  0  0  0  0  0
  -26.6524  -21.1500   22.8661 C   0  0  0  0  0  0  0  0  0  0  0  0
  -27.1273  -28.3722   21.1099 C   0  0  0  0  0  0  0  0  0  0  0  0
  -29.4279  -21.3306   22.8706 C   0  0  0  0  0  0  0  0  0  0  0  0
  -22.5798   -3.7680   23.2634 C   0  0  0  0  0  0  0  0  0  0  0  0
  -23.5951  -10.3225   21.1086 C   0  0  0  0  0  0  0  0  0  0  0  0
  -24.8489  -12.1102   19.7896 C   0  0  0  0  0  0  0  0  0  0  0  0
  -24.8665  -37.0588   19.5162 C   0  0  0  0  0  0  0  0  0  0  0  0
  -25.4762  -29.7606   20.0117 C   0  0  0  0  0  0  0  0  0  0  0  0
  -25.5316  -35.8235   19.3976 C   0  0  0  0  0  0  0  0  0  0  0  0
  -27.2865  -22.1001   22.0514 C   0  0  0  0  0  0  0  0  0  0  0  0
  -26.0940  -29.3182   21.1901 C   0  0  0  0  0  0  0  0  0  0  0  0
  -28.6869  -22.2192   22.0729 C   0  0  0  0  0  0  0  0  0  0  0  0
  -27.4018  -20.2923   23.6686 C   0  0  0  0  0  0  0  0  0  0  0  0
  -22.1527   -7.9485   21.3662 C   0  0  0  0  0  0  0  0  0  0  0  0
  -27.5318  -27.8638   19.8758 C   0  0  0  0  0  0  0  0  0  0  0  0
  -21.8018   -5.9305   22.5180 C   0  0  0  0  0  0  0  0  0  0  0  0
  -28.7900  -20.3770   23.6646 C   0  0  0  0  0  0  0  0  0  0  0  0
  -22.5142   -4.2010   24.5878 C   0  0  0  0  0  0  0  0  0  0  0  0
  -22.2236   -4.6328   22.2285 C   0  0  0  0  0  0  0  0  0  0  0  0
  -24.3395  -11.5490   20.9759 C   0  0  0  0  0  0  0  0  0  0  0  0
  -25.4704  -13.2658   20.1957 C   0  0  0  0  0  0  0  0  0  0  0  0
  -24.7674  -11.6300   18.4411 C   0  0  0  0  0  0  0  0  0  0  0  0
  -25.4378  -32.6624   21.3084 C   0  0  0  0  0  0  0  0  0  0  0  0
  -23.8669  -31.1447   23.7066 C   0  0  0  0  0  0  0  0  0  0  0  0
  -23.2150  -28.2265   25.3515 C   0  0  0  0  0  0  0  0  0  0  0  0
  -28.9411  -15.7757   23.6606 C   0  0  0  0  0  0  0  0  0  0  0  0
  -24.5664  -37.6722   20.8610 C   0  0  0  0  0  0  0  0  0  0  0  0
  -24.3496  -30.7555   20.0694 C   0  0  0  0  0  0  0  0  0  0  0  0
  -26.4578  -23.0018   21.1801 C   0  0  0  0  0  0  0  0  0  0  0  0
  -25.6844  -29.8374   22.5433 C   0  0  0  0  0  0  0  0  0  0  0  0
  -24.6372  -36.6752   22.0147 C   0  0  0  0  0  0  0  0  0  0  0  0
  -25.3776  -15.6924   24.6128 C   0  0  0  0  0  0  0  0  0  0  0  0
  -25.8999  -35.8259   21.9095 C   0  0  0  0  0  0  0  0  0  0  0  0
  -24.8499  -14.6065   23.6798 C   0  0  0  0  0  0  0  0  0  0  0  0
  -26.8154  -15.4209   25.0535 C   0  0  0  0  0  0  0  0  0  0  0  0
  -27.2280  -14.1242   22.9816 C   0  0  0  0  0  0  0  0  0  0  0  0
  -27.2243  -23.4152   19.9354 C   0  0  0  0  0  0  0  0  0  0  0  0
  -25.9065  -35.0053   20.6141 C   0  0  1  0  0  0  0  0  0  0  0  0
  -29.4049  -23.2596   21.2270 C   0  0  2  0  0  0  0  0  0  0  0  0
  -24.3687  -31.6070   21.3351 C   0  0  1  0  0  0  0  0  0  0  0  0
  -25.8001  -14.4055   22.4893 C   0  0  1  0  0  0  0  0  0  0  0  0
  -26.6996  -19.2851   24.5177 C   0  0  0  0  0  0  0  0  0  0  0  0
  -30.2328  -24.2043   22.1103 C   0  0  0  0  0  0  0  0  0  0  0  0
  -21.9217  -27.3077   27.2959 C   0  0  0  0  0  0  0  0  0  0  0  0
  -25.9334  -32.3069   25.6272 C   0  0  0  0  0  0  0  0  0  0  0  0
  -25.1843  -30.6357   27.3342 C   0  0  0  0  0  0  0  0  0  0  0  0
  -23.5817  -32.3446   26.4774 C   0  0  0  0  0  0  0  0  0  0  0  0
  -21.6227  -26.4486   23.6015 C   0  0  0  0  0  0  0  0  0  0  0  0
  -30.6167  -17.3902   24.5080 C   0  0  0  0  0  0  0  0  0  0  0  0
  -29.1840  -24.7206   19.1591 C   0  0  0  0  0  0  0  0  0  0  0  0
  -30.4725  -18.6986   23.7515 C   0  0  0  0  0  0  0  0  0  0  0  0
  -28.4856  -26.0011   18.7460 C   0  0  0  0  0  0  0  0  0  1  0  0
  -24.2792  -30.4354   24.9738 C   0  0  1  0  0  0  0  0  0  0  0  0
  -21.9107  -27.5940   25.8023 C   0  0  2  0  0  0  0  0  0  0  0  0
  -24.7539  -31.4221   26.0776 C   0  0  0  0  0  0  0  0  0  0  0  0
  -24.6138  -12.2872   22.0548 N   0  0  0  0  0  0  0  0  0  0  0  0
  -25.3024  -13.3240   21.5479 N   0  0  0  0  0  0  0  0  0  0  0  0
  -24.5822  -30.8135   22.5471 N   0  0  0  0  0  0  0  0  0  0  0  0
  -27.6957  -15.1680   23.9020 N   0  0  0  0  0  0  0  0  0  0  0  0
  -26.1389  -14.2275   19.5244 N   0  0  0  0  0  0  0  0  0  0  0  0
  -24.0921  -10.4257   18.2004 N   0  0  0  0  0  0  0  0  0  0  0  0
  -25.0361  -33.8559   20.7394 N   0  0  0  0  0  0  0  0  0  0  0  0
  -23.1457  -29.6035   25.3632 N   0  0  0  0  0  0  0  0  0  0  0  0
  -29.3625  -16.6938   24.6158 N   0  0  0  0  0  0  0  0  0  0  0  0
  -28.4816  -24.1353   20.3600 N   0  3  1  0  0  0  0  0  0  0  0  0
  -21.6800  -26.3112   25.0796 N   0  3  0  0  0  0  0  0  0  0  0  0
  -25.2924  -12.2421   17.4803 O   0  0  0  0  0  0  0  0  0  0  0  0
  -26.5447  -32.4130   21.7713 O   0  0  0  0  0  0  0  0  0  0  0  0
  -22.9395  -31.9573   23.7427 O   0  0  0  0  0  0  0  0  0  0  0  0
  -24.1982  -27.5651   25.0254 O   0  0  0  0  0  0  0  0  0  0  0  0
  -29.6321  -15.5163   22.6691 O   0  0  0  0  0  0  0  0  0  0  0  0
  -21.4487   -6.7904   21.4917 O   0  0  0  0  0  0  0  0  0  0  0  0
  -28.5413  -26.9389   19.8127 O   0  0  0  0  0  0  0  0  0  1  0  0
  -29.5422  -19.5388   24.4314 O   0  0  0  0  0  0  0  0  0  0  0  0
  -22.8577   -3.3712   25.5816 F   0  0  0  0  0  0  0  0  0  0  0  0
  -22.2898   -4.2116   20.9581 F   0  0  0  0  0  0  0  0  0  0  0  0
  1  2  1  0  0  0  0
  1  5  2  0  0  0  0
  2  6  2  0  0  0  0
  3  8  2  0  0  0  0
  3 17  1  0  0  0  0
  4  9  1  0  0  0  0
  4 17  2  0  0  0  0
  5 19  1  0  0  0  0
  6 21  1  0  0  0  0
  7 10  2  0  0  0  0
  7 20  1  0  0  0  0
  8 26  1  0  0  0  0
  9 26  2  0  0  0  0
 10 27  1  0  0  0  0
 11 12  2  0  0  0  0
 11 28  1  0  0  0  0
 12 30  1  0  0  0  0
 13 22  1  0  0  0  0
 13 25  2  0  0  0  0
 14 23  1  0  0  0  0
 14 27  2  0  0  0  0
 15 24  1  0  0  0  0
 15 29  2  0  0  0  0
 16 30  2  0  0  0  0
 16 31  1  0  0  0  0
 17 32  1  0  0  0  0
 18 32  1  0  0  0  0
 18 33  2  0  0  0  0
 18 34  1  0  0  0  0
 19 21  2  0  0  0  0
 19 39  1  0  0  0  0
 20 23  2  0  0  0  0
 20 40  1  0  0  0  0
 21 50  1  0  0  0  0
 22 24  2  0  0  0  0
 22 41  1  0  0  0  0
 23 42  1  0  0  0  0
 24 51  1  0  0  0  0
 25 29  1  0  0  0  0
 25 54  1  0  0  0  0
 26 84  1  0  0  0  0
 27 85  1  0  0  0  0
 28 31  2  0  0  0  0
 28 84  1  0  0  0  0
 29 86  1  0  0  0  0
 30 87  1  0  0  0  0
 31 88  1  0  0  0  0
 32 68  2  0  0  0  0
 33 69  1  0  0  0  0
 33 72  1  0  0  0  0
 34 73  1  0  0  0  0
 34 79  2  0  0  0  0
 35 52  1  0  0  0  0
 35 74  1  0  0  0  0
 35 80  2  0  0  0  0
 36 65  1  0  0  0  0
 36 70  1  0  0  0  0
 36 81  2  0  0  0  0
 37 66  1  0  0  0  0
 37 75  1  0  0  0  0
 37 82  2  0  0  0  0
 38 71  1  0  0  0  0
 38 76  1  0  0  0  0
 38 83  2  0  0  0  0
 39 43  1  0  0  0  0
 40 52  1  0  0  0  0
 41 49  1  0  0  0  0
 42 70  1  0  0  0  0
 43 45  1  0  0  0  0
 44 46  1  0  0  0  0
 44 47  1  0  0  0  0
 45 50  1  0  0  0  0
 46 53  1  0  0  0  0
 47 71  1  0  0  0  0
 48 53  1  0  0  0  0
 48 71  1  0  0  0  0
 49 77  1  0  0  0  0
 50 74  1  0  0  0  0
 51 55  1  0  0  0  0
 51 77  1  0  0  0  0
 52 70  1  0  0  0  0
 53 69  1  0  0  0  0
 56 66  1  0  0  0  0
 57 67  1  0  0  0  0
 58 67  1  0  0  0  0
 59 67  1  0  0  0  0
 60 78  1  0  0  0  0
 61 63  1  0  0  0  0
 61 76  1  0  0  0  0
 62 64  1  0  0  0  0
 62 77  1  0  0  0  0
 63 86  1  0  0  0  0
 64 85  1  0  0  0  0
 65 67  1  0  0  0  0
 65 75  1  0  0  0  0
 66 78  1  0  0  0  0
 68 69  1  0  0  0  0
M  CHG  2  77   1  78   1
M  ISO  4  38 100  64 101  76 100  85 101
M  END
> <Batch ID>
0147

> <Smiles>
CNC(C)C(=O)NC(C(=O)N1Cc2cc([101O:1][101CH2:1]CN3CCc4cc(C)c(OCC[100NH:0][100C:0](=O)N5CCCC(n6nc(-c7ccc(Oc8ccc(F)cc8F)cc7)c(C(N)=O)c6N)C5)cc4C3C)ccc2CC1C(=O)NC1CCCc2ccccc21)C(C)(C)C

> <Shape>
0.235

> <Color>
0.128

> <Negative vol penalty>
0.000

$$$$

  -OEChem-04052321333D

 87 97  0     1  0  0  0  0  0999 V2000
  -28.1313  -24.4587   16.6349 C   0  0  0  0  0  0  0  0  0  0  0  0
  -26.9495  -24.6413   17.3458 C   0  0  0  0  0  0  0  0  0  0  0  0
  -18.6099  -22.8926   26.7014 C   0  0  0  0  0  0  0  0  0  0  0  0
  -27.4184  -15.4677   20.0011 C   0  0  0  0  0  0  0  0  0  0  0  0
  -25.0498  -15.7284   20.3993 C   0  0  0  0  0  0  0  0  0  0  0  0
  -29.3277  -24.9771   17.1287 C   0  0  0  0  0  0  0  0  0  0  0  0
  -26.9636  -25.3414   18.5516 C   0  0  0  0  0  0  0  0  0  0  0  0
  -19.5914  -21.9043   26.7761 C   0  0  0  0  0  0  0  0  0  0  0  0
  -23.1620  -28.6676   18.9114 C   0  0  0  0  0  0  0  0  0  0  0  0
  -18.7389  -23.9359   25.7846 C   0  0  0  0  0  0  0  0  0  0  0  0
  -27.2948  -14.0884   20.1685 C   0  0  0  0  0  0  0  0  0  0  0  0
  -24.9261  -14.3491   20.5666 C   0  0  0  0  0  0  0  0  0  0  0  0
  -21.9017  -28.1623   19.2278 C   0  0  0  0  0  0  0  0  0  0  0  0
  -26.2403  -11.4427   18.3462 C   0  0  0  0  0  0  0  0  0  0  0  0
  -26.8837  -10.6175   17.4238 C   0  0  0  0  0  0  0  0  0  0  0  0
  -22.2155  -28.8336   21.5235 C   0  0  0  0  0  0  0  0  0  0  0  0
  -28.1819   -9.6347   19.2087 C   0  0  0  0  0  0  0  0  0  0  0  0
  -26.2959  -16.2877   20.1166 C   0  0  0  0  0  0  0  0  0  0  0  0
  -26.3010  -18.4380   18.7441 C   0  0  0  0  0  0  0  0  0  0  0  0
  -29.3548  -25.6923   18.3364 C   0  0  0  0  0  0  0  0  0  0  0  0
  -23.9644  -29.2508   19.9026 C   0  0  0  0  0  0  0  0  0  0  0  0
  -20.7020  -21.9594   25.9340 C   0  0  0  0  0  0  0  0  0  0  0  0
  -28.1617  -25.8686   19.0628 C   0  0  0  0  0  0  0  0  0  0  0  0
  -23.4846  -29.3479   21.2165 C   0  0  0  0  0  0  0  0  0  0  0  0
  -20.8312  -23.0027   25.0172 C   0  0  0  0  0  0  0  0  0  0  0  0
  -26.0486  -13.5291   20.4512 C   0  0  0  0  0  0  0  0  0  0  0  0
  -21.4295  -28.2427   20.5346 C   0  0  0  0  0  0  0  0  0  0  0  0
  -19.8496  -23.9909   24.9425 C   0  0  0  0  0  0  0  0  0  0  0  0
  -26.5678  -11.3639   19.6998 C   0  0  0  0  0  0  0  0  0  0  0  0
  -27.8544   -9.7135   17.8550 C   0  0  0  0  0  0  0  0  0  0  0  0
  -27.5385  -10.4599   20.1310 C   0  0  0  0  0  0  0  0  0  0  0  0
  -26.4231  -17.7125   19.9444 C   0  0  0  0  0  0  0  0  0  0  0  0
  -26.5057  -19.7457   19.1110 C   0  0  0  0  0  0  0  0  0  0  0  0
  -26.0269  -17.9716   17.4163 C   0  0  0  0  0  0  0  0  0  0  0  0
  -26.8100  -28.5955   21.1581 C   0  0  0  0  0  0  0  0  0  0  0  0
  -26.3428  -31.4093   22.7029 C   0  0  0  0  0  0  0  0  0  0  0  0
  -24.1429  -33.7383   23.8789 C   0  0  0  0  0  0  0  0  0  0  0  0
  -25.8111  -22.6871   24.2798 C   0  0  0  0  0  0  0  0  0  0  0  0
  -30.6800  -26.1931   18.8538 C   0  0  0  0  0  0  0  0  0  0  0  0
  -25.3105  -29.8152   19.5396 C   0  0  0  0  0  0  0  0  0  0  0  0
  -24.2986  -29.9829   22.3132 C   0  0  0  0  0  0  0  0  0  0  0  0
  -30.5468  -27.2455   19.9515 C   0  0  0  0  0  0  0  0  0  0  0  0
  -28.7963  -22.4086   22.3595 C   0  0  0  0  0  0  0  0  0  0  0  0
  -22.1064  -20.1122   24.7985 C   0  0  0  0  0  0  0  0  0  0  0  0
  -21.3203  -19.4506   25.8869 C   0  0  0  0  0  0  0  0  0  0  0  0
  -29.5212  -26.8055   20.9914 C   0  0  0  0  0  0  0  0  0  0  0  0
  -28.5156  -21.2389   21.4145 C   0  0  0  0  0  0  0  0  0  0  0  0
  -22.8525  -24.3196   24.0938 C   0  0  0  0  0  0  0  0  0  0  0  0
  -28.1748  -22.1836   23.7361 C   0  0  0  0  0  0  0  0  0  0  0  0
  -26.4519  -20.7055   22.7766 C   0  0  0  0  0  0  0  0  0  0  0  0
  -21.7388  -20.8889   26.0341 C   0  0  0  0  0  0  0  0  0  0  0  0
  -22.0191  -23.0688   24.1115 C   0  0  1  0  0  0  0  0  0  0  0  0
  -28.1322  -26.6437   20.3622 C   0  0  1  0  0  0  0  0  0  0  0  0
  -26.2540  -29.9252   20.7334 C   0  0  1  0  0  0  0  0  0  0  0  0
  -27.0112  -20.9119   21.3586 C   0  0  2  0  0  0  0  0  0  0  0  0
  -23.3995  -23.0719   24.7218 C   0  0  1  0  0  0  0  0  0  0  0  0
  -24.0569  -35.9107   25.1321 C   0  0  0  0  0  0  0  0  0  0  0  0
  -26.8816  -29.9225   25.3123 C   0  0  0  0  0  0  0  0  0  0  0  0
  -25.8681  -31.8541   26.5411 C   0  0  0  0  0  0  0  0  0  0  0  0
  -27.9245  -32.1911   25.1698 C   0  0  0  0  0  0  0  0  0  0  0  0
  -22.8837  -35.1390   21.5960 C   0  0  0  0  0  0  0  0  0  0  0  0
  -18.9631  -26.1559   22.1697 C   0  0  0  0  0  0  0  0  0  0  0  0
  -20.0162  -27.2529   22.1713 C   0  0  0  0  0  0  0  0  0  1  0  0
  -18.7428  -25.5769   23.5584 C   0  0  0  0  0  0  0  0  0  0  0  0
  -25.7088  -31.8187   24.0104 C   0  0  1  0  0  0  0  0  0  0  0  0
  -24.1207  -35.2518   23.7630 C   0  0  2  0  0  0  0  0  0  0  0  0
  -26.5810  -31.4328   25.2384 C   0  0  0  0  0  0  0  0  0  0  0  0
  -26.6852  -18.4944   20.9951 N   0  0  0  0  0  0  0  0  0  0  0  0
  -26.7296  -19.7247   20.4562 N   0  0  0  0  0  0  0  0  0  0  0  0
  -25.6109  -30.5144   21.9096 N   0  0  0  0  0  0  0  0  0  0  0  0
  -26.7472  -21.8795   23.6130 N   0  0  0  0  0  0  0  0  0  0  0  0
  -26.5143  -20.8999   18.4108 N   0  0  0  0  0  0  0  0  0  0  0  0
  -25.8427  -16.5967   17.2159 N   0  0  0  0  0  0  0  0  0  0  0  0
  -27.5121  -27.9367   20.1668 N   0  0  0  0  0  0  0  0  0  0  0  0
  -25.4310  -33.2466   23.8998 N   0  0  0  0  0  0  0  0  0  0  0  0
  -24.4788  -22.3334   24.1049 N   0  0  0  0  0  0  0  0  0  0  0  0
  -22.9366  -35.6935   22.9732 N   0  3  0  0  0  0  0  0  0  0  0  0
  -25.9640  -18.7491   16.4340 O   0  0  0  0  0  0  0  0  0  0  0  0
  -26.6177  -28.1974   22.3010 O   0  0  0  0  0  0  0  0  0  0  0  0
  -27.4436  -31.8722   22.3935 O   0  0  0  0  0  0  0  0  0  0  0  0
  -23.1201  -33.0605   23.9479 O   0  0  0  0  0  0  0  0  0  0  0  0
  -26.1381  -23.6550   24.9748 O   0  0  0  0  0  0  0  0  0  0  0  0
  -25.9276  -12.1833   20.6144 O   0  0  0  0  0  0  0  0  0  0  0  0
  -20.1999  -27.7497   20.8462 O   0  0  0  0  0  0  0  0  0  1  0  0
  -19.9570  -25.0248   24.0490 O   0  0  0  0  0  0  0  0  0  0  0  0
  -28.4711   -8.9200   16.9694 F   0  0  0  0  0  0  0  0  0  0  0  0
  -27.8565  -10.3789   21.4303 F   0  0  0  0  0  0  0  0  0  0  0  0
  1  2  1  0  0  0  0
  1  6  2  0  0  0  0
  2  7  2  0  0  0  0
  3  8  1  0  0  0  0
  3 10  2  0  0  0  0
  4 11  2  0  0  0  0
  4 18  1  0  0  0  0
  5 12  1  0  0  0  0
  5 18  2  0  0  0  0
  6 20  1  0  0  0  0
  7 23  1  0  0  0  0
  8 22  2  0  0  0  0
  9 13  2  0  0  0  0
  9 21  1  0  0  0  0
 10 28  1  0  0  0  0
 11 26  1  0  0  0  0
 12 26  2  0  0  0  0
 13 27  1  0  0  0  0
 14 15  2  0  0  0  0
 14 29  1  0  0  0  0
 15 30  1  0  0  0  0
 16 24  1  0  0  0  0
 16 27  2  0  0  0  0
 17 30  2  0  0  0  0
 17 31  1  0  0  0  0
 18 32  1  0  0  0  0
 19 32  1  0  0  0  0
 19 33  2  0  0  0  0
 19 34  1  0  0  0  0
 20 23  2  0  0  0  0
 20 39  1  0  0  0  0
 21 24  2  0  0  0  0
 21 40  1  0  0  0  0
 22 25  1  0  0  0  0
 22 51  1  0  0  0  0
 23 53  1  0  0  0  0
 24 41  1  0  0  0  0
 25 28  2  0  0  0  0
 25 52  1  0  0  0  0
 26 83  1  0  0  0  0
 27 84  1  0  0  0  0
 28 85  1  0  0  0  0
 29 31  2  0  0  0  0
 29 83  1  0  0  0  0
 30 86  1  0  0  0  0
 31 87  1  0  0  0  0
 32 68  2  0  0  0  0
 33 69  1  0  0  0  0
 33 72  1  0  0  0  0
 34 73  1  0  0  0  0
 34 78  2  0  0  0  0
 35 54  1  0  0  0  0
 35 74  1  0  0  0  0
 35 79  2  0  0  0  0
 36 65  1  0  0  0  0
 36 70  1  0  0  0  0
 36 80  2  0  0  0  0
 37 66  1  0  0  0  0
 37 75  1  0  0  0  0
 37 81  2  0  0  0  0
 38 71  1  0  0  0  0
 38 76  1  0  0  0  0
 38 82  2  0  0  0  0
 39 42  1  0  0  0  0
 40 54  1  0  0  0  0
 41 70  1  0  0  0  0
 42 46  1  0  0  0  0
 43 47  1  0  0  0  0
 43 49  1  0  0  0  0
 44 45  1  0  0  0  0
 44 51  1  0  0  0  0
 45 51  1  0  0  0  0
 46 53  1  0  0  0  0
 47 55  1  0  0  0  0
 48 52  1  0  0  0  0
 48 56  1  0  0  0  0
 49 71  1  0  0  0  0
 50 55  1  0  0  0  0
 50 71  1  0  0  0  0
 52 56  1  0  0  0  0
 53 74  1  0  0  0  0
 54 70  1  0  0  0  0
 55 69  1  0  0  0  0
 56 76  1  0  0  0  0
 57 66  1  0  0  0  0
 58 67  1  0  0  0  0
 59 67  1  0  0  0  0
 60 67  1  0  0  0  0
 61 77  1  0  0  0  0
 62 63  1  0  0  0  0
 62 64  1  0  0  0  0
 63 84  1  0  0  0  0
 64 85  1  0  0  0  0
 65 67  1  0  0  0  0
 65 75  1  0  0  0  0
 66 77  1  0  0  0  0
 68 69  1  0  0  0  0
M  CHG  1  77   1
M  ISO  4  38 100  63 101  76 100  84 101
M  END
> <Batch ID>
0147

> <Smiles>
CNC(C)C(=O)NC(C(=O)N1Cc2cc([101O:1][101CH2:1]CCOc3cccc(C4CC4)c3C3CC3[100NH:0][100C:0](=O)N3CCCC(n4nc(-c5ccc(Oc6ccc(F)cc6F)cc5)c(C(N)=O)c4N)C3)ccc2CC1C(=O)NC1CCCc2ccccc21)C(C)(C)C

> <Shape>
0.252

> <Color>
0.069

> <Negative vol penalty>
0.000

$$$$

  -OEChem-04052321333D

 83 92  0     1  0  0  0  0  0999 V2000
  -16.9549  -31.0692   24.2126 C   0  0  0  0  0  0  0  0  0  0  0  0
  -18.2070  -31.3920   24.7260 C   0  0  0  0  0  0  0  0  0  0  0  0
  -23.4044  -16.6349   20.1115 C   0  0  0  0  0  0  0  0  0  0  0  0
  -23.1060  -17.0020   22.4808 C   0  0  0  0  0  0  0  0  0  0  0  0
  -16.8119  -29.9707   23.3660 C   0  0  0  0  0  0  0  0  0  0  0  0
  -19.3167  -30.6158   24.3938 C   0  0  0  0  0  0  0  0  0  0  0  0
  -26.3678  -31.1566   23.2511 C   0  0  0  0  0  0  0  0  0  0  0  0
  -23.5470  -15.2666   20.3415 C   0  0  0  0  0  0  0  0  0  0  0  0
  -23.2487  -15.6336   22.7107 C   0  0  0  0  0  0  0  0  0  0  0  0
  -27.5721  -30.5854   23.6599 C   0  0  0  0  0  0  0  0  0  0  0  0
  -25.9588  -13.1618   21.4266 C   0  0  0  0  0  0  0  0  0  0  0  0
  -26.9959  -12.4997   20.7696 C   0  0  0  0  0  0  0  0  0  0  0  0
  -27.2195  -28.7581   22.1250 C   0  0  0  0  0  0  0  0  0  0  0  0
  -25.3886  -11.0577   19.6859 C   0  0  0  0  0  0  0  0  0  0  0  0
  -23.1839  -17.5027   21.1812 C   0  0  0  0  0  0  0  0  0  0  0  0
  -21.8427  -19.6154   20.6859 C   0  0  0  0  0  0  0  0  0  0  0  0
  -17.9222  -29.1864   23.0155 C   0  0  0  0  0  0  0  0  0  0  0  0
  -25.5736  -30.5262   22.2824 C   0  0  0  0  0  0  0  0  0  0  0  0
  -19.1883  -29.5050   23.5427 C   0  0  0  0  0  0  0  0  0  0  0  0
  -26.0068  -29.3247   21.7038 C   0  0  0  0  0  0  0  0  0  0  0  0
  -23.4692  -14.7659   21.6410 C   0  0  0  0  0  0  0  0  0  0  0  0
  -27.9967  -29.3845   23.0990 C   0  0  0  0  0  0  0  0  0  0  0  0
  -24.6366  -12.7719   21.2134 C   0  0  0  0  0  0  0  0  0  0  0  0
  -26.7108  -11.4476   19.8993 C   0  0  0  0  0  0  0  0  0  0  0  0
  -24.3515  -11.7198   20.3430 C   0  0  0  0  0  0  0  0  0  0  0  0
  -23.0370  -18.9163   20.9444 C   0  0  0  0  0  0  0  0  0  0  0  0
  -22.2361  -20.9225   20.5337 C   0  0  0  0  0  0  0  0  0  0  0  0
  -20.4981  -19.1269   20.5918 C   0  0  0  0  0  0  0  0  0  0  0  0
  -22.6384  -29.3073   22.2349 C   0  0  0  0  0  0  0  0  0  0  0  0
  -23.2579  -28.9513   19.0708 C   0  0  0  0  0  0  0  0  0  0  0  0
  -25.5812  -28.6301   16.5916 C   0  0  0  0  0  0  0  0  0  0  0  0
  -27.1301  -23.4631   18.7990 C   0  0  0  0  0  0  0  0  0  0  0  0
  -17.7102  -27.9806   22.1347 C   0  0  0  0  0  0  0  0  0  0  0  0
  -24.2902  -31.1690   21.8329 C   0  0  0  0  0  0  0  0  0  0  0  0
  -25.2008  -28.6183   20.6456 C   0  0  0  0  0  0  0  0  0  0  0  0
  -19.0010  -27.4318   21.5323 C   0  0  0  0  0  0  0  0  0  0  0  0
  -28.8357  -26.7156   18.3116 C   0  0  0  0  0  0  0  0  0  0  0  0
  -25.6097  -24.0115   21.9165 C   0  0  0  0  0  0  0  0  0  0  0  0
  -20.0852  -27.3249   22.6000 C   0  0  0  0  0  0  0  0  0  0  0  0
  -30.2178  -26.4520   18.9039 C   0  0  0  0  0  0  0  0  0  0  0  0
  -24.6507  -22.8244   21.9998 C   0  0  0  0  0  0  0  0  0  0  0  0
  -32.6583  -25.2346   23.2817 C   0  0  0  0  0  0  0  0  0  0  0  0
  -28.1974  -25.4385   17.7761 C   0  0  0  0  0  0  0  0  0  0  0  0
  -26.9622  -23.6147   21.3226 C   0  0  0  0  0  0  0  0  0  0  0  0
  -29.5105  -24.0802   19.3731 C   0  0  0  0  0  0  0  0  0  0  0  0
  -25.9070  -21.7435   20.0969 C   0  0  0  0  0  0  0  0  0  0  0  0
  -33.2949  -25.8141   22.0158 C   0  0  0  0  0  0  0  0  0  0  0  0
  -20.4202  -28.7019   23.1858 C   0  0  1  0  0  0  0  0  0  0  0  0
  -23.3112  -30.1777   21.2115 C   0  0  1  0  0  0  0  0  0  0  0  0
  -30.1643  -25.3372   19.9570 C   0  0  1  0  0  0  0  0  0  0  0  0
  -24.5191  -22.1237   20.6357 C   0  0  1  0  0  0  0  0  0  0  0  0
  -31.3272  -25.8249   22.7869 C   0  0  1  0  0  0  0  0  0  0  0  0
  -25.7834  -28.3179   14.1099 C   0  0  0  0  0  0  0  0  0  0  0  0
  -22.5034  -26.0112   19.3816 C   0  0  0  0  0  0  0  0  0  0  0  0
  -23.6121  -25.5661   17.1814 C   0  0  0  0  0  0  0  0  0  0  0  0
  -21.6438  -27.0941   17.2977 C   0  0  0  0  0  0  0  0  0  0  0  0
  -27.0339  -31.1886   16.2712 C   0  0  0  0  0  0  0  0  0  0  0  0
  -31.5634  -25.0227   20.4817 C   0  0  0  0  0  0  0  0  0  0  0  0
  -30.8811  -27.1196   23.4488 C   0  0  0  0  0  0  0  0  0  0  0  0
  -29.5467  -27.5939   22.8816 C   0  0  0  0  0  0  0  0  0  1  0  0
  -23.8688  -27.8669   18.2164 C   0  0  1  0  0  0  0  0  0  0  0  0
  -25.7239  -29.3238   15.2489 C   0  0  2  0  0  0  0  0  0  0  0  0
  -22.9215  -26.6466   18.0406 C   0  0  0  0  0  0  0  0  0  0  0  0
  -24.1088  -19.7134   20.9563 N   0  0  0  0  0  0  0  0  0  0  0  0
  -23.5894  -20.9267   20.7034 N   0  0  0  0  0  0  0  0  0  0  0  0
  -23.9501  -29.2833   20.2440 N   0  0  0  0  0  0  0  0  0  0  0  0
  -28.1972  -24.3768   18.7820 N   0  0  0  0  0  0  0  0  0  0  0  0
  -26.7840  -22.9151   20.0433 N   0  0  0  0  0  0  0  0  0  0  0  0
  -21.5529  -22.0572   20.2726 N   0  0  0  0  0  0  0  0  0  0  0  0
  -20.2709  -17.7560   20.7748 N   0  0  0  0  0  0  0  0  0  0  0  0
  -21.2642  -29.4464   22.2759 N   0  0  0  0  0  0  0  0  0  0  0  0
  -24.2595  -28.5054   16.9641 N   0  0  0  0  0  0  0  0  0  0  0  0
  -31.9503  -26.0686   21.4644 N   0  3  2  0  0  0  0  0  0  0  0  0
  -26.9689  -30.1424   15.2185 N   0  3  0  0  0  0  0  0  0  0  0  0
  -19.5288  -19.8810   20.3363 O   0  0  0  0  0  0  0  0  0  0  0  0
  -23.3158  -28.5634   22.9345 O   0  0  0  0  0  0  0  0  0  0  0  0
  -22.2091  -29.4890   18.7069 O   0  0  0  0  0  0  0  0  0  0  0  0
  -26.5455  -28.2349   17.2430 O   0  0  0  0  0  0  0  0  0  0  0  0
  -26.5222  -23.1587   17.7650 O   0  0  0  0  0  0  0  0  0  0  0  0
  -23.6081  -13.4307   21.8658 O   0  0  0  0  0  0  0  0  0  0  0  0
  -29.1799  -28.8204   23.4995 O   0  0  0  0  0  0  0  0  0  1  0  0
  -27.7067  -10.8129   19.2672 F   0  0  0  0  0  0  0  0  0  0  0  0
  -23.0832  -11.3414   20.1332 F   0  0  0  0  0  0  0  0  0  0  0  0
  1  2  1  0  0  0  0
  1  5  2  0  0  0  0
  2  6  2  0  0  0  0
  3  8  2  0  0  0  0
  3 15  1  0  0  0  0
  4  9  1  0  0  0  0
  4 15  2  0  0  0  0
  5 17  1  0  0  0  0
  6 19  1  0  0  0  0
  7 10  2  0  0  0  0
  7 18  1  0  0  0  0
  8 21  1  0  0  0  0
  9 21  2  0  0  0  0
 10 22  1  0  0  0  0
 11 12  2  0  0  0  0
 11 23  1  0  0  0  0
 12 24  1  0  0  0  0
 13 20  1  0  0  0  0
 13 22  2  0  0  0  0
 14 24  2  0  0  0  0
 14 25  1  0  0  0  0
 15 26  1  0  0  0  0
 16 26  1  0  0  0  0
 16 27  2  0  0  0  0
 16 28  1  0  0  0  0
 17 19  2  0  0  0  0
 17 33  1  0  0  0  0
 18 20  2  0  0  0  0
 18 34  1  0  0  0  0
 19 48  1  0  0  0  0
 20 35  1  0  0  0  0
 21 80  1  0  0  0  0
 22 81  1  0  0  0  0
 23 25  2  0  0  0  0
 23 80  1  0  0  0  0
 24 82  1  0  0  0  0
 25 83  1  0  0  0  0
 26 64  2  0  0  0  0
 27 65  1  0  0  0  0
 27 69  1  0  0  0  0
 28 70  1  0  0  0  0
 28 75  2  0  0  0  0
 29 49  1  0  0  0  0
 29 71  1  0  0  0  0
 29 76  2  0  0  0  0
 30 61  1  0  0  0  0
 30 66  1  0  0  0  0
 30 77  2  0  0  0  0
 31 62  1  0  0  0  0
 31 72  1  0  0  0  0
 31 78  2  0  0  0  0
 32 67  1  0  0  0  0
 32 68  1  0  0  0  0
 32 79  2  0  0  0  0
 33 36  1  0  0  0  0
 34 49  1  0  0  0  0
 35 66  1  0  0  0  0
 36 39  1  0  0  0  0
 37 40  1  0  0  0  0
 37 43  1  0  0  0  0
 38 41  1  0  0  0  0
 38 44  1  0  0  0  0
 39 48  1  0  0  0  0
 40 50  1  0  0  0  0
 41 51  1  0  0  0  0
 42 47  1  0  0  0  0
 42 52  1  0  0  0  0
 43 67  1  0  0  0  0
 44 68  1  0  0  0  0
 45 50  1  0  0  0  0
 45 67  1  0  0  0  0
 46 51  1  0  0  0  0
 46 68  1  0  0  0  0
 47 73  1  0  0  0  0
 48 71  1  0  0  0  0
 49 66  1  0  0  0  0
 50 58  1  0  0  0  0
 51 65  1  0  0  0  0
 52 59  1  0  0  0  0
 52 73  1  0  0  0  0
 53 62  1  0  0  0  0
 54 63  1  0  0  0  0
 55 63  1  0  0  0  0
 56 63  1  0  0  0  0
 57 74  1  0  0  0  0
 58 73  1  0  0  0  0
 59 60  1  0  0  0  0
 60 81  1  0  0  0  0
 61 63  1  0  0  0  0
 61 72  1  0  0  0  0
 62 74  1  0  0  0  0
 64 65  1  0  0  0  0
M  CHG  2  73   1  74   1
M  ISO  4  32 100  60 101  67 100  81 101
M  END
> <Batch ID>
0147

> <Smiles>
CNC(C)C(=O)NC(C(=O)N1Cc2cc([101O:1][101CH2:1]CC3CCN3CC3CCC[100N:0]([100C:0](=O)N4CCCC(n5nc(-c6ccc(Oc7ccc(F)cc7F)cc6)c(C(N)=O)c5N)C4)C3)ccc2CC1C(=O)NC1CCCc2ccccc21)C(C)(C)C

> <Shape>
0.217

> <Color>
0.081

> <Negative vol penalty>
0.000

$$$$

  -OEChem-04052321333D

 88 97  0     1  0  0  0  0  0999 V2000
  -38.3987  -27.3727   16.9772 C   0  0  0  0  0  0  0  0  0  0  0  0
  -37.5291  -26.7543   16.0846 C   0  0  0  0  0  0  0  0  0  0  0  0
  -23.1642   -9.8467   19.9226 C   0  0  0  0  0  0  0  0  0  0  0  0
  -23.8300   -9.9112   22.2441 C   0  0  0  0  0  0  0  0  0  0  0  0
  -38.2344  -27.1887   18.3495 C   0  0  0  0  0  0  0  0  0  0  0  0
  -36.4953  -25.9506   16.5638 C   0  0  0  0  0  0  0  0  0  0  0  0
  -29.7746  -23.9982   15.0348 C   0  0  0  0  0  0  0  0  0  0  0  0
  -22.4360   -8.6817   20.1638 C   0  0  0  0  0  0  0  0  0  0  0  0
  -23.1017   -8.7463   22.4853 C   0  0  0  0  0  0  0  0  0  0  0  0
  -28.9973  -22.8530   14.8677 C   0  0  0  0  0  0  0  0  0  0  0  0
  -19.8698   -7.8871   22.9723 C   0  0  0  0  0  0  0  0  0  0  0  0
  -19.0670   -7.8509   24.1123 C   0  0  0  0  0  0  0  0  0  0  0  0
  -28.7616  -22.6710   17.2616 C   0  0  0  0  0  0  0  0  0  0  0  0
  -20.3192   -5.9551   24.9339 C   0  0  0  0  0  0  0  0  0  0  0  0
  -23.8612  -10.4614   20.9627 C   0  0  0  0  0  0  0  0  0  0  0  0
  -24.1528  -12.9911   20.8097 C   0  0  0  0  0  0  0  0  0  0  0  0
  -37.1921  -26.3901   18.8460 C   0  0  0  0  0  0  0  0  0  0  0  0
  -30.0608  -24.4831   16.3191 C   0  0  0  0  0  0  0  0  0  0  0  0
  -36.3176  -25.7546   17.9439 C   0  0  0  0  0  0  0  0  0  0  0  0
  -29.5407  -23.8241   17.4422 C   0  0  0  0  0  0  0  0  0  0  0  0
  -28.9603  -18.0653   18.8916 C   0  0  0  0  0  0  0  0  0  0  0  0
  -29.0631  -18.8200   20.0861 C   0  0  0  0  0  0  0  0  0  0  0  0
  -22.4047   -8.1315   21.4451 C   0  0  0  0  0  0  0  0  0  0  0  0
  -28.4930  -22.1875   15.9813 C   0  0  0  0  0  0  0  0  0  0  0  0
  -20.8973   -6.9572   22.8130 C   0  0  0  0  0  0  0  0  0  0  0  0
  -19.2916   -6.8849   25.0932 C   0  0  0  0  0  0  0  0  0  0  0  0
  -21.1220   -5.9913   23.7938 C   0  0  0  0  0  0  0  0  0  0  0  0
  -24.6141  -11.6645   20.7141 C   0  0  0  0  0  0  0  0  0  0  0  0
  -30.1885  -17.4718   18.6810 C   0  0  0  0  0  0  0  0  0  0  0  0
  -30.3497  -18.6651   20.5592 C   0  0  0  0  0  0  0  0  0  0  0  0
  -25.2423  -13.7583   20.4768 C   0  0  0  0  0  0  0  0  0  0  0  0
  -22.8555  -13.4856   21.1675 C   0  0  0  0  0  0  0  0  0  0  0  0
  -32.7165  -24.9298   18.0078 C   0  0  0  0  0  0  0  0  0  0  0  0
  -30.6765  -26.3066   20.1209 C   0  0  0  0  0  0  0  0  0  0  0  0
  -27.4927  -26.5744   21.3202 C   0  0  0  0  0  0  0  0  0  0  0  0
  -30.5633  -14.9347   20.9769 C   0  0  0  0  0  0  0  0  0  0  0  0
  -37.0832  -26.1826   20.3359 C   0  0  0  0  0  0  0  0  0  0  0  0
  -30.8786  -25.7350   16.4814 C   0  0  0  0  0  0  0  0  0  0  0  0
  -27.7970  -17.8662   17.9788 C   0  0  0  0  0  0  0  0  0  0  0  0
  -29.8021  -24.3155   18.8417 C   0  0  0  0  0  0  0  0  0  0  0  0
  -30.5632  -16.6030   17.5364 C   0  0  0  0  0  0  0  0  0  0  0  0
  -35.7348  -25.6177   20.7752 C   0  0  0  0  0  0  0  0  0  0  0  0
  -29.2886  -16.1103   16.8231 C   0  0  0  0  0  0  0  0  0  0  0  0
  -29.7060  -12.4538   18.4855 C   0  0  0  0  0  0  0  0  0  0  0  0
  -35.3301  -24.4480   19.8837 C   0  0  0  0  0  0  0  0  0  0  0  0
  -28.2561  -12.1377   18.8574 C   0  0  0  0  0  0  0  0  0  0  0  0
  -30.5568  -12.6903   19.7298 C   0  0  0  0  0  0  0  0  0  0  0  0
  -28.5888  -13.4372   21.0115 C   0  0  0  0  0  0  0  0  0  0  0  0
  -35.1690  -24.8953   18.4259 C   0  0  1  0  0  0  0  0  0  0  0  0
  -31.5355  -25.8458   17.8539 C   0  0  1  0  0  0  0  0  0  0  0  0
  -27.6719  -13.2100   19.7959 C   0  0  2  0  0  0  0  0  0  0  0  0
  -28.2227  -17.2124   16.6456 C   0  0  2  0  0  0  0  0  0  0  0  0
  -27.9915  -19.6206   20.7122 C   0  0  0  0  0  0  0  0  0  0  0  0
  -30.9928  -19.2312   21.7647 C   0  0  0  0  0  0  0  0  0  0  0  0
  -26.1418  -27.7525   23.0765 C   0  0  0  0  0  0  0  0  0  0  0  0
  -27.4513  -17.9547   13.7400 C   0  0  0  0  0  0  0  0  0  0  0  0
  -31.8165  -24.4387   22.2472 C   0  0  0  0  0  0  0  0  0  0  0  0
  -29.8339  -24.9728   23.6798 C   0  0  0  0  0  0  0  0  0  0  0  0
  -31.4194  -26.7830   23.0225 C   0  0  0  0  0  0  0  0  0  0  0  0
  -25.7874  -27.8907   19.2909 C   0  0  0  0  0  0  0  0  0  0  0  0
  -32.4117  -17.4433   19.8306 C   0  0  0  0  0  0  0  0  0  0  0  0
  -32.6133  -16.3271   20.8521 C   0  0  0  0  0  0  0  0  0  0  0  0
  -27.9968  -20.2344   14.6555 C   0  0  0  0  0  0  0  0  0  1  0  0
  -29.8545  -25.8159   21.2882 C   0  0  1  0  0  0  0  0  0  0  0  0
  -26.6346  -27.7856   21.6382 C   0  0  2  0  0  0  0  0  0  0  0  0
  -27.6437  -18.7914   14.9940 C   0  0  2  0  0  0  0  0  0  0  0  0
  -30.7276  -25.4920   22.5332 C   0  0  0  0  0  0  0  0  0  0  0  0
  -25.8967  -11.5897   20.3488 N   0  0  0  0  0  0  0  0  0  0  0  0
  -31.0274  -17.8421   19.6945 N   0  0  0  0  0  0  0  0  0  0  0  0
  -26.2506  -12.8789   20.2120 N   0  0  0  0  0  0  0  0  0  0  0  0
  -30.6123  -25.5401   18.9486 N   0  0  0  0  0  0  0  0  0  0  0  0
  -29.9557  -13.7350   20.5709 N   0  0  0  0  0  0  0  0  0  0  0  0
  -25.4266  -15.0927   20.3876 N   0  0  0  0  0  0  0  0  0  0  0  0
  -21.8506  -12.5601   21.4806 N   0  0  0  0  0  0  0  0  0  0  0  0
  -33.9097  -25.5851   18.2450 N   0  0  0  0  0  0  0  0  0  0  0  0
  -28.8324  -26.8302   21.5226 N   0  0  0  0  0  0  0  0  0  0  0  0
  -31.8606  -15.1373   20.5225 N   0  0  0  0  0  0  0  0  0  0  0  0
  -25.4492  -27.8318   20.7362 N   0  3  0  0  0  0  0  0  0  0  0  0
  -22.5904  -14.7114   21.1924 O   0  0  0  0  0  0  0  0  0  0  0  0
  -32.5567  -23.7180   17.9195 O   0  0  0  0  0  0  0  0  0  0  0  0
  -31.3450  -27.3361   20.2423 O   0  0  0  0  0  0  0  0  0  0  0  0
  -27.0213  -25.5068   20.9347 O   0  0  0  0  0  0  0  0  0  0  0  0
  -29.9898  -15.7671   21.6879 O   0  0  0  0  0  0  0  0  0  0  0  0
  -21.6940   -6.9949   21.6809 O   0  0  0  0  0  0  0  0  0  0  0  0
  -27.7346  -21.0691   15.8211 O   0  0  0  0  0  0  0  0  0  1  0  0
  -28.7071  -18.2122   15.7487 O   0  0  0  0  0  0  0  0  0  0  0  0
  -18.5216   -6.8512   26.1886 F   0  0  0  0  0  0  0  0  0  0  0  0
  -22.1083   -5.0961   23.6470 F   0  0  0  0  0  0  0  0  0  0  0  0
  1  2  1  0  0  0  0
  1  5  2  0  0  0  0
  2  6  2  0  0  0  0
  3  8  2  0  0  0  0
  3 15  1  0  0  0  0
  4  9  1  0  0  0  0
  4 15  2  0  0  0  0
  5 17  1  0  0  0  0
  6 19  1  0  0  0  0
  7 10  2  0  0  0  0
  7 18  1  0  0  0  0
  8 23  1  0  0  0  0
  9 23  2  0  0  0  0
 10 24  1  0  0  0  0
 11 12  2  0  0  0  0
 11 25  1  0  0  0  0
 12 26  1  0  0  0  0
 13 20  1  0  0  0  0
 13 24  2  0  0  0  0
 14 26  2  0  0  0  0
 14 27  1  0  0  0  0
 15 28  1  0  0  0  0
 16 28  1  0  0  0  0
 16 31  2  0  0  0  0
 16 32  1  0  0  0  0
 17 19  2  0  0  0  0
 17 37  1  0  0  0  0
 18 20  2  0  0  0  0
 18 38  1  0  0  0  0
 19 49  1  0  0  0  0
 20 40  1  0  0  0  0
 21 22  1  0  0  0  0
 21 29  2  0  0  0  0
 21 39  1  0  0  0  0
 22 30  2  0  0  0  0
 22 53  1  0  0  0  0
 23 84  1  0  0  0  0
 24 85  1  0  0  0  0
 25 27  2  0  0  0  0
 25 84  1  0  0  0  0
 26 87  1  0  0  0  0
 27 88  1  0  0  0  0
 28 68  2  0  0  0  0
 29 41  1  0  0  0  0
 29 69  1  0  0  0  0
 30 54  1  0  0  0  0
 30 69  1  0  0  0  0
 31 70  1  0  0  0  0
 31 73  1  0  0  0  0
 32 74  1  0  0  0  0
 32 79  2  0  0  0  0
 33 50  1  0  0  0  0
 33 75  1  0  0  0  0
 33 80  2  0  0  0  0
 34 64  1  0  0  0  0
 34 71  1  0  0  0  0
 34 81  2  0  0  0  0
 35 65  1  0  0  0  0
 35 76  1  0  0  0  0
 35 82  2  0  0  0  0
 36 72  1  0  0  0  0
 36 77  1  0  0  0  0
 36 83  2  0  0  0  0
 37 42  1  0  0  0  0
 38 50  1  0  0  0  0
 39 52  1  0  0  0  0
 40 71  1  0  0  0  0
 41 43  1  0  0  0  0
 42 45  1  0  0  0  0
 43 52  1  0  0  0  0
 44 46  1  0  0  0  0
 44 47  1  0  0  0  0
 45 49  1  0  0  0  0
 46 51  1  0  0  0  0
 47 72  1  0  0  0  0
 48 51  1  0  0  0  0
 48 72  1  0  0  0  0
 49 75  1  0  0  0  0
 50 71  1  0  0  0  0
 51 70  1  0  0  0  0
 52 86  1  0  0  0  0
 55 65  1  0  0  0  0
 56 66  1  0  0  0  0
 57 67  1  0  0  0  0
 58 67  1  0  0  0  0
 59 67  1  0  0  0  0
 60 78  1  0  0  0  0
 61 62  1  0  0  0  0
 61 69  1  0  0  0  0
 62 77  1  0  0  0  0
 63 66  1  0  0  0  0
 63 85  1  0  0  0  0
 64 67  1  0  0  0  0
 64 76  1  0  0  0  0
 65 78  1  0  0  0  0
 66 86  1  0  0  0  0
 68 70  1  0  0  0  0
M  CHG  1  78   1
M  ISO  4  36 100  63 101  77 100  85 101
M  END
> <Batch ID>
0147

> <Smiles>
CNC(C)C(=O)NC(C(=O)N1Cc2cc([101O:1][101CH2:1]C(C)OC3CCc4c(c(C)c(C)n4CC[100NH:0][100C:0](=O)N4CCCC(n5nc(-c6ccc(Oc7ccc(F)cc7F)cc6)c(C(N)=O)c5N)C4)C3)ccc2CC1C(=O)NC1CCCc2ccccc21)C(C)(C)C

> <Shape>
0.277

> <Color>
0.171

> <Negative vol penalty>
0.000

$$$$

  -OEChem-04052321333D

 82 91  0     1  0  0  0  0  0999 V2000
  -26.8781  -13.6158   37.9583 C   0  0  0  0  0  0  0  0  0  0  0  0
  -27.4926  -13.7970   36.7235 C   0  0  0  0  0  0  0  0  0  0  0  0
  -23.1889   -9.8183   19.9311 C   0  0  0  0  0  0  0  0  0  0  0  0
  -23.5610   -9.9999   22.3114 C   0  0  0  0  0  0  0  0  0  0  0  0
  -25.8239  -12.7121   38.0852 C   0  0  0  0  0  0  0  0  0  0  0  0
  -27.0541  -13.0737   35.6149 C   0  0  0  0  0  0  0  0  0  0  0  0
  -26.5984  -15.9524   31.4735 C   0  0  0  0  0  0  0  0  0  0  0  0
  -22.4206   -8.6727   20.1386 C   0  0  0  0  0  0  0  0  0  0  0  0
  -22.7926   -8.8543   22.5189 C   0  0  0  0  0  0  0  0  0  0  0  0
  -27.7701  -16.2752   30.7904 C   0  0  0  0  0  0  0  0  0  0  0  0
  -23.1903   -5.5070   22.2583 C   0  0  0  0  0  0  0  0  0  0  0  0
  -23.6851   -4.5456   23.1395 C   0  0  0  0  0  0  0  0  0  0  0  0
  -27.3046  -14.5375   29.1832 C   0  0  0  0  0  0  0  0  0  0  0  0
  -30.5836  -14.4668   24.8877 C   0  0  0  0  0  0  0  0  0  0  0  0
  -21.7251   -4.8090   24.5273 C   0  0  0  0  0  0  0  0  0  0  0  0
  -23.7591  -10.4819   21.0176 C   0  0  0  0  0  0  0  0  0  0  0  0
  -24.1016  -12.9979   20.7729 C   0  0  0  0  0  0  0  0  0  0  0  0
  -25.3659  -11.9845   36.9754 C   0  0  0  0  0  0  0  0  0  0  0  0
  -25.7752  -14.9108   31.0221 C   0  0  0  0  0  0  0  0  0  0  0  0
  -25.9937  -12.1585   35.7272 C   0  0  0  0  0  0  0  0  0  0  0  0
  -26.1217  -14.2052   29.8610 C   0  0  0  0  0  0  0  0  0  0  0  0
  -31.3243  -14.8966   25.9718 C   0  0  0  0  0  0  0  0  0  0  0  0
  -32.7096  -14.7234   25.9934 C   0  0  0  0  0  0  0  0  0  0  0  0
  -22.2225   -8.1908   21.4325 C   0  0  0  0  0  0  0  0  0  0  0  0
  -28.1249  -15.5658   29.6467 C   0  0  0  0  0  0  0  0  0  0  0  0
  -21.9629   -6.1194   22.5116 C   0  0  0  0  0  0  0  0  0  0  0  0
  -22.9525   -4.1966   24.2740 C   0  0  0  0  0  0  0  0  0  0  0  0
  -21.2303   -5.7704   23.6461 C   0  0  0  0  0  0  0  0  0  0  0  0
  -24.5533  -11.6649   20.8038 C   0  0  0  0  0  0  0  0  0  0  0  0
  -33.3267  -14.1197   24.9225 C   0  0  0  0  0  0  0  0  0  0  0  0
  -31.2899  -13.8582   23.8596 C   0  0  0  0  0  0  0  0  0  0  0  0
  -25.2343  -13.7390   20.5402 C   0  0  0  0  0  0  0  0  0  0  0  0
  -22.7766  -13.5196   20.9398 C   0  0  0  0  0  0  0  0  0  0  0  0
  -24.8043  -12.1351   32.2290 C   0  0  0  0  0  0  0  0  0  0  0  0
  -22.9721  -12.0571   29.5533 C   0  0  0  0  0  0  0  0  0  0  0  0
  -22.4905  -13.1018   26.3403 C   0  0  0  0  0  0  0  0  0  0  0  0
  -31.0347  -12.7720   21.6010 C   0  0  0  0  0  0  0  0  0  0  0  0
  -24.2543  -10.9843   37.1717 C   0  0  0  0  0  0  0  0  0  0  0  0
  -24.5009  -14.5926   31.7551 C   0  0  0  0  0  0  0  0  0  0  0  0
  -33.3149  -15.2976   27.2298 C   0  0  0  0  0  0  0  0  0  0  0  0
  -25.2618  -13.0916   29.3234 C   0  0  0  0  0  0  0  0  0  0  0  0
  -23.6035  -10.5330   35.8667 C   0  0  0  0  0  0  0  0  0  0  0  0
  -32.0797  -15.3907   28.1386 C   0  0  0  0  0  0  0  0  0  0  0  0
  -29.5317  -13.4532   18.4460 C   0  0  0  0  0  0  0  0  0  0  0  0
  -24.6685  -10.1872   34.8308 C   0  0  0  0  0  0  0  0  0  0  0  0
  -28.0426  -13.1991   18.6915 C   0  0  0  0  0  0  0  0  0  0  0  0
  -30.4095  -12.4676   19.2153 C   0  0  0  0  0  0  0  0  0  0  0  0
  -28.6447  -12.1295   20.9007 C   0  0  0  0  0  0  0  0  0  0  0  0
  -30.8687  -15.6207   27.2078 C   0  0  2  0  0  0  0  0  0  0  0  0
  -25.5302  -11.4107   34.4960 C   0  0  1  0  0  0  0  0  0  0  0  0
  -24.0019  -13.1740   31.4979 C   0  0  1  0  0  0  0  0  0  0  0  0
  -27.7220  -13.1387   20.1978 C   0  0  2  0  0  0  0  0  0  0  0  0
  -34.8046  -13.9331   24.8969 C   0  0  0  0  0  0  0  0  0  0  0  0
  -20.9243  -12.8391   24.3973 C   0  0  0  0  0  0  0  0  0  0  0  0
  -24.1577   -9.3063   28.9727 C   0  0  0  0  0  0  0  0  0  0  0  0
  -23.3187   -9.5175   26.6234 C   0  0  0  0  0  0  0  0  0  0  0  0
  -21.7049   -9.5006   28.5254 C   0  0  0  0  0  0  0  0  0  0  0  0
  -21.8272  -15.9861   26.3356 C   0  0  0  0  0  0  0  0  0  0  0  0
  -29.5707  -15.1106   27.8141 C   0  0  0  0  0  0  0  0  0  1  0  0
  -23.1542  -11.5375   28.1477 C   0  0  1  0  0  0  0  0  0  0  0  0
  -21.2662  -13.6555   25.6340 C   0  0  2  0  0  0  0  0  0  0  0  0
  -23.1013   -9.9851   28.0783 C   0  0  0  0  0  0  0  0  0  0  0  0
  -25.8703  -11.5621   20.6063 N   0  0  0  0  0  0  0  0  0  0  0  0
  -32.6374  -13.6731   23.8482 N   0  0  0  0  0  0  0  0  0  0  0  0
  -26.2558  -12.8399   20.4490 N   0  0  0  0  0  0  0  0  0  0  0  0
  -24.0290  -12.8139   30.0789 N   0  0  0  0  0  0  0  0  0  0  0  0
  -30.0519  -12.4676   20.6355 N   0  0  0  0  0  0  0  0  0  0  0  0
  -25.4463  -15.0655   20.4066 N   0  0  0  0  0  0  0  0  0  0  0  0
  -21.7282  -12.6188   21.1716 N   0  0  0  0  0  0  0  0  0  0  0  0
  -30.5450  -13.4066   22.7421 N   0  0  0  0  0  0  0  0  0  0  0  0
  -24.8203  -12.2992   33.6010 N   0  0  0  0  0  0  0  0  0  0  0  0
  -22.1472  -12.2068   27.3314 N   0  0  0  0  0  0  0  0  0  0  0  0
  -21.5034  -15.0659   25.2152 N   0  3  0  0  0  0  0  0  0  0  0  0
  -22.5271  -14.7469   20.8686 O   0  0  0  0  0  0  0  0  0  0  0  0
  -25.3661  -11.2493   31.5954 O   0  0  0  0  0  0  0  0  0  0  0  0
  -21.9276  -11.8070   30.1599 O   0  0  0  0  0  0  0  0  0  0  0  0
  -23.6369  -13.4277   26.0402 O   0  0  0  0  0  0  0  0  0  0  0  0
  -32.2272  -12.5149   21.4165 O   0  0  0  0  0  0  0  0  0  0  0  0
  -21.4727   -7.0731   21.6353 O   0  0  0  0  0  0  0  0  0  0  0  0
  -29.2683  -15.8784   28.9784 O   0  0  0  0  0  0  0  0  0  1  0  0
  -23.4270   -3.2723   25.1194 F   0  0  0  0  0  0  0  0  0  0  0  0
  -20.0500   -6.3545   23.8941 F   0  0  0  0  0  0  0  0  0  0  0  0
  1  2  1  0  0  0  0
  1  5  2  0  0  0  0
  2  6  2  0  0  0  0
  3  8  2  0  0  0  0
  3 16  1  0  0  0  0
  4  9  1  0  0  0  0
  4 16  2  0  0  0  0
  5 18  1  0  0  0  0
  6 20  1  0  0  0  0
  7 10  2  0  0  0  0
  7 19  1  0  0  0  0
  8 24  1  0  0  0  0
  9 24  2  0  0  0  0
 10 25  1  0  0  0  0
 11 12  2  0  0  0  0
 11 26  1  0  0  0  0
 12 27  1  0  0  0  0
 13 21  1  0  0  0  0
 13 25  2  0  0  0  0
 14 22  2  0  0  0  0
 14 31  1  0  0  0  0
 15 27  2  0  0  0  0
 15 28  1  0  0  0  0
 16 29  1  0  0  0  0
 17 29  1  0  0  0  0
 17 32  2  0  0  0  0
 17 33  1  0  0  0  0
 18 20  2  0  0  0  0
 18 38  1  0  0  0  0
 19 21  2  0  0  0  0
 19 39  1  0  0  0  0
 20 50  1  0  0  0  0
 21 41  1  0  0  0  0
 22 23  1  0  0  0  0
 22 49  1  0  0  0  0
 23 30  2  0  0  0  0
 23 40  1  0  0  0  0
 24 79  1  0  0  0  0
 25 80  1  0  0  0  0
 26 28  2  0  0  0  0
 26 79  1  0  0  0  0
 27 81  1  0  0  0  0
 28 82  1  0  0  0  0
 29 63  2  0  0  0  0
 30 53  1  0  0  0  0
 30 64  1  0  0  0  0
 31 64  2  0  0  0  0
 31 70  1  0  0  0  0
 32 65  1  0  0  0  0
 32 68  1  0  0  0  0
 33 69  1  0  0  0  0
 33 74  2  0  0  0  0
 34 51  1  0  0  0  0
 34 71  1  0  0  0  0
 34 75  2  0  0  0  0
 35 60  1  0  0  0  0
 35 66  1  0  0  0  0
 35 76  2  0  0  0  0
 36 61  1  0  0  0  0
 36 72  1  0  0  0  0
 36 77  2  0  0  0  0
 37 67  1  0  0  0  0
 37 70  1  0  0  0  0
 37 78  2  0  0  0  0
 38 42  1  0  0  0  0
 39 51  1  0  0  0  0
 40 43  1  0  0  0  0
 41 66  1  0  0  0  0
 42 45  1  0  0  0  0
 43 49  1  0  0  0  0
 44 46  1  0  0  0  0
 44 47  1  0  0  0  0
 45 50  1  0  0  0  0
 46 52  1  0  0  0  0
 47 67  1  0  0  0  0
 48 52  1  0  0  0  0
 48 67  1  0  0  0  0
 49 59  1  0  0  0  0
 50 71  1  0  0  0  0
 51 66  1  0  0  0  0
 52 65  1  0  0  0  0
 54 61  1  0  0  0  0
 55 62  1  0  0  0  0
 56 62  1  0  0  0  0
 57 62  1  0  0  0  0
 58 73  1  0  0  0  0
 59 80  1  0  0  0  0
 60 62  1  0  0  0  0
 60 72  1  0  0  0  0
 61 73  1  0  0  0  0
 63 65  1  0  0  0  0
M  CHG  1  73   1
M  ISO  4  37 100  59 101  70 100  80 101
M  END
> <Batch ID>
0147

> <Smiles>
CNC(C)C(=O)NC(C(=O)N1Cc2cc([101O:1][101CH2:1]C3CCc4c3cc([100NH:0][100C:0](=O)N3CCCC(n5nc(-c6ccc(Oc7ccc(F)cc7F)cc6)c(C(N)=O)c5N)C3)nc4C)ccc2CC1C(=O)NC1CCCc2ccccc21)C(C)(C)C

> <Shape>
0.142

> <Color>
0.182

> <Negative vol penalty>
0.000

$$$$

  -OEChem-04052321333D

 87 97  0     1  0  0  0  0  0999 V2000
  -25.1822  -30.3089   17.4350 C   0  0  0  0  0  0  0  0  0  0  0  0
  -25.7072  -29.0426   17.6724 C   0  0  0  0  0  0  0  0  0  0  0  0
  -23.7423   -9.9327   22.0371 C   0  0  0  0  0  0  0  0  0  0  0  0
  -24.3279  -11.2888   23.9490 C   0  0  0  0  0  0  0  0  0  0  0  0
  -24.6589  -31.0544   18.4906 C   0  0  0  0  0  0  0  0  0  0  0  0
  -25.7103  -28.5216   18.9658 C   0  0  0  0  0  0  0  0  0  0  0  0
  -24.9728  -22.6588   20.5748 C   0  0  0  0  0  0  0  0  0  0  0  0
  -23.1974   -8.9701   22.8868 C   0  0  0  0  0  0  0  0  0  0  0  0
  -23.7830  -10.3262   24.7987 C   0  0  0  0  0  0  0  0  0  0  0  0
  -25.8822  -21.6564   20.9096 C   0  0  0  0  0  0  0  0  0  0  0  0
  -20.3418   -8.5267   24.6422 C   0  0  0  0  0  0  0  0  0  0  0  0
  -19.1003   -7.9896   24.3018 C   0  0  0  0  0  0  0  0  0  0  0  0
  -25.5564  -22.1501   23.2482 C   0  0  0  0  0  0  0  0  0  0  0  0
  -20.0837   -5.7854   24.1933 C   0  0  0  0  0  0  0  0  0  0  0  0
  -24.3076  -11.0921   22.5682 C   0  0  0  0  0  0  0  0  0  0  0  0
  -24.2073  -13.1861   21.1147 C   0  0  0  0  0  0  0  0  0  0  0  0
  -24.6468  -30.5383   19.7960 C   0  0  0  0  0  0  0  0  0  0  0  0
  -24.3555  -23.4229   21.5756 C   0  0  0  0  0  0  0  0  0  0  0  0
  -25.1876  -29.2615   20.0401 C   0  0  0  0  0  0  0  0  0  0  0  0
  -24.6375  -23.1598   22.9237 C   0  0  0  0  0  0  0  0  0  0  0  0
  -28.5763  -18.6554   22.0650 C   0  0  0  0  0  0  0  0  0  0  0  0
  -28.2161  -17.5639   22.9608 C   0  0  0  0  0  0  0  0  0  0  0  0
  -23.2177   -9.1668   24.2676 C   0  0  0  0  0  0  0  0  0  0  0  0
  -26.1763  -21.4039   22.2463 C   0  0  0  0  0  0  0  0  0  0  0  0
  -21.4542   -7.6931   24.7582 C   0  0  0  0  0  0  0  0  0  0  0  0
  -18.9713   -6.6189   24.0773 C   0  0  0  0  0  0  0  0  0  0  0  0
  -21.3252   -6.3225   24.5337 C   0  0  0  0  0  0  0  0  0  0  0  0
  -24.8712  -12.0866   21.6910 C   0  0  0  0  0  0  0  0  0  0  0  0
  -29.9634  -18.7110   22.2000 C   0  0  0  0  0  0  0  0  0  0  0  0
  -29.4537  -17.2186   23.5233 C   0  0  0  0  0  0  0  0  0  0  0  0
  -25.1731  -13.8191   20.3710 C   0  0  0  0  0  0  0  0  0  0  0  0
  -22.8399  -13.5985   21.2405 C   0  0  0  0  0  0  0  0  0  0  0  0
  -24.3274  -26.5063   22.3470 C   0  0  0  0  0  0  0  0  0  0  0  0
  -22.0992  -25.5470   24.5004 C   0  0  0  0  0  0  0  0  0  0  0  0
  -20.7851  -23.0187   26.3787 C   0  0  0  0  0  0  0  0  0  0  0  0
  -31.1458  -14.0001   20.7512 C   0  0  0  0  0  0  0  0  0  0  0  0
  -24.1136  -31.4007   20.9126 C   0  0  0  0  0  0  0  0  0  0  0  0
  -23.3566  -24.4825   21.1991 C   0  0  0  0  0  0  0  0  0  0  0  0
  -23.9865  -23.9382   24.0366 C   0  0  0  0  0  0  0  0  0  0  0  0
  -30.0190  -17.7631   24.8233 C   0  0  0  0  0  0  0  0  0  0  0  0
  -23.8135  -30.6238   22.1919 C   0  0  0  0  0  0  0  0  0  0  0  0
  -30.4346  -19.2685   24.5678 C   0  0  0  0  0  0  0  0  0  0  0  0
  -29.2096  -12.9466   17.9551 C   0  0  0  0  0  0  0  0  0  0  0  0
  -24.9702  -29.6898   22.5331 C   0  0  0  0  0  0  0  0  0  0  0  0
  -32.3002  -19.3240   22.7651 C   0  0  0  0  0  0  0  0  0  0  0  0
  -27.8182  -12.7060   18.5435 C   0  0  0  0  0  0  0  0  0  0  0  0
  -32.6575  -17.8390   22.9345 C   0  0  0  0  0  0  0  0  0  0  0  0
  -30.3126  -12.5416   18.9305 C   0  0  0  0  0  0  0  0  0  0  0  0
  -28.8209  -12.9139   20.8566 C   0  0  0  0  0  0  0  0  0  0  0  0
  -25.1863  -28.6518   21.4251 C   0  0  1  0  0  0  0  0  0  0  0  0
  -30.8180  -19.6169   23.0650 C   0  0  1  0  0  0  0  0  0  0  0  0
  -23.1755  -25.5439   22.2798 C   0  0  1  0  0  0  0  0  0  0  0  0
  -27.6756  -13.3594   19.9313 C   0  0  2  0  0  0  0  0  0  0  0  0
  -31.6438  -16.9073   22.2385 C   0  0  1  0  0  0  0  0  0  0  0  0
  -26.7815  -17.3682   25.0240 C   0  0  0  0  0  0  0  0  0  0  0  0
  -26.3393  -15.8828   23.0358 C   0  0  0  0  0  0  0  0  0  0  0  0
  -18.9923  -22.5483   28.0704 C   0  0  0  0  0  0  0  0  0  0  0  0
  -23.7825  -26.8987   26.6566 C   0  0  0  0  0  0  0  0  0  0  0  0
  -22.4915  -25.6119   28.3730 C   0  0  0  0  0  0  0  0  0  0  0  0
  -21.3162  -27.2395   26.8922 C   0  0  0  0  0  0  0  0  0  0  0  0
  -19.4569  -21.0626   24.5986 C   0  0  0  0  0  0  0  0  0  0  0  0
  -27.6571  -19.6986   21.5011 C   0  0  0  0  0  0  0  0  0  1  0  0
  -31.8339  -15.4477   22.6459 C   0  0  0  0  0  0  0  0  0  0  0  0
  -26.8702  -17.2655   23.4829 C   0  0  0  0  0  0  0  0  0  0  0  0
  -22.1339  -25.0510   25.9258 C   0  0  1  0  0  0  0  0  0  0  0  0
  -19.3532  -22.5626   26.5931 C   0  0  2  0  0  0  0  0  0  0  0  0
  -22.4449  -26.1867   26.9411 C   0  0  0  0  0  0  0  0  0  0  0  0
  -26.1591  -12.0218   21.3432 N   0  0  0  0  0  0  0  0  0  0  0  0
  -30.2574  -17.3622   22.3929 N   0  0  0  0  0  0  0  0  0  0  0  0
  -26.3123  -13.0885   20.5402 N   0  0  0  0  0  0  0  0  0  0  0  0
  -23.0216  -24.9681   23.6173 N   0  0  0  0  0  0  0  0  0  0  0  0
  -30.1200  -13.1968   20.2264 N   0  0  0  0  0  0  0  0  0  0  0  0
  -25.1505  -14.9237   19.5953 N   0  0  0  0  0  0  0  0  0  0  0  0
  -21.9828  -12.8344   22.0441 N   0  0  0  0  0  0  0  0  0  0  0  0
  -24.1943  -27.6020   21.5156 N   0  0  0  0  0  0  0  0  0  0  0  0
  -20.8603  -24.3772   26.1547 N   0  0  0  0  0  0  0  0  0  0  0  0
  -30.8791  -14.5892   21.9810 N   0  0  0  0  0  0  0  0  0  0  0  0
  -19.1601  -21.1888   26.0488 N   0  3  0  0  0  0  0  0  0  0  0  0
  -22.3873  -14.6052   20.6444 O   0  0  0  0  0  0  0  0  0  0  0  0
  -25.2666  -26.2729   23.0987 O   0  0  0  0  0  0  0  0  0  0  0  0
  -21.2789  -26.4110   24.1806 O   0  0  0  0  0  0  0  0  0  0  0  0
  -21.7417  -22.2477   26.4106 O   0  0  0  0  0  0  0  0  0  0  0  0
  -32.2178  -14.1834   20.1644 O   0  0  0  0  0  0  0  0  0  0  0  0
  -22.6859   -8.2278   25.0970 O   0  0  0  0  0  0  0  0  0  0  0  0
  -27.0641  -20.4265   22.5757 O   0  0  0  0  0  0  0  0  0  1  0  0
  -17.7787   -6.1031   23.7519 F   0  0  0  0  0  0  0  0  0  0  0  0
  -22.3901   -5.5166   24.6448 F   0  0  0  0  0  0  0  0  0  0  0  0
  1  2  1  0  0  0  0
  1  5  2  0  0  0  0
  2  6  2  0  0  0  0
  3  8  2  0  0  0  0
  3 15  1  0  0  0  0
  4  9  1  0  0  0  0
  4 15  2  0  0  0  0
  5 17  1  0  0  0  0
  6 19  1  0  0  0  0
  7 10  2  0  0  0  0
  7 18  1  0  0  0  0
  8 23  1  0  0  0  0
  9 23  2  0  0  0  0
 10 24  1  0  0  0  0
 11 12  2  0  0  0  0
 11 25  1  0  0  0  0
 12 26  1  0  0  0  0
 13 20  1  0  0  0  0
 13 24  2  0  0  0  0
 14 26  2  0  0  0  0
 14 27  1  0  0  0  0
 15 28  1  0  0  0  0
 16 28  1  0  0  0  0
 16 31  2  0  0  0  0
 16 32  1  0  0  0  0
 17 19  2  0  0  0  0
 17 37  1  0  0  0  0
 18 20  2  0  0  0  0
 18 38  1  0  0  0  0
 19 50  1  0  0  0  0
 20 39  1  0  0  0  0
 21 22  1  0  0  0  0
 21 29  2  0  0  0  0
 21 62  1  0  0  0  0
 22 30  2  0  0  0  0
 22 64  1  0  0  0  0
 23 84  1  0  0  0  0
 24 85  1  0  0  0  0
 25 27  2  0  0  0  0
 25 84  1  0  0  0  0
 26 86  1  0  0  0  0
 27 87  1  0  0  0  0
 28 68  2  0  0  0  0
 29 51  1  0  0  0  0
 29 69  1  0  0  0  0
 30 40  1  0  0  0  0
 30 69  1  0  0  0  0
 31 70  1  0  0  0  0
 31 73  1  0  0  0  0
 32 74  1  0  0  0  0
 32 79  2  0  0  0  0
 33 52  1  0  0  0  0
 33 75  1  0  0  0  0
 33 80  2  0  0  0  0
 34 65  1  0  0  0  0
 34 71  1  0  0  0  0
 34 81  2  0  0  0  0
 35 66  1  0  0  0  0
 35 76  1  0  0  0  0
 35 82  2  0  0  0  0
 36 72  1  0  0  0  0
 36 77  1  0  0  0  0
 36 83  2  0  0  0  0
 37 41  1  0  0  0  0
 38 52  1  0  0  0  0
 39 71  1  0  0  0  0
 40 42  1  0  0  0  0
 41 44  1  0  0  0  0
 42 51  1  0  0  0  0
 43 46  1  0  0  0  0
 43 48  1  0  0  0  0
 44 50  1  0  0  0  0
 45 47  1  0  0  0  0
 45 51  1  0  0  0  0
 46 53  1  0  0  0  0
 47 54  1  0  0  0  0
 48 72  1  0  0  0  0
 49 53  1  0  0  0  0
 49 72  1  0  0  0  0
 50 75  1  0  0  0  0
 52 71  1  0  0  0  0
 53 70  1  0  0  0  0
 54 63  1  0  0  0  0
 54 69  1  0  0  0  0
 55 64  1  0  0  0  0
 56 64  1  0  0  0  0
 57 66  1  0  0  0  0
 58 67  1  0  0  0  0
 59 67  1  0  0  0  0
 60 67  1  0  0  0  0
 61 78  1  0  0  0  0
 62 85  1  0  0  0  0
 63 77  1  0  0  0  0
 65 67  1  0  0  0  0
 65 76  1  0  0  0  0
 66 78  1  0  0  0  0
 68 70  1  0  0  0  0
M  CHG  1  78   1
M  ISO  4  36 100  62 101  77 100  85 101
M  END
> <Batch ID>
0147

> <Smiles>
CNC(C)C(=O)NC(C(=O)N1Cc2cc([101O:1][101CH2:1]c3c(C(C)C)c4n5c3C(CC4)CCC5C[100NH:0][100C:0](=O)N3CCCC(n4nc(-c5ccc(Oc6ccc(F)cc6F)cc5)c(C(N)=O)c4N)C3)ccc2CC1C(=O)NC1CCCc2ccccc21)C(C)(C)C

> <Shape>
0.192

> <Color>
0.124

> <Negative vol penalty>
0.000

$$$$

  -OEChem-04052321333D

 89 99  0     1  0  0  0  0  0999 V2000
  -28.9094  -24.5914   16.7165 C   0  0  0  0  0  0  0  0  0  0  0  0
  -27.7226  -24.6534   17.4398 C   0  0  0  0  0  0  0  0  0  0  0  0
  -23.7519  -25.6849   24.2649 C   0  0  0  0  0  0  0  0  0  0  0  0
  -27.3962  -15.0525   19.3245 C   0  0  0  0  0  0  0  0  0  0  0  0
  -25.2361  -15.5591   20.2808 C   0  0  0  0  0  0  0  0  0  0  0  0
  -30.0442  -25.2534   17.1832 C   0  0  0  0  0  0  0  0  0  0  0  0
  -27.6703  -25.3767   18.6309 C   0  0  0  0  0  0  0  0  0  0  0  0
  -23.5179  -28.2548   18.9755 C   0  0  0  0  0  0  0  0  0  0  0  0
  -24.7892  -24.9537   23.6862 C   0  0  0  0  0  0  0  0  0  0  0  0
  -22.4658  -25.6146   23.7295 C   0  0  0  0  0  0  0  0  0  0  0  0
  -27.2244  -13.7069   19.6491 C   0  0  0  0  0  0  0  0  0  0  0  0
  -25.0642  -14.2134   20.6054 C   0  0  0  0  0  0  0  0  0  0  0  0
  -22.3273  -27.6162   19.3194 C   0  0  0  0  0  0  0  0  0  0  0  0
  -24.1906  -11.3616   19.0166 C   0  0  0  0  0  0  0  0  0  0  0  0
  -22.9535  -10.7816   18.7357 C   0  0  0  0  0  0  0  0  0  0  0  0
  -17.7270  -24.1968   24.7081 C   0  0  0  0  0  0  0  0  0  0  0  0
  -22.5885  -28.3687   21.5964 C   0  0  0  0  0  0  0  0  0  0  0  0
  -19.8408  -23.4609   23.7584 C   0  0  0  0  0  0  0  0  0  0  0  0
  -23.2544  -24.0819   22.0366 C   0  0  0  0  0  0  0  0  0  0  0  0
  -22.6596  -10.2736   21.0794 C   0  0  0  0  0  0  0  0  0  0  0  0
  -26.4021  -15.9786   19.6404 C   0  0  0  0  0  0  0  0  0  0  0  0
  -26.2007  -18.0108   18.1115 C   0  0  0  0  0  0  0  0  0  0  0  0
  -30.0032  -25.9931   18.3756 C   0  0  0  0  0  0  0  0  0  0  0  0
  -24.2596  -28.9472   19.9434 C   0  0  0  0  0  0  0  0  0  0  0  0
  -28.8060  -26.0481   19.1147 C   0  0  0  0  0  0  0  0  0  0  0  0
  -17.8008  -25.3247   23.9074 C   0  0  0  0  0  0  0  0  0  0  0  0
  -23.7869  -29.0174   21.2616 C   0  0  0  0  0  0  0  0  0  0  0  0
  -18.8773  -25.5263   23.0323 C   0  0  0  0  0  0  0  0  0  0  0  0
  -18.7620  -23.2632   24.6336 C   0  0  0  0  0  0  0  0  0  0  0  0
  -24.5405  -24.1522   22.5720 C   0  0  0  0  0  0  0  0  0  0  0  0
  -26.0584  -13.2873   20.2895 C   0  0  0  0  0  0  0  0  0  0  0  0
  -21.8638  -27.6706   20.6306 C   0  0  0  0  0  0  0  0  0  0  0  0
  -22.2170  -24.8131   22.6153 C   0  0  0  0  0  0  0  0  0  0  0  0
  -24.6623  -11.3975   20.3288 C   0  0  0  0  0  0  0  0  0  0  0  0
  -19.9006  -24.5952   22.9450 C   0  0  0  0  0  0  0  0  0  0  0  0
  -22.1880  -10.2377   19.7671 C   0  0  0  0  0  0  0  0  0  0  0  0
  -23.8968  -10.8535   21.3602 C   0  0  0  0  0  0  0  0  0  0  0  0
  -26.5792  -17.3689   19.3059 C   0  0  0  0  0  0  0  0  0  0  0  0
  -26.5843  -19.3178   18.2877 C   0  0  0  0  0  0  0  0  0  0  0  0
  -25.5597  -17.4736   16.9470 C   0  0  0  0  0  0  0  0  0  0  0  0
  -27.1756  -28.6479   21.1727 C   0  0  0  0  0  0  0  0  0  0  0  0
  -26.4075  -31.4231   22.6663 C   0  0  0  0  0  0  0  0  0  0  0  0
  -23.9695  -33.5112   23.8249 C   0  0  0  0  0  0  0  0  0  0  0  0
  -26.9274  -23.3669   22.3923 C   0  0  0  0  0  0  0  0  0  0  0  0
  -31.2683  -26.6529   18.8645 C   0  0  0  0  0  0  0  0  0  0  0  0
  -25.5282  -29.6533   19.5505 C   0  0  0  0  0  0  0  0  0  0  0  0
  -16.8016  -26.4330   23.7943 C   0  0  0  0  0  0  0  0  0  0  0  0
  -24.5354  -29.7648   22.3338 C   0  0  0  0  0  0  0  0  0  0  0  0
  -31.0282  -27.7069   19.9423 C   0  0  0  0  0  0  0  0  0  0  0  0
  -17.6492  -27.5249   23.1260 C   0  0  0  0  0  0  0  0  0  0  0  0
  -29.8145  -21.6348   21.2340 C   0  0  0  0  0  0  0  0  0  0  0  0
  -30.0715  -27.1756   21.0049 C   0  0  0  0  0  0  0  0  0  0  0  0
  -29.2392  -20.4205   20.5015 C   0  0  0  0  0  0  0  0  0  0  0  0
  -28.9948  -21.9905   22.4731 C   0  0  0  0  0  0  0  0  0  0  0  0
  -26.9812  -20.9539   21.5035 C   0  0  0  0  0  0  0  0  0  0  0  0
  -18.6855  -26.7941   22.2463 C   0  0  1  0  0  0  0  0  0  0  0  0
  -28.7030  -26.8428   20.3984 C   0  0  1  0  0  0  0  0  0  0  0  0
  -26.4665  -29.8960   20.7288 C   0  0  1  0  0  0  0  0  0  0  0  0
  -27.7356  -20.5970   20.2123 C   0  0  2  0  0  0  0  0  0  0  0  0
  -18.7178  -22.0394   25.4865 C   0  0  0  0  0  0  0  0  0  0  0  0
  -23.6500  -35.6864   25.0349 C   0  0  0  0  0  0  0  0  0  0  0  0
  -27.1423  -30.0645   25.2977 C   0  0  0  0  0  0  0  0  0  0  0  0
  -25.9288  -31.8943   26.5008 C   0  0  0  0  0  0  0  0  0  0  0  0
  -27.9175  -32.4335   25.0947 C   0  0  0  0  0  0  0  0  0  0  0  0
  -22.5326  -34.7092   21.5316 C   0  0  0  0  0  0  0  0  0  0  0  0
  -19.9442  -27.6207   22.0337 C   0  0  0  0  0  0  0  0  0  1  0  0
  -25.7459  -31.7859   23.9738 C   0  0  1  0  0  0  0  0  0  0  0  0
  -23.7731  -35.0094   23.6787 C   0  0  2  0  0  0  0  0  0  0  0  0
  -26.6703  -31.5288   25.1972 C   0  0  0  0  0  0  0  0  0  0  0  0
  -27.1589  -18.1997   20.1764 N   0  0  0  0  0  0  0  0  0  0  0  0
  -27.1476  -19.3770   19.5284 N   0  0  0  0  0  0  0  0  0  0  0  0
  -25.7737  -30.4336   21.9015 N   0  0  0  0  0  0  0  0  0  0  0  0
  -27.5815  -22.1464   22.1218 N   0  0  0  0  0  0  0  0  0  0  0  0
  -26.4914  -20.4108   17.5008 N   0  0  0  0  0  0  0  0  0  0  0  0
  -25.2344  -16.1104   16.9323 N   0  0  0  0  0  0  0  0  0  0  0  0
  -25.5945  -23.4094   21.9847 N   0  0  0  0  0  0  0  0  0  0  0  0
  -27.9370  -28.0521   20.1854 N   0  0  0  0  0  0  0  0  0  0  0  0
  -25.3054  -33.1701   23.8381 N   0  0  0  0  0  0  0  0  0  0  0  0
  -22.5374  -35.2959   22.8965 N   0  3  0  0  0  0  0  0  0  0  0  0
  -25.2984  -18.1780   15.9424 O   0  0  0  0  0  0  0  0  0  0  0  0
  -27.0431  -28.2555   22.3260 O   0  0  0  0  0  0  0  0  0  0  0  0
  -27.4446  -32.0016   22.3324 O   0  0  0  0  0  0  0  0  0  0  0  0
  -23.0316  -32.7228   23.9218 O   0  0  0  0  0  0  0  0  0  0  0  0
  -27.5145  -24.3148   22.9202 O   0  0  0  0  0  0  0  0  0  0  0  0
  -25.8903  -11.9743   20.6061 O   0  0  0  0  0  0  0  0  0  0  0  0
  -20.9388  -24.7433   22.0829 O   0  0  0  0  0  0  0  0  0  0  0  0
  -20.7023  -27.0476   20.9692 O   0  0  0  0  0  0  0  0  0  1  0  0
  -20.9994   -9.6822   19.4975 F   0  0  0  0  0  0  0  0  0  0  0  0
  -24.3441  -10.8861   22.6230 F   0  0  0  0  0  0  0  0  0  0  0  0
  1  2  1  0  0  0  0
  1  6  2  0  0  0  0
  2  7  2  0  0  0  0
  3  9  1  0  0  0  0
  3 10  2  0  0  0  0
  4 11  2  0  0  0  0
  4 21  1  0  0  0  0
  5 12  1  0  0  0  0
  5 21  2  0  0  0  0
  6 23  1  0  0  0  0
  7 25  1  0  0  0  0
  8 13  2  0  0  0  0
  8 24  1  0  0  0  0
  9 30  2  0  0  0  0
 10 33  1  0  0  0  0
 11 31  1  0  0  0  0
 12 31  2  0  0  0  0
 13 32  1  0  0  0  0
 14 15  2  0  0  0  0
 14 34  1  0  0  0  0
 15 36  1  0  0  0  0
 16 26  1  0  0  0  0
 16 29  2  0  0  0  0
 17 27  1  0  0  0  0
 17 32  2  0  0  0  0
 18 29  1  0  0  0  0
 18 35  2  0  0  0  0
 19 30  1  0  0  0  0
 19 33  2  0  0  0  0
 20 36  2  0  0  0  0
 20 37  1  0  0  0  0
 21 38  1  0  0  0  0
 22 38  1  0  0  0  0
 22 39  2  0  0  0  0
 22 40  1  0  0  0  0
 23 25  2  0  0  0  0
 23 45  1  0  0  0  0
 24 27  2  0  0  0  0
 24 46  1  0  0  0  0
 25 57  1  0  0  0  0
 26 28  2  0  0  0  0
 26 47  1  0  0  0  0
 27 48  1  0  0  0  0
 28 35  1  0  0  0  0
 28 56  1  0  0  0  0
 29 60  1  0  0  0  0
 30 76  1  0  0  0  0
 31 85  1  0  0  0  0
 32 87  1  0  0  0  0
 33 86  1  0  0  0  0
 34 37  2  0  0  0  0
 34 85  1  0  0  0  0
 35 86  1  0  0  0  0
 36 88  1  0  0  0  0
 37 89  1  0  0  0  0
 38 70  2  0  0  0  0
 39 71  1  0  0  0  0
 39 74  1  0  0  0  0
 40 75  1  0  0  0  0
 40 80  2  0  0  0  0
 41 58  1  0  0  0  0
 41 77  1  0  0  0  0
 41 81  2  0  0  0  0
 42 67  1  0  0  0  0
 42 72  1  0  0  0  0
 42 82  2  0  0  0  0
 43 68  1  0  0  0  0
 43 78  1  0  0  0  0
 43 83  2  0  0  0  0
 44 73  1  0  0  0  0
 44 76  1  0  0  0  0
 44 84  2  0  0  0  0
 45 49  1  0  0  0  0
 46 58  1  0  0  0  0
 47 50  1  0  0  0  0
 48 72  1  0  0  0  0
 49 52  1  0  0  0  0
 50 56  1  0  0  0  0
 51 53  1  0  0  0  0
 51 54  1  0  0  0  0
 52 57  1  0  0  0  0
 53 59  1  0  0  0  0
 54 73  1  0  0  0  0
 55 59  1  0  0  0  0
 55 73  1  0  0  0  0
 56 66  1  0  0  0  0
 57 77  1  0  0  0  0
 58 72  1  0  0  0  0
 59 71  1  0  0  0  0
 61 68  1  0  0  0  0
 62 69  1  0  0  0  0
 63 69  1  0  0  0  0
 64 69  1  0  0  0  0
 65 79  1  0  0  0  0
 66 87  1  0  0  0  0
 67 69  1  0  0  0  0
 67 78  1  0  0  0  0
 68 79  1  0  0  0  0
 70 71  1  0  0  0  0
M  CHG  1  79   1
M  ISO  4  44 100  66 101  76 100  87 101
M  END
> <Batch ID>
0147

> <Smiles>
CNC(C)C(=O)NC(C(=O)N1Cc2cc([101O:1][101CH2:1]C3CCc4cc(C)cc(Oc5cccc([100NH:0][100C:0](=O)N6CCCC(n7nc(-c8ccc(Oc9ccc(F)cc9F)cc8)c(C(N)=O)c7N)C6)c5)c43)ccc2CC1C(=O)NC1CCCc2ccccc21)C(C)(C)C

> <Shape>
0.304

> <Color>
0.067

> <Negative vol penalty>
0.000

$$$$

  -OEChem-04052321333D

 92103  0     1  0  0  0  0  0999 V2000
  -27.6258  -34.9937   24.1456 C   0  0  0  0  0  0  0  0  0  0  0  0
  -27.8853  -33.6695   23.8071 C   0  0  0  0  0  0  0  0  0  0  0  0
  -22.3466  -13.0510   22.0955 C   0  0  0  0  0  0  0  0  0  0  0  0
  -23.1110  -14.8568   20.6842 C   0  0  0  0  0  0  0  0  0  0  0  0
  -26.3460  -35.3706   24.5504 C   0  0  0  0  0  0  0  0  0  0  0  0
  -26.8652  -32.7211   23.8743 C   0  0  0  0  0  0  0  0  0  0  0  0
  -26.7575  -29.6928   19.8169 C   0  0  0  0  0  0  0  0  0  0  0  0
  -21.2838  -13.8420   22.5320 C   0  0  0  0  0  0  0  0  0  0  0  0
  -22.0482  -15.6478   21.1207 C   0  0  0  0  0  0  0  0  0  0  0  0
  -27.6989  -28.6658   19.7637 C   0  0  0  0  0  0  0  0  0  0  0  0
  -21.2754  -17.5021   23.8401 C   0  0  0  0  0  0  0  0  0  0  0  0
  -21.5519  -18.8241   24.1884 C   0  0  0  0  0  0  0  0  0  0  0  0
  -26.0249  -27.1005   20.5166 C   0  0  0  0  0  0  0  0  0  0  0  0
  -30.9543  -19.7528   18.0769 C   0  0  0  0  0  0  0  0  0  0  0  0
  -20.0207  -19.5931   22.4851 C   0  0  0  0  0  0  0  0  0  0  0  0
  -23.2602  -13.5585   21.1716 C   0  0  0  0  0  0  0  0  0  0  0  0
  -24.2803  -11.5043   20.0547 C   0  0  0  0  0  0  0  0  0  0  0  0
  -25.3074  -34.4283   24.6134 C   0  0  0  0  0  0  0  0  0  0  0  0
  -25.4433  -29.4329   20.2315 C   0  0  0  0  0  0  0  0  0  0  0  0
  -25.5706  -33.0855   24.2817 C   0  0  0  0  0  0  0  0  0  0  0  0
  -25.0681  -28.1254   20.5718 C   0  0  0  0  0  0  0  0  0  0  0  0
  -29.2088  -18.2071   18.6512 C   0  0  0  0  0  0  0  0  0  0  0  0
  -29.6060  -19.4612   18.1873 C   0  0  0  0  0  0  0  0  0  0  0  0
  -21.1346  -15.1404   22.0446 C   0  0  0  0  0  0  0  0  0  0  0  0
  -27.3334  -27.3700   20.1164 C   0  0  0  0  0  0  0  0  0  0  0  0
  -20.3716  -17.2255   22.8142 C   0  0  0  0  0  0  0  0  0  0  0  0
  -20.9245  -19.8696   23.5110 C   0  0  0  0  0  0  0  0  0  0  0  0
  -19.7442  -18.2710   22.1368 C   0  0  0  0  0  0  0  0  0  0  0  0
  -24.3585  -12.7421   20.7208 C   0  0  0  0  0  0  0  0  0  0  0  0
  -31.8684  -18.7670   18.4367 C   0  0  0  0  0  0  0  0  0  0  0  0
  -25.5890  -11.1430   19.8467 C   0  0  0  0  0  0  0  0  0  0  0  0
  -30.1480  -17.2612   19.0055 C   0  0  0  0  0  0  0  0  0  0  0  0
  -23.1277  -10.7488   19.6593 C   0  0  0  0  0  0  0  0  0  0  0  0
  -23.6150  -30.4153   22.6390 C   0  0  0  0  0  0  0  0  0  0  0  0
  -21.3254  -28.7325   21.0743 C   0  0  0  0  0  0  0  0  0  0  0  0
  -20.5557  -26.2238   18.8924 C   0  0  0  0  0  0  0  0  0  0  0  0
  -30.5492  -14.9272   19.8837 C   0  0  0  0  0  0  0  0  0  0  0  0
  -23.9518  -34.8736   25.1022 C   0  0  0  0  0  0  0  0  0  0  0  0
  -24.4327  -30.5467   20.2578 C   0  0  0  0  0  0  0  0  0  0  0  0
  -27.7211  -18.1390   18.7181 C   0  0  0  0  0  0  0  0  0  0  0  0
  -23.6648  -27.7902   21.0041 C   0  0  0  0  0  0  0  0  0  0  0  0
  -22.8347  -33.8822   24.7869 C   0  0  0  0  0  0  0  0  0  0  0  0
  -35.4164  -17.7542   18.0315 C   0  0  0  0  0  0  0  0  0  0  0  0
  -35.0943  -17.7367   19.5151 C   0  0  0  0  0  0  0  0  0  0  0  0
  -29.8792  -11.9409   21.9554 C   0  0  0  0  0  0  0  0  0  0  0  0
  -23.2648  -32.4626   25.1426 C   0  0  0  0  0  0  0  0  0  0  0  0
  -34.0615  -18.0090   17.3886 C   0  0  0  0  0  0  0  0  0  0  0  0
  -34.1026  -18.8820   19.6847 C   0  0  0  0  0  0  0  0  0  0  0  0
  -28.8863  -23.9739   17.2345 C   0  0  0  0  0  0  0  0  0  0  0  0
  -27.7053  -22.7585   19.1117 C   0  0  0  0  0  0  0  0  0  0  0  0
  -28.4414  -11.5228   21.6438 C   0  0  0  0  0  0  0  0  0  0  0  0
  -29.0621  -25.1907   18.1379 C   0  0  0  0  0  0  0  0  0  0  0  0
  -27.8839  -23.9790   20.0098 C   0  0  0  0  0  0  0  0  0  0  0  0
  -27.3312  -19.4058   17.9277 C   0  0  0  0  0  0  0  0  0  0  0  0
  -30.5704  -12.6098   20.7753 C   0  0  0  0  0  0  0  0  0  0  0  0
  -28.3587  -13.6887   20.3116 C   0  0  0  0  0  0  0  0  0  0  0  0
  -24.4842  -32.0326   24.3182 C   0  0  1  0  0  0  0  0  0  0  0  0
  -33.3555  -18.9919   18.3399 C   0  0  0  0  0  0  0  0  0  0  0  0
  -23.2566  -30.2645   21.1876 C   0  0  1  0  0  0  0  0  0  0  0  0
  -28.8075  -22.6738   18.0467 C   0  0  0  0  0  0  0  0  0  0  0  0
  -27.8572  -12.2397   20.4151 C   0  0  2  0  0  0  0  0  0  0  0  0
  -27.9664  -25.2697   19.1976 C   0  0  0  0  0  0  0  0  0  1  0  0
  -18.5971  -25.0599   17.8404 C   0  0  0  0  0  0  0  0  0  0  0  0
  -20.8067  -27.2474   23.6887 C   0  0  0  0  0  0  0  0  0  0  0  0
  -19.5708  -25.5105   22.3759 C   0  0  0  0  0  0  0  0  0  0  0  0
  -18.7461  -27.8644   22.4130 C   0  0  0  0  0  0  0  0  0  0  0  0
  -21.4120  -26.9970   16.1670 C   0  0  0  0  0  0  0  0  0  0  0  0
  -28.5774  -21.4763   17.1266 C   0  0  0  0  0  0  0  0  0  0  0  0
  -20.8377  -27.3042   21.1077 C   0  0  1  0  0  0  0  0  0  0  0  0
  -19.6177  -26.1786   17.6997 C   0  0  2  0  0  0  0  0  0  0  0  0
  -20.0174  -26.9880   22.3901 C   0  0  0  0  0  0  0  0  0  0  0  0
  -25.6173  -13.1403   20.9227 N   0  0  0  0  0  0  0  0  0  0  0  0
  -26.3422  -12.1470   20.3804 N   0  0  0  0  0  0  0  0  0  0  0  0
  -31.4482  -17.5706   18.8830 N   0  3  0  0  0  0  0  0  0  0  0  0
  -28.5126  -20.2672   17.9073 N   0  0  2  0  0  0  0  0  0  0  0  0
  -22.7146  -28.9146   21.0197 N   0  0  0  0  0  0  0  0  0  0  0  0
  -29.8283  -13.7869   20.3146 N   0  0  0  0  0  0  0  0  0  0  0  0
  -26.1574  -10.0675   19.2614 N   0  0  0  0  0  0  0  0  0  0  0  0
  -22.5797  -10.9810   18.3904 N   0  0  0  0  0  0  0  0  0  0  0  0
  -29.7378  -15.9921   19.4843 N   0  0  0  0  0  0  0  0  0  0  0  0
  -24.0842  -31.6708   22.9752 N   0  0  0  0  0  0  0  0  0  0  0  0
  -20.1060  -27.0935   19.8632 N   0  0  0  0  0  0  0  0  0  0  0  0
  -20.3877  -25.9570   16.4432 N   0  3  0  0  0  0  0  0  0  0  0  0
  -22.5896   -9.9047   20.4153 O   0  0  0  0  0  0  0  0  0  0  0  0
  -23.4748  -29.4634   23.3980 O   0  0  0  0  0  0  0  0  0  0  0  0
  -20.5039  -29.6526   21.0887 O   0  0  0  0  0  0  0  0  0  0  0  0
  -21.5826  -25.5517   18.9580 O   0  0  0  0  0  0  0  0  0  0  0  0
  -31.7819  -14.9533   19.8868 O   0  0  0  0  0  0  0  0  0  0  0  0
  -20.0976  -15.9124   22.4701 O   0  0  0  0  0  0  0  0  0  0  0  0
  -28.2505  -26.3658   20.0660 O   0  0  0  0  0  0  0  0  0  1  0  0
  -21.1889  -21.1391   23.8466 F   0  0  0  0  0  0  0  0  0  0  0  0
  -18.8742  -18.0115   21.1511 F   0  0  0  0  0  0  0  0  0  0  0  0
  1  2  1  0  0  0  0
  1  5  2  0  0  0  0
  2  6  2  0  0  0  0
  3  8  2  0  0  0  0
  3 16  1  0  0  0  0
  4  9  1  0  0  0  0
  4 16  2  0  0  0  0
  5 18  1  0  0  0  0
  6 20  1  0  0  0  0
  7 10  2  0  0  0  0
  7 19  1  0  0  0  0
  8 24  1  0  0  0  0
  9 24  2  0  0  0  0
 10 25  1  0  0  0  0
 11 12  2  0  0  0  0
 11 26  1  0  0  0  0
 12 27  1  0  0  0  0
 13 21  1  0  0  0  0
 13 25  2  0  0  0  0
 14 23  2  0  0  0  0
 14 30  1  0  0  0  0
 15 27  2  0  0  0  0
 15 28  1  0  0  0  0
 16 29  1  0  0  0  0
 17 29  1  0  0  0  0
 17 31  2  0  0  0  0
 17 33  1  0  0  0  0
 18 20  2  0  0  0  0
 18 38  1  0  0  0  0
 19 21  2  0  0  0  0
 19 39  1  0  0  0  0
 20 57  1  0  0  0  0
 21 41  1  0  0  0  0
 22 23  1  0  0  0  0
 22 32  2  0  0  0  0
 22 40  1  0  0  0  0
 23 75  1  0  0  0  0
 24 89  1  0  0  0  0
 25 90  1  0  0  0  0
 26 28  2  0  0  0  0
 26 89  1  0  0  0  0
 27 91  1  0  0  0  0
 28 92  1  0  0  0  0
 29 72  2  0  0  0  0
 30 58  1  0  0  0  0
 30 74  2  0  0  0  0
 31 73  1  0  0  0  0
 31 78  1  0  0  0  0
 32 74  1  0  0  0  0
 32 80  1  0  0  0  0
 33 79  1  0  0  0  0
 33 84  2  0  0  0  0
 34 59  1  0  0  0  0
 34 81  1  0  0  0  0
 34 85  2  0  0  0  0
 35 69  1  0  0  0  0
 35 76  1  0  0  0  0
 35 86  2  0  0  0  0
 36 70  1  0  0  0  0
 36 82  1  0  0  0  0
 36 87  2  0  0  0  0
 37 77  1  0  0  0  0
 37 80  1  0  0  0  0
 37 88  2  0  0  0  0
 38 42  1  0  0  0  0
 39 59  1  0  0  0  0
 40 54  1  0  0  0  0
 41 76  1  0  0  0  0
 42 46  1  0  0  0  0
 43 44  1  0  0  0  0
 43 47  1  0  0  0  0
 44 48  1  0  0  0  0
 45 51  1  0  0  0  0
 45 55  1  0  0  0  0
 46 57  1  0  0  0  0
 47 58  1  0  0  0  0
 48 58  1  0  0  0  0
 49 52  1  0  0  0  0
 49 60  1  0  0  0  0
 50 53  1  0  0  0  0
 50 60  1  0  0  0  0
 51 61  1  0  0  0  0
 52 62  1  0  0  0  0
 53 62  1  0  0  0  0
 54 75  1  0  0  0  0
 55 77  1  0  0  0  0
 56 61  1  0  0  0  0
 56 77  1  0  0  0  0
 57 81  1  0  0  0  0
 59 76  1  0  0  0  0
 60 68  1  0  0  0  0
 61 73  1  0  0  0  0
 62 90  1  0  0  0  0
 63 70  1  0  0  0  0
 64 71  1  0  0  0  0
 65 71  1  0  0  0  0
 66 71  1  0  0  0  0
 67 83  1  0  0  0  0
 68 75  1  0  0  0  0
 69 71  1  0  0  0  0
 69 82  1  0  0  0  0
 70 83  1  0  0  0  0
 72 73  1  0  0  0  0
M  CHG  2  74   1  83   1
M  ISO  4  37 100  62 101  80 100  90 101
M  END
> <Batch ID>
0147

> <Smiles>
CNC(C)C(=O)NC(C(=O)N1Cc2cc([101O:1][101CH:1]3CCC(CN4CCc5c4cc(C4CCCC4)nc5[100NH:0][100C:0](=O)N4CCCC(n5nc(-c6ccc(Oc7ccc(F)cc7F)cc6)c(C(N)=O)c5N)C4)CC3)ccc2CC1C(=O)NC1CCCc2ccccc21)C(C)(C)C

> <Shape>
0.295

> <Color>
0.085

> <Negative vol penalty>
0.000

$$$$
