
  -OEChem-04052321363D

 89 98  0     1  0  0  0  0  0999 V2000
  -32.0784  -15.3347   21.0308 C   0  0  0  0  0  0  0  0  0  0  0  0
  -31.0558  -16.2648   20.8737 C   0  0  0  0  0  0  0  0  0  0  0  0
  -28.5705  -25.9003   19.3689 C   0  0  0  0  0  0  0  0  0  0  0  0
  -26.2494  -25.2301   19.3873 C   0  0  0  0  0  0  0  0  0  0  0  0
  -31.8429  -13.9884   20.7556 C   0  0  0  0  0  0  0  0  0  0  0  0
  -29.7974  -15.8492   20.4402 C   0  0  0  0  0  0  0  0  0  0  0  0
  -24.3778  -18.1512   22.1240 C   0  0  0  0  0  0  0  0  0  0  0  0
  -28.9494  -24.5815   19.1185 C   0  0  0  0  0  0  0  0  0  0  0  0
  -26.6283  -23.9112   19.1369 C   0  0  0  0  0  0  0  0  0  0  0  0
  -23.5208  -19.0705   21.5204 C   0  0  0  0  0  0  0  0  0  0  0  0
  -27.6048  -22.0633   16.4813 C   0  0  0  0  0  0  0  0  0  0  0  0
  -26.8917  -21.3587   15.5116 C   0  0  0  0  0  0  0  0  0  0  0  0
  -22.2495  -17.2533   20.5715 C   0  0  0  0  0  0  0  0  0  0  0  0
  -20.4752  -25.1603   22.6578 C   0  0  0  0  0  0  0  0  0  0  0  0
  -18.7608  -26.9449   21.3700 C   0  0  0  0  0  0  0  0  0  0  0  0
  -26.2482  -19.7253   17.1715 C   0  0  0  0  0  0  0  0  0  0  0  0
  -27.2205  -26.2246   19.5033 C   0  0  0  0  0  0  0  0  0  0  0  0
  -27.0808  -28.7122   18.9554 C   0  0  0  0  0  0  0  0  0  0  0  0
  -30.5782  -13.5546   20.3277 C   0  0  0  0  0  0  0  0  0  0  0  0
  -24.1831  -16.7738   21.9466 C   0  0  0  0  0  0  0  0  0  0  0  0
  -29.5451  -14.4959   20.1577 C   0  0  0  0  0  0  0  0  0  0  0  0
  -23.1038  -16.3185   21.1759 C   0  0  0  0  0  0  0  0  0  0  0  0
  -19.8682  -24.7993   21.4550 C   0  0  0  0  0  0  0  0  0  0  0  0
  -19.3678  -27.3059   22.5729 C   0  0  0  0  0  0  0  0  0  0  0  0
  -27.9783  -23.5869   19.0025 C   0  0  0  0  0  0  0  0  0  0  0  0
  -22.4582  -18.6217   20.7417 C   0  0  0  0  0  0  0  0  0  0  0  0
  -27.6398  -21.5989   17.7962 C   0  0  0  0  0  0  0  0  0  0  0  0
  -20.2250  -26.4135   23.2168 C   0  0  0  0  0  0  0  0  0  0  0  0
  -19.0110  -25.6916   20.8110 C   0  0  0  0  0  0  0  0  0  0  0  0
  -26.2133  -20.1897   15.8566 C   0  0  0  0  0  0  0  0  0  0  0  0
  -26.9615  -20.4299   18.1412 C   0  0  0  0  0  0  0  0  0  0  0  0
  -26.8285  -27.5867   19.7625 C   0  0  0  0  0  0  0  0  0  0  0  0
  -26.5077  -29.7584   19.6362 C   0  0  0  0  0  0  0  0  0  0  0  0
  -27.7714  -28.8037   17.7022 C   0  0  0  0  0  0  0  0  0  0  0  0
  -25.8866  -14.4139   20.6687 C   0  0  0  0  0  0  0  0  0  0  0  0
  -23.4871  -12.5713   21.8390 C   0  0  0  0  0  0  0  0  0  0  0  0
  -20.2367  -12.3488   22.8549 C   0  0  0  0  0  0  0  0  0  0  0  0
  -22.0524  -30.0760   23.6237 C   0  0  0  0  0  0  0  0  0  0  0  0
  -30.3847  -12.0959   19.9970 C   0  0  0  0  0  0  0  0  0  0  0  0
  -25.1006  -15.7947   22.6262 C   0  0  0  0  0  0  0  0  0  0  0  0
  -22.8394  -14.8500   20.9710 C   0  0  0  0  0  0  0  0  0  0  0  0
  -28.9183  -11.6823   19.9016 C   0  0  0  0  0  0  0  0  0  0  0  0
  -25.4058  -31.1870   24.0674 C   0  0  0  0  0  0  0  0  0  0  0  0
  -19.6699  -22.2968   21.7850 C   0  0  0  0  0  0  0  0  0  0  0  0
  -21.6375  -23.2587   20.5035 C   0  0  0  0  0  0  0  0  0  0  0  0
  -28.1328  -12.6895   19.0678 C   0  0  0  0  0  0  0  0  0  0  0  0
  -26.1734  -30.4918   22.9416 C   0  0  0  0  0  0  0  0  0  0  0  0
  -19.9518  -20.9257   21.1758 C   0  0  0  0  0  0  0  0  0  0  0  0
  -21.9087  -21.8828   19.9006 C   0  0  0  0  0  0  0  0  0  0  0  0
  -24.3037  -30.2945   24.6338 C   0  0  0  0  0  0  0  0  0  0  0  0
  -24.1314  -29.0641   22.5054 C   0  0  0  0  0  0  0  0  0  0  0  0
  -20.1508  -23.4309   20.8623 C   0  0  0  0  0  0  0  0  0  0  0  0
  -28.1596  -14.0803   19.7132 C   0  0  1  0  0  0  0  0  0  0  0  0
  -25.1130  -14.4238   21.9568 C   0  0  1  0  0  0  0  0  0  0  0  0
  -25.2168  -29.9458   21.8646 C   0  0  2  0  0  0  0  0  0  0  0  0
  -21.4273  -20.7602   20.8166 C   0  0  0  0  0  0  0  0  0  1  0  0
  -18.5522  -10.7035   23.7224 C   0  0  0  0  0  0  0  0  0  0  0  0
  -23.1751  -11.4147   19.0327 C   0  0  0  0  0  0  0  0  0  0  0  0
  -20.9363  -10.5306   19.7215 C   0  0  0  0  0  0  0  0  0  0  0  0
  -22.9987   -9.7363   20.8783 C   0  0  0  0  0  0  0  0  0  0  0  0
  -19.8925  -13.8557   25.3788 C   0  0  0  0  0  0  0  0  0  0  0  0
  -21.6862  -25.7776   24.9821 C   0  0  0  0  0  0  0  0  0  0  0  0
  -17.5488  -26.3270   19.0464 C   0  0  0  0  0  0  0  0  0  0  0  0
  -19.0882  -28.6510   23.1568 C   0  0  0  0  0  0  0  0  0  0  0  0
  -19.8676  -29.7857   22.4827 C   0  0  0  0  0  0  0  0  0  0  0  0
  -22.1602  -12.0819   21.3111 C   0  0  1  0  0  0  0  0  0  0  0  0
  -19.6079  -11.7338   24.0921 C   0  0  2  0  0  0  0  0  0  0  0  0
  -22.3234  -10.9687   20.2380 C   0  0  0  0  0  0  0  0  0  0  0  0
  -26.1482  -27.8895   20.8713 N   0  0  0  0  0  0  0  0  0  0  0  0
  -25.9683  -29.2171   20.7659 N   0  0  0  0  0  0  0  0  0  0  0  0
  -23.7681  -13.9320   21.6510 N   0  0  0  0  0  0  0  0  0  0  0  0
  -23.4305  -29.8114   23.5614 N   0  0  0  0  0  0  0  0  0  0  0  0
  -26.4178  -31.0793   19.3728 N   0  0  0  0  0  0  0  0  0  0  0  0
  -27.0333  -28.6551   16.5201 N   0  0  0  0  0  0  0  0  0  0  0  0
  -27.2323  -14.1405   20.8227 N   0  0  0  0  0  0  0  0  0  0  0  0
  -21.3808  -11.6786   22.4766 N   0  0  0  0  0  0  0  0  0  0  0  0
  -21.2977  -29.5881   22.5638 N   0  0  0  0  0  0  0  0  0  0  0  0
  -18.9638  -12.7887   24.9247 N   0  3  0  0  0  0  0  0  0  0  0  0
  -29.0093  -28.9948   17.6331 O   0  0  0  0  0  0  0  0  0  0  0  0
  -25.3052  -14.6364   19.6131 O   0  0  0  0  0  0  0  0  0  0  0  0
  -24.2433  -11.7771   22.4039 O   0  0  0  0  0  0  0  0  0  0  0  0
  -19.7585  -13.3238   22.2793 O   0  0  0  0  0  0  0  0  0  0  0  0
  -21.5338  -30.7053   24.5521 O   0  0  0  0  0  0  0  0  0  0  0  0
  -28.3477  -22.2999   18.7580 O   0  0  0  0  0  0  0  0  0  0  0  0
  -21.6206  -19.5169   20.1509 O   0  0  0  0  0  0  0  0  0  1  0  0
  -20.8253  -26.7500   24.3928 O   0  0  0  0  0  0  0  0  0  0  0  0
  -18.4096  -25.3546   19.6358 O   0  0  0  0  0  0  0  0  0  0  0  0
  -25.5272  -19.5140   14.9256 F   0  0  0  0  0  0  0  0  0  0  0  0
  -26.9904  -19.9795   19.4030 F   0  0  0  0  0  0  0  0  0  0  0  0
  1  2  1  0  0  0  0
  1  5  2  0  0  0  0
  2  6  2  0  0  0  0
  3  8  2  0  0  0  0
  3 17  1  0  0  0  0
  4  9  1  0  0  0  0
  4 17  2  0  0  0  0
  5 19  1  0  0  0  0
  6 21  1  0  0  0  0
  7 10  2  0  0  0  0
  7 20  1  0  0  0  0
  8 25  1  0  0  0  0
  9 25  2  0  0  0  0
 10 26  1  0  0  0  0
 11 12  2  0  0  0  0
 11 27  1  0  0  0  0
 12 30  1  0  0  0  0
 13 22  1  0  0  0  0
 13 26  2  0  0  0  0
 14 23  1  0  0  0  0
 14 28  2  0  0  0  0
 15 24  2  0  0  0  0
 15 29  1  0  0  0  0
 16 30  2  0  0  0  0
 16 31  1  0  0  0  0
 17 32  1  0  0  0  0
 18 32  1  0  0  0  0
 18 33  2  0  0  0  0
 18 34  1  0  0  0  0
 19 21  2  0  0  0  0
 19 39  1  0  0  0  0
 20 22  2  0  0  0  0
 20 40  1  0  0  0  0
 21 53  1  0  0  0  0
 22 41  1  0  0  0  0
 23 29  2  0  0  0  0
 23 52  1  0  0  0  0
 24 28  1  0  0  0  0
 24 64  1  0  0  0  0
 25 84  1  0  0  0  0
 26 85  1  0  0  0  0
 27 31  2  0  0  0  0
 27 84  1  0  0  0  0
 28 86  1  0  0  0  0
 29 87  1  0  0  0  0
 30 88  1  0  0  0  0
 31 89  1  0  0  0  0
 32 69  2  0  0  0  0
 33 70  1  0  0  0  0
 33 73  1  0  0  0  0
 34 74  1  0  0  0  0
 34 79  2  0  0  0  0
 35 54  1  0  0  0  0
 35 75  1  0  0  0  0
 35 80  2  0  0  0  0
 36 66  1  0  0  0  0
 36 71  1  0  0  0  0
 36 81  2  0  0  0  0
 37 67  1  0  0  0  0
 37 76  1  0  0  0  0
 37 82  2  0  0  0  0
 38 72  1  0  0  0  0
 38 77  1  0  0  0  0
 38 83  2  0  0  0  0
 39 42  1  0  0  0  0
 40 54  1  0  0  0  0
 41 71  1  0  0  0  0
 42 46  1  0  0  0  0
 43 47  1  0  0  0  0
 43 50  1  0  0  0  0
 44 48  1  0  0  0  0
 44 52  1  0  0  0  0
 45 49  1  0  0  0  0
 45 52  1  0  0  0  0
 46 53  1  0  0  0  0
 47 55  1  0  0  0  0
 48 56  1  0  0  0  0
 49 56  1  0  0  0  0
 50 72  1  0  0  0  0
 51 55  1  0  0  0  0
 51 72  1  0  0  0  0
 53 75  1  0  0  0  0
 54 71  1  0  0  0  0
 55 70  1  0  0  0  0
 56 85  1  0  0  0  0
 57 67  1  0  0  0  0
 58 68  1  0  0  0  0
 59 68  1  0  0  0  0
 60 68  1  0  0  0  0
 61 78  1  0  0  0  0
 62 86  1  0  0  0  0
 63 87  1  0  0  0  0
 64 65  1  0  0  0  0
 65 77  1  0  0  0  0
 66 68  1  0  0  0  0
 66 76  1  0  0  0  0
 67 78  1  0  0  0  0
 69 70  1  0  0  0  0
M  CHG  1  78   1
M  ISO  4  38 100  56 101  77 100  85 101
M  END
> <Batch ID>
0148

> <Smiles>
CNC(C)C(=O)NC(C(=O)N1Cc2cc([101O:1][101CH:1]3CCC(c4cc(OC)c(CC[100NH:0][100C:0](=O)N5CCCC(n6nc(-c7ccc(Oc8ccc(F)cc8F)cc7)c(C(N)=O)c6N)C5)cc4OC)CC3)ccc2CC1C(=O)NC1CCCc2ccccc21)C(C)(C)C

> <Shape>
0.245

> <Color>
0.063

> <Negative vol penalty>
0.000

$$$$

  -OEChem-04052321363D

 85 94  0     1  0  0  0  0  0999 V2000
  -18.3402  -21.7590   16.7436 C   0  0  0  0  0  0  0  0  0  0  0  0
  -19.4077  -21.8282   17.6330 C   0  0  0  0  0  0  0  0  0  0  0  0
  -23.1741   -9.8260   19.9567 C   0  0  0  0  0  0  0  0  0  0  0  0
  -23.5770  -10.0346   22.3297 C   0  0  0  0  0  0  0  0  0  0  0  0
  -18.2777  -20.7249   15.8105 C   0  0  0  0  0  0  0  0  0  0  0  0
  -20.4129  -20.8626   17.5905 C   0  0  0  0  0  0  0  0  0  0  0  0
  -26.3749  -21.7030   18.7102 C   0  0  0  0  0  0  0  0  0  0  0  0
  -22.4009   -8.6883   20.1879 C   0  0  0  0  0  0  0  0  0  0  0  0
  -22.8037   -8.8969   22.5610 C   0  0  0  0  0  0  0  0  0  0  0  0
  -27.1579  -21.4762   19.8412 C   0  0  0  0  0  0  0  0  0  0  0  0
  -23.1760   -5.5439   22.3372 C   0  0  0  0  0  0  0  0  0  0  0  0
  -23.6754   -4.5903   23.2242 C   0  0  0  0  0  0  0  0  0  0  0  0
  -28.2972  -17.8570   23.7305 C   0  0  0  0  0  0  0  0  0  0  0  0
  -30.9910  -17.1668   24.2389 C   0  0  0  0  0  0  0  0  0  0  0  0
  -27.8135  -19.3325   18.9501 C   0  0  0  0  0  0  0  0  0  0  0  0
  -21.7346   -4.8841   24.6328 C   0  0  0  0  0  0  0  0  0  0  0  0
  -23.7622  -10.4991   21.0276 C   0  0  0  0  0  0  0  0  0  0  0  0
  -24.1182  -13.0096   20.7474 C   0  0  0  0  0  0  0  0  0  0  0  0
  -19.2875  -19.7516   15.7502 C   0  0  0  0  0  0  0  0  0  0  0  0
  -26.2965  -20.7399   17.6940 C   0  0  0  0  0  0  0  0  0  0  0  0
  -20.3631  -19.8137   16.6566 C   0  0  0  0  0  0  0  0  0  0  0  0
  -29.2995  -18.8123   23.6642 C   0  0  0  0  0  0  0  0  0  0  0  0
  -30.6342  -18.4661   23.9176 C   0  0  0  0  0  0  0  0  0  0  0  0
  -27.0308  -19.5506   17.8061 C   0  0  0  0  0  0  0  0  0  0  0  0
  -28.6498  -16.5414   24.0411 C   0  0  0  0  0  0  0  0  0  0  0  0
  -22.2157   -8.2238   21.4901 C   0  0  0  0  0  0  0  0  0  0  0  0
  -27.8751  -20.2896   19.9626 C   0  0  0  0  0  0  0  0  0  0  0  0
  -21.9559   -6.1678   22.5981 C   0  0  0  0  0  0  0  0  0  0  0  0
  -29.9869  -16.1987   24.2934 C   0  0  0  0  0  0  0  0  0  0  0  0
  -22.9547   -4.2604   24.3720 C   0  0  0  0  0  0  0  0  0  0  0  0
  -21.2352   -5.8378   23.7458 C   0  0  0  0  0  0  0  0  0  0  0  0
  -24.5614  -11.6741   20.7894 C   0  0  0  0  0  0  0  0  0  0  0  0
  -25.2528  -13.7400   20.4915 C   0  0  0  0  0  0  0  0  0  0  0  0
  -22.7988  -13.5422   20.9241 C   0  0  0  0  0  0  0  0  0  0  0  0
  -23.9588  -18.9923   16.4352 C   0  0  0  0  0  0  0  0  0  0  0  0
  -26.2765  -18.1017   14.3477 C   0  0  0  0  0  0  0  0  0  0  0  0
  -29.6065  -17.7203   13.7056 C   0  0  0  0  0  0  0  0  0  0  0  0
  -31.0694  -12.7174   21.4775 C   0  0  0  0  0  0  0  0  0  0  0  0
  -19.1523  -18.6260   14.7556 C   0  0  0  0  0  0  0  0  0  0  0  0
  -25.4685  -21.0111   16.4679 C   0  0  0  0  0  0  0  0  0  0  0  0
  -31.5254  -19.6652   23.8340 C   0  0  0  0  0  0  0  0  0  0  0  0
  -26.9966  -18.4934   16.7338 C   0  0  0  0  0  0  0  0  0  0  0  0
  -20.4500  -17.8548   14.5283 C   0  0  0  0  0  0  0  0  0  0  0  0
  -30.6416  -20.6323   23.0336 C   0  0  0  0  0  0  0  0  0  0  0  0
  -29.5172  -13.4057   18.3481 C   0  0  0  0  0  0  0  0  0  0  0  0
  -21.1140  -17.5228   15.8608 C   0  0  0  0  0  0  0  0  0  0  0  0
  -28.0311  -13.1605   18.6151 C   0  0  0  0  0  0  0  0  0  0  0  0
  -30.3981  -12.4194   19.1117 C   0  0  0  0  0  0  0  0  0  0  0  0
  -28.6586  -12.1129   20.8304 C   0  0  0  0  0  0  0  0  0  0  0  0
  -29.1814  -20.2871   23.3942 C   0  0  1  0  0  0  0  0  0  0  0  0
  -21.4855  -18.7991   16.6253 C   0  0  1  0  0  0  0  0  0  0  0  0
  -25.0562  -19.7400   15.7321 C   0  0  1  0  0  0  0  0  0  0  0  0
  -27.7322  -13.1188   20.1258 C   0  0  2  0  0  0  0  0  0  0  0  0
  -27.5782  -15.5021   24.1092 C   0  0  0  0  0  0  0  0  0  0  0  0
  -31.1923  -16.9351   11.9263 C   0  0  0  0  0  0  0  0  0  0  0  0
  -25.6016  -15.2048   15.0280 C   0  0  0  0  0  0  0  0  0  0  0  0
  -27.7793  -14.5279   13.9948 C   0  0  0  0  0  0  0  0  0  0  0  0
  -26.0303  -15.6340   12.6018 C   0  0  0  0  0  0  0  0  0  0  0  0
  -30.8771  -20.3852   13.4990 C   0  0  0  0  0  0  0  0  0  0  0  0
  -28.2104  -20.6669   22.2867 C   0  0  0  0  0  0  0  0  0  1  0  0
  -31.5851  -12.9964   23.8890 C   0  0  0  0  0  0  0  0  0  0  0  0
  -31.6263  -14.4775   24.2203 C   0  0  0  0  0  0  0  0  0  0  0  0
  -27.3084  -17.0008   14.3019 C   0  0  1  0  0  0  0  0  0  0  0  0
  -30.4561  -18.1282   12.5155 C   0  0  2  0  0  0  0  0  0  0  0  0
  -26.6792  -15.6108   14.0029 C   0  0  0  0  0  0  0  0  0  0  0  0
  -25.8751  -11.5599   20.5769 N   0  0  0  0  0  0  0  0  0  0  0  0
  -26.2671  -12.8330   20.3989 N   0  0  0  0  0  0  0  0  0  0  0  0
  -26.1674  -18.8025   15.5572 N   0  0  0  0  0  0  0  0  0  0  0  0
  -30.0654  -12.4297   20.5383 N   0  0  0  0  0  0  0  0  0  0  0  0
  -25.4718  -15.0633   20.3387 N   0  0  0  0  0  0  0  0  0  0  0  0
  -21.7474  -12.6515   21.1802 N   0  0  0  0  0  0  0  0  0  0  0  0
  -22.6858  -19.3885   16.0719 N   0  0  0  0  0  0  0  0  0  0  0  0
  -28.3130  -17.4231   13.3319 N   0  0  0  0  0  0  0  0  0  0  0  0
  -30.6680  -12.7127   22.8077 N   0  0  0  0  0  0  0  0  0  0  0  0
  -31.4637  -19.1476   12.9234 N   0  3  0  0  0  0  0  0  0  0  0  0
  -22.5566  -14.7702   20.8407 O   0  0  0  0  0  0  0  0  0  0  0  0
  -24.2457  -18.1195   17.2460 O   0  0  0  0  0  0  0  0  0  0  0  0
  -25.5973  -18.3360   13.3450 O   0  0  0  0  0  0  0  0  0  0  0  0
  -30.0473  -17.6669   14.8516 O   0  0  0  0  0  0  0  0  0  0  0  0
  -32.2360  -12.9656   21.1542 O   0  0  0  0  0  0  0  0  0  0  0  0
  -21.4611   -7.1138   21.7161 O   0  0  0  0  0  0  0  0  0  0  0  0
  -28.6397  -20.0655   21.0658 O   0  0  0  0  0  0  0  0  0  1  0  0
  -30.3239  -14.9136   24.6019 O   0  0  0  0  0  0  0  0  0  0  0  0
  -23.4336   -3.3434   25.2229 F   0  0  0  0  0  0  0  0  0  0  0  0
  -20.0620   -6.4329   24.0011 F   0  0  0  0  0  0  0  0  0  0  0  0
  1  2  1  0  0  0  0
  1  5  2  0  0  0  0
  2  6  2  0  0  0  0
  3  8  2  0  0  0  0
  3 17  1  0  0  0  0
  4  9  1  0  0  0  0
  4 17  2  0  0  0  0
  5 19  1  0  0  0  0
  6 21  1  0  0  0  0
  7 10  2  0  0  0  0
  7 20  1  0  0  0  0
  8 26  1  0  0  0  0
  9 26  2  0  0  0  0
 10 27  1  0  0  0  0
 11 12  2  0  0  0  0
 11 28  1  0  0  0  0
 12 30  1  0  0  0  0
 13 22  1  0  0  0  0
 13 25  2  0  0  0  0
 14 23  1  0  0  0  0
 14 29  2  0  0  0  0
 15 24  1  0  0  0  0
 15 27  2  0  0  0  0
 16 30  2  0  0  0  0
 16 31  1  0  0  0  0
 17 32  1  0  0  0  0
 18 32  1  0  0  0  0
 18 33  2  0  0  0  0
 18 34  1  0  0  0  0
 19 21  2  0  0  0  0
 19 39  1  0  0  0  0
 20 24  2  0  0  0  0
 20 40  1  0  0  0  0
 21 51  1  0  0  0  0
 22 23  2  0  0  0  0
 22 50  1  0  0  0  0
 23 41  1  0  0  0  0
 24 42  1  0  0  0  0
 25 29  1  0  0  0  0
 25 54  1  0  0  0  0
 26 81  1  0  0  0  0
 27 82  1  0  0  0  0
 28 31  2  0  0  0  0
 28 81  1  0  0  0  0
 29 83  1  0  0  0  0
 30 84  1  0  0  0  0
 31 85  1  0  0  0  0
 32 66  2  0  0  0  0
 33 67  1  0  0  0  0
 33 70  1  0  0  0  0
 34 71  1  0  0  0  0
 34 76  2  0  0  0  0
 35 52  1  0  0  0  0
 35 72  1  0  0  0  0
 35 77  2  0  0  0  0
 36 63  1  0  0  0  0
 36 68  1  0  0  0  0
 36 78  2  0  0  0  0
 37 64  1  0  0  0  0
 37 73  1  0  0  0  0
 37 79  2  0  0  0  0
 38 69  1  0  0  0  0
 38 74  1  0  0  0  0
 38 80  2  0  0  0  0
 39 43  1  0  0  0  0
 40 52  1  0  0  0  0
 41 44  1  0  0  0  0
 42 68  1  0  0  0  0
 43 46  1  0  0  0  0
 44 50  1  0  0  0  0
 45 47  1  0  0  0  0
 45 48  1  0  0  0  0
 46 51  1  0  0  0  0
 47 53  1  0  0  0  0
 48 69  1  0  0  0  0
 49 53  1  0  0  0  0
 49 69  1  0  0  0  0
 50 60  1  0  0  0  0
 51 72  1  0  0  0  0
 52 68  1  0  0  0  0
 53 67  1  0  0  0  0
 55 64  1  0  0  0  0
 56 65  1  0  0  0  0
 57 65  1  0  0  0  0
 58 65  1  0  0  0  0
 59 75  1  0  0  0  0
 60 82  1  0  0  0  0
 61 62  1  0  0  0  0
 61 74  1  0  0  0  0
 62 83  1  0  0  0  0
 63 65  1  0  0  0  0
 63 73  1  0  0  0  0
 64 75  1  0  0  0  0
 66 67  1  0  0  0  0
M  CHG  1  75   1
M  ISO  4  38 100  60 101  74 100  82 101
M  END
> <Batch ID>
0148

> <Smiles>
CNC(C)C(=O)NC(C(=O)N1Cc2cc([101O:1][101CH2:1]C3CCc4cc(OCC[100NH:0][100C:0](=O)N5CCCC(n6nc(-c7ccc(Oc8ccc(F)cc8F)cc7)c(C(N)=O)c6N)C5)c(C)cc43)ccc2CC1C(=O)NC1CCCc2ccccc21)C(C)(C)C

> <Shape>
0.173

> <Color>
0.185

> <Negative vol penalty>
0.000

$$$$

  -OEChem-04052321363D

 85 93  0     1  0  0  0  0  0999 V2000
  -20.4566  -33.2087   25.3453 C   0  0  0  0  0  0  0  0  0  0  0  0
  -21.7317  -32.7712   25.0017 C   0  0  0  0  0  0  0  0  0  0  0  0
  -25.2719  -18.1329   18.8960 C   0  0  0  0  0  0  0  0  0  0  0  0
  -27.1884  -17.3434   20.1373 C   0  0  0  0  0  0  0  0  0  0  0  0
  -19.3611  -32.3634   25.1741 C   0  0  0  0  0  0  0  0  0  0  0  0
  -21.9122  -31.4876   24.4878 C   0  0  0  0  0  0  0  0  0  0  0  0
  -25.9978  -29.7522   20.2685 C   0  0  0  0  0  0  0  0  0  0  0  0
  -24.5247  -17.0511   19.3615 C   0  0  0  0  0  0  0  0  0  0  0  0
  -26.4411  -16.2615   20.6029 C   0  0  0  0  0  0  0  0  0  0  0  0
  -27.2473  -29.1417   20.3680 C   0  0  0  0  0  0  0  0  0  0  0  0
  -25.4006  -13.2649   19.4332 C   0  0  0  0  0  0  0  0  0  0  0  0
  -25.9984  -12.0049   19.4065 C   0  0  0  0  0  0  0  0  0  0  0  0
  -26.2198  -26.9914   19.9946 C   0  0  0  0  0  0  0  0  0  0  0  0
  -30.9738  -25.4607   19.3453 C   0  0  0  0  0  0  0  0  0  0  0  0
  -25.7435  -11.8331   21.8028 C   0  0  0  0  0  0  0  0  0  0  0  0
  -30.4411  -24.6399   21.5130 C   0  0  0  0  0  0  0  0  0  0  0  0
  -26.6038  -18.2791   19.2839 C   0  0  0  0  0  0  0  0  0  0  0  0
  -27.5075  -20.6616   19.4056 C   0  0  0  0  0  0  0  0  0  0  0  0
  -19.5270  -31.0722   24.6488 C   0  0  0  0  0  0  0  0  0  0  0  0
  -24.8465  -28.9843   20.0418 C   0  0  0  0  0  0  0  0  0  0  0  0
  -20.8181  -30.6237   24.3107 C   0  0  0  0  0  0  0  0  0  0  0  0
  -24.9572  -27.5947   19.8901 C   0  0  0  0  0  0  0  0  0  0  0  0
  -30.0321  -25.2742   20.3511 C   0  0  0  0  0  0  0  0  0  0  0  0
  -25.1092  -16.1154   20.2150 C   0  0  0  0  0  0  0  0  0  0  0  0
  -27.3581  -27.7609   20.2340 C   0  0  0  0  0  0  0  0  0  0  0  0
  -24.9743  -13.8090   20.6448 C   0  0  0  0  0  0  0  0  0  0  0  0
  -32.2774  -25.0135   19.5295 C   0  0  0  0  0  0  0  0  0  0  0  0
  -26.1698  -11.2890   20.5912 C   0  0  0  0  0  0  0  0  0  0  0  0
  -25.1457  -13.0931   21.8296 C   0  0  0  0  0  0  0  0  0  0  0  0
  -27.3764  -19.3961   18.8028 C   0  0  0  0  0  0  0  0  0  0  0  0
  -32.5860  -24.3910   20.7282 C   0  0  0  0  0  0  0  0  0  0  0  0
  -28.3404  -21.3580   18.5643 C   0  0  0  0  0  0  0  0  0  0  0  0
  -26.9283  -21.1627   20.6177 C   0  0  0  0  0  0  0  0  0  0  0  0
  -22.1627  -28.4356   21.6542 C   0  0  0  0  0  0  0  0  0  0  0  0
  -21.3254  -26.8451   18.9539 C   0  0  0  0  0  0  0  0  0  0  0  0
  -22.3201  -25.1978   16.1354 C   0  0  0  0  0  0  0  0  0  0  0  0
  -32.9191  -21.6410   15.3861 C   0  0  0  0  0  0  0  0  0  0  0  0
  -18.3190  -30.1776   24.5262 C   0  0  0  0  0  0  0  0  0  0  0  0
  -23.5096  -29.6608   19.9104 C   0  0  0  0  0  0  0  0  0  0  0  0
  -23.7545  -26.7276   19.6256 C   0  0  0  0  0  0  0  0  0  0  0  0
  -18.5467  -28.9668   23.6250 C   0  0  0  0  0  0  0  0  0  0  0  0
  -29.9890  -20.2575   13.9105 C   0  0  0  0  0  0  0  0  0  0  0  0
  -19.8735  -28.2932   23.9609 C   0  0  0  0  0  0  0  0  0  0  0  0
  -29.0621  -20.0089   15.1017 C   0  0  0  0  0  0  0  0  0  0  0  0
  -31.4498  -19.9904   14.2667 C   0  0  0  0  0  0  0  0  0  0  0  0
  -31.0133  -20.4666   16.6451 C   0  0  0  0  0  0  0  0  0  0  0  0
  -21.0512  -29.2470   23.7271 C   0  0  1  0  0  0  0  0  0  0  0  0
  -22.3369  -28.7260   20.1903 C   0  0  1  0  0  0  0  0  0  0  0  0
  -29.5357  -20.7766   16.3506 C   0  0  2  0  0  0  0  0  0  0  0  0
  -34.0222  -22.3679   21.1734 C   0  0  0  0  0  0  0  0  0  0  0  0
  -34.6420  -24.5982   22.1719 C   0  0  0  0  0  0  0  0  0  0  0  0
  -21.4078  -23.9763   14.1422 C   0  0  0  0  0  0  0  0  0  0  0  0
  -20.7226  -24.4272   20.7147 C   0  0  0  0  0  0  0  0  0  0  0  0
  -20.7455  -23.0075   18.6527 C   0  0  0  0  0  0  0  0  0  0  0  0
  -19.0594  -24.8304   18.8910 C   0  0  0  0  0  0  0  0  0  0  0  0
  -23.5382  -27.1268   14.2501 C   0  0  0  0  0  0  0  0  0  0  0  0
  -28.6168  -25.7436   20.1838 C   0  0  0  0  0  0  0  0  0  1  0  0
  -33.8481  -24.6944   16.2939 C   0  0  0  0  0  0  0  0  0  0  0  0
  -34.2965  -23.2809   16.6401 C   0  0  0  0  0  0  0  0  0  0  0  0
  -32.7366  -25.2032   17.2038 C   0  0  0  0  0  0  0  0  0  0  0  0
  -33.9721  -23.8943   20.9775 C   0  0  0  0  0  0  0  0  0  0  0  0
  -21.4775  -25.4276   18.4574 C   0  0  1  0  0  0  0  0  0  0  0  0
  -21.8743  -25.3164   14.6891 C   0  0  2  0  0  0  0  0  0  0  0  0
  -20.5238  -24.4390   19.1858 C   0  0  0  0  0  0  0  0  0  0  0  0
  -31.6983  -24.1918   21.7283 N   0  0  0  0  0  0  0  0  0  0  0  0
  -28.0703  -19.2920   17.6663 N   0  0  0  0  0  0  0  0  0  0  0  0
  -28.6454  -20.5009   17.5482 N   0  0  0  0  0  0  0  0  0  0  0  0
  -22.4685  -27.4352   19.5116 N   0  0  0  0  0  0  0  0  0  0  0  0
  -31.8361  -20.7494   15.4586 N   0  0  0  0  0  0  0  0  0  0  0  0
  -28.8343  -22.6138   18.6020 N   0  0  0  0  0  0  0  0  0  0  0  0
  -26.0964  -20.3144   21.3611 N   0  0  0  0  0  0  0  0  0  0  0  0
  -21.3535  -29.3401   22.3148 N   0  0  0  0  0  0  0  0  0  0  0  0
  -21.2930  -25.4796   17.0111 N   0  0  0  0  0  0  0  0  0  0  0  0
  -33.2147  -22.3250   16.5589 N   0  0  0  0  0  0  0  0  0  0  0  0
  -22.9967  -25.8057   13.8396 N   0  3  0  0  0  0  0  0  0  0  0  0
  -27.1290  -22.3335   21.0207 O   0  0  0  0  0  0  0  0  0  0  0  0
  -22.7201  -27.4621   22.1475 O   0  0  0  0  0  0  0  0  0  0  0  0
  -20.2346  -27.4106   18.8442 O   0  0  0  0  0  0  0  0  0  0  0  0
  -23.4639  -24.8828   16.4562 O   0  0  0  0  0  0  0  0  0  0  0  0
  -33.5707  -21.8185   14.3513 O   0  0  0  0  0  0  0  0  0  0  0  0
  -24.3803  -15.0597   20.6697 O   0  0  0  0  0  0  0  0  0  0  0  0
  -28.5764  -27.1624   20.3313 O   0  0  0  0  0  0  0  0  0  1  0  0
  -33.2043  -25.1887   18.5534 O   0  0  0  0  0  0  0  0  0  0  0  0
  -26.7425  -10.0784   20.5652 F   0  0  0  0  0  0  0  0  0  0  0  0
  -24.7372  -13.6101   22.9965 F   0  0  0  0  0  0  0  0  0  0  0  0
  1  2  1  0  0  0  0
  1  5  2  0  0  0  0
  2  6  2  0  0  0  0
  3  8  2  0  0  0  0
  3 17  1  0  0  0  0
  4  9  1  0  0  0  0
  4 17  2  0  0  0  0
  5 19  1  0  0  0  0
  6 21  1  0  0  0  0
  7 10  2  0  0  0  0
  7 20  1  0  0  0  0
  8 24  1  0  0  0  0
  9 24  2  0  0  0  0
 10 25  1  0  0  0  0
 11 12  2  0  0  0  0
 11 26  1  0  0  0  0
 12 28  1  0  0  0  0
 13 22  1  0  0  0  0
 13 25  2  0  0  0  0
 14 23  2  0  0  0  0
 14 27  1  0  0  0  0
 15 28  2  0  0  0  0
 15 29  1  0  0  0  0
 16 23  1  0  0  0  0
 16 65  2  0  0  0  0
 17 30  1  0  0  0  0
 18 30  1  0  0  0  0
 18 32  2  0  0  0  0
 18 33  1  0  0  0  0
 19 21  2  0  0  0  0
 19 38  1  0  0  0  0
 20 22  2  0  0  0  0
 20 39  1  0  0  0  0
 21 47  1  0  0  0  0
 22 40  1  0  0  0  0
 23 57  1  0  0  0  0
 24 81  1  0  0  0  0
 25 82  1  0  0  0  0
 26 29  2  0  0  0  0
 26 81  1  0  0  0  0
 27 31  2  0  0  0  0
 27 83  1  0  0  0  0
 28 84  1  0  0  0  0
 29 85  1  0  0  0  0
 30 66  2  0  0  0  0
 31 61  1  0  0  0  0
 31 65  1  0  0  0  0
 32 67  1  0  0  0  0
 32 70  1  0  0  0  0
 33 71  1  0  0  0  0
 33 76  2  0  0  0  0
 34 48  1  0  0  0  0
 34 72  1  0  0  0  0
 34 77  2  0  0  0  0
 35 62  1  0  0  0  0
 35 68  1  0  0  0  0
 35 78  2  0  0  0  0
 36 63  1  0  0  0  0
 36 73  1  0  0  0  0
 36 79  2  0  0  0  0
 37 69  1  0  0  0  0
 37 74  1  0  0  0  0
 37 80  2  0  0  0  0
 38 41  1  0  0  0  0
 39 48  1  0  0  0  0
 40 68  1  0  0  0  0
 41 43  1  0  0  0  0
 42 44  1  0  0  0  0
 42 45  1  0  0  0  0
 43 47  1  0  0  0  0
 44 49  1  0  0  0  0
 45 69  1  0  0  0  0
 46 49  1  0  0  0  0
 46 69  1  0  0  0  0
 47 72  1  0  0  0  0
 48 68  1  0  0  0  0
 49 67  1  0  0  0  0
 50 61  1  0  0  0  0
 51 61  1  0  0  0  0
 52 63  1  0  0  0  0
 53 64  1  0  0  0  0
 54 64  1  0  0  0  0
 55 64  1  0  0  0  0
 56 75  1  0  0  0  0
 57 82  1  0  0  0  0
 58 59  1  0  0  0  0
 58 60  1  0  0  0  0
 59 74  1  0  0  0  0
 60 83  1  0  0  0  0
 62 64  1  0  0  0  0
 62 73  1  0  0  0  0
 63 75  1  0  0  0  0
 66 67  1  0  0  0  0
M  CHG  1  75   1
M  ISO  4  37 100  57 101  74 100  82 101
M  END
> <Batch ID>
0148

> <Smiles>
CNC(C)C(=O)NC(C(=O)N1Cc2cc([101O:1][101CH2:1]c3cnc(C(C)C)c(OCCC[100NH:0][100C:0](=O)N4CCCC(n5nc(-c6ccc(Oc7ccc(F)cc7F)cc6)c(C(N)=O)c5N)C4)c3)ccc2CC1C(=O)NC1CCCc2ccccc21)C(C)(C)C

> <Shape>
0.178

> <Color>
0.092

> <Negative vol penalty>
0.000

$$$$

  -OEChem-04052321363D

 88 98  0     1  0  0  0  0  0999 V2000
  -27.2467  -34.3814   24.8645 C   0  0  0  0  0  0  0  0  0  0  0  0
  -27.5692  -33.1172   24.3815 C   0  0  0  0  0  0  0  0  0  0  0  0
  -23.3402  -12.5763   23.5122 C   0  0  0  0  0  0  0  0  0  0  0  0
  -23.7534  -14.8783   22.9064 C   0  0  0  0  0  0  0  0  0  0  0  0
  -25.9467  -34.6536   25.2886 C   0  0  0  0  0  0  0  0  0  0  0  0
  -26.5921  -32.1241   24.3234 C   0  0  0  0  0  0  0  0  0  0  0  0
  -26.6665  -29.5791   19.9460 C   0  0  0  0  0  0  0  0  0  0  0  0
  -22.6475  -12.9991   24.6466 C   0  0  0  0  0  0  0  0  0  0  0  0
  -23.0606  -15.3012   24.0408 C   0  0  0  0  0  0  0  0  0  0  0  0
  -27.6537  -28.6068   19.7915 C   0  0  0  0  0  0  0  0  0  0  0  0
  -19.8404  -15.6638   24.9997 C   0  0  0  0  0  0  0  0  0  0  0  0
  -18.9244  -16.7046   24.8473 C   0  0  0  0  0  0  0  0  0  0  0  0
  -27.0731  -20.2725   17.8387 C   0  0  0  0  0  0  0  0  0  0  0  0
  -27.3309  -18.9314   17.4618 C   0  0  0  0  0  0  0  0  0  0  0  0
  -26.0433  -26.8944   20.3334 C   0  0  0  0  0  0  0  0  0  0  0  0
  -20.1726  -18.0350   26.4313 C   0  0  0  0  0  0  0  0  0  0  0  0
  -23.8933  -13.5158   22.6421 C   0  0  0  0  0  0  0  0  0  0  0  0
  -24.1096  -12.3015   20.4092 C   0  0  0  0  0  0  0  0  0  0  0  0
  -24.9508  -33.6662   25.2267 C   0  0  0  0  0  0  0  0  0  0  0  0
  -25.3607  -29.2167   20.3066 C   0  0  0  0  0  0  0  0  0  0  0  0
  -25.2779  -32.3830   24.7484 C   0  0  0  0  0  0  0  0  0  0  0  0
  -25.0408  -27.8638   20.4893 C   0  0  0  0  0  0  0  0  0  0  0  0
  -22.5076  -14.3616   24.9109 C   0  0  0  0  0  0  0  0  0  0  0  0
  -27.3428  -27.2644   19.9880 C   0  0  0  0  0  0  0  0  0  0  0  0
  -20.9225  -15.8085   25.8680 C   0  0  0  0  0  0  0  0  0  0  0  0
  -19.0905  -17.8902   25.5631 C   0  0  0  0  0  0  0  0  0  0  0  0
  -21.0886  -16.9941   26.5838 C   0  0  0  0  0  0  0  0  0  0  0  0
  -24.6095  -13.0796   21.4705 C   0  0  0  0  0  0  0  0  0  0  0  0
  -28.2799  -20.8441   18.1767 C   0  0  0  0  0  0  0  0  0  0  0  0
  -28.6874  -18.7242   17.5810 C   0  0  0  0  0  0  0  0  0  0  0  0
  -25.1747  -12.1636   19.5531 C   0  0  0  0  0  0  0  0  0  0  0  0
  -22.7995  -11.7524   20.2146 C   0  0  0  0  0  0  0  0  0  0  0  0
  -23.4630  -29.8364   22.7801 C   0  0  0  0  0  0  0  0  0  0  0  0
  -21.2692  -28.2465   20.9963 C   0  0  0  0  0  0  0  0  0  0  0  0
  -20.6378  -25.9735   18.5303 C   0  0  0  0  0  0  0  0  0  0  0  0
  -30.0782  -15.4595   18.5817 C   0  0  0  0  0  0  0  0  0  0  0  0
  -23.5712  -33.9934   25.7407 C   0  0  0  0  0  0  0  0  0  0  0  0
  -24.3009  -30.2753   20.4432 C   0  0  0  0  0  0  0  0  0  0  0  0
  -23.6492  -27.4208   20.8575 C   0  0  0  0  0  0  0  0  0  0  0  0
  -22.5034  -32.9971   25.2962 C   0  0  0  0  0  0  0  0  0  0  0  0
  -32.4616  -20.0534   19.6404 C   0  0  0  0  0  0  0  0  0  0  0  0
  -29.9571  -12.0265   19.5179 C   0  0  0  0  0  0  0  0  0  0  0  0
  -22.9928  -31.5661   25.4947 C   0  0  0  0  0  0  0  0  0  0  0  0
  -27.9077  -22.5688   19.9926 C   0  0  0  0  0  0  0  0  0  0  0  0
  -28.2324  -23.3054   17.5862 C   0  0  0  0  0  0  0  0  0  0  0  0
  -31.2326  -20.9738   19.5155 C   0  0  0  0  0  0  0  0  0  0  0  0
  -31.6180  -18.9635   18.9518 C   0  0  0  0  0  0  0  0  0  0  0  0
  -28.5277  -11.8369   20.0287 C   0  0  0  0  0  0  0  0  0  0  0  0
  -28.2330  -23.9842   20.4630 C   0  0  0  0  0  0  0  0  0  0  0  0
  -28.5565  -24.7167   18.0692 C   0  0  0  0  0  0  0  0  0  0  0  0
  -30.5113  -13.4003   19.8887 C   0  0  0  0  0  0  0  0  0  0  0  0
  -28.2393  -14.3497   19.9899 C   0  0  0  0  0  0  0  0  0  0  0  0
  -24.2395  -31.2868   24.6467 C   0  0  1  0  0  0  0  0  0  0  0  0
  -28.5903  -22.2524   18.6500 C   0  0  0  0  0  0  0  0  0  0  0  0
  -23.1282  -29.8377   21.3153 C   0  0  1  0  0  0  0  0  0  0  0  0
  -30.7985  -20.1128   18.2909 C   0  0  0  0  0  0  0  0  0  0  0  0
  -27.6172  -13.0003   19.5919 C   0  0  2  0  0  0  0  0  0  0  0  0
  -27.8808  -25.0261   19.4028 C   0  0  0  0  0  0  0  0  0  1  0  0
  -29.3954  -17.0261   15.8556 C   0  0  0  0  0  0  0  0  0  0  0  0
  -18.7455  -24.8541   17.3204 C   0  0  0  0  0  0  0  0  0  0  0  0
  -20.7881  -26.4504   23.4155 C   0  0  0  0  0  0  0  0  0  0  0  0
  -19.6464  -24.8235   21.8931 C   0  0  0  0  0  0  0  0  0  0  0  0
  -18.7165  -27.1198   22.1848 C   0  0  0  0  0  0  0  0  0  0  0  0
  -21.4893  -27.0904   15.9252 C   0  0  0  0  0  0  0  0  0  0  0  0
  -29.4872  -17.5106   17.3157 C   0  0  2  0  0  0  0  0  0  0  0  0
  -20.8457  -26.8041   20.8587 C   0  0  1  0  0  0  0  0  0  0  0  0
  -19.7163  -26.0247   17.3250 C   0  0  2  0  0  0  0  0  0  0  0  0
  -20.0260  -26.3076   22.0830 C   0  0  0  0  0  0  0  0  0  0  0  0
  -25.8925  -13.4127   21.3059 N   0  0  0  0  0  0  0  0  0  0  0  0
  -29.2541  -19.8935   18.0166 N   0  0  0  0  0  0  0  0  0  0  0  0
  -26.2077  -12.8409   20.1312 N   0  0  0  0  0  0  0  0  0  0  0  0
  -22.6493  -28.4938   20.9856 N   0  0  0  0  0  0  0  0  0  0  0  0
  -29.6017  -14.4593   19.4451 N   0  0  0  0  0  0  0  0  0  0  0  0
  -25.3191  -11.5303   18.3697 N   0  0  0  0  0  0  0  0  0  0  0  0
  -21.8469  -12.5221   19.5330 N   0  0  0  0  0  0  0  0  0  0  0  0
  -23.8714  -31.0643   23.2649 N   0  0  0  0  0  0  0  0  0  0  0  0
  -20.1385  -26.7059   19.5864 N   0  0  0  0  0  0  0  0  0  0  0  0
  -29.1492  -16.4215   18.2047 N   0  0  0  0  0  0  0  0  0  0  0  0
  -20.5097  -25.9823   16.0642 N   0  3  0  0  0  0  0  0  0  0  0  0
  -22.4780  -10.6196   20.6470 O   0  0  0  0  0  0  0  0  0  0  0  0
  -23.3570  -28.7987   23.4232 O   0  0  0  0  0  0  0  0  0  0  0  0
  -20.4071  -29.1224   21.1020 O   0  0  0  0  0  0  0  0  0  0  0  0
  -21.6930  -25.3435   18.5357 O   0  0  0  0  0  0  0  0  0  0  0  0
  -31.2438  -15.4897   18.1725 O   0  0  0  0  0  0  0  0  0  0  0  0
  -21.8315  -14.7746   26.0176 O   0  0  0  0  0  0  0  0  0  0  0  0
  -28.3046  -26.3134   19.8385 O   0  0  0  0  0  0  0  0  0  1  0  0
  -18.2117  -18.8902   25.4155 F   0  0  0  0  0  0  0  0  0  0  0  0
  -22.1268  -17.1395   27.4185 F   0  0  0  0  0  0  0  0  0  0  0  0
  1  2  1  0  0  0  0
  1  5  2  0  0  0  0
  2  6  2  0  0  0  0
  3  8  2  0  0  0  0
  3 17  1  0  0  0  0
  4  9  1  0  0  0  0
  4 17  2  0  0  0  0
  5 19  1  0  0  0  0
  6 21  1  0  0  0  0
  7 10  2  0  0  0  0
  7 20  1  0  0  0  0
  8 23  1  0  0  0  0
  9 23  2  0  0  0  0
 10 24  1  0  0  0  0
 11 12  2  0  0  0  0
 11 25  1  0  0  0  0
 12 26  1  0  0  0  0
 13 14  1  0  0  0  0
 13 29  2  0  0  0  0
 14 30  2  0  0  0  0
 15 22  1  0  0  0  0
 15 24  2  0  0  0  0
 16 26  2  0  0  0  0
 16 27  1  0  0  0  0
 17 28  1  0  0  0  0
 18 28  1  0  0  0  0
 18 31  2  0  0  0  0
 18 32  1  0  0  0  0
 19 21  2  0  0  0  0
 19 37  1  0  0  0  0
 20 22  2  0  0  0  0
 20 38  1  0  0  0  0
 21 53  1  0  0  0  0
 22 39  1  0  0  0  0
 23 85  1  0  0  0  0
 24 86  1  0  0  0  0
 25 27  2  0  0  0  0
 25 85  1  0  0  0  0
 26 87  1  0  0  0  0
 27 88  1  0  0  0  0
 28 69  2  0  0  0  0
 29 54  1  0  0  0  0
 29 70  1  0  0  0  0
 30 65  1  0  0  0  0
 30 70  1  0  0  0  0
 31 71  1  0  0  0  0
 31 74  1  0  0  0  0
 32 75  1  0  0  0  0
 32 80  2  0  0  0  0
 33 55  1  0  0  0  0
 33 76  1  0  0  0  0
 33 81  2  0  0  0  0
 34 66  1  0  0  0  0
 34 72  1  0  0  0  0
 34 82  2  0  0  0  0
 35 67  1  0  0  0  0
 35 77  1  0  0  0  0
 35 83  2  0  0  0  0
 36 73  1  0  0  0  0
 36 78  1  0  0  0  0
 36 84  2  0  0  0  0
 37 40  1  0  0  0  0
 38 55  1  0  0  0  0
 39 72  1  0  0  0  0
 40 43  1  0  0  0  0
 41 46  1  0  0  0  0
 41 47  1  0  0  0  0
 42 48  1  0  0  0  0
 42 51  1  0  0  0  0
 43 53  1  0  0  0  0
 44 49  1  0  0  0  0
 44 54  1  0  0  0  0
 45 50  1  0  0  0  0
 45 54  1  0  0  0  0
 46 56  1  0  0  0  0
 47 56  1  0  0  0  0
 48 57  1  0  0  0  0
 49 58  1  0  0  0  0
 50 58  1  0  0  0  0
 51 73  1  0  0  0  0
 52 57  1  0  0  0  0
 52 73  1  0  0  0  0
 53 76  1  0  0  0  0
 55 72  1  0  0  0  0
 56 70  1  0  0  0  0
 57 71  1  0  0  0  0
 58 86  1  0  0  0  0
 59 65  1  0  0  0  0
 60 67  1  0  0  0  0
 61 68  1  0  0  0  0
 62 68  1  0  0  0  0
 63 68  1  0  0  0  0
 64 79  1  0  0  0  0
 65 78  1  0  0  0  0
 66 68  1  0  0  0  0
 66 77  1  0  0  0  0
 67 79  1  0  0  0  0
 69 71  1  0  0  0  0
M  CHG  1  79   1
M  ISO  4  36 100  58 101  78 100  86 101
M  END
> <Batch ID>
0148

> <Smiles>
CNC(C)C(=O)NC(C(=O)N1Cc2cc([101O:1][101CH:1]3CCC(c4ccc(C(C)[100NH:0][100C:0](=O)N5CCCC(n6nc(-c7ccc(Oc8ccc(F)cc8F)cc7)c(C(N)=O)c6N)C5)n4C4CCC4)CC3)ccc2CC1C(=O)NC1CCCc2ccccc21)C(C)(C)C

> <Shape>
0.255

> <Color>
0.091

> <Negative vol penalty>
0.000

$$$$

  -OEChem-04052321363D

 94104  0     1  0  0  0  0  0999 V2000
  -29.6955  -13.6296   17.8062 C   0  0  0  0  0  0  0  0  0  0  0  0
  -29.9274  -14.8523   17.1843 C   0  0  0  0  0  0  0  0  0  0  0  0
  -24.1547  -14.2492   21.0224 C   0  0  0  0  0  0  0  0  0  0  0  0
  -21.8843  -14.9560   20.5952 C   0  0  0  0  0  0  0  0  0  0  0  0
  -29.1612  -13.5938   19.0934 C   0  0  0  0  0  0  0  0  0  0  0  0
  -29.6241  -16.0399   17.8491 C   0  0  0  0  0  0  0  0  0  0  0  0
  -31.8606  -22.8167   18.4732 C   0  0  0  0  0  0  0  0  0  0  0  0
  -23.6835  -13.0306   21.5109 C   0  0  0  0  0  0  0  0  0  0  0  0
  -21.4130  -13.7374   21.0836 C   0  0  0  0  0  0  0  0  0  0  0  0
  -31.3774  -24.1221   18.3937 C   0  0  0  0  0  0  0  0  0  0  0  0
  -23.0973   -9.5922   22.5349 C   0  0  0  0  0  0  0  0  0  0  0  0
  -23.7453   -8.4308   22.1144 C   0  0  0  0  0  0  0  0  0  0  0  0
  -30.5320  -23.9397   20.6457 C   0  0  0  0  0  0  0  0  0  0  0  0
  -19.0530  -27.1323   23.6408 C   0  0  0  0  0  0  0  0  0  0  0  0
  -23.1880   -8.9500   19.8216 C   0  0  0  0  0  0  0  0  0  0  0  0
  -23.2551  -15.2119   20.5647 C   0  0  0  0  0  0  0  0  0  0  0  0
  -24.0869  -16.7781   18.7308 C   0  0  0  0  0  0  0  0  0  0  0  0
  -28.8601  -14.7818   19.7780 C   0  0  0  0  0  0  0  0  0  0  0  0
  -31.6733  -22.0580   19.6375 C   0  0  0  0  0  0  0  0  0  0  0  0
  -29.0839  -16.0199   19.1462 C   0  0  0  0  0  0  0  0  0  0  0  0
  -31.0161  -22.6259   20.7383 C   0  0  0  0  0  0  0  0  0  0  0  0
  -20.9859  -26.8073   22.2283 C   0  0  0  0  0  0  0  0  0  0  0  0
  -20.2741  -26.5067   23.3896 C   0  0  0  0  0  0  0  0  0  0  0  0
  -18.5436  -28.0585   22.7306 C   0  0  0  0  0  0  0  0  0  0  0  0
  -20.4766  -27.7336   21.3182 C   0  0  0  0  0  0  0  0  0  0  0  0
  -19.2554  -28.3591   21.5693 C   0  0  0  0  0  0  0  0  0  0  0  0
  -22.3126  -12.7747   21.5415 C   0  0  0  0  0  0  0  0  0  0  0  0
  -30.7104  -24.6828   19.4790 C   0  0  0  0  0  0  0  0  0  0  0  0
  -22.4946  -10.4325   21.5988 C   0  0  0  0  0  0  0  0  0  0  0  0
  -23.7906   -8.1097   20.7578 C   0  0  0  0  0  0  0  0  0  0  0  0
  -22.5400  -10.1114   20.2422 C   0  0  0  0  0  0  0  0  0  0  0  0
  -23.7413  -16.4711   20.0605 C   0  0  0  0  0  0  0  0  0  0  0  0
  -24.4867  -18.0914   18.7743 C   0  0  0  0  0  0  0  0  0  0  0  0
  -24.0497  -15.9501   17.5608 C   0  0  0  0  0  0  0  0  0  0  0  0
  -30.1597  -19.3503   20.3312 C   0  0  0  0  0  0  0  0  0  0  0  0
  -31.5440  -19.7759   23.2338 C   0  0  0  0  0  0  0  0  0  0  0  0
  -32.9072  -21.9264   25.5061 C   0  0  0  0  0  0  0  0  0  0  0  0
  -23.5643  -23.2514   20.4010 C   0  0  0  0  0  0  0  0  0  0  0  0
  -28.2399  -14.6918   21.1499 C   0  0  0  0  0  0  0  0  0  0  0  0
  -32.2241  -20.6606   19.7169 C   0  0  0  0  0  0  0  0  0  0  0  0
  -30.8070  -21.8604   22.0184 C   0  0  0  0  0  0  0  0  0  0  0  0
  -28.2956  -16.0024   21.9306 C   0  0  0  0  0  0  0  0  0  0  0  0
  -25.4895  -21.1195   22.6710 C   0  0  0  0  0  0  0  0  0  0  0  0
  -27.8570  -17.1678   21.0496 C   0  0  0  0  0  0  0  0  0  0  0  0
  -25.1739  -19.7351   22.1142 C   0  0  0  0  0  0  0  0  0  0  0  0
  -25.9460  -25.6420   16.8517 C   0  0  0  0  0  0  0  0  0  0  0  0
  -24.3125  -22.0855   22.5318 C   0  0  0  0  0  0  0  0  0  0  0  0
  -22.5457  -24.6114   22.3486 C   0  0  0  0  0  0  0  0  0  0  0  0
  -23.4695  -20.7872   20.5877 C   0  0  0  0  0  0  0  0  0  0  0  0
  -22.3765  -26.0938   21.9448 C   0  0  1  0  0  0  0  0  0  0  0  0
  -28.7911  -17.3303   19.8443 C   0  0  1  0  0  0  0  0  0  0  0  0
  -31.5252  -19.8016   20.7663 C   0  0  1  0  0  0  0  0  0  0  0  0
  -24.6743  -19.8395   20.6655 C   0  0  2  0  0  0  0  0  0  0  0  0
  -26.7203  -25.8235   18.1261 C   0  0  2  0  0  0  0  0  0  0  0  0
  -25.3268  -26.3768   18.0085 C   0  0  2  0  0  0  0  0  0  0  0  0
  -22.7171  -25.6554   20.4965 C   0  0  1  0  0  0  0  0  0  0  0  0
  -20.8002  -25.5188   24.3778 C   0  0  0  0  0  0  0  0  0  0  0  0
  -17.2335  -28.7144   23.0233 C   0  0  0  0  0  0  0  0  0  0  0  0
  -18.7076  -29.3533   20.5950 C   0  0  0  0  0  0  0  0  0  0  0  0
  -22.4193  -28.9858   20.3463 C   0  0  0  0  0  0  0  0  0  0  0  0
  -33.9164  -21.9858   27.8029 C   0  0  0  0  0  0  0  0  0  0  0  0
  -28.9717  -28.6160   19.2535 C   0  0  0  0  0  0  0  0  0  0  0  0
  -28.7628  -19.5087   24.4600 C   0  0  0  0  0  0  0  0  0  0  0  0
  -29.6736  -20.5029   26.5696 C   0  0  0  0  0  0  0  0  0  0  0  0
  -30.5764  -18.3374   25.7223 C   0  0  0  0  0  0  0  0  0  0  0  0
  -35.4885  -22.9395   24.4720 C   0  0  0  0  0  0  0  0  0  0  0  0
  -21.2428  -28.0545   20.0744 C   0  0  0  0  0  0  0  0  0  0  0  0
  -23.7955  -26.4515   19.7895 C   0  0  0  0  0  0  0  0  0  0  0  0
  -29.0716  -26.2625   20.1679 C   0  0  0  0  0  0  0  0  0  1  0  0
  -31.1544  -20.4800   24.5111 C   0  0  1  0  0  0  0  0  0  0  0  0
  -34.1914  -21.8586   26.3127 C   0  0  2  0  0  0  0  0  0  0  0  0
  -28.2209  -27.3103   19.4589 C   0  0  2  0  0  0  0  0  0  0  0  0
  -30.0439  -19.7213   25.2911 C   0  0  0  0  0  0  0  0  0  0  0  0
  -23.9072  -17.5061   20.8884 N   0  0  0  0  0  0  0  0  0  0  0  0
  -24.3615  -18.4762   20.0768 N   0  0  0  0  0  0  0  0  0  0  0  0
  -31.3583  -20.4956   22.0449 N   0  0  0  0  0  0  0  0  0  0  0  0
  -23.7710  -22.0993   21.1687 N   0  0  0  0  0  0  0  0  0  0  0  0
  -23.2390  -24.4137   21.0781 N   0  0  0  0  0  0  0  0  0  0  0  0
  -24.9296  -18.9430   17.8252 N   0  0  0  0  0  0  0  0  0  0  0  0
  -23.6130  -14.6250   17.6937 N   0  0  0  0  0  0  0  0  0  0  0  0
  -30.0222  -17.9782   20.2428 N   0  0  0  0  0  0  0  0  0  0  0  0
  -32.3891  -20.6717   25.2643 N   0  0  0  0  0  0  0  0  0  0  0  0
  -27.8346  -26.7784   18.1161 N   0  3  0  0  0  0  0  0  0  0  0  0
  -35.1148  -22.9568   25.9097 N   0  3  0  0  0  0  0  0  0  0  0  0
  -24.4092  -16.3680   16.4341 O   0  0  0  0  0  0  0  0  0  0  0  0
  -29.2943  -20.1852   20.0946 O   0  0  0  0  0  0  0  0  0  0  0  0
  -32.0029  -18.6323   23.2894 O   0  0  0  0  0  0  0  0  0  0  0  0
  -32.4111  -22.9867   25.1315 O   0  0  0  0  0  0  0  0  0  0  0  0
  -23.6372  -23.2414   19.1661 O   0  0  0  0  0  0  0  0  0  0  0  0
  -21.8524  -11.5856   22.0178 O   0  0  0  0  0  0  0  0  0  0  0  0
  -30.2339  -25.9650   19.4034 O   0  0  0  0  0  0  0  0  0  1  0  0
  -24.3149  -25.6761   18.7205 O   0  0  0  0  0  0  0  0  0  0  0  0
  -24.4142   -6.9951   20.3540 F   0  0  0  0  0  0  0  0  0  0  0  0
  -21.9639  -10.9155   19.3380 F   0  0  0  0  0  0  0  0  0  0  0  0
  1  2  1  0  0  0  0
  1  5  2  0  0  0  0
  2  6  2  0  0  0  0
  3  8  2  0  0  0  0
  3 16  1  0  0  0  0
  4  9  1  0  0  0  0
  4 16  2  0  0  0  0
  5 18  1  0  0  0  0
  6 20  1  0  0  0  0
  7 10  2  0  0  0  0
  7 19  1  0  0  0  0
  8 27  1  0  0  0  0
  9 27  2  0  0  0  0
 10 28  1  0  0  0  0
 11 12  2  0  0  0  0
 11 29  1  0  0  0  0
 12 30  1  0  0  0  0
 13 21  1  0  0  0  0
 13 28  2  0  0  0  0
 14 23  2  0  0  0  0
 14 24  1  0  0  0  0
 15 30  2  0  0  0  0
 15 31  1  0  0  0  0
 16 32  1  0  0  0  0
 17 32  1  0  0  0  0
 17 33  2  0  0  0  0
 17 34  1  0  0  0  0
 18 20  2  0  0  0  0
 18 39  1  0  0  0  0
 19 21  2  0  0  0  0
 19 40  1  0  0  0  0
 20 51  1  0  0  0  0
 21 41  1  0  0  0  0
 22 23  1  0  0  0  0
 22 25  2  0  0  0  0
 22 50  1  0  0  0  0
 23 57  1  0  0  0  0
 24 26  2  0  0  0  0
 24 58  1  0  0  0  0
 25 26  1  0  0  0  0
 25 67  1  0  0  0  0
 26 59  1  0  0  0  0
 27 90  1  0  0  0  0
 28 91  1  0  0  0  0
 29 31  2  0  0  0  0
 29 90  1  0  0  0  0
 30 93  1  0  0  0  0
 31 94  1  0  0  0  0
 32 74  2  0  0  0  0
 33 75  1  0  0  0  0
 33 79  1  0  0  0  0
 34 80  1  0  0  0  0
 34 85  2  0  0  0  0
 35 52  1  0  0  0  0
 35 81  1  0  0  0  0
 35 86  2  0  0  0  0
 36 70  1  0  0  0  0
 36 76  1  0  0  0  0
 36 87  2  0  0  0  0
 37 71  1  0  0  0  0
 37 82  1  0  0  0  0
 37 88  2  0  0  0  0
 38 77  1  0  0  0  0
 38 78  1  0  0  0  0
 38 89  2  0  0  0  0
 39 42  1  0  0  0  0
 40 52  1  0  0  0  0
 41 76  1  0  0  0  0
 42 44  1  0  0  0  0
 43 45  1  0  0  0  0
 43 47  1  0  0  0  0
 44 51  1  0  0  0  0
 45 53  1  0  0  0  0
 46 54  1  0  0  0  0
 46 55  1  0  0  0  0
 47 77  1  0  0  0  0
 48 50  1  0  0  0  0
 48 78  1  0  0  0  0
 49 53  1  0  0  0  0
 49 77  1  0  0  0  0
 50 56  1  0  0  0  0
 51 81  1  0  0  0  0
 52 76  1  0  0  0  0
 53 75  1  0  0  0  0
 54 55  1  0  0  0  0
 54 83  1  0  0  0  0
 55 92  1  0  0  0  0
 56 68  1  0  0  0  0
 56 78  1  0  0  0  0
 60 67  1  0  0  0  0
 61 71  1  0  0  0  0
 62 72  1  0  0  0  0
 63 73  1  0  0  0  0
 64 73  1  0  0  0  0
 65 73  1  0  0  0  0
 66 84  1  0  0  0  0
 68 92  1  0  0  0  0
 69 72  1  0  0  0  0
 69 91  1  0  0  0  0
 70 73  1  0  0  0  0
 70 82  1  0  0  0  0
 71 84  1  0  0  0  0
 72 83  1  0  0  0  0
 74 75  1  0  0  0  0
M  CHG  2  83   1  84   1
M  ISO  4  38 100  69 101  78 100  91 101
M  END
> <Batch ID>
0148

> <Smiles>
CCc1c(C)c(C)cc(C)c1C1C[100N:0]([100C:0](=O)N2CCCC(n3nc(-c4ccc(Oc5ccc(F)cc5F)cc4)c(C(N)=O)c3N)C2)C1COC1CC1NC(C)[101CH2:1][101O:1]c1ccc2c(c1)CN(C(=O)C(NC(=O)C(C)NC)C(C)(C)C)C(C(=O)NC1CCCc3ccccc31)C2

> <Shape>
0.198

> <Color>
0.059

> <Negative vol penalty>
0.000

$$$$

  -OEChem-04052321363D

 89 98  0     1  0  0  0  0  0999 V2000
  -27.8456  -12.3462   17.6169 C   0  0  0  0  0  0  0  0  0  0  0  0
  -27.1604  -13.5160   17.3085 C   0  0  0  0  0  0  0  0  0  0  0  0
  -28.4762  -21.3940   22.0790 C   0  0  0  0  0  0  0  0  0  0  0  0
  -30.0324  -22.2766   23.7026 C   0  0  0  0  0  0  0  0  0  0  0  0
  -27.5557  -11.6636   18.7964 C   0  0  0  0  0  0  0  0  0  0  0  0
  -26.1937  -14.0099   18.1851 C   0  0  0  0  0  0  0  0  0  0  0  0
  -24.0468  -20.6259   18.6135 C   0  0  0  0  0  0  0  0  0  0  0  0
  -28.6921  -20.1071   22.5716 C   0  0  0  0  0  0  0  0  0  0  0  0
  -30.2483  -20.9896   24.1953 C   0  0  0  0  0  0  0  0  0  0  0  0
  -23.5100  -21.9133   18.6377 C   0  0  0  0  0  0  0  0  0  0  0  0
  -29.1063  -16.5436   23.1666 C   0  0  0  0  0  0  0  0  0  0  0  0
  -29.2974  -15.5171   22.2418 C   0  0  0  0  0  0  0  0  0  0  0  0
  -21.9258  -27.0516   22.8797 C   0  0  0  0  0  0  0  0  0  0  0  0
  -21.9896  -21.2578   20.4003 C   0  0  0  0  0  0  0  0  0  0  0  0
  -22.1017  -29.1929   23.9737 C   0  0  0  0  0  0  0  0  0  0  0  0
  -31.2347  -16.6657   21.3672 C   0  0  0  0  0  0  0  0  0  0  0  0
  -29.1465  -22.4788   22.6444 C   0  0  0  0  0  0  0  0  0  0  0  0
  -29.1601  -24.2678   20.8259 C   0  0  0  0  0  0  0  0  0  0  0  0
  -26.5760  -12.1433   19.6812 C   0  0  0  0  0  0  0  0  0  0  0  0
  -23.5670  -19.6526   19.4943 C   0  0  0  0  0  0  0  0  0  0  0  0
  -25.9037  -13.3482   19.3920 C   0  0  0  0  0  0  0  0  0  0  0  0
  -20.5422  -27.2265   22.6944 C   0  0  0  0  0  0  0  0  0  0  0  0
  -22.5320  -19.9700   20.3892 C   0  0  0  0  0  0  0  0  0  0  0  0
  -19.9354  -28.3998   23.1894 C   0  0  0  0  0  0  0  0  0  0  0  0
  -22.6994  -28.0293   23.5060 C   0  0  0  0  0  0  0  0  0  0  0  0
  -29.5781  -19.9049   23.6298 C   0  0  0  0  0  0  0  0  0  0  0  0
  -22.4838  -22.2284   19.5287 C   0  0  0  0  0  0  0  0  0  0  0  0
  -29.9793  -17.6312   23.1917 C   0  0  0  0  0  0  0  0  0  0  0  0
  -20.7292  -29.3753   23.8205 C   0  0  0  0  0  0  0  0  0  0  0  0
  -30.3616  -15.5781   21.3421 C   0  0  0  0  0  0  0  0  0  0  0  0
  -31.0435  -17.6922   22.2921 C   0  0  0  0  0  0  0  0  0  0  0  0
  -28.9244  -23.8084   22.1356 C   0  0  0  0  0  0  0  0  0  0  0  0
  -28.7916  -25.5906   20.8545 C   0  0  0  0  0  0  0  0  0  0  0  0
  -29.6668  -23.5619   19.6855 C   0  0  0  0  0  0  0  0  0  0  0  0
  -23.8035  -16.1173   20.7277 C   0  0  0  0  0  0  0  0  0  0  0  0
  -23.3955  -17.8959   23.1936 C   0  0  0  0  0  0  0  0  0  0  0  0
  -23.3852  -19.2675   26.3170 C   0  0  0  0  0  0  0  0  0  0  0  0
  -25.0033  -28.6999   24.2731 C   0  0  0  0  0  0  0  0  0  0  0  0
  -26.3078  -11.3689   20.9476 C   0  0  0  0  0  0  0  0  0  0  0  0
  -24.0732  -18.2361   19.4610 C   0  0  0  0  0  0  0  0  0  0  0  0
  -22.0235  -18.8815   21.2945 C   0  0  0  0  0  0  0  0  0  0  0  0
  -24.9699  -11.7228   21.5888 C   0  0  0  0  0  0  0  0  0  0  0  0
  -28.4803  -29.3277   23.8330 C   0  0  0  0  0  0  0  0  0  0  0  0
  -17.6648  -27.3548   22.7924 C   0  0  0  0  0  0  0  0  0  0  0  0
  -24.8317  -13.2336   21.7029 C   0  0  0  0  0  0  0  0  0  0  0  0
  -18.3023  -26.5439   21.6716 C   0  0  0  0  0  0  0  0  0  0  0  0
  -29.0091  -28.0276   23.2229 C   0  0  0  0  0  0  0  0  0  0  0  0
  -27.3881  -29.0653   24.8683 C   0  0  0  0  0  0  0  0  0  0  0  0
  -26.8047  -26.9289   23.7891 C   0  0  0  0  0  0  0  0  0  0  0  0
  -18.4447  -28.6509   23.0559 C   0  0  2  0  0  0  0  0  0  0  0  0
  -24.8266  -13.8879   20.3155 C   0  0  1  0  0  0  0  0  0  0  0  0
  -19.7246  -26.1218   22.0555 C   0  0  1  0  0  0  0  0  0  0  0  0
  -24.1192  -17.5789   20.8521 C   0  0  1  0  0  0  0  0  0  0  0  0
  -27.8612  -27.1458   22.6935 C   0  0  2  0  0  0  0  0  0  0  0  0
  -16.7132  -29.9916   21.8543 C   0  0  0  0  0  0  0  0  0  0  0  0
  -23.1333  -19.3763   28.8115 C   0  0  0  0  0  0  0  0  0  0  0  0
  -20.3818  -24.4605   18.0106 C   0  0  0  0  0  0  0  0  0  0  0  0
  -20.4446  -18.2627   22.5146 C   0  0  0  0  0  0  0  0  0  0  0  0
  -20.0107  -18.6827   24.9443 C   0  0  0  0  0  0  0  0  0  0  0  0
  -20.9129  -16.4783   24.2030 C   0  0  0  0  0  0  0  0  0  0  0  0
  -26.1936  -18.4416   26.7530 C   0  0  0  0  0  0  0  0  0  0  0  0
  -19.7363  -30.4855   25.6746 C   0  0  0  0  0  0  0  0  0  0  0  0
  -18.1704  -29.7027   21.9738 C   0  0  0  0  0  0  0  0  0  0  0  0
  -19.8649  -24.1735   20.4994 C   0  0  0  0  0  0  0  0  0  0  0  0
  -22.4169  -18.5102   24.1622 C   0  0  1  0  0  0  0  0  0  0  0  0
  -23.8819  -18.7396   27.6509 C   0  0  2  0  0  0  0  0  0  0  0  0
  -20.5729  -23.6206   19.2668 C   0  0  2  0  0  0  0  0  0  1  0  0
  -20.9650  -17.9994   23.9417 C   0  0  0  0  0  0  0  0  0  0  0  0
  -28.4435  -24.7620   22.9377 N   0  0  0  0  0  0  0  0  0  0  0  0
  -28.3741  -25.8338   22.1299 N   0  0  0  0  0  0  0  0  0  0  0  0
  -23.1527  -18.1056   21.8307 N   0  0  0  0  0  0  0  0  0  0  0  0
  -26.3327  -28.2275   24.2947 N   0  0  0  0  0  0  0  0  0  0  0  0
  -28.7872  -26.5579   19.9128 N   0  0  0  0  0  0  0  0  0  0  0  0
  -31.0517  -23.5460   19.4706 N   0  0  0  0  0  0  0  0  0  0  0  0
  -24.0923  -27.8307   23.6738 N   0  0  0  0  0  0  0  0  0  0  0  0
  -24.9051  -15.3237   20.4704 N   0  0  0  0  0  0  0  0  0  0  0  0
  -22.9456  -18.2500   25.4968 N   0  0  0  0  0  0  0  0  0  0  0  0
  -20.3425  -25.5391   20.8202 N   0  3  0  0  0  0  0  0  0  0  0  0
  -25.3348  -19.0285   27.8137 N   0  3  0  0  0  0  0  0  0  0  0  0
  -28.9126  -22.9767   18.8717 O   0  0  0  0  0  0  0  0  0  0  0  0
  -22.6461  -15.7360   20.8571 O   0  0  0  0  0  0  0  0  0  0  0  0
  -24.3471  -17.2426   23.6305 O   0  0  0  0  0  0  0  0  0  0  0  0
  -23.3836  -20.4632   26.0327 O   0  0  0  0  0  0  0  0  0  0  0  0
  -24.7004  -29.8065   24.7266 O   0  0  0  0  0  0  0  0  0  0  0  0
  -29.7887  -18.6492   24.1110 O   0  0  0  0  0  0  0  0  0  0  0  0
  -20.1781  -30.5204   24.3205 O   0  0  0  0  0  0  0  0  0  0  0  0
  -21.9644  -23.4957   19.5503 O   0  0  0  0  0  0  0  0  0  1  0  0
  -30.5459  -14.5915   20.4551 F   0  0  0  0  0  0  0  0  0  0  0  0
  -31.8863  -18.7340   22.3122 F   0  0  0  0  0  0  0  0  0  0  0  0
  1  2  1  0  0  0  0
  1  5  2  0  0  0  0
  2  6  2  0  0  0  0
  3  8  2  0  0  0  0
  3 17  1  0  0  0  0
  4  9  1  0  0  0  0
  4 17  2  0  0  0  0
  5 19  1  0  0  0  0
  6 21  1  0  0  0  0
  7 10  2  0  0  0  0
  7 20  1  0  0  0  0
  8 26  1  0  0  0  0
  9 26  2  0  0  0  0
 10 27  1  0  0  0  0
 11 12  2  0  0  0  0
 11 28  1  0  0  0  0
 12 30  1  0  0  0  0
 13 22  1  0  0  0  0
 13 25  2  0  0  0  0
 14 23  1  0  0  0  0
 14 27  2  0  0  0  0
 15 25  1  0  0  0  0
 15 29  2  0  0  0  0
 16 30  2  0  0  0  0
 16 31  1  0  0  0  0
 17 32  1  0  0  0  0
 18 32  1  0  0  0  0
 18 33  2  0  0  0  0
 18 34  1  0  0  0  0
 19 21  2  0  0  0  0
 19 39  1  0  0  0  0
 20 23  2  0  0  0  0
 20 40  1  0  0  0  0
 21 51  1  0  0  0  0
 22 24  2  0  0  0  0
 22 52  1  0  0  0  0
 23 41  1  0  0  0  0
 24 29  1  0  0  0  0
 24 50  1  0  0  0  0
 25 75  1  0  0  0  0
 26 85  1  0  0  0  0
 27 87  1  0  0  0  0
 28 31  2  0  0  0  0
 28 85  1  0  0  0  0
 29 86  1  0  0  0  0
 30 88  1  0  0  0  0
 31 89  1  0  0  0  0
 32 69  2  0  0  0  0
 33 70  1  0  0  0  0
 33 73  1  0  0  0  0
 34 74  1  0  0  0  0
 34 80  2  0  0  0  0
 35 53  1  0  0  0  0
 35 76  1  0  0  0  0
 35 81  2  0  0  0  0
 36 65  1  0  0  0  0
 36 71  1  0  0  0  0
 36 82  2  0  0  0  0
 37 66  1  0  0  0  0
 37 77  1  0  0  0  0
 37 83  2  0  0  0  0
 38 72  1  0  0  0  0
 38 75  1  0  0  0  0
 38 84  2  0  0  0  0
 39 42  1  0  0  0  0
 40 53  1  0  0  0  0
 41 71  1  0  0  0  0
 42 45  1  0  0  0  0
 43 47  1  0  0  0  0
 43 48  1  0  0  0  0
 44 46  1  0  0  0  0
 44 50  1  0  0  0  0
 45 51  1  0  0  0  0
 46 52  1  0  0  0  0
 47 54  1  0  0  0  0
 48 72  1  0  0  0  0
 49 54  1  0  0  0  0
 49 72  1  0  0  0  0
 50 63  1  0  0  0  0
 51 76  1  0  0  0  0
 52 78  1  0  0  0  0
 53 71  1  0  0  0  0
 54 70  1  0  0  0  0
 55 63  1  0  0  0  0
 56 66  1  0  0  0  0
 57 67  1  0  0  0  0
 58 68  1  0  0  0  0
 59 68  1  0  0  0  0
 60 68  1  0  0  0  0
 61 79  1  0  0  0  0
 62 86  1  0  0  0  0
 64 67  1  0  0  0  0
 64 78  1  0  0  0  0
 65 68  1  0  0  0  0
 65 77  1  0  0  0  0
 66 79  1  0  0  0  0
 67 87  1  0  0  0  0
 69 70  1  0  0  0  0
M  CHG  2  78   1  79   1
M  ISO  4  38 100  67 101  75 100  87 101
M  END
> <Batch ID>
0148

> <Smiles>
CCC1CCC(NC[101CH:1](C)[101O:1]c2ccc3c(c2)CN(C(=O)C(NC(=O)C(C)NC)C(C)(C)C)C(C(=O)NC2CCCc4ccccc42)C3)c2cc([100NH:0][100C:0](=O)N3CCCC(n4nc(-c5ccc(Oc6ccc(F)cc6F)cc5)c(C(N)=O)c4N)C3)cc(OC)c21

> <Shape>
0.197

> <Color>
0.085

> <Negative vol penalty>
0.000

$$$$

  -OEChem-04052321363D

 90 99  0     1  0  0  0  0  0999 V2000
  -24.4120  -30.0712   22.9256 C   0  0  0  0  0  0  0  0  0  0  0  0
  -24.0579  -28.7291   23.0193 C   0  0  0  0  0  0  0  0  0  0  0  0
  -19.4104  -22.4263   19.1104 C   0  0  0  0  0  0  0  0  0  0  0  0
  -20.8891  -22.5576   21.0165 C   0  0  0  0  0  0  0  0  0  0  0  0
  -25.2191  -30.5064   21.8753 C   0  0  0  0  0  0  0  0  0  0  0  0
  -24.5099  -27.8215   22.0620 C   0  0  0  0  0  0  0  0  0  0  0  0
  -26.0244  -21.9580   22.9739 C   0  0  0  0  0  0  0  0  0  0  0  0
  -19.2821  -23.8153   19.1143 C   0  0  0  0  0  0  0  0  0  0  0  0
  -20.7608  -23.9465   21.0204 C   0  0  0  0  0  0  0  0  0  0  0  0
  -25.3277  -20.7672   22.7733 C   0  0  0  0  0  0  0  0  0  0  0  0
  -20.5383  -27.4988   21.7567 C   0  0  0  0  0  0  0  0  0  0  0  0
  -20.3293  -28.1271   22.9843 C   0  0  0  0  0  0  0  0  0  0  0  0
  -26.3872  -20.5169   20.6207 C   0  0  0  0  0  0  0  0  0  0  0  0
  -25.9589  -13.2215   19.7943 C   0  0  0  0  0  0  0  0  0  0  0  0
  -18.2899  -26.8664   23.2822 C   0  0  0  0  0  0  0  0  0  0  0  0
  -20.2138  -21.7975   20.0616 C   0  0  0  0  0  0  0  0  0  0  0  0
  -21.3057  -19.5991   19.3670 C   0  0  0  0  0  0  0  0  0  0  0  0
  -25.6892  -29.6019   20.9100 C   0  0  0  0  0  0  0  0  0  0  0  0
  -26.9010  -22.4437   21.9930 C   0  0  0  0  0  0  0  0  0  0  0  0
  -25.3230  -28.2452   20.9971 C   0  0  0  0  0  0  0  0  0  0  0  0
  -27.0958  -21.7128   20.8123 C   0  0  0  0  0  0  0  0  0  0  0  0
  -25.6347  -11.9034   20.0955 C   0  0  0  0  0  0  0  0  0  0  0  0
  -24.7264  -11.6316   21.1126 C   0  0  0  0  0  0  0  0  0  0  0  0
  -19.9573  -24.5754   20.0693 C   0  0  0  0  0  0  0  0  0  0  0  0
  -25.5069  -20.0479   21.5954 C   0  0  0  0  0  0  0  0  0  0  0  0
  -19.6232  -26.5543   21.2918 C   0  0  0  0  0  0  0  0  0  0  0  0
  -19.2050  -27.8110   23.7471 C   0  0  0  0  0  0  0  0  0  0  0  0
  -18.4990  -26.2381   22.0546 C   0  0  0  0  0  0  0  0  0  0  0  0
  -20.3463  -20.3627   20.0585 C   0  0  0  0  0  0  0  0  0  0  0  0
  -25.3520  -14.2238   20.5338 C   0  0  0  0  0  0  0  0  0  0  0  0
  -24.1749  -12.7051   21.7932 C   0  0  0  0  0  0  0  0  0  0  0  0
  -21.0066  -18.2980   19.6897 C   0  0  0  0  0  0  0  0  0  0  0  0
  -22.3721  -20.0275   18.5097 C   0  0  0  0  0  0  0  0  0  0  0  0
  -27.0335  -25.0675   20.2037 C   0  0  0  0  0  0  0  0  0  0  0  0
  -29.8943  -23.8352   19.2983 C   0  0  0  0  0  0  0  0  0  0  0  0
  -31.8790  -21.0827   18.9355 C   0  0  0  0  0  0  0  0  0  0  0  0
  -19.0979  -15.1221   24.1378 C   0  0  0  0  0  0  0  0  0  0  0  0
  -26.5203  -30.1274   19.7665 C   0  0  0  0  0  0  0  0  0  0  0  0
  -27.6653  -23.7161   22.2361 C   0  0  0  0  0  0  0  0  0  0  0  0
  -28.0408  -22.1807   19.7369 C   0  0  0  0  0  0  0  0  0  0  0  0
  -27.2656  -29.0357   19.0031 C   0  0  0  0  0  0  0  0  0  0  0  0
  -16.9939  -15.9648   21.3919 C   0  0  0  0  0  0  0  0  0  0  0  0
  -27.5131  -10.1453   19.8609 C   0  0  0  0  0  0  0  0  0  0  0  0
  -27.6075  -11.0416   18.6658 C   0  0  0  0  0  0  0  0  0  0  0  0
  -26.3347  -27.8660   18.6996 C   0  0  0  0  0  0  0  0  0  0  0  0
  -17.7331  -17.1138   20.7038 C   0  0  0  0  0  0  0  0  0  0  0  0
  -17.1451  -16.0254   22.9103 C   0  0  0  0  0  0  0  0  0  0  0  0
  -19.2765  -17.2453   22.7037 C   0  0  0  0  0  0  0  0  0  0  0  0
  -26.2714  -10.8007   19.3171 C   0  0  0  0  0  0  0  0  0  0  0  0
  -25.8138  -27.2258   19.9920 C   0  0  1  0  0  0  0  0  0  0  0  0
  -28.1432  -24.3813   20.9490 C   0  0  1  0  0  0  0  0  0  0  0  0
  -19.1998  -17.1948   21.1682 C   0  0  2  0  0  0  0  0  0  0  0  0
  -22.8582   -9.9443   21.2403 C   0  0  0  0  0  0  0  0  0  0  0  0
  -24.7487   -9.8601   22.9057 C   0  0  0  0  0  0  0  0  0  0  0  0
  -34.1525  -20.3852   18.1342 C   0  0  0  0  0  0  0  0  0  0  0  0
  -28.9588  -24.1155   16.4076 C   0  0  0  0  0  0  0  0  0  0  0  0
  -30.8075  -22.5681   15.7325 C   0  0  0  0  0  0  0  0  0  0  0  0
  -31.3437  -24.7584   16.7992 C   0  0  0  0  0  0  0  0  0  0  0  0
  -32.6343  -20.0589   21.6076 C   0  0  0  0  0  0  0  0  0  0  0  0
  -21.7556  -13.1727   24.5206 C   0  0  0  0  0  0  0  0  0  0  0  0
  -21.1457  -14.3324   25.2963 C   0  0  0  0  0  0  0  0  0  0  0  0
  -22.7490  -13.6273   23.4582 C   0  0  0  0  0  0  0  0  0  0  0  0
  -25.4599  -17.8936   20.5890 C   0  0  0  0  0  0  0  0  0  1  0  0
  -25.0051  -16.5205   21.0443 C   0  0  0  0  0  0  0  0  0  0  0  0
  -24.3553  -10.2300   21.4632 C   0  0  0  0  0  0  0  0  0  0  0  0
  -30.3591  -22.9026   18.2059 C   0  0  1  0  0  0  0  0  0  0  0  0
  -33.3213  -20.8217   19.3306 C   0  0  2  0  0  0  0  0  0  0  0  0
  -30.3479  -23.5781   16.8055 C   0  0  0  0  0  0  0  0  0  0  0  0
  -19.5008  -19.6095   20.7669 N   0  0  0  0  0  0  0  0  0  0  0  0
  -24.4652  -13.9988   21.5291 N   0  0  0  0  0  0  0  0  0  0  0  0
  -19.9279  -18.3590   20.5222 N   0  0  0  0  0  0  0  0  0  0  0  0
  -28.7603  -23.4338   20.0186 N   0  0  0  0  0  0  0  0  0  0  0  0
  -18.5595  -16.0992   23.2843 N   0  0  0  0  0  0  0  0  0  0  0  0
  -21.5635  -17.1191   19.3397 N   0  0  0  0  0  0  0  0  0  0  0  0
  -22.5382  -21.4010   18.2853 N   0  0  0  0  0  0  0  0  0  0  0  0
  -26.8295  -26.3807   20.5825 N   0  0  0  0  0  0  0  0  0  0  0  0
  -31.6676  -22.4084   18.6205 N   0  0  0  0  0  0  0  0  0  0  0  0
  -20.4475  -15.2624   24.4370 N   0  0  0  0  0  0  0  0  0  0  0  0
  -33.3893  -19.7517   20.3656 N   0  3  0  0  0  0  0  0  0  0  0  0
  -23.1443  -19.2156   17.9458 O   0  0  0  0  0  0  0  0  0  0  0  0
  -26.4097  -24.4517   19.3474 O   0  0  0  0  0  0  0  0  0  0  0  0
  -30.5187  -24.8779   19.5096 O   0  0  0  0  0  0  0  0  0  0  0  0
  -31.0261  -20.1983   18.9054 O   0  0  0  0  0  0  0  0  0  0  0  0
  -18.4270  -14.1904   24.5946 O   0  0  0  0  0  0  0  0  0  0  0  0
  -19.8326  -25.9307   20.0732 O   0  0  0  0  0  0  0  0  0  0  0  0
  -24.8276  -18.8856   21.3968 O   0  0  0  0  0  0  0  0  0  1  0  0
  -25.6553  -15.5307   20.2563 O   0  0  0  0  0  0  0  0  0  0  0  0
  -23.2752  -12.4799   22.8026 O   0  0  0  0  0  0  0  0  0  0  0  0
  -19.0052  -28.4133   24.9266 F   0  0  0  0  0  0  0  0  0  0  0  0
  -17.6169  -25.3307   21.6137 F   0  0  0  0  0  0  0  0  0  0  0  0
  1  2  1  0  0  0  0
  1  5  2  0  0  0  0
  2  6  2  0  0  0  0
  3  8  2  0  0  0  0
  3 16  1  0  0  0  0
  4  9  1  0  0  0  0
  4 16  2  0  0  0  0
  5 18  1  0  0  0  0
  6 20  1  0  0  0  0
  7 10  2  0  0  0  0
  7 19  1  0  0  0  0
  8 24  1  0  0  0  0
  9 24  2  0  0  0  0
 10 25  1  0  0  0  0
 11 12  2  0  0  0  0
 11 26  1  0  0  0  0
 12 27  1  0  0  0  0
 13 21  1  0  0  0  0
 13 25  2  0  0  0  0
 14 22  2  0  0  0  0
 14 30  1  0  0  0  0
 15 27  2  0  0  0  0
 15 28  1  0  0  0  0
 16 29  1  0  0  0  0
 17 29  1  0  0  0  0
 17 32  2  0  0  0  0
 17 33  1  0  0  0  0
 18 20  2  0  0  0  0
 18 38  1  0  0  0  0
 19 21  2  0  0  0  0
 19 39  1  0  0  0  0
 20 50  1  0  0  0  0
 21 40  1  0  0  0  0
 22 23  1  0  0  0  0
 22 49  1  0  0  0  0
 23 31  2  0  0  0  0
 23 65  1  0  0  0  0
 24 85  1  0  0  0  0
 25 86  1  0  0  0  0
 26 28  2  0  0  0  0
 26 85  1  0  0  0  0
 27 89  1  0  0  0  0
 28 90  1  0  0  0  0
 29 69  2  0  0  0  0
 30 70  2  0  0  0  0
 30 87  1  0  0  0  0
 31 70  1  0  0  0  0
 31 88  1  0  0  0  0
 32 71  1  0  0  0  0
 32 74  1  0  0  0  0
 33 75  1  0  0  0  0
 33 80  2  0  0  0  0
 34 51  1  0  0  0  0
 34 76  1  0  0  0  0
 34 81  2  0  0  0  0
 35 66  1  0  0  0  0
 35 72  1  0  0  0  0
 35 82  2  0  0  0  0
 36 67  1  0  0  0  0
 36 77  1  0  0  0  0
 36 83  2  0  0  0  0
 37 73  1  0  0  0  0
 37 78  1  0  0  0  0
 37 84  2  0  0  0  0
 38 41  1  0  0  0  0
 39 51  1  0  0  0  0
 40 72  1  0  0  0  0
 41 45  1  0  0  0  0
 42 46  1  0  0  0  0
 42 47  1  0  0  0  0
 43 44  1  0  0  0  0
 43 49  1  0  0  0  0
 44 49  1  0  0  0  0
 45 50  1  0  0  0  0
 46 52  1  0  0  0  0
 47 73  1  0  0  0  0
 48 52  1  0  0  0  0
 48 73  1  0  0  0  0
 50 76  1  0  0  0  0
 51 72  1  0  0  0  0
 52 71  1  0  0  0  0
 53 65  1  0  0  0  0
 54 65  1  0  0  0  0
 55 67  1  0  0  0  0
 56 68  1  0  0  0  0
 57 68  1  0  0  0  0
 58 68  1  0  0  0  0
 59 79  1  0  0  0  0
 60 61  1  0  0  0  0
 60 62  1  0  0  0  0
 61 78  1  0  0  0  0
 62 88  1  0  0  0  0
 63 64  1  0  0  0  0
 63 86  1  0  0  0  0
 64 87  1  0  0  0  0
 66 68  1  0  0  0  0
 66 77  1  0  0  0  0
 67 79  1  0  0  0  0
 69 71  1  0  0  0  0
M  CHG  1  79   1
M  ISO  4  37 100  63 101  78 100  86 101
M  END
> <Batch ID>
0148

> <Smiles>
CNC(C)C(=O)NC(C(=O)N1Cc2cc([101O:1][101CH2:1]COc3cc(C4CC4)c(C(C)C)c(OCCC[100NH:0][100C:0](=O)N4CCCC(n5nc(-c6ccc(Oc7ccc(F)cc7F)cc6)c(C(N)=O)c5N)C4)n3)ccc2CC1C(=O)NC1CCCc2ccccc21)C(C)(C)C

> <Shape>
0.196

> <Color>
0.079

> <Negative vol penalty>
0.000

$$$$

  -OEChem-04052321363D

 86 95  0     1  0  0  0  0  0999 V2000
  -18.6279  -31.4791   20.5069 C   0  0  0  0  0  0  0  0  0  0  0  0
  -19.9090  -31.0173   20.7915 C   0  0  0  0  0  0  0  0  0  0  0  0
  -28.9026  -17.3252   20.0611 C   0  0  0  0  0  0  0  0  0  0  0  0
  -30.9673  -18.1047   21.0443 C   0  0  0  0  0  0  0  0  0  0  0  0
  -17.5438  -31.0333   21.2618 C   0  0  0  0  0  0  0  0  0  0  0  0
  -20.1068  -30.1102   21.8319 C   0  0  0  0  0  0  0  0  0  0  0  0
  -23.2077  -26.3201   20.5417 C   0  0  0  0  0  0  0  0  0  0  0  0
  -29.5067  -16.1045   19.7604 C   0  0  0  0  0  0  0  0  0  0  0  0
  -31.5713  -16.8839   20.7437 C   0  0  0  0  0  0  0  0  0  0  0  0
  -24.5750  -26.5924   20.5288 C   0  0  0  0  0  0  0  0  0  0  0  0
  -30.3257  -13.2607   21.3960 C   0  0  0  0  0  0  0  0  0  0  0  0
  -29.6106  -12.0968   21.6780 C   0  0  0  0  0  0  0  0  0  0  0  0
  -30.6149  -26.9370   23.0969 C   0  0  0  0  0  0  0  0  0  0  0  0
  -24.7977  -25.5463   22.6910 C   0  0  0  0  0  0  0  0  0  0  0  0
  -31.6594  -27.6814   21.0300 C   0  0  0  0  0  0  0  0  0  0  0  0
  -29.6848  -11.4852   19.3419 C   0  0  0  0  0  0  0  0  0  0  0  0
  -29.6329  -18.3254   20.7030 C   0  0  0  0  0  0  0  0  0  0  0  0
  -28.3199  -19.9270   22.1925 C   0  0  0  0  0  0  0  0  0  0  0  0
  -17.7271  -30.1129   22.3058 C   0  0  0  0  0  0  0  0  0  0  0  0
  -22.6223  -25.6674   21.6361 C   0  0  0  0  0  0  0  0  0  0  0  0
  -19.0243  -29.6527   22.6024 C   0  0  0  0  0  0  0  0  0  0  0  0
  -29.4077  -27.4221   22.6213 C   0  0  0  0  0  0  0  0  0  0  0  0
  -23.4232  -25.2645   22.7142 C   0  0  0  0  0  0  0  0  0  0  0  0
  -29.3212  -28.0422   21.3695 C   0  0  0  0  0  0  0  0  0  0  0  0
  -30.4407  -28.1780   20.5633 C   0  0  0  0  0  0  0  0  0  0  0  0
  -30.8410  -15.8838   20.1017 C   0  0  0  0  0  0  0  0  0  0  0  0
  -25.3697  -26.2081   21.6048 C   0  0  0  0  0  0  0  0  0  0  0  0
  -30.7202  -13.5370   20.0869 C   0  0  0  0  0  0  0  0  0  0  0  0
  -31.7460  -27.0659   22.2884 C   0  0  0  0  0  0  0  0  0  0  0  0
  -29.2902  -11.2090   20.6510 C   0  0  0  0  0  0  0  0  0  0  0  0
  -30.3998  -12.6492   19.0599 C   0  0  0  0  0  0  0  0  0  0  0  0
  -29.0097  -19.5869   21.0133 C   0  0  0  0  0  0  0  0  0  0  0  0
  -27.9237  -21.2273   21.9956 C   0  0  0  0  0  0  0  0  0  0  0  0
  -28.0606  -19.1381   23.3613 C   0  0  0  0  0  0  0  0  0  0  0  0
  -20.4001  -26.4308   23.7769 C   0  0  0  0  0  0  0  0  0  0  0  0
  -20.7726  -23.3403   24.6891 C   0  0  0  0  0  0  0  0  0  0  0  0
  -22.7644  -20.5712   24.7965 C   0  0  0  0  0  0  0  0  0  0  0  0
  -30.1513  -25.5548   18.6541 C   0  0  0  0  0  0  0  0  0  0  0  0
  -16.5310  -29.6961   23.1245 C   0  0  0  0  0  0  0  0  0  0  0  0
  -21.1506  -25.3572   21.6228 C   0  0  0  0  0  0  0  0  0  0  0  0
  -28.0820  -27.4236   23.3193 C   0  0  0  0  0  0  0  0  0  0  0  0
  -22.8469  -24.5431   23.9041 C   0  0  0  0  0  0  0  0  0  0  0  0
  -16.7755  -28.4475   23.9680 C   0  0  0  0  0  0  0  0  0  0  0  0
  -26.7590  -24.3013   18.5170 C   0  0  0  0  0  0  0  0  0  0  0  0
  -18.1106  -28.5499   24.6987 C   0  0  0  0  0  0  0  0  0  0  0  0
  -26.8956  -22.9722   19.2618 C   0  0  0  0  0  0  0  0  0  0  0  0
  -27.9907  -24.5851   17.6621 C   0  0  0  0  0  0  0  0  0  0  0  0
  -29.4167  -23.2419   19.1574 C   0  0  0  0  0  0  0  0  0  0  0  0
  -27.9193  -28.5128   21.0896 C   0  0  1  0  0  0  0  0  0  0  0  0
  -19.2760  -28.6494   23.7070 C   0  0  1  0  0  0  0  0  0  0  0  0
  -20.5719  -25.1452   23.0183 C   0  0  1  0  0  0  0  0  0  0  0  0
  -28.2129  -22.9084   20.0573 C   0  0  2  0  0  0  0  0  0  0  0  0
  -27.1232  -27.7188   22.1513 C   0  0  1  0  0  0  0  0  0  1  0  0
  -27.7841  -30.0190   21.2919 C   0  0  0  0  0  0  0  0  0  0  0  0
  -31.2291  -30.1066   19.1551 C   0  0  0  0  0  0  0  0  0  0  0  0
  -22.8094  -18.2086   25.6413 C   0  0  0  0  0  0  0  0  0  0  0  0
  -21.2519  -24.3653   27.5228 C   0  0  0  0  0  0  0  0  0  0  0  0
  -22.2084  -22.1240   28.0970 C   0  0  0  0  0  0  0  0  0  0  0  0
  -19.8262  -22.3154   27.3821 C   0  0  0  0  0  0  0  0  0  0  0  0
  -23.0713  -19.4770   22.0638 C   0  0  0  0  0  0  0  0  0  0  0  0
  -32.9718  -25.9822   24.0144 C   0  0  0  0  0  0  0  0  0  0  0  0
  -30.7587  -27.8859   18.0589 C   0  0  0  0  0  0  0  0  0  0  0  0
  -30.3677  -28.8274   19.2248 C   0  0  1  0  0  0  0  0  0  0  0  0
  -21.6620  -22.6148   25.6698 C   0  0  1  0  0  0  0  0  0  0  0  0
  -22.4854  -19.1163   24.4649 C   0  0  2  0  0  0  0  0  0  0  0  0
  -21.2479  -22.8702   27.1465 C   0  0  0  0  0  0  0  0  0  0  0  0
  -29.0509  -20.5901   20.1325 N   0  0  0  0  0  0  0  0  0  0  0  0
  -28.3821  -21.5734   20.7586 N   0  0  0  0  0  0  0  0  0  0  0  0
  -21.4016  -24.2682   23.8470 N   0  0  0  0  0  0  0  0  0  0  0  0
  -29.2086  -24.5275   18.4827 N   0  0  0  0  0  0  0  0  0  0  0  0
  -27.2314  -22.0969   22.7617 N   0  0  0  0  0  0  0  0  0  0  0  0
  -28.5392  -17.8213   23.3983 N   0  0  0  0  0  0  0  0  0  0  0  0
  -19.5784  -27.3483   23.1503 N   0  0  0  0  0  0  0  0  0  0  0  0
  -21.6410  -21.2098   25.2777 N   0  0  0  0  0  0  0  0  0  0  0  0
  -29.8839  -26.7375   17.9756 N   0  0  0  0  0  0  0  0  0  0  0  0
  -23.3059  -18.6844   23.2982 N   0  3  0  0  0  0  0  0  0  0  0  0
  -27.4092  -19.5822   24.3370 O   0  0  0  0  0  0  0  0  0  0  0  0
  -20.9696  -26.5789   24.8518 O   0  0  0  0  0  0  0  0  0  0  0  0
  -19.5654  -23.0877   24.6661 O   0  0  0  0  0  0  0  0  0  0  0  0
  -23.8693  -21.0883   24.6473 O   0  0  0  0  0  0  0  0  0  0  0  0
  -31.1549  -25.4294   19.3641 O   0  0  0  0  0  0  0  0  0  0  0  0
  -31.4307  -14.6926   19.8087 O   0  0  0  0  0  0  0  0  0  0  0  0
  -26.7044  -26.4732   21.5951 O   0  0  0  0  0  0  0  0  0  1  0  0
  -32.9468  -26.5935   22.7261 O   0  0  0  0  0  0  0  0  0  0  0  0
  -28.6049  -10.0906   20.9222 F   0  0  0  0  0  0  0  0  0  0  0  0
  -30.7771  -12.9086   17.8004 F   0  0  0  0  0  0  0  0  0  0  0  0
  1  2  1  0  0  0  0
  1  5  2  0  0  0  0
  2  6  2  0  0  0  0
  3  8  2  0  0  0  0
  3 17  1  0  0  0  0
  4  9  1  0  0  0  0
  4 17  2  0  0  0  0
  5 19  1  0  0  0  0
  6 21  1  0  0  0  0
  7 10  2  0  0  0  0
  7 20  1  0  0  0  0
  8 26  1  0  0  0  0
  9 26  2  0  0  0  0
 10 27  1  0  0  0  0
 11 12  2  0  0  0  0
 11 28  1  0  0  0  0
 12 30  1  0  0  0  0
 13 22  1  0  0  0  0
 13 29  2  0  0  0  0
 14 23  1  0  0  0  0
 14 27  2  0  0  0  0
 15 25  2  0  0  0  0
 15 29  1  0  0  0  0
 16 30  2  0  0  0  0
 16 31  1  0  0  0  0
 17 32  1  0  0  0  0
 18 32  1  0  0  0  0
 18 33  2  0  0  0  0
 18 34  1  0  0  0  0
 19 21  2  0  0  0  0
 19 39  1  0  0  0  0
 20 23  2  0  0  0  0
 20 40  1  0  0  0  0
 21 50  1  0  0  0  0
 22 24  2  0  0  0  0
 22 41  1  0  0  0  0
 23 42  1  0  0  0  0
 24 25  1  0  0  0  0
 24 49  1  0  0  0  0
 25 63  1  0  0  0  0
 26 82  1  0  0  0  0
 27 83  1  0  0  0  0
 28 31  2  0  0  0  0
 28 82  1  0  0  0  0
 29 84  1  0  0  0  0
 30 85  1  0  0  0  0
 31 86  1  0  0  0  0
 32 67  2  0  0  0  0
 33 68  1  0  0  0  0
 33 71  1  0  0  0  0
 34 72  1  0  0  0  0
 34 77  2  0  0  0  0
 35 51  1  0  0  0  0
 35 73  1  0  0  0  0
 35 78  2  0  0  0  0
 36 64  1  0  0  0  0
 36 69  1  0  0  0  0
 36 79  2  0  0  0  0
 37 65  1  0  0  0  0
 37 74  1  0  0  0  0
 37 80  2  0  0  0  0
 38 70  1  0  0  0  0
 38 75  1  0  0  0  0
 38 81  2  0  0  0  0
 39 43  1  0  0  0  0
 40 51  1  0  0  0  0
 41 53  1  0  0  0  0
 42 69  1  0  0  0  0
 43 45  1  0  0  0  0
 44 46  1  0  0  0  0
 44 47  1  0  0  0  0
 45 50  1  0  0  0  0
 46 52  1  0  0  0  0
 47 70  1  0  0  0  0
 48 52  1  0  0  0  0
 48 70  1  0  0  0  0
 49 53  1  0  0  0  0
 49 54  1  0  0  0  0
 50 73  1  0  0  0  0
 51 69  1  0  0  0  0
 52 68  1  0  0  0  0
 53 83  1  0  0  0  0
 55 63  1  0  0  0  0
 56 65  1  0  0  0  0
 57 66  1  0  0  0  0
 58 66  1  0  0  0  0
 59 66  1  0  0  0  0
 60 76  1  0  0  0  0
 61 84  1  0  0  0  0
 62 63  1  0  0  0  0
 62 75  1  0  0  0  0
 64 66  1  0  0  0  0
 64 74  1  0  0  0  0
 65 76  1  0  0  0  0
 67 68  1  0  0  0  0
M  CHG  1  76   1
M  ISO  4  38 100  53 101  75 100  83 101
M  END
> <Batch ID>
0148

> <Smiles>
CNC(C)C(=O)NC(C(=O)N1Cc2cc([101O:1][101CH:1]3Cc4cc(OC)cc(C(C)C[100NH:0][100C:0](=O)N5CCCC(n6nc(-c7ccc(Oc8ccc(F)cc8F)cc7)c(C(N)=O)c6N)C5)c4C3C)ccc2CC1C(=O)NC1CCCc2ccccc21)C(C)(C)C

> <Shape>
0.205

> <Color>
0.069

> <Negative vol penalty>
0.000

$$$$

  -OEChem-04052321363D

 88 97  0     1  0  0  0  0  0999 V2000
  -30.0770  -32.5501   25.1983 C   0  0  0  0  0  0  0  0  0  0  0  0
  -29.7834  -31.3984   24.4754 C   0  0  0  0  0  0  0  0  0  0  0  0
  -23.4082  -14.5920   19.1628 C   0  0  0  0  0  0  0  0  0  0  0  0
  -22.8963  -12.3218   18.5138 C   0  0  0  0  0  0  0  0  0  0  0  0
  -29.0733  -33.1922   25.9224 C   0  0  0  0  0  0  0  0  0  0  0  0
  -28.4859  -30.8874   24.4770 C   0  0  0  0  0  0  0  0  0  0  0  0
  -26.9237  -29.5384   19.8526 C   0  0  0  0  0  0  0  0  0  0  0  0
  -22.4304  -15.0630   18.2866 C   0  0  0  0  0  0  0  0  0  0  0  0
  -21.9184  -12.7928   17.6376 C   0  0  0  0  0  0  0  0  0  0  0  0
  -27.3931  -28.3254   19.3506 C   0  0  0  0  0  0  0  0  0  0  0  0
  -19.0393  -13.3770   15.4957 C   0  0  0  0  0  0  0  0  0  0  0  0
  -17.8052  -12.7270   15.4900 C   0  0  0  0  0  0  0  0  0  0  0  0
  -28.0790  -20.1512   21.6148 C   0  0  0  0  0  0  0  0  0  0  0  0
  -25.3085  -27.2743   19.9580 C   0  0  0  0  0  0  0  0  0  0  0  0
  -17.5045  -13.2774   17.8232 C   0  0  0  0  0  0  0  0  0  0  0  0
  -27.0795  -22.0764   22.5900 C   0  0  0  0  0  0  0  0  0  0  0  0
  -23.6412  -13.2214   19.2763 C   0  0  0  0  0  0  0  0  0  0  0  0
  -24.4837  -12.3849   21.5342 C   0  0  0  0  0  0  0  0  0  0  0  0
  -27.7608  -32.6943   25.9250 C   0  0  0  0  0  0  0  0  0  0  0  0
  -25.6452  -29.6261   20.4219 C   0  0  0  0  0  0  0  0  0  0  0  0
  -27.4640  -31.5227   25.2028 C   0  0  0  0  0  0  0  0  0  0  0  0
  -27.5768  -19.3946   22.6677 C   0  0  0  0  0  0  0  0  0  0  0  0
  -24.8243  -28.4902   20.4642 C   0  0  0  0  0  0  0  0  0  0  0  0
  -27.8300  -21.5184   21.5677 C   0  0  0  0  0  0  0  0  0  0  0  0
  -21.6855  -14.1634   17.5240 C   0  0  0  0  0  0  0  0  0  0  0  0
  -26.5866  -27.1924   19.4059 C   0  0  0  0  0  0  0  0  0  0  0  0
  -19.5061  -13.9771   16.6652 C   0  0  0  0  0  0  0  0  0  0  0  0
  -17.0377  -12.6772   16.6537 C   0  0  0  0  0  0  0  0  0  0  0  0
  -18.7386  -13.9273   17.8289 C   0  0  0  0  0  0  0  0  0  0  0  0
  -24.6514  -12.7342   20.1809 C   0  0  0  0  0  0  0  0  0  0  0  0
  -26.8377  -20.0478   23.6408 C   0  0  0  0  0  0  0  0  0  0  0  0
  -25.7326  -11.9855   21.9431 C   0  0  0  0  0  0  0  0  0  0  0  0
  -23.3044  -12.4184   22.3490 C   0  0  0  0  0  0  0  0  0  0  0  0
  -24.5180  -30.3536   23.3036 C   0  0  0  0  0  0  0  0  0  0  0  0
  -21.6485  -30.1470   21.8050 C   0  0  0  0  0  0  0  0  0  0  0  0
  -19.8159  -28.8867   19.2166 C   0  0  0  0  0  0  0  0  0  0  0  0
  -28.2517  -15.2014   20.2071 C   0  0  0  0  0  0  0  0  0  0  0  0
  -26.7198  -33.3961   26.7608 C   0  0  0  0  0  0  0  0  0  0  0  0
  -25.1434  -30.9481   20.9347 C   0  0  0  0  0  0  0  0  0  0  0  0
  -23.4361  -28.5361   21.0468 C   0  0  0  0  0  0  0  0  0  0  0  0
  -25.2880  -33.0019   26.4076 C   0  0  0  0  0  0  0  0  0  0  0  0
  -28.8426  -12.4107   18.3840 C   0  0  0  0  0  0  0  0  0  0  0  0
  -25.1668  -31.4864   26.2831 C   0  0  0  0  0  0  0  0  0  0  0  0
  -28.5679  -11.2989   19.4041 C   0  0  0  0  0  0  0  0  0  0  0  0
  -29.6373  -13.5563   18.9958 C   0  0  0  0  0  0  0  0  0  0  0  0
  -29.2895  -16.0449   22.3725 C   0  0  0  0  0  0  0  0  0  0  0  0
  -28.8974  -12.9877   21.2636 C   0  0  0  0  0  0  0  0  0  0  0  0
  -27.8439  -17.9072   22.7247 C   0  0  2  0  0  0  0  0  0  0  0  0
  -26.0632  -30.9517   25.1597 C   0  0  1  0  0  0  0  0  0  0  0  0
  -24.0219  -30.8049   21.9590 C   0  0  1  0  0  0  0  0  0  0  0  0
  -29.3376  -17.5231   22.7604 C   0  0  1  0  0  0  0  0  0  0  0  0
  -28.0337  -11.8024   20.7660 C   0  0  1  0  0  0  0  0  0  0  0  0
  -27.3228  -17.1280   21.4940 C   0  0  2  0  0  0  0  0  0  0  0  0
  -26.2737  -19.2856   24.7951 C   0  0  0  0  0  0  0  0  0  0  0  0
  -29.9931  -17.7506   24.1149 C   0  0  0  0  0  0  0  0  0  0  0  0
  -25.8667  -16.7016   21.6643 C   0  0  0  0  0  0  0  0  0  0  0  0
  -17.4882  -28.8625   18.2792 C   0  0  0  0  0  0  0  0  0  0  0  0
  -20.7973  -28.1791   23.9759 C   0  0  0  0  0  0  0  0  0  0  0  0
  -18.8960  -27.4840   22.5029 C   0  0  0  0  0  0  0  0  0  0  0  0
  -19.0412  -29.8355   23.3227 C   0  0  0  0  0  0  0  0  0  0  0  0
  -20.6969  -30.1451   16.6869 C   0  0  0  0  0  0  0  0  0  0  0  0
  -28.7027  -24.2843   19.1470 C   0  0  0  0  0  0  0  0  0  0  0  0
  -28.0941  -23.7209   20.4255 C   0  0  0  0  0  0  0  0  0  0  0  0
  -28.4487  -25.7773   18.9748 C   0  0  0  0  0  0  0  0  0  1  0  0
  -20.6548  -29.0404   21.5461 C   0  0  1  0  0  0  0  0  0  0  0  0
  -18.8458  -29.5473   18.2537 C   0  0  2  0  0  0  0  0  0  0  0  0
  -19.8742  -28.6331   22.8276 C   0  0  0  0  0  0  0  0  0  0  0  0
  -26.5751  -21.3739   23.6290 N   0  0  0  0  0  0  0  0  0  0  0  0
  -25.9079  -12.5712   19.7581 N   0  0  0  0  0  0  0  0  0  0  0  0
  -26.5411  -12.1151   20.8523 N   0  0  0  0  0  0  0  0  0  0  0  0
  -22.9932  -29.8503   21.5410 N   0  0  0  0  0  0  0  0  0  0  0  0
  -29.0070  -14.0212   20.2287 N   0  0  0  0  0  0  0  0  0  0  0  0
  -28.2241  -15.9725   21.3715 N   0  0  0  0  0  0  0  0  0  0  0  0
  -26.2072  -11.5396   23.1256 N   0  0  0  0  0  0  0  0  0  0  0  0
  -22.1048  -12.8551   21.7705 N   0  0  0  0  0  0  0  0  0  0  0  0
  -28.3241  -22.3090   20.5174 N   0  0  0  0  0  0  0  0  0  0  0  0
  -25.4560  -31.1961   23.8690 N   0  0  0  0  0  0  0  0  0  0  0  0
  -19.8075  -29.5005   20.4513 N   0  0  0  0  0  0  0  0  0  0  0  0
  -19.3761  -29.4881   16.8622 N   0  3  0  0  0  0  0  0  0  0  0  0
  -23.3176  -12.0869   23.5587 O   0  0  0  0  0  0  0  0  0  0  0  0
  -24.0809  -29.3184   23.7925 O   0  0  0  0  0  0  0  0  0  0  0  0
  -21.2456  -31.2368   22.2192 O   0  0  0  0  0  0  0  0  0  0  0  0
  -20.5088  -27.9204   18.9057 O   0  0  0  0  0  0  0  0  0  0  0  0
  -27.6485  -15.5600   19.1872 O   0  0  0  0  0  0  0  0  0  0  0  0
  -20.7312  -14.6227   16.6691 O   0  0  0  0  0  0  0  0  0  0  0  0
  -27.0458  -25.9986   18.9137 O   0  0  0  0  0  0  0  0  0  1  0  0
  -15.8519  -12.0544   16.6476 F   0  0  0  0  0  0  0  0  0  0  0  0
  -19.1813  -14.5031   18.9552 F   0  0  0  0  0  0  0  0  0  0  0  0
  1  2  1  0  0  0  0
  1  5  2  0  0  0  0
  2  6  2  0  0  0  0
  3  8  2  0  0  0  0
  3 17  1  0  0  0  0
  4  9  1  0  0  0  0
  4 17  2  0  0  0  0
  5 19  1  0  0  0  0
  6 21  1  0  0  0  0
  7 10  2  0  0  0  0
  7 20  1  0  0  0  0
  8 25  1  0  0  0  0
  9 25  2  0  0  0  0
 10 26  1  0  0  0  0
 11 12  2  0  0  0  0
 11 27  1  0  0  0  0
 12 28  1  0  0  0  0
 13 22  1  0  0  0  0
 13 24  2  0  0  0  0
 14 23  1  0  0  0  0
 14 26  2  0  0  0  0
 15 28  2  0  0  0  0
 15 29  1  0  0  0  0
 16 24  1  0  0  0  0
 16 68  2  0  0  0  0
 17 30  1  0  0  0  0
 18 30  1  0  0  0  0
 18 32  2  0  0  0  0
 18 33  1  0  0  0  0
 19 21  2  0  0  0  0
 19 38  1  0  0  0  0
 20 23  2  0  0  0  0
 20 39  1  0  0  0  0
 21 49  1  0  0  0  0
 22 31  2  0  0  0  0
 22 48  1  0  0  0  0
 23 40  1  0  0  0  0
 24 76  1  0  0  0  0
 25 85  1  0  0  0  0
 26 86  1  0  0  0  0
 27 29  2  0  0  0  0
 27 85  1  0  0  0  0
 28 87  1  0  0  0  0
 29 88  1  0  0  0  0
 30 69  2  0  0  0  0
 31 54  1  0  0  0  0
 31 68  1  0  0  0  0
 32 70  1  0  0  0  0
 32 74  1  0  0  0  0
 33 75  1  0  0  0  0
 33 80  2  0  0  0  0
 34 50  1  0  0  0  0
 34 77  1  0  0  0  0
 34 81  2  0  0  0  0
 35 65  1  0  0  0  0
 35 71  1  0  0  0  0
 35 82  2  0  0  0  0
 36 66  1  0  0  0  0
 36 78  1  0  0  0  0
 36 83  2  0  0  0  0
 37 72  1  0  0  0  0
 37 73  1  0  0  0  0
 37 84  2  0  0  0  0
 38 41  1  0  0  0  0
 39 50  1  0  0  0  0
 40 71  1  0  0  0  0
 41 43  1  0  0  0  0
 42 44  1  0  0  0  0
 42 45  1  0  0  0  0
 43 49  1  0  0  0  0
 44 52  1  0  0  0  0
 45 72  1  0  0  0  0
 46 51  1  0  0  0  0
 46 73  1  0  0  0  0
 47 52  1  0  0  0  0
 47 72  1  0  0  0  0
 48 51  1  0  0  0  0
 48 53  1  0  0  0  0
 49 77  1  0  0  0  0
 50 71  1  0  0  0  0
 51 55  1  0  0  0  0
 52 70  1  0  0  0  0
 53 56  1  0  0  0  0
 53 73  1  0  0  0  0
 57 66  1  0  0  0  0
 58 67  1  0  0  0  0
 59 67  1  0  0  0  0
 60 67  1  0  0  0  0
 61 79  1  0  0  0  0
 62 63  1  0  0  0  0
 62 64  1  0  0  0  0
 63 76  1  0  0  0  0
 64 86  1  0  0  0  0
 65 67  1  0  0  0  0
 65 78  1  0  0  0  0
 66 79  1  0  0  0  0
 69 70  1  0  0  0  0
M  CHG  1  79   1
M  ISO  4  37 100  64 101  73 100  86 101
M  END
> <Batch ID>
0148

> <Smiles>
CNC(C)C(=O)NC(C(=O)N1Cc2cc([101O:1][101CH2:1]CCNc3cnc(C)c(C4C(C)C[100N:0]([100C:0](=O)N5CCCC(n6nc(-c7ccc(Oc8ccc(F)cc8F)cc7)c(C(N)=O)c6N)C5)C4C)c3)ccc2CC1C(=O)NC1CCCc2ccccc21)C(C)(C)C

> <Shape>
0.276

> <Color>
0.098

> <Negative vol penalty>
0.000

$$$$

  -OEChem-04052321363D

 87 96  0     1  0  0  0  0  0999 V2000
  -18.4033  -32.9494   20.7637 C   0  0  0  0  0  0  0  0  0  0  0  0
  -19.7302  -32.7806   20.3810 C   0  0  0  0  0  0  0  0  0  0  0  0
  -27.2686  -12.9910   21.6471 C   0  0  0  0  0  0  0  0  0  0  0  0
  -26.7464  -14.9088   20.2737 C   0  0  0  0  0  0  0  0  0  0  0  0
  -17.9281  -32.3304   21.9191 C   0  0  0  0  0  0  0  0  0  0  0  0
  -20.5829  -31.9935   21.1542 C   0  0  0  0  0  0  0  0  0  0  0  0
  -25.1405  -28.4321   19.1416 C   0  0  0  0  0  0  0  0  0  0  0  0
  -26.2223  -12.2828   21.0560 C   0  0  0  0  0  0  0  0  0  0  0  0
  -25.7001  -14.2006   19.6825 C   0  0  0  0  0  0  0  0  0  0  0  0
  -26.5184  -28.6282   19.0606 C   0  0  0  0  0  0  0  0  0  0  0  0
  -23.4608  -10.0917   20.1636 C   0  0  0  0  0  0  0  0  0  0  0  0
  -22.6171   -9.3602   20.9994 C   0  0  0  0  0  0  0  0  0  0  0  0
  -29.2289  -26.0317   19.7774 C   0  0  0  0  0  0  0  0  0  0  0  0
  -26.7988  -27.4855   21.1665 C   0  0  0  0  0  0  0  0  0  0  0  0
  -30.6451  -27.4876   21.1148 C   0  0  0  0  0  0  0  0  0  0  0  0
  -22.0112  -11.3889   22.1633 C   0  0  0  0  0  0  0  0  0  0  0  0
  -27.5306  -14.3041   21.2560 C   0  0  0  0  0  0  0  0  0  0  0  0
  -29.9499  -15.0928   21.4360 C   0  0  0  0  0  0  0  0  0  0  0  0
  -18.7729  -31.5275   22.7016 C   0  0  0  0  0  0  0  0  0  0  0  0
  -24.5794  -27.7696   20.2429 C   0  0  0  0  0  0  0  0  0  0  0  0
  -20.1189  -31.3643   22.3218 C   0  0  0  0  0  0  0  0  0  0  0  0
  -30.0769  -24.9805   20.0853 C   0  0  0  0  0  0  0  0  0  0  0  0
  -25.4137  -27.2800   21.2579 C   0  0  0  0  0  0  0  0  0  0  0  0
  -31.1915  -25.1689   20.9088 C   0  0  0  0  0  0  0  0  0  0  0  0
  -31.4878  -26.4196   21.4292 C   0  0  0  0  0  0  0  0  0  0  0  0
  -25.4381  -12.8875   20.0737 C   0  0  0  0  0  0  0  0  0  0  0  0
  -27.3475  -28.1575   20.0746 C   0  0  0  0  0  0  0  0  0  0  0  0
  -23.5798  -11.4718   20.3276 C   0  0  0  0  0  0  0  0  0  0  0  0
  -29.5224  -27.2946   20.2955 C   0  0  0  0  0  0  0  0  0  1  0  0
  -21.8923  -10.0088   21.9993 C   0  0  0  0  0  0  0  0  0  0  0  0
  -22.8550  -12.1204   21.3274 C   0  0  0  0  0  0  0  0  0  0  0  0
  -28.6108  -15.0364   21.8666 C   0  0  0  0  0  0  0  0  0  0  0  0
  -30.5690  -15.9143   22.3461 C   0  0  0  0  0  0  0  0  0  0  0  0
  -30.5780  -14.4594   20.3135 C   0  0  0  0  0  0  0  0  0  0  0  0
  -22.5260  -28.5690   22.5338 C   0  0  0  0  0  0  0  0  0  0  0  0
  -22.7690  -25.4285   23.3087 C   0  0  0  0  0  0  0  0  0  0  0  0
  -24.6004  -22.5508   23.2000 C   0  0  0  0  0  0  0  0  0  0  0  0
  -30.6542  -20.5566   25.4424 C   0  0  0  0  0  0  0  0  0  0  0  0
  -18.2263  -30.9171   23.9678 C   0  0  0  0  0  0  0  0  0  0  0  0
  -23.0937  -27.5425   20.3022 C   0  0  0  0  0  0  0  0  0  0  0  0
  -29.9497  -23.5497   19.6648 C   0  0  0  0  0  0  0  0  0  0  0  0
  -24.8630  -26.5446   22.4513 C   0  0  0  0  0  0  0  0  0  0  0  0
  -19.0967  -29.7953   24.5283 C   0  0  0  0  0  0  0  0  0  0  0  0
  -28.9442  -17.7335   26.7775 C   0  0  0  0  0  0  0  0  0  0  0  0
  -20.5637  -30.2133   24.5407 C   0  0  0  0  0  0  0  0  0  0  0  0
  -28.8101  -16.7882   25.5824 C   0  0  0  0  0  0  0  0  0  0  0  0
  -28.7992  -19.1952   26.3599 C   0  0  0  0  0  0  0  0  0  0  0  0
  -29.5643  -18.6750   24.0757 C   0  0  0  0  0  0  0  0  0  0  0  0
  -31.9372  -23.8765   21.1275 C   0  0  2  0  0  0  0  0  0  0  0  0
  -21.0682  -30.4980   23.1208 C   0  0  1  0  0  0  0  0  0  0  0  0
  -22.5814  -27.3073   21.7199 C   0  0  1  0  0  0  0  0  0  0  0  0
  -29.7591  -17.1928   24.4382 C   0  0  2  0  0  0  0  0  0  0  0  0
  -31.3744  -22.9944   19.9554 C   0  0  0  0  0  0  0  0  0  0  0  0
  -32.6793  -26.6851   22.2806 C   0  0  0  0  0  0  0  0  0  0  0  0
  -31.3090  -21.4947   20.2724 C   0  0  0  0  0  0  0  0  0  0  0  0
  -32.2659  -23.1755   18.7029 C   0  0  0  0  0  0  0  0  0  0  0  0
  -24.5554  -20.1575   23.9532 C   0  0  0  0  0  0  0  0  0  0  0  0
  -33.7977  -21.2700   24.9981 C   0  0  0  0  0  0  0  0  0  0  0  0
  -23.4617  -26.3110   26.1462 C   0  0  0  0  0  0  0  0  0  0  0  0
  -24.3173  -23.9987   26.5818 C   0  0  0  0  0  0  0  0  0  0  0  0
  -21.9145  -24.3508   26.0118 C   0  0  0  0  0  0  0  0  0  0  0  0
  -24.6930  -21.5517   20.4157 C   0  0  0  0  0  0  0  0  0  0  0  0
  -31.6683  -23.3497   22.5364 C   0  0  0  0  0  0  0  0  0  0  0  0
  -32.7701  -22.3894   22.9883 C   0  0  0  0  0  0  0  0  0  0  0  0
  -23.6676  -24.6160   24.2095 C   0  0  1  0  0  0  0  0  0  0  0  0
  -24.2201  -21.1282   22.8315 C   0  0  2  0  0  0  0  0  0  0  0  0
  -32.5120  -21.8232   24.3919 C   0  0  1  0  0  0  0  0  0  0  0  0
  -23.3508  -24.8347   25.7159 C   0  0  0  0  0  0  0  0  0  0  0  0
  -28.3913  -15.7639   22.9651 N   0  0  0  0  0  0  0  0  0  0  0  0
  -29.6009  -16.2852   23.2324 N   0  0  0  0  0  0  0  0  0  0  0  0
  -23.4033  -26.3530   22.4668 N   0  0  0  0  0  0  0  0  0  0  0  0
  -29.7277  -19.5146   25.2728 N   0  0  0  0  0  0  0  0  0  0  0  0
  -31.8416  -16.3482   22.4669 N   0  0  0  0  0  0  0  0  0  0  0  0
  -29.7957  -13.6485   19.4799 N   0  0  0  0  0  0  0  0  0  0  0  0
  -21.3343  -29.2594   22.4212 N   0  0  0  0  0  0  0  0  0  0  0  0
  -23.5440  -23.2311   23.7678 N   0  0  0  0  0  0  0  0  0  0  0  0
  -31.5015  -20.7893   24.3660 N   0  0  0  0  0  0  0  0  0  0  0  0
  -24.9489  -20.6984   21.6046 N   0  3  0  0  0  0  0  0  0  0  0  0
  -31.8004  -14.5949   20.0667 O   0  0  0  0  0  0  0  0  0  0  0  0
  -23.4924  -28.8915   23.2149 O   0  0  0  0  0  0  0  0  0  0  0  0
  -21.5498  -25.2445   23.3455 O   0  0  0  0  0  0  0  0  0  0  0  0
  -25.7235  -23.0114   23.0070 O   0  0  0  0  0  0  0  0  0  0  0  0
  -30.7250  -21.2262   26.4786 O   0  0  0  0  0  0  0  0  0  0  0  0
  -24.4173  -12.1967   19.4965 O   0  0  0  0  0  0  0  0  0  0  0  0
  -28.7159  -28.3515   19.9970 O   0  0  0  0  0  0  0  0  0  1  0  0
  -21.0809   -9.3064   22.8008 F   0  0  0  0  0  0  0  0  0  0  0  0
  -22.9643  -13.4462   21.4891 F   0  0  0  0  0  0  0  0  0  0  0  0
  1  2  1  0  0  0  0
  1  5  2  0  0  0  0
  2  6  2  0  0  0  0
  3  8  2  0  0  0  0
  3 17  1  0  0  0  0
  4  9  1  0  0  0  0
  4 17  2  0  0  0  0
  5 19  1  0  0  0  0
  6 21  1  0  0  0  0
  7 10  2  0  0  0  0
  7 20  1  0  0  0  0
  8 26  1  0  0  0  0
  9 26  2  0  0  0  0
 10 27  1  0  0  0  0
 11 12  2  0  0  0  0
 11 28  1  0  0  0  0
 12 30  1  0  0  0  0
 13 22  1  0  0  0  0
 13 29  2  0  0  0  0
 14 23  1  0  0  0  0
 14 27  2  0  0  0  0
 15 25  2  0  0  0  0
 15 29  1  0  0  0  0
 16 30  2  0  0  0  0
 16 31  1  0  0  0  0
 17 32  1  0  0  0  0
 18 32  1  0  0  0  0
 18 33  2  0  0  0  0
 18 34  1  0  0  0  0
 19 21  2  0  0  0  0
 19 39  1  0  0  0  0
 20 23  2  0  0  0  0
 20 40  1  0  0  0  0
 21 50  1  0  0  0  0
 22 24  2  0  0  0  0
 22 41  1  0  0  0  0
 23 42  1  0  0  0  0
 24 25  1  0  0  0  0
 24 49  1  0  0  0  0
 25 54  1  0  0  0  0
 26 84  1  0  0  0  0
 27 85  1  0  0  0  0
 28 31  2  0  0  0  0
 28 84  1  0  0  0  0
 29 85  1  0  0  0  0
 30 86  1  0  0  0  0
 31 87  1  0  0  0  0
 32 69  2  0  0  0  0
 33 70  1  0  0  0  0
 33 73  1  0  0  0  0
 34 74  1  0  0  0  0
 34 79  2  0  0  0  0
 35 51  1  0  0  0  0
 35 75  1  0  0  0  0
 35 80  2  0  0  0  0
 36 65  1  0  0  0  0
 36 71  1  0  0  0  0
 36 81  2  0  0  0  0
 37 66  1  0  0  0  0
 37 76  1  0  0  0  0
 37 82  2  0  0  0  0
 38 72  1  0  0  0  0
 38 77  1  0  0  0  0
 38 83  2  0  0  0  0
 39 43  1  0  0  0  0
 40 51  1  0  0  0  0
 41 53  1  0  0  0  0
 42 71  1  0  0  0  0
 43 45  1  0  0  0  0
 44 46  1  0  0  0  0
 44 47  1  0  0  0  0
 45 50  1  0  0  0  0
 46 52  1  0  0  0  0
 47 72  1  0  0  0  0
 48 52  1  0  0  0  0
 48 72  1  0  0  0  0
 49 53  1  0  0  0  0
 49 63  1  0  0  0  0
 50 75  1  0  0  0  0
 51 71  1  0  0  0  0
 52 70  1  0  0  0  0
 53 55  1  0  0  0  0
 53 56  1  0  0  0  0
 57 66  1  0  0  0  0
 58 67  1  0  0  0  0
 59 68  1  0  0  0  0
 60 68  1  0  0  0  0
 61 68  1  0  0  0  0
 62 78  1  0  0  0  0
 63 64  1  0  0  0  0
 64 67  1  0  0  0  0
 65 68  1  0  0  0  0
 65 76  1  0  0  0  0
 66 78  1  0  0  0  0
 67 77  1  0  0  0  0
 69 70  1  0  0  0  0
M  CHG  1  78   1
M  ISO  4  29 101  38 100  77 100  85 101
M  END
> <Batch ID>
0148

> <Smiles>
CNC(C)C(=O)NC(C(=O)N1Cc2cc([101O:1][101c:1]3cc(C)c4c(c3)CC(C)(C)C4CCC(C)[100NH:0][100C:0](=O)N3CCCC(n4nc(-c5ccc(Oc6ccc(F)cc6F)cc5)c(C(N)=O)c4N)C3)ccc2CC1C(=O)NC1CCCc2ccccc21)C(C)(C)C

> <Shape>
0.208

> <Color>
0.080

> <Negative vol penalty>
0.000

$$$$

  -OEChem-04052321363D

 90100  0     1  0  0  0  0  0999 V2000
  -16.7893  -28.7082   23.8609 C   0  0  0  0  0  0  0  0  0  0  0  0
  -17.8780  -27.8562   24.0170 C   0  0  0  0  0  0  0  0  0  0  0  0
  -23.5136  -10.7045   23.2460 C   0  0  0  0  0  0  0  0  0  0  0  0
  -24.5521   -9.0800   21.7901 C   0  0  0  0  0  0  0  0  0  0  0  0
  -16.9646  -29.9614   23.2757 C   0  0  0  0  0  0  0  0  0  0  0  0
  -19.1425  -28.2566   23.5867 C   0  0  0  0  0  0  0  0  0  0  0  0
  -22.7646  -27.2185   26.9702 C   0  0  0  0  0  0  0  0  0  0  0  0
  -23.0733   -9.6763   24.0793 C   0  0  0  0  0  0  0  0  0  0  0  0
  -24.1119   -8.0517   22.6234 C   0  0  0  0  0  0  0  0  0  0  0  0
  -23.2132  -25.9002   27.0385 C   0  0  0  0  0  0  0  0  0  0  0  0
  -21.2371   -6.3666   23.1952 C   0  0  0  0  0  0  0  0  0  0  0  0
  -20.6676   -5.2442   22.5941 C   0  0  0  0  0  0  0  0  0  0  0  0
  -25.1382  -26.4928   25.7110 C   0  0  0  0  0  0  0  0  0  0  0  0
  -22.3824   -3.8507   23.5712 C   0  0  0  0  0  0  0  0  0  0  0  0
  -24.2530  -10.4064   22.1013 C   0  0  0  0  0  0  0  0  0  0  0  0
  -23.9126  -12.4068   20.5553 C   0  0  0  0  0  0  0  0  0  0  0  0
  -18.2337  -30.3812   22.8469 C   0  0  0  0  0  0  0  0  0  0  0  0
  -23.4951  -28.1831   26.2614 C   0  0  0  0  0  0  0  0  0  0  0  0
  -19.3347  -29.5161   22.9940 C   0  0  0  0  0  0  0  0  0  0  0  0
  -24.6980  -27.8232   25.6374 C   0  0  0  0  0  0  0  0  0  0  0  0
  -23.3724   -8.3499   23.7681 C   0  0  0  0  0  0  0  0  0  0  0  0
  -24.3986  -25.5365   26.4064 C   0  0  0  0  0  0  0  0  0  0  0  0
  -22.3794   -6.2311   23.9843 C   0  0  0  0  0  0  0  0  0  0  0  0
  -21.2402   -3.9862   22.7821 C   0  0  0  0  0  0  0  0  0  0  0  0
  -22.9520   -4.9732   24.1723 C   0  0  0  0  0  0  0  0  0  0  0  0
  -24.7076  -11.4681   21.2398 C   0  0  0  0  0  0  0  0  0  0  0  0
  -24.8141  -13.1934   19.8808 C   0  0  0  0  0  0  0  0  0  0  0  0
  -22.4867  -12.5546   20.5315 C   0  0  0  0  0  0  0  0  0  0  0  0
  -22.9188  -30.0241   23.7351 C   0  0  0  0  0  0  0  0  0  0  0  0
  -25.7992  -31.3049   24.4999 C   0  0  0  0  0  0  0  0  0  0  0  0
  -28.9447  -32.0029   25.6250 C   0  0  0  0  0  0  0  0  0  0  0  0
  -30.5772  -14.5162   20.8233 C   0  0  0  0  0  0  0  0  0  0  0  0
  -18.3654  -31.7260   22.1769 C   0  0  0  0  0  0  0  0  0  0  0  0
  -23.0114  -29.6067   26.2197 C   0  0  0  0  0  0  0  0  0  0  0  0
  -25.5297  -28.8254   24.8808 C   0  0  0  0  0  0  0  0  0  0  0  0
  -19.8057  -32.2242   22.0889 C   0  0  0  0  0  0  0  0  0  0  0  0
  -29.1681  -13.0455   17.9030 C   0  0  0  0  0  0  0  0  0  0  0  0
  -20.7256  -31.1129   21.5934 C   0  0  0  0  0  0  0  0  0  0  0  0
  -27.3137  -22.6451   22.2812 C   0  0  0  0  0  0  0  0  0  0  0  0
  -26.0279  -22.5924   21.5041 C   0  0  0  0  0  0  0  0  0  0  0  0
  -31.0932  -18.6113   22.9569 C   0  0  0  0  0  0  0  0  0  0  0  0
  -31.2277  -17.1150   24.9894 C   0  0  0  0  0  0  0  0  0  0  0  0
  -27.7934  -12.5591   18.3653 C   0  0  0  0  0  0  0  0  0  0  0  0
  -30.3957  -17.4952   22.1787 C   0  0  0  0  0  0  0  0  0  0  0  0
  -30.5312  -15.9959   24.2144 C   0  0  0  0  0  0  0  0  0  0  0  0
  -28.0928  -22.8570   26.6098 C   0  0  0  0  0  0  0  0  0  0  0  0
  -27.2634  -24.1384   26.7306 C   0  0  0  0  0  0  0  0  0  0  0  0
  -30.2217  -12.8816   18.9962 C   0  0  0  0  0  0  0  0  0  0  0  0
  -28.4976  -13.0106   20.7525 C   0  0  0  0  0  0  0  0  0  0  0  0
  -20.7266  -29.9244   22.5625 C   0  0  1  0  0  0  0  0  0  0  0  0
  -23.5701  -30.3932   25.0379 C   0  0  1  0  0  0  0  0  0  0  0  0
  -30.8730  -18.5170   24.4736 C   0  0  0  0  0  0  0  0  0  0  0  0
  -26.0282  -23.0868   22.9241 C   0  0  0  0  0  0  0  0  0  0  0  0
  -26.0978  -22.4815   25.3594 C   0  0  1  0  0  0  0  0  0  0  0  0
  -27.3901  -13.2074   19.7033 C   0  0  2  0  0  0  0  0  0  0  0  0
  -30.7853  -16.1143   22.7106 C   0  0  0  0  0  0  0  0  0  0  0  0
  -27.5981  -22.2158   25.3226 C   0  0  2  0  0  0  0  0  0  0  0  0
  -26.0531  -23.9495   25.8046 C   0  0  1  0  0  0  0  0  0  1  0  0
  -30.9254  -33.4696   25.1528 C   0  0  0  0  0  0  0  0  0  0  0  0
  -23.9005  -22.5593   24.1479 C   0  0  0  0  0  0  0  0  0  0  0  0
  -26.5387  -29.5375   22.1252 C   0  0  0  0  0  0  0  0  0  0  0  0
  -28.8824  -30.3999   22.3024 C   0  0  0  0  0  0  0  0  0  0  0  0
  -27.0115  -31.9718   21.8011 C   0  0  0  0  0  0  0  0  0  0  0  0
  -28.7721  -33.2901   28.2844 C   0  0  0  0  0  0  0  0  0  0  0  0
  -29.4485  -18.9198   24.8646 C   0  0  0  0  0  0  0  0  0  0  0  0
  -29.2867  -20.4315   24.8716 C   0  0  0  0  0  0  0  0  0  0  0  0
  -27.2326  -31.0104   24.1289 C   0  0  1  0  0  0  0  0  0  0  0  0
  -29.6329  -33.3189   25.9399 C   0  0  2  0  0  0  0  0  0  0  0  0
  -25.3922  -22.2465   24.0314 C   0  0  1  0  0  0  0  0  0  0  0  0
  -27.4038  -30.7173   22.6116 C   0  0  0  0  0  0  0  0  0  0  0  0
  -26.0137  -11.6408   21.0201 N   0  0  0  0  0  0  0  0  0  0  0  0
  -26.0463  -12.6972   20.1899 N   0  0  0  0  0  0  0  0  0  0  0  0
  -25.0116  -30.2034   24.8634 N   0  0  0  0  0  0  0  0  0  0  0  0
  -29.7785  -13.5199   20.2381 N   0  0  0  0  0  0  0  0  0  0  0  0
  -24.6651  -14.2542   19.0593 N   0  0  0  0  0  0  0  0  0  0  0  0
  -21.7597  -11.8644   19.5519 N   0  0  0  0  0  0  0  0  0  0  0  0
  -21.5502  -30.2141   23.7167 N   0  0  0  0  0  0  0  0  0  0  0  0
  -28.0196  -32.1400   24.6118 N   0  0  0  0  0  0  0  0  0  0  0  0
  -30.0808  -15.0738   21.9952 N   0  0  0  0  0  0  0  0  0  0  0  0
  -27.8992  -20.7725   25.3016 N   0  3  0  0  0  0  0  0  0  0  0  0
  -29.9551  -33.4003   27.3926 N   0  3  0  0  0  0  0  0  0  0  0  0
  -21.8768  -13.2902   21.3442 O   0  0  0  0  0  0  0  0  0  0  0  0
  -23.6071  -29.5999   22.8143 O   0  0  0  0  0  0  0  0  0  0  0  0
  -25.3953  -32.4702   24.4753 O   0  0  0  0  0  0  0  0  0  0  0  0
  -29.2046  -30.9572   26.2160 O   0  0  0  0  0  0  0  0  0  0  0  0
  -31.6503  -14.8855   20.3345 O   0  0  0  0  0  0  0  0  0  0  0  0
  -22.9432   -7.3463   24.5811 O   0  0  0  0  0  0  0  0  0  0  0  0
  -24.8384  -24.2503   26.4709 O   0  0  0  0  0  0  0  0  0  1  0  0
  -20.6922   -2.9083   22.2060 F   0  0  0  0  0  0  0  0  0  0  0  0
  -24.0486   -4.8366   24.9303 F   0  0  0  0  0  0  0  0  0  0  0  0
  1  2  1  0  0  0  0
  1  5  2  0  0  0  0
  2  6  2  0  0  0  0
  3  8  2  0  0  0  0
  3 15  1  0  0  0  0
  4  9  1  0  0  0  0
  4 15  2  0  0  0  0
  5 17  1  0  0  0  0
  6 19  1  0  0  0  0
  7 10  2  0  0  0  0
  7 18  1  0  0  0  0
  8 21  1  0  0  0  0
  9 21  2  0  0  0  0
 10 22  1  0  0  0  0
 11 12  2  0  0  0  0
 11 23  1  0  0  0  0
 12 24  1  0  0  0  0
 13 20  1  0  0  0  0
 13 22  2  0  0  0  0
 14 24  2  0  0  0  0
 14 25  1  0  0  0  0
 15 26  1  0  0  0  0
 16 26  1  0  0  0  0
 16 27  2  0  0  0  0
 16 28  1  0  0  0  0
 17 19  2  0  0  0  0
 17 33  1  0  0  0  0
 18 20  2  0  0  0  0
 18 34  1  0  0  0  0
 19 50  1  0  0  0  0
 20 35  1  0  0  0  0
 21 87  1  0  0  0  0
 22 88  1  0  0  0  0
 23 25  2  0  0  0  0
 23 87  1  0  0  0  0
 24 89  1  0  0  0  0
 25 90  1  0  0  0  0
 26 71  2  0  0  0  0
 27 72  1  0  0  0  0
 27 75  1  0  0  0  0
 28 76  1  0  0  0  0
 28 82  2  0  0  0  0
 29 51  1  0  0  0  0
 29 77  1  0  0  0  0
 29 83  2  0  0  0  0
 30 67  1  0  0  0  0
 30 73  1  0  0  0  0
 30 84  2  0  0  0  0
 31 68  1  0  0  0  0
 31 78  1  0  0  0  0
 31 85  2  0  0  0  0
 32 74  1  0  0  0  0
 32 79  1  0  0  0  0
 32 86  2  0  0  0  0
 33 36  1  0  0  0  0
 34 51  1  0  0  0  0
 35 73  1  0  0  0  0
 36 38  1  0  0  0  0
 37 43  1  0  0  0  0
 37 48  1  0  0  0  0
 38 50  1  0  0  0  0
 39 40  1  0  0  0  0
 39 53  1  0  0  0  0
 40 53  1  0  0  0  0
 41 44  1  0  0  0  0
 41 52  1  0  0  0  0
 42 45  1  0  0  0  0
 42 52  1  0  0  0  0
 43 55  1  0  0  0  0
 44 56  1  0  0  0  0
 45 56  1  0  0  0  0
 46 47  1  0  0  0  0
 46 57  1  0  0  0  0
 47 58  1  0  0  0  0
 48 74  1  0  0  0  0
 49 55  1  0  0  0  0
 49 74  1  0  0  0  0
 50 77  1  0  0  0  0
 51 73  1  0  0  0  0
 52 65  1  0  0  0  0
 53 69  1  0  0  0  0
 54 57  1  0  0  0  0
 54 58  1  0  0  0  0
 54 69  1  0  0  0  0
 55 72  1  0  0  0  0
 56 79  1  0  0  0  0
 57 80  1  0  0  0  0
 58 88  1  0  0  0  0
 59 68  1  0  0  0  0
 60 69  1  0  0  0  0
 61 70  1  0  0  0  0
 62 70  1  0  0  0  0
 63 70  1  0  0  0  0
 64 81  1  0  0  0  0
 65 66  1  0  0  0  0
 66 80  1  0  0  0  0
 67 70  1  0  0  0  0
 67 78  1  0  0  0  0
 68 81  1  0  0  0  0
 71 72  1  0  0  0  0
M  CHG  2  80   1  81   1
M  ISO  4  32 100  58 101  79 100  88 101
M  END
> <Batch ID>
0148

> <Smiles>
CNC(C)C(=O)NC(C(=O)N1Cc2cc([101O:1][101CH:1]3CCC(NCCC4CCC([100NH:0][100C:0](=O)N5CCCC(n6nc(-c7ccc(Oc8ccc(F)cc8F)cc7)c(C(N)=O)c6N)C5)CC4)C3C(C)C3CC3)ccc2CC1C(=O)NC1CCCc2ccccc21)C(C)(C)C

> <Shape>
0.266

> <Color>
0.113

> <Negative vol penalty>
0.000

$$$$

  -OEChem-04052321363D

 88 96  0     1  0  0  0  0  0999 V2000
  -26.8787  -37.1177   23.7673 C   0  0  0  0  0  0  0  0  0  0  0  0
  -27.4970  -36.0279   23.1626 C   0  0  0  0  0  0  0  0  0  0  0  0
  -26.1133  -12.2564   21.4991 C   0  0  0  0  0  0  0  0  0  0  0  0
  -25.6260  -13.2498   19.3514 C   0  0  0  0  0  0  0  0  0  0  0  0
  -25.8098  -36.9158   24.6394 C   0  0  0  0  0  0  0  0  0  0  0  0
  -27.0473  -34.7355   23.4306 C   0  0  0  0  0  0  0  0  0  0  0  0
  -26.9074  -30.0059   19.5425 C   0  0  0  0  0  0  0  0  0  0  0  0
  -24.7501  -12.2220   21.7925 C   0  0  0  0  0  0  0  0  0  0  0  0
  -24.2627  -13.2153   19.6448 C   0  0  0  0  0  0  0  0  0  0  0  0
  -27.7669  -28.9255   19.3484 C   0  0  0  0  0  0  0  0  0  0  0  0
  -22.0806  -10.3016   21.0060 C   0  0  0  0  0  0  0  0  0  0  0  0
  -21.5664   -9.1299   21.5614 C   0  0  0  0  0  0  0  0  0  0  0  0
  -26.3683  -27.5657   20.7675 C   0  0  0  0  0  0  0  0  0  0  0  0
  -27.1491  -21.2979   19.6709 C   0  0  0  0  0  0  0  0  0  0  0  0
  -28.8114  -22.2521   17.6439 C   0  0  0  0  0  0  0  0  0  0  0  0
  -20.8596  -10.3656   23.5135 C   0  0  0  0  0  0  0  0  0  0  0  0
  -26.5513  -12.7704   20.2786 C   0  0  0  0  0  0  0  0  0  0  0  0
  -28.7182  -11.8056   19.3397 C   0  0  0  0  0  0  0  0  0  0  0  0
  -25.3407  -35.6208   24.9108 C   0  0  0  0  0  0  0  0  0  0  0  0
  -25.7759  -29.8772   20.3607 C   0  0  0  0  0  0  0  0  0  0  0  0
  -25.9721  -34.5160   24.3083 C   0  0  0  0  0  0  0  0  0  0  0  0
  -25.4946  -28.6452   20.9683 C   0  0  0  0  0  0  0  0  0  0  0  0
  -27.1664  -22.6589   19.3660 C   0  0  0  0  0  0  0  0  0  0  0  0
  -27.9630  -20.4140   18.9624 C   0  0  0  0  0  0  0  0  0  0  0  0
  -23.8248  -12.7014   20.8654 C   0  0  0  0  0  0  0  0  0  0  0  0
  -27.4990  -27.7059   19.9632 C   0  0  0  0  0  0  0  0  0  0  0  0
  -21.9843  -11.5052   21.7044 C   0  0  0  0  0  0  0  0  0  0  0  0
  -27.9976  -23.1360   18.3524 C   0  0  0  0  0  0  0  0  0  0  0  0
  -28.7941  -20.8911   17.9489 C   0  0  0  0  0  0  0  0  0  0  0  0
  -20.9559   -9.1619   22.8152 C   0  0  0  0  0  0  0  0  0  0  0  0
  -21.3738  -11.5372   22.9581 C   0  0  0  0  0  0  0  0  0  0  0  0
  -27.9593  -12.8067   19.9751 C   0  0  0  0  0  0  0  0  0  0  0  0
  -29.9906  -12.3201   19.2880 C   0  0  0  0  0  0  0  0  0  0  0  0
  -28.3093  -10.5252   18.8407 C   0  0  0  0  0  0  0  0  0  0  0  0
  -24.7847  -31.2509   23.0504 C   0  0  0  0  0  0  0  0  0  0  0  0
  -22.0941  -29.5317   22.4780 C   0  0  0  0  0  0  0  0  0  0  0  0
  -20.6472  -26.8286   20.9793 C   0  0  0  0  0  0  0  0  0  0  0  0
  -32.1318  -17.9117   19.3072 C   0  0  0  0  0  0  0  0  0  0  0  0
  -24.2127  -35.4492   25.8971 C   0  0  0  0  0  0  0  0  0  0  0  0
  -24.8442  -31.0446   20.5384 C   0  0  0  0  0  0  0  0  0  0  0  0
  -24.2820  -28.4494   21.8398 C   0  0  0  0  0  0  0  0  0  0  0  0
  -23.5555  -34.0727   25.8375 C   0  0  0  0  0  0  0  0  0  0  0  0
  -32.9176  -15.3104   21.6078 C   0  0  0  0  0  0  0  0  0  0  0  0
  -24.6153  -32.9762   25.8029 C   0  0  0  0  0  0  0  0  0  0  0  0
  -31.8044  -14.2835   21.3929 C   0  0  0  0  0  0  0  0  0  0  0  0
  -32.3995  -16.7407   21.4737 C   0  0  0  0  0  0  0  0  0  0  0  0
  -30.5677  -15.9968   20.0023 C   0  0  0  0  0  0  0  0  0  0  0  0
  -25.4972  -33.1004   24.5546 C   0  0  1  0  0  0  0  0  0  0  0  0
  -23.9999  -30.9477   21.8054 C   0  0  1  0  0  0  0  0  0  0  0  0
  -31.0532  -14.5388   20.0724 C   0  0  2  0  0  0  0  0  0  0  0  0
  -26.2887  -23.5909   20.1345 C   0  0  0  0  0  0  0  0  0  0  0  0
  -18.4382  -25.6657   20.7238 C   0  0  0  0  0  0  0  0  0  0  0  0
  -27.7503  -18.7576   21.6628 C   0  0  0  0  0  0  0  0  0  0  0  0
  -26.9080  -17.0109   20.0549 C   0  0  0  0  0  0  0  0  0  0  0  0
  -22.3624  -28.4069   25.3016 C   0  0  0  0  0  0  0  0  0  0  0  0
  -20.7508  -26.6014   24.6605 C   0  0  0  0  0  0  0  0  0  0  0  0
  -20.0251  -28.9878   24.6278 C   0  0  0  0  0  0  0  0  0  0  0  0
  -20.6522  -27.2144   18.0450 C   0  0  0  0  0  0  0  0  0  0  0  0
  -31.7460  -18.9777   17.0995 C   0  0  0  0  0  0  0  0  0  0  0  0
  -31.0011  -20.2850   17.3023 C   0  0  0  0  0  0  0  0  0  0  0  0
  -29.0328  -26.5858   18.5320 C   0  0  0  0  0  0  0  0  0  1  0  0
  -29.2781  -25.1322   18.1762 C   0  0  0  0  0  0  0  0  0  0  0  0
  -21.6101  -28.1498   22.8452 C   0  0  1  0  0  0  0  0  0  0  0  0
  -19.3908  -26.6960   20.1376 C   0  0  2  0  0  0  0  0  0  0  0  0
  -27.1032  -18.4982   20.3101 C   0  0  0  0  0  0  0  0  0  0  0  0
  -21.2111  -28.0404   24.3440 C   0  0  0  0  0  0  0  0  0  0  0  0
  -28.6889  -13.8762   20.3037 N   0  0  0  0  0  0  0  0  0  0  0  0
  -29.9195  -13.5500   19.8731 N   0  0  0  0  0  0  0  0  0  0  0  0
  -23.4047  -29.6224   21.9880 N   0  0  0  0  0  0  0  0  0  0  0  0
  -31.6987  -16.9170   20.1994 N   0  0  0  0  0  0  0  0  0  0  0  0
  -31.1522  -11.8358   18.7996 N   0  0  0  0  0  0  0  0  0  0  0  0
  -26.9645  -10.1541   18.9750 N   0  0  0  0  0  0  0  0  0  0  0  0
  -27.9357  -19.0389   19.2817 N   0  0  0  0  0  0  0  0  0  0  0  0
  -24.8025  -32.5896   23.3922 N   0  0  0  0  0  0  0  0  0  0  0  0
  -20.5312  -27.8346   21.9151 N   0  0  0  0  0  0  0  0  0  0  0  0
  -31.4166  -18.0075   18.1198 N   0  0  0  0  0  0  0  0  0  0  0  0
  -19.7387  -26.2787   18.7499 N   0  3  0  0  0  0  0  0  0  0  0  0
  -29.1161   -9.7268   18.3067 O   0  0  0  0  0  0  0  0  0  0  0  0
  -25.3323  -30.3375   23.6568 O   0  0  0  0  0  0  0  0  0  0  0  0
  -21.3349  -30.4944   22.6139 O   0  0  0  0  0  0  0  0  0  0  0  0
  -21.6315  -26.1090   20.8247 O   0  0  0  0  0  0  0  0  0  0  0  0
  -33.0886  -18.6555   19.5485 O   0  0  0  0  0  0  0  0  0  0  0  0
  -22.4945  -12.6677   21.1512 O   0  0  0  0  0  0  0  0  0  0  0  0
  -28.3367  -26.6499   19.7760 O   0  0  0  0  0  0  0  0  0  1  0  0
  -28.0268  -24.4697   18.0400 O   0  0  0  0  0  0  0  0  0  0  0  0
  -29.5969  -20.0438   17.2450 O   0  0  0  0  0  0  0  0  0  0  0  0
  -20.4608   -8.0370   23.3478 F   0  0  0  0  0  0  0  0  0  0  0  0
  -21.2773  -12.6908   23.6332 F   0  0  0  0  0  0  0  0  0  0  0  0
  1  2  1  0  0  0  0
  1  5  2  0  0  0  0
  2  6  2  0  0  0  0
  3  8  2  0  0  0  0
  3 17  1  0  0  0  0
  4  9  1  0  0  0  0
  4 17  2  0  0  0  0
  5 19  1  0  0  0  0
  6 21  1  0  0  0  0
  7 10  2  0  0  0  0
  7 20  1  0  0  0  0
  8 25  1  0  0  0  0
  9 25  2  0  0  0  0
 10 26  1  0  0  0  0
 11 12  2  0  0  0  0
 11 27  1  0  0  0  0
 12 30  1  0  0  0  0
 13 22  1  0  0  0  0
 13 26  2  0  0  0  0
 14 23  1  0  0  0  0
 14 24  2  0  0  0  0
 15 28  1  0  0  0  0
 15 29  2  0  0  0  0
 16 30  2  0  0  0  0
 16 31  1  0  0  0  0
 17 32  1  0  0  0  0
 18 32  1  0  0  0  0
 18 33  2  0  0  0  0
 18 34  1  0  0  0  0
 19 21  2  0  0  0  0
 19 39  1  0  0  0  0
 20 22  2  0  0  0  0
 20 40  1  0  0  0  0
 21 48  1  0  0  0  0
 22 41  1  0  0  0  0
 23 28  2  0  0  0  0
 23 51  1  0  0  0  0
 24 29  1  0  0  0  0
 24 73  1  0  0  0  0
 25 83  1  0  0  0  0
 26 84  1  0  0  0  0
 27 31  2  0  0  0  0
 27 83  1  0  0  0  0
 28 85  1  0  0  0  0
 29 86  1  0  0  0  0
 30 87  1  0  0  0  0
 31 88  1  0  0  0  0
 32 67  2  0  0  0  0
 33 68  1  0  0  0  0
 33 71  1  0  0  0  0
 34 72  1  0  0  0  0
 34 78  2  0  0  0  0
 35 49  1  0  0  0  0
 35 74  1  0  0  0  0
 35 79  2  0  0  0  0
 36 63  1  0  0  0  0
 36 69  1  0  0  0  0
 36 80  2  0  0  0  0
 37 64  1  0  0  0  0
 37 75  1  0  0  0  0
 37 81  2  0  0  0  0
 38 70  1  0  0  0  0
 38 76  1  0  0  0  0
 38 82  2  0  0  0  0
 39 42  1  0  0  0  0
 40 49  1  0  0  0  0
 41 69  1  0  0  0  0
 42 44  1  0  0  0  0
 43 45  1  0  0  0  0
 43 46  1  0  0  0  0
 44 48  1  0  0  0  0
 45 50  1  0  0  0  0
 46 70  1  0  0  0  0
 47 50  1  0  0  0  0
 47 70  1  0  0  0  0
 48 74  1  0  0  0  0
 49 69  1  0  0  0  0
 50 68  1  0  0  0  0
 52 64  1  0  0  0  0
 53 65  1  0  0  0  0
 54 65  1  0  0  0  0
 55 66  1  0  0  0  0
 56 66  1  0  0  0  0
 57 66  1  0  0  0  0
 58 77  1  0  0  0  0
 59 60  1  0  0  0  0
 59 76  1  0  0  0  0
 60 86  1  0  0  0  0
 61 62  1  0  0  0  0
 61 84  1  0  0  0  0
 62 85  1  0  0  0  0
 63 66  1  0  0  0  0
 63 75  1  0  0  0  0
 64 77  1  0  0  0  0
 65 73  1  0  0  0  0
 67 68  1  0  0  0  0
M  CHG  1  77   1
M  ISO  4  38 100  61 101  76 100  84 101
M  END
> <Batch ID>
0148

> <Smiles>
CNC(C)C(=O)NC(C(=O)N1Cc2cc([101O:1][101CH2:1]COc3cc(OCC[100NH:0][100C:0](=O)N4CCCC(n5nc(-c6ccc(Oc7ccc(F)cc7F)cc6)c(C(N)=O)c5N)C4)c(NC(C)C)cc3C)ccc2CC1C(=O)NC1CCCc2ccccc21)C(C)(C)C

> <Shape>
0.340

> <Color>
0.082

> <Negative vol penalty>
0.000

$$$$

  -OEChem-04052321363D

 89 98  0     1  0  0  0  0  0999 V2000
  -36.7194  -17.8482   28.6322 C   0  0  0  0  0  0  0  0  0  0  0  0
  -36.5649  -18.4234   27.3750 C   0  0  0  0  0  0  0  0  0  0  0  0
  -23.0949   -9.8611   19.9424 C   0  0  0  0  0  0  0  0  0  0  0  0
  -23.7064   -9.9582   22.2777 C   0  0  0  0  0  0  0  0  0  0  0  0
  -35.6065  -17.6501   29.4485 C   0  0  0  0  0  0  0  0  0  0  0  0
  -35.2972  -18.7999   26.9328 C   0  0  0  0  0  0  0  0  0  0  0  0
  -33.9071  -23.6072   23.4024 C   0  0  0  0  0  0  0  0  0  0  0  0
  -22.3412   -8.7133   20.1874 C   0  0  0  0  0  0  0  0  0  0  0  0
  -22.9527   -8.8103   22.5228 C   0  0  0  0  0  0  0  0  0  0  0  0
  -33.6642  -23.7276   22.0349 C   0  0  0  0  0  0  0  0  0  0  0  0
  -23.2921   -5.4719   22.1100 C   0  0  0  0  0  0  0  0  0  0  0  0
  -23.8645   -4.4779   22.9037 C   0  0  0  0  0  0  0  0  0  0  0  0
  -31.2925  -23.5765   22.4489 C   0  0  0  0  0  0  0  0  0  0  0  0
  -32.3899  -19.4943   17.9361 C   0  0  0  0  0  0  0  0  0  0  0  0
  -32.0359  -20.2900   20.1896 C   0  0  0  0  0  0  0  0  0  0  0  0
  -22.0567   -4.7039   24.4905 C   0  0  0  0  0  0  0  0  0  0  0  0
  -23.7776  -10.4835   20.9875 C   0  0  0  0  0  0  0  0  0  0  0  0
  -24.1161  -13.0046   20.7950 C   0  0  0  0  0  0  0  0  0  0  0  0
  -34.3258  -18.0333   29.0200 C   0  0  0  0  0  0  0  0  0  0  0  0
  -32.8432  -23.4594   24.3040 C   0  0  0  0  0  0  0  0  0  0  0  0
  -34.1660  -18.6056   27.7435 C   0  0  0  0  0  0  0  0  0  0  0  0
  -31.5244  -23.4570   23.8277 C   0  0  0  0  0  0  0  0  0  0  0  0
  -32.9943  -18.1037   19.8171 C   0  0  0  0  0  0  0  0  0  0  0  0
  -31.9524  -20.4882   18.8114 C   0  0  0  0  0  0  0  0  0  0  0  0
  -32.9108  -18.3020   18.4389 C   0  0  0  0  0  0  0  0  0  0  0  0
  -32.5568  -19.0977   20.6925 C   0  0  0  0  0  0  0  0  0  0  0  0
  -22.2701   -8.1879   21.4776 C   0  0  0  0  0  0  0  0  0  0  0  0
  -32.3569  -23.7094   21.5576 C   0  0  0  0  0  0  0  0  0  0  0  0
  -22.1020   -6.0819   22.5066 C   0  0  0  0  0  0  0  0  0  0  0  0
  -23.2468   -4.0939   24.0940 C   0  0  0  0  0  0  0  0  0  0  0  0
  -21.4843   -5.6979   23.6968 C   0  0  0  0  0  0  0  0  0  0  0  0
  -24.5567  -11.6689   20.7349 C   0  0  0  0  0  0  0  0  0  0  0  0
  -25.2263  -13.7471   20.4743 C   0  0  0  0  0  0  0  0  0  0  0  0
  -22.8194  -13.5275   21.1123 C   0  0  0  0  0  0  0  0  0  0  0  0
  -31.9386  -21.2069   26.3562 C   0  0  0  0  0  0  0  0  0  0  0  0
  -29.7149  -23.4139   27.1970 C   0  0  0  0  0  0  0  0  0  0  0  0
  -27.8816  -26.1572   26.3251 C   0  0  0  0  0  0  0  0  0  0  0  0
  -30.5888  -14.7637   21.2709 C   0  0  0  0  0  0  0  0  0  0  0  0
  -33.1466  -17.7558   29.9183 C   0  0  0  0  0  0  0  0  0  0  0  0
  -33.1206  -23.3575   25.7788 C   0  0  0  0  0  0  0  0  0  0  0  0
  -30.3462  -23.3212   24.7560 C   0  0  0  0  0  0  0  0  0  0  0  0
  -31.8881  -18.5260   29.5267 C   0  0  0  0  0  0  0  0  0  0  0  0
  -29.6946  -12.3714   18.5959 C   0  0  0  0  0  0  0  0  0  0  0  0
  -31.6488  -18.4286   28.0233 C   0  0  0  0  0  0  0  0  0  0  0  0
  -28.2514  -12.0454   18.9671 C   0  0  0  0  0  0  0  0  0  0  0  0
  -34.7046  -16.8770   21.4336 C   0  0  0  0  0  0  0  0  0  0  0  0
  -30.5581  -12.6439   19.8269 C   0  0  0  0  0  0  0  0  0  0  0  0
  -28.5525  -13.3714   21.0931 C   0  0  0  0  0  0  0  0  0  0  0  0
  -33.5760  -16.7723   20.3781 C   0  0  1  0  0  0  0  0  0  0  0  0
  -32.8104  -19.0500   27.2384 C   0  0  1  0  0  0  0  0  0  0  0  0
  -31.9869  -22.6954   26.5557 C   0  0  1  0  0  0  0  0  0  0  0  0
  -34.1074  -15.6052   22.0825 C   0  0  2  0  0  0  0  0  0  0  0  0
  -27.6619  -13.1455   19.8622 C   0  0  2  0  0  0  0  0  0  0  0  0
  -32.7485  -16.0320   21.4640 C   0  0  2  0  0  0  0  0  0  0  0  0
  -33.3732  -17.2516   17.4836 C   0  0  0  0  0  0  0  0  0  0  0  0
  -32.6357  -18.9070   22.1713 C   0  0  0  0  0  0  0  0  0  0  0  0
  -26.1202  -27.7113   27.2081 C   0  0  0  0  0  0  0  0  0  0  0  0
  -33.5151  -14.2413   24.1056 C   0  0  0  0  0  0  0  0  0  0  0  0
  -35.6148  -15.6179   24.0902 C   0  0  0  0  0  0  0  0  0  0  0  0
  -27.5933  -21.2715   26.7287 C   0  0  0  0  0  0  0  0  0  0  0  0
  -25.8691  -23.0863   26.6900 C   0  0  0  0  0  0  0  0  0  0  0  0
  -27.2143  -22.6901   28.7531 C   0  0  0  0  0  0  0  0  0  0  0  0
  -29.6726  -28.5024   26.0987 C   0  0  0  0  0  0  0  0  0  0  0  0
  -31.3885  -21.7765   18.2675 C   0  0  0  0  0  0  0  0  0  0  0  0
  -32.4410  -22.8656   18.0485 C   0  0  0  0  0  0  0  0  0  0  0  0
  -33.1155  -23.3213   19.3372 C   0  0  0  0  0  0  0  0  0  1  0  0
  -28.3161  -23.7501   26.7395 C   0  0  1  0  0  0  0  0  0  0  0  0
  -27.6123  -27.4617   27.0532 C   0  0  2  0  0  0  0  0  0  0  0  0
  -34.1688  -15.5283   23.5949 C   0  0  0  0  0  0  0  0  0  0  0  0
  -27.2703  -22.7001   27.2099 C   0  0  0  0  0  0  0  0  0  0  0  0
  -25.8461  -11.5658   20.4021 N   0  0  0  0  0  0  0  0  0  0  0  0
  -26.2253  -12.8461   20.2500 N   0  0  0  0  0  0  0  0  0  0  0  0
  -30.6693  -23.2184   26.1887 N   0  0  0  0  0  0  0  0  0  0  0  0
  -29.9437  -13.6456   20.7127 N   0  0  0  0  0  0  0  0  0  0  0  0
  -25.4355  -15.0763   20.3650 N   0  0  0  0  0  0  0  0  0  0  0  0
  -21.7916  -12.6249   21.4182 N   0  0  0  0  0  0  0  0  0  0  0  0
  -32.7136  -20.4939   27.2508 N   0  0  0  0  0  0  0  0  0  0  0  0
  -28.0502  -25.1076   27.2033 N   0  0  0  0  0  0  0  0  0  0  0  0
  -31.9341  -14.9126   20.9482 N   0  0  0  0  0  0  0  0  0  0  0  0
  -28.2048  -28.6053   26.3033 N   0  3  0  0  0  0  0  0  0  0  0  0
  -22.5750  -14.7578   21.1083 O   0  0  0  0  0  0  0  0  0  0  0  0
  -31.2480  -20.7398   25.4581 O   0  0  0  0  0  0  0  0  0  0  0  0
  -29.9536  -23.3348   28.4046 O   0  0  0  0  0  0  0  0  0  0  0  0
  -27.9332  -26.0766   25.0998 O   0  0  0  0  0  0  0  0  0  0  0  0
  -30.0153  -15.5710   22.0101 O   0  0  0  0  0  0  0  0  0  0  0  0
  -21.5346   -7.0680   21.7171 O   0  0  0  0  0  0  0  0  0  0  0  0
  -32.1171  -23.8260   20.2231 O   0  0  0  0  0  0  0  0  0  1  0  0
  -23.7958   -3.1383   24.8553 F   0  0  0  0  0  0  0  0  0  0  0  0
  -20.3402   -6.2795   24.0824 F   0  0  0  0  0  0  0  0  0  0  0  0
  1  2  1  0  0  0  0
  1  5  2  0  0  0  0
  2  6  2  0  0  0  0
  3  8  2  0  0  0  0
  3 17  1  0  0  0  0
  4  9  1  0  0  0  0
  4 17  2  0  0  0  0
  5 19  1  0  0  0  0
  6 21  1  0  0  0  0
  7 10  2  0  0  0  0
  7 20  1  0  0  0  0
  8 27  1  0  0  0  0
  9 27  2  0  0  0  0
 10 28  1  0  0  0  0
 11 12  2  0  0  0  0
 11 29  1  0  0  0  0
 12 30  1  0  0  0  0
 13 22  1  0  0  0  0
 13 28  2  0  0  0  0
 14 24  1  0  0  0  0
 14 25  2  0  0  0  0
 15 24  2  0  0  0  0
 15 26  1  0  0  0  0
 16 30  2  0  0  0  0
 16 31  1  0  0  0  0
 17 32  1  0  0  0  0
 18 32  1  0  0  0  0
 18 33  2  0  0  0  0
 18 34  1  0  0  0  0
 19 21  2  0  0  0  0
 19 39  1  0  0  0  0
 20 22  2  0  0  0  0
 20 40  1  0  0  0  0
 21 50  1  0  0  0  0
 22 41  1  0  0  0  0
 23 25  1  0  0  0  0
 23 26  2  0  0  0  0
 23 49  1  0  0  0  0
 24 64  1  0  0  0  0
 25 55  1  0  0  0  0
 26 56  1  0  0  0  0
 27 86  1  0  0  0  0
 28 87  1  0  0  0  0
 29 31  2  0  0  0  0
 29 86  1  0  0  0  0
 30 88  1  0  0  0  0
 31 89  1  0  0  0  0
 32 71  2  0  0  0  0
 33 72  1  0  0  0  0
 33 75  1  0  0  0  0
 34 76  1  0  0  0  0
 34 81  2  0  0  0  0
 35 51  1  0  0  0  0
 35 77  1  0  0  0  0
 35 82  2  0  0  0  0
 36 67  1  0  0  0  0
 36 73  1  0  0  0  0
 36 83  2  0  0  0  0
 37 68  1  0  0  0  0
 37 78  1  0  0  0  0
 37 84  2  0  0  0  0
 38 74  1  0  0  0  0
 38 79  1  0  0  0  0
 38 85  2  0  0  0  0
 39 42  1  0  0  0  0
 40 51  1  0  0  0  0
 41 73  1  0  0  0  0
 42 44  1  0  0  0  0
 43 45  1  0  0  0  0
 43 47  1  0  0  0  0
 44 50  1  0  0  0  0
 45 53  1  0  0  0  0
 46 49  1  0  0  0  0
 46 52  1  0  0  0  0
 47 74  1  0  0  0  0
 48 53  1  0  0  0  0
 48 74  1  0  0  0  0
 49 54  1  0  0  0  0
 50 77  1  0  0  0  0
 51 73  1  0  0  0  0
 52 54  1  0  0  0  0
 52 69  1  0  0  0  0
 53 72  1  0  0  0  0
 54 79  1  0  0  0  0
 57 68  1  0  0  0  0
 58 69  1  0  0  0  0
 59 69  1  0  0  0  0
 60 70  1  0  0  0  0
 61 70  1  0  0  0  0
 62 70  1  0  0  0  0
 63 80  1  0  0  0  0
 64 65  1  0  0  0  0
 65 66  1  0  0  0  0
 66 87  1  0  0  0  0
 67 70  1  0  0  0  0
 67 78  1  0  0  0  0
 68 80  1  0  0  0  0
 71 72  1  0  0  0  0
M  CHG  1  80   1
M  ISO  4  38 100  66 101  79 100  87 101
M  END
> <Batch ID>
0148

> <Smiles>
CNC(C)C(=O)NC(C(=O)N1Cc2cc([101O:1][101CH2:1]CCc3cc(C)c(C4CC(C(C)C)C4[100NH:0][100C:0](=O)N4CCCC(n5nc(-c6ccc(Oc7ccc(F)cc7F)cc6)c(C(N)=O)c5N)C4)c(C)c3)ccc2CC1C(=O)NC1CCCc2ccccc21)C(C)(C)C

> <Shape>
0.162

> <Color>
0.176

> <Negative vol penalty>
0.000

$$$$

  -OEChem-04052321363D

 87 96  0     1  0  0  0  0  0999 V2000
  -17.6393  -26.1548   21.5175 C   0  0  0  0  0  0  0  0  0  0  0  0
  -17.8376  -27.4862   21.1697 C   0  0  0  0  0  0  0  0  0  0  0  0
  -24.9555  -10.5957   23.2407 C   0  0  0  0  0  0  0  0  0  0  0  0
  -24.1000   -9.5799   21.2224 C   0  0  0  0  0  0  0  0  0  0  0  0
  -18.4545  -25.5606   22.4786 C   0  0  0  0  0  0  0  0  0  0  0  0
  -18.8586  -28.2204   21.7740 C   0  0  0  0  0  0  0  0  0  0  0  0
  -26.4992  -29.1088   21.4758 C   0  0  0  0  0  0  0  0  0  0  0  0
  -23.9900   -9.9223   23.9889 C   0  0  0  0  0  0  0  0  0  0  0  0
  -23.1345   -8.9065   21.9707 C   0  0  0  0  0  0  0  0  0  0  0  0
  -27.4790  -28.1597   21.1878 C   0  0  0  0  0  0  0  0  0  0  0  0
  -22.9790   -6.1699   23.9474 C   0  0  0  0  0  0  0  0  0  0  0  0
  -22.7722   -4.8187   23.6698 C   0  0  0  0  0  0  0  0  0  0  0  0
  -26.1165  -27.3076   19.3888 C   0  0  0  0  0  0  0  0  0  0  0  0
  -31.4898  -25.6660   19.4732 C   0  0  0  0  0  0  0  0  0  0  0  0
  -32.1547  -23.3511   19.2834 C   0  0  0  0  0  0  0  0  0  0  0  0
  -20.4678   -5.2857   23.1141 C   0  0  0  0  0  0  0  0  0  0  0  0
  -25.0105  -10.4245   21.8574 C   0  0  0  0  0  0  0  0  0  0  0  0
  -27.3015  -10.6691   20.7622 C   0  0  0  0  0  0  0  0  0  0  0  0
  -19.4778  -26.2923   23.1036 C   0  0  0  0  0  0  0  0  0  0  0  0
  -25.3138  -29.1574   20.7281 C   0  0  0  0  0  0  0  0  0  0  0  0
  -19.7073  -27.6318   22.7289 C   0  0  0  0  0  0  0  0  0  0  0  0
  -25.1242  -28.2599   19.6676 C   0  0  0  0  0  0  0  0  0  0  0  0
  -32.3872  -24.7004   19.0172 C   0  0  0  0  0  0  0  0  0  0  0  0
  -30.3599  -25.2822   20.1957 C   0  0  0  0  0  0  0  0  0  0  0  0
  -30.1275  -23.9329   20.4620 C   0  0  0  0  0  0  0  0  0  0  0  0
  -31.0249  -22.9673   20.0058 C   0  0  0  0  0  0  0  0  0  0  0  0
  -23.0795   -9.0777   23.3539 C   0  0  0  0  0  0  0  0  0  0  0  0
  -27.2865  -27.2571   20.1461 C   0  0  0  0  0  0  0  0  0  0  0  0
  -21.9302   -7.0790   23.8085 C   0  0  0  0  0  0  0  0  0  0  0  0
  -21.5166   -4.3766   23.2531 C   0  0  0  0  0  0  0  0  0  0  0  0
  -20.6746   -6.6369   23.3918 C   0  0  0  0  0  0  0  0  0  0  0  0
  -26.0073  -11.1203   21.0839 C   0  0  0  0  0  0  0  0  0  0  0  0
  -27.8451  -11.6875   20.0181 C   0  0  0  0  0  0  0  0  0  0  0  0
  -27.9538   -9.4392   21.1052 C   0  0  0  0  0  0  0  0  0  0  0  0
  -22.2275  -28.7817   21.3896 C   0  0  0  0  0  0  0  0  0  0  0  0
  -21.8539  -29.6960   18.2998 C   0  0  0  0  0  0  0  0  0  0  0  0
  -23.1965  -29.9574   15.1732 C   0  0  0  0  0  0  0  0  0  0  0  0
  -28.8910  -16.8602   19.0407 C   0  0  0  0  0  0  0  0  0  0  0  0
  -20.3356  -25.5974   24.1315 C   0  0  0  0  0  0  0  0  0  0  0  0
  -24.2783  -30.2044   21.0343 C   0  0  0  0  0  0  0  0  0  0  0  0
  -23.8782  -28.2835   18.8218 C   0  0  0  0  0  0  0  0  0  0  0  0
  -21.0929  -26.5701   25.0296 C   0  0  0  0  0  0  0  0  0  0  0  0
  -25.7176  -15.7926   17.9830 C   0  0  0  0  0  0  0  0  0  0  0  0
  -21.8029  -27.6150   24.1818 C   0  0  0  0  0  0  0  0  0  0  0  0
  -25.6088  -14.4335   18.6740 C   0  0  0  0  0  0  0  0  0  0  0  0
  -28.8148  -20.2289   20.0577 C   0  0  0  0  0  0  0  0  0  0  0  0
  -30.9350  -19.6491   18.8181 C   0  0  0  0  0  0  0  0  0  0  0  0
  -26.3613  -16.8454   18.8872 C   0  0  0  0  0  0  0  0  0  0  0  0
  -28.0466  -19.2471   19.1681 C   0  0  0  0  0  0  0  0  0  0  0  0
  -30.1227  -18.7035   17.9377 C   0  0  0  0  0  0  0  0  0  0  0  0
  -27.5622  -15.0792   20.1350 C   0  0  0  0  0  0  0  0  0  0  0  0
  -20.7920  -28.4588   23.3951 C   0  0  1  0  0  0  0  0  0  0  0  0
  -22.8852  -29.8302   20.5377 C   0  0  1  0  0  0  0  0  0  0  0  0
  -26.9723  -13.9861   19.2304 C   0  0  1  0  0  0  0  0  0  0  0  0
  -30.0519  -20.7824   19.3467 C   0  0  0  0  0  0  0  0  0  0  0  0
  -33.5961  -25.1112   18.2466 C   0  0  0  0  0  0  0  0  0  0  0  0
  -28.9146  -23.5256   21.2381 C   0  0  0  0  0  0  0  0  0  0  0  0
  -22.6368  -30.7102   12.8457 C   0  0  0  0  0  0  0  0  0  0  0  0
  -20.1983  -27.1671   17.8826 C   0  0  0  0  0  0  0  0  0  0  0  0
  -20.4763  -27.4762   15.4137 C   0  0  0  0  0  0  0  0  0  0  0  0
  -19.2873  -29.2076   16.7596 C   0  0  0  0  0  0  0  0  0  0  0  0
  -31.3605  -20.9880   21.4653 C   0  0  0  0  0  0  0  0  0  0  0  0
  -25.3395  -31.9985   15.1934 C   0  0  0  0  0  0  0  0  0  0  0  0
  -29.4150  -26.3361   20.6728 C   0  0  0  0  0  0  0  0  0  1  0  0
  -21.7962  -28.9794   16.9724 C   0  0  1  0  0  0  0  0  0  0  0  0
  -23.2337  -31.1101   14.1861 C   0  0  2  0  0  0  0  0  0  0  0  0
  -20.4623  -28.2056   16.7741 C   0  0  0  0  0  0  0  0  0  0  0  0
  -25.7447  -12.3312   20.5851 N   0  0  0  0  0  0  0  0  0  0  0  0
  -26.8813  -12.6496   19.9426 N   0  0  0  0  0  0  0  0  0  0  0  0
  -22.8923  -29.3218   19.1645 N   0  0  0  0  0  0  0  0  0  0  0  0
  -27.6389  -16.3579   19.4255 N   0  0  0  0  0  0  0  0  0  0  0  0
  -28.9434  -18.2056   18.6468 N   0  0  0  0  0  0  0  0  0  0  0  0
  -29.0489  -11.8451   19.4277 N   0  0  0  0  0  0  0  0  0  0  0  0
  -27.2512   -8.5025   21.8754 N   0  0  0  0  0  0  0  0  0  0  0  0
  -21.5050  -29.2914   22.4515 N   0  0  0  0  0  0  0  0  0  0  0  0
  -22.0591  -29.9884   15.9520 N   0  0  0  0  0  0  0  0  0  0  0  0
  -30.8084  -21.6082   20.2620 N   0  0  3  0  0  0  0  0  0  0  0  0
  -24.6383  -31.5545   13.9613 N   0  3  0  0  0  0  0  0  0  0  0  0
  -29.1308   -9.1857   20.7534 O   0  0  0  0  0  0  0  0  0  0  0  0
  -22.3643  -27.5979   21.1038 O   0  0  0  0  0  0  0  0  0  0  0  0
  -21.0130  -30.5610   18.5571 O   0  0  0  0  0  0  0  0  0  0  0  0
  -24.0856  -29.1118   15.2436 O   0  0  0  0  0  0  0  0  0  0  0  0
  -29.9032  -16.1484   19.0487 O   0  0  0  0  0  0  0  0  0  0  0  0
  -22.1373   -8.4203   24.0838 O   0  0  0  0  0  0  0  0  0  0  0  0
  -28.2479  -26.3227   19.8613 O   0  0  0  0  0  0  0  0  0  1  0  0
  -21.3185   -3.0793   22.9850 F   0  0  0  0  0  0  0  0  0  0  0  0
  -19.6635   -7.5057   23.2553 F   0  0  0  0  0  0  0  0  0  0  0  0
  1  2  1  0  0  0  0
  1  5  2  0  0  0  0
  2  6  2  0  0  0  0
  3  8  2  0  0  0  0
  3 17  1  0  0  0  0
  4  9  1  0  0  0  0
  4 17  2  0  0  0  0
  5 19  1  0  0  0  0
  6 21  1  0  0  0  0
  7 10  2  0  0  0  0
  7 20  1  0  0  0  0
  8 27  1  0  0  0  0
  9 27  2  0  0  0  0
 10 28  1  0  0  0  0
 11 12  2  0  0  0  0
 11 29  1  0  0  0  0
 12 30  1  0  0  0  0
 13 22  1  0  0  0  0
 13 28  2  0  0  0  0
 14 23  2  0  0  0  0
 14 24  1  0  0  0  0
 15 23  1  0  0  0  0
 15 26  2  0  0  0  0
 16 30  2  0  0  0  0
 16 31  1  0  0  0  0
 17 32  1  0  0  0  0
 18 32  1  0  0  0  0
 18 33  2  0  0  0  0
 18 34  1  0  0  0  0
 19 21  2  0  0  0  0
 19 39  1  0  0  0  0
 20 22  2  0  0  0  0
 20 40  1  0  0  0  0
 21 52  1  0  0  0  0
 22 41  1  0  0  0  0
 23 56  1  0  0  0  0
 24 25  2  0  0  0  0
 24 64  1  0  0  0  0
 25 26  1  0  0  0  0
 25 57  1  0  0  0  0
 26 77  1  0  0  0  0
 27 84  1  0  0  0  0
 28 85  1  0  0  0  0
 29 31  2  0  0  0  0
 29 84  1  0  0  0  0
 30 86  1  0  0  0  0
 31 87  1  0  0  0  0
 32 68  2  0  0  0  0
 33 69  1  0  0  0  0
 33 73  1  0  0  0  0
 34 74  1  0  0  0  0
 34 79  2  0  0  0  0
 35 53  1  0  0  0  0
 35 75  1  0  0  0  0
 35 80  2  0  0  0  0
 36 65  1  0  0  0  0
 36 70  1  0  0  0  0
 36 81  2  0  0  0  0
 37 66  1  0  0  0  0
 37 76  1  0  0  0  0
 37 82  2  0  0  0  0
 38 71  1  0  0  0  0
 38 72  1  0  0  0  0
 38 83  2  0  0  0  0
 39 42  1  0  0  0  0
 40 53  1  0  0  0  0
 41 70  1  0  0  0  0
 42 44  1  0  0  0  0
 43 45  1  0  0  0  0
 43 48  1  0  0  0  0
 44 52  1  0  0  0  0
 45 54  1  0  0  0  0
 46 49  1  0  0  0  0
 46 55  1  0  0  0  0
 47 50  1  0  0  0  0
 47 55  1  0  0  0  0
 48 71  1  0  0  0  0
 49 72  1  0  0  0  0
 50 72  1  0  0  0  0
 51 54  1  0  0  0  0
 51 71  1  0  0  0  0
 52 75  1  0  0  0  0
 53 70  1  0  0  0  0
 54 69  1  0  0  0  0
 55 77  1  0  0  0  0
 58 66  1  0  0  0  0
 59 67  1  0  0  0  0
 60 67  1  0  0  0  0
 61 67  1  0  0  0  0
 62 77  1  0  0  0  0
 63 78  1  0  0  0  0
 64 85  1  0  0  0  0
 65 67  1  0  0  0  0
 65 76  1  0  0  0  0
 66 78  1  0  0  0  0
 68 69  1  0  0  0  0
M  CHG  1  78   1
M  ISO  4  38 100  64 101  72 100  85 101
M  END
> <Batch ID>
0148

> <Smiles>
CNC(C)C(=O)NC(C(=O)N1Cc2cc([101O:1][101CH2:1]c3cc(C)cc(N(C)C4CC[100N:0]([100C:0](=O)N5CCCC(n6nc(-c7ccc(Oc8ccc(F)cc8F)cc7)c(C(N)=O)c6N)C5)CC4)c3C)ccc2CC1C(=O)NC1CCCc2ccccc21)C(C)(C)C

> <Shape>
0.284

> <Color>
0.092

> <Negative vol penalty>
0.000

$$$$

  -OEChem-04052321363D

 86 95  0     1  0  0  0  0  0999 V2000
  -24.0896  -32.8430   24.6208 C   0  0  0  0  0  0  0  0  0  0  0  0
  -24.3208  -31.4723   24.6757 C   0  0  0  0  0  0  0  0  0  0  0  0
  -23.0859   -9.9019   19.9187 C   0  0  0  0  0  0  0  0  0  0  0  0
  -23.8678   -9.8668   22.2044 C   0  0  0  0  0  0  0  0  0  0  0  0
  -23.5499  -33.4121   23.4680 C   0  0  0  0  0  0  0  0  0  0  0  0
  -24.0113  -30.6696   23.5783 C   0  0  0  0  0  0  0  0  0  0  0  0
  -27.6733  -27.3375   22.5144 C   0  0  0  0  0  0  0  0  0  0  0  0
  -22.3552   -8.7366   20.1508 C   0  0  0  0  0  0  0  0  0  0  0  0
  -23.1370   -8.7016   22.4365 C   0  0  0  0  0  0  0  0  0  0  0  0
  -27.7510  -26.1993   23.3158 C   0  0  0  0  0  0  0  0  0  0  0  0
  -19.9223   -7.8606   23.0521 C   0  0  0  0  0  0  0  0  0  0  0  0
  -19.1771   -7.7884   24.2290 C   0  0  0  0  0  0  0  0  0  0  0  0
  -29.4781  -17.9269   22.4593 C   0  0  0  0  0  0  0  0  0  0  0  0
  -26.6096  -24.9290   21.6120 C   0  0  0  0  0  0  0  0  0  0  0  0
  -31.0893  -17.7911   20.6688 C   0  0  0  0  0  0  0  0  0  0  0  0
  -20.4433   -5.8474   24.9118 C   0  0  0  0  0  0  0  0  0  0  0  0
  -23.8423  -10.4669   20.9455 C   0  0  0  0  0  0  0  0  0  0  0  0
  -24.1596  -12.9972   20.8767 C   0  0  0  0  0  0  0  0  0  0  0  0
  -23.2427  -32.6174   22.3524 C   0  0  0  0  0  0  0  0  0  0  0  0
  -27.0525  -27.2824   21.2582 C   0  0  0  0  0  0  0  0  0  0  0  0
  -23.4657  -31.2284   22.4100 C   0  0  0  0  0  0  0  0  0  0  0  0
  -29.6121  -19.3250   22.5061 C   0  0  0  0  0  0  0  0  0  0  0  0
  -26.5276  -26.0673   20.7955 C   0  0  0  0  0  0  0  0  0  0  0  0
  -30.5342  -19.9442   21.6448 C   0  0  0  0  0  0  0  0  0  0  0  0
  -30.2086  -17.1665   21.5455 C   0  0  0  0  0  0  0  0  0  0  0  0
  -22.3807   -8.1365   21.4097 C   0  0  0  0  0  0  0  0  0  0  0  0
  -27.2165  -24.9955   22.8659 C   0  0  0  0  0  0  0  0  0  0  0  0
  -20.9280   -6.9261   22.8050 C   0  0  0  0  0  0  0  0  0  0  0  0
  -31.2517  -19.1740   20.7172 C   0  0  0  0  0  0  0  0  0  0  0  0
  -19.4376   -6.7818   25.1588 C   0  0  0  0  0  0  0  0  0  0  0  0
  -21.1886   -5.9196   23.7349 C   0  0  0  0  0  0  0  0  0  0  0  0
  -24.5978  -11.6703   20.7063 C   0  0  0  0  0  0  0  0  0  0  0  0
  -25.2412  -13.7646   20.5194 C   0  0  0  0  0  0  0  0  0  0  0  0
  -22.8885  -13.4919   21.3186 C   0  0  0  0  0  0  0  0  0  0  0  0
  -24.5273  -28.6932   19.9404 C   0  0  0  0  0  0  0  0  0  0  0  0
  -25.5683  -27.1828   17.2651 C   0  0  0  0  0  0  0  0  0  0  0  0
  -27.3449  -24.6109   15.8956 C   0  0  0  0  0  0  0  0  0  0  0  0
  -30.6990  -14.8577   20.6650 C   0  0  0  0  0  0  0  0  0  0  0  0
  -22.6168  -33.2709   21.1458 C   0  0  0  0  0  0  0  0  0  0  0  0
  -27.0005  -28.5128   20.3945 C   0  0  0  0  0  0  0  0  0  0  0  0
  -30.7402  -21.4323   21.6907 C   0  0  0  0  0  0  0  0  0  0  0  0
  -25.8689  -25.9506   19.4461 C   0  0  0  0  0  0  0  0  0  0  0  0
  -22.6657  -32.4045   19.8899 C   0  0  0  0  0  0  0  0  0  0  0  0
  -29.5841  -12.4849   18.2559 C   0  0  0  0  0  0  0  0  0  0  0  0
  -22.2276  -30.9784   20.2077 C   0  0  0  0  0  0  0  0  0  0  0  0
  -28.1514  -12.1706   18.6927 C   0  0  0  0  0  0  0  0  0  0  0  0
  -30.5086  -12.6965   19.4535 C   0  0  0  0  0  0  0  0  0  0  0  0
  -28.6084  -13.3731   20.8680 C   0  0  0  0  0  0  0  0  0  0  0  0
  -30.4910  -21.9761   23.0872 C   0  0  0  0  0  0  0  0  0  0  0  0
  -23.1663  -30.3281   21.2311 C   0  0  1  0  0  0  0  0  0  0  0  0
  -28.7940  -20.1333   23.5015 C   0  0  2  0  0  0  0  0  0  0  0  0
  -25.8897  -28.4631   19.3501 C   0  0  1  0  0  0  0  0  0  0  0  0
  -27.6260  -13.2160   19.6960 C   0  0  2  0  0  0  0  0  0  0  0  0
  -27.2904  -19.9434   23.2539 C   0  0  0  0  0  0  0  0  0  0  0  0
  -27.9822  -23.6161   13.6817 C   0  0  0  0  0  0  0  0  0  0  0  0
  -22.7658  -26.0082   16.9889 C   0  0  0  0  0  0  0  0  0  0  0  0
  -23.7019  -24.3333   15.3805 C   0  0  0  0  0  0  0  0  0  0  0  0
  -23.7955  -26.7667   14.8397 C   0  0  0  0  0  0  0  0  0  0  0  0
  -30.2297  -25.0298   16.4068 C   0  0  0  0  0  0  0  0  0  0  0  0
  -31.5986  -20.1723   18.5867 C   0  0  0  0  0  0  0  0  0  0  0  0
  -28.7235  -22.3223   24.7910 C   0  0  0  0  0  0  0  0  0  0  0  0
  -28.4049  -23.7813   24.5301 C   0  0  0  0  0  0  0  0  0  1  0  0
  -25.3170  -25.8358   16.6315 C   0  0  1  0  0  0  0  0  0  0  0  0
  -28.3819  -24.5807   14.7874 C   0  0  2  0  0  0  0  0  0  0  0  0
  -23.9057  -25.7383   15.9865 C   0  0  0  0  0  0  0  0  0  0  0  0
  -25.8594  -11.5954   20.2741 N   0  0  0  0  0  0  0  0  0  0  0  0
  -26.2232  -12.8849   20.1699 N   0  0  0  0  0  0  0  0  0  0  0  0
  -25.8372  -27.1829   18.6412 N   0  0  0  0  0  0  0  0  0  0  0  0
  -29.9486  -13.7029   20.3582 N   0  0  0  0  0  0  0  0  0  0  0  0
  -25.4386  -15.0992   20.4731 N   0  0  0  0  0  0  0  0  0  0  0  0
  -21.8883  -12.5662   21.6458 N   0  0  0  0  0  0  0  0  0  0  0  0
  -30.0510  -15.7588   21.5093 N   0  0  0  0  0  0  0  0  0  0  0  0
  -24.3940  -29.9040   20.5928 N   0  0  0  0  0  0  0  0  0  0  0  0
  -26.4168  -25.6115   15.6995 N   0  0  0  0  0  0  0  0  0  0  0  0
  -29.0726  -21.6477   23.4868 N   0  3  1  0  0  0  0  0  0  0  0  0
  -29.7044  -24.1553   15.3269 N   0  3  0  0  0  0  0  0  0  0  0  0
  -22.6414  -14.7187   21.4047 O   0  0  0  0  0  0  0  0  0  0  0  0
  -23.6606  -27.8364   19.8121 O   0  0  0  0  0  0  0  0  0  0  0  0
  -25.5345  -28.1969   16.5635 O   0  0  0  0  0  0  0  0  0  0  0  0
  -27.3549  -23.8229   16.8388 O   0  0  0  0  0  0  0  0  0  0  0  0
  -31.8219  -15.0471   20.1905 O   0  0  0  0  0  0  0  0  0  0  0  0
  -21.6675   -6.9996   21.6365 O   0  0  0  0  0  0  0  0  0  0  0  0
  -32.1243  -19.7553   19.8441 O   0  0  0  0  0  0  0  0  0  0  0  0
  -27.2910  -23.8753   23.6521 O   0  0  0  0  0  0  0  0  0  1  0  0
  -18.7229   -6.7136   26.2896 F   0  0  0  0  0  0  0  0  0  0  0  0
  -22.1543   -5.0197   23.5036 F   0  0  0  0  0  0  0  0  0  0  0  0
  1  2  1  0  0  0  0
  1  5  2  0  0  0  0
  2  6  2  0  0  0  0
  3  8  2  0  0  0  0
  3 17  1  0  0  0  0
  4  9  1  0  0  0  0
  4 17  2  0  0  0  0
  5 19  1  0  0  0  0
  6 21  1  0  0  0  0
  7 10  2  0  0  0  0
  7 20  1  0  0  0  0
  8 26  1  0  0  0  0
  9 26  2  0  0  0  0
 10 27  1  0  0  0  0
 11 12  2  0  0  0  0
 11 28  1  0  0  0  0
 12 30  1  0  0  0  0
 13 22  1  0  0  0  0
 13 25  2  0  0  0  0
 14 23  1  0  0  0  0
 14 27  2  0  0  0  0
 15 25  1  0  0  0  0
 15 29  2  0  0  0  0
 16 30  2  0  0  0  0
 16 31  1  0  0  0  0
 17 32  1  0  0  0  0
 18 32  1  0  0  0  0
 18 33  2  0  0  0  0
 18 34  1  0  0  0  0
 19 21  2  0  0  0  0
 19 39  1  0  0  0  0
 20 23  2  0  0  0  0
 20 40  1  0  0  0  0
 21 50  1  0  0  0  0
 22 24  2  0  0  0  0
 22 51  1  0  0  0  0
 23 42  1  0  0  0  0
 24 29  1  0  0  0  0
 24 41  1  0  0  0  0
 25 72  1  0  0  0  0
 26 82  1  0  0  0  0
 27 84  1  0  0  0  0
 28 31  2  0  0  0  0
 28 82  1  0  0  0  0
 29 83  1  0  0  0  0
 30 85  1  0  0  0  0
 31 86  1  0  0  0  0
 32 66  2  0  0  0  0
 33 67  1  0  0  0  0
 33 70  1  0  0  0  0
 34 71  1  0  0  0  0
 34 77  2  0  0  0  0
 35 52  1  0  0  0  0
 35 73  1  0  0  0  0
 35 78  2  0  0  0  0
 36 63  1  0  0  0  0
 36 68  1  0  0  0  0
 36 79  2  0  0  0  0
 37 64  1  0  0  0  0
 37 74  1  0  0  0  0
 37 80  2  0  0  0  0
 38 69  1  0  0  0  0
 38 72  1  0  0  0  0
 38 81  2  0  0  0  0
 39 43  1  0  0  0  0
 40 52  1  0  0  0  0
 41 49  1  0  0  0  0
 42 68  1  0  0  0  0
 43 45  1  0  0  0  0
 44 46  1  0  0  0  0
 44 47  1  0  0  0  0
 45 50  1  0  0  0  0
 46 53  1  0  0  0  0
 47 69  1  0  0  0  0
 48 53  1  0  0  0  0
 48 69  1  0  0  0  0
 49 75  1  0  0  0  0
 50 73  1  0  0  0  0
 51 54  1  0  0  0  0
 51 75  1  0  0  0  0
 52 68  1  0  0  0  0
 53 67  1  0  0  0  0
 55 64  1  0  0  0  0
 56 65  1  0  0  0  0
 57 65  1  0  0  0  0
 58 65  1  0  0  0  0
 59 76  1  0  0  0  0
 60 83  1  0  0  0  0
 61 62  1  0  0  0  0
 61 75  1  0  0  0  0
 62 84  1  0  0  0  0
 63 65  1  0  0  0  0
 63 74  1  0  0  0  0
 64 76  1  0  0  0  0
 66 67  1  0  0  0  0
M  CHG  2  75   1  76   1
M  ISO  4  38 100  62 101  72 100  84 101
M  END
> <Batch ID>
0148

> <Smiles>
CNC(C)C(=O)NC(C(=O)N1Cc2cc([101O:1][101CH2:1]CN3CCc4c(OC)cc([100NH:0][100C:0](=O)N5CCCC(n6nc(-c7ccc(Oc8ccc(F)cc8F)cc7)c(C(N)=O)c6N)C5)cc4C3C)ccc2CC1C(=O)NC1CCCc2ccccc21)C(C)(C)C

> <Shape>
0.278

> <Color>
0.191

> <Negative vol penalty>
0.000

$$$$

  -OEChem-04052321363D

 88 96  0     1  0  0  0  0  0999 V2000
  -28.9741  -21.9638   14.8414 C   0  0  0  0  0  0  0  0  0  0  0  0
  -27.9385  -22.6485   15.4692 C   0  0  0  0  0  0  0  0  0  0  0  0
  -26.9354  -18.9197   21.2007 C   0  0  0  0  0  0  0  0  0  0  0  0
  -27.4349  -20.0471   19.1231 C   0  0  0  0  0  0  0  0  0  0  0  0
  -30.2572  -21.9908   15.3862 C   0  0  0  0  0  0  0  0  0  0  0  0
  -28.1852  -23.3597   16.6430 C   0  0  0  0  0  0  0  0  0  0  0  0
  -25.5497  -28.6033   18.3934 C   0  0  0  0  0  0  0  0  0  0  0  0
  -18.5478  -28.0097   23.7080 C   0  0  0  0  0  0  0  0  0  0  0  0
  -28.1500  -18.2383   21.1231 C   0  0  0  0  0  0  0  0  0  0  0  0
  -28.6496  -19.3658   19.0455 C   0  0  0  0  0  0  0  0  0  0  0  0
  -24.4962  -28.8787   19.2641 C   0  0  0  0  0  0  0  0  0  0  0  0
  -19.9370  -28.1214   23.7624 C   0  0  0  0  0  0  0  0  0  0  0  0
  -29.4113  -15.5778   19.4633 C   0  0  0  0  0  0  0  0  0  0  0  0
  -29.4045  -14.2095   19.7343 C   0  0  0  0  0  0  0  0  0  0  0  0
  -26.0782  -29.2934   21.0374 C   0  0  0  0  0  0  0  0  0  0  0  0
  -20.1164  -26.9018   21.6845 C   0  0  0  0  0  0  0  0  0  0  0  0
  -30.9499  -14.5629   21.5575 C   0  0  0  0  0  0  0  0  0  0  0  0
  -26.5778  -19.8240   20.2007 C   0  0  0  0  0  0  0  0  0  0  0  0
  -25.0827  -21.7704   20.8963 C   0  0  0  0  0  0  0  0  0  0  0  0
  -30.5218  -22.7106   16.5620 C   0  0  0  0  0  0  0  0  0  0  0  0
  -26.8771  -28.6604   18.8417 C   0  0  0  0  0  0  0  0  0  0  0  0
  -29.4728  -23.3952   17.2048 C   0  0  0  0  0  0  0  0  0  0  0  0
  -27.1468  -29.0209   20.1697 C   0  0  0  0  0  0  0  0  0  0  0  0
  -17.9427  -27.3441   22.6419 C   0  0  0  0  0  0  0  0  0  0  0  0
  -18.7271  -26.7902   21.6301 C   0  0  0  0  0  0  0  0  0  0  0  0
  -29.0071  -18.4614   20.0455 C   0  0  0  0  0  0  0  0  0  0  0  0
  -24.7603  -29.2210   20.5871 C   0  0  0  0  0  0  0  0  0  0  0  0
  -20.7214  -27.5675   22.7506 C   0  0  0  0  0  0  0  0  0  0  0  0
  -30.1875  -16.4386   20.2393 C   0  0  0  0  0  0  0  0  0  0  0  0
  -30.1737  -13.7021   20.7814 C   0  0  0  0  0  0  0  0  0  0  0  0
  -30.9567  -15.9312   21.2864 C   0  0  0  0  0  0  0  0  0  0  0  0
  -25.3230  -20.5277   20.2800 C   0  0  0  0  0  0  0  0  0  0  0  0
  -23.7431  -21.9991   20.6973 C   0  0  0  0  0  0  0  0  0  0  0  0
  -25.9894  -22.6403   21.5869 C   0  0  0  0  0  0  0  0  0  0  0  0
  -29.2513  -26.5622   19.0953 C   0  0  0  0  0  0  0  0  0  0  0  0
  -30.9609  -29.1867   19.9386 C   0  0  0  0  0  0  0  0  0  0  0  0
  -30.9684  -32.3556   21.2055 C   0  0  0  0  0  0  0  0  0  0  0  0
  -19.2431  -21.9958   17.3964 C   0  0  0  0  0  0  0  0  0  0  0  0
  -31.9146  -22.6715   17.1392 C   0  0  0  0  0  0  0  0  0  0  0  0
  -28.0033  -28.3867   17.8830 C   0  0  0  0  0  0  0  0  0  0  0  0
  -28.5551  -29.1160   20.6952 C   0  0  0  0  0  0  0  0  0  0  0  0
  -32.1729  -23.7568   18.1810 C   0  0  0  0  0  0  0  0  0  0  0  0
  -20.0966  -18.9327   18.9982 C   0  0  0  0  0  0  0  0  0  0  0  0
  -31.0164  -23.8308   19.1729 C   0  0  0  0  0  0  0  0  0  0  0  0
  -21.5142  -19.1751   19.5195 C   0  0  0  0  0  0  0  0  0  0  0  0
  -19.8673  -19.6119   17.6499 C   0  0  0  0  0  0  0  0  0  0  0  0
  -21.5989  -21.2951   18.1421 C   0  0  0  0  0  0  0  0  0  0  0  0
  -29.7061  -24.1983   18.4661 C   0  0  1  0  0  0  0  0  0  0  0  0
  -29.2952  -27.9734   18.5812 C   0  0  1  0  0  0  0  0  0  0  0  0
  -21.8602  -20.6762   19.5260 C   0  0  2  0  0  0  0  0  0  0  0  0
  -15.7701  -28.6166   22.5245 C   0  0  0  0  0  0  0  0  0  0  0  0
  -15.8940  -26.4497   23.8067 C   0  0  0  0  0  0  0  0  0  0  0  0
  -32.5215  -34.2315   21.8108 C   0  0  0  0  0  0  0  0  0  0  0  0
  -17.0991  -23.7978   19.0040 C   0  0  0  0  0  0  0  0  0  0  0  0
  -31.7961  -27.6796   22.4567 C   0  0  0  0  0  0  0  0  0  0  0  0
  -32.5239  -29.8645   23.4390 C   0  0  0  0  0  0  0  0  0  0  0  0
  -33.6253  -28.9981   21.3752 C   0  0  0  0  0  0  0  0  0  0  0  0
  -29.6947  -34.1911   19.2645 C   0  0  0  0  0  0  0  0  0  0  0  0
  -18.8924  -25.5291   19.4835 C   0  0  0  0  0  0  0  0  0  0  0  0
  -18.7649  -24.4233   17.2020 C   0  0  0  0  0  0  0  0  0  0  0  0
  -23.9405  -29.1914   22.8194 C   0  0  0  0  0  0  0  0  0  1  0  0
  -22.6109  -28.8297   23.4524 C   0  0  0  0  0  0  0  0  0  0  0  0
  -16.4526  -27.2394   22.6092 C   0  0  0  0  0  0  0  0  0  0  0  0
  -31.2646  -29.8928   21.2380 C   0  0  1  0  0  0  0  0  0  0  0  0
  -31.6402  -33.6301   20.7271 C   0  0  2  0  0  0  0  0  0  0  0  0
  -17.9674  -24.9174   18.4190 C   0  0  1  0  0  0  0  0  0  0  0  0
  -32.2758  -29.1051   22.1181 C   0  0  0  0  0  0  0  0  0  0  0  0
  -24.2241  -20.0035   19.7307 N   0  0  0  0  0  0  0  0  0  0  0  0
  -23.2803  -20.9213   20.0013 N   0  0  0  0  0  0  0  0  0  0  0  0
  -29.6218  -28.8330   19.7207 N   0  0  0  0  0  0  0  0  0  0  0  0
  -20.2126  -21.0336   17.7243 N   0  0  0  0  0  0  0  0  0  0  0  0
  -22.9276  -23.0148   21.0516 N   0  0  0  0  0  0  0  0  0  0  0  0
  -27.3315  -22.2527   21.7002 N   0  0  0  0  0  0  0  0  0  0  0  0
  -18.1317  -26.1129   20.5433 N   0  0  0  0  0  0  0  0  0  0  0  0
  -29.6675  -25.6161   18.1782 N   0  0  0  0  0  0  0  0  0  0  0  0
  -31.7049  -31.2366   20.8791 N   0  0  0  0  0  0  0  0  0  0  0  0
  -19.6510  -23.3201   17.4996 N   0  0  0  0  0  0  0  0  0  0  0  0
  -30.6163  -34.6411   20.3393 N   0  3  0  0  0  0  0  0  0  0  0  0
  -25.6169  -23.7212   22.1029 O   0  0  0  0  0  0  0  0  0  0  0  0
  -28.8695  -26.3477   20.2398 O   0  0  0  0  0  0  0  0  0  0  0  0
  -31.8769  -28.9639   19.1430 O   0  0  0  0  0  0  0  0  0  0  0  0
  -29.8992  -32.3533   21.8117 O   0  0  0  0  0  0  0  0  0  0  0  0
  -18.0973  -21.6969   17.0434 O   0  0  0  0  0  0  0  0  0  0  0  0
  -30.1926  -17.7969   19.9695 O   0  0  0  0  0  0  0  0  0  0  0  0
  -23.7338  -29.4896   21.4392 O   0  0  0  0  0  0  0  0  0  1  0  0
  -22.0860  -27.6773   22.8044 O   0  0  0  0  0  0  0  0  0  0  0  0
  -30.1659  -12.3884   21.0425 F   0  0  0  0  0  0  0  0  0  0  0  0
  -31.7034  -16.7534   22.0362 F   0  0  0  0  0  0  0  0  0  0  0  0
  1  2  1  0  0  0  0
  1  5  2  0  0  0  0
  2  6  2  0  0  0  0
  3  9  2  0  0  0  0
  3 18  1  0  0  0  0
  4 10  1  0  0  0  0
  4 18  2  0  0  0  0
  5 20  1  0  0  0  0
  6 22  1  0  0  0  0
  7 11  2  0  0  0  0
  7 21  1  0  0  0  0
  8 12  2  0  0  0  0
  8 24  1  0  0  0  0
  9 26  1  0  0  0  0
 10 26  2  0  0  0  0
 11 27  1  0  0  0  0
 12 28  1  0  0  0  0
 13 14  2  0  0  0  0
 13 29  1  0  0  0  0
 14 30  1  0  0  0  0
 15 23  1  0  0  0  0
 15 27  2  0  0  0  0
 16 25  1  0  0  0  0
 16 28  2  0  0  0  0
 17 30  2  0  0  0  0
 17 31  1  0  0  0  0
 18 32  1  0  0  0  0
 19 32  1  0  0  0  0
 19 33  2  0  0  0  0
 19 34  1  0  0  0  0
 20 22  2  0  0  0  0
 20 39  1  0  0  0  0
 21 23  2  0  0  0  0
 21 40  1  0  0  0  0
 22 48  1  0  0  0  0
 23 41  1  0  0  0  0
 24 25  2  0  0  0  0
 24 63  1  0  0  0  0
 25 74  1  0  0  0  0
 26 84  1  0  0  0  0
 27 85  1  0  0  0  0
 28 86  1  0  0  0  0
 29 31  2  0  0  0  0
 29 84  1  0  0  0  0
 30 87  1  0  0  0  0
 31 88  1  0  0  0  0
 32 68  2  0  0  0  0
 33 69  1  0  0  0  0
 33 72  1  0  0  0  0
 34 73  1  0  0  0  0
 34 79  2  0  0  0  0
 35 49  1  0  0  0  0
 35 75  1  0  0  0  0
 35 80  2  0  0  0  0
 36 64  1  0  0  0  0
 36 70  1  0  0  0  0
 36 81  2  0  0  0  0
 37 65  1  0  0  0  0
 37 76  1  0  0  0  0
 37 82  2  0  0  0  0
 38 71  1  0  0  0  0
 38 77  1  0  0  0  0
 38 83  2  0  0  0  0
 39 42  1  0  0  0  0
 40 49  1  0  0  0  0
 41 70  1  0  0  0  0
 42 44  1  0  0  0  0
 43 45  1  0  0  0  0
 43 46  1  0  0  0  0
 44 48  1  0  0  0  0
 45 50  1  0  0  0  0
 46 71  1  0  0  0  0
 47 50  1  0  0  0  0
 47 71  1  0  0  0  0
 48 75  1  0  0  0  0
 49 70  1  0  0  0  0
 50 69  1  0  0  0  0
 51 63  1  0  0  0  0
 52 63  1  0  0  0  0
 53 65  1  0  0  0  0
 54 66  1  0  0  0  0
 55 67  1  0  0  0  0
 56 67  1  0  0  0  0
 57 67  1  0  0  0  0
 58 78  1  0  0  0  0
 59 66  1  0  0  0  0
 59 74  1  0  0  0  0
 60 66  1  0  0  0  0
 60 77  1  0  0  0  0
 61 62  1  0  0  0  0
 61 85  1  0  0  0  0
 62 86  1  0  0  0  0
 64 67  1  0  0  0  0
 64 76  1  0  0  0  0
 65 78  1  0  0  0  0
 68 69  1  0  0  0  0
M  CHG  1  78   1
M  ISO  4  38 100  61 101  77 100  85 101
M  END
> <Batch ID>
0148

> <Smiles>
CNC(C)C(=O)NC(C(=O)N1Cc2cc([101O:1][101CH2:1]COc3ccc(C(C)C)c(NCC(C)C[100NH:0][100C:0](=O)N4CCCC(n5nc(-c6ccc(Oc7ccc(F)cc7F)cc6)c(C(N)=O)c5N)C4)c3)ccc2CC1C(=O)NC1CCCc2ccccc21)C(C)(C)C

> <Shape>
0.212

> <Color>
0.057

> <Negative vol penalty>
0.000

$$$$

  -OEChem-04052321363D

 89 98  0     1  0  0  0  0  0999 V2000
  -21.6276  -11.7436   20.1641 C   0  0  0  0  0  0  0  0  0  0  0  0
  -21.5412  -13.0940   20.4870 C   0  0  0  0  0  0  0  0  0  0  0  0
  -29.4181  -29.0505   19.9025 C   0  0  0  0  0  0  0  0  0  0  0  0
  -27.8113  -27.4180   19.1342 C   0  0  0  0  0  0  0  0  0  0  0  0
  -22.8649  -11.1013   20.1830 C   0  0  0  0  0  0  0  0  0  0  0  0
  -22.6921  -13.8027   20.8300 C   0  0  0  0  0  0  0  0  0  0  0  0
  -22.9358  -18.3255   18.5650 C   0  0  0  0  0  0  0  0  0  0  0  0
  -30.4139  -28.0739   19.8953 C   0  0  0  0  0  0  0  0  0  0  0  0
  -28.8072  -26.4413   19.1270 C   0  0  0  0  0  0  0  0  0  0  0  0
  -22.1549  -19.3488   19.1006 C   0  0  0  0  0  0  0  0  0  0  0  0
  -32.3857  -26.5435   17.6144 C   0  0  0  0  0  0  0  0  0  0  0  0
  -33.6201  -26.8803   17.0589 C   0  0  0  0  0  0  0  0  0  0  0  0
  -17.5598  -24.9648   24.0897 C   0  0  0  0  0  0  0  0  0  0  0  0
  -19.6109  -24.7513   22.8310 C   0  0  0  0  0  0  0  0  0  0  0  0
  -24.0938  -20.2257   20.2367 C   0  0  0  0  0  0  0  0  0  0  0  0
  -18.5724  -22.7918   23.7897 C   0  0  0  0  0  0  0  0  0  0  0  0
  -34.6951  -26.4314   19.1755 C   0  0  0  0  0  0  0  0  0  0  0  0
  -28.1168  -28.7226   19.5219 C   0  0  0  0  0  0  0  0  0  0  0  0
  -26.7262  -30.5849   18.4704 C   0  0  0  0  0  0  0  0  0  0  0  0
  -24.0329  -11.8048   20.5170 C   0  0  0  0  0  0  0  0  0  0  0  0
  -24.3017  -18.2383   18.8705 C   0  0  0  0  0  0  0  0  0  0  0  0
  -23.9460  -13.1689   20.8546 C   0  0  0  0  0  0  0  0  0  0  0  0
  -18.5897  -25.5468   23.3506 C   0  0  0  0  0  0  0  0  0  0  0  0
  -24.8904  -19.2019   19.7017 C   0  0  0  0  0  0  0  0  0  0  0  0
  -17.5512  -23.5873   24.3093 C   0  0  0  0  0  0  0  0  0  0  0  0
  -30.1085  -26.7693   19.5076 C   0  0  0  0  0  0  0  0  0  0  0  0
  -22.7332  -20.2974   19.9389 C   0  0  0  0  0  0  0  0  0  0  0  0
  -32.3060  -26.1508   18.9505 C   0  0  0  0  0  0  0  0  0  0  0  0
  -19.6023  -23.3738   23.0506 C   0  0  0  0  0  0  0  0  0  0  0  0
  -34.7747  -26.8242   17.8394 C   0  0  0  0  0  0  0  0  0  0  0  0
  -33.4607  -26.0947   19.7310 C   0  0  0  0  0  0  0  0  0  0  0  0
  -27.0876  -29.7310   19.5296 C   0  0  0  0  0  0  0  0  0  0  0  0
  -25.7048  -31.3495   18.9790 C   0  0  0  0  0  0  0  0  0  0  0  0
  -27.2654  -30.6785   17.1452 C   0  0  0  0  0  0  0  0  0  0  0  0
  -26.1431  -16.0914   20.3209 C   0  0  0  0  0  0  0  0  0  0  0  0
  -28.5299  -18.0730   19.3729 C   0  0  0  0  0  0  0  0  0  0  0  0
  -29.4927  -21.2143   18.4497 C   0  0  0  0  0  0  0  0  0  0  0  0
  -21.7358  -30.4508   23.3711 C   0  0  0  0  0  0  0  0  0  0  0  0
  -25.3412  -11.0562   20.5696 C   0  0  0  0  0  0  0  0  0  0  0  0
  -25.1360  -17.1439   18.2633 C   0  0  0  0  0  0  0  0  0  0  0  0
  -26.3566  -19.1645   20.0443 C   0  0  0  0  0  0  0  0  0  0  0  0
  -26.5649  -11.9687   20.5798 C   0  0  0  0  0  0  0  0  0  0  0  0
  -24.0591  -33.1353   23.1013 C   0  0  0  0  0  0  0  0  0  0  0  0
  -26.3772  -13.1023   21.5830 C   0  0  0  0  0  0  0  0  0  0  0  0
  -25.0661  -32.6443   22.0598 C   0  0  0  0  0  0  0  0  0  0  0  0
  -19.8875  -27.6810   23.5896 C   0  0  0  0  0  0  0  0  0  0  0  0
  -23.5689  -31.9966   23.9931 C   0  0  0  0  0  0  0  0  0  0  0  0
  -24.0327  -30.3415   22.2270 C   0  0  0  0  0  0  0  0  0  0  0  0
  -25.1754  -13.9777   21.2078 C   0  0  1  0  0  0  0  0  0  0  0  0
  -18.5985  -27.0196   23.1168 C   0  0  1  0  0  0  0  0  0  0  0  0
  -26.4082  -16.8540   19.0537 C   0  0  1  0  0  0  0  0  0  0  0  0
  -24.5135  -31.4439   21.2679 C   0  0  2  0  0  0  0  0  0  0  0  0
  -19.9957  -28.8443   22.6293 C   0  0  2  0  0  0  0  0  0  0  0  0
  -19.5236  -28.2097   21.3286 C   0  0  2  0  0  0  0  0  0  0  0  0
  -16.4507  -22.9647   25.1000 C   0  0  0  0  0  0  0  0  0  0  0  0
  -31.5156  -22.5347   17.7703 C   0  0  0  0  0  0  0  0  0  0  0  0
  -20.0086  -30.2672   19.9738 C   0  0  0  0  0  0  0  0  0  0  0  0
  -18.4786  -28.4966   19.0639 C   0  0  0  0  0  0  0  0  0  0  0  0
  -29.4595  -18.1392   22.2783 C   0  0  0  0  0  0  0  0  0  0  0  0
  -30.8345  -20.1555   21.7196 C   0  0  0  0  0  0  0  0  0  0  0  0
  -31.3034  -17.9780   20.5965 C   0  0  0  0  0  0  0  0  0  0  0  0
  -28.3267  -21.8608   15.8075 C   0  0  0  0  0  0  0  0  0  0  0  0
  -22.6307  -22.2345   21.3147 C   0  0  0  0  0  0  0  0  0  1  0  0
  -21.6208  -23.2571   21.7985 C   0  0  0  0  0  0  0  0  0  0  0  0
  -29.2240  -19.2729   19.9707 C   0  0  1  0  0  0  0  0  0  0  0  0
  -30.3336  -21.7091   17.2867 C   0  0  2  0  0  0  0  0  0  0  0  0
  -18.9647  -29.2062   20.3298 C   0  0  0  0  0  0  0  0  0  0  0  0
  -30.1773  -18.8863   21.1366 C   0  0  0  0  0  0  0  0  0  0  0  0
  -26.3555  -29.9338   20.6282 N   0  0  0  0  0  0  0  0  0  0  0  0
  -25.5239  -30.9239   20.2621 N   0  0  0  0  0  0  0  0  0  0  0  0
  -27.1290  -18.0715   19.4309 N   0  0  0  0  0  0  0  0  0  0  0  0
  -23.0562  -30.8907   23.1807 N   0  0  0  0  0  0  0  0  0  0  0  0
  -24.9529  -32.3378   18.4494 N   0  0  0  0  0  0  0  0  0  0  0  0
  -28.3121  -29.8178   16.7874 N   0  0  0  0  0  0  0  0  0  0  0  0
  -25.5209  -14.8732   20.1247 N   0  0  0  0  0  0  0  0  0  0  0  0
  -29.8818  -19.9577   18.8631 N   0  0  0  0  0  0  0  0  0  0  0  0
  -21.3276  -29.4023   22.5557 N   0  0  0  0  0  0  0  0  0  0  0  0
  -29.5112  -22.5544   16.3757 N   0  3  0  0  0  0  0  0  0  0  0  0
  -26.8429  -31.5122   16.3086 O   0  0  0  0  0  0  0  0  0  0  0  0
  -26.4796  -16.5718   21.3968 O   0  0  0  0  0  0  0  0  0  0  0  0
  -29.2055  -17.1736   18.8666 O   0  0  0  0  0  0  0  0  0  0  0  0
  -28.5841  -21.8777   18.9445 O   0  0  0  0  0  0  0  0  0  0  0  0
  -20.9754  -30.9585   24.2023 O   0  0  0  0  0  0  0  0  0  0  0  0
  -18.4954  -27.2725   21.7015 O   0  0  0  0  0  0  0  0  0  0  0  0
  -31.0799  -25.8160   19.5003 O   0  0  0  0  0  0  0  0  0  0  0  0
  -21.9730  -21.2968   20.4635 O   0  0  0  0  0  0  0  0  0  1  0  0
  -20.6056  -22.5925   22.5407 O   0  0  0  0  0  0  0  0  0  0  0  0
  -35.9602  -27.1462   17.3054 F   0  0  0  0  0  0  0  0  0  0  0  0
  -33.3906  -25.7170   21.0148 F   0  0  0  0  0  0  0  0  0  0  0  0
  1  2  1  0  0  0  0
  1  5  2  0  0  0  0
  2  6  2  0  0  0  0
  3  8  2  0  0  0  0
  3 18  1  0  0  0  0
  4  9  1  0  0  0  0
  4 18  2  0  0  0  0
  5 20  1  0  0  0  0
  6 22  1  0  0  0  0
  7 10  2  0  0  0  0
  7 21  1  0  0  0  0
  8 26  1  0  0  0  0
  9 26  2  0  0  0  0
 10 27  1  0  0  0  0
 11 12  2  0  0  0  0
 11 28  1  0  0  0  0
 12 30  1  0  0  0  0
 13 23  2  0  0  0  0
 13 25  1  0  0  0  0
 14 23  1  0  0  0  0
 14 29  2  0  0  0  0
 15 24  1  0  0  0  0
 15 27  2  0  0  0  0
 16 25  2  0  0  0  0
 16 29  1  0  0  0  0
 17 30  2  0  0  0  0
 17 31  1  0  0  0  0
 18 32  1  0  0  0  0
 19 32  1  0  0  0  0
 19 33  2  0  0  0  0
 19 34  1  0  0  0  0
 20 22  2  0  0  0  0
 20 39  1  0  0  0  0
 21 24  2  0  0  0  0
 21 40  1  0  0  0  0
 22 49  1  0  0  0  0
 23 50  1  0  0  0  0
 24 41  1  0  0  0  0
 25 55  1  0  0  0  0
 26 85  1  0  0  0  0
 27 86  1  0  0  0  0
 28 31  2  0  0  0  0
 28 85  1  0  0  0  0
 29 87  1  0  0  0  0
 30 88  1  0  0  0  0
 31 89  1  0  0  0  0
 32 69  2  0  0  0  0
 33 70  1  0  0  0  0
 33 73  1  0  0  0  0
 34 74  1  0  0  0  0
 34 79  2  0  0  0  0
 35 51  1  0  0  0  0
 35 75  1  0  0  0  0
 35 80  2  0  0  0  0
 36 65  1  0  0  0  0
 36 71  1  0  0  0  0
 36 81  2  0  0  0  0
 37 66  1  0  0  0  0
 37 76  1  0  0  0  0
 37 82  2  0  0  0  0
 38 72  1  0  0  0  0
 38 77  1  0  0  0  0
 38 83  2  0  0  0  0
 39 42  1  0  0  0  0
 40 51  1  0  0  0  0
 41 71  1  0  0  0  0
 42 44  1  0  0  0  0
 43 45  1  0  0  0  0
 43 47  1  0  0  0  0
 44 49  1  0  0  0  0
 45 52  1  0  0  0  0
 46 50  1  0  0  0  0
 46 53  1  0  0  0  0
 47 72  1  0  0  0  0
 48 52  1  0  0  0  0
 48 72  1  0  0  0  0
 49 75  1  0  0  0  0
 50 84  1  0  0  0  0
 51 71  1  0  0  0  0
 52 70  1  0  0  0  0
 53 54  1  0  0  0  0
 53 77  1  0  0  0  0
 54 67  1  0  0  0  0
 54 84  1  0  0  0  0
 56 66  1  0  0  0  0
 57 67  1  0  0  0  0
 58 67  1  0  0  0  0
 59 68  1  0  0  0  0
 60 68  1  0  0  0  0
 61 68  1  0  0  0  0
 62 78  1  0  0  0  0
 63 64  1  0  0  0  0
 63 86  1  0  0  0  0
 64 87  1  0  0  0  0
 65 68  1  0  0  0  0
 65 76  1  0  0  0  0
 66 78  1  0  0  0  0
 69 70  1  0  0  0  0
M  CHG  1  78   1
M  ISO  4  38 100  63 101  77 100  86 101
M  END
> <Batch ID>
0148

> <Smiles>
CNC(C)C(=O)NC(C(=O)N1Cc2cc([101O:1][101CH2:1]COc3cc(C)cc(C4CC([100NH:0][100C:0](=O)N5CCCC(n6nc(-c7ccc(Oc8ccc(F)cc8F)cc7)c(C(N)=O)c6N)C5)C(C(C)C)O4)c3)ccc2CC1C(=O)NC1CCCc2ccccc21)C(C)(C)C

> <Shape>
0.229

> <Color>
0.089

> <Negative vol penalty>
0.000

$$$$

  -OEChem-04052321363D

 87 97  0     1  0  0  0  0  0999 V2000
  -22.2697  -26.3499   20.8520 C   0  0  0  0  0  0  0  0  0  0  0  0
  -23.6171  -26.2456   20.5220 C   0  0  0  0  0  0  0  0  0  0  0  0
  -23.0990   -9.9190   19.9078 C   0  0  0  0  0  0  0  0  0  0  0  0
  -23.8743   -9.8653   22.1954 C   0  0  0  0  0  0  0  0  0  0  0  0
  -21.4738  -25.2061   20.8977 C   0  0  0  0  0  0  0  0  0  0  0  0
  -24.1697  -24.9971   20.2385 C   0  0  0  0  0  0  0  0  0  0  0  0
  -28.5853  -23.7616   16.1787 C   0  0  0  0  0  0  0  0  0  0  0  0
  -32.5719  -17.6375   23.8954 C   0  0  0  0  0  0  0  0  0  0  0  0
  -31.6705  -16.6749   23.4470 C   0  0  0  0  0  0  0  0  0  0  0  0
  -22.3622   -8.7557   20.1302 C   0  0  0  0  0  0  0  0  0  0  0  0
  -23.1375   -8.7019   22.4178 C   0  0  0  0  0  0  0  0  0  0  0  0
  -29.9595  -23.5713   16.3163 C   0  0  0  0  0  0  0  0  0  0  0  0
  -21.1744   -5.9187   23.6900 C   0  0  0  0  0  0  0  0  0  0  0  0
  -20.4263   -5.8386   24.8645 C   0  0  0  0  0  0  0  0  0  0  0  0
  -32.6614  -19.9189   20.9546 C   0  0  0  0  0  0  0  0  0  0  0  0
  -29.6151  -21.1850   16.3947 C   0  0  0  0  0  0  0  0  0  0  0  0
  -19.1678   -7.7896   24.1959 C   0  0  0  0  0  0  0  0  0  0  0  0
  -32.3446  -18.8477   21.7979 C   0  0  0  0  0  0  0  0  0  0  0  0
  -31.4324  -17.8711   21.3475 C   0  0  0  0  0  0  0  0  0  0  0  0
  -23.8551  -10.4738   20.9405 C   0  0  0  0  0  0  0  0  0  0  0  0
  -24.1842  -13.0030   20.8892 C   0  0  0  0  0  0  0  0  0  0  0  0
  -22.0146  -23.9442   20.6052 C   0  0  0  0  0  0  0  0  0  0  0  0
  -27.7131  -22.6637   16.1589 C   0  0  0  0  0  0  0  0  0  0  0  0
  -23.3806  -23.8352   20.2816 C   0  0  0  0  0  0  0  0  0  0  0  0
  -28.2305  -21.3640   16.2541 C   0  0  0  0  0  0  0  0  0  0  0  0
  -32.9082  -18.7178   23.0778 C   0  0  0  0  0  0  0  0  0  0  0  0
  -31.1013  -16.7882   22.1788 C   0  0  0  0  0  0  0  0  0  0  0  0
  -22.3814   -8.1472   21.3851 C   0  0  0  0  0  0  0  0  0  0  0  0
  -30.4744  -22.2830   16.4273 C   0  0  0  0  0  0  0  0  0  0  0  0
  -20.9193   -6.9344   22.7685 C   0  0  0  0  0  0  0  0  0  0  0  0
  -19.4229   -6.7740   25.1174 C   0  0  0  0  0  0  0  0  0  0  0  0
  -19.9160   -7.8697   23.0214 C   0  0  0  0  0  0  0  0  0  0  0  0
  -24.6168  -11.6752   20.7112 C   0  0  0  0  0  0  0  0  0  0  0  0
  -32.0627  -19.9762   19.7053 C   0  0  0  0  0  0  0  0  0  0  0  0
  -30.8928  -18.0338   20.0700 C   0  0  0  0  0  0  0  0  0  0  0  0
  -25.2704  -13.7677   20.5400 C   0  0  0  0  0  0  0  0  0  0  0  0
  -22.9142  -13.5006   21.3309 C   0  0  0  0  0  0  0  0  0  0  0  0
  -25.3126  -21.6727   17.9916 C   0  0  0  0  0  0  0  0  0  0  0  0
  -30.7723  -14.7387   20.8156 C   0  0  0  0  0  0  0  0  0  0  0  0
  -24.9836  -19.4278   15.6734 C   0  0  0  0  0  0  0  0  0  0  0  0
  -26.4210  -17.6401   13.1465 C   0  0  0  0  0  0  0  0  0  0  0  0
  -21.1258  -22.7305   20.7137 C   0  0  0  0  0  0  0  0  0  0  0  0
  -26.2357  -22.8846   15.9829 C   0  0  0  0  0  0  0  0  0  0  0  0
  -27.3386  -20.1508   16.2180 C   0  0  0  0  0  0  0  0  0  0  0  0
  -21.7019  -21.4910   20.0340 C   0  0  0  0  0  0  0  0  0  0  0  0
  -29.6014  -12.5073   18.2680 C   0  0  0  0  0  0  0  0  0  0  0  0
  -23.1686  -21.3085   20.4109 C   0  0  0  0  0  0  0  0  0  0  0  0
  -28.1755  -12.1774   18.7074 C   0  0  0  0  0  0  0  0  0  0  0  0
  -33.6220  -21.0256   17.9323 C   0  0  0  0  0  0  0  0  0  0  0  0
  -30.5291  -12.6807   19.4666 C   0  0  0  0  0  0  0  0  0  0  0  0
  -28.6318  -13.3666   20.8989 C   0  0  0  0  0  0  0  0  0  0  0  0
  -24.0109  -22.5016   19.9434 C   0  0  1  0  0  0  0  0  0  0  0  0
  -32.3925  -21.1080   18.8065 C   0  0  1  0  0  0  0  0  0  0  0  0
  -25.3926  -21.7195   16.4920 C   0  0  1  0  0  0  0  0  0  0  0  0
  -27.6552  -13.2136   19.7194 C   0  0  2  0  0  0  0  0  0  0  0  0
  -32.2628  -20.9263   17.3101 C   0  0  1  0  0  0  0  0  0  1  0  0
  -33.8833  -19.7160   23.6199 C   0  0  0  0  0  0  0  0  0  0  0  0
  -25.9112  -15.8529   11.4604 C   0  0  0  0  0  0  0  0  0  0  0  0
  -25.1243  -17.3168   17.8720 C   0  0  0  0  0  0  0  0  0  0  0  0
  -25.5664  -15.6026   16.1015 C   0  0  0  0  0  0  0  0  0  0  0  0
  -23.4160  -16.8670   16.1017 C   0  0  0  0  0  0  0  0  0  0  0  0
  -27.0128  -19.4480   10.8793 C   0  0  0  0  0  0  0  0  0  0  0  0
  -29.5165  -17.4051   18.2353 C   0  0  0  0  0  0  0  0  0  0  0  0
  -30.1459  -15.7028   21.7915 C   0  0  0  0  0  0  0  0  0  0  0  0
  -25.5486  -18.0487   15.4326 C   0  0  1  0  0  0  0  0  0  0  0  0
  -25.9599  -17.3488   11.7299 C   0  0  2  0  0  0  0  0  0  0  0  0
  -24.9307  -16.9815   16.3796 C   0  0  0  0  0  0  0  0  0  0  0  0
  -25.8792  -11.5973   20.2821 N   0  0  0  0  0  0  0  0  0  0  0  0
  -31.1859  -19.0608   19.2408 N   0  0  0  0  0  0  0  0  0  0  0  0
  -26.2493  -12.8858   20.1874 N   0  0  0  0  0  0  0  0  0  0  0  0
  -25.9006  -20.4190   16.0507 N   0  0  0  0  0  0  0  0  0  0  0  0
  -29.9888  -13.6562   20.4151 N   0  0  0  0  0  0  0  0  0  0  0  0
  -25.4741  -15.1017   20.5030 N   0  0  0  0  0  0  0  0  0  0  0  0
  -21.9089  -12.5774   21.6491 N   0  0  0  0  0  0  0  0  0  0  0  0
  -24.2718  -22.4103   18.5228 N   0  0  0  0  0  0  0  0  0  0  0  0
  -25.3567  -17.7710   14.0133 N   0  0  0  0  0  0  0  0  0  0  0  0
  -26.8869  -17.9739   10.7445 N   0  3  0  0  0  0  0  0  0  0  0  0
  -22.6726  -14.7280   21.4244 O   0  0  0  0  0  0  0  0  0  0  0  0
  -26.1334  -21.0147   18.6202 O   0  0  0  0  0  0  0  0  0  0  0  0
  -31.9226  -14.9448   20.4200 O   0  0  0  0  0  0  0  0  0  0  0  0
  -23.7742  -19.6201   15.5249 O   0  0  0  0  0  0  0  0  0  0  0  0
  -27.6069  -17.7379   13.4542 O   0  0  0  0  0  0  0  0  0  0  0  0
  -21.6624   -7.0121   21.6025 O   0  0  0  0  0  0  0  0  0  0  0  0
  -31.8153  -22.0945   16.5624 O   0  0  0  0  0  0  0  0  0  1  0  0
  -30.0004  -17.1375   19.5468 O   0  0  0  0  0  0  0  0  0  0  0  0
  -18.7035   -6.6960   26.2446 F   0  0  0  0  0  0  0  0  0  0  0  0
  -19.6655   -8.8469   22.1393 F   0  0  0  0  0  0  0  0  0  0  0  0
  1  2  1  0  0  0  0
  1  5  2  0  0  0  0
  2  6  2  0  0  0  0
  3 10  2  0  0  0  0
  3 20  1  0  0  0  0
  4 11  1  0  0  0  0
  4 20  2  0  0  0  0
  5 22  1  0  0  0  0
  6 24  1  0  0  0  0
  7 12  2  0  0  0  0
  7 23  1  0  0  0  0
  8  9  1  0  0  0  0
  8 26  2  0  0  0  0
  9 27  2  0  0  0  0
 10 28  1  0  0  0  0
 11 28  2  0  0  0  0
 12 29  1  0  0  0  0
 13 14  2  0  0  0  0
 13 30  1  0  0  0  0
 14 31  1  0  0  0  0
 15 18  2  0  0  0  0
 15 34  1  0  0  0  0
 16 25  1  0  0  0  0
 16 29  2  0  0  0  0
 17 31  2  0  0  0  0
 17 32  1  0  0  0  0
 18 19  1  0  0  0  0
 18 26  1  0  0  0  0
 19 27  1  0  0  0  0
 19 35  2  0  0  0  0
 20 33  1  0  0  0  0
 21 33  1  0  0  0  0
 21 36  2  0  0  0  0
 21 37  1  0  0  0  0
 22 24  2  0  0  0  0
 22 42  1  0  0  0  0
 23 25  2  0  0  0  0
 23 43  1  0  0  0  0
 24 52  1  0  0  0  0
 25 44  1  0  0  0  0
 26 57  1  0  0  0  0
 27 64  1  0  0  0  0
 28 83  1  0  0  0  0
 29 84  1  0  0  0  0
 30 32  2  0  0  0  0
 30 83  1  0  0  0  0
 31 86  1  0  0  0  0
 32 87  1  0  0  0  0
 33 68  2  0  0  0  0
 34 53  1  0  0  0  0
 34 69  2  0  0  0  0
 35 69  1  0  0  0  0
 35 85  1  0  0  0  0
 36 70  1  0  0  0  0
 36 73  1  0  0  0  0
 37 74  1  0  0  0  0
 37 78  2  0  0  0  0
 38 54  1  0  0  0  0
 38 75  1  0  0  0  0
 38 79  2  0  0  0  0
 39 64  1  0  0  0  0
 39 72  1  0  0  0  0
 39 80  2  0  0  0  0
 40 65  1  0  0  0  0
 40 71  1  0  0  0  0
 40 81  2  0  0  0  0
 41 66  1  0  0  0  0
 41 76  1  0  0  0  0
 41 82  2  0  0  0  0
 42 45  1  0  0  0  0
 43 54  1  0  0  0  0
 44 71  1  0  0  0  0
 45 47  1  0  0  0  0
 46 48  1  0  0  0  0
 46 50  1  0  0  0  0
 47 52  1  0  0  0  0
 48 55  1  0  0  0  0
 49 53  1  0  0  0  0
 49 56  1  0  0  0  0
 50 72  1  0  0  0  0
 51 55  1  0  0  0  0
 51 72  1  0  0  0  0
 52 75  1  0  0  0  0
 53 56  1  0  0  0  0
 54 71  1  0  0  0  0
 55 70  1  0  0  0  0
 56 84  1  0  0  0  0
 58 66  1  0  0  0  0
 59 67  1  0  0  0  0
 60 67  1  0  0  0  0
 61 67  1  0  0  0  0
 62 77  1  0  0  0  0
 63 85  1  0  0  0  0
 65 67  1  0  0  0  0
 65 76  1  0  0  0  0
 66 77  1  0  0  0  0
 68 70  1  0  0  0  0
M  CHG  1  77   1
M  ISO  4  39 100  56 101  64 100  84 101
M  END
> <Batch ID>
0148

> <Smiles>
CNC(C)C(=O)NC(C(=O)N1Cc2cc([101O:1][101CH:1]3CC3c3cc4c(C)ccc([100CH2:0][100C:0](=O)N5CCCC(n6nc(-c7ccc(Oc8ccc(F)cc8F)cc7)c(C(N)=O)c6N)C5)c4c(OC)n3)ccc2CC1C(=O)NC1CCCc2ccccc21)C(C)(C)C

> <Shape>
0.190

> <Color>
0.204

> <Negative vol penalty>
0.000

$$$$

  -OEChem-04052321363D

 88 97  0     1  0  0  0  0  0999 V2000
  -27.7005  -32.6186   27.7069 C   0  0  0  0  0  0  0  0  0  0  0  0
  -27.8458  -31.5747   26.7988 C   0  0  0  0  0  0  0  0  0  0  0  0
  -23.3899   -9.2897   21.2923 C   0  0  0  0  0  0  0  0  0  0  0  0
  -25.7467   -8.8248   21.5503 C   0  0  0  0  0  0  0  0  0  0  0  0
  -26.4521  -33.2113   27.8920 C   0  0  0  0  0  0  0  0  0  0  0  0
  -26.7425  -31.1221   26.0761 C   0  0  0  0  0  0  0  0  0  0  0  0
  -27.7933  -30.4012   21.1750 C   0  0  0  0  0  0  0  0  0  0  0  0
  -23.1061   -7.9317   21.4369 C   0  0  0  0  0  0  0  0  0  0  0  0
  -25.4629   -7.4667   21.6949 C   0  0  0  0  0  0  0  0  0  0  0  0
  -28.4833  -29.2381   20.8361 C   0  0  0  0  0  0  0  0  0  0  0  0
  -22.8481   -5.6958   23.9602 C   0  0  0  0  0  0  0  0  0  0  0  0
  -21.7924   -5.3400   24.7995 C   0  0  0  0  0  0  0  0  0  0  0  0
  -31.6108  -21.4371   19.2213 C   0  0  0  0  0  0  0  0  0  0  0  0
  -26.4077  -28.2105   20.1616 C   0  0  0  0  0  0  0  0  0  0  0  0
  -20.6738   -4.2758   22.9411 C   0  0  0  0  0  0  0  0  0  0  0  0
  -24.7102   -9.7363   21.3489 C   0  0  0  0  0  0  0  0  0  0  0  0
  -24.5484  -12.1944   22.0114 C   0  0  0  0  0  0  0  0  0  0  0  0
  -25.3350  -32.7722   27.1641 C   0  0  0  0  0  0  0  0  0  0  0  0
  -26.4016  -30.4740   21.0197 C   0  0  0  0  0  0  0  0  0  0  0  0
  -25.4778  -31.7086   26.2526 C   0  0  0  0  0  0  0  0  0  0  0  0
  -30.5073  -20.5776   19.0784 C   0  0  0  0  0  0  0  0  0  0  0  0
  -25.7027  -29.3766   20.4968 C   0  0  0  0  0  0  0  0  0  0  0  0
  -29.2098  -21.1240   19.0731 C   0  0  0  0  0  0  0  0  0  0  0  0
  -31.4329  -22.8135   19.3569 C   0  0  0  0  0  0  0  0  0  0  0  0
  -29.0462  -22.5129   19.2032 C   0  0  0  0  0  0  0  0  0  0  0  0
  -24.1426   -7.0202   21.6383 C   0  0  0  0  0  0  0  0  0  0  0  0
  -27.7902  -28.1415   20.3320 C   0  0  0  0  0  0  0  0  0  0  0  0
  -22.8167   -5.3417   22.6114 C   0  0  0  0  0  0  0  0  0  0  0  0
  -30.1505  -23.3512   19.3491 C   0  0  0  0  0  0  0  0  0  0  0  0
  -20.7052   -4.6300   24.2899 C   0  0  0  0  0  0  0  0  0  0  0  0
  -21.7296   -4.6317   22.1018 C   0  0  0  0  0  0  0  0  0  0  0  0
  -25.0040  -11.1389   21.1990 C   0  0  0  0  0  0  0  0  0  0  0  0
  -25.1037  -13.3205   21.4547 C   0  0  0  0  0  0  0  0  0  0  0  0
  -23.6993  -12.1600   23.1662 C   0  0  0  0  0  0  0  0  0  0  0  0
  -23.9438  -30.8991   22.9900 C   0  0  0  0  0  0  0  0  0  0  0  0
  -22.2471  -30.9934   20.2269 C   0  0  0  0  0  0  0  0  0  0  0  0
  -22.0243  -30.1290   16.9330 C   0  0  0  0  0  0  0  0  0  0  0  0
  -29.2202  -16.0686   19.3421 C   0  0  0  0  0  0  0  0  0  0  0  0
  -23.9961  -33.4123   27.4329 C   0  0  0  0  0  0  0  0  0  0  0  0
  -25.6754  -31.7452   21.3648 C   0  0  0  0  0  0  0  0  0  0  0  0
  -27.9838  -20.2732   18.8573 C   0  0  0  0  0  0  0  0  0  0  0  0
  -24.2110  -29.4109   20.2918 C   0  0  0  0  0  0  0  0  0  0  0  0
  -22.9554  -33.1235   26.3541 C   0  0  0  0  0  0  0  0  0  0  0  0
  -28.2277  -18.7744   19.0214 C   0  0  0  0  0  0  0  0  0  0  0  0
  -27.4942  -13.9990   17.0596 C   0  0  0  0  0  0  0  0  0  0  0  0
  -22.9526  -31.6402   25.9984 C   0  0  0  0  0  0  0  0  0  0  0  0
  -26.6535  -13.1416   18.0046 C   0  0  0  0  0  0  0  0  0  0  0  0
  -28.9018  -14.2449   17.6059 C   0  0  0  0  0  0  0  0  0  0  0  0
  -28.0815  -13.9473   19.9213 C   0  0  0  0  0  0  0  0  0  0  0  0
  -30.7446  -19.0796   18.9620 C   0  0  2  0  0  0  0  0  0  0  0  0
  -24.3098  -31.2061   25.4319 C   0  0  1  0  0  0  0  0  0  0  0  0
  -24.1922  -31.5280   21.6482 C   0  0  1  0  0  0  0  0  0  0  0  0
  -26.6433  -13.7355   19.4239 C   0  0  2  0  0  0  0  0  0  0  0  0
  -29.5280  -18.3670   18.3284 C   0  0  1  0  0  0  0  0  0  0  0  0
  -32.6313  -23.6912   19.5080 C   0  0  0  0  0  0  0  0  0  0  0  0
  -27.6800  -23.1290   19.1743 C   0  0  0  0  0  0  0  0  0  0  0  0
  -31.1344  -18.5144   20.3376 C   0  0  0  0  0  0  0  0  0  0  0  0
  -20.5024  -30.3145   14.9463 C   0  0  0  0  0  0  0  0  0  0  0  0
  -20.4567  -28.8180   21.3984 C   0  0  0  0  0  0  0  0  0  0  0  0
  -19.5915  -28.3841   19.0895 C   0  0  0  0  0  0  0  0  0  0  0  0
  -19.2391  -30.6128   20.1532 C   0  0  0  0  0  0  0  0  0  0  0  0
  -30.0828  -16.3329   17.0476 C   0  0  0  0  0  0  0  0  0  0  0  0
  -24.0411  -31.6421   15.3832 C   0  0  0  0  0  0  0  0  0  0  0  0
  -29.6469  -26.7122   20.7392 C   0  0  0  0  0  0  0  0  0  1  0  0
  -29.8339  -25.2086   20.8003 C   0  0  0  0  0  0  0  0  0  0  0  0
  -21.5527  -29.9683   19.3633 C   0  0  1  0  0  0  0  0  0  0  0  0
  -21.6653  -30.9399   15.7009 C   0  0  2  0  0  0  0  0  0  0  0  0
  -20.2379  -29.4442   20.0066 C   0  0  0  0  0  0  0  0  0  0  0  0
  -25.7882  -11.5571   20.2019 N   0  0  0  0  0  0  0  0  0  0  0  0
  -25.8296  -12.8879   20.3841 N   0  0  0  0  0  0  0  0  0  0  0  0
  -23.5451  -30.6742   20.6501 N   0  0  0  0  0  0  0  0  0  0  0  0
  -28.8472  -14.7663   18.9785 N   0  0  0  0  0  0  0  0  0  0  0  0
  -25.0369  -14.6287   21.7813 N   0  0  0  0  0  0  0  0  0  0  0  0
  -24.2924  -12.0141   24.4276 N   0  0  0  0  0  0  0  0  0  0  0  0
  -24.4405  -31.6281   24.0537 N   0  0  0  0  0  0  0  0  0  0  0  0
  -21.3716  -30.5909   18.0564 N   0  0  0  0  0  0  0  0  0  0  0  0
  -29.6808  -16.9135   18.3211 N   0  0  0  0  0  0  0  0  0  0  0  0
  -22.8327  -31.0249   14.7785 N   0  3  0  0  0  0  0  0  0  0  0  0
  -22.4503  -12.2394   23.0806 O   0  0  0  0  0  0  0  0  0  0  0  0
  -23.3445  -29.8322   23.0556 O   0  0  0  0  0  0  0  0  0  0  0  0
  -21.6622  -32.0420   20.5096 O   0  0  0  0  0  0  0  0  0  0  0  0
  -22.8027  -29.1785   16.9013 O   0  0  0  0  0  0  0  0  0  0  0  0
  -29.1535  -16.4546   20.5163 O   0  0  0  0  0  0  0  0  0  0  0  0
  -23.8661   -5.6951   21.7797 O   0  0  0  0  0  0  0  0  0  0  0  0
  -28.4612  -27.0048   20.0011 O   0  0  0  0  0  0  0  0  0  1  0  0
  -29.9766  -24.7041   19.4780 O   0  0  0  0  0  0  0  0  0  0  0  0
  -19.6921   -4.2870   25.0963 F   0  0  0  0  0  0  0  0  0  0  0  0
  -21.6944   -4.2877   20.8072 F   0  0  0  0  0  0  0  0  0  0  0  0
  1  2  1  0  0  0  0
  1  5  2  0  0  0  0
  2  6  2  0  0  0  0
  3  8  2  0  0  0  0
  3 16  1  0  0  0  0
  4  9  1  0  0  0  0
  4 16  2  0  0  0  0
  5 18  1  0  0  0  0
  6 20  1  0  0  0  0
  7 10  2  0  0  0  0
  7 19  1  0  0  0  0
  8 26  1  0  0  0  0
  9 26  2  0  0  0  0
 10 27  1  0  0  0  0
 11 12  2  0  0  0  0
 11 28  1  0  0  0  0
 12 30  1  0  0  0  0
 13 21  1  0  0  0  0
 13 24  2  0  0  0  0
 14 22  1  0  0  0  0
 14 27  2  0  0  0  0
 15 30  2  0  0  0  0
 15 31  1  0  0  0  0
 16 32  1  0  0  0  0
 17 32  1  0  0  0  0
 17 33  2  0  0  0  0
 17 34  1  0  0  0  0
 18 20  2  0  0  0  0
 18 39  1  0  0  0  0
 19 22  2  0  0  0  0
 19 40  1  0  0  0  0
 20 51  1  0  0  0  0
 21 23  2  0  0  0  0
 21 50  1  0  0  0  0
 22 42  1  0  0  0  0
 23 25  1  0  0  0  0
 23 41  1  0  0  0  0
 24 29  1  0  0  0  0
 24 55  1  0  0  0  0
 25 29  2  0  0  0  0
 25 56  1  0  0  0  0
 26 84  1  0  0  0  0
 27 85  1  0  0  0  0
 28 31  2  0  0  0  0
 28 84  1  0  0  0  0
 29 86  1  0  0  0  0
 30 87  1  0  0  0  0
 31 88  1  0  0  0  0
 32 69  2  0  0  0  0
 33 70  1  0  0  0  0
 33 73  1  0  0  0  0
 34 74  1  0  0  0  0
 34 79  2  0  0  0  0
 35 52  1  0  0  0  0
 35 75  1  0  0  0  0
 35 80  2  0  0  0  0
 36 66  1  0  0  0  0
 36 71  1  0  0  0  0
 36 81  2  0  0  0  0
 37 67  1  0  0  0  0
 37 76  1  0  0  0  0
 37 82  2  0  0  0  0
 38 72  1  0  0  0  0
 38 77  1  0  0  0  0
 38 83  2  0  0  0  0
 39 43  1  0  0  0  0
 40 52  1  0  0  0  0
 41 44  1  0  0  0  0
 42 71  1  0  0  0  0
 43 46  1  0  0  0  0
 44 54  1  0  0  0  0
 45 47  1  0  0  0  0
 45 48  1  0  0  0  0
 46 51  1  0  0  0  0
 47 53  1  0  0  0  0
 48 72  1  0  0  0  0
 49 53  1  0  0  0  0
 49 72  1  0  0  0  0
 50 54  1  0  0  0  0
 50 57  1  0  0  0  0
 51 75  1  0  0  0  0
 52 71  1  0  0  0  0
 53 70  1  0  0  0  0
 54 77  1  0  0  0  0
 58 67  1  0  0  0  0
 59 68  1  0  0  0  0
 60 68  1  0  0  0  0
 61 68  1  0  0  0  0
 62 77  1  0  0  0  0
 63 78  1  0  0  0  0
 64 65  1  0  0  0  0
 64 85  1  0  0  0  0
 65 86  1  0  0  0  0
 66 68  1  0  0  0  0
 66 76  1  0  0  0  0
 67 78  1  0  0  0  0
 69 70  1  0  0  0  0
M  CHG  1  78   1
M  ISO  4  38 100  64 101  77 100  85 101
M  END
> <Batch ID>
0148

> <Smiles>
CNC(C)C(=O)NC(C(=O)N1Cc2cc([101O:1][101CH2:1]COc3c(C)cc4c(c3C)CCC([100N:0](C)[100C:0](=O)N3CCCC(n5nc(-c6ccc(Oc7ccc(F)cc7F)cc6)c(C(N)=O)c5N)C3)C4C)ccc2CC1C(=O)NC1CCCc2ccccc21)C(C)(C)C

> <Shape>
0.312

> <Color>
0.107

> <Negative vol penalty>
0.000

$$$$

  -OEChem-04052321363D

 88 97  0     1  0  0  0  0  0999 V2000
  -24.2194  -35.7919   21.7468 C   0  0  0  0  0  0  0  0  0  0  0  0
  -25.0544  -34.6858   21.6261 C   0  0  0  0  0  0  0  0  0  0  0  0
  -22.6712  -10.1882   21.6453 C   0  0  0  0  0  0  0  0  0  0  0  0
  -24.3926   -8.7553   22.5513 C   0  0  0  0  0  0  0  0  0  0  0  0
  -23.0412  -35.6971   22.4862 C   0  0  0  0  0  0  0  0  0  0  0  0
  -24.7121  -33.4844   22.2457 C   0  0  0  0  0  0  0  0  0  0  0  0
  -25.3820  -29.4786   19.2207 C   0  0  0  0  0  0  0  0  0  0  0  0
  -21.9182   -9.0657   21.3007 C   0  0  0  0  0  0  0  0  0  0  0  0
  -23.6395   -7.6329   22.2068 C   0  0  0  0  0  0  0  0  0  0  0  0
  -26.6866  -29.0147   19.0580 C   0  0  0  0  0  0  0  0  0  0  0  0
  -22.0075   -4.3994   21.8915 C   0  0  0  0  0  0  0  0  0  0  0  0
  -21.8886   -3.3818   22.8380 C   0  0  0  0  0  0  0  0  0  0  0  0
  -26.2583  -27.2654   20.6629 C   0  0  0  0  0  0  0  0  0  0  0  0
  -28.1655  -24.9682   17.6855 C   0  0  0  0  0  0  0  0  0  0  0  0
  -20.8540   -4.9324   24.3750 C   0  0  0  0  0  0  0  0  0  0  0  0
  -23.9084  -10.0330   22.2705 C   0  0  0  0  0  0  0  0  0  0  0  0
  -24.6434  -11.9061   23.8386 C   0  0  0  0  0  0  0  0  0  0  0  0
  -22.6795  -34.4912   23.1071 C   0  0  0  0  0  0  0  0  0  0  0  0
  -24.5076  -28.8450   20.1153 C   0  0  0  0  0  0  0  0  0  0  0  0
  -23.5286  -33.3737   22.9952 C   0  0  0  0  0  0  0  0  0  0  0  0
  -24.9423  -27.7216   20.8332 C   0  0  0  0  0  0  0  0  0  0  0  0
  -29.4705  -25.1724   18.1196 C   0  0  0  0  0  0  0  0  0  0  0  0
  -27.6248  -23.6873   17.7044 C   0  0  0  0  0  0  0  0  0  0  0  0
  -22.4023   -7.7881   21.5815 C   0  0  0  0  0  0  0  0  0  0  0  0
  -27.1259  -27.9097   19.7813 C   0  0  0  0  0  0  0  0  0  0  0  0
  -21.5497   -5.6836   22.1867 C   0  0  0  0  0  0  0  0  0  0  0  0
  -21.3118   -3.6483   24.0798 C   0  0  0  0  0  0  0  0  0  0  0  0
  -20.9730   -5.9501   23.4285 C   0  0  0  0  0  0  0  0  0  0  0  0
  -24.6870  -11.1921   22.6262 C   0  0  0  0  0  0  0  0  0  0  0  0
  -30.1874  -24.0714   18.5597 C   0  0  0  0  0  0  0  0  0  0  0  0
  -28.4244  -22.6527   18.1629 C   0  0  0  0  0  0  0  0  0  0  0  0
  -25.5656  -12.9113   23.6785 C   0  0  0  0  0  0  0  0  0  0  0  0
  -23.8411  -11.6808   25.0054 C   0  0  0  0  0  0  0  0  0  0  0  0
  -22.9602  -29.7312   22.7466 C   0  0  0  0  0  0  0  0  0  0  0  0
  -21.6173  -26.7906   22.4783 C   0  0  0  0  0  0  0  0  0  0  0  0
  -21.8427  -23.6004   21.2872 C   0  0  0  0  0  0  0  0  0  0  0  0
  -27.8950  -16.8597   20.8876 C   0  0  0  0  0  0  0  0  0  0  0  0
  -21.4196  -34.4505   23.9352 C   0  0  0  0  0  0  0  0  0  0  0  0
  -23.0951  -29.3414   20.2595 C   0  0  0  0  0  0  0  0  0  0  0  0
  -24.0364  -26.9935   21.7911 C   0  0  0  0  0  0  0  0  0  0  0  0
  -20.9426  -33.0348   24.2491 C   0  0  0  0  0  0  0  0  0  0  0  0
  -29.0709  -13.6427   20.1152 C   0  0  0  0  0  0  0  0  0  0  0  0
  -22.1078  -32.1713   24.7218 C   0  0  0  0  0  0  0  0  0  0  0  0
  -28.0248  -12.7645   20.8012 C   0  0  0  0  0  0  0  0  0  0  0  0
  -27.9815  -18.9484   18.0559 C   0  0  0  0  0  0  0  0  0  0  0  0
  -28.6276  -20.1689   20.1679 C   0  0  0  0  0  0  0  0  0  0  0  0
  -28.4405  -14.8578   19.4324 C   0  0  0  0  0  0  0  0  0  0  0  0
  -28.6400  -17.6805   18.6077 C   0  0  0  0  0  0  0  0  0  0  0  0
  -29.2955  -18.8894   20.6639 C   0  0  0  0  0  0  0  0  0  0  0  0
  -26.5372  -14.7918   21.0108 C   0  0  0  0  0  0  0  0  0  0  0  0
  -23.1794  -32.0461   23.6320 C   0  0  1  0  0  0  0  0  0  0  0  0
  -22.4501  -28.9329   21.5803 C   0  0  1  0  0  0  0  0  0  0  0  0
  -27.1470  -13.5940   21.7553 C   0  0  1  0  0  0  0  0  0  0  0  0
  -28.6194  -20.2121   18.6376 C   0  0  0  0  0  0  0  0  0  0  0  0
  -26.2252  -23.4718   17.2381 C   0  0  0  0  0  0  0  0  0  0  0  0
  -31.5934  -24.2315   19.0378 C   0  0  0  0  0  0  0  0  0  0  0  0
  -30.8132  -26.8341   16.7902 C   0  0  0  0  0  0  0  0  0  0  0  0
  -20.6083  -21.4157   21.2609 C   0  0  0  0  0  0  0  0  0  0  0  0
  -22.4800  -26.2713   25.3586 C   0  0  0  0  0  0  0  0  0  0  0  0
  -22.0913  -23.8301   24.9613 C   0  0  0  0  0  0  0  0  0  0  0  0
  -20.1920  -25.4380   24.7885 C   0  0  0  0  0  0  0  0  0  0  0  0
  -21.6078  -23.6358   18.3372 C   0  0  0  0  0  0  0  0  0  0  0  0
  -29.0063  -27.6518   18.3483 C   0  0  0  0  0  0  0  0  0  1  0  0
  -30.0554  -26.5424   18.1018 C   0  0  1  0  0  0  0  0  0  0  0  0
  -21.9597  -25.4090   22.9812 C   0  0  1  0  0  0  0  0  0  0  0  0
  -20.8479  -22.7322   20.5383 C   0  0  2  0  0  0  0  0  0  0  0  0
  -21.6987  -25.2518   24.5059 C   0  0  0  0  0  0  0  0  0  0  0  0
  -25.5671  -11.7006   21.7596 N   0  0  0  0  0  0  0  0  0  0  0  0
  -29.6962  -22.8123   18.5926 N   0  0  0  0  0  0  0  0  0  0  0  0
  -26.0850  -12.7449   22.4284 N   0  0  0  0  0  0  0  0  0  0  0  0
  -22.6664  -27.5209   21.9021 N   0  0  0  0  0  0  0  0  0  0  0  0
  -27.5814  -15.5941   20.3700 N   0  0  0  0  0  0  0  0  0  0  0  0
  -28.6672  -17.7053   20.0772 N   0  0  0  0  0  0  0  0  0  0  0  0
  -25.9747  -13.9124   24.4864 N   0  0  0  0  0  0  0  0  0  0  0  0
  -22.9449  -10.6033   25.0021 N   0  0  0  0  0  0  0  0  0  0  0  0
  -27.8911  -21.3762   18.1832 N   0  0  0  0  0  0  0  0  0  0  0  0
  -22.7659  -31.0938   22.6238 N   0  0  0  0  0  0  0  0  0  0  0  0
  -21.2119  -24.4741   22.1474 N   0  0  0  0  0  0  0  0  0  0  0  0
  -21.3514  -22.4314   19.1682 N   0  3  0  0  0  0  0  0  0  0  0  0
  -23.9049  -12.4231   26.0145 O   0  0  0  0  0  0  0  0  0  0  0  0
  -23.4894  -29.1535   23.6889 O   0  0  0  0  0  0  0  0  0  0  0  0
  -20.4600  -27.2038   22.5860 O   0  0  0  0  0  0  0  0  0  0  0  0
  -23.0580  -23.5098   21.1280 O   0  0  0  0  0  0  0  0  0  0  0  0
  -27.5076  -17.2140   22.0081 O   0  0  0  0  0  0  0  0  0  0  0  0
  -21.6677   -6.6926   21.2456 O   0  0  0  0  0  0  0  0  0  0  0  0
  -28.4074  -27.4522   19.6239 O   0  0  0  0  0  0  0  0  0  1  0  0
  -21.1963   -2.6706   24.9881 F   0  0  0  0  0  0  0  0  0  0  0  0
  -20.5303   -7.1814   23.7175 F   0  0  0  0  0  0  0  0  0  0  0  0
  1  2  1  0  0  0  0
  1  5  2  0  0  0  0
  2  6  2  0  0  0  0
  3  8  2  0  0  0  0
  3 16  1  0  0  0  0
  4  9  1  0  0  0  0
  4 16  2  0  0  0  0
  5 18  1  0  0  0  0
  6 20  1  0  0  0  0
  7 10  2  0  0  0  0
  7 19  1  0  0  0  0
  8 24  1  0  0  0  0
  9 24  2  0  0  0  0
 10 25  1  0  0  0  0
 11 12  2  0  0  0  0
 11 26  1  0  0  0  0
 12 27  1  0  0  0  0
 13 21  1  0  0  0  0
 13 25  2  0  0  0  0
 14 22  1  0  0  0  0
 14 23  2  0  0  0  0
 15 27  2  0  0  0  0
 15 28  1  0  0  0  0
 16 29  1  0  0  0  0
 17 29  1  0  0  0  0
 17 32  2  0  0  0  0
 17 33  1  0  0  0  0
 18 20  2  0  0  0  0
 18 38  1  0  0  0  0
 19 21  2  0  0  0  0
 19 39  1  0  0  0  0
 20 51  1  0  0  0  0
 21 40  1  0  0  0  0
 22 30  2  0  0  0  0
 22 64  1  0  0  0  0
 23 31  1  0  0  0  0
 23 55  1  0  0  0  0
 24 85  1  0  0  0  0
 25 86  1  0  0  0  0
 26 28  2  0  0  0  0
 26 85  1  0  0  0  0
 27 87  1  0  0  0  0
 28 88  1  0  0  0  0
 29 68  2  0  0  0  0
 30 56  1  0  0  0  0
 30 69  1  0  0  0  0
 31 69  2  0  0  0  0
 31 76  1  0  0  0  0
 32 70  1  0  0  0  0
 32 74  1  0  0  0  0
 33 75  1  0  0  0  0
 33 80  2  0  0  0  0
 34 52  1  0  0  0  0
 34 77  1  0  0  0  0
 34 81  2  0  0  0  0
 35 65  1  0  0  0  0
 35 71  1  0  0  0  0
 35 82  2  0  0  0  0
 36 66  1  0  0  0  0
 36 78  1  0  0  0  0
 36 83  2  0  0  0  0
 37 72  1  0  0  0  0
 37 73  1  0  0  0  0
 37 84  2  0  0  0  0
 38 41  1  0  0  0  0
 39 52  1  0  0  0  0
 40 71  1  0  0  0  0
 41 43  1  0  0  0  0
 42 44  1  0  0  0  0
 42 47  1  0  0  0  0
 43 51  1  0  0  0  0
 44 53  1  0  0  0  0
 45 48  1  0  0  0  0
 45 54  1  0  0  0  0
 46 49  1  0  0  0  0
 46 54  1  0  0  0  0
 47 72  1  0  0  0  0
 48 73  1  0  0  0  0
 49 73  1  0  0  0  0
 50 53  1  0  0  0  0
 50 72  1  0  0  0  0
 51 77  1  0  0  0  0
 52 71  1  0  0  0  0
 53 70  1  0  0  0  0
 54 76  1  0  0  0  0
 57 64  1  0  0  0  0
 58 66  1  0  0  0  0
 59 67  1  0  0  0  0
 60 67  1  0  0  0  0
 61 67  1  0  0  0  0
 62 79  1  0  0  0  0
 63 64  1  0  0  0  0
 63 86  1  0  0  0  0
 65 67  1  0  0  0  0
 65 78  1  0  0  0  0
 66 79  1  0  0  0  0
 68 70  1  0  0  0  0
M  CHG  1  79   1
M  ISO  4  37 100  63 101  73 100  86 101
M  END
> <Batch ID>
0148

> <Smiles>
CNC(C)C(=O)NC(C(=O)N1Cc2cc([101O:1][101CH2:1]C(C)c3cc(C)c(NC4CC[100N:0]([100C:0](=O)N5CCCC(n6nc(-c7ccc(Oc8ccc(F)cc8F)cc7)c(C(N)=O)c6N)C5)CC4)nc3C)ccc2CC1C(=O)NC1CCCc2ccccc21)C(C)(C)C

> <Shape>
0.273

> <Color>
0.096

> <Negative vol penalty>
0.000

$$$$

  -OEChem-04052321363D

 88 98  0     1  0  0  0  0  0999 V2000
  -30.8243  -35.7871   24.5802 C   0  0  0  0  0  0  0  0  0  0  0  0
  -30.9882  -34.6038   23.8671 C   0  0  0  0  0  0  0  0  0  0  0  0
  -27.0548   -7.5661   22.2849 C   0  0  0  0  0  0  0  0  0  0  0  0
  -27.1167   -6.6790   20.0386 C   0  0  0  0  0  0  0  0  0  0  0  0
  -29.7883  -35.9039   25.5060 C   0  0  0  0  0  0  0  0  0  0  0  0
  -30.1168  -33.5363   24.0802 C   0  0  0  0  0  0  0  0  0  0  0  0
  -28.1453  -29.5050   19.9128 C   0  0  0  0  0  0  0  0  0  0  0  0
  -26.0901   -6.6203   22.6319 C   0  0  0  0  0  0  0  0  0  0  0  0
  -26.1520   -5.7331   20.3856 C   0  0  0  0  0  0  0  0  0  0  0  0
  -28.5534  -28.2107   19.5933 C   0  0  0  0  0  0  0  0  0  0  0  0
  -22.7615   -6.1947   22.2281 C   0  0  0  0  0  0  0  0  0  0  0  0
  -21.6603   -6.6330   22.9636 C   0  0  0  0  0  0  0  0  0  0  0  0
  -26.8168  -27.3196   21.0107 C   0  0  0  0  0  0  0  0  0  0  0  0
  -22.2448   -5.1105   24.7461 C   0  0  0  0  0  0  0  0  0  0  0  0
  -27.5681   -7.5955   20.9882 C   0  0  0  0  0  0  0  0  0  0  0  0
  -29.9622   -8.4350   20.7216 C   0  0  0  0  0  0  0  0  0  0  0  0
  -28.8979  -34.8406   25.7235 C   0  0  0  0  0  0  0  0  0  0  0  0
  -27.0750  -29.7167   20.7937 C   0  0  0  0  0  0  0  0  0  0  0  0
  -29.0688  -33.6385   25.0108 C   0  0  0  0  0  0  0  0  0  0  0  0
  -26.3954  -28.6175   21.3378 C   0  0  0  0  0  0  0  0  0  0  0  0
  -25.6387   -5.7038   21.6823 C   0  0  0  0  0  0  0  0  0  0  0  0
  -27.8910  -27.1178   20.1445 C   0  0  0  0  0  0  0  0  0  0  0  0
  -23.6043   -5.2142   22.7516 C   0  0  0  0  0  0  0  0  0  0  0  0
  -21.4019   -6.0910   24.2226 C   0  0  0  0  0  0  0  0  0  0  0  0
  -23.3459   -4.6721   24.0106 C   0  0  0  0  0  0  0  0  0  0  0  0
  -28.5642   -8.5726   20.6290 C   0  0  0  0  0  0  0  0  0  0  0  0
  -30.4561   -9.6313   20.2618 C   0  0  0  0  0  0  0  0  0  0  0  0
  -30.7443   -7.3250   21.1820 C   0  0  0  0  0  0  0  0  0  0  0  0
  -26.7449  -31.1217   23.6258 C   0  0  0  0  0  0  0  0  0  0  0  0
  -23.5976  -30.5193   23.1221 C   0  0  0  0  0  0  0  0  0  0  0  0
  -21.2231  -28.6380   21.5506 C   0  0  0  0  0  0  0  0  0  0  0  0
  -30.2350  -15.1026   20.3140 C   0  0  0  0  0  0  0  0  0  0  0  0
  -27.8221  -34.9970   26.7689 C   0  0  0  0  0  0  0  0  0  0  0  0
  -26.6299  -31.1188   21.1073 C   0  0  0  0  0  0  0  0  0  0  0  0
  -25.2274  -28.7908   22.2728 C   0  0  0  0  0  0  0  0  0  0  0  0
  -26.7143  -33.9520   26.6639 C   0  0  0  0  0  0  0  0  0  0  0  0
  -28.0711  -13.3852   17.9902 C   0  0  0  0  0  0  0  0  0  0  0  0
  -27.3098  -32.5586   26.4891 C   0  0  0  0  0  0  0  0  0  0  0  0
  -26.9593  -22.6274   21.2442 C   0  0  0  0  0  0  0  0  0  0  0  0
  -29.2557  -23.0795   22.2024 C   0  0  0  0  0  0  0  0  0  0  0  0
  -28.1422  -11.9406   18.4842 C   0  0  0  0  0  0  0  0  0  0  0  0
  -30.8410  -18.7567   24.3021 C   0  0  0  0  0  0  0  0  0  0  0  0
  -30.2389  -19.9245   25.0307 C   0  0  0  0  0  0  0  0  0  0  0  0
  -27.1405  -23.7889   20.2717 C   0  0  0  0  0  0  0  0  0  0  0  0
  -29.4303  -24.2402   21.2276 C   0  0  0  0  0  0  0  0  0  0  0  0
  -28.4127  -17.8470   21.8136 C   0  0  0  0  0  0  0  0  0  0  0  0
  -28.1224  -14.3882   19.1438 C   0  0  0  0  0  0  0  0  0  0  0  0
  -28.4287  -16.8086   20.6961 C   0  0  0  0  0  0  0  0  0  0  0  0
  -30.6760  -17.5633   19.9878 C   0  0  0  0  0  0  0  0  0  0  0  0
  -29.3510  -12.7599   20.5425 C   0  0  0  0  0  0  0  0  0  0  0  0
  -28.1290  -32.4669   25.1960 C   0  0  1  0  0  0  0  0  0  0  0  0
  -25.8563  -31.2210   22.4182 C   0  0  1  0  0  0  0  0  0  0  0  0
  -28.3066  -22.0100   21.6443 C   0  0  0  0  0  0  0  0  0  0  0  0
  -30.7213  -18.6184   21.1041 C   0  0  2  0  0  0  0  0  0  0  0  0
  -29.3594  -11.7298   19.4022 C   0  0  1  0  0  0  0  0  0  0  0  0
  -29.4660  -19.2403   23.9395 C   0  0  0  0  0  0  0  0  0  0  0  0
  -29.2883  -19.0503   21.4630 C   0  0  2  0  0  0  0  0  0  0  0  0
  -28.0875  -24.8486   20.8286 C   0  0  0  0  0  0  0  0  0  1  0  0
  -31.5984  -19.7936   20.6654 C   0  0  0  0  0  0  0  0  0  0  0  0
  -18.7362  -28.3571   21.3666 C   0  0  0  0  0  0  0  0  0  0  0  0
  -23.5544  -29.1402   25.8435 C   0  0  0  0  0  0  0  0  0  0  0  0
  -21.3804  -28.0815   25.1947 C   0  0  0  0  0  0  0  0  0  0  0  0
  -21.5553  -30.5642   25.3638 C   0  0  0  0  0  0  0  0  0  0  0  0
  -21.2527  -29.2413   18.6534 C   0  0  0  0  0  0  0  0  0  0  0  0
  -28.1046  -20.8859   22.6588 C   0  0  0  0  0  0  0  0  0  0  0  0
  -22.6659  -29.3722   23.4304 C   0  0  1  0  0  0  0  0  0  0  0  0
  -19.9710  -29.0292   20.7867 C   0  0  2  0  0  0  0  0  0  0  0  0
  -22.3122  -29.2859   24.9420 C   0  0  0  0  0  0  0  0  0  0  0  0
  -28.1939   -9.7625   20.1484 N   0  0  0  0  0  0  0  0  0  0  0  0
  -29.3665  -10.3835   19.9349 N   0  0  0  0  0  0  0  0  0  0  0  0
  -24.8340  -30.1814   22.5538 N   0  0  0  0  0  0  0  0  0  0  0  0
  -29.2764  -14.1232   20.0133 N   0  0  0  0  0  0  0  0  0  0  0  0
  -29.7955  -16.4371   20.3325 N   0  0  0  0  0  0  0  0  0  0  0  0
  -31.7119  -10.1026   20.1095 N   0  0  0  0  0  0  0  0  0  0  0  0
  -30.0767   -6.1730   21.6194 N   0  0  0  0  0  0  0  0  0  0  0  0
  -27.2534  -32.3340   24.0514 N   0  0  0  0  0  0  0  0  0  0  0  0
  -21.5107  -29.5379   22.5550 N   0  0  0  0  0  0  0  0  0  0  0  0
  -20.0929  -28.6336   19.3550 N   0  3  0  0  0  0  0  0  0  0  0  0
  -29.3027  -19.9720   22.6320 N   0  3  1  0  0  0  0  0  0  0  0  0
  -31.9977   -7.3601   21.2202 O   0  0  0  0  0  0  0  0  0  0  0  0
  -26.9526  -30.0264   24.1347 O   0  0  0  0  0  0  0  0  0  0  0  0
  -23.2386  -31.6733   23.3695 O   0  0  0  0  0  0  0  0  0  0  0  0
  -21.8783  -27.6326   21.2855 O   0  0  0  0  0  0  0  0  0  0  0  0
  -31.4130  -14.8062   20.5491 O   0  0  0  0  0  0  0  0  0  0  0  0
  -24.6975   -4.7806   22.0206 O   0  0  0  0  0  0  0  0  0  0  0  0
  -28.2904  -25.8452   19.8328 O   0  0  0  0  0  0  0  0  0  1  0  0
  -20.3453   -6.5131   24.9294 F   0  0  0  0  0  0  0  0  0  0  0  0
  -24.1527   -3.7307   24.5193 F   0  0  0  0  0  0  0  0  0  0  0  0
  1  2  1  0  0  0  0
  1  5  2  0  0  0  0
  2  6  2  0  0  0  0
  3  8  2  0  0  0  0
  3 15  1  0  0  0  0
  4  9  1  0  0  0  0
  4 15  2  0  0  0  0
  5 17  1  0  0  0  0
  6 19  1  0  0  0  0
  7 10  2  0  0  0  0
  7 18  1  0  0  0  0
  8 21  1  0  0  0  0
  9 21  2  0  0  0  0
 10 22  1  0  0  0  0
 11 12  2  0  0  0  0
 11 23  1  0  0  0  0
 12 24  1  0  0  0  0
 13 20  1  0  0  0  0
 13 22  2  0  0  0  0
 14 24  2  0  0  0  0
 14 25  1  0  0  0  0
 15 26  1  0  0  0  0
 16 26  1  0  0  0  0
 16 27  2  0  0  0  0
 16 28  1  0  0  0  0
 17 19  2  0  0  0  0
 17 33  1  0  0  0  0
 18 20  2  0  0  0  0
 18 34  1  0  0  0  0
 19 51  1  0  0  0  0
 20 35  1  0  0  0  0
 21 85  1  0  0  0  0
 22 86  1  0  0  0  0
 23 25  2  0  0  0  0
 23 85  1  0  0  0  0
 24 87  1  0  0  0  0
 25 88  1  0  0  0  0
 26 69  2  0  0  0  0
 27 70  1  0  0  0  0
 27 74  1  0  0  0  0
 28 75  1  0  0  0  0
 28 80  2  0  0  0  0
 29 52  1  0  0  0  0
 29 76  1  0  0  0  0
 29 81  2  0  0  0  0
 30 66  1  0  0  0  0
 30 71  1  0  0  0  0
 30 82  2  0  0  0  0
 31 67  1  0  0  0  0
 31 77  1  0  0  0  0
 31 83  2  0  0  0  0
 32 72  1  0  0  0  0
 32 73  1  0  0  0  0
 32 84  2  0  0  0  0
 33 36  1  0  0  0  0
 34 52  1  0  0  0  0
 35 71  1  0  0  0  0
 36 38  1  0  0  0  0
 37 41  1  0  0  0  0
 37 47  1  0  0  0  0
 38 51  1  0  0  0  0
 39 44  1  0  0  0  0
 39 53  1  0  0  0  0
 40 45  1  0  0  0  0
 40 53  1  0  0  0  0
 41 55  1  0  0  0  0
 42 43  1  0  0  0  0
 42 56  1  0  0  0  0
 43 56  1  0  0  0  0
 44 58  1  0  0  0  0
 45 58  1  0  0  0  0
 46 48  1  0  0  0  0
 46 57  1  0  0  0  0
 47 72  1  0  0  0  0
 48 73  1  0  0  0  0
 49 54  1  0  0  0  0
 49 73  1  0  0  0  0
 50 55  1  0  0  0  0
 50 72  1  0  0  0  0
 51 76  1  0  0  0  0
 52 71  1  0  0  0  0
 53 65  1  0  0  0  0
 54 57  1  0  0  0  0
 54 59  1  0  0  0  0
 55 70  1  0  0  0  0
 56 79  1  0  0  0  0
 57 79  1  0  0  0  0
 58 86  1  0  0  0  0
 60 67  1  0  0  0  0
 61 68  1  0  0  0  0
 62 68  1  0  0  0  0
 63 68  1  0  0  0  0
 64 78  1  0  0  0  0
 65 79  1  0  0  0  0
 66 68  1  0  0  0  0
 66 77  1  0  0  0  0
 67 78  1  0  0  0  0
 69 70  1  0  0  0  0
M  CHG  2  78   1  79   1
M  ISO  4  32 100  58 101  73 100  86 101
M  END
> <Batch ID>
0148

> <Smiles>
CNC(C)C(=O)NC(C(=O)N1Cc2cc([101O:1][101CH:1]3CCC(CN(C4CC4)C4CC[100N:0]([100C:0](=O)N5CCCC(n6nc(-c7ccc(Oc8ccc(F)cc8F)cc7)c(C(N)=O)c6N)C5)CC4C)CC3)ccc2CC1C(=O)NC1CCCc2ccccc21)C(C)(C)C

> <Shape>
0.244

> <Color>
0.077

> <Negative vol penalty>
0.000

$$$$

  -OEChem-04052321363D

 87 97  0     1  0  0  0  0  0999 V2000
  -29.7310  -31.5849   25.9706 C   0  0  0  0  0  0  0  0  0  0  0  0
  -29.4646  -30.6927   24.9369 C   0  0  0  0  0  0  0  0  0  0  0  0
  -24.4395   -9.0863   21.5218 C   0  0  0  0  0  0  0  0  0  0  0  0
  -24.1939  -10.6176   23.3744 C   0  0  0  0  0  0  0  0  0  0  0  0
  -28.7056  -31.9844   26.8267 C   0  0  0  0  0  0  0  0  0  0  0  0
  -28.1728  -30.1985   24.7595 C   0  0  0  0  0  0  0  0  0  0  0  0
  -26.7226  -30.2498   19.9078 C   0  0  0  0  0  0  0  0  0  0  0  0
  -24.0320   -8.0321   22.3391 C   0  0  0  0  0  0  0  0  0  0  0  0
  -23.7863   -9.5633   24.1917 C   0  0  0  0  0  0  0  0  0  0  0  0
  -27.2150  -29.2374   19.0853 C   0  0  0  0  0  0  0  0  0  0  0  0
  -22.7098   -4.9976   23.8422 C   0  0  0  0  0  0  0  0  0  0  0  0
  -21.7799   -4.0968   23.3233 C   0  0  0  0  0  0  0  0  0  0  0  0
  -25.1291  -28.0471   19.3117 C   0  0  0  0  0  0  0  0  0  0  0  0
  -26.9155  -25.4650   19.7117 C   0  0  0  0  0  0  0  0  0  0  0  0
  -26.2522  -24.8857   17.4619 C   0  0  0  0  0  0  0  0  0  0  0  0
  -20.1961   -5.8982   23.0342 C   0  0  0  0  0  0  0  0  0  0  0  0
  -24.5205  -10.3791   22.0394 C   0  0  0  0  0  0  0  0  0  0  0  0
  -24.1237  -12.2959   20.4036 C   0  0  0  0  0  0  0  0  0  0  0  0
  -27.3986  -31.5023   26.6538 C   0  0  0  0  0  0  0  0  0  0  0  0
  -25.4315  -30.1629   20.4481 C   0  0  0  0  0  0  0  0  0  0  0  0
  -27.1293  -30.5909   25.6150 C   0  0  0  0  0  0  0  0  0  0  0  0
  -24.6217  -29.0608   20.1387 C   0  0  0  0  0  0  0  0  0  0  0  0
  -26.7065  -24.1456   20.1130 C   0  0  0  0  0  0  0  0  0  0  0  0
  -26.0432  -23.5662   17.8633 C   0  0  0  0  0  0  0  0  0  0  0  0
  -26.2704  -23.1962   19.1889 C   0  0  0  0  0  0  0  0  0  0  0  0
  -23.7054   -8.2705   23.6741 C   0  0  0  0  0  0  0  0  0  0  0  0
  -26.4194  -28.1345   18.7895 C   0  0  0  0  0  0  0  0  0  0  0  0
  -22.3828   -6.3488   23.9572 C   0  0  0  0  0  0  0  0  0  0  0  0
  -26.6883  -25.8350   18.3861 C   0  0  0  0  0  0  0  0  0  1  0  0
  -20.5231   -4.5470   22.9192 C   0  0  0  0  0  0  0  0  0  0  0  0
  -21.1260   -6.7991   23.5532 C   0  0  0  0  0  0  0  0  0  0  0  0
  -24.9420  -11.4685   21.1958 C   0  0  0  0  0  0  0  0  0  0  0  0
  -24.9977  -13.1671   19.8006 C   0  0  0  0  0  0  0  0  0  0  0  0
  -22.7008  -12.2787   20.2286 C   0  0  0  0  0  0  0  0  0  0  0  0
  -24.2363  -30.0148   23.3898 C   0  0  0  0  0  0  0  0  0  0  0  0
  -21.4013  -30.2430   21.8298 C   0  0  0  0  0  0  0  0  0  0  0  0
  -19.6369  -29.7848   18.9448 C   0  0  0  0  0  0  0  0  0  0  0  0
  -29.3982  -16.5911   20.0402 C   0  0  0  0  0  0  0  0  0  0  0  0
  -26.3330  -31.9261   27.6334 C   0  0  0  0  0  0  0  0  0  0  0  0
  -24.9053  -31.2762   21.3120 C   0  0  0  0  0  0  0  0  0  0  0  0
  -23.2212  -28.9298   20.6771 C   0  0  0  0  0  0  0  0  0  0  0  0
  -24.9131  -31.6465   27.1476 C   0  0  0  0  0  0  0  0  0  0  0  0
  -30.0502  -13.1237   19.5624 C   0  0  0  0  0  0  0  0  0  0  0  0
  -25.8046  -23.7786   22.5059 C   0  0  0  0  0  0  0  0  0  0  0  0
  -26.8583  -24.8375   22.5983 C   0  0  0  0  0  0  0  0  0  0  0  0
  -24.8103  -30.2327   26.5843 C   0  0  0  0  0  0  0  0  0  0  0  0
  -27.5314  -20.4374   18.0318 C   0  0  0  0  0  0  0  0  0  0  0  0
  -28.7142  -12.4523   19.8853 C   0  0  0  0  0  0  0  0  0  0  0  0
  -28.1029  -19.0206   18.1495 C   0  0  0  0  0  0  0  0  0  0  0  0
  -27.2600  -19.6486   20.3028 C   0  0  0  0  0  0  0  0  0  0  0  0
  -30.3099  -14.3274   20.4655 C   0  0  0  0  0  0  0  0  0  0  0  0
  -27.8922  -14.6585   20.8105 C   0  0  0  0  0  0  0  0  0  0  0  0
  -26.9569  -23.7741   21.5373 C   0  0  0  0  0  0  0  0  0  0  0  0
  -25.7357  -30.0519   25.3750 C   0  0  1  0  0  0  0  0  0  0  0  0
  -23.7640  -30.8364   22.2238 C   0  0  1  0  0  0  0  0  0  0  0  0
  -27.3004  -20.9272   19.4672 C   0  0  2  0  0  0  0  0  0  0  0  0
  -27.5602  -13.4728   19.8884 C   0  0  2  0  0  0  0  0  0  0  0  0
  -28.3356  -18.7981   19.6414 C   0  0  1  0  0  0  0  0  0  0  0  0
  -25.5750  -22.5694   16.8539 C   0  0  0  0  0  0  0  0  0  0  0  0
  -17.3299  -30.0259   17.9872 C   0  0  0  0  0  0  0  0  0  0  0  0
  -20.5250  -27.7246   23.3131 C   0  0  0  0  0  0  0  0  0  0  0  0
  -18.6625  -27.4818   21.6578 C   0  0  0  0  0  0  0  0  0  0  0  0
  -18.7660  -29.4929   23.1301 C   0  0  0  0  0  0  0  0  0  0  0  0
  -20.5580  -31.7290   16.9124 C   0  0  0  0  0  0  0  0  0  0  0  0
  -26.0460  -21.7808   19.6179 C   0  0  0  0  0  0  0  0  0  0  0  0
  -20.4249  -29.2561   21.2369 C   0  0  1  0  0  0  0  0  0  0  0  0
  -18.6806  -30.6936   18.1938 C   0  0  2  0  0  0  0  0  0  0  0  0
  -19.6217  -28.4901   22.3257 C   0  0  0  0  0  0  0  0  0  0  0  0
  -26.2364  -11.7854   21.1061 N   0  0  0  0  0  0  0  0  0  0  0  0
  -26.2381  -12.8217   20.2504 N   0  0  0  0  0  0  0  0  0  0  0  0
  -22.7543  -30.0412   21.5222 N   0  0  0  0  0  0  0  0  0  0  0  0
  -29.1787  -15.2572   20.4218 N   0  0  0  0  0  0  0  0  0  0  0  0
  -24.8186  -14.1871   18.9346 N   0  0  0  0  0  0  0  0  0  0  0  0
  -21.9537  -11.3175   20.9231 N   0  0  0  0  0  0  0  0  0  0  0  0
  -25.1533  -30.6595   24.1977 N   0  0  0  0  0  0  0  0  0  0  0  0
  -19.5961  -30.0120   20.3041 N   0  0  0  0  0  0  0  0  0  0  0  0
  -28.2714  -17.4039   20.0191 N   0  0  0  0  0  0  0  0  0  0  0  0
  -19.2406  -31.0444   16.8580 N   0  3  0  0  0  0  0  0  0  0  0  0
  -22.1109  -13.0811   19.4659 O   0  0  0  0  0  0  0  0  0  0  0  0
  -23.7998  -28.8804   23.5458 O   0  0  0  0  0  0  0  0  0  0  0  0
  -20.9785  -31.1633   22.5340 O   0  0  0  0  0  0  0  0  0  0  0  0
  -20.3462  -28.9536   18.3821 O   0  0  0  0  0  0  0  0  0  0  0  0
  -30.5146  -17.0242   19.7353 O   0  0  0  0  0  0  0  0  0  0  0  0
  -23.3074   -7.2421   24.4719 O   0  0  0  0  0  0  0  0  0  0  0  0
  -26.8978  -27.1447   17.9875 O   0  0  0  0  0  0  0  0  0  1  0  0
  -19.6307   -3.6821   22.4195 F   0  0  0  0  0  0  0  0  0  0  0  0
  -20.8066   -8.0961   23.6601 F   0  0  0  0  0  0  0  0  0  0  0  0
  1  2  1  0  0  0  0
  1  5  2  0  0  0  0
  2  6  2  0  0  0  0
  3  8  2  0  0  0  0
  3 17  1  0  0  0  0
  4  9  1  0  0  0  0
  4 17  2  0  0  0  0
  5 19  1  0  0  0  0
  6 21  1  0  0  0  0
  7 10  2  0  0  0  0
  7 20  1  0  0  0  0
  8 26  1  0  0  0  0
  9 26  2  0  0  0  0
 10 27  1  0  0  0  0
 11 12  2  0  0  0  0
 11 28  1  0  0  0  0
 12 30  1  0  0  0  0
 13 22  1  0  0  0  0
 13 27  2  0  0  0  0
 14 23  1  0  0  0  0
 14 29  2  0  0  0  0
 15 24  2  0  0  0  0
 15 29  1  0  0  0  0
 16 30  2  0  0  0  0
 16 31  1  0  0  0  0
 17 32  1  0  0  0  0
 18 32  1  0  0  0  0
 18 33  2  0  0  0  0
 18 34  1  0  0  0  0
 19 21  2  0  0  0  0
 19 39  1  0  0  0  0
 20 22  2  0  0  0  0
 20 40  1  0  0  0  0
 21 54  1  0  0  0  0
 22 41  1  0  0  0  0
 23 25  2  0  0  0  0
 23 53  1  0  0  0  0
 24 25  1  0  0  0  0
 24 59  1  0  0  0  0
 25 65  1  0  0  0  0
 26 84  1  0  0  0  0
 27 85  1  0  0  0  0
 28 31  2  0  0  0  0
 28 84  1  0  0  0  0
 29 85  1  0  0  0  0
 30 86  1  0  0  0  0
 31 87  1  0  0  0  0
 32 69  2  0  0  0  0
 33 70  1  0  0  0  0
 33 73  1  0  0  0  0
 34 74  1  0  0  0  0
 34 79  2  0  0  0  0
 35 55  1  0  0  0  0
 35 75  1  0  0  0  0
 35 80  2  0  0  0  0
 36 66  1  0  0  0  0
 36 71  1  0  0  0  0
 36 81  2  0  0  0  0
 37 67  1  0  0  0  0
 37 76  1  0  0  0  0
 37 82  2  0  0  0  0
 38 72  1  0  0  0  0
 38 77  1  0  0  0  0
 38 83  2  0  0  0  0
 39 42  1  0  0  0  0
 40 55  1  0  0  0  0
 41 71  1  0  0  0  0
 42 46  1  0  0  0  0
 43 48  1  0  0  0  0
 43 51  1  0  0  0  0
 44 45  1  0  0  0  0
 44 53  1  0  0  0  0
 45 53  1  0  0  0  0
 46 54  1  0  0  0  0
 47 49  1  0  0  0  0
 47 56  1  0  0  0  0
 48 57  1  0  0  0  0
 49 58  1  0  0  0  0
 50 56  1  0  0  0  0
 50 58  1  0  0  0  0
 51 72  1  0  0  0  0
 52 57  1  0  0  0  0
 52 72  1  0  0  0  0
 54 75  1  0  0  0  0
 55 71  1  0  0  0  0
 56 65  1  0  0  0  0
 57 70  1  0  0  0  0
 58 77  1  0  0  0  0
 60 67  1  0  0  0  0
 61 68  1  0  0  0  0
 62 68  1  0  0  0  0
 63 68  1  0  0  0  0
 64 78  1  0  0  0  0
 66 68  1  0  0  0  0
 66 76  1  0  0  0  0
 67 78  1  0  0  0  0
 69 70  1  0  0  0  0
M  CHG  1  78   1
M  ISO  4  29 101  38 100  77 100  85 101
M  END
> <Batch ID>
0148

> <Smiles>
CNC(C)C(=O)NC(C(=O)N1Cc2cc([101O:1][101c:1]3cc(C)c(CC4CCC([100NH:0][100C:0](=O)N5CCCC(n6nc(-c7ccc(Oc8ccc(F)cc8F)cc7)c(C(N)=O)c6N)C5)C4)c(C4CC4)c3)ccc2CC1C(=O)NC1CCCc2ccccc21)C(C)(C)C

> <Shape>
0.311

> <Color>
0.105

> <Negative vol penalty>
0.000

$$$$

  -OEChem-04052321363D

 87 96  0     1  0  0  0  0  0999 V2000
  -27.7597  -32.9872   24.5636 C   0  0  0  0  0  0  0  0  0  0  0  0
  -27.9051  -32.0458   23.5497 C   0  0  0  0  0  0  0  0  0  0  0  0
  -24.9629  -13.8952   21.3730 C   0  0  0  0  0  0  0  0  0  0  0  0
  -27.1181  -13.2678   20.4796 C   0  0  0  0  0  0  0  0  0  0  0  0
  -27.4691  -32.5718   25.8624 C   0  0  0  0  0  0  0  0  0  0  0  0
  -27.7610  -30.6884   23.8342 C   0  0  0  0  0  0  0  0  0  0  0  0
  -24.9405  -28.2707   20.3926 C   0  0  0  0  0  0  0  0  0  0  0  0
  -24.4024  -12.7370   20.8345 C   0  0  0  0  0  0  0  0  0  0  0  0
  -26.5576  -12.1095   19.9411 C   0  0  0  0  0  0  0  0  0  0  0  0
  -25.5525  -27.9448   19.1831 C   0  0  0  0  0  0  0  0  0  0  0  0
  -24.2649   -9.4469   21.6019 C   0  0  0  0  0  0  0  0  0  0  0  0
  -23.4077   -8.7037   22.4134 C   0  0  0  0  0  0  0  0  0  0  0  0
  -30.5960  -26.7794   21.7693 C   0  0  0  0  0  0  0  0  0  0  0  0
  -25.8765  -25.6851   19.9629 C   0  0  0  0  0  0  0  0  0  0  0  0
  -21.6221   -9.0203   20.8169 C   0  0  0  0  0  0  0  0  0  0  0  0
  -26.3207  -14.1606   21.1955 C   0  0  0  0  0  0  0  0  0  0  0  0
  -27.4741  -15.5103   23.0274 C   0  0  0  0  0  0  0  0  0  0  0  0
  -27.3118  -31.2092   26.1611 C   0  0  0  0  0  0  0  0  0  0  0  0
  -24.8014  -27.3075   21.4022 C   0  0  0  0  0  0  0  0  0  0  0  0
  -27.4693  -30.2543   25.1385 C   0  0  0  0  0  0  0  0  0  0  0  0
  -31.0213  -25.4577   21.8421 C   0  0  0  0  0  0  0  0  0  0  0  0
  -25.2600  -26.0006   21.1833 C   0  0  0  0  0  0  0  0  0  0  0  0
  -30.2471  -27.3249   20.5388 C   0  0  0  0  0  0  0  0  0  0  0  0
  -25.1998  -11.8442   20.1185 C   0  0  0  0  0  0  0  0  0  0  0  0
  -26.0232  -26.6526   18.9692 C   0  0  0  0  0  0  0  0  0  0  0  0
  -23.8007   -9.9768   20.3980 C   0  0  0  0  0  0  0  0  0  0  0  0
  -22.0863   -8.4904   22.0209 C   0  0  0  0  0  0  0  0  0  0  0  0
  -22.4793   -9.7635   20.0055 C   0  0  0  0  0  0  0  0  0  0  0  0
  -26.9001  -15.3572   21.7511 C   0  0  0  0  0  0  0  0  0  0  0  0
  -31.0797  -24.7294   20.6648 C   0  0  0  0  0  0  0  0  0  0  0  0
  -30.3403  -26.5131   19.4198 C   0  0  0  0  0  0  0  0  0  0  0  0
  -27.8744  -16.8236   23.0685 C   0  0  0  0  0  0  0  0  0  0  0  0
  -27.6313  -14.5513   24.0815 C   0  0  0  0  0  0  0  0  0  0  0  0
  -25.8652  -27.0125   24.3830 C   0  0  0  0  0  0  0  0  0  0  0  0
  -23.9409  -24.4012   24.3974 C   0  0  0  0  0  0  0  0  0  0  0  0
  -22.3371  -21.9743   22.6128 C   0  0  0  0  0  0  0  0  0  0  0  0
  -30.3832  -21.1060   20.7634 C   0  0  0  0  0  0  0  0  0  0  0  0
  -27.0447  -30.8053   27.5895 C   0  0  0  0  0  0  0  0  0  0  0  0
  -24.1148  -27.6679   22.6911 C   0  0  0  0  0  0  0  0  0  0  0  0
  -25.1168  -24.9246   22.2274 C   0  0  0  0  0  0  0  0  0  0  0  0
  -26.5374  -29.3727   27.7326 C   0  0  0  0  0  0  0  0  0  0  0  0
  -26.8883  -20.6682   19.9320 C   0  0  0  0  0  0  0  0  0  0  0  0
  -30.3637  -24.0931   23.9348 C   0  0  0  0  0  0  0  0  0  0  0  0
  -30.8030  -25.4402   24.4170 C   0  0  0  0  0  0  0  0  0  0  0  0
  -27.3826  -28.4206   26.8924 C   0  0  0  0  0  0  0  0  0  0  0  0
  -26.6298  -19.2493   20.4419 C   0  0  0  0  0  0  0  0  0  0  0  0
  -28.2816  -20.7912   19.3223 C   0  0  0  0  0  0  0  0  0  0  0  0
  -29.1337  -18.9657   20.7419 C   0  0  0  0  0  0  0  0  0  0  0  0
  -31.3971  -24.8660   23.1567 C   0  0  0  0  0  0  0  0  0  0  0  0
  -27.2959  -28.7744   25.4028 C   0  0  1  0  0  0  0  0  0  0  0  0
  -24.4881  -26.7434   23.8458 C   0  0  1  0  0  0  0  0  0  0  0  0
  -27.7496  -18.7820   21.3905 C   0  0  2  0  0  0  0  0  0  0  0  0
  -29.7900  -28.7395   20.4485 C   0  0  0  0  0  0  0  0  0  0  0  0
  -32.7832  -23.0684   19.8277 C   0  0  0  0  0  0  0  0  0  0  0  0
  -20.8716  -19.9583   22.9044 C   0  0  0  0  0  0  0  0  0  0  0  0
  -26.3577  -22.7802   25.3148 C   0  0  0  0  0  0  0  0  0  0  0  0
  -25.1175  -20.7009   24.6770 C   0  0  0  0  0  0  0  0  0  0  0  0
  -24.2127  -22.1936   26.4591 C   0  0  0  0  0  0  0  0  0  0  0  0
  -20.1452  -23.1969   21.0444 C   0  0  0  0  0  0  0  0  0  0  0  0
  -28.4885  -26.7908   16.3317 C   0  0  0  0  0  0  0  0  0  0  0  0
  -27.3211  -27.3748   17.1118 C   0  0  0  0  0  0  0  0  0  1  0  0
  -29.4869  -26.0911   17.2405 C   0  0  0  0  0  0  0  0  0  0  0  0
  -31.5297  -23.3050   20.6808 C   0  0  2  0  0  0  0  0  0  0  0  0
  -24.1147  -22.9432   24.0466 C   0  0  1  0  0  0  0  0  0  0  0  0
  -20.9099  -21.4601   22.6685 C   0  0  2  0  0  0  0  0  0  0  0  0
  -24.9552  -22.1750   25.1052 C   0  0  0  0  0  0  0  0  0  0  0  0
  -26.9310  -16.4832   21.0334 N   0  0  0  0  0  0  0  0  0  0  0  0
  -30.7490  -25.2248   19.4512 N   0  0  0  0  0  0  0  0  0  0  0  0
  -27.5290  -17.3565   21.8615 N   0  0  0  0  0  0  0  0  0  0  0  0
  -24.4441  -25.3279   23.4734 N   0  0  0  0  0  0  0  0  0  0  0  0
  -29.3023  -20.3484   20.2825 N   0  0  0  0  0  0  0  0  0  0  0  0
  -28.4845  -17.5629   24.0191 N   0  0  0  0  0  0  0  0  0  0  0  0
  -27.1641  -13.2465   23.8729 N   0  0  0  0  0  0  0  0  0  0  0  0
  -26.0474  -28.3027   24.8432 N   0  0  0  0  0  0  0  0  0  0  0  0
  -22.7720  -22.4085   23.8471 N   0  0  0  0  0  0  0  0  0  0  0  0
  -30.4752  -22.4031   20.2739 N   0  0  0  0  0  0  0  0  0  0  0  0
  -20.2034  -21.7531   21.3894 N   0  3  0  0  0  0  0  0  0  0  0  0
  -28.1554  -14.8470   25.1821 O   0  0  0  0  0  0  0  0  0  0  0  0
  -26.7003  -26.1157   24.3816 O   0  0  0  0  0  0  0  0  0  0  0  0
  -23.3731  -24.7066   25.4490 O   0  0  0  0  0  0  0  0  0  0  0  0
  -23.0010  -21.9860   21.5786 O   0  0  0  0  0  0  0  0  0  0  0  0
  -31.2032  -20.6610   21.5738 O   0  0  0  0  0  0  0  0  0  0  0  0
  -24.6533  -10.7138   19.5931 O   0  0  0  0  0  0  0  0  0  0  0  0
  -26.6216  -26.3320   17.7898 O   0  0  0  0  0  0  0  0  0  1  0  0
  -30.0051  -27.0141   18.1889 O   0  0  0  0  0  0  0  0  0  0  0  0
  -21.2636   -7.7755   22.7995 F   0  0  0  0  0  0  0  0  0  0  0  0
  -22.0280  -10.2691   18.8494 F   0  0  0  0  0  0  0  0  0  0  0  0
  1  2  1  0  0  0  0
  1  5  2  0  0  0  0
  2  6  2  0  0  0  0
  3  8  2  0  0  0  0
  3 16  1  0  0  0  0
  4  9  1  0  0  0  0
  4 16  2  0  0  0  0
  5 18  1  0  0  0  0
  6 20  1  0  0  0  0
  7 10  2  0  0  0  0
  7 19  1  0  0  0  0
  8 24  1  0  0  0  0
  9 24  2  0  0  0  0
 10 25  1  0  0  0  0
 11 12  2  0  0  0  0
 11 26  1  0  0  0  0
 12 27  1  0  0  0  0
 13 21  2  0  0  0  0
 13 23  1  0  0  0  0
 14 22  1  0  0  0  0
 14 25  2  0  0  0  0
 15 27  2  0  0  0  0
 15 28  1  0  0  0  0
 16 29  1  0  0  0  0
 17 29  1  0  0  0  0
 17 32  2  0  0  0  0
 17 33  1  0  0  0  0
 18 20  2  0  0  0  0
 18 38  1  0  0  0  0
 19 22  2  0  0  0  0
 19 39  1  0  0  0  0
 20 50  1  0  0  0  0
 21 30  1  0  0  0  0
 21 49  1  0  0  0  0
 22 40  1  0  0  0  0
 23 31  2  0  0  0  0
 23 53  1  0  0  0  0
 24 83  1  0  0  0  0
 25 84  1  0  0  0  0
 26 28  2  0  0  0  0
 26 83  1  0  0  0  0
 27 86  1  0  0  0  0
 28 87  1  0  0  0  0
 29 67  2  0  0  0  0
 30 63  1  0  0  0  0
 30 68  2  0  0  0  0
 31 68  1  0  0  0  0
 31 85  1  0  0  0  0
 32 69  1  0  0  0  0
 32 72  1  0  0  0  0
 33 73  1  0  0  0  0
 33 78  2  0  0  0  0
 34 51  1  0  0  0  0
 34 74  1  0  0  0  0
 34 79  2  0  0  0  0
 35 64  1  0  0  0  0
 35 70  1  0  0  0  0
 35 80  2  0  0  0  0
 36 65  1  0  0  0  0
 36 75  1  0  0  0  0
 36 81  2  0  0  0  0
 37 71  1  0  0  0  0
 37 76  1  0  0  0  0
 37 82  2  0  0  0  0
 38 41  1  0  0  0  0
 39 51  1  0  0  0  0
 40 70  1  0  0  0  0
 41 45  1  0  0  0  0
 42 46  1  0  0  0  0
 42 47  1  0  0  0  0
 43 44  1  0  0  0  0
 43 49  1  0  0  0  0
 44 49  1  0  0  0  0
 45 50  1  0  0  0  0
 46 52  1  0  0  0  0
 47 71  1  0  0  0  0
 48 52  1  0  0  0  0
 48 71  1  0  0  0  0
 50 74  1  0  0  0  0
 51 70  1  0  0  0  0
 52 69  1  0  0  0  0
 54 63  1  0  0  0  0
 55 65  1  0  0  0  0
 56 66  1  0  0  0  0
 57 66  1  0  0  0  0
 58 66  1  0  0  0  0
 59 77  1  0  0  0  0
 60 61  1  0  0  0  0
 60 62  1  0  0  0  0
 61 84  1  0  0  0  0
 62 85  1  0  0  0  0
 63 76  1  0  0  0  0
 64 66  1  0  0  0  0
 64 75  1  0  0  0  0
 65 77  1  0  0  0  0
 67 69  1  0  0  0  0
M  CHG  1  77   1
M  ISO  4  37 100  61 101  76 100  84 101
M  END
> <Batch ID>
0148

> <Smiles>
CNC(C)C(=O)NC(C(=O)N1Cc2cc([101O:1][101CH2:1]CCOc3nc(C(C)[100NH:0][100C:0](=O)N4CCCC(n5nc(-c6ccc(Oc7ccc(F)cc7F)cc6)c(C(N)=O)c5N)C4)c(C4CC4)cc3C)ccc2CC1C(=O)NC1CCCc2ccccc21)C(C)(C)C

> <Shape>
0.210

> <Color>
0.053

> <Negative vol penalty>
0.000

$$$$

  -OEChem-04052321363D

 87 96  0     1  0  0  0  0  0999 V2000
  -20.3579  -34.8131   21.7338 C   0  0  0  0  0  0  0  0  0  0  0  0
  -21.6056  -34.2755   21.4343 C   0  0  0  0  0  0  0  0  0  0  0  0
  -27.8308  -12.3626   23.0509 C   0  0  0  0  0  0  0  0  0  0  0  0
  -26.5792  -13.0924   21.1175 C   0  0  0  0  0  0  0  0  0  0  0  0
  -19.4871  -34.1235   22.5766 C   0  0  0  0  0  0  0  0  0  0  0  0
  -21.9837  -33.0485   21.9783 C   0  0  0  0  0  0  0  0  0  0  0  0
  -25.4371  -28.6794   19.2615 C   0  0  0  0  0  0  0  0  0  0  0  0
  -26.7338  -11.6149   23.4789 C   0  0  0  0  0  0  0  0  0  0  0  0
  -25.4822  -12.3446   21.5454 C   0  0  0  0  0  0  0  0  0  0  0  0
  -26.7857  -28.3360   19.3453 C   0  0  0  0  0  0  0  0  0  0  0  0
  -24.5094   -9.1084   21.5106 C   0  0  0  0  0  0  0  0  0  0  0  0
  -23.8427   -8.3362   20.5595 C   0  0  0  0  0  0  0  0  0  0  0  0
  -26.2558  -26.6903   21.0273 C   0  0  0  0  0  0  0  0  0  0  0  0
  -27.7397  -20.5957   17.8754 C   0  0  0  0  0  0  0  0  0  0  0  0
  -21.8079   -9.5668   20.9867 C   0  0  0  0  0  0  0  0  0  0  0  0
  -27.7535  -13.1014   21.8703 C   0  0  0  0  0  0  0  0  0  0  0  0
  -29.9323  -13.4461   20.5889 C   0  0  0  0  0  0  0  0  0  0  0  0
  -19.8509  -32.8829   23.1235 C   0  0  0  0  0  0  0  0  0  0  0  0
  -24.4870  -28.0372   20.0687 C   0  0  0  0  0  0  0  0  0  0  0  0
  -21.1175  -32.3423   22.8302 C   0  0  0  0  0  0  0  0  0  0  0  0
  -24.8952  -27.0242   20.9483 C   0  0  0  0  0  0  0  0  0  0  0  0
  -27.3221  -21.4789   16.8716 C   0  0  0  0  0  0  0  0  0  0  0  0
  -27.7703  -22.8116   16.8907 C   0  0  0  0  0  0  0  0  0  0  0  0
  -25.5595  -11.6059   22.7261 C   0  0  0  0  0  0  0  0  0  0  0  0
  -27.1955  -27.3429   20.2299 C   0  0  0  0  0  0  0  0  0  0  0  0
  -23.8254  -10.1099   22.1999 C   0  0  0  0  0  0  0  0  0  0  0  0
  -22.4919   -8.5654   20.2975 C   0  0  0  0  0  0  0  0  0  0  0  0
  -22.4747  -10.3391   21.9379 C   0  0  0  0  0  0  0  0  0  0  0  0
  -28.8862  -13.8744   21.4280 C   0  0  0  0  0  0  0  0  0  0  0  0
  -28.5641  -21.0724   18.8787 C   0  0  0  0  0  0  0  0  0  0  0  0
  -28.5893  -23.1758   17.9639 C   0  0  0  0  0  0  0  0  0  0  0  0
  -30.7502  -14.5433   20.4725 C   0  0  0  0  0  0  0  0  0  0  0  0
  -30.1455  -12.1705   19.9700 C   0  0  0  0  0  0  0  0  0  0  0  0
  -22.3905  -28.9107   22.3242 C   0  0  0  0  0  0  0  0  0  0  0  0
  -21.5400  -25.7094   22.0380 C   0  0  0  0  0  0  0  0  0  0  0  0
  -18.7076  -26.3540   23.8274 C   0  0  0  0  0  0  0  0  0  0  0  0
  -29.7939  -20.4199   20.9783 C   0  0  0  0  0  0  0  0  0  0  0  0
  -18.8948  -32.1971   24.0670 C   0  0  0  0  0  0  0  0  0  0  0  0
  -23.0326  -28.4016   19.9410 C   0  0  0  0  0  0  0  0  0  0  0  0
  -26.4424  -20.9436   15.7715 C   0  0  0  0  0  0  0  0  0  0  0  0
  -23.9144  -26.3028   21.8328 C   0  0  0  0  0  0  0  0  0  0  0  0
  -19.2227  -30.7250   24.3029 C   0  0  0  0  0  0  0  0  0  0  0  0
  -25.7234  -22.0389   14.9952 C   0  0  0  0  0  0  0  0  0  0  0  0
  -32.1095  -18.4702   22.8529 C   0  0  0  0  0  0  0  0  0  0  0  0
  -20.7122  -30.5475   24.5795 C   0  0  0  0  0  0  0  0  0  0  0  0
  -31.6445  -17.0310   22.6189 C   0  0  0  0  0  0  0  0  0  0  0  0
  -26.7115  -23.1280   14.5990 C   0  0  0  0  0  0  0  0  0  0  0  0
  -30.9313  -19.4370   22.9570 C   0  0  0  0  0  0  0  0  0  0  0  0
  -29.5158  -17.9409   21.6051 C   0  0  0  0  0  0  0  0  0  0  0  0
  -21.5539  -31.0021   23.3811 C   0  0  1  0  0  0  0  0  0  0  0  0
  -22.1930  -27.9943   21.1500 C   0  0  1  0  0  0  0  0  0  0  0  0
  -30.6695  -16.9402   21.4286 C   0  0  2  0  0  0  0  0  0  0  0  0
  -27.3472  -23.8263   15.8300 C   0  0  0  0  0  0  0  0  0  0  0  0
  -28.5526  -24.6428   15.3122 C   0  0  0  0  0  0  0  0  0  0  0  0
  -26.3295  -24.8040   16.4565 C   0  0  0  0  0  0  0  0  0  0  0  0
  -16.5422  -25.3013   24.5347 C   0  0  0  0  0  0  0  0  0  0  0  0
  -20.4223  -26.1305   19.2311 C   0  0  0  0  0  0  0  0  0  0  0  0
  -18.1195  -25.9887   20.2033 C   0  0  0  0  0  0  0  0  0  0  0  0
  -19.6580  -24.0309   20.3545 C   0  0  0  0  0  0  0  0  0  0  0  0
  -19.3928  -26.5966   26.6963 C   0  0  0  0  0  0  0  0  0  0  0  0
  -30.4315  -26.1437   19.1336 C   0  0  0  0  0  0  0  0  0  0  0  0
  -29.2965  -27.1556   19.1314 C   0  0  0  0  0  0  0  0  0  1  0  0
  -29.9185  -24.7136   19.1983 C   0  0  0  0  0  0  0  0  0  0  0  0
  -20.0951  -26.0648   21.7913 C   0  0  1  0  0  0  0  0  0  0  0  0
  -17.9944  -25.5586   24.9059 C   0  0  2  0  0  0  0  0  0  0  0  0
  -19.5923  -25.5730   20.4047 C   0  0  0  0  0  0  0  0  0  0  0  0
  -29.0246  -15.1446   21.8172 N   0  0  0  0  0  0  0  0  0  0  0  0
  -28.9975  -22.3451   18.9514 N   0  0  0  0  0  0  0  0  0  0  0  0
  -30.1672  -15.5238   21.2201 N   0  0  0  0  0  0  0  0  0  0  0  0
  -22.5011  -26.6344   21.6103 N   0  0  0  0  0  0  0  0  0  0  0  0
  -30.0532  -19.2977   21.7932 N   0  0  0  0  0  0  0  0  0  0  0  0
  -31.9041  -14.7553   19.8047 N   0  0  0  0  0  0  0  0  0  0  0  0
  -29.2073  -11.1537   20.1944 N   0  0  0  0  0  0  0  0  0  0  0  0
  -28.9716  -20.1592   19.8827 N   0  0  0  0  0  0  0  0  0  0  0  0
  -21.5361  -29.9966   22.3404 N   0  0  0  0  0  0  0  0  0  0  0  0
  -19.3446  -25.5310   22.9228 N   0  0  0  0  0  0  0  0  0  0  0  0
  -18.0250  -26.2971   26.1999 N   0  3  0  0  0  0  0  0  0  0  0  0
  -31.1471  -11.9341   19.2527 O   0  0  0  0  0  0  0  0  0  0  0  0
  -23.2531  -28.6510   23.1549 O   0  0  0  0  0  0  0  0  0  0  0  0
  -21.8121  -24.6384   22.5877 O   0  0  0  0  0  0  0  0  0  0  0  0
  -18.6974  -27.5824   23.7890 O   0  0  0  0  0  0  0  0  0  0  0  0
  -30.2886  -21.5243   21.2183 O   0  0  0  0  0  0  0  0  0  0  0  0
  -24.4890  -10.8762   23.1433 O   0  0  0  0  0  0  0  0  0  0  0  0
  -28.5112  -27.0053   20.3133 O   0  0  0  0  0  0  0  0  0  1  0  0
  -29.0970  -24.4444   18.0703 O   0  0  0  0  0  0  0  0  0  0  0  0
  -21.8522   -7.8247   19.3830 F   0  0  0  0  0  0  0  0  0  0  0  0
  -21.8126  -11.3005   22.5960 F   0  0  0  0  0  0  0  0  0  0  0  0
  1  2  1  0  0  0  0
  1  5  2  0  0  0  0
  2  6  2  0  0  0  0
  3  8  2  0  0  0  0
  3 16  1  0  0  0  0
  4  9  1  0  0  0  0
  4 16  2  0  0  0  0
  5 18  1  0  0  0  0
  6 20  1  0  0  0  0
  7 10  2  0  0  0  0
  7 19  1  0  0  0  0
  8 24  1  0  0  0  0
  9 24  2  0  0  0  0
 10 25  1  0  0  0  0
 11 12  2  0  0  0  0
 11 26  1  0  0  0  0
 12 27  1  0  0  0  0
 13 21  1  0  0  0  0
 13 25  2  0  0  0  0
 14 22  2  0  0  0  0
 14 30  1  0  0  0  0
 15 27  2  0  0  0  0
 15 28  1  0  0  0  0
 16 29  1  0  0  0  0
 17 29  1  0  0  0  0
 17 32  2  0  0  0  0
 17 33  1  0  0  0  0
 18 20  2  0  0  0  0
 18 38  1  0  0  0  0
 19 21  2  0  0  0  0
 19 39  1  0  0  0  0
 20 50  1  0  0  0  0
 21 41  1  0  0  0  0
 22 23  1  0  0  0  0
 22 40  1  0  0  0  0
 23 31  2  0  0  0  0
 23 53  1  0  0  0  0
 24 83  1  0  0  0  0
 25 84  1  0  0  0  0
 26 28  2  0  0  0  0
 26 83  1  0  0  0  0
 27 86  1  0  0  0  0
 28 87  1  0  0  0  0
 29 67  2  0  0  0  0
 30 68  2  0  0  0  0
 30 74  1  0  0  0  0
 31 68  1  0  0  0  0
 31 85  1  0  0  0  0
 32 69  1  0  0  0  0
 32 72  1  0  0  0  0
 33 73  1  0  0  0  0
 33 78  2  0  0  0  0
 34 51  1  0  0  0  0
 34 75  1  0  0  0  0
 34 79  2  0  0  0  0
 35 64  1  0  0  0  0
 35 70  1  0  0  0  0
 35 80  2  0  0  0  0
 36 65  1  0  0  0  0
 36 76  1  0  0  0  0
 36 81  2  0  0  0  0
 37 71  1  0  0  0  0
 37 74  1  0  0  0  0
 37 82  2  0  0  0  0
 38 42  1  0  0  0  0
 39 51  1  0  0  0  0
 40 43  1  0  0  0  0
 41 70  1  0  0  0  0
 42 45  1  0  0  0  0
 43 47  1  0  0  0  0
 44 46  1  0  0  0  0
 44 48  1  0  0  0  0
 45 50  1  0  0  0  0
 46 52  1  0  0  0  0
 47 53  1  0  0  0  0
 48 71  1  0  0  0  0
 49 52  1  0  0  0  0
 49 71  1  0  0  0  0
 50 75  1  0  0  0  0
 51 70  1  0  0  0  0
 52 69  1  0  0  0  0
 53 54  1  0  0  0  0
 53 55  1  0  0  0  0
 56 65  1  0  0  0  0
 57 66  1  0  0  0  0
 58 66  1  0  0  0  0
 59 66  1  0  0  0  0
 60 77  1  0  0  0  0
 61 62  1  0  0  0  0
 61 63  1  0  0  0  0
 62 84  1  0  0  0  0
 63 85  1  0  0  0  0
 64 66  1  0  0  0  0
 64 76  1  0  0  0  0
 65 77  1  0  0  0  0
 67 69  1  0  0  0  0
M  CHG  1  77   1
M  ISO  4  37 100  62 101  74 100  84 101
M  END
> <Batch ID>
0148

> <Smiles>
CNC(C)C(=O)NC(C(=O)N1Cc2cc([101O:1][101CH2:1]CCOc3nc([100NH:0][100C:0](=O)N4CCCC(n5nc(-c6ccc(Oc7ccc(F)cc7F)cc6)c(C(N)=O)c5N)C4)cc4c3C(C)(C)CCC4)ccc2CC1C(=O)NC1CCCc2ccccc21)C(C)(C)C

> <Shape>
0.269

> <Color>
0.111

> <Negative vol penalty>
0.000

$$$$

  -OEChem-04052321363D

 92103  0     1  0  0  0  0  0999 V2000
  -25.6436  -12.0581   20.0293 C   0  0  0  0  0  0  0  0  0  0  0  0
  -26.1038  -13.2468   19.4720 C   0  0  0  0  0  0  0  0  0  0  0  0
  -20.1146  -24.2870   24.2996 C   0  0  0  0  0  0  0  0  0  0  0  0
  -19.0403  -25.9081   25.7331 C   0  0  0  0  0  0  0  0  0  0  0  0
  -24.7989  -12.0905   21.1381 C   0  0  0  0  0  0  0  0  0  0  0  0
  -25.7187  -14.4687   20.0224 C   0  0  0  0  0  0  0  0  0  0  0  0
  -29.0859  -19.5719   20.3763 C   0  0  0  0  0  0  0  0  0  0  0  0
  -20.1526  -23.3775   25.3565 C   0  0  0  0  0  0  0  0  0  0  0  0
  -19.0782  -24.9986   26.7900 C   0  0  0  0  0  0  0  0  0  0  0  0
  -29.1294  -20.7232   19.5913 C   0  0  0  0  0  0  0  0  0  0  0  0
  -20.2059  -20.5005   27.5779 C   0  0  0  0  0  0  0  0  0  0  0  0
  -19.8316  -19.1831   27.3136 C   0  0  0  0  0  0  0  0  0  0  0  0
  -27.6319  -21.8220   21.1306 C   0  0  0  0  0  0  0  0  0  0  0  0
  -29.7299  -29.0439   20.2316 C   0  0  0  0  0  0  0  0  0  0  0  0
  -17.6404  -19.9418   26.6354 C   0  0  0  0  0  0  0  0  0  0  0  0
  -19.5586  -25.5523   24.4879 C   0  0  0  0  0  0  0  0  0  0  0  0
  -18.4921  -26.6511   22.4476 C   0  0  0  0  0  0  0  0  0  0  0  0
  -24.4110  -13.3132   21.7083 C   0  0  0  0  0  0  0  0  0  0  0  0
  -28.3051  -19.5332   21.5405 C   0  0  0  0  0  0  0  0  0  0  0  0
  -24.8669  -14.5175   21.1391 C   0  0  0  0  0  0  0  0  0  0  0  0
  -27.5822  -20.6698   21.9299 C   0  0  0  0  0  0  0  0  0  0  0  0
  -29.2035  -27.7873   19.9536 C   0  0  0  0  0  0  0  0  0  0  0  0
  -30.0595  -26.7101   19.7529 C   0  0  0  0  0  0  0  0  0  0  0  0
  -19.6344  -23.7333   26.6017 C   0  0  0  0  0  0  0  0  0  0  0  0
  -28.4000  -21.8476   19.9668 C   0  0  0  0  0  0  0  0  0  0  0  0
  -19.2975  -21.5386   27.3710 C   0  0  0  0  0  0  0  0  0  0  0  0
  -18.5488  -18.9037   26.8423 C   0  0  0  0  0  0  0  0  0  0  0  0
  -18.0148  -21.2593   26.8997 C   0  0  0  0  0  0  0  0  0  0  0  0
  -19.5196  -26.4924   23.3967 C   0  0  0  0  0  0  0  0  0  0  0  0
  -31.4230  -26.9401   19.8403 C   0  0  0  0  0  0  0  0  0  0  0  0
  -31.1082  -29.1694   20.2978 C   0  0  0  0  0  0  0  0  0  0  0  0
  -18.9317  -27.6649   21.6318 C   0  0  0  0  0  0  0  0  0  0  0  0
  -17.2512  -25.9452   22.3151 C   0  0  0  0  0  0  0  0  0  0  0  0
  -25.8185  -17.8110   22.5175 C   0  0  0  0  0  0  0  0  0  0  0  0
  -26.3137  -19.3941   25.3052 C   0  0  0  0  0  0  0  0  0  0  0  0
  -27.5747  -22.1387   26.8938 C   0  0  0  0  0  0  0  0  0  0  0  0
  -24.2078  -29.7617   20.1448 C   0  0  0  0  0  0  0  0  0  0  0  0
  -23.4584  -13.2990   22.8776 C   0  0  0  0  0  0  0  0  0  0  0  0
  -28.2899  -18.2925   22.3906 C   0  0  0  0  0  0  0  0  0  0  0  0
  -26.7445  -20.6864   23.1816 C   0  0  0  0  0  0  0  0  0  0  0  0
  -23.3983  -14.6257   23.6303 C   0  0  0  0  0  0  0  0  0  0  0  0
  -21.6777  -31.5736   21.6495 C   0  0  0  0  0  0  0  0  0  0  0  0
  -23.2735  -15.7894   22.6520 C   0  0  0  0  0  0  0  0  0  0  0  0
  -32.2491  -24.5773   20.4795 C   0  0  0  0  0  0  0  0  0  0  0  0
  -33.3953  -25.5126   20.7068 C   0  0  0  0  0  0  0  0  0  0  0  0
  -29.4365  -26.5555   16.4646 C   0  0  0  0  0  0  0  0  0  0  0  0
  -29.5963  -25.2550   15.7279 C   0  0  0  0  0  0  0  0  0  0  0  0
  -20.7274  -30.5000   22.1791 C   0  0  0  0  0  0  0  0  0  0  0  0
  -27.0113  -27.9417   21.2152 C   0  0  0  0  0  0  0  0  0  0  0  0
  -27.0839  -28.4604   18.7383 C   0  0  0  0  0  0  0  0  0  0  0  0
  -23.1316  -31.1730   21.8713 C   0  0  0  0  0  0  0  0  0  0  0  0
  -25.4890  -27.8049   21.1195 C   0  0  0  0  0  0  0  0  0  0  0  0
  -25.5685  -28.2862   18.6957 C   0  0  0  0  0  0  0  0  0  0  0  0
  -22.5510  -28.7701   21.7887 C   0  0  0  0  0  0  0  0  0  0  0  0
  -27.6975  -27.6227   19.8748 C   0  0  0  0  0  0  0  0  0  0  0  0
  -24.4913  -15.8622   21.7230 C   0  0  1  0  0  0  0  0  0  0  0  0
  -32.3849  -25.8139   19.6339 C   0  0  0  0  0  0  0  0  0  0  0  0
  -27.0550  -18.1932   23.2808 C   0  0  1  0  0  0  0  0  0  0  0  0
  -29.0436  -25.2637   17.1261 C   0  0  0  0  0  0  0  0  0  0  0  0
  -21.0635  -29.1214   21.5834 C   0  0  1  0  0  0  0  0  0  0  0  0
  -31.7086  -30.5035   20.5911 C   0  0  0  0  0  0  0  0  0  0  0  0
  -27.7946  -23.1686   29.1716 C   0  0  0  0  0  0  0  0  0  0  0  0
  -23.3782  -20.2212   25.2119 C   0  0  0  0  0  0  0  0  0  0  0  0
  -23.8890  -21.9712   26.9279 C   0  0  0  0  0  0  0  0  0  0  0  0
  -24.2039  -19.5585   27.4776 C   0  0  0  0  0  0  0  0  0  0  0  0
  -30.5307  -22.0752   26.7645 C   0  0  0  0  0  0  0  0  0  0  0  0
  -29.6411  -23.2189   18.4718 C   0  0  0  0  0  0  0  0  0  1  0  0
  -25.8219  -20.6916   25.8997 C   0  0  1  0  0  0  0  0  0  0  0  0
  -28.4477  -22.2756   28.1282 C   0  0  2  0  0  0  0  0  0  0  0  0
  -29.8579  -24.7178   18.2644 C   0  0  2  0  0  0  0  0  0  0  0  0
  -24.3374  -20.6100   26.3546 C   0  0  0  0  0  0  0  0  0  0  0  0
  -20.5355  -27.3377   23.2029 N   0  0  0  0  0  0  0  0  0  0  0  0
  -31.9714  -28.1463   20.1085 N   0  0  0  0  0  0  0  0  0  0  0  0
  -20.1485  -28.0371   22.1226 N   0  0  0  0  0  0  0  0  0  0  0  0
  -26.7571  -19.4470   23.9761 N   0  0  0  0  0  0  0  0  0  0  0  0
  -23.4098  -29.8577   21.2948 N   0  0  0  0  0  0  0  0  0  0  0  0
  -24.9669  -28.5915   19.9935 N   0  0  0  0  0  0  0  0  0  0  0  0
  -18.3922  -28.2653   20.5498 N   0  0  0  0  0  0  0  0  0  0  0  0
  -16.9567  -24.9326   23.2384 N   0  0  0  0  0  0  0  0  0  0  0  0
  -29.5506  -25.4280   19.4685 N   0  0  0  0  0  0  0  0  0  0  0  0
  -25.6201  -16.4474   22.4142 N   0  0  0  0  0  0  0  0  0  0  0  0
  -26.7563  -21.0314   26.9674 N   0  0  0  0  0  0  0  0  0  0  0  0
  -29.7681  -22.8641   27.7660 N   0  3  0  0  0  0  0  0  0  0  0  0
  -16.4353  -26.1935   21.3953 O   0  0  0  0  0  0  0  0  0  0  0  0
  -25.0970  -18.6884   22.0577 O   0  0  0  0  0  0  0  0  0  0  0  0
  -26.3115  -18.3727   25.9968 O   0  0  0  0  0  0  0  0  0  0  0  0
  -27.6122  -22.9364   25.9596 O   0  0  0  0  0  0  0  0  0  0  0  0
  -24.2402  -30.6673   19.3022 O   0  0  0  0  0  0  0  0  0  0  0  0
  -19.6710  -22.8461   27.6332 O   0  0  0  0  0  0  0  0  0  0  0  0
  -28.4405  -22.9800   19.1969 O   0  0  0  0  0  0  0  0  0  1  0  0
  -18.1899  -17.6387   26.5871 F   0  0  0  0  0  0  0  0  0  0  0  0
  -17.1381  -22.2525   26.6979 F   0  0  0  0  0  0  0  0  0  0  0  0
  1  2  1  0  0  0  0
  1  5  2  0  0  0  0
  2  6  2  0  0  0  0
  3  8  2  0  0  0  0
  3 16  1  0  0  0  0
  4  9  1  0  0  0  0
  4 16  2  0  0  0  0
  5 18  1  0  0  0  0
  6 20  1  0  0  0  0
  7 10  2  0  0  0  0
  7 19  1  0  0  0  0
  8 24  1  0  0  0  0
  9 24  2  0  0  0  0
 10 25  1  0  0  0  0
 11 12  2  0  0  0  0
 11 26  1  0  0  0  0
 12 27  1  0  0  0  0
 13 21  1  0  0  0  0
 13 25  2  0  0  0  0
 14 22  2  0  0  0  0
 14 31  1  0  0  0  0
 15 27  2  0  0  0  0
 15 28  1  0  0  0  0
 16 29  1  0  0  0  0
 17 29  1  0  0  0  0
 17 32  2  0  0  0  0
 17 33  1  0  0  0  0
 18 20  2  0  0  0  0
 18 38  1  0  0  0  0
 19 21  2  0  0  0  0
 19 39  1  0  0  0  0
 20 56  1  0  0  0  0
 21 40  1  0  0  0  0
 22 23  1  0  0  0  0
 22 55  1  0  0  0  0
 23 30  2  0  0  0  0
 23 80  1  0  0  0  0
 24 89  1  0  0  0  0
 25 90  1  0  0  0  0
 26 28  2  0  0  0  0
 26 89  1  0  0  0  0
 27 91  1  0  0  0  0
 28 92  1  0  0  0  0
 29 72  2  0  0  0  0
 30 57  1  0  0  0  0
 30 73  1  0  0  0  0
 31 61  1  0  0  0  0
 31 73  2  0  0  0  0
 32 74  1  0  0  0  0
 32 78  1  0  0  0  0
 33 79  1  0  0  0  0
 33 84  2  0  0  0  0
 34 58  1  0  0  0  0
 34 81  1  0  0  0  0
 34 85  2  0  0  0  0
 35 68  1  0  0  0  0
 35 75  1  0  0  0  0
 35 86  2  0  0  0  0
 36 69  1  0  0  0  0
 36 82  1  0  0  0  0
 36 87  2  0  0  0  0
 37 76  1  0  0  0  0
 37 77  1  0  0  0  0
 37 88  2  0  0  0  0
 38 41  1  0  0  0  0
 39 58  1  0  0  0  0
 40 75  1  0  0  0  0
 41 43  1  0  0  0  0
 42 48  1  0  0  0  0
 42 51  1  0  0  0  0
 43 56  1  0  0  0  0
 44 45  1  0  0  0  0
 44 57  1  0  0  0  0
 45 57  1  0  0  0  0
 46 47  1  0  0  0  0
 46 59  1  0  0  0  0
 47 59  1  0  0  0  0
 48 60  1  0  0  0  0
 49 52  1  0  0  0  0
 49 55  1  0  0  0  0
 50 53  1  0  0  0  0
 50 55  1  0  0  0  0
 51 76  1  0  0  0  0
 52 77  1  0  0  0  0
 53 77  1  0  0  0  0
 54 60  1  0  0  0  0
 54 76  1  0  0  0  0
 56 81  1  0  0  0  0
 58 75  1  0  0  0  0
 59 70  1  0  0  0  0
 60 74  1  0  0  0  0
 62 69  1  0  0  0  0
 63 71  1  0  0  0  0
 64 71  1  0  0  0  0
 65 71  1  0  0  0  0
 66 83  1  0  0  0  0
 67 70  1  0  0  0  0
 67 90  1  0  0  0  0
 68 71  1  0  0  0  0
 68 82  1  0  0  0  0
 69 83  1  0  0  0  0
 70 80  1  0  0  0  0
 72 74  1  0  0  0  0
M  CHG  1  83   1
M  ISO  4  37 100  67 101  77 100  90 101
M  END
> <Batch ID>
0148

> <Smiles>
CNC(C)C(=O)NC(C(=O)N1Cc2cc([101O:1][101CH2:1]C(Nc3c(C4CC[100N:0]([100C:0](=O)N5CCCC(n6nc(-c7ccc(Oc8ccc(F)cc8F)cc7)c(C(N)=O)c6N)C5)CC4)cc(C)nc3C3CC3)C3CC3)ccc2CC1C(=O)NC1CCCc2ccccc21)C(C)(C)C

> <Shape>
0.217

> <Color>
0.058

> <Negative vol penalty>
0.000

$$$$

  -OEChem-04052321363D

 92103  0     1  0  0  0  0  0999 V2000
  -23.8147  -33.3405   28.6429 C   0  0  0  0  0  0  0  0  0  0  0  0
  -24.7614  -32.9233   27.7127 C   0  0  0  0  0  0  0  0  0  0  0  0
  -26.4452  -12.6140   21.6509 C   0  0  0  0  0  0  0  0  0  0  0  0
  -25.9475  -13.6674   19.5344 C   0  0  0  0  0  0  0  0  0  0  0  0
  -22.5660  -32.7222   28.6902 C   0  0  0  0  0  0  0  0  0  0  0  0
  -24.4601  -31.8868   26.8299 C   0  0  0  0  0  0  0  0  0  0  0  0
  -26.3511  -31.3223   21.0324 C   0  0  0  0  0  0  0  0  0  0  0  0
  -25.1907  -12.0043   21.6424 C   0  0  0  0  0  0  0  0  0  0  0  0
  -24.6930  -13.0576   19.5258 C   0  0  0  0  0  0  0  0  0  0  0  0
  -27.3869  -30.5927   20.4504 C   0  0  0  0  0  0  0  0  0  0  0  0
  -23.7228   -9.3469   20.1536 C   0  0  0  0  0  0  0  0  0  0  0  0
  -23.6568   -7.9953   20.4915 C   0  0  0  0  0  0  0  0  0  0  0  0
  -28.0170  -25.5977   23.6096 C   0  0  0  0  0  0  0  0  0  0  0  0
  -26.5159  -24.0096   22.5794 C   0  0  0  0  0  0  0  0  0  0  0  0
  -25.8360  -28.8211   19.9257 C   0  0  0  0  0  0  0  0  0  0  0  0
  -25.6470  -26.0581   23.5204 C   0  0  0  0  0  0  0  0  0  0  0  0
  -22.1942   -8.5287   22.3391 C   0  0  0  0  0  0  0  0  0  0  0  0
  -26.8236  -13.4457   20.5969 C   0  0  0  0  0  0  0  0  0  0  0  0
  -29.3166  -13.5658   20.0694 C   0  0  0  0  0  0  0  0  0  0  0  0
  -22.2458  -31.6841   27.8011 C   0  0  0  0  0  0  0  0  0  0  0  0
  -25.0500  -30.8012   21.0752 C   0  0  0  0  0  0  0  0  0  0  0  0
  -23.2063  -31.2532   26.8662 C   0  0  0  0  0  0  0  0  0  0  0  0
  -27.8063  -24.3855   22.9526 C   0  0  0  0  0  0  0  0  0  0  0  0
  -24.7850  -29.5472   20.5065 C   0  0  0  0  0  0  0  0  0  0  0  0
  -26.9373  -26.4340   23.8935 C   0  0  0  0  0  0  0  0  0  0  0  0
  -25.4362  -24.8459   22.8633 C   0  0  0  0  0  0  0  0  0  0  0  0
  -24.3146  -12.2260   20.5799 C   0  0  0  0  0  0  0  0  0  0  0  0
  -27.1299  -29.3407   19.8995 C   0  0  0  0  0  0  0  0  0  0  0  0
  -23.0246  -10.2895   20.9084 C   0  0  0  0  0  0  0  0  0  0  0  0
  -22.8925   -7.5861   21.5843 C   0  0  0  0  0  0  0  0  0  0  0  0
  -22.2603   -9.8804   22.0012 C   0  0  0  0  0  0  0  0  0  0  0  0
  -28.1191  -14.0763   20.6053 C   0  0  0  0  0  0  0  0  0  0  0  0
  -30.2517  -14.5370   20.3319 C   0  0  0  0  0  0  0  0  0  0  0  0
  -29.5617  -12.3248   19.3946 C   0  0  0  0  0  0  0  0  0  0  0  0
  -23.0296  -30.0002   23.3947 C   0  0  0  0  0  0  0  0  0  0  0  0
  -20.9828  -29.5395   20.9207 C   0  0  0  0  0  0  0  0  0  0  0  0
  -20.5536  -28.8823   17.5994 C   0  0  0  0  0  0  0  0  0  0  0  0
  -29.6325  -20.3803   21.1482 C   0  0  0  0  0  0  0  0  0  0  0  0
  -20.8998  -31.0144   27.9216 C   0  0  0  0  0  0  0  0  0  0  0  0
  -23.9385  -31.6123   21.6827 C   0  0  0  0  0  0  0  0  0  0  0  0
  -23.4015  -28.9518   20.5087 C   0  0  0  0  0  0  0  0  0  0  0  0
  -20.5256  -30.1755   26.7024 C   0  0  0  0  0  0  0  0  0  0  0  0
  -31.2910  -18.0230   23.4057 C   0  0  0  0  0  0  0  0  0  0  0  0
  -21.6984  -29.2971   26.2784 C   0  0  0  0  0  0  0  0  0  0  0  0
  -31.9099  -22.8969   18.3365 C   0  0  0  0  0  0  0  0  0  0  0  0
  -32.0581  -21.7643   19.3138 C   0  0  0  0  0  0  0  0  0  0  0  0
  -28.5804  -24.8893   19.3316 C   0  0  0  0  0  0  0  0  0  0  0  0
  -30.2529  -25.9321   20.9162 C   0  0  0  0  0  0  0  0  0  0  0  0
  -30.7129  -16.6966   22.9238 C   0  0  0  0  0  0  0  0  0  0  0  0
  -28.1956  -26.2778   18.8299 C   0  0  0  0  0  0  0  0  0  0  0  0
  -29.8631  -27.3179   20.4106 C   0  0  0  0  0  0  0  0  0  0  0  0
  -30.2902  -19.1727   23.2856 C   0  0  0  0  0  0  0  0  0  0  0  0
  -28.9728  -21.9584   23.0860 C   0  0  0  0  0  0  0  0  0  0  0  0
  -29.1293  -17.9769   21.4421 C   0  0  0  0  0  0  0  0  0  0  0  0
  -29.0365  -23.4338   22.6297 C   0  0  1  0  0  0  0  0  0  0  0  0
  -22.9082  -30.1489   25.8754 C   0  0  1  0  0  0  0  0  0  0  0  0
  -22.7533  -30.7618   22.1292 C   0  0  1  0  0  0  0  0  0  0  0  0
  -30.7694  -22.5361   19.2475 C   0  0  0  0  0  0  0  0  0  0  0  0
  -30.0262  -24.8550   19.8464 C   0  0  0  0  0  0  0  0  0  0  0  0
  -30.1573  -16.8385   21.4989 C   0  0  2  0  0  0  0  0  0  0  0  0
  -28.4257  -27.3464   19.8952 C   0  0  0  0  0  0  0  0  0  1  0  0
  -29.2147  -22.8963   21.1856 C   0  0  1  0  0  0  0  0  0  0  0  0
  -27.1628  -27.7299   24.5964 C   0  0  0  0  0  0  0  0  0  0  0  0
  -24.0566  -24.4435   22.4646 C   0  0  0  0  0  0  0  0  0  0  0  0
  -18.7636  -28.5276   15.8768 C   0  0  0  0  0  0  0  0  0  0  0  0
  -20.4887  -26.7346   22.0152 C   0  0  0  0  0  0  0  0  0  0  0  0
  -19.4833  -26.1247   19.8048 C   0  0  0  0  0  0  0  0  0  0  0  0
  -18.4390  -27.9114   21.1976 C   0  0  0  0  0  0  0  0  0  0  0  0
  -21.4558  -31.2126   16.0137 C   0  0  0  0  0  0  0  0  0  0  0  0
  -20.6312  -28.3751   20.0266 C   0  0  1  0  0  0  0  0  0  0  0  0
  -19.6791  -29.5400   16.5472 C   0  0  2  0  0  0  0  0  0  0  0  0
  -30.3714  -23.4710   20.3929 C   0  0  1  0  0  0  0  0  0  0  0  0
  -19.7871  -27.2965   20.7626 C   0  0  0  0  0  0  0  0  0  0  0  0
  -28.2763  -15.2784   21.1661 N   0  0  0  0  0  0  0  0  0  0  0  0
  -29.5836  -15.5312   20.9840 N   0  0  0  0  0  0  0  0  0  0  0  0
  -22.3495  -29.7808   21.1200 N   0  0  0  0  0  0  0  0  0  0  0  0
  -29.6827  -19.2355   21.9519 N   0  0  0  0  0  0  0  0  0  0  0  0
  -29.5492  -21.6027   21.7917 N   0  0  0  0  0  0  0  0  0  0  0  0
  -31.5721  -14.6288   20.0664 N   0  0  0  0  0  0  0  0  0  0  0  0
  -28.4889  -11.4422   19.2085 N   0  0  0  0  0  0  0  0  0  0  0  0
  -22.7219  -30.6956   24.5484 N   0  0  0  0  0  0  0  0  0  0  0  0
  -19.9800  -28.9444   18.8518 N   0  0  0  0  0  0  0  0  0  0  0  0
  -20.5229  -30.1781   15.4975 N   0  3  0  0  0  0  0  0  0  0  0  0
  -30.7017  -12.0006   18.9839 O   0  0  0  0  0  0  0  0  0  0  0  0
  -23.4866  -28.8651   23.3291 O   0  0  0  0  0  0  0  0  0  0  0  0
  -20.0781  -30.2148   21.4180 O   0  0  0  0  0  0  0  0  0  0  0  0
  -21.6354  -28.3619   17.3360 O   0  0  0  0  0  0  0  0  0  0  0  0
  -29.6327  -20.3178   19.9127 O   0  0  0  0  0  0  0  0  0  0  0  0
  -23.0905  -11.6310   20.5712 O   0  0  0  0  0  0  0  0  0  0  0  0
  -28.1458  -28.6215   19.3278 O   0  0  0  0  0  0  0  0  0  1  0  0
  -22.8279   -6.2879   21.9078 F   0  0  0  0  0  0  0  0  0  0  0  0
  -21.5864  -10.7811   22.7294 F   0  0  0  0  0  0  0  0  0  0  0  0
  1  2  1  0  0  0  0
  1  5  2  0  0  0  0
  2  6  2  0  0  0  0
  3  8  2  0  0  0  0
  3 18  1  0  0  0  0
  4  9  1  0  0  0  0
  4 18  2  0  0  0  0
  5 20  1  0  0  0  0
  6 22  1  0  0  0  0
  7 10  2  0  0  0  0
  7 21  1  0  0  0  0
  8 27  1  0  0  0  0
  9 27  2  0  0  0  0
 10 28  1  0  0  0  0
 11 12  2  0  0  0  0
 11 29  1  0  0  0  0
 12 30  1  0  0  0  0
 13 23  1  0  0  0  0
 13 25  2  0  0  0  0
 14 23  2  0  0  0  0
 14 26  1  0  0  0  0
 15 24  1  0  0  0  0
 15 28  2  0  0  0  0
 16 25  1  0  0  0  0
 16 26  2  0  0  0  0
 17 30  2  0  0  0  0
 17 31  1  0  0  0  0
 18 32  1  0  0  0  0
 19 32  1  0  0  0  0
 19 33  2  0  0  0  0
 19 34  1  0  0  0  0
 20 22  2  0  0  0  0
 20 39  1  0  0  0  0
 21 24  2  0  0  0  0
 21 40  1  0  0  0  0
 22 56  1  0  0  0  0
 23 55  1  0  0  0  0
 24 41  1  0  0  0  0
 25 63  1  0  0  0  0
 26 64  1  0  0  0  0
 27 89  1  0  0  0  0
 28 90  1  0  0  0  0
 29 31  2  0  0  0  0
 29 89  1  0  0  0  0
 30 91  1  0  0  0  0
 31 92  1  0  0  0  0
 32 74  2  0  0  0  0
 33 75  1  0  0  0  0
 33 79  1  0  0  0  0
 34 80  1  0  0  0  0
 34 84  2  0  0  0  0
 35 57  1  0  0  0  0
 35 81  1  0  0  0  0
 35 85  2  0  0  0  0
 36 70  1  0  0  0  0
 36 76  1  0  0  0  0
 36 86  2  0  0  0  0
 37 71  1  0  0  0  0
 37 82  1  0  0  0  0
 37 87  2  0  0  0  0
 38 77  1  0  0  0  0
 38 78  1  0  0  0  0
 38 88  2  0  0  0  0
 39 42  1  0  0  0  0
 40 57  1  0  0  0  0
 41 76  1  0  0  0  0
 42 44  1  0  0  0  0
 43 49  1  0  0  0  0
 43 52  1  0  0  0  0
 44 56  1  0  0  0  0
 45 46  1  0  0  0  0
 45 58  1  0  0  0  0
 46 58  1  0  0  0  0
 47 50  1  0  0  0  0
 47 59  1  0  0  0  0
 48 51  1  0  0  0  0
 48 59  1  0  0  0  0
 49 60  1  0  0  0  0
 50 61  1  0  0  0  0
 51 61  1  0  0  0  0
 52 77  1  0  0  0  0
 53 55  1  0  0  0  0
 53 78  1  0  0  0  0
 54 60  1  0  0  0  0
 54 77  1  0  0  0  0
 55 62  1  0  0  0  0
 56 81  1  0  0  0  0
 57 76  1  0  0  0  0
 58 72  1  0  0  0  0
 59 72  1  0  0  0  0
 60 75  1  0  0  0  0
 61 90  1  0  0  0  0
 62 72  1  0  0  0  0
 62 78  1  0  0  0  0
 65 71  1  0  0  0  0
 66 73  1  0  0  0  0
 67 73  1  0  0  0  0
 68 73  1  0  0  0  0
 69 83  1  0  0  0  0
 70 73  1  0  0  0  0
 70 82  1  0  0  0  0
 71 83  1  0  0  0  0
 74 75  1  0  0  0  0
M  CHG  1  83   1
M  ISO  4  38 100  61 101  78 100  90 101
M  END
> <Batch ID>
0148

> <Smiles>
CNC(C)C(=O)NC(C(=O)N1Cc2cc([101O:1][101CH:1]3CCC(C(C4CC4)C4C(c5cc(C)cc(C)c5)C[100N:0]4[100C:0](=O)N4CCCC(n5nc(-c6ccc(Oc7ccc(F)cc7F)cc6)c(C(N)=O)c5N)C4)CC3)ccc2CC1C(=O)NC1CCCc2ccccc21)C(C)(C)C

> <Shape>
0.302

> <Color>
0.103

> <Negative vol penalty>
0.000

$$$$

  -OEChem-04052321363D

 83 92  0     1  0  0  0  0  0999 V2000
  -29.9805  -31.6893   27.8011 C   0  0  0  0  0  0  0  0  0  0  0  0
  -30.2044  -30.3176   27.8608 C   0  0  0  0  0  0  0  0  0  0  0  0
  -23.3624   -9.9445   21.6031 C   0  0  0  0  0  0  0  0  0  0  0  0
  -24.9431  -10.3664   23.3809 C   0  0  0  0  0  0  0  0  0  0  0  0
  -29.1323  -32.2143   26.8270 C   0  0  0  0  0  0  0  0  0  0  0  0
  -29.5793  -29.4698   26.9470 C   0  0  0  0  0  0  0  0  0  0  0  0
  -32.7368  -25.9983   25.0433 C   0  0  0  0  0  0  0  0  0  0  0  0
  -22.9016   -8.8157   22.2806 C   0  0  0  0  0  0  0  0  0  0  0  0
  -24.4822   -9.2376   24.0585 C   0  0  0  0  0  0  0  0  0  0  0  0
  -33.0349  -24.8994   25.8479 C   0  0  0  0  0  0  0  0  0  0  0  0
  -23.8959   -5.6212   22.7617 C   0  0  0  0  0  0  0  0  0  0  0  0
  -23.7058   -4.4545   22.0213 C   0  0  0  0  0  0  0  0  0  0  0  0
  -31.4323  -23.5758   24.6235 C   0  0  0  0  0  0  0  0  0  0  0  0
  -21.3675   -4.4497   22.6291 C   0  0  0  0  0  0  0  0  0  0  0  0
  -24.3832  -10.7198   22.1532 C   0  0  0  0  0  0  0  0  0  0  0  0
  -24.1133  -13.0210   21.0858 C   0  0  0  0  0  0  0  0  0  0  0  0
  -28.5041  -31.3735   25.8948 C   0  0  0  0  0  0  0  0  0  0  0  0
  -31.7747  -25.8970   24.0281 C   0  0  0  0  0  0  0  0  0  0  0  0
  -28.7209  -29.9839   25.9604 C   0  0  0  0  0  0  0  0  0  0  0  0
  -31.1257  -24.6742   23.8057 C   0  0  0  0  0  0  0  0  0  0  0  0
  -23.4615   -8.4622   23.5083 C   0  0  0  0  0  0  0  0  0  0  0  0
  -32.3805  -23.6887   25.6399 C   0  0  0  0  0  0  0  0  0  0  0  0
  -22.8218   -6.2022   23.4359 C   0  0  0  0  0  0  0  0  0  0  0  0
  -22.4417   -3.8688   21.9549 C   0  0  0  0  0  0  0  0  0  0  0  0
  -21.5576   -5.6165   23.3695 C   0  0  0  0  0  0  0  0  0  0  0  0
  -24.8600  -11.8857   21.4535 C   0  0  0  0  0  0  0  0  0  0  0  0
  -25.0177  -13.8354   20.4492 C   0  0  0  0  0  0  0  0  0  0  0  0
  -22.7262  -13.3134   21.3005 C   0  0  0  0  0  0  0  0  0  0  0  0
  -28.9879  -27.3042   23.4303 C   0  0  0  0  0  0  0  0  0  0  0  0
  -29.1851  -25.6381   20.6541 C   0  0  0  0  0  0  0  0  0  0  0  0
  -30.4577  -22.9579   18.9677 C   0  0  0  0  0  0  0  0  0  0  0  0
  -30.9748  -14.3470   20.7698 C   0  0  0  0  0  0  0  0  0  0  0  0
  -27.5585  -31.9823   24.8898 C   0  0  0  0  0  0  0  0  0  0  0  0
  -31.4839  -27.0842   23.1515 C   0  0  0  0  0  0  0  0  0  0  0  0
  -30.0995  -24.5077   22.7159 C   0  0  0  0  0  0  0  0  0  0  0  0
  -27.2290  -31.0542   23.7235 C   0  0  0  0  0  0  0  0  0  0  0  0
  -29.0383  -13.6627   17.8615 C   0  0  0  0  0  0  0  0  0  0  0  0
  -26.8895  -29.6569   24.2326 C   0  0  0  0  0  0  0  0  0  0  0  0
  -32.2715  -17.8380   23.5483 C   0  0  0  0  0  0  0  0  0  0  0  0
  -32.4637  -15.9473   25.2145 C   0  0  0  0  0  0  0  0  0  0  0  0
  -27.6805  -13.2321   18.4191 C   0  0  0  0  0  0  0  0  0  0  0  0
  -31.3458  -16.9834   22.6820 C   0  0  0  0  0  0  0  0  0  0  0  0
  -31.5390  -15.0891   24.3507 C   0  0  0  0  0  0  0  0  0  0  0  0
  -31.9323  -20.5364   27.6260 C   0  0  0  0  0  0  0  0  0  0  0  0
  -30.1893  -13.1707   18.7362 C   0  0  0  0  0  0  0  0  0  0  0  0
  -28.7267  -13.1060   20.7187 C   0  0  0  0  0  0  0  0  0  0  0  0
  -28.0806  -29.0344   24.9711 C   0  0  1  0  0  0  0  0  0  0  0  0
  -30.1154  -27.0111   22.4813 C   0  0  1  0  0  0  0  0  0  0  0  0
  -32.2305  -17.4542   25.0345 C   0  0  0  0  0  0  0  0  0  0  0  0
  -31.8568  -20.2524   26.1513 C   0  0  2  0  0  0  0  0  0  0  0  0
  -27.5323  -13.6264   19.9010 C   0  0  2  0  0  0  0  0  0  0  0  0
  -31.6180  -15.4902   22.8766 C   0  0  0  0  0  0  0  0  0  0  0  0
  -31.6070  -21.6459   26.6630 C   0  0  2  0  0  0  0  0  0  1  0  0
  -30.4089  -21.8396   16.7218 C   0  0  0  0  0  0  0  0  0  0  0  0
  -30.9065  -17.4485   27.1600 C   0  0  0  0  0  0  0  0  0  0  0  0
  -26.4134  -24.5222   21.2726 C   0  0  0  0  0  0  0  0  0  0  0  0
  -26.8212  -22.7471   19.5548 C   0  0  0  0  0  0  0  0  0  0  0  0
  -26.7757  -25.1477   18.8785 C   0  0  0  0  0  0  0  0  0  0  0  0
  -33.3696  -23.3289   18.5906 C   0  0  0  0  0  0  0  0  0  0  0  0
  -30.7330  -19.4449   25.6002 C   0  0  0  0  0  0  0  0  0  0  0  0
  -28.7462  -24.2683   20.1958 C   0  0  1  0  0  0  0  0  0  0  0  0
  -31.1242  -22.8471   17.6083 C   0  0  2  0  0  0  0  0  0  0  0  0
  -30.9288  -17.9086   25.7004 C   0  0  1  0  0  0  0  0  0  0  0  0
  -27.2070  -24.1747   19.9973 C   0  0  0  0  0  0  0  0  0  0  0  0
  -26.1401  -11.9677   21.0814 N   0  0  0  0  0  0  0  0  0  0  0  0
  -26.2049  -13.1644   20.4731 N   0  0  0  0  0  0  0  0  0  0  0  0
  -29.8452  -25.6993   21.8895 N   0  0  0  0  0  0  0  0  0  0  0  0
  -29.9888  -13.5791   20.1286 N   0  0  0  0  0  0  0  0  0  0  0  0
  -24.9054  -15.0529   19.8769 N   0  0  0  0  0  0  0  0  0  0  0  0
  -21.9400  -12.3670   21.9718 N   0  0  0  0  0  0  0  0  0  0  0  0
  -29.0633  -28.5487   24.0263 N   0  0  0  0  0  0  0  0  0  0  0  0
  -29.5225  -23.9708   18.9970 N   0  0  0  0  0  0  0  0  0  0  0  0
  -30.7028  -14.6968   22.0868 N   0  0  0  0  0  0  0  0  0  0  0  0
  -32.5426  -22.4157   17.7605 N   0  3  0  0  0  0  0  0  0  0  0  0
  -22.1957  -14.3750   20.8943 O   0  0  0  0  0  0  0  0  0  0  0  0
  -28.1136  -26.4642   23.6076 O   0  0  0  0  0  0  0  0  0  0  0  0
  -28.9570  -26.6169   19.9388 O   0  0  0  0  0  0  0  0  0  0  0  0
  -30.7360  -22.2175   19.9084 O   0  0  0  0  0  0  0  0  0  0  0  0
  -32.0176  -14.6996   20.2084 O   0  0  0  0  0  0  0  0  0  0  0  0
  -23.0120   -7.3610   24.1699 O   0  0  0  0  0  0  0  0  0  0  0  0
  -32.6691  -22.6147   26.4242 O   0  0  0  0  0  0  0  0  0  1  0  0
  -22.2590   -2.7492   21.2426 F   0  0  0  0  0  0  0  0  0  0  0  0
  -20.5217   -6.1706   24.0141 F   0  0  0  0  0  0  0  0  0  0  0  0
  1  2  1  0  0  0  0
  1  5  2  0  0  0  0
  2  6  2  0  0  0  0
  3  8  2  0  0  0  0
  3 15  1  0  0  0  0
  4  9  1  0  0  0  0
  4 15  2  0  0  0  0
  5 17  1  0  0  0  0
  6 19  1  0  0  0  0
  7 10  2  0  0  0  0
  7 18  1  0  0  0  0
  8 21  1  0  0  0  0
  9 21  2  0  0  0  0
 10 22  1  0  0  0  0
 11 12  2  0  0  0  0
 11 23  1  0  0  0  0
 12 24  1  0  0  0  0
 13 20  1  0  0  0  0
 13 22  2  0  0  0  0
 14 24  2  0  0  0  0
 14 25  1  0  0  0  0
 15 26  1  0  0  0  0
 16 26  1  0  0  0  0
 16 27  2  0  0  0  0
 16 28  1  0  0  0  0
 17 19  2  0  0  0  0
 17 33  1  0  0  0  0
 18 20  2  0  0  0  0
 18 34  1  0  0  0  0
 19 47  1  0  0  0  0
 20 35  1  0  0  0  0
 21 80  1  0  0  0  0
 22 81  1  0  0  0  0
 23 25  2  0  0  0  0
 23 80  1  0  0  0  0
 24 82  1  0  0  0  0
 25 83  1  0  0  0  0
 26 65  2  0  0  0  0
 27 66  1  0  0  0  0
 27 69  1  0  0  0  0
 28 70  1  0  0  0  0
 28 75  2  0  0  0  0
 29 48  1  0  0  0  0
 29 71  1  0  0  0  0
 29 76  2  0  0  0  0
 30 61  1  0  0  0  0
 30 67  1  0  0  0  0
 30 77  2  0  0  0  0
 31 62  1  0  0  0  0
 31 72  1  0  0  0  0
 31 78  2  0  0  0  0
 32 68  1  0  0  0  0
 32 73  1  0  0  0  0
 32 79  2  0  0  0  0
 33 36  1  0  0  0  0
 34 48  1  0  0  0  0
 35 67  1  0  0  0  0
 36 38  1  0  0  0  0
 37 41  1  0  0  0  0
 37 45  1  0  0  0  0
 38 47  1  0  0  0  0
 39 42  1  0  0  0  0
 39 49  1  0  0  0  0
 40 43  1  0  0  0  0
 40 49  1  0  0  0  0
 41 51  1  0  0  0  0
 42 52  1  0  0  0  0
 43 52  1  0  0  0  0
 44 50  1  0  0  0  0
 44 53  1  0  0  0  0
 45 68  1  0  0  0  0
 46 51  1  0  0  0  0
 46 68  1  0  0  0  0
 47 71  1  0  0  0  0
 48 67  1  0  0  0  0
 49 63  1  0  0  0  0
 50 53  1  0  0  0  0
 50 60  1  0  0  0  0
 51 66  1  0  0  0  0
 52 73  1  0  0  0  0
 53 81  1  0  0  0  0
 54 62  1  0  0  0  0
 55 63  1  0  0  0  0
 56 64  1  0  0  0  0
 57 64  1  0  0  0  0
 58 64  1  0  0  0  0
 59 74  1  0  0  0  0
 60 63  1  0  0  0  0
 61 64  1  0  0  0  0
 61 72  1  0  0  0  0
 62 74  1  0  0  0  0
 65 66  1  0  0  0  0
M  CHG  1  74   1
M  ISO  4  32 100  53 101  73 100  81 101
M  END
> <Batch ID>
0148

> <Smiles>
CNC(C)C(=O)NC(C(=O)N1Cc2cc([101O:1][101CH:1]3CC3CC(C)C3CCC([100NH:0][100C:0](=O)N4CCCC(n5nc(-c6ccc(Oc7ccc(F)cc7F)cc6)c(C(N)=O)c5N)C4)CC3)ccc2CC1C(=O)NC1CCCc2ccccc21)C(C)(C)C

> <Shape>
0.232

> <Color>
0.143

> <Negative vol penalty>
0.000

$$$$

  -OEChem-04052321363D

 88 97  0     1  0  0  0  0  0999 V2000
  -29.5119  -32.9886   26.1318 C   0  0  0  0  0  0  0  0  0  0  0  0
  -29.3791  -31.8292   25.3745 C   0  0  0  0  0  0  0  0  0  0  0  0
  -23.8282   -9.3423   22.0742 C   0  0  0  0  0  0  0  0  0  0  0  0
  -25.2402   -7.4668   21.5037 C   0  0  0  0  0  0  0  0  0  0  0  0
  -28.3788  -33.6176   26.6460 C   0  0  0  0  0  0  0  0  0  0  0  0
  -28.1131  -31.2975   25.1318 C   0  0  0  0  0  0  0  0  0  0  0  0
  -27.4841  -29.9039   20.3041 C   0  0  0  0  0  0  0  0  0  0  0  0
  -29.7113  -20.7098   20.9520 C   0  0  0  0  0  0  0  0  0  0  0  0
  -22.6964   -8.5589   21.8489 C   0  0  0  0  0  0  0  0  0  0  0  0
  -24.1084   -6.6832   21.2785 C   0  0  0  0  0  0  0  0  0  0  0  0
  -28.0588  -28.6964   19.9099 C   0  0  0  0  0  0  0  0  0  0  0  0
  -29.6108  -22.0630   20.6290 C   0  0  0  0  0  0  0  0  0  0  0  0
  -21.8445   -4.9898   23.1298 C   0  0  0  0  0  0  0  0  0  0  0  0
  -21.8366   -3.6986   23.6572 C   0  0  0  0  0  0  0  0  0  0  0  0
  -25.9125  -27.6146   20.1153 C   0  0  0  0  0  0  0  0  0  0  0  0
  -27.9098  -22.3407   22.3222 C   0  0  0  0  0  0  0  0  0  0  0  0
  -21.5870   -2.7912   21.4320 C   0  0  0  0  0  0  0  0  0  0  0  0
  -25.1001   -8.7963   21.9016 C   0  0  0  0  0  0  0  0  0  0  0  0
  -26.9680   -9.7621   23.3459 C   0  0  0  0  0  0  0  0  0  0  0  0
  -27.0976  -33.0988   26.4014 C   0  0  0  0  0  0  0  0  0  0  0  0
  -26.1191  -29.9735   20.6179 C   0  0  0  0  0  0  0  0  0  0  0  0
  -26.9619  -31.9194   25.6443 C   0  0  0  0  0  0  0  0  0  0  0  0
  -28.9111  -20.1720   21.9601 C   0  0  0  0  0  0  0  0  0  0  0  0
  -25.3223  -28.8247   20.5108 C   0  0  0  0  0  0  0  0  0  0  0  0
  -28.0104  -20.9874   22.6452 C   0  0  0  0  0  0  0  0  0  0  0  0
  -22.8365   -7.2293   21.4511 C   0  0  0  0  0  0  0  0  0  0  0  0
  -27.2737  -27.5509   19.8182 C   0  0  0  0  0  0  0  0  0  0  0  0
  -28.7100  -22.8784   21.3141 C   0  0  0  0  0  0  0  0  0  0  0  0
  -21.7235   -5.1818   21.7535 C   0  0  0  0  0  0  0  0  0  0  0  0
  -21.7079   -2.5993   22.8083 C   0  0  0  0  0  0  0  0  0  0  0  0
  -21.5948   -4.0825   20.9046 C   0  0  0  0  0  0  0  0  0  0  0  0
  -26.2696   -9.6053   22.1336 C   0  0  0  0  0  0  0  0  0  0  0  0
  -27.9928  -10.6248   23.0426 C   0  0  0  0  0  0  0  0  0  0  0  0
  -26.7132   -9.1799   24.6311 C   0  0  0  0  0  0  0  0  0  0  0  0
  -24.4511  -30.6951   23.2257 C   0  0  0  0  0  0  0  0  0  0  0  0
  -21.9244  -30.4361   21.2080 C   0  0  0  0  0  0  0  0  0  0  0  0
  -20.6395  -29.1356   18.3262 C   0  0  0  0  0  0  0  0  0  0  0  0
  -30.0281  -15.0912   20.6074 C   0  0  0  0  0  0  0  0  0  0  0  0
  -25.9057  -33.7873   27.0178 C   0  0  0  0  0  0  0  0  0  0  0  0
  -25.5089  -31.2895   21.0158 C   0  0  0  0  0  0  0  0  0  0  0  0
  -23.8479  -28.8509   20.8171 C   0  0  0  0  0  0  0  0  0  0  0  0
  -24.5738  -33.3687   26.4004 C   0  0  0  0  0  0  0  0  0  0  0  0
  -29.6869  -12.3046   18.5907 C   0  0  0  0  0  0  0  0  0  0  0  0
  -24.5013  -31.8510   26.2660 C   0  0  0  0  0  0  0  0  0  0  0  0
  -28.8254  -11.3562   19.4241 C   0  0  0  0  0  0  0  0  0  0  0  0
  -28.0357  -17.8384   21.5023 C   0  0  0  0  0  0  0  0  0  0  0  0
  -30.4746  -18.1815   22.0886 C   0  0  0  0  0  0  0  0  0  0  0  0
  -29.1892  -13.7404   18.7094 C   0  0  0  0  0  0  0  0  0  0  0  0
  -28.1919  -16.3483   21.8192 C   0  0  0  0  0  0  0  0  0  0  0  0
  -30.5663  -16.6939   22.4158 C   0  0  0  0  0  0  0  0  0  0  0  0
  -28.2647  -13.3036   20.9616 C   0  0  0  0  0  0  0  0  0  0  0  0
  -29.0387  -18.6974   22.2932 C   0  0  0  0  0  0  0  0  0  0  0  0
  -25.6038  -31.3259   25.3385 C   0  0  1  0  0  0  0  0  0  0  0  0
  -24.2145  -31.1327   21.8079 C   0  0  1  0  0  0  0  0  0  0  0  0
  -28.7290  -11.8350   20.8835 C   0  0  1  0  0  0  0  0  0  0  0  0
  -25.6440  -20.5446   23.3921 C   0  0  0  0  0  0  0  0  0  0  0  0
  -27.4235  -21.0828   25.0948 C   0  0  0  0  0  0  0  0  0  0  0  0
  -18.5346  -29.0700   16.9615 C   0  0  0  0  0  0  0  0  0  0  0  0
  -20.7034  -28.4642   23.1905 C   0  0  0  0  0  0  0  0  0  0  0  0
  -19.1293  -27.7324   21.3863 C   0  0  0  0  0  0  0  0  0  0  0  0
  -19.0800  -30.0894   22.2017 C   0  0  0  0  0  0  0  0  0  0  0  0
  -21.9690  -30.3971   16.0024 C   0  0  0  0  0  0  0  0  0  0  0  0
  -29.2055  -26.1650   19.7620 C   0  0  0  0  0  0  0  0  0  1  0  0
  -29.4586  -24.6827   19.9577 C   0  0  0  0  0  0  0  0  0  0  0  0
  -27.1427  -20.4336   23.7272 C   0  0  0  0  0  0  0  0  0  0  0  0
  -21.0152  -29.3127   20.7720 C   0  0  1  0  0  0  0  0  0  0  0  0
  -19.8617  -29.7764   17.1910 C   0  0  2  0  0  0  0  0  0  0  0  0
  -20.0101  -28.8984   21.8836 C   0  0  0  0  0  0  0  0  0  0  0  0
  -26.8054  -10.3119   21.1348 N   0  0  0  0  0  0  0  0  0  0  0  0
  -27.8513  -10.9211   21.7188 N   0  0  0  0  0  0  0  0  0  0  0  0
  -23.2990  -30.1599   21.2079 N   0  0  0  0  0  0  0  0  0  0  0  0
  -29.1081  -14.1562   20.1095 N   0  0  0  0  0  0  0  0  0  0  0  0
  -29.5884  -15.9245   21.6469 N   0  0  0  0  0  0  0  0  0  0  0  0
  -28.9921  -11.1514   23.7818 N   0  0  0  0  0  0  0  0  0  0  0  0
  -25.6186   -8.3153   24.7677 N   0  0  0  0  0  0  0  0  0  0  0  0
  -25.2510  -31.5550   23.9538 N   0  0  0  0  0  0  0  0  0  0  0  0
  -20.3861  -29.7544   19.5321 N   0  0  0  0  0  0  0  0  0  0  0  0
  -20.6490  -29.7197   15.9269 N   0  3  0  0  0  0  0  0  0  0  0  0
  -27.4250   -9.4322   25.6326 O   0  0  0  0  0  0  0  0  0  0  0  0
  -23.9441  -29.6552   23.6296 O   0  0  0  0  0  0  0  0  0  0  0  0
  -21.4336  -31.5212   21.5296 O   0  0  0  0  0  0  0  0  0  0  0  0
  -21.3934  -28.1792   18.1605 O   0  0  0  0  0  0  0  0  0  0  0  0
  -31.1752  -15.1764   20.1511 O   0  0  0  0  0  0  0  0  0  0  0  0
  -21.7323   -6.4644   21.2314 O   0  0  0  0  0  0  0  0  0  0  0  0
  -27.8361  -26.3628   19.4317 O   0  0  0  0  0  0  0  0  0  1  0  0
  -28.6114  -24.1988   20.9987 O   0  0  0  0  0  0  0  0  0  0  0  0
  -21.7019   -1.3592   23.3148 F   0  0  0  0  0  0  0  0  0  0  0  0
  -21.4794   -4.2607   19.5814 F   0  0  0  0  0  0  0  0  0  0  0  0
  1  2  1  0  0  0  0
  1  5  2  0  0  0  0
  2  6  2  0  0  0  0
  3  9  2  0  0  0  0
  3 18  1  0  0  0  0
  4 10  1  0  0  0  0
  4 18  2  0  0  0  0
  5 20  1  0  0  0  0
  6 22  1  0  0  0  0
  7 11  2  0  0  0  0
  7 21  1  0  0  0  0
  8 12  2  0  0  0  0
  8 23  1  0  0  0  0
  9 26  1  0  0  0  0
 10 26  2  0  0  0  0
 11 27  1  0  0  0  0
 12 28  1  0  0  0  0
 13 14  2  0  0  0  0
 13 29  1  0  0  0  0
 14 30  1  0  0  0  0
 15 24  1  0  0  0  0
 15 27  2  0  0  0  0
 16 25  1  0  0  0  0
 16 28  2  0  0  0  0
 17 30  2  0  0  0  0
 17 31  1  0  0  0  0
 18 32  1  0  0  0  0
 19 32  1  0  0  0  0
 19 33  2  0  0  0  0
 19 34  1  0  0  0  0
 20 22  2  0  0  0  0
 20 39  1  0  0  0  0
 21 24  2  0  0  0  0
 21 40  1  0  0  0  0
 22 53  1  0  0  0  0
 23 25  2  0  0  0  0
 23 52  1  0  0  0  0
 24 41  1  0  0  0  0
 25 65  1  0  0  0  0
 26 84  1  0  0  0  0
 27 85  1  0  0  0  0
 28 86  1  0  0  0  0
 29 31  2  0  0  0  0
 29 84  1  0  0  0  0
 30 87  1  0  0  0  0
 31 88  1  0  0  0  0
 32 69  2  0  0  0  0
 33 70  1  0  0  0  0
 33 74  1  0  0  0  0
 34 75  1  0  0  0  0
 34 79  2  0  0  0  0
 35 54  1  0  0  0  0
 35 76  1  0  0  0  0
 35 80  2  0  0  0  0
 36 66  1  0  0  0  0
 36 71  1  0  0  0  0
 36 81  2  0  0  0  0
 37 67  1  0  0  0  0
 37 77  1  0  0  0  0
 37 82  2  0  0  0  0
 38 72  1  0  0  0  0
 38 73  1  0  0  0  0
 38 83  2  0  0  0  0
 39 42  1  0  0  0  0
 40 54  1  0  0  0  0
 41 71  1  0  0  0  0
 42 44  1  0  0  0  0
 43 45  1  0  0  0  0
 43 48  1  0  0  0  0
 44 53  1  0  0  0  0
 45 55  1  0  0  0  0
 46 49  1  0  0  0  0
 46 52  1  0  0  0  0
 47 50  1  0  0  0  0
 47 52  1  0  0  0  0
 48 72  1  0  0  0  0
 49 73  1  0  0  0  0
 50 73  1  0  0  0  0
 51 55  1  0  0  0  0
 51 72  1  0  0  0  0
 53 76  1  0  0  0  0
 54 71  1  0  0  0  0
 55 70  1  0  0  0  0
 56 65  1  0  0  0  0
 57 65  1  0  0  0  0
 58 67  1  0  0  0  0
 59 68  1  0  0  0  0
 60 68  1  0  0  0  0
 61 68  1  0  0  0  0
 62 78  1  0  0  0  0
 63 64  1  0  0  0  0
 63 85  1  0  0  0  0
 64 86  1  0  0  0  0
 66 68  1  0  0  0  0
 66 77  1  0  0  0  0
 67 78  1  0  0  0  0
 69 70  1  0  0  0  0
M  CHG  1  78   1
M  ISO  4  38 100  63 101  73 100  85 101
M  END
> <Batch ID>
0148

> <Smiles>
CNC(C)C(=O)NC(C(=O)N1Cc2cc([101O:1][101CH2:1]COc3ccc(C4CC[100N:0]([100C:0](=O)N5CCCC(n6nc(-c7ccc(Oc8ccc(F)cc8F)cc7)c(C(N)=O)c6N)C5)CC4)c(C(C)C)c3)ccc2CC1C(=O)NC1CCCc2ccccc21)C(C)(C)C

> <Shape>
0.323

> <Color>
0.093

> <Negative vol penalty>
0.000

$$$$

  -OEChem-04052321363D

 90100  0     1  0  0  0  0  0999 V2000
  -16.8529  -30.8256   23.7653 C   0  0  0  0  0  0  0  0  0  0  0  0
  -18.1452  -30.4735   24.1414 C   0  0  0  0  0  0  0  0  0  0  0  0
  -26.9747  -15.2622   21.7579 C   0  0  0  0  0  0  0  0  0  0  0  0
  -26.7901  -15.6957   19.3883 C   0  0  0  0  0  0  0  0  0  0  0  0
  -15.9630  -29.8444   23.3304 C   0  0  0  0  0  0  0  0  0  0  0  0
  -18.5480  -29.1398   24.0838 C   0  0  0  0  0  0  0  0  0  0  0  0
  -23.1405  -28.5845   22.0235 C   0  0  0  0  0  0  0  0  0  0  0  0
  -25.8079  -14.4996   21.7094 C   0  0  0  0  0  0  0  0  0  0  0  0
  -25.6232  -14.9330   19.3397 C   0  0  0  0  0  0  0  0  0  0  0  0
  -24.2398  -28.8740   22.8307 C   0  0  0  0  0  0  0  0  0  0  0  0
  -24.9062  -11.3843   20.7531 C   0  0  0  0  0  0  0  0  0  0  0  0
  -24.9052  -10.1580   21.4177 C   0  0  0  0  0  0  0  0  0  0  0  0
  -25.8665  -30.0670   19.7609 C   0  0  0  0  0  0  0  0  0  0  0  0
  -24.5476  -26.5178   23.2463 C   0  0  0  0  0  0  0  0  0  0  0  0
  -26.2790  -27.7305   19.3052 C   0  0  0  0  0  0  0  0  0  0  0  0
  -23.0753  -10.9109   22.8040 C   0  0  0  0  0  0  0  0  0  0  0  0
  -27.4658  -15.8603   20.5974 C   0  0  0  0  0  0  0  0  0  0  0  0
  -29.9909  -16.1964   20.4611 C   0  0  0  0  0  0  0  0  0  0  0  0
  -16.3580  -28.4993   23.2583 C   0  0  0  0  0  0  0  0  0  0  0  0
  -22.7292  -27.2578   21.8301 C   0  0  0  0  0  0  0  0  0  0  0  0
  -17.6620  -28.1395   23.6489 C   0  0  0  0  0  0  0  0  0  0  0  0
  -27.0793  -30.1477   20.4450 C   0  0  0  0  0  0  0  0  0  0  0  0
  -23.4444  -26.2139   22.4341 C   0  0  0  0  0  0  0  0  0  0  0  0
  -25.4663  -28.8583   19.1910 C   0  0  0  0  0  0  0  0  0  0  0  0
  -27.8921  -29.0199   20.5592 C   0  0  0  0  0  0  0  0  0  0  0  0
  -25.1321  -14.3349   20.5003 C   0  0  0  0  0  0  0  0  0  0  0  0
  -24.9417  -27.8409   23.4446 C   0  0  0  0  0  0  0  0  0  0  0  0
  -23.9918  -12.3739   21.1139 C   0  0  0  0  0  0  0  0  0  0  0  0
  -27.4919  -27.8112   19.9893 C   0  0  0  0  0  0  0  0  0  0  0  0
  -23.9897   -9.9212   22.4431 C   0  0  0  0  0  0  0  0  0  0  0  0
  -23.0763  -12.1372   22.1393 C   0  0  0  0  0  0  0  0  0  0  0  0
  -28.6708  -16.6487   20.6470 C   0  0  0  0  0  0  0  0  0  0  0  0
  -30.7634  -17.3227   20.6061 C   0  0  0  0  0  0  0  0  0  0  0  0
  -30.4755  -14.8761   20.1823 C   0  0  0  0  0  0  0  0  0  0  0  0
  -20.0883  -25.6113   22.4765 C   0  0  0  0  0  0  0  0  0  0  0  0
  -21.6079  -23.2729   20.8197 C   0  0  0  0  0  0  0  0  0  0  0  0
  -24.5545  -21.9477   19.7203 C   0  0  0  0  0  0  0  0  0  0  0  0
  -29.5722  -23.0440   19.7675 C   0  0  0  0  0  0  0  0  0  0  0  0
  -15.3460  -27.4676   22.8269 C   0  0  0  0  0  0  0  0  0  0  0  0
  -21.5577  -26.9604   20.9349 C   0  0  0  0  0  0  0  0  0  0  0  0
  -23.0558  -24.7715   22.2421 C   0  0  0  0  0  0  0  0  0  0  0  0
  -15.9685  -26.1289   22.4388 C   0  0  0  0  0  0  0  0  0  0  0  0
  -30.8221  -21.5635   22.8242 C   0  0  0  0  0  0  0  0  0  0  0  0
  -27.5497  -32.6724   20.1642 C   0  0  0  0  0  0  0  0  0  0  0  0
  -28.8131  -32.0506   20.6715 C   0  0  0  0  0  0  0  0  0  0  0  0
  -16.9952  -25.6956   23.4804 C   0  0  0  0  0  0  0  0  0  0  0  0
  -30.5319  -20.0807   22.5848 C   0  0  0  0  0  0  0  0  0  0  0  0
  -28.4378  -27.7962   24.8077 C   0  0  0  0  0  0  0  0  0  0  0  0
  -29.7100  -22.4426   22.2599 C   0  0  0  0  0  0  0  0  0  0  0  0
  -29.1340  -20.7413   20.5725 C   0  0  0  0  0  0  0  0  0  0  0  0
  -27.4829  -31.4546   21.0459 C   0  0  0  0  0  0  0  0  0  0  0  0
  -18.1440  -26.7068   23.5767 C   0  0  1  0  0  0  0  0  0  0  0  0
  -20.9149  -25.6069   21.2218 C   0  0  1  0  0  0  0  0  0  0  0  0
  -28.3820  -28.5514   23.5086 C   0  0  2  0  0  0  0  0  0  0  0  0
  -30.2328  -19.8009   21.1001 C   0  0  2  0  0  0  0  0  0  0  0  0
  -27.3029  -27.5584   23.8488 C   0  0  2  0  0  0  0  0  0  1  0  0
  -24.1692  -28.7701   18.4601 C   0  0  0  0  0  0  0  0  0  0  0  0
  -25.4800  -20.0108   18.4206 C   0  0  0  0  0  0  0  0  0  0  0  0
  -30.8116  -28.5155   22.8442 C   0  0  0  0  0  0  0  0  0  0  0  0
  -21.1447  -21.4451   23.2185 C   0  0  0  0  0  0  0  0  0  0  0  0
  -22.8703  -19.8925   22.2804 C   0  0  0  0  0  0  0  0  0  0  0  0
  -20.7843  -20.3593   20.9946 C   0  0  0  0  0  0  0  0  0  0  0  0
  -25.7300  -23.7331   17.6735 C   0  0  0  0  0  0  0  0  0  0  0  0
  -30.0359  -25.3918   19.1117 C   0  0  0  0  0  0  0  0  0  0  0  0
  -28.7199  -26.1094   18.8705 C   0  0  0  0  0  0  0  0  0  0  0  0
  -22.5562  -22.1536   21.1760 C   0  0  1  0  0  0  0  0  0  0  0  0
  -24.9863  -21.4476   18.3536 C   0  0  2  0  0  0  0  0  0  0  0  0
  -29.3596  -28.2523   22.4254 C   0  0  2  0  0  0  0  0  0  0  0  0
  -21.8453  -20.9898   21.9227 C   0  0  0  0  0  0  0  0  0  0  0  0
  -28.6048  -17.9602   20.8915 N   0  0  0  0  0  0  0  0  0  0  0  0
  -29.8930  -18.3415   20.8604 N   0  0  0  0  0  0  0  0  0  0  0  0
  -21.8995  -24.5322   21.3628 N   0  0  0  0  0  0  0  0  0  0  0  0
  -29.4879  -22.1395   20.8391 N   0  0  0  0  0  0  0  0  0  0  0  0
  -32.0956  -17.5312   20.5397 N   0  0  0  0  0  0  0  0  0  0  0  0
  -29.5457  -13.8340   20.0650 N   0  0  0  0  0  0  0  0  0  0  0  0
  -29.0746  -29.0932   21.2237 N   0  0  0  0  0  0  0  0  0  0  0  0
  -19.0616  -26.5361   22.4706 N   0  0  0  0  0  0  0  0  0  0  0  0
  -23.2053  -21.7567   19.9312 N   0  0  0  0  0  0  0  0  0  0  0  0
  -29.9056  -24.3498   20.1059 N   0  0  0  0  0  0  0  0  0  0  0  0
  -26.0854  -22.2975   17.8146 N   0  3  0  0  0  0  0  0  0  0  0  0
  -31.6982  -14.6249   20.0577 O   0  0  0  0  0  0  0  0  0  0  0  0
  -20.3608  -24.8322   23.3823 O   0  0  0  0  0  0  0  0  0  0  0  0
  -20.6481  -23.0401   20.0806 O   0  0  0  0  0  0  0  0  0  0  0  0
  -25.3365  -22.4534   20.5223 O   0  0  0  0  0  0  0  0  0  0  0  0
  -29.3705  -22.7113   18.5946 O   0  0  0  0  0  0  0  0  0  0  0  0
  -23.9936  -13.5906   20.4526 O   0  0  0  0  0  0  0  0  0  0  0  0
  -26.0146  -28.1208   24.2335 O   0  0  0  0  0  0  0  0  0  1  0  0
  -28.2705  -26.6970   20.0896 O   0  0  0  0  0  0  0  0  0  0  0  0
  -23.9878   -8.7430   23.0803 F   0  0  0  0  0  0  0  0  0  0  0  0
  -22.1947  -13.0837   22.4896 F   0  0  0  0  0  0  0  0  0  0  0  0
  1  2  1  0  0  0  0
  1  5  2  0  0  0  0
  2  6  2  0  0  0  0
  3  8  2  0  0  0  0
  3 17  1  0  0  0  0
  4  9  1  0  0  0  0
  4 17  2  0  0  0  0
  5 19  1  0  0  0  0
  6 21  1  0  0  0  0
  7 10  2  0  0  0  0
  7 20  1  0  0  0  0
  8 26  1  0  0  0  0
  9 26  2  0  0  0  0
 10 27  1  0  0  0  0
 11 12  2  0  0  0  0
 11 28  1  0  0  0  0
 12 30  1  0  0  0  0
 13 22  1  0  0  0  0
 13 24  2  0  0  0  0
 14 23  1  0  0  0  0
 14 27  2  0  0  0  0
 15 24  1  0  0  0  0
 15 29  2  0  0  0  0
 16 30  2  0  0  0  0
 16 31  1  0  0  0  0
 17 32  1  0  0  0  0
 18 32  1  0  0  0  0
 18 33  2  0  0  0  0
 18 34  1  0  0  0  0
 19 21  2  0  0  0  0
 19 39  1  0  0  0  0
 20 23  2  0  0  0  0
 20 40  1  0  0  0  0
 21 52  1  0  0  0  0
 22 25  2  0  0  0  0
 22 51  1  0  0  0  0
 23 41  1  0  0  0  0
 24 57  1  0  0  0  0
 25 29  1  0  0  0  0
 25 76  1  0  0  0  0
 26 86  1  0  0  0  0
 27 87  1  0  0  0  0
 28 31  2  0  0  0  0
 28 86  1  0  0  0  0
 29 88  1  0  0  0  0
 30 89  1  0  0  0  0
 31 90  1  0  0  0  0
 32 70  2  0  0  0  0
 33 71  1  0  0  0  0
 33 74  1  0  0  0  0
 34 75  1  0  0  0  0
 34 81  2  0  0  0  0
 35 53  1  0  0  0  0
 35 77  1  0  0  0  0
 35 82  2  0  0  0  0
 36 66  1  0  0  0  0
 36 72  1  0  0  0  0
 36 83  2  0  0  0  0
 37 67  1  0  0  0  0
 37 78  1  0  0  0  0
 37 84  2  0  0  0  0
 38 73  1  0  0  0  0
 38 79  1  0  0  0  0
 38 85  2  0  0  0  0
 39 42  1  0  0  0  0
 40 53  1  0  0  0  0
 41 72  1  0  0  0  0
 42 46  1  0  0  0  0
 43 47  1  0  0  0  0
 43 49  1  0  0  0  0
 44 45  1  0  0  0  0
 44 51  1  0  0  0  0
 45 51  1  0  0  0  0
 46 52  1  0  0  0  0
 47 55  1  0  0  0  0
 48 54  1  0  0  0  0
 48 56  1  0  0  0  0
 49 73  1  0  0  0  0
 50 55  1  0  0  0  0
 50 73  1  0  0  0  0
 52 77  1  0  0  0  0
 53 72  1  0  0  0  0
 54 56  1  0  0  0  0
 54 68  1  0  0  0  0
 55 71  1  0  0  0  0
 56 87  1  0  0  0  0
 58 67  1  0  0  0  0
 59 68  1  0  0  0  0
 60 69  1  0  0  0  0
 61 69  1  0  0  0  0
 62 69  1  0  0  0  0
 63 80  1  0  0  0  0
 64 65  1  0  0  0  0
 64 79  1  0  0  0  0
 65 88  1  0  0  0  0
 66 69  1  0  0  0  0
 66 78  1  0  0  0  0
 67 80  1  0  0  0  0
 68 76  1  0  0  0  0
 70 71  1  0  0  0  0
M  CHG  1  80   1
M  ISO  4  38 100  56 101  79 100  87 101
M  END
> <Batch ID>
0148

> <Smiles>
CNC(C)C(=O)NC(C(=O)N1Cc2cc([101O:1][101CH:1]3CC3C(C)Nc3c(OCC[100NH:0][100C:0](=O)N4CCCC(n5nc(-c6ccc(Oc7ccc(F)cc7F)cc6)c(C(N)=O)c5N)C4)cc(C)cc3C3CC3)ccc2CC1C(=O)NC1CCCc2ccccc21)C(C)(C)C

> <Shape>
0.272

> <Color>
0.074

> <Negative vol penalty>
0.000

$$$$

  -OEChem-04052321363D

 86 95  0     1  0  0  0  0  0999 V2000
  -22.2351  -11.1066   19.8225 C   0  0  0  0  0  0  0  0  0  0  0  0
  -21.7934  -12.3802   20.1665 C   0  0  0  0  0  0  0  0  0  0  0  0
  -29.6786  -26.9728   18.8640 C   0  0  0  0  0  0  0  0  0  0  0  0
  -29.1173  -25.7239   20.8545 C   0  0  0  0  0  0  0  0  0  0  0  0
  -23.5887  -10.7884   19.9241 C   0  0  0  0  0  0  0  0  0  0  0  0
  -22.7050  -13.3360   20.6134 C   0  0  0  0  0  0  0  0  0  0  0  0
  -22.5114  -19.3707   19.5885 C   0  0  0  0  0  0  0  0  0  0  0  0
  -30.9910  -26.5069   18.9417 C   0  0  0  0  0  0  0  0  0  0  0  0
  -30.4297  -25.2579   20.9322 C   0  0  0  0  0  0  0  0  0  0  0  0
  -22.0620  -20.4396   20.3625 C   0  0  0  0  0  0  0  0  0  0  0  0
  -34.5797  -25.9315   18.8219 C   0  0  0  0  0  0  0  0  0  0  0  0
  -35.6091  -26.8530   18.6303 C   0  0  0  0  0  0  0  0  0  0  0  0
  -24.3170  -20.8257   21.1276 C   0  0  0  0  0  0  0  0  0  0  0  0
  -21.6995  -25.7326   25.2537 C   0  0  0  0  0  0  0  0  0  0  0  0
  -34.8154  -28.1325   20.5198 C   0  0  0  0  0  0  0  0  0  0  0  0
  -21.7467  -27.9255   23.6305 C   0  0  0  0  0  0  0  0  0  0  0  0
  -28.7417  -26.5814   19.8204 C   0  0  0  0  0  0  0  0  0  0  0  0
  -26.3093  -26.4628   19.0610 C   0  0  0  0  0  0  0  0  0  0  0  0
  -24.5188  -11.7437   20.3633 C   0  0  0  0  0  0  0  0  0  0  0  0
  -23.8675  -19.0138   19.5866 C   0  0  0  0  0  0  0  0  0  0  0  0
  -24.0722  -13.0298   20.7223 C   0  0  0  0  0  0  0  0  0  0  0  0
  -24.7814  -19.7535   20.3507 C   0  0  0  0  0  0  0  0  0  0  0  0
  -21.7884  -26.9992   25.8206 C   0  0  0  0  0  0  0  0  0  0  0  0
  -21.8130  -28.1217   25.0005 C   0  0  0  0  0  0  0  0  0  0  0  0
  -31.3666  -25.6494   19.9758 C   0  0  0  0  0  0  0  0  0  0  0  0
  -22.9644  -21.1655   21.1345 C   0  0  0  0  0  0  0  0  0  0  0  0
  -33.6680  -26.1105   19.8624 C   0  0  0  0  0  0  0  0  0  0  0  0
  -35.7270  -27.9534   19.4792 C   0  0  0  0  0  0  0  0  0  0  0  0
  -33.7860  -27.2109   20.7114 C   0  0  0  0  0  0  0  0  0  0  0  0
  -27.3860  -27.0629   19.7410 C   0  0  0  0  0  0  0  0  0  0  0  0
  -21.6381  -25.6434   23.8724 C   0  0  0  0  0  0  0  0  0  0  0  0
  -25.2474  -27.3033   19.2900 C   0  0  0  0  0  0  0  0  0  0  0  0
  -26.2722  -25.2537   18.2914 C   0  0  0  0  0  0  0  0  0  0  0  0
  -25.5062  -16.4222   20.4246 C   0  0  0  0  0  0  0  0  0  0  0  0
  -27.9998  -18.0656   19.1583 C   0  0  0  0  0  0  0  0  0  0  0  0
  -29.3525  -21.0839   18.3177 C   0  0  0  0  0  0  0  0  0  0  0  0
  -24.0140  -31.2216   23.6462 C   0  0  0  0  0  0  0  0  0  0  0  0
  -25.9650  -11.3388   20.5018 C   0  0  0  0  0  0  0  0  0  0  0  0
  -24.3406  -17.8749   18.7255 C   0  0  0  0  0  0  0  0  0  0  0  0
  -26.2509  -19.4236   20.3677 C   0  0  0  0  0  0  0  0  0  0  0  0
  -26.9198  -12.5232   20.6271 C   0  0  0  0  0  0  0  0  0  0  0  0
  -24.2268  -31.8966   20.1568 C   0  0  0  0  0  0  0  0  0  0  0  0
  -21.2677  -26.0410   28.1626 C   0  0  0  0  0  0  0  0  0  0  0  0
  -20.5840  -27.3697   28.0768 C   0  0  0  0  0  0  0  0  0  0  0  0
  -26.3863  -13.5346   21.6367 C   0  0  0  0  0  0  0  0  0  0  0  0
  -24.9634  -30.6801   19.5932 C   0  0  0  0  0  0  0  0  0  0  0  0
  -24.7542  -32.2868   21.5358 C   0  0  0  0  0  0  0  0  0  0  0  0
  -25.5024  -29.9777   21.9628 C   0  0  0  0  0  0  0  0  0  0  0  0
  -21.8550  -27.1309   27.3056 C   0  0  0  0  0  0  0  0  0  0  0  0
  -25.0341  -14.1015   21.1876 C   0  0  1  0  0  0  0  0  0  0  0  0
  -25.6619  -17.2768   19.1986 C   0  0  1  0  0  0  0  0  0  0  0  0
  -24.9676  -29.5121   20.5977 C   0  0  2  0  0  0  0  0  0  0  0  0
  -30.9939  -22.7068   17.3331 C   0  0  0  0  0  0  0  0  0  0  0  0
  -29.4716  -17.6164   21.7930 C   0  0  0  0  0  0  0  0  0  0  0  0
  -31.0745  -19.4198   21.1247 C   0  0  0  0  0  0  0  0  0  0  0  0
  -30.8867  -17.3476   19.7486 C   0  0  0  0  0  0  0  0  0  0  0  0
  -28.0162  -21.0128   15.6780 C   0  0  0  0  0  0  0  0  0  0  0  0
  -23.3431  -30.0163   25.7093 C   0  0  0  0  0  0  0  0  0  0  0  0
  -21.3913  -22.9271   21.4142 C   0  0  0  0  0  0  0  0  0  1  0  0
  -21.4902  -24.3703   21.8692 C   0  0  0  0  0  0  0  0  0  0  0  0
  -21.9049  -29.5018   25.5530 C   0  0  1  0  0  0  0  0  0  0  0  0
  -29.0152  -19.0466   19.6925 C   0  0  1  0  0  0  0  0  0  0  0  0
  -30.0305  -21.5652   17.0476 C   0  0  2  0  0  0  0  0  0  0  0  0
  -30.0841  -18.3629   20.5911 C   0  0  0  0  0  0  0  0  0  0  0  0
  -21.6595  -26.7109   23.0432 N   0  0  0  0  0  0  0  0  0  0  0  0
  -27.0399  -28.1971   20.3556 N   0  0  0  0  0  0  0  0  0  0  0  0
  -25.7338  -28.3165   20.0627 N   0  0  0  0  0  0  0  0  0  0  0  0
  -26.6635  -18.2974   19.5140 N   0  0  0  0  0  0  0  0  0  0  0  0
  -24.7302  -31.1352   22.4410 N   0  0  0  0  0  0  0  0  0  0  0  0
  -23.9544  -27.2673   18.9035 N   0  0  0  0  0  0  0  0  0  0  0  0
  -27.4530  -24.5106   18.1573 N   0  0  0  0  0  0  0  0  0  0  0  0
  -25.2215  -15.0973   20.1543 N   0  0  0  0  0  0  0  0  0  0  0  0
  -29.5646  -19.7383   18.5314 N   0  0  0  0  0  0  0  0  0  0  0  0
  -24.0377  -30.0834   24.4429 N   0  0  0  0  0  0  0  0  0  0  0  0
  -29.0147  -22.0417   16.0668 N   0  3  0  0  0  0  0  0  0  0  0  0
  -25.2270  -24.8529   17.7254 O   0  0  0  0  0  0  0  0  0  0  0  0
  -25.6362  -16.9271   21.5336 O   0  0  0  0  0  0  0  0  0  0  0  0
  -28.3774  -17.1322   18.4456 O   0  0  0  0  0  0  0  0  0  0  0  0
  -28.7030  -21.8280   19.0492 O   0  0  0  0  0  0  0  0  0  0  0  0
  -23.3948  -32.2360   23.9847 O   0  0  0  0  0  0  0  0  0  0  0  0
  -32.6471  -25.1943   20.0518 O   0  0  0  0  0  0  0  0  0  0  0  0
  -22.5283  -22.2090   21.8915 O   0  0  0  0  0  0  0  0  0  1  0  0
  -21.5506  -24.4064   23.2898 O   0  0  0  0  0  0  0  0  0  0  0  0
  -36.7165  -28.8375   19.2960 F   0  0  0  0  0  0  0  0  0  0  0  0
  -32.9139  -27.3876   21.7134 F   0  0  0  0  0  0  0  0  0  0  0  0
  -21.2222  -30.4397   24.8144 F   0  0  0  0  0  0  0  0  0  0  0  0
  1  2  1  0  0  0  0
  1  5  2  0  0  0  0
  2  6  2  0  0  0  0
  3  8  2  0  0  0  0
  3 17  1  0  0  0  0
  4  9  1  0  0  0  0
  4 17  2  0  0  0  0
  5 19  1  0  0  0  0
  6 21  1  0  0  0  0
  7 10  2  0  0  0  0
  7 20  1  0  0  0  0
  8 25  1  0  0  0  0
  9 25  2  0  0  0  0
 10 26  1  0  0  0  0
 11 12  2  0  0  0  0
 11 27  1  0  0  0  0
 12 28  1  0  0  0  0
 13 22  1  0  0  0  0
 13 26  2  0  0  0  0
 14 23  2  0  0  0  0
 14 31  1  0  0  0  0
 15 28  2  0  0  0  0
 15 29  1  0  0  0  0
 16 24  2  0  0  0  0
 16 65  1  0  0  0  0
 17 30  1  0  0  0  0
 18 30  1  0  0  0  0
 18 32  2  0  0  0  0
 18 33  1  0  0  0  0
 19 21  2  0  0  0  0
 19 38  1  0  0  0  0
 20 22  2  0  0  0  0
 20 39  1  0  0  0  0
 21 50  1  0  0  0  0
 22 40  1  0  0  0  0
 23 24  1  0  0  0  0
 23 49  1  0  0  0  0
 24 61  1  0  0  0  0
 25 81  1  0  0  0  0
 26 82  1  0  0  0  0
 27 29  2  0  0  0  0
 27 81  1  0  0  0  0
 28 84  1  0  0  0  0
 29 85  1  0  0  0  0
 30 66  2  0  0  0  0
 31 65  2  0  0  0  0
 31 83  1  0  0  0  0
 32 67  1  0  0  0  0
 32 70  1  0  0  0  0
 33 71  1  0  0  0  0
 33 76  2  0  0  0  0
 34 51  1  0  0  0  0
 34 72  1  0  0  0  0
 34 77  2  0  0  0  0
 35 62  1  0  0  0  0
 35 68  1  0  0  0  0
 35 78  2  0  0  0  0
 36 63  1  0  0  0  0
 36 73  1  0  0  0  0
 36 79  2  0  0  0  0
 37 69  1  0  0  0  0
 37 74  1  0  0  0  0
 37 80  2  0  0  0  0
 38 41  1  0  0  0  0
 39 51  1  0  0  0  0
 40 68  1  0  0  0  0
 41 45  1  0  0  0  0
 42 46  1  0  0  0  0
 42 47  1  0  0  0  0
 43 44  1  0  0  0  0
 43 49  1  0  0  0  0
 44 49  1  0  0  0  0
 45 50  1  0  0  0  0
 46 52  1  0  0  0  0
 47 69  1  0  0  0  0
 48 52  1  0  0  0  0
 48 69  1  0  0  0  0
 50 72  1  0  0  0  0
 51 68  1  0  0  0  0
 52 67  1  0  0  0  0
 53 63  1  0  0  0  0
 54 64  1  0  0  0  0
 55 64  1  0  0  0  0
 56 64  1  0  0  0  0
 57 75  1  0  0  0  0
 58 61  1  0  0  0  0
 58 74  1  0  0  0  0
 59 60  1  0  0  0  0
 59 82  1  0  0  0  0
 60 83  1  0  0  0  0
 61 86  1  0  0  0  0
 62 64  1  0  0  0  0
 62 73  1  0  0  0  0
 63 75  1  0  0  0  0
 66 67  1  0  0  0  0
M  CHG  1  75   1
M  ISO  4  37 100  59 101  74 100  82 101
M  END
> <Batch ID>
0148

> <Smiles>
CNC(C)C(=O)NC(C(=O)N1Cc2cc([101O:1][101CH2:1]COc3cc(C4CC4)c(C(F)C[100NH:0][100C:0](=O)N4CCCC(n5nc(-c6ccc(Oc7ccc(F)cc7F)cc6)c(C(N)=O)c5N)C4)cn3)ccc2CC1C(=O)NC1CCCc2ccccc21)C(C)(C)C

> <Shape>
0.226

> <Color>
0.077

> <Negative vol penalty>
0.000

$$$$

  -OEChem-04052321363D

 89 98  0     1  0  0  0  0  0999 V2000
  -26.2360  -38.1177   21.8184 C   0  0  0  0  0  0  0  0  0  0  0  0
  -26.8622  -37.1615   21.0255 C   0  0  0  0  0  0  0  0  0  0  0  0
  -22.5998  -13.5747   21.3789 C   0  0  0  0  0  0  0  0  0  0  0  0
  -22.9317  -11.1943   21.1332 C   0  0  0  0  0  0  0  0  0  0  0  0
  -25.6329  -37.7408   23.0176 C   0  0  0  0  0  0  0  0  0  0  0  0
  -26.8866  -35.8278   21.4319 C   0  0  0  0  0  0  0  0  0  0  0  0
  -26.8006  -29.1779   18.7695 C   0  0  0  0  0  0  0  0  0  0  0  0
  -21.3191  -13.3444   21.8812 C   0  0  0  0  0  0  0  0  0  0  0  0
  -21.6510  -10.9639   21.6355 C   0  0  0  0  0  0  0  0  0  0  0  0
  -27.5101  -27.9799   18.8409 C   0  0  0  0  0  0  0  0  0  0  0  0
  -19.9267  -12.3931   24.8119 C   0  0  0  0  0  0  0  0  0  0  0  0
  -19.5369  -13.1066   25.9453 C   0  0  0  0  0  0  0  0  0  0  0  0
  -26.3666  -27.4319   20.8931 C   0  0  0  0  0  0  0  0  0  0  0  0
  -29.1581  -23.2379   18.3982 C   0  0  0  0  0  0  0  0  0  0  0  0
  -31.1053  -22.9209   20.3708 C   0  0  0  0  0  0  0  0  0  0  0  0
  -17.7080  -14.0807   24.7029 C   0  0  0  0  0  0  0  0  0  0  0  0
  -23.4061  -12.4997   21.0048 C   0  0  0  0  0  0  0  0  0  0  0  0
  -25.0711  -13.4723   19.3347 C   0  0  0  0  0  0  0  0  0  0  0  0
  -25.6415  -36.4003   23.4342 C   0  0  0  0  0  0  0  0  0  0  0  0
  -25.8751  -29.5175   19.7668 C   0  0  0  0  0  0  0  0  0  0  0  0
  -26.2842  -35.4328   22.6384 C   0  0  0  0  0  0  0  0  0  0  0  0
  -25.6447  -28.6336   20.8306 C   0  0  0  0  0  0  0  0  0  0  0  0
  -29.7378  -21.9872   18.6114 C   0  0  0  0  0  0  0  0  0  0  0  0
  -29.5521  -24.3301   19.1713 C   0  0  0  0  0  0  0  0  0  0  0  0
  -30.7114  -21.8287   19.5976 C   0  0  0  0  0  0  0  0  0  0  0  0
  -20.8447  -12.0390   22.0095 C   0  0  0  0  0  0  0  0  0  0  0  0
  -27.2953  -27.1080   19.9043 C   0  0  0  0  0  0  0  0  0  0  0  0
  -19.2073  -12.5234   23.6240 C   0  0  0  0  0  0  0  0  0  0  0  0
  -30.5256  -24.1716   20.1576 C   0  0  0  0  0  0  0  0  0  0  0  0
  -18.4275  -13.9504   25.8908 C   0  0  0  0  0  0  0  0  0  0  0  0
  -18.0979  -13.3672   23.5695 C   0  0  0  0  0  0  0  0  0  0  0  0
  -24.7289  -12.7370   20.4854 C   0  0  0  0  0  0  0  0  0  0  0  0
  -26.4414  -13.4004   19.2761 C   0  0  0  0  0  0  0  0  0  0  0  0
  -24.2258  -14.1591   18.4022 C   0  0  0  0  0  0  0  0  0  0  0  0
  -31.1964  -15.0185   21.2067 C   0  0  0  0  0  0  0  0  0  0  0  0
  -31.3803  -13.7143   21.8839 C   0  0  0  0  0  0  0  0  0  0  0  0
  -25.6199  -31.8780   21.8803 C   0  0  0  0  0  0  0  0  0  0  0  0
  -22.7470  -30.5000   22.4885 C   0  0  0  0  0  0  0  0  0  0  0  0
  -20.7999  -27.6987   22.3964 C   0  0  0  0  0  0  0  0  0  0  0  0
  -25.0174  -36.0485   24.7614 C   0  0  0  0  0  0  0  0  0  0  0  0
  -25.0983  -30.8012   19.6612 C   0  0  0  0  0  0  0  0  0  0  0  0
  -24.6473  -28.9421   21.9162 C   0  0  0  0  0  0  0  0  0  0  0  0
  -24.7617  -34.5539   24.9372 C   0  0  0  0  0  0  0  0  0  0  0  0
  -29.7126  -10.5403   21.8491 C   0  0  0  0  0  0  0  0  0  0  0  0
  -25.9872  -33.7494   24.5156 C   0  0  0  0  0  0  0  0  0  0  0  0
  -32.1778  -16.9024   22.5070 C   0  0  0  0  0  0  0  0  0  0  0  0
  -28.2853  -10.8959   21.4343 C   0  0  0  0  0  0  0  0  0  0  0  0
  -32.0230  -18.3547   22.0581 C   0  0  0  0  0  0  0  0  0  0  0  0
  -30.0523  -17.2309   21.3251 C   0  0  0  0  0  0  0  0  0  0  0  0
  -30.3359  -11.6392   22.7036 C   0  0  0  0  0  0  0  0  0  0  0  0
  -28.8884  -13.3493   21.6410 C   0  0  0  0  0  0  0  0  0  0  0  0
  -26.3101  -33.9721   23.0331 C   0  0  1  0  0  0  0  0  0  0  0  0
  -30.8831  -16.1917   22.0846 C   0  0  1  0  0  0  0  0  0  0  0  0
  -24.5551  -31.2830   21.0028 C   0  0  1  0  0  0  0  0  0  0  0  0
  -28.2356  -12.2753   20.7534 C   0  0  2  0  0  0  0  0  0  0  0  0
  -31.0853  -18.2499   20.8707 C   0  0  1  0  0  0  0  0  0  0  0  0
  -29.3017  -20.8325   17.7706 C   0  0  0  0  0  0  0  0  0  0  0  0
  -18.5082  -26.8720   22.9981 C   0  0  0  0  0  0  0  0  0  0  0  0
  -23.5560  -30.4049   25.4290 C   0  0  0  0  0  0  0  0  0  0  0  0
  -21.7094  -28.7580   25.8117 C   0  0  0  0  0  0  0  0  0  0  0  0
  -21.1780  -31.0638   25.0220 C   0  0  0  0  0  0  0  0  0  0  0  0
  -20.1756  -27.0301   19.5818 C   0  0  0  0  0  0  0  0  0  0  0  0
  -31.9231  -24.9765   21.9054 C   0  0  0  0  0  0  0  0  0  0  0  0
  -31.3463  -20.4997   19.8444 C   0  0  0  0  0  0  0  0  0  0  0  0
  -28.9172  -25.6679   18.9290 C   0  0  0  0  0  0  0  0  0  1  0  0
  -22.2543  -29.4245   23.4264 C   0  0  1  0  0  0  0  0  0  0  0  0
  -19.3804  -27.4743   21.9075 C   0  0  2  0  0  0  0  0  0  0  0  0
  -22.1947  -29.9076   24.9030 C   0  0  0  0  0  0  0  0  0  0  0  0
  -25.7959  -12.2348   21.1125 N   0  0  0  0  0  0  0  0  0  0  0  0
  -26.8219  -12.6551   20.3531 N   0  0  0  0  0  0  0  0  0  0  0  0
  -30.2397  -12.9401   22.0443 N   0  0  0  0  0  0  0  0  0  0  0  0
  -23.9172  -30.2124   21.7717 N   0  0  0  0  0  0  0  0  0  0  0  0
  -27.3460  -13.9025   18.4089 N   0  0  0  0  0  0  0  0  0  0  0  0
  -23.7489  -13.4546   17.2883 N   0  0  0  0  0  0  0  0  0  0  0  0
  -25.4091  -33.2059   22.1990 N   0  0  0  0  0  0  0  0  0  0  0  0
  -20.9736  -28.9732   22.8931 N   0  0  0  0  0  0  0  0  0  0  0  0
  -30.4590  -19.5481   20.5668 N   0  3  0  0  0  0  0  0  0  0  0  0
  -19.3752  -26.5508   20.7379 N   0  3  0  0  0  0  0  0  0  0  0  0
  -23.9162  -15.3664   18.5436 O   0  0  0  0  0  0  0  0  0  0  0  0
  -31.3098  -15.0546   19.9918 O   0  0  0  0  0  0  0  0  0  0  0  0
  -32.5254  -13.4576   22.2320 O   0  0  0  0  0  0  0  0  0  0  0  0
  -26.5621  -31.1832   22.2425 O   0  0  0  0  0  0  0  0  0  0  0  0
  -22.1129  -31.5534   22.3901 O   0  0  0  0  0  0  0  0  0  0  0  0
  -21.6669  -26.8290   22.3464 O   0  0  0  0  0  0  0  0  0  0  0  0
  -19.5951  -11.8138   22.4999 O   0  0  0  0  0  0  0  0  0  0  0  0
  -30.9228  -25.2283   20.9206 O   0  0  0  0  0  0  0  0  0  0  0  0
  -27.9870  -25.9383   19.9768 O   0  0  0  0  0  0  0  0  0  1  0  0
  -18.0523  -14.6343   26.9797 F   0  0  0  0  0  0  0  0  0  0  0  0
  -17.4021  -13.4956   22.4315 F   0  0  0  0  0  0  0  0  0  0  0  0
  1  2  1  0  0  0  0
  1  5  2  0  0  0  0
  2  6  2  0  0  0  0
  3  8  2  0  0  0  0
  3 17  1  0  0  0  0
  4  9  1  0  0  0  0
  4 17  2  0  0  0  0
  5 19  1  0  0  0  0
  6 21  1  0  0  0  0
  7 10  2  0  0  0  0
  7 20  1  0  0  0  0
  8 26  1  0  0  0  0
  9 26  2  0  0  0  0
 10 27  1  0  0  0  0
 11 12  2  0  0  0  0
 11 28  1  0  0  0  0
 12 30  1  0  0  0  0
 13 22  1  0  0  0  0
 13 27  2  0  0  0  0
 14 23  2  0  0  0  0
 14 24  1  0  0  0  0
 15 25  2  0  0  0  0
 15 29  1  0  0  0  0
 16 30  2  0  0  0  0
 16 31  1  0  0  0  0
 17 32  1  0  0  0  0
 18 32  1  0  0  0  0
 18 33  2  0  0  0  0
 18 34  1  0  0  0  0
 19 21  2  0  0  0  0
 19 40  1  0  0  0  0
 20 22  2  0  0  0  0
 20 41  1  0  0  0  0
 21 52  1  0  0  0  0
 22 42  1  0  0  0  0
 23 25  1  0  0  0  0
 23 57  1  0  0  0  0
 24 29  2  0  0  0  0
 24 65  1  0  0  0  0
 25 64  1  0  0  0  0
 26 85  1  0  0  0  0
 27 87  1  0  0  0  0
 28 31  2  0  0  0  0
 28 85  1  0  0  0  0
 29 86  1  0  0  0  0
 30 88  1  0  0  0  0
 31 89  1  0  0  0  0
 32 69  2  0  0  0  0
 33 70  1  0  0  0  0
 33 73  1  0  0  0  0
 34 74  1  0  0  0  0
 34 79  2  0  0  0  0
 35 36  1  0  0  0  0
 35 53  1  0  0  0  0
 35 80  2  0  0  0  0
 36 71  1  0  0  0  0
 36 81  2  0  0  0  0
 37 54  1  0  0  0  0
 37 75  1  0  0  0  0
 37 82  2  0  0  0  0
 38 66  1  0  0  0  0
 38 72  1  0  0  0  0
 38 83  2  0  0  0  0
 39 67  1  0  0  0  0
 39 76  1  0  0  0  0
 39 84  2  0  0  0  0
 40 43  1  0  0  0  0
 41 54  1  0  0  0  0
 42 72  1  0  0  0  0
 43 45  1  0  0  0  0
 44 47  1  0  0  0  0
 44 50  1  0  0  0  0
 45 52  1  0  0  0  0
 46 48  1  0  0  0  0
 46 53  1  0  0  0  0
 47 55  1  0  0  0  0
 48 56  1  0  0  0  0
 49 53  1  0  0  0  0
 49 56  1  0  0  0  0
 50 71  1  0  0  0  0
 51 55  1  0  0  0  0
 51 71  1  0  0  0  0
 52 75  1  0  0  0  0
 54 72  1  0  0  0  0
 55 70  1  0  0  0  0
 56 77  1  0  0  0  0
 58 67  1  0  0  0  0
 59 68  1  0  0  0  0
 60 68  1  0  0  0  0
 61 68  1  0  0  0  0
 62 78  1  0  0  0  0
 63 86  1  0  0  0  0
 64 77  1  0  0  0  0
 65 87  1  0  0  0  0
 66 68  1  0  0  0  0
 66 76  1  0  0  0  0
 67 78  1  0  0  0  0
 69 70  1  0  0  0  0
M  CHG  2  77   1  78   1
M  ISO  4  35 100  36 100  65 101  87 101
M  END
> <Batch ID>
0148

> <Smiles>
CNC(C)C(=O)NC(C(=O)N1Cc2cc([101O:1][101CH2:1]c3cc(C)c(CNC4CCC([100C:0](=O)[100C:0](=O)N5CCCC(n6nc(-c7ccc(Oc8ccc(F)cc8F)cc7)c(C(N)=O)c6N)C5)C4)cc3OC)ccc2CC1C(=O)NC1CCCc2ccccc21)C(C)(C)C

> <Shape>
0.322

> <Color>
0.084

> <Negative vol penalty>
0.000

$$$$

  -OEChem-04052321363D

 84 93  0     1  0  0  0  0  0999 V2000
  -24.9627  -36.3670   22.9583 C   0  0  0  0  0  0  0  0  0  0  0  0
  -25.4637  -35.2524   22.2934 C   0  0  0  0  0  0  0  0  0  0  0  0
  -26.2569  -12.6932   21.3278 C   0  0  0  0  0  0  0  0  0  0  0  0
  -26.1704  -13.2869   18.9875 C   0  0  0  0  0  0  0  0  0  0  0  0
  -24.1826  -36.2026   24.1022 C   0  0  0  0  0  0  0  0  0  0  0  0
  -25.1859  -33.9728   22.7727 C   0  0  0  0  0  0  0  0  0  0  0  0
  -24.3073  -28.9061   19.4465 C   0  0  0  0  0  0  0  0  0  0  0  0
  -25.0067  -12.0842   21.2196 C   0  0  0  0  0  0  0  0  0  0  0  0
  -24.9202  -12.6779   18.8792 C   0  0  0  0  0  0  0  0  0  0  0  0
  -25.1500  -27.8480   19.1087 C   0  0  0  0  0  0  0  0  0  0  0  0
  -23.7491   -9.1663   20.0632 C   0  0  0  0  0  0  0  0  0  0  0  0
  -23.5860   -7.9119   20.6510 C   0  0  0  0  0  0  0  0  0  0  0  0
  -29.0027  -24.6220   18.2398 C   0  0  0  0  0  0  0  0  0  0  0  0
  -24.2737  -26.5682   20.9562 C   0  0  0  0  0  0  0  0  0  0  0  0
  -26.9602  -23.3650   17.9483 C   0  0  0  0  0  0  0  0  0  0  0  0
  -21.8365   -8.8000   22.0608 C   0  0  0  0  0  0  0  0  0  0  0  0
  -26.8387  -13.2946   20.2118 C   0  0  0  0  0  0  0  0  0  0  0  0
  -29.3881  -13.3250   20.1243 C   0  0  0  0  0  0  0  0  0  0  0  0
  -23.8871  -34.9200   24.5902 C   0  0  0  0  0  0  0  0  0  0  0  0
  -23.4479  -28.8072   20.5502 C   0  0  0  0  0  0  0  0  0  0  0  0
  -24.4023  -33.7911   23.9249 C   0  0  0  0  0  0  0  0  0  0  0  0
  -29.7468  -23.4590   18.0413 C   0  0  0  0  0  0  0  0  0  0  0  0
  -23.4193  -27.6255   21.3044 C   0  0  0  0  0  0  0  0  0  0  0  0
  -27.6094  -24.5750   18.1934 C   0  0  0  0  0  0  0  0  0  0  0  0
  -27.7043  -22.2020   17.7497 C   0  0  0  0  0  0  0  0  0  0  0  0
  -29.0976  -22.2490   17.7962 C   0  0  0  0  0  0  0  0  0  0  0  0
  -24.3384  -12.0765   19.9953 C   0  0  0  0  0  0  0  0  0  0  0  0
  -25.1353  -26.6799   19.8653 C   0  0  0  0  0  0  0  0  0  0  0  0
  -22.9559  -10.2376   20.4743 C   0  0  0  0  0  0  0  0  0  0  0  0
  -22.6297   -7.7287   21.6498 C   0  0  0  0  0  0  0  0  0  0  0  0
  -21.9996  -10.0544   21.4731 C   0  0  0  0  0  0  0  0  0  0  0  0
  -28.1299  -13.9244   20.3231 C   0  0  0  0  0  0  0  0  0  0  0  0
  -30.2896  -14.3370   20.3469 C   0  0  0  0  0  0  0  0  0  0  0  0
  -29.7128  -11.9741   19.7700 C   0  0  0  0  0  0  0  0  0  0  0  0
  -23.1308  -30.3796   23.2944 C   0  0  0  0  0  0  0  0  0  0  0  0
  -20.5005  -28.5082   23.6130 C   0  0  0  0  0  0  0  0  0  0  0  0
  -18.8790  -25.6233   22.7793 C   0  0  0  0  0  0  0  0  0  0  0  0
  -29.9024  -20.2998   19.9640 C   0  0  0  0  0  0  0  0  0  0  0  0
  -23.0790  -34.7938   25.8574 C   0  0  0  0  0  0  0  0  0  0  0  0
  -22.5259  -29.9473   20.8854 C   0  0  0  0  0  0  0  0  0  0  0  0
  -22.5005  -27.4613   22.4865 C   0  0  0  0  0  0  0  0  0  0  0  0
  -22.5189  -33.3922   26.0856 C   0  0  0  0  0  0  0  0  0  0  0  0
  -30.8283  -18.3939   22.8253 C   0  0  0  0  0  0  0  0  0  0  0  0
  -31.9125  -24.8441   17.7859 C   0  0  0  0  0  0  0  0  0  0  0  0
  -32.0071  -23.7097   16.8140 C   0  0  0  0  0  0  0  0  0  0  0  0
  -23.5980  -32.3408   25.8473 C   0  0  0  0  0  0  0  0  0  0  0  0
  -30.3552  -16.9782   22.4905 C   0  0  0  0  0  0  0  0  0  0  0  0
  -29.8651  -19.4518   22.2912 C   0  0  0  0  0  0  0  0  0  0  0  0
  -29.0887  -17.9273   20.5172 C   0  0  0  0  0  0  0  0  0  0  0  0
  -31.2370  -23.5350   18.0956 C   0  0  0  0  0  0  0  0  0  0  0  0
  -24.1021  -32.3859   24.3998 C   0  0  1  0  0  0  0  0  0  0  0  0
  -22.0612  -29.9326   22.3384 C   0  0  1  0  0  0  0  0  0  0  0  0
  -30.0566  -16.8277   20.9867 C   0  0  2  0  0  0  0  0  0  0  0  0
  -26.9849  -20.9191   17.4894 C   0  0  0  0  0  0  0  0  0  0  0  0
  -29.6514  -20.3718   16.2054 C   0  0  0  0  0  0  0  0  0  0  0  0
  -16.7612  -24.3538   23.2274 C   0  0  0  0  0  0  0  0  0  0  0  0
  -21.5888  -27.6577   26.3337 C   0  0  0  0  0  0  0  0  0  0  0  0
  -19.9825  -25.7376   26.2982 C   0  0  0  0  0  0  0  0  0  0  0  0
  -19.1244  -28.0798   26.2816 C   0  0  0  0  0  0  0  0  0  0  0  0
  -18.0706  -25.7394   19.9347 C   0  0  0  0  0  0  0  0  0  0  0  0
  -26.8089  -25.8259   18.4073 C   0  0  0  0  0  0  0  0  0  1  0  0
  -29.8940  -21.0003   17.5832 C   0  0  2  0  0  0  0  0  0  0  0  0
  -20.2219  -27.1472   24.2037 C   0  0  1  0  0  0  0  0  0  0  0  0
  -17.4537  -25.3639   22.3257 C   0  0  2  0  0  0  0  0  0  0  0  0
  -20.2482  -27.1591   25.7583 C   0  0  0  0  0  0  0  0  0  0  0  0
  -28.2200  -15.2170   20.6472 N   0  0  0  0  0  0  0  0  0  0  0  0
  -29.5456  -15.4381   20.6538 N   0  0  0  0  0  0  0  0  0  0  0  0
  -21.6226  -28.6065   22.7781 N   0  0  0  0  0  0  0  0  0  0  0  0
  -29.6253  -19.2539   20.8597 N   0  0  0  0  0  0  0  0  0  0  0  0
  -31.6382  -14.3835   20.3081 N   0  0  0  0  0  0  0  0  0  0  0  0
  -28.6650  -11.0633   19.5785 N   0  0  0  0  0  0  0  0  0  0  0  0
  -23.1546  -31.7436   23.5144 N   0  0  0  0  0  0  0  0  0  0  0  0
  -18.9551  -26.7051   23.6309 N   0  0  0  0  0  0  0  0  0  0  0  0
  -29.6528  -20.0267   18.6246 N   0  0  0  0  0  0  0  0  0  0  0  0
  -17.4416  -24.8359   20.9322 N   0  3  0  0  0  0  0  0  0  0  0  0
  -30.8977  -11.5823   19.6437 O   0  0  0  0  0  0  0  0  0  0  0  0
  -23.8782  -29.5483   23.7965 O   0  0  0  0  0  0  0  0  0  0  0  0
  -19.7460  -29.4478   23.8768 O   0  0  0  0  0  0  0  0  0  0  0  0
  -19.8293  -24.9330   22.4174 O   0  0  0  0  0  0  0  0  0  0  0  0
  -30.3448  -21.3939   20.3301 O   0  0  0  0  0  0  0  0  0  0  0  0
  -23.1185  -11.4821   19.8892 O   0  0  0  0  0  0  0  0  0  0  0  0
  -25.9572  -25.6459   19.5381 O   0  0  0  0  0  0  0  0  0  1  0  0
  -22.4721   -6.5237   22.2131 F   0  0  0  0  0  0  0  0  0  0  0  0
  -21.2338  -11.0795   21.8713 F   0  0  0  0  0  0  0  0  0  0  0  0
  1  2  1  0  0  0  0
  1  5  2  0  0  0  0
  2  6  2  0  0  0  0
  3  8  2  0  0  0  0
  3 17  1  0  0  0  0
  4  9  1  0  0  0  0
  4 17  2  0  0  0  0
  5 19  1  0  0  0  0
  6 21  1  0  0  0  0
  7 10  2  0  0  0  0
  7 20  1  0  0  0  0
  8 27  1  0  0  0  0
  9 27  2  0  0  0  0
 10 28  1  0  0  0  0
 11 12  2  0  0  0  0
 11 29  1  0  0  0  0
 12 30  1  0  0  0  0
 13 22  1  0  0  0  0
 13 24  2  0  0  0  0
 14 23  1  0  0  0  0
 14 28  2  0  0  0  0
 15 24  1  0  0  0  0
 15 25  2  0  0  0  0
 16 30  2  0  0  0  0
 16 31  1  0  0  0  0
 17 32  1  0  0  0  0
 18 32  1  0  0  0  0
 18 33  2  0  0  0  0
 18 34  1  0  0  0  0
 19 21  2  0  0  0  0
 19 39  1  0  0  0  0
 20 23  2  0  0  0  0
 20 40  1  0  0  0  0
 21 51  1  0  0  0  0
 22 26  2  0  0  0  0
 22 50  1  0  0  0  0
 23 41  1  0  0  0  0
 24 61  1  0  0  0  0
 25 26  1  0  0  0  0
 25 54  1  0  0  0  0
 26 62  1  0  0  0  0
 27 81  1  0  0  0  0
 28 82  1  0  0  0  0
 29 31  2  0  0  0  0
 29 81  1  0  0  0  0
 30 83  1  0  0  0  0
 31 84  1  0  0  0  0
 32 66  2  0  0  0  0
 33 67  1  0  0  0  0
 33 70  1  0  0  0  0
 34 71  1  0  0  0  0
 34 76  2  0  0  0  0
 35 52  1  0  0  0  0
 35 72  1  0  0  0  0
 35 77  2  0  0  0  0
 36 63  1  0  0  0  0
 36 68  1  0  0  0  0
 36 78  2  0  0  0  0
 37 64  1  0  0  0  0
 37 73  1  0  0  0  0
 37 79  2  0  0  0  0
 38 69  1  0  0  0  0
 38 74  1  0  0  0  0
 38 80  2  0  0  0  0
 39 42  1  0  0  0  0
 40 52  1  0  0  0  0
 41 68  1  0  0  0  0
 42 46  1  0  0  0  0
 43 47  1  0  0  0  0
 43 48  1  0  0  0  0
 44 45  1  0  0  0  0
 44 50  1  0  0  0  0
 45 50  1  0  0  0  0
 46 51  1  0  0  0  0
 47 53  1  0  0  0  0
 48 69  1  0  0  0  0
 49 53  1  0  0  0  0
 49 69  1  0  0  0  0
 51 72  1  0  0  0  0
 52 68  1  0  0  0  0
 53 67  1  0  0  0  0
 55 62  1  0  0  0  0
 56 64  1  0  0  0  0
 57 65  1  0  0  0  0
 58 65  1  0  0  0  0
 59 65  1  0  0  0  0
 60 75  1  0  0  0  0
 61 82  1  0  0  0  0
 62 74  1  0  0  0  0
 63 65  1  0  0  0  0
 63 73  1  0  0  0  0
 64 75  1  0  0  0  0
 66 67  1  0  0  0  0
M  CHG  1  75   1
M  ISO  4  38 100  61 101  74 100  82 101
M  END
> <Batch ID>
0148

> <Smiles>
CNC(C)C(=O)NC(C(=O)N1Cc2cc([101O:1][101CH2:1]c3cc(C)c(C(C)[100NH:0][100C:0](=O)N4CCCC(n5nc(-c6ccc(Oc7ccc(F)cc7F)cc6)c(C(N)=O)c5N)C4)c(C4CC4)c3)ccc2CC1C(=O)NC1CCCc2ccccc21)C(C)(C)C

> <Shape>
0.326

> <Color>
0.056

> <Negative vol penalty>
0.000

$$$$

  -OEChem-04052321363D

 86 96  0     1  0  0  0  0  0999 V2000
  -23.2105  -32.0341   11.2804 C   0  0  0  0  0  0  0  0  0  0  0  0
  -22.7999  -30.7278   11.5263 C   0  0  0  0  0  0  0  0  0  0  0  0
  -23.1955   -9.8940   19.9006 C   0  0  0  0  0  0  0  0  0  0  0  0
  -23.6991   -9.9252   22.2634 C   0  0  0  0  0  0  0  0  0  0  0  0
  -23.9685  -32.7160   12.2314 C   0  0  0  0  0  0  0  0  0  0  0  0
  -23.1479  -30.1023   12.7230 C   0  0  0  0  0  0  0  0  0  0  0  0
  -24.9562  -19.4269   16.0383 C   0  0  0  0  0  0  0  0  0  0  0  0
  -23.7473  -20.0893   16.2516 C   0  0  0  0  0  0  0  0  0  0  0  0
  -19.7885  -26.0742   15.8844 C   0  0  0  0  0  0  0  0  0  0  0  0
  -22.4568   -8.7235   20.0735 C   0  0  0  0  0  0  0  0  0  0  0  0
  -22.9603   -8.7547   22.4363 C   0  0  0  0  0  0  0  0  0  0  0  0
  -19.8105  -24.6818   15.9507 C   0  0  0  0  0  0  0  0  0  0  0  0
  -23.3906   -5.4395   21.9311 C   0  0  0  0  0  0  0  0  0  0  0  0
  -23.9483   -4.4314   22.7173 C   0  0  0  0  0  0  0  0  0  0  0  0
  -24.6603  -18.2196   18.1100 C   0  0  0  0  0  0  0  0  0  0  0  0
  -21.1919  -24.8036   17.9246 C   0  0  0  0  0  0  0  0  0  0  0  0
  -22.0664   -4.5673   24.2264 C   0  0  0  0  0  0  0  0  0  0  0  0
  -23.8167  -10.4948   20.9956 C   0  0  0  0  0  0  0  0  0  0  0  0
  -24.1086  -13.0273   20.9008 C   0  0  0  0  0  0  0  0  0  0  0  0
  -25.4127  -18.4920   16.9675 C   0  0  0  0  0  0  0  0  0  0  0  0
  -24.3179  -32.1018   13.4444 C   0  0  0  0  0  0  0  0  0  0  0  0
  -20.4782  -26.8429   16.8330 C   0  0  0  0  0  0  0  0  0  0  0  0
  -23.9125  -30.7761   13.6905 C   0  0  0  0  0  0  0  0  0  0  0  0
  -22.9950  -19.8168   17.3941 C   0  0  0  0  0  0  0  0  0  0  0  0
  -21.1750  -26.2056   17.8696 C   0  0  0  0  0  0  0  0  0  0  0  0
  -23.4515  -18.8820   18.3233 C   0  0  0  0  0  0  0  0  0  0  0  0
  -22.3391   -8.1539   21.3413 C   0  0  0  0  0  0  0  0  0  0  0  0
  -20.5147  -24.0462   16.9692 C   0  0  0  0  0  0  0  0  0  0  0  0
  -22.1709   -6.0116   22.2925 C   0  0  0  0  0  0  0  0  0  0  0  0
  -23.2862   -3.9952   23.8650 C   0  0  0  0  0  0  0  0  0  0  0  0
  -21.5088   -5.5755   23.4401 C   0  0  0  0  0  0  0  0  0  0  0  0
  -24.5804  -11.7035   20.8175 C   0  0  0  0  0  0  0  0  0  0  0  0
  -25.2155  -13.8024   20.6555 C   0  0  0  0  0  0  0  0  0  0  0  0
  -22.7878  -13.5127   21.1754 C   0  0  0  0  0  0  0  0  0  0  0  0
  -22.8748  -28.9278   16.7170 C   0  0  0  0  0  0  0  0  0  0  0  0
  -22.1765  -29.3135   19.8612 C   0  0  0  0  0  0  0  0  0  0  0  0
  -20.8117  -28.0141   22.7065 C   0  0  0  0  0  0  0  0  0  0  0  0
  -29.7987  -14.9981   17.9207 C   0  0  0  0  0  0  0  0  0  0  0  0
  -25.1786  -32.8626   14.4218 C   0  0  0  0  0  0  0  0  0  0  0  0
  -20.4226  -28.3444   16.7632 C   0  0  0  0  0  0  0  0  0  0  0  0
  -21.9150  -26.9855   18.9244 C   0  0  0  0  0  0  0  0  0  0  0  0
  -25.1876  -32.2587   15.8238 C   0  0  0  0  0  0  0  0  0  0  0  0
  -30.1101  -12.5851   20.3768 C   0  0  0  0  0  0  0  0  0  0  0  0
  -25.3923  -30.7487   15.7533 C   0  0  0  0  0  0  0  0  0  0  0  0
  -28.6634  -12.2383   20.7285 C   0  0  0  0  0  0  0  0  0  0  0  0
  -27.7585  -18.0844   17.8333 C   0  0  0  0  0  0  0  0  0  0  0  0
  -26.5341  -16.2519   16.5910 C   0  0  0  0  0  0  0  0  0  0  0  0
  -21.4904  -21.2972   18.8844 C   0  0  0  0  0  0  0  0  0  0  0  0
  -30.2793  -12.7621   18.8720 C   0  0  0  0  0  0  0  0  0  0  0  0
  -29.0681  -17.3341   17.6024 C   0  0  0  0  0  0  0  0  0  0  0  0
  -27.8705  -15.5443   16.3866 C   0  0  0  0  0  0  0  0  0  0  0  0
  -27.9178  -13.4513   18.6222 C   0  0  0  0  0  0  0  0  0  0  0  0
  -26.7277  -17.7718   16.7350 C   0  0  0  0  0  0  0  0  0  0  0  0
  -21.7043  -20.5375   17.6020 C   0  0  1  0  0  0  0  0  0  0  0  0
  -24.2491  -30.0722   14.9871 C   0  0  1  0  0  0  0  0  0  0  0  0
  -21.5857  -29.0196   17.4834 C   0  0  1  0  0  0  0  0  0  0  0  0
  -27.6885  -13.2712   20.1361 C   0  0  1  0  0  0  0  0  0  0  0  0
  -21.7031  -22.0454   17.6040 C   0  0  1  0  0  0  0  0  0  1  0  0
  -22.6645  -18.5724   19.5546 C   0  0  0  0  0  0  0  0  0  0  0  0
  -20.4241  -28.5488   25.1275 C   0  0  0  0  0  0  0  0  0  0  0  0
  -25.1146  -28.7434   20.4551 C   0  0  0  0  0  0  0  0  0  0  0  0
  -24.4833  -28.3516   22.8459 C   0  0  0  0  0  0  0  0  0  0  0  0
  -24.1157  -30.5917   21.8117 C   0  0  0  0  0  0  0  0  0  0  0  0
  -17.8738  -27.8401   22.3944 C   0  0  0  0  0  0  0  0  0  0  0  0
  -22.6280  -28.6593   21.1447 C   0  0  1  0  0  0  0  0  0  0  0  0
  -19.8480  -28.6025   23.7211 C   0  0  2  0  0  0  0  0  0  0  0  0
  -24.0731  -29.0715   21.5435 C   0  0  0  0  0  0  0  0  0  0  0  0
  -25.8855  -11.6378   20.5408 N   0  0  0  0  0  0  0  0  0  0  0  0
  -26.2431  -12.9299   20.4479 N   0  0  0  0  0  0  0  0  0  0  0  0
  -21.8359  -28.4512   18.8095 N   0  0  0  0  0  0  0  0  0  0  0  0
  -29.3320  -13.7454   18.3472 N   0  0  0  0  0  0  0  0  0  0  0  0
  -28.8385  -15.8998   17.4332 N   0  0  0  0  0  0  0  0  0  0  0  0
  -25.4005  -15.1385   20.5992 N   0  0  0  0  0  0  0  0  0  0  0  0
  -21.7672  -12.5798   21.4045 N   0  0  0  0  0  0  0  0  0  0  0  0
  -23.0739  -29.9640   15.8247 N   0  0  0  0  0  0  0  0  0  0  0  0
  -21.6167  -28.9827   22.1453 N   0  0  0  0  0  0  0  0  0  0  0  0
  -18.5618  -27.8497   23.7110 N   0  3  0  0  0  0  0  0  0  0  0  0
  -22.5170  -14.7373   21.2003 O   0  0  0  0  0  0  0  0  0  0  0  0
  -23.6335  -27.9874   16.9213 O   0  0  0  0  0  0  0  0  0  0  0  0
  -22.1211  -30.5441   19.7966 O   0  0  0  0  0  0  0  0  0  0  0  0
  -20.8494  -26.8146   22.4413 O   0  0  0  0  0  0  0  0  0  0  0  0
  -30.9981  -15.2972   17.9762 O   0  0  0  0  0  0  0  0  0  0  0  0
  -21.6182   -7.0119   21.5104 O   0  0  0  0  0  0  0  0  0  0  0  0
  -20.5386  -22.6675   17.0368 O   0  0  0  0  0  0  0  0  0  1  0  0
  -23.8211   -3.0260   24.6191 F   0  0  0  0  0  0  0  0  0  0  0  0
  -20.3361   -6.1205   23.7917 F   0  0  0  0  0  0  0  0  0  0  0  0
  1  2  1  0  0  0  0
  1  5  2  0  0  0  0
  2  6  2  0  0  0  0
  3 10  2  0  0  0  0
  3 18  1  0  0  0  0
  4 11  1  0  0  0  0
  4 18  2  0  0  0  0
  5 21  1  0  0  0  0
  6 23  1  0  0  0  0
  7  8  2  0  0  0  0
  7 20  1  0  0  0  0
  8 24  1  0  0  0  0
  9 12  2  0  0  0  0
  9 22  1  0  0  0  0
 10 27  1  0  0  0  0
 11 27  2  0  0  0  0
 12 28  1  0  0  0  0
 13 14  2  0  0  0  0
 13 29  1  0  0  0  0
 14 30  1  0  0  0  0
 15 20  2  0  0  0  0
 15 26  1  0  0  0  0
 16 25  1  0  0  0  0
 16 28  2  0  0  0  0
 17 30  2  0  0  0  0
 17 31  1  0  0  0  0
 18 32  1  0  0  0  0
 19 32  1  0  0  0  0
 19 33  2  0  0  0  0
 19 34  1  0  0  0  0
 20 53  1  0  0  0  0
 21 23  2  0  0  0  0
 21 39  1  0  0  0  0
 22 25  2  0  0  0  0
 22 40  1  0  0  0  0
 23 55  1  0  0  0  0
 24 26  2  0  0  0  0
 24 54  1  0  0  0  0
 25 41  1  0  0  0  0
 26 59  1  0  0  0  0
 27 83  1  0  0  0  0
 28 84  1  0  0  0  0
 29 31  2  0  0  0  0
 29 83  1  0  0  0  0
 30 85  1  0  0  0  0
 31 86  1  0  0  0  0
 32 68  2  0  0  0  0
 33 69  1  0  0  0  0
 33 73  1  0  0  0  0
 34 74  1  0  0  0  0
 34 78  2  0  0  0  0
 35 56  1  0  0  0  0
 35 75  1  0  0  0  0
 35 79  2  0  0  0  0
 36 65  1  0  0  0  0
 36 70  1  0  0  0  0
 36 80  2  0  0  0  0
 37 66  1  0  0  0  0
 37 76  1  0  0  0  0
 37 81  2  0  0  0  0
 38 71  1  0  0  0  0
 38 72  1  0  0  0  0
 38 82  2  0  0  0  0
 39 42  1  0  0  0  0
 40 56  1  0  0  0  0
 41 70  1  0  0  0  0
 42 44  1  0  0  0  0
 43 45  1  0  0  0  0
 43 49  1  0  0  0  0
 44 55  1  0  0  0  0
 45 57  1  0  0  0  0
 46 50  1  0  0  0  0
 46 53  1  0  0  0  0
 47 51  1  0  0  0  0
 47 53  1  0  0  0  0
 48 54  1  0  0  0  0
 48 58  1  0  0  0  0
 49 71  1  0  0  0  0
 50 72  1  0  0  0  0
 51 72  1  0  0  0  0
 52 57  1  0  0  0  0
 52 71  1  0  0  0  0
 54 58  1  0  0  0  0
 55 75  1  0  0  0  0
 56 70  1  0  0  0  0
 57 69  1  0  0  0  0
 58 84  1  0  0  0  0
 60 66  1  0  0  0  0
 61 67  1  0  0  0  0
 62 67  1  0  0  0  0
 63 67  1  0  0  0  0
 64 77  1  0  0  0  0
 65 67  1  0  0  0  0
 65 76  1  0  0  0  0
 66 77  1  0  0  0  0
 68 69  1  0  0  0  0
M  CHG  1  77   1
M  ISO  4  38 100  58 101  72 100  84 101
M  END
> <Batch ID>
0148

> <Smiles>
CNC(C)C(=O)NC(C(=O)N1Cc2cc([101O:1][101CH:1]3CC3c3ccc(C4CC[100N:0]([100C:0](=O)N5CCCC(n6nc(-c7ccc(Oc8ccc(F)cc8F)cc7)c(C(N)=O)c6N)C5)CC4)cc3C)ccc2CC1C(=O)NC1CCCc2ccccc21)C(C)(C)C

> <Shape>
0.220

> <Color>
0.204

> <Negative vol penalty>
0.000

$$$$

  -OEChem-04052321363D

 91100  0     1  0  0  0  0  0999 V2000
  -25.0303  -37.7912   24.7066 C   0  0  0  0  0  0  0  0  0  0  0  0
  -25.0441  -37.2930   23.4087 C   0  0  0  0  0  0  0  0  0  0  0  0
  -25.2149   -7.1424   20.5600 C   0  0  0  0  0  0  0  0  0  0  0  0
  -26.3384   -8.8356   21.8669 C   0  0  0  0  0  0  0  0  0  0  0  0
  -25.3601  -36.9571   25.7728 C   0  0  0  0  0  0  0  0  0  0  0  0
  -25.3761  -35.9576   23.1776 C   0  0  0  0  0  0  0  0  0  0  0  0
  -26.7890  -29.3478   18.9899 C   0  0  0  0  0  0  0  0  0  0  0  0
  -26.3247   -6.3072   20.6880 C   0  0  0  0  0  0  0  0  0  0  0  0
  -27.4482   -8.0003   21.9950 C   0  0  0  0  0  0  0  0  0  0  0  0
  -27.4129  -28.1026   19.0533 C   0  0  0  0  0  0  0  0  0  0  0  0
  -30.0927   -7.0642   20.1078 C   0  0  0  0  0  0  0  0  0  0  0  0
  -31.3534   -7.6264   19.9079 C   0  0  0  0  0  0  0  0  0  0  0  0
  -24.4524  -20.6142   19.8125 C   0  0  0  0  0  0  0  0  0  0  0  0
  -26.5206  -19.3808   20.0081 C   0  0  0  0  0  0  0  0  0  0  0  0
  -26.1391  -27.5718   21.0319 C   0  0  0  0  0  0  0  0  0  0  0  0
  -31.9813   -7.0196   22.1606 C   0  0  0  0  0  0  0  0  0  0  0  0
  -25.2218   -8.4066   21.1494 C   0  0  0  0  0  0  0  0  0  0  0  0
  -22.7612   -9.0099   21.4476 C   0  0  0  0  0  0  0  0  0  0  0  0
  -25.7082  -35.6142   25.5526 C   0  0  0  0  0  0  0  0  0  0  0  0
  -25.8418  -29.7192   19.9550 C   0  0  0  0  0  0  0  0  0  0  0  0
  -25.6887  -35.0936   24.2427 C   0  0  0  0  0  0  0  0  0  0  0  0
  -25.8406  -20.5972   19.9473 C   0  0  0  0  0  0  0  0  0  0  0  0
  -25.5027  -28.8212   20.9770 C   0  0  0  0  0  0  0  0  0  0  0  0
  -23.7441  -19.4148   19.7387 C   0  0  0  0  0  0  0  0  0  0  0  0
  -24.4241  -18.1984   19.7995 C   0  0  0  0  0  0  0  0  0  0  0  0
  -27.4413   -6.7361   21.4055 C   0  0  0  0  0  0  0  0  0  0  0  0
  -27.0902  -27.2155   20.0760 C   0  0  0  0  0  0  0  0  0  0  0  0
  -29.7762   -6.4797   21.3342 C   0  0  0  0  0  0  0  0  0  0  0  0
  -25.8123  -18.1814   19.9342 C   0  0  0  0  0  0  0  0  0  0  0  0
  -32.2977   -7.6041   20.9343 C   0  0  0  0  0  0  0  0  0  0  0  0
  -30.7205   -6.4574   22.3606 C   0  0  0  0  0  0  0  0  0  0  0  0
  -24.0759   -9.2701   21.0170 C   0  0  0  0  0  0  0  0  0  0  0  0
  -22.0546  -10.1325   21.0913 C   0  0  0  0  0  0  0  0  0  0  0  0
  -22.2263   -7.8565   22.1105 C   0  0  0  0  0  0  0  0  0  0  0  0
  -25.6442  -32.0263   22.1325 C   0  0  0  0  0  0  0  0  0  0  0  0
  -22.6602  -30.8293   22.5632 C   0  0  0  0  0  0  0  0  0  0  0  0
  -21.1331  -27.5656   22.7452 C   0  0  0  0  0  0  0  0  0  0  0  0
  -24.0439  -15.7525   20.3070 C   0  0  0  0  0  0  0  0  0  0  0  0
  -26.0489  -34.7538   26.7438 C   0  0  0  0  0  0  0  0  0  0  0  0
  -25.1581  -31.0555   19.8572 C   0  0  0  0  0  0  0  0  0  0  0  0
  -24.4776  -29.1638   22.0259 C   0  0  0  0  0  0  0  0  0  0  0  0
  -26.8120  -33.4888   26.3646 C   0  0  0  0  0  0  0  0  0  0  0  0
  -22.7661  -13.3800   17.5752 C   0  0  0  0  0  0  0  0  0  0  0  0
  -26.2185  -22.7229   21.2700 C   0  0  0  0  0  0  0  0  0  0  0  0
  -26.4637  -22.7359   18.7444 C   0  0  0  0  0  0  0  0  0  0  0  0
  -26.1023  -32.7762   25.2231 C   0  0  0  0  0  0  0  0  0  0  0  0
  -22.2028  -12.2640   18.4519 C   0  0  0  0  0  0  0  0  0  0  0  0
  -27.0058  -24.0285   21.3467 C   0  0  0  0  0  0  0  0  0  0  0  0
  -27.2503  -24.0411   18.8344 C   0  0  0  0  0  0  0  0  0  0  0  0
  -22.8441  -14.7105   18.3133 C   0  0  0  0  0  0  0  0  0  0  0  0
  -23.8926  -13.2805   20.0773 C   0  0  0  0  0  0  0  0  0  0  0  0
  -26.6121  -21.9017   20.0292 C   0  0  0  0  0  0  0  0  0  0  0  0
  -26.0762  -33.6525   23.9644 C   0  0  1  0  0  0  0  0  0  0  0  0
  -24.5850  -31.5322   21.1882 C   0  0  1  0  0  0  0  0  0  0  0  0
  -22.6869  -12.3420   19.9134 C   0  0  2  0  0  0  0  0  0  0  0  0
  -26.8600  -24.8515   20.0681 C   0  0  0  0  0  0  0  0  0  1  0  0
  -21.8173  -20.1514   18.2901 C   0  0  0  0  0  0  0  0  0  0  0  0
  -21.5753  -20.1395   20.7993 C   0  0  0  0  0  0  0  0  0  0  0  0
  -18.7933  -26.8274   22.2182 C   0  0  0  0  0  0  0  0  0  0  0  0
  -22.1637  -31.2569   25.5433 C   0  0  0  0  0  0  0  0  0  0  0  0
  -20.7091  -29.2193   25.5222 C   0  0  0  0  0  0  0  0  0  0  0  0
  -20.0954  -31.2021   24.1384 C   0  0  0  0  0  0  0  0  0  0  0  0
  -22.0863  -25.5116   20.8395 C   0  0  0  0  0  0  0  0  0  0  0  0
  -27.5950  -15.2708   18.7548 C   0  0  0  0  0  0  0  0  0  0  0  0
  -28.0310  -14.5483   20.0180 C   0  0  0  0  0  0  0  0  0  0  0  0
  -27.4755  -16.7701   18.9865 C   0  0  0  0  0  0  0  0  0  0  0  0
  -22.2574  -19.4649   19.5956 C   0  0  0  0  0  0  0  0  0  0  0  0
  -22.0529  -29.7619   23.4412 C   0  0  1  0  0  0  0  0  0  0  0  0
  -20.2231  -26.9290   21.7102 C   0  0  2  0  0  0  0  0  0  0  0  0
  -21.2824  -30.3586   24.6526 C   0  0  0  0  0  0  0  0  0  0  0  0
  -24.2000  -10.4643   20.4317 N   0  0  0  0  0  0  0  0  0  0  0  0
  -22.9541  -10.9644   20.4919 N   0  0  0  0  0  0  0  0  0  0  0  0
  -23.8414  -30.4847   21.8911 N   0  0  0  0  0  0  0  0  0  0  0  0
  -23.5893  -14.6266   19.5777 N   0  0  0  0  0  0  0  0  0  0  0  0
  -20.7580  -10.4794   21.2352 N   0  0  0  0  0  0  0  0  0  0  0  0
  -22.2342   -7.8277   23.5117 N   0  0  0  0  0  0  0  0  0  0  0  0
  -23.7082  -16.9774   19.7244 N   0  0  0  0  0  0  0  0  0  0  0  0
  -25.2193  -33.0346   22.9766 N   0  0  0  0  0  0  0  0  0  0  0  0
  -21.2363  -28.9287   22.5652 N   0  0  0  0  0  0  0  0  0  0  0  0
  -28.0875  -13.0913   19.7494 N   0  3  0  0  0  0  0  0  0  0  0  0
  -20.7008  -25.5581   21.3736 N   0  3  0  0  0  0  0  0  0  0  0  0
  -21.7704   -6.8734   21.4787 O   0  0  0  0  0  0  0  0  0  0  0  0
  -26.7635  -31.5287   22.0989 O   0  0  0  0  0  0  0  0  0  0  0  0
  -22.1031  -31.9260   22.4714 O   0  0  0  0  0  0  0  0  0  0  0  0
  -21.6932  -26.9188   23.6275 O   0  0  0  0  0  0  0  0  0  0  0  0
  -24.6661  -15.6313   21.3644 O   0  0  0  0  0  0  0  0  0  0  0  0
  -28.5243   -5.9213   21.5309 O   0  0  0  0  0  0  0  0  0  0  0  0
  -27.6982  -25.9998   20.1406 O   0  0  0  0  0  0  0  0  0  1  0  0
  -26.4972  -17.0044   19.9970 O   0  0  0  0  0  0  0  0  0  0  0  0
  -33.5089   -8.1427   20.7416 F   0  0  0  0  0  0  0  0  0  0  0  0
  -30.4226   -5.8963   23.5405 F   0  0  0  0  0  0  0  0  0  0  0  0
  1  2  1  0  0  0  0
  1  5  2  0  0  0  0
  2  6  2  0  0  0  0
  3  8  2  0  0  0  0
  3 17  1  0  0  0  0
  4  9  1  0  0  0  0
  4 17  2  0  0  0  0
  5 19  1  0  0  0  0
  6 21  1  0  0  0  0
  7 10  2  0  0  0  0
  7 20  1  0  0  0  0
  8 26  1  0  0  0  0
  9 26  2  0  0  0  0
 10 27  1  0  0  0  0
 11 12  2  0  0  0  0
 11 28  1  0  0  0  0
 12 30  1  0  0  0  0
 13 22  2  0  0  0  0
 13 24  1  0  0  0  0
 14 22  1  0  0  0  0
 14 29  2  0  0  0  0
 15 23  1  0  0  0  0
 15 27  2  0  0  0  0
 16 30  2  0  0  0  0
 16 31  1  0  0  0  0
 17 32  1  0  0  0  0
 18 32  1  0  0  0  0
 18 33  2  0  0  0  0
 18 34  1  0  0  0  0
 19 21  2  0  0  0  0
 19 39  1  0  0  0  0
 20 23  2  0  0  0  0
 20 40  1  0  0  0  0
 21 53  1  0  0  0  0
 22 52  1  0  0  0  0
 23 41  1  0  0  0  0
 24 25  2  0  0  0  0
 24 67  1  0  0  0  0
 25 29  1  0  0  0  0
 25 77  1  0  0  0  0
 26 87  1  0  0  0  0
 27 88  1  0  0  0  0
 28 31  2  0  0  0  0
 28 87  1  0  0  0  0
 29 89  1  0  0  0  0
 30 90  1  0  0  0  0
 31 91  1  0  0  0  0
 32 71  2  0  0  0  0
 33 72  1  0  0  0  0
 33 75  1  0  0  0  0
 34 76  1  0  0  0  0
 34 82  2  0  0  0  0
 35 54  1  0  0  0  0
 35 78  1  0  0  0  0
 35 83  2  0  0  0  0
 36 68  1  0  0  0  0
 36 73  1  0  0  0  0
 36 84  2  0  0  0  0
 37 69  1  0  0  0  0
 37 79  1  0  0  0  0
 37 85  2  0  0  0  0
 38 74  1  0  0  0  0
 38 77  1  0  0  0  0
 38 86  2  0  0  0  0
 39 42  1  0  0  0  0
 40 54  1  0  0  0  0
 41 73  1  0  0  0  0
 42 46  1  0  0  0  0
 43 47  1  0  0  0  0
 43 50  1  0  0  0  0
 44 48  1  0  0  0  0
 44 52  1  0  0  0  0
 45 49  1  0  0  0  0
 45 52  1  0  0  0  0
 46 53  1  0  0  0  0
 47 55  1  0  0  0  0
 48 56  1  0  0  0  0
 49 56  1  0  0  0  0
 50 74  1  0  0  0  0
 51 55  1  0  0  0  0
 51 74  1  0  0  0  0
 53 78  1  0  0  0  0
 54 73  1  0  0  0  0
 55 72  1  0  0  0  0
 56 88  1  0  0  0  0
 57 67  1  0  0  0  0
 58 67  1  0  0  0  0
 59 69  1  0  0  0  0
 60 70  1  0  0  0  0
 61 70  1  0  0  0  0
 62 70  1  0  0  0  0
 63 81  1  0  0  0  0
 64 65  1  0  0  0  0
 64 66  1  0  0  0  0
 65 80  1  0  0  0  0
 66 89  1  0  0  0  0
 68 70  1  0  0  0  0
 68 79  1  0  0  0  0
 69 81  1  0  0  0  0
 71 72  1  0  0  0  0
M  CHG  2  80   1  81   1
M  ISO  4  38 100  56 101  77 100  88 101
M  END
> <Batch ID>
0148

> <Smiles>
CNC(C)C(=O)NC(C(=O)N1Cc2cc([101O:1][101CH:1]3CCC(c4cc(OCCCN)c([100NH:0][100C:0](=O)N5CCCC(n6nc(-c7ccc(Oc8ccc(F)cc8F)cc7)c(C(N)=O)c6N)C5)c(C(C)C)c4)CC3)ccc2CC1C(=O)NC1CCCc2ccccc21)C(C)(C)C

> <Shape>
0.251

> <Color>
0.087

> <Negative vol penalty>
0.000

$$$$

  -OEChem-04052321363D

 91100  0     1  0  0  0  0  0999 V2000
  -27.9116  -27.4121   28.8607 C   0  0  0  0  0  0  0  0  0  0  0  0
  -27.9324  -26.8900   27.5714 C   0  0  0  0  0  0  0  0  0  0  0  0
  -22.6758  -10.3822   20.4040 C   0  0  0  0  0  0  0  0  0  0  0  0
  -24.4397   -9.4580   21.7720 C   0  0  0  0  0  0  0  0  0  0  0  0
  -26.8175  -28.1619   29.2903 C   0  0  0  0  0  0  0  0  0  0  0  0
  -26.8585  -27.1165   26.7112 C   0  0  0  0  0  0  0  0  0  0  0  0
  -27.1046  -27.9033   20.6428 C   0  0  0  0  0  0  0  0  0  0  0  0
  -22.0005   -9.1626   20.4507 C   0  0  0  0  0  0  0  0  0  0  0  0
  -23.7644   -8.2384   21.8188 C   0  0  0  0  0  0  0  0  0  0  0  0
  -26.8849  -27.0347   19.5746 C   0  0  0  0  0  0  0  0  0  0  0  0
  -21.1527   -6.9020   23.4962 C   0  0  0  0  0  0  0  0  0  0  0  0
  -21.0555   -6.2638   24.7327 C   0  0  0  0  0  0  0  0  0  0  0  0
  -31.2756  -18.6142   17.5679 C   0  0  0  0  0  0  0  0  0  0  0  0
  -24.6140  -27.8300   19.4028 C   0  0  0  0  0  0  0  0  0  0  0  0
  -31.5021  -18.9270   19.9484 C   0  0  0  0  0  0  0  0  0  0  0  0
  -22.2320   -4.3524   23.8386 C   0  0  0  0  0  0  0  0  0  0  0  0
  -23.8955  -10.5299   21.0646 C   0  0  0  0  0  0  0  0  0  0  0  0
  -24.4648  -12.8678   21.9116 C   0  0  0  0  0  0  0  0  0  0  0  0
  -25.7339  -28.4058   28.4318 C   0  0  0  0  0  0  0  0  0  0  0  0
  -26.0757  -28.7354   21.1068 C   0  0  0  0  0  0  0  0  0  0  0  0
  -25.7482  -27.8691   27.1302 C   0  0  0  0  0  0  0  0  0  0  0  0
  -30.7798  -19.9198   17.4259 C   0  0  0  0  0  0  0  0  0  0  0  0
  -24.8240  -28.7102   20.4754 C   0  0  0  0  0  0  0  0  0  0  0  0
  -30.6683  -20.7415   18.5613 C   0  0  0  0  0  0  0  0  0  0  0  0
  -31.6314  -18.1202   18.8223 C   0  0  0  0  0  0  0  0  0  0  0  0
  -31.0211  -20.2293   19.8195 C   0  0  0  0  0  0  0  0  0  0  0  0
  -22.5448   -8.0907   21.1582 C   0  0  0  0  0  0  0  0  0  0  0  0
  -25.6386  -26.9959   18.9563 C   0  0  0  0  0  0  0  0  0  0  0  0
  -21.7896   -6.2654   22.4309 C   0  0  0  0  0  0  0  0  0  0  0  0
  -21.5952   -4.9890   24.9039 C   0  0  0  0  0  0  0  0  0  0  0  0
  -22.3292   -4.9906   22.6021 C   0  0  0  0  0  0  0  0  0  0  0  0
  -24.5938  -11.7893   21.0162 C   0  0  0  0  0  0  0  0  0  0  0  0
  -25.3344  -13.8172   21.4332 C   0  0  0  0  0  0  0  0  0  0  0  0
  -23.6332  -12.9997   23.0721 C   0  0  0  0  0  0  0  0  0  0  0  0
  -24.5072  -29.0440   23.8542 C   0  0  0  0  0  0  0  0  0  0  0  0
  -23.1883  -31.6058   22.3643 C   0  0  0  0  0  0  0  0  0  0  0  0
  -22.3783  -33.1517   19.4316 C   0  0  0  0  0  0  0  0  0  0  0  0
  -30.2650  -15.2155   19.5144 C   0  0  0  0  0  0  0  0  0  0  0  0
  -24.5523  -29.1822   28.9568 C   0  0  0  0  0  0  0  0  0  0  0  0
  -26.3367  -29.6860   22.2428 C   0  0  0  0  0  0  0  0  0  0  0  0
  -30.4403  -20.4238   16.0430 C   0  0  0  0  0  0  0  0  0  0  0  0
  -30.1196  -22.1420   18.4737 C   0  0  0  0  0  0  0  0  0  0  0  0
  -23.6922  -29.5978   20.9224 C   0  0  0  0  0  0  0  0  0  0  0  0
  -23.6222  -29.6922   27.8590 C   0  0  0  0  0  0  0  0  0  0  0  0
  -30.0995  -22.7000   17.0507 C   0  0  0  0  0  0  0  0  0  0  0  0
  -27.8683  -14.0595   17.0614 C   0  0  0  0  0  0  0  0  0  0  0  0
  -23.3286  -28.5854   26.8513 C   0  0  0  0  0  0  0  0  0  0  0  0
  -26.7865  -13.4517   17.9561 C   0  0  0  0  0  0  0  0  0  0  0  0
  -29.2623  -13.7971   17.6235 C   0  0  0  0  0  0  0  0  0  0  0  0
  -28.3798  -13.6586   19.9204 C   0  0  0  0  0  0  0  0  0  0  0  0
  -24.6134  -28.1140   26.1596 C   0  0  1  0  0  0  0  0  0  0  0  0
  -25.0641  -30.1189   22.9642 C   0  0  1  0  0  0  0  0  0  0  0  0
  -26.9463  -13.9090   19.4181 C   0  0  2  0  0  0  0  0  0  0  0  0
  -29.5543  -21.6910   16.0199 C   0  0  1  0  0  0  0  0  0  0  0  0
  -30.8866  -21.0495   21.0636 C   0  0  0  0  0  0  0  0  0  0  0  0
  -29.6187  -22.3239   14.6171 C   0  0  0  0  0  0  0  0  0  0  0  0
  -33.4416  -16.4939   18.1588 C   0  0  0  0  0  0  0  0  0  0  0  0
  -21.2726  -35.2177   18.5337 C   0  0  0  0  0  0  0  0  0  0  0  0
  -27.5077  -20.4370   15.2368 C   0  0  0  0  0  0  0  0  0  0  0  0
  -20.4537  -30.4331   23.0400 C   0  0  0  0  0  0  0  0  0  0  0  0
  -19.4498  -31.9776   21.3445 C   0  0  0  0  0  0  0  0  0  0  0  0
  -20.6283  -32.9103   23.3354 C   0  0  0  0  0  0  0  0  0  0  0  0
  -24.8547  -34.0239   18.0658 C   0  0  0  0  0  0  0  0  0  0  0  0
  -25.3502  -23.8597   17.1870 C   0  0  0  0  0  0  0  0  0  0  0  0
  -26.0378  -22.5039   17.1314 C   0  0  0  0  0  0  0  0  0  0  0  0
  -26.1659  -24.9321   17.8986 C   0  0  0  0  0  0  0  0  0  1  0  0
  -32.1508  -16.7287   18.9568 C   0  0  2  0  0  0  0  0  0  0  0  0
  -21.9771  -31.8281   21.4911 C   0  0  1  0  0  0  0  0  0  0  0  0
  -22.5865  -34.5773   18.9533 C   0  0  2  0  0  0  0  0  0  0  0  0
  -28.0847  -21.3297   16.3126 C   0  0  2  0  0  0  0  0  0  0  0  0
  -20.6477  -31.7690   22.2953 C   0  0  0  0  0  0  0  0  0  0  0  0
  -25.4759  -12.0301   20.0425 N   0  0  0  0  0  0  0  0  0  0  0  0
  -25.9089  -13.2710   20.3233 N   0  0  0  0  0  0  0  0  0  0  0  0
  -23.9949  -30.5055   22.0413 N   0  0  0  0  0  0  0  0  0  0  0  0
  -29.3535  -14.2724   19.0113 N   0  0  0  0  0  0  0  0  0  0  0  0
  -25.6560  -15.0577   21.8578 N   0  0  0  0  0  0  0  0  0  0  0  0
  -22.7996  -11.9287   23.4220 N   0  0  0  0  0  0  0  0  0  0  0  0
  -25.0142  -29.0592   25.1396 N   0  0  0  0  0  0  0  0  0  0  0  0
  -22.2002  -33.0921   20.7976 N   0  0  0  0  0  0  0  0  0  0  0  0
  -31.1577  -15.7437   18.5899 N   0  0  0  0  0  0  0  0  0  0  0  0
  -23.5149  -34.6022   17.7878 N   0  3  0  0  0  0  0  0  0  0  0  0
  -27.3120  -22.5931   16.3660 N   0  3  0  0  0  0  0  0  0  0  0  0
  -23.6174  -14.0429   23.7685 O   0  0  0  0  0  0  0  0  0  0  0  0
  -23.6777  -28.2599   23.4083 O   0  0  0  0  0  0  0  0  0  0  0  0
  -23.4144  -32.3841   23.2942 O   0  0  0  0  0  0  0  0  0  0  0  0
  -22.3703  -32.1877   18.6691 O   0  0  0  0  0  0  0  0  0  0  0  0
  -30.2788  -15.5653   20.6996 O   0  0  0  0  0  0  0  0  0  0  0  0
  -21.8860   -6.9006   21.2042 O   0  0  0  0  0  0  0  0  0  0  0  0
  -25.4197  -26.1425   17.9067 O   0  0  0  0  0  0  0  0  0  1  0  0
  -21.5031   -4.3769   26.0918 F   0  0  0  0  0  0  0  0  0  0  0  0
  -22.9432   -4.3744   21.5827 F   0  0  0  0  0  0  0  0  0  0  0  0
  1  2  1  0  0  0  0
  1  5  2  0  0  0  0
  2  6  2  0  0  0  0
  3  8  2  0  0  0  0
  3 17  1  0  0  0  0
  4  9  1  0  0  0  0
  4 17  2  0  0  0  0
  5 19  1  0  0  0  0
  6 21  1  0  0  0  0
  7 10  2  0  0  0  0
  7 20  1  0  0  0  0
  8 27  1  0  0  0  0
  9 27  2  0  0  0  0
 10 28  1  0  0  0  0
 11 12  2  0  0  0  0
 11 29  1  0  0  0  0
 12 30  1  0  0  0  0
 13 22  1  0  0  0  0
 13 25  2  0  0  0  0
 14 23  1  0  0  0  0
 14 28  2  0  0  0  0
 15 25  1  0  0  0  0
 15 26  2  0  0  0  0
 16 30  2  0  0  0  0
 16 31  1  0  0  0  0
 17 32  1  0  0  0  0
 18 32  1  0  0  0  0
 18 33  2  0  0  0  0
 18 34  1  0  0  0  0
 19 21  2  0  0  0  0
 19 39  1  0  0  0  0
 20 23  2  0  0  0  0
 20 40  1  0  0  0  0
 21 51  1  0  0  0  0
 22 24  2  0  0  0  0
 22 41  1  0  0  0  0
 23 43  1  0  0  0  0
 24 26  1  0  0  0  0
 24 42  1  0  0  0  0
 25 67  1  0  0  0  0
 26 55  1  0  0  0  0
 27 88  1  0  0  0  0
 28 89  1  0  0  0  0
 29 31  2  0  0  0  0
 29 88  1  0  0  0  0
 30 90  1  0  0  0  0
 31 91  1  0  0  0  0
 32 72  2  0  0  0  0
 33 73  1  0  0  0  0
 33 76  1  0  0  0  0
 34 77  1  0  0  0  0
 34 83  2  0  0  0  0
 35 52  1  0  0  0  0
 35 78  1  0  0  0  0
 35 84  2  0  0  0  0
 36 68  1  0  0  0  0
 36 74  1  0  0  0  0
 36 85  2  0  0  0  0
 37 69  1  0  0  0  0
 37 79  1  0  0  0  0
 37 86  2  0  0  0  0
 38 75  1  0  0  0  0
 38 80  1  0  0  0  0
 38 87  2  0  0  0  0
 39 44  1  0  0  0  0
 40 52  1  0  0  0  0
 41 54  1  0  0  0  0
 42 45  1  0  0  0  0
 43 74  1  0  0  0  0
 44 47  1  0  0  0  0
 45 54  1  0  0  0  0
 46 48  1  0  0  0  0
 46 49  1  0  0  0  0
 47 51  1  0  0  0  0
 48 53  1  0  0  0  0
 49 75  1  0  0  0  0
 50 53  1  0  0  0  0
 50 75  1  0  0  0  0
 51 78  1  0  0  0  0
 52 74  1  0  0  0  0
 53 73  1  0  0  0  0
 54 56  1  0  0  0  0
 54 70  1  0  0  0  0
 57 67  1  0  0  0  0
 58 69  1  0  0  0  0
 59 70  1  0  0  0  0
 60 71  1  0  0  0  0
 61 71  1  0  0  0  0
 62 71  1  0  0  0  0
 63 81  1  0  0  0  0
 64 65  1  0  0  0  0
 64 66  1  0  0  0  0
 65 82  1  0  0  0  0
 66 89  1  0  0  0  0
 67 80  1  0  0  0  0
 68 71  1  0  0  0  0
 68 79  1  0  0  0  0
 69 81  1  0  0  0  0
 70 82  1  0  0  0  0
 72 73  1  0  0  0  0
M  CHG  2  81   1  82   1
M  ISO  4  38 100  66 101  80 100  89 101
M  END
> <Batch ID>
0148

> <Smiles>
CNC(C)C(=O)NC(C(=O)N1Cc2cc([101O:1][101CH2:1]CCNC(C)C3(C)CCc4c(C)cc(C(C)[100NH:0][100C:0](=O)N5CCCC(n6nc(-c7ccc(Oc8ccc(F)cc8F)cc7)c(C(N)=O)c6N)C5)cc4C3)ccc2CC1C(=O)NC1CCCc2ccccc21)C(C)(C)C

> <Shape>
0.237

> <Color>
0.144

> <Negative vol penalty>
0.000

$$$$

  -OEChem-04052321363D

 89 99  0     1  0  0  0  0  0999 V2000
  -24.7648  -18.2204   35.8916 C   0  0  0  0  0  0  0  0  0  0  0  0
  -25.3137  -18.0856   34.6204 C   0  0  0  0  0  0  0  0  0  0  0  0
  -23.3114   -9.7798   19.9043 C   0  0  0  0  0  0  0  0  0  0  0  0
  -23.6976   -9.9542   22.2828 C   0  0  0  0  0  0  0  0  0  0  0  0
  -24.0127  -17.1816   36.4386 C   0  0  0  0  0  0  0  0  0  0  0  0
  -25.1117  -16.9114   33.8959 C   0  0  0  0  0  0  0  0  0  0  0  0
  -23.8906  -17.7971   29.0617 C   0  0  0  0  0  0  0  0  0  0  0  0
  -30.9405  -18.7993   24.9022 C   0  0  0  0  0  0  0  0  0  0  0  0
  -22.5826   -8.6082   20.1085 C   0  0  0  0  0  0  0  0  0  0  0  0
  -22.9687   -8.7826   22.4871 C   0  0  0  0  0  0  0  0  0  0  0  0
  -24.9273  -18.1442   28.1964 C   0  0  0  0  0  0  0  0  0  0  0  0
  -23.2296   -5.3432   20.6965 C   0  0  0  0  0  0  0  0  0  0  0  0
  -23.4841   -4.2662   19.8475 C   0  0  0  0  0  0  0  0  0  0  0  0
  -31.1605  -17.4438   24.6841 C   0  0  0  0  0  0  0  0  0  0  0  0
  -24.9952  -15.8760   27.3777 C   0  0  0  0  0  0  0  0  0  0  0  0
  -21.1808   -4.2964   19.1189 C   0  0  0  0  0  0  0  0  0  0  0  0
  -23.8690  -10.4528   20.9914 C   0  0  0  0  0  0  0  0  0  0  0  0
  -24.1275  -12.9806   20.7650 C   0  0  0  0  0  0  0  0  0  0  0  0
  -23.7934  -15.9979   35.7166 C   0  0  0  0  0  0  0  0  0  0  0  0
  -23.4050  -16.4821   29.0993 C   0  0  0  0  0  0  0  0  0  0  0  0
  -24.3572  -15.8553   34.4343 C   0  0  0  0  0  0  0  0  0  0  0  0
  -29.6424  -19.2974   24.8931 C   0  0  0  0  0  0  0  0  0  0  0  0
  -23.9506  -15.5155   28.2425 C   0  0  0  0  0  0  0  0  0  0  0  0
  -22.4112   -8.1096   21.3999 C   0  0  0  0  0  0  0  0  0  0  0  0
  -25.4817  -17.1829   27.3563 C   0  0  0  0  0  0  0  0  0  0  0  0
  -21.9507   -5.8968   20.7568 C   0  0  0  0  0  0  0  0  0  0  0  0
  -22.4597   -3.7428   19.0587 C   0  0  0  0  0  0  0  0  0  0  0  0
  -20.9263   -5.3734   19.9680 C   0  0  0  0  0  0  0  0  0  0  0  0
  -24.6225  -11.6628   20.7810 C   0  0  0  0  0  0  0  0  0  0  0  0
  -28.6071  -18.4057   24.6632 C   0  0  0  0  0  0  0  0  0  0  0  0
  -30.0573  -16.6350   24.4637 C   0  0  0  0  0  0  0  0  0  0  0  0
  -25.2335  -13.7600   20.5291 C   0  0  0  0  0  0  0  0  0  0  0  0
  -22.7877  -13.4575   20.9471 C   0  0  0  0  0  0  0  0  0  0  0  0
  -23.2588  -14.2075   31.3148 C   0  0  0  0  0  0  0  0  0  0  0  0
  -21.5522  -12.6453   29.0412 C   0  0  0  0  0  0  0  0  0  0  0  0
  -20.8228  -12.2428   25.7317 C   0  0  0  0  0  0  0  0  0  0  0  0
  -31.0823  -12.9448   21.5184 C   0  0  0  0  0  0  0  0  0  0  0  0
  -23.0133  -14.8839   36.3685 C   0  0  0  0  0  0  0  0  0  0  0  0
  -22.2683  -16.1301   30.0193 C   0  0  0  0  0  0  0  0  0  0  0  0
  -23.4513  -14.0945   28.2299 C   0  0  0  0  0  0  0  0  0  0  0  0
  -22.5320  -13.8205   35.3847 C   0  0  0  0  0  0  0  0  0  0  0  0
  -29.5151  -13.6374   18.3974 C   0  0  0  0  0  0  0  0  0  0  0  0
  -29.2680  -21.6698   23.9414 C   0  0  0  0  0  0  0  0  0  0  0  0
  -30.4887  -21.7376   24.8049 C   0  0  0  0  0  0  0  0  0  0  0  0
  -23.6615  -13.4136   34.4437 C   0  0  0  0  0  0  0  0  0  0  0  0
  -25.1323  -18.6630   23.0143 C   0  0  0  0  0  0  0  0  0  0  0  0
  -26.3711  -18.4633   22.1865 C   0  0  0  0  0  0  0  0  0  0  0  0
  -28.0388  -13.3287   18.6529 C   0  0  0  0  0  0  0  0  0  0  0  0
  -30.4313  -12.6704   19.1441 C   0  0  0  0  0  0  0  0  0  0  0  0
  -28.6992  -12.2603   20.8486 C   0  0  0  0  0  0  0  0  0  0  0  0
  -29.3983  -20.7485   25.1267 C   0  0  0  0  0  0  0  0  0  0  0  0
  -24.1396  -14.6067   33.6073 C   0  0  1  0  0  0  0  0  0  0  0  0
  -22.1995  -14.6404   30.3411 C   0  0  1  0  0  0  0  0  0  0  0  0
  -26.3699  -18.0833   23.6413 C   0  0  0  0  0  0  0  0  0  0  0  0
  -27.7366  -13.2438   20.1611 C   0  0  2  0  0  0  0  0  0  0  0  0
  -19.4168  -10.8619   24.1782 C   0  0  0  0  0  0  0  0  0  0  0  0
  -31.2349  -12.3458   25.1586 C   0  0  0  0  0  0  0  0  0  0  0  0
  -23.4822  -10.3061   29.3776 C   0  0  0  0  0  0  0  0  0  0  0  0
  -22.6409   -9.3900   27.2047 C   0  0  0  0  0  0  0  0  0  0  0  0
  -21.0811   -9.6506   29.1339 C   0  0  0  0  0  0  0  0  0  0  0  0
  -19.3606  -14.6225   24.7530 C   0  0  0  0  0  0  0  0  0  0  0  0
  -31.6086  -14.6931   24.2443 C   0  0  0  0  0  0  0  0  0  0  0  0
  -26.5202  -18.8623   26.0307 C   0  0  0  0  0  0  0  0  0  1  0  0
  -27.1681  -18.8909   24.6391 C   0  0  1  0  0  0  0  0  0  0  0  0
  -21.8894  -11.7081   27.9068 C   0  0  1  0  0  0  0  0  0  0  0  0
  -19.4981  -12.1406   24.9974 C   0  0  2  0  0  0  0  0  0  0  0  0
  -31.5783  -13.1932   23.9374 C   0  0  2  0  0  0  0  0  0  0  0  0
  -22.2843  -10.2899   28.4071 C   0  0  0  0  0  0  0  0  0  0  0  0
  -25.9404  -11.6045   20.5718 N   0  0  0  0  0  0  0  0  0  0  0  0
  -28.7817  -17.0826   24.4474 N   0  0  0  0  0  0  0  0  0  0  0  0
  -26.2829  -12.8953   20.4220 N   0  0  0  0  0  0  0  0  0  0  0  0
  -22.3425  -13.7980   29.1520 N   0  0  0  0  0  0  0  0  0  0  0  0
  -30.0935  -12.6379   20.5691 N   0  0  0  0  0  0  0  0  0  0  0  0
  -25.4011  -15.0937   20.4048 N   0  0  0  0  0  0  0  0  0  0  0  0
  -21.7711  -12.5212   21.1801 N   0  0  0  0  0  0  0  0  0  0  0  0
  -30.2977  -15.2557   24.2443 N   0  0  0  0  0  0  0  0  0  0  0  0
  -23.2136  -14.8699   32.5267 N   0  0  0  0  0  0  0  0  0  0  0  0
  -20.7408  -11.7260   27.0074 N   0  0  0  0  0  0  0  0  0  0  0  0
  -30.6767  -12.8967   22.8465 N   0  0  0  0  0  0  0  0  0  0  0  0
  -19.3252  -13.3000   24.0772 N   0  3  0  0  0  0  0  0  0  0  0  0
  -22.4978  -14.6765   20.8882 O   0  0  0  0  0  0  0  0  0  0  0  0
  -24.0571  -13.3359   30.9911 O   0  0  0  0  0  0  0  0  0  0  0  0
  -20.6172  -12.3684   29.7968 O   0  0  0  0  0  0  0  0  0  0  0  0
  -21.8306  -12.7289   25.2231 O   0  0  0  0  0  0  0  0  0  0  0  0
  -32.2393  -13.2452   21.2053 O   0  0  0  0  0  0  0  0  0  0  0  0
  -21.6998   -6.9665   21.5996 O   0  0  0  0  0  0  0  0  0  0  0  0
  -26.4941  -17.5189   26.5113 O   0  0  0  0  0  0  0  0  0  1  0  0
  -22.7046   -2.7095   18.2423 F   0  0  0  0  0  0  0  0  0  0  0  0
  -19.6959   -5.9017   20.0207 F   0  0  0  0  0  0  0  0  0  0  0  0
  1  2  1  0  0  0  0
  1  5  2  0  0  0  0
  2  6  2  0  0  0  0
  3  9  2  0  0  0  0
  3 17  1  0  0  0  0
  4 10  1  0  0  0  0
  4 17  2  0  0  0  0
  5 19  1  0  0  0  0
  6 21  1  0  0  0  0
  7 11  2  0  0  0  0
  7 20  1  0  0  0  0
  8 14  2  0  0  0  0
  8 22  1  0  0  0  0
  9 24  1  0  0  0  0
 10 24  2  0  0  0  0
 11 25  1  0  0  0  0
 12 13  2  0  0  0  0
 12 26  1  0  0  0  0
 13 27  1  0  0  0  0
 14 31  1  0  0  0  0
 15 23  1  0  0  0  0
 15 25  2  0  0  0  0
 16 27  2  0  0  0  0
 16 28  1  0  0  0  0
 17 29  1  0  0  0  0
 18 29  1  0  0  0  0
 18 32  2  0  0  0  0
 18 33  1  0  0  0  0
 19 21  2  0  0  0  0
 19 38  1  0  0  0  0
 20 23  2  0  0  0  0
 20 39  1  0  0  0  0
 21 52  1  0  0  0  0
 22 30  2  0  0  0  0
 22 51  1  0  0  0  0
 23 40  1  0  0  0  0
 24 86  1  0  0  0  0
 25 87  1  0  0  0  0
 26 28  2  0  0  0  0
 26 86  1  0  0  0  0
 27 88  1  0  0  0  0
 28 89  1  0  0  0  0
 29 69  2  0  0  0  0
 30 64  1  0  0  0  0
 30 70  1  0  0  0  0
 31 70  2  0  0  0  0
 31 76  1  0  0  0  0
 32 71  1  0  0  0  0
 32 74  1  0  0  0  0
 33 75  1  0  0  0  0
 33 81  2  0  0  0  0
 34 53  1  0  0  0  0
 34 77  1  0  0  0  0
 34 82  2  0  0  0  0
 35 65  1  0  0  0  0
 35 72  1  0  0  0  0
 35 83  2  0  0  0  0
 36 66  1  0  0  0  0
 36 78  1  0  0  0  0
 36 84  2  0  0  0  0
 37 73  1  0  0  0  0
 37 79  1  0  0  0  0
 37 85  2  0  0  0  0
 38 41  1  0  0  0  0
 39 53  1  0  0  0  0
 40 72  1  0  0  0  0
 41 45  1  0  0  0  0
 42 48  1  0  0  0  0
 42 49  1  0  0  0  0
 43 44  1  0  0  0  0
 43 51  1  0  0  0  0
 44 51  1  0  0  0  0
 45 52  1  0  0  0  0
 46 47  1  0  0  0  0
 46 54  1  0  0  0  0
 47 54  1  0  0  0  0
 48 55  1  0  0  0  0
 49 73  1  0  0  0  0
 50 55  1  0  0  0  0
 50 73  1  0  0  0  0
 52 77  1  0  0  0  0
 53 72  1  0  0  0  0
 54 64  1  0  0  0  0
 55 71  1  0  0  0  0
 56 66  1  0  0  0  0
 57 67  1  0  0  0  0
 58 68  1  0  0  0  0
 59 68  1  0  0  0  0
 60 68  1  0  0  0  0
 61 80  1  0  0  0  0
 62 67  1  0  0  0  0
 62 76  1  0  0  0  0
 63 64  1  0  0  0  0
 63 87  1  0  0  0  0
 65 68  1  0  0  0  0
 65 78  1  0  0  0  0
 66 80  1  0  0  0  0
 67 79  1  0  0  0  0
 69 71  1  0  0  0  0
M  CHG  1  80   1
M  ISO  4  37 100  63 101  79 100  87 101
M  END
> <Batch ID>
0148

> <Smiles>
CNC(C)C(=O)NC(C(=O)N1Cc2cc([101O:1][101CH2:1]C(c3nc(NCC(C)[100NH:0][100C:0](=O)N4CCCC(n5nc(-c6ccc(Oc7ccc(F)cc7F)cc6)c(C(N)=O)c5N)C4)ccc3C3CC3)C3CC3)ccc2CC1C(=O)NC1CCCc2ccccc21)C(C)(C)C

> <Shape>
0.121

> <Color>
0.174

> <Negative vol penalty>
0.000

$$$$

  -OEChem-04052321363D

 93102  0     1  0  0  0  0  0999 V2000
  -27.6419  -24.7657   16.6008 C   0  0  0  0  0  0  0  0  0  0  0  0
  -26.4536  -25.0854   17.2498 C   0  0  0  0  0  0  0  0  0  0  0  0
  -27.4320  -21.5873   24.0107 C   0  0  0  0  0  0  0  0  0  0  0  0
  -28.0759  -19.7801   22.5422 C   0  0  0  0  0  0  0  0  0  0  0  0
  -28.8641  -25.1046   17.1799 C   0  0  0  0  0  0  0  0  0  0  0  0
  -26.4869  -25.7433   18.4788 C   0  0  0  0  0  0  0  0  0  0  0  0
  -23.1447  -29.5388   18.7418 C   0  0  0  0  0  0  0  0  0  0  0  0
  -28.7313  -21.6401   24.5154 C   0  0  0  0  0  0  0  0  0  0  0  0
  -29.3752  -19.8329   23.0469 C   0  0  0  0  0  0  0  0  0  0  0  0
  -21.8117  -29.1988   18.9680 C   0  0  0  0  0  0  0  0  0  0  0  0
  -32.7709  -19.2498   24.2041 C   0  0  0  0  0  0  0  0  0  0  0  0
  -33.3920  -18.0424   24.5234 C   0  0  0  0  0  0  0  0  0  0  0  0
  -22.0713  -29.7574   21.3003 C   0  0  0  0  0  0  0  0  0  0  0  0
  -31.6447  -17.5664   26.1226 C   0  0  0  0  0  0  0  0  0  0  0  0
  -27.1043  -20.6572   23.0241 C   0  0  0  0  0  0  0  0  0  0  0  0
  -25.2478  -21.3127   21.4020 C   0  0  0  0  0  0  0  0  0  0  0  0
  -28.9122  -25.7755   18.4120 C   0  0  0  0  0  0  0  0  0  0  0  0
  -23.9555  -29.9810   19.7971 C   0  0  0  0  0  0  0  0  0  0  0  0
  -27.7109  -26.0903   19.0756 C   0  0  0  0  0  0  0  0  0  0  0  0
  -23.4136  -30.1048   21.0844 C   0  0  0  0  0  0  0  0  0  0  0  0
  -29.7029  -20.7629   24.0335 C   0  0  0  0  0  0  0  0  0  0  0  0
  -21.2756  -29.3054   20.2479 C   0  0  0  0  0  0  0  0  0  0  0  0
  -31.5867  -19.6156   24.8442 C   0  0  0  0  0  0  0  0  0  0  0  0
  -32.8289  -17.2007   25.4826 C   0  0  0  0  0  0  0  0  0  0  0  0
  -31.0236  -18.7739   25.8034 C   0  0  0  0  0  0  0  0  0  0  0  0
  -25.7622  -20.6018   22.5027 C   0  0  0  0  0  0  0  0  0  0  0  0
  -23.9365  -20.9130   21.3175 C   0  0  0  0  0  0  0  0  0  0  0  0
  -25.8973  -22.2505   20.5334 C   0  0  0  0  0  0  0  0  0  0  0  0
  -26.6074  -28.9143   21.1874 C   0  0  0  0  0  0  0  0  0  0  0  0
  -26.4239  -31.7211   22.8032 C   0  0  0  0  0  0  0  0  0  0  0  0
  -24.4845  -34.2908   23.9354 C   0  0  0  0  0  0  0  0  0  0  0  0
  -19.0976  -19.9579   24.0691 C   0  0  0  0  0  0  0  0  0  0  0  0
  -30.2580  -26.0791   19.0213 C   0  0  0  0  0  0  0  0  0  0  0  0
  -25.3841  -30.3693   19.5313 C   0  0  0  0  0  0  0  0  0  0  0  0
  -24.2363  -30.5938   22.2474 C   0  0  0  0  0  0  0  0  0  0  0  0
  -30.1989  -27.1088   20.1467 C   0  0  0  0  0  0  0  0  0  0  0  0
  -21.4593  -17.1752   23.6517 C   0  0  0  0  0  0  0  0  0  0  0  0
  -29.0626  -26.7817   21.1104 C   0  0  0  0  0  0  0  0  0  0  0  0
  -17.7432  -27.5503   23.1482 C   0  0  0  0  0  0  0  0  0  0  0  0
  -20.0579  -26.5541   23.3617 C   0  0  0  0  0  0  0  0  0  0  0  0
  -22.7589  -17.8878   23.2754 C   0  0  0  0  0  0  0  0  0  0  0  0
  -18.1467  -28.1950   21.8256 C   0  0  0  0  0  0  0  0  0  0  0  0
  -20.4552  -27.2020   22.0387 C   0  0  0  0  0  0  0  0  0  0  0  0
  -20.5741  -18.0372   24.5487 C   0  0  0  0  0  0  0  0  0  0  0  0
  -19.1177  -20.6918   21.6277 C   0  0  0  0  0  0  0  0  0  0  0  0
  -21.5899  -20.0927   23.6398 C   0  0  0  0  0  0  0  0  0  0  0  0
  -27.7053  -26.8257   20.3982 C   0  0  1  0  0  0  0  0  0  0  0  0
  -26.2593  -30.3180   20.7798 C   0  0  1  0  0  0  0  0  0  0  0  0
  -18.5500  -26.2739   23.4240 C   0  0  0  0  0  0  0  0  0  0  0  0
  -17.8667  -21.0633   20.8262 C   0  0  1  0  0  0  0  0  0  0  0  0
  -17.2299  -22.1446   21.7152 C   0  0  2  0  0  0  0  0  0  0  0  0
  -22.4757  -19.2812   22.6843 C   0  0  1  0  0  0  0  0  0  0  0  0
  -19.6471  -28.4689   21.7660 C   0  0  0  0  0  0  0  0  0  1  0  0
  -17.4623  -21.5736   23.1192 C   0  0  1  0  0  0  0  0  0  0  0  0
  -13.5113  -21.3303   20.8068 C   0  0  0  0  0  0  0  0  0  0  0  0
  -24.6108  -36.4192   25.2588 C   0  0  0  0  0  0  0  0  0  0  0  0
  -19.0605  -22.7939   19.4536 C   0  0  0  0  0  0  0  0  0  0  0  0
  -18.8909  -20.4307   18.6229 C   0  0  0  0  0  0  0  0  0  0  0  0
  -15.6280  -23.3545   20.2210 C   0  0  0  0  0  0  0  0  0  0  0  0
  -18.6250  -23.9902   26.5827 C   0  0  0  0  0  0  0  0  0  0  0  0
  -26.6010  -30.1030   25.3839 C   0  0  0  0  0  0  0  0  0  0  0  0
  -25.7794  -32.1182   26.6217 C   0  0  0  0  0  0  0  0  0  0  0  0
  -27.9420  -32.2140   25.3821 C   0  0  0  0  0  0  0  0  0  0  0  0
  -23.5634  -35.9113   21.6366 C   0  0  0  0  0  0  0  0  0  0  0  0
  -18.1680  -25.6763   24.7769 C   0  0  0  0  0  0  0  0  0  0  0  0
  -14.9832  -21.0986   21.1174 C   0  0  0  0  0  0  0  0  0  0  0  0
  -18.9489  -23.2840   24.1698 C   0  0  0  0  0  0  0  0  0  0  0  0
  -25.7713  -32.1753   24.0864 C   0  0  1  0  0  0  0  0  0  0  0  0
  -24.6700  -35.7962   23.8728 C   0  0  2  0  0  0  0  0  0  0  0  0
  -18.1927  -21.5349   19.4180 C   0  0  0  0  0  0  0  0  0  0  0  0
  -15.7604  -22.3971   21.4110 C   0  0  1  0  0  0  0  0  0  0  0  0
  -19.0095  -24.4465   25.1704 C   0  0  2  0  0  0  0  0  0  0  0  0
  -26.5082  -31.6415   25.3472 C   0  0  0  0  0  0  0  0  0  0  0  0
  -24.8519  -19.8106   23.0766 N   0  0  0  0  0  0  0  0  0  0  0  0
  -23.7522  -20.0220   22.3335 N   0  0  0  0  0  0  0  0  0  0  0  0
  -25.6296  -30.9552   21.9381 N   0  0  0  0  0  0  0  0  0  0  0  0
  -20.3596  -19.3600   23.9616 N   0  0  0  0  0  0  0  0  0  0  0  0
  -18.6936  -20.7956   23.0264 N   0  0  0  0  0  0  0  0  0  0  0  0
  -22.9345  -21.2404   20.4741 N   0  0  0  0  0  0  0  0  0  0  0  0
  -27.2479  -22.5476   20.7611 N   0  0  0  0  0  0  0  0  0  0  0  0
  -27.2750  -28.1952   20.2145 N   0  0  0  0  0  0  0  0  0  0  0  0
  -25.6923  -33.6301   24.0116 N   0  0  0  0  0  0  0  0  0  0  0  0
  -17.5911  -22.6764   24.1005 N   0  3  0  0  0  0  0  0  0  0  0  0
  -23.6052  -36.4149   23.0335 N   0  3  0  0  0  0  0  0  0  0  0  0
  -25.2933  -22.8208   19.5935 O   0  0  0  0  0  0  0  0  0  0  0  0
  -26.2948  -28.5139   22.3026 O   0  0  0  0  0  0  0  0  0  0  0  0
  -27.5930  -32.0404   22.5733 O   0  0  0  0  0  0  0  0  0  0  0  0
  -23.3785  -33.7549   23.9220 O   0  0  0  0  0  0  0  0  0  0  0  0
  -18.3554  -19.7296   25.0331 O   0  0  0  0  0  0  0  0  0  0  0  0
  -30.9708  -20.8143   24.5255 O   0  0  0  0  0  0  0  0  0  0  0  0
  -19.9664  -28.9714   20.4731 O   0  0  0  0  0  0  0  0  0  1  0  0
  -33.4246  -16.0405   25.7879 F   0  0  0  0  0  0  0  0  0  0  0  0
  -29.8855  -19.1194   26.4207 F   0  0  0  0  0  0  0  0  0  0  0  0
  1  2  1  0  0  0  0
  1  5  2  0  0  0  0
  2  6  2  0  0  0  0
  3  8  2  0  0  0  0
  3 15  1  0  0  0  0
  4  9  1  0  0  0  0
  4 15  2  0  0  0  0
  5 17  1  0  0  0  0
  6 19  1  0  0  0  0
  7 10  2  0  0  0  0
  7 18  1  0  0  0  0
  8 21  1  0  0  0  0
  9 21  2  0  0  0  0
 10 22  1  0  0  0  0
 11 12  2  0  0  0  0
 11 23  1  0  0  0  0
 12 24  1  0  0  0  0
 13 20  1  0  0  0  0
 13 22  2  0  0  0  0
 14 24  2  0  0  0  0
 14 25  1  0  0  0  0
 15 26  1  0  0  0  0
 16 26  1  0  0  0  0
 16 27  2  0  0  0  0
 16 28  1  0  0  0  0
 17 19  2  0  0  0  0
 17 33  1  0  0  0  0
 18 20  2  0  0  0  0
 18 34  1  0  0  0  0
 19 47  1  0  0  0  0
 20 35  1  0  0  0  0
 21 90  1  0  0  0  0
 22 91  1  0  0  0  0
 23 25  2  0  0  0  0
 23 90  1  0  0  0  0
 24 92  1  0  0  0  0
 25 93  1  0  0  0  0
 26 74  2  0  0  0  0
 27 75  1  0  0  0  0
 27 79  1  0  0  0  0
 28 80  1  0  0  0  0
 28 85  2  0  0  0  0
 29 48  1  0  0  0  0
 29 81  1  0  0  0  0
 29 86  2  0  0  0  0
 30 68  1  0  0  0  0
 30 76  1  0  0  0  0
 30 87  2  0  0  0  0
 31 69  1  0  0  0  0
 31 82  1  0  0  0  0
 31 88  2  0  0  0  0
 32 77  1  0  0  0  0
 32 78  1  0  0  0  0
 32 89  2  0  0  0  0
 33 36  1  0  0  0  0
 34 48  1  0  0  0  0
 35 76  1  0  0  0  0
 36 38  1  0  0  0  0
 37 41  1  0  0  0  0
 37 44  1  0  0  0  0
 38 47  1  0  0  0  0
 39 42  1  0  0  0  0
 39 49  1  0  0  0  0
 40 43  1  0  0  0  0
 40 49  1  0  0  0  0
 41 52  1  0  0  0  0
 42 53  1  0  0  0  0
 43 53  1  0  0  0  0
 44 77  1  0  0  0  0
 45 50  1  0  0  0  0
 45 78  1  0  0  0  0
 46 52  1  0  0  0  0
 46 77  1  0  0  0  0
 47 81  1  0  0  0  0
 48 76  1  0  0  0  0
 49 65  1  0  0  0  0
 50 51  1  0  0  0  0
 50 70  1  0  0  0  0
 51 54  1  0  0  0  0
 51 71  1  0  0  0  0
 52 75  1  0  0  0  0
 53 91  1  0  0  0  0
 54 78  1  0  0  0  0
 54 83  1  0  0  0  0
 55 66  1  0  0  0  0
 56 69  1  0  0  0  0
 57 70  1  0  0  0  0
 58 70  1  0  0  0  0
 59 71  1  0  0  0  0
 60 72  1  0  0  0  0
 61 73  1  0  0  0  0
 62 73  1  0  0  0  0
 63 73  1  0  0  0  0
 64 84  1  0  0  0  0
 65 72  1  0  0  0  0
 66 71  1  0  0  0  0
 67 72  1  0  0  0  0
 67 83  1  0  0  0  0
 68 73  1  0  0  0  0
 68 82  1  0  0  0  0
 69 84  1  0  0  0  0
 74 75  1  0  0  0  0
M  CHG  2  83   1  84   1
M  ISO  4  32 100  53 101  78 100  91 101
M  END
> <Batch ID>
0148

> <Smiles>
CCC(C)C1C(C(C)C)C[100N:0]([100C:0](=O)N2CCCC(n3nc(-c4ccc(Oc5ccc(F)cc5F)cc4)c(C(N)=O)c3N)C2)C1NCC(C)CC1CC[101CH:1]([101O:1]c2ccc3c(c2)CN(C(=O)C(NC(=O)C(C)NC)C(C)(C)C)C(C(=O)NC2CCCc4ccccc42)C3)CC1

> <Shape>
0.202

> <Color>
0.065

> <Negative vol penalty>
0.000

$$$$

  -OEChem-04052321363D

 92101  0     1  0  0  0  0  0999 V2000
  -31.6702  -31.9375   14.7889 C   0  0  0  0  0  0  0  0  0  0  0  0
  -31.0215  -30.7098   14.8756 C   0  0  0  0  0  0  0  0  0  0  0  0
  -23.1891  -11.9936   23.0258 C   0  0  0  0  0  0  0  0  0  0  0  0
  -23.2724  -14.4052   22.9075 C   0  0  0  0  0  0  0  0  0  0  0  0
  -31.9287  -32.6712   15.9459 C   0  0  0  0  0  0  0  0  0  0  0  0
  -30.6319  -30.2147   16.1196 C   0  0  0  0  0  0  0  0  0  0  0  0
  -25.6343  -26.9002   17.3620 C   0  0  0  0  0  0  0  0  0  0  0  0
  -22.3911  -12.0771   24.1668 C   0  0  0  0  0  0  0  0  0  0  0  0
  -22.4743  -14.4888   24.0485 C   0  0  0  0  0  0  0  0  0  0  0  0
  -25.4338  -25.5300   17.5239 C   0  0  0  0  0  0  0  0  0  0  0  0
  -20.1604  -15.3374   26.7213 C   0  0  0  0  0  0  0  0  0  0  0  0
  -19.1045  -16.2487   26.7098 C   0  0  0  0  0  0  0  0  0  0  0  0
  -25.6341  -25.7893   19.9138 C   0  0  0  0  0  0  0  0  0  0  0  0
  -31.4891  -18.2932   23.1593 C   0  0  0  0  0  0  0  0  0  0  0  0
  -29.2302  -17.4694   22.9236 C   0  0  0  0  0  0  0  0  0  0  0  0
  -30.2974  -17.4655   25.0911 C   0  0  0  0  0  0  0  0  0  0  0  0
  -18.1398  -15.1067   24.8118 C   0  0  0  0  0  0  0  0  0  0  0  0
  -23.6298  -13.1577   22.3962 C   0  0  0  0  0  0  0  0  0  0  0  0
  -24.0220  -13.0216   19.8792 C   0  0  0  0  0  0  0  0  0  0  0  0
  -31.5335  -32.1893   17.2038 C   0  0  0  0  0  0  0  0  0  0  0  0
  -25.8474  -27.7249   18.4759 C   0  0  0  0  0  0  0  0  0  0  0  0
  -30.8867  -30.9420   17.2946 C   0  0  0  0  0  0  0  0  0  0  0  0
  -25.8344  -27.1700   19.7636 C   0  0  0  0  0  0  0  0  0  0  0  0
  -30.3804  -18.0199   22.3582 C   0  0  0  0  0  0  0  0  0  0  0  0
  -22.0337  -13.3246   24.6781 C   0  0  0  0  0  0  0  0  0  0  0  0
  -25.4365  -24.9739   18.7997 C   0  0  0  0  0  0  0  0  0  0  0  0
  -20.2062  -14.3108   25.7780 C   0  0  0  0  0  0  0  0  0  0  0  0
  -31.4476  -18.0159   24.5257 C   0  0  0  0  0  0  0  0  0  0  0  0
  -29.1887  -17.1922   24.2900 C   0  0  0  0  0  0  0  0  0  0  0  0
  -18.0941  -16.1333   25.7550 C   0  0  0  0  0  0  0  0  0  0  0  0
  -19.1958  -14.1955   24.8233 C   0  0  0  0  0  0  0  0  0  0  0  0
  -24.4546  -13.0721   21.2179 C   0  0  0  0  0  0  0  0  0  0  0  0
  -25.1812  -12.9464   19.1464 C   0  0  0  0  0  0  0  0  0  0  0  0
  -22.6913  -13.0409   19.3458 C   0  0  0  0  0  0  0  0  0  0  0  0
  -28.2292  -29.5799   19.4707 C   0  0  0  0  0  0  0  0  0  0  0  0
  -26.1002  -30.4143   21.7715 C   0  0  0  0  0  0  0  0  0  0  0  0
  -23.3282  -29.5983   23.5871 C   0  0  0  0  0  0  0  0  0  0  0  0
  -30.8138  -14.6589   20.2385 C   0  0  0  0  0  0  0  0  0  0  0  0
  -31.8770  -32.9960   18.4310 C   0  0  0  0  0  0  0  0  0  0  0  0
  -26.0354  -29.2051   18.2862 C   0  0  0  0  0  0  0  0  0  0  0  0
  -26.0384  -28.0151   20.9934 C   0  0  0  0  0  0  0  0  0  0  0  0
  -31.0976  -32.5753   19.6743 C   0  0  0  0  0  0  0  0  0  0  0  0
  -29.6929  -11.3787   19.4258 C   0  0  0  0  0  0  0  0  0  0  0  0
  -31.1062  -31.0571   19.8214 C   0  0  0  0  0  0  0  0  0  0  0  0
  -28.1842  -11.4362   19.6722 C   0  0  0  0  0  0  0  0  0  0  0  0
  -26.8986  -21.9000   20.8785 C   0  0  0  0  0  0  0  0  0  0  0  0
  -30.4634  -12.2153   20.4448 C   0  0  0  0  0  0  0  0  0  0  0  0
  -28.5101  -13.6745   20.8046 C   0  0  0  0  0  0  0  0  0  0  0  0
  -30.4265  -30.3829   18.6235 C   0  0  1  0  0  0  0  0  0  0  0  0
  -26.7551  -29.8706   19.4552 C   0  0  1  0  0  0  0  0  0  0  0  0
  -27.1845  -21.4682   19.4649 C   0  0  1  0  0  0  0  0  0  0  0  0
  -27.6868  -12.8910   19.7680 C   0  0  2  0  0  0  0  0  0  0  0  0
  -27.2525  -20.4669   20.5870 C   0  0  1  0  0  0  0  0  0  0  0  0
  -21.8486  -30.4638   25.4199 C   0  0  0  0  0  0  0  0  0  0  0  0
  -26.4097  -20.4546   17.3176 C   0  0  0  0  0  0  0  0  0  0  0  0
  -31.0311  -17.3909   18.5444 C   0  0  0  0  0  0  0  0  0  0  0  0
  -28.2320  -29.6905   23.8309 C   0  0  0  0  0  0  0  0  0  0  0  0
  -26.4361  -29.6557   25.5749 C   0  0  0  0  0  0  0  0  0  0  0  0
  -26.9426  -31.7694   24.3508 C   0  0  0  0  0  0  0  0  0  0  0  0
  -20.9552  -29.6219   21.8187 C   0  0  0  0  0  0  0  0  0  0  0  0
  -33.6724  -18.8445   24.6660 C   0  0  0  0  0  0  0  0  0  0  0  0
  -26.9705  -16.3989   23.9641 C   0  0  0  0  0  0  0  0  0  0  0  0
  -29.0344  -18.7341   20.3395 C   0  0  0  0  0  0  0  0  0  0  0  0
  -25.6816  -22.7846   17.9038 C   0  0  0  0  0  0  0  0  0  1  0  0
  -30.4262  -18.3218   20.8645 C   0  0  2  0  0  0  0  0  0  0  0  0
  -25.7513  -29.8936   23.1448 C   0  0  1  0  0  0  0  0  0  0  0  0
  -22.0730  -30.3854   23.9179 C   0  0  2  0  0  0  0  0  0  0  0  0
  -26.0517  -21.3964   18.4397 C   0  0  2  0  0  0  0  0  0  0  0  0
  -31.0038  -17.1264   20.0519 C   0  0  1  0  0  0  0  0  0  0  0  0
  -26.8386  -30.2358   24.2023 C   0  0  0  0  0  0  0  0  0  0  0  0
  -25.7848  -13.0322   21.3318 N   0  0  0  0  0  0  0  0  0  0  0  0
  -26.1981  -12.9558   20.0552 N   0  0  0  0  0  0  0  0  0  0  0  0
  -26.2245  -29.4561   20.7555 N   0  0  0  0  0  0  0  0  0  0  0  0
  -29.9436  -13.5843   20.4854 N   0  0  0  0  0  0  0  0  0  0  0  0
  -25.4197  -12.8738   17.8196 N   0  0  0  0  0  0  0  0  0  0  0  0
  -21.6145  -13.1212   20.2393 N   0  0  0  0  0  0  0  0  0  0  0  0
  -28.9870  -30.4757   18.7410 N   0  0  0  0  0  0  0  0  0  0  0  0
  -24.4273  -30.4207   23.4570 N   0  0  0  0  0  0  0  0  0  0  0  0
  -30.2387  -15.9228   20.2900 N   0  0  0  0  0  0  0  0  0  0  0  0
  -28.5809  -19.9972   20.9983 N   0  3  0  0  0  0  0  0  0  0  0  0
  -20.8801  -29.7427   23.2974 N   0  3  0  0  0  0  0  0  0  0  0  0
  -22.4633  -12.9720   18.1142 O   0  0  0  0  0  0  0  0  0  0  0  0
  -28.6481  -28.6151   20.0995 O   0  0  0  0  0  0  0  0  0  0  0  0
  -26.2498  -31.6274   21.6047 O   0  0  0  0  0  0  0  0  0  0  0  0
  -23.3339  -28.3757   23.4608 O   0  0  0  0  0  0  0  0  0  0  0  0
  -32.0132  -14.5033   19.9852 O   0  0  0  0  0  0  0  0  0  0  0  0
  -21.2548  -13.4065   25.7913 O   0  0  0  0  0  0  0  0  0  0  0  0
  -32.5292  -18.2822   25.3082 O   0  0  0  0  0  0  0  0  0  0  0  0
  -28.0664  -16.6540   24.8412 O   0  0  0  0  0  0  0  0  0  0  0  0
  -25.2418  -23.6367   18.9605 O   0  0  0  0  0  0  0  0  0  1  0  0
  -17.0793  -17.0075   25.7450 F   0  0  0  0  0  0  0  0  0  0  0  0
  -19.2336  -13.2106   23.9153 F   0  0  0  0  0  0  0  0  0  0  0  0
  1  2  1  0  0  0  0
  1  5  2  0  0  0  0
  2  6  2  0  0  0  0
  3  8  2  0  0  0  0
  3 18  1  0  0  0  0
  4  9  1  0  0  0  0
  4 18  2  0  0  0  0
  5 20  1  0  0  0  0
  6 22  1  0  0  0  0
  7 10  2  0  0  0  0
  7 21  1  0  0  0  0
  8 25  1  0  0  0  0
  9 25  2  0  0  0  0
 10 26  1  0  0  0  0
 11 12  2  0  0  0  0
 11 27  1  0  0  0  0
 12 30  1  0  0  0  0
 13 23  1  0  0  0  0
 13 26  2  0  0  0  0
 14 24  1  0  0  0  0
 14 28  2  0  0  0  0
 15 24  2  0  0  0  0
 15 29  1  0  0  0  0
 16 28  1  0  0  0  0
 16 29  2  0  0  0  0
 17 30  2  0  0  0  0
 17 31  1  0  0  0  0
 18 32  1  0  0  0  0
 19 32  1  0  0  0  0
 19 33  2  0  0  0  0
 19 34  1  0  0  0  0
 20 22  2  0  0  0  0
 20 39  1  0  0  0  0
 21 23  2  0  0  0  0
 21 40  1  0  0  0  0
 22 49  1  0  0  0  0
 23 41  1  0  0  0  0
 24 65  1  0  0  0  0
 25 87  1  0  0  0  0
 26 90  1  0  0  0  0
 27 31  2  0  0  0  0
 27 87  1  0  0  0  0
 28 88  1  0  0  0  0
 29 89  1  0  0  0  0
 30 91  1  0  0  0  0
 31 92  1  0  0  0  0
 32 71  2  0  0  0  0
 33 72  1  0  0  0  0
 33 75  1  0  0  0  0
 34 76  1  0  0  0  0
 34 82  2  0  0  0  0
 35 50  1  0  0  0  0
 35 77  1  0  0  0  0
 35 83  2  0  0  0  0
 36 66  1  0  0  0  0
 36 73  1  0  0  0  0
 36 84  2  0  0  0  0
 37 67  1  0  0  0  0
 37 78  1  0  0  0  0
 37 85  2  0  0  0  0
 38 74  1  0  0  0  0
 38 79  1  0  0  0  0
 38 86  2  0  0  0  0
 39 42  1  0  0  0  0
 40 50  1  0  0  0  0
 41 73  1  0  0  0  0
 42 44  1  0  0  0  0
 43 45  1  0  0  0  0
 43 47  1  0  0  0  0
 44 49  1  0  0  0  0
 45 52  1  0  0  0  0
 46 51  1  0  0  0  0
 46 53  1  0  0  0  0
 47 74  1  0  0  0  0
 48 52  1  0  0  0  0
 48 74  1  0  0  0  0
 49 77  1  0  0  0  0
 50 73  1  0  0  0  0
 51 53  1  0  0  0  0
 51 68  1  0  0  0  0
 52 72  1  0  0  0  0
 53 80  1  0  0  0  0
 54 67  1  0  0  0  0
 55 68  1  0  0  0  0
 56 69  1  0  0  0  0
 57 70  1  0  0  0  0
 58 70  1  0  0  0  0
 59 70  1  0  0  0  0
 60 81  1  0  0  0  0
 61 88  1  0  0  0  0
 62 89  1  0  0  0  0
 63 65  1  0  0  0  0
 63 80  1  0  0  0  0
 64 68  1  0  0  0  0
 64 90  1  0  0  0  0
 65 69  1  0  0  0  0
 66 70  1  0  0  0  0
 66 78  1  0  0  0  0
 67 81  1  0  0  0  0
 69 79  1  0  0  0  0
 71 72  1  0  0  0  0
M  CHG  2  80   1  81   1
M  ISO  4  38 100  64 101  79 100  90 101
M  END
> <Batch ID>
0148

> <Smiles>
CNC(C)C(=O)NC(C(=O)N1Cc2cc([101O:1][101CH2:1]C(C)C3CC3NCC(c3cc(OC)cc(OC)c3)C(C)[100NH:0][100C:0](=O)N3CCCC(n4nc(-c5ccc(Oc6ccc(F)cc6F)cc5)c(C(N)=O)c4N)C3)ccc2CC1C(=O)NC1CCCc2ccccc21)C(C)(C)C

> <Shape>
0.216

> <Color>
0.081

> <Negative vol penalty>
0.000

$$$$

  -OEChem-04052321363D

 87 96  0     1  0  0  0  0  0999 V2000
  -27.5581  -25.5389    7.3216 C   0  0  0  0  0  0  0  0  0  0  0  0
  -26.6765  -25.0211    8.2651 C   0  0  0  0  0  0  0  0  0  0  0  0
  -23.1680   -9.9017   19.8899 C   0  0  0  0  0  0  0  0  0  0  0  0
  -23.5906   -9.9451   22.2682 C   0  0  0  0  0  0  0  0  0  0  0  0
  -28.9026  -25.7127    7.6471 C   0  0  0  0  0  0  0  0  0  0  0  0
  -27.1393  -24.6758    9.5344 C   0  0  0  0  0  0  0  0  0  0  0  0
  -24.0938  -25.1728   14.8244 C   0  0  0  0  0  0  0  0  0  0  0  0
  -22.3872   -8.7570   20.0495 C   0  0  0  0  0  0  0  0  0  0  0  0
  -22.8097   -8.8004   22.4279 C   0  0  0  0  0  0  0  0  0  0  0  0
  -23.3817  -24.2482   15.5872 C   0  0  0  0  0  0  0  0  0  0  0  0
  -21.2228   -5.6830   23.4145 C   0  0  0  0  0  0  0  0  0  0  0  0
  -21.7190   -4.6687   24.2334 C   0  0  0  0  0  0  0  0  0  0  0  0
  -24.9556  -18.1596   18.0570 C   0  0  0  0  0  0  0  0  0  0  0  0
  -25.3345  -23.8823   16.9555 C   0  0  0  0  0  0  0  0  0  0  0  0
  -23.6486   -4.4521   22.7957 C   0  0  0  0  0  0  0  0  0  0  0  0
  -23.7698  -10.4958   20.9993 C   0  0  0  0  0  0  0  0  0  0  0  0
  -24.1446  -13.0166   20.8875 C   0  0  0  0  0  0  0  0  0  0  0  0
  -29.3802  -25.3784    8.9241 C   0  0  0  0  0  0  0  0  0  0  0  0
  -25.4370  -25.4514   15.1151 C   0  0  0  0  0  0  0  0  0  0  0  0
  -28.4917  -24.8441    9.8768 C   0  0  0  0  0  0  0  0  0  0  0  0
  -25.7556  -18.3911   16.9435 C   0  0  0  0  0  0  0  0  0  0  0  0
  -26.0606  -24.8127   16.1964 C   0  0  0  0  0  0  0  0  0  0  0  0
  -23.7665  -18.8638   18.2104 C   0  0  0  0  0  0  0  0  0  0  0  0
  -22.2080   -8.2064   21.3185 C   0  0  0  0  0  0  0  0  0  0  0  0
  -24.0029  -23.6006   16.6511 C   0  0  0  0  0  0  0  0  0  0  0  0
  -21.9394   -6.0818   22.2862 C   0  0  0  0  0  0  0  0  0  0  0  0
  -22.9319   -4.0533   23.9240 C   0  0  0  0  0  0  0  0  0  0  0  0
  -23.1523   -5.4664   21.9768 C   0  0  0  0  0  0  0  0  0  0  0  0
  -24.5770  -11.6779   20.8349 C   0  0  0  0  0  0  0  0  0  0  0  0
  -23.4251  -19.7813   17.2299 C   0  0  0  0  0  0  0  0  0  0  0  0
  -25.3250  -19.3297   16.0196 C   0  0  0  0  0  0  0  0  0  0  0  0
  -25.2834  -13.7539   20.6726 C   0  0  0  0  0  0  0  0  0  0  0  0
  -22.8311  -13.5463   21.1108 C   0  0  0  0  0  0  0  0  0  0  0  0
  -28.1840  -25.1338   13.5476 C   0  0  0  0  0  0  0  0  0  0  0  0
  -29.3841  -26.7039   16.1199 C   0  0  0  0  0  0  0  0  0  0  0  0
  -29.0629  -27.5399   19.4130 C   0  0  0  0  0  0  0  0  0  0  0  0
  -29.9935  -14.7735   18.0863 C   0  0  0  0  0  0  0  0  0  0  0  0
  -30.8514  -25.5398    9.2142 C   0  0  0  0  0  0  0  0  0  0  0  0
  -26.1834  -26.4712   14.2993 C   0  0  0  0  0  0  0  0  0  0  0  0
  -27.4947  -25.0915   16.5625 C   0  0  0  0  0  0  0  0  0  0  0  0
  -31.1866  -25.4997   10.7030 C   0  0  0  0  0  0  0  0  0  0  0  0
  -30.1437  -12.3812   20.5775 C   0  0  0  0  0  0  0  0  0  0  0  0
  -30.4733  -24.3334   11.3796 C   0  0  0  0  0  0  0  0  0  0  0  0
  -28.6755  -12.0839   20.8824 C   0  0  0  0  0  0  0  0  0  0  0  0
  -28.0561  -17.9207   17.8948 C   0  0  0  0  0  0  0  0  0  0  0  0
  -26.8179  -16.1128   16.6304 C   0  0  0  0  0  0  0  0  0  0  0  0
  -30.3702  -12.5350   19.0777 C   0  0  0  0  0  0  0  0  0  0  0  0
  -29.3485  -17.1273   17.7177 C   0  0  0  0  0  0  0  0  0  0  0  0
  -28.1375  -15.3615   16.4803 C   0  0  0  0  0  0  0  0  0  0  0  0
  -28.0416  -13.2946   18.7384 C   0  0  0  0  0  0  0  0  0  0  0  0
  -27.0543  -17.6275   16.7647 C   0  0  0  0  0  0  0  0  0  0  0  0
  -28.9508  -24.4809   11.2724 C   0  0  1  0  0  0  0  0  0  0  0  0
  -27.6976  -26.2968   14.3651 C   0  0  1  0  0  0  0  0  0  0  0  0
  -27.7547  -13.1396   20.2453 C   0  0  1  0  0  0  0  0  0  0  0  0
  -22.9052  -18.6214   19.4014 C   0  0  0  0  0  0  0  0  0  0  0  0
  -30.2208  -28.8022   21.2469 C   0  0  0  0  0  0  0  0  0  0  0  0
  -31.3944  -24.4274   16.4142 C   0  0  0  0  0  0  0  0  0  0  0  0
  -31.8641  -25.2356   18.7368 C   0  0  0  0  0  0  0  0  0  0  0  0
  -32.3434  -26.7115   16.7838 C   0  0  0  0  0  0  0  0  0  0  0  0
  -26.7797  -29.3949   19.7359 C   0  0  0  0  0  0  0  0  0  0  0  0
  -25.5858  -20.5612   14.0020 C   0  0  0  0  0  0  0  0  0  0  0  0
  -22.1602  -20.5675   17.3436 C   0  0  0  0  0  0  0  0  0  0  0  0
  -22.2742  -21.9698   16.7402 C   0  0  0  0  0  0  0  0  0  1  0  0
  -29.9439  -26.2901   17.4594 C   0  0  1  0  0  0  0  0  0  0  0  0
  -29.1897  -28.8712   20.1312 C   0  0  2  0  0  0  0  0  0  0  0  0
  -31.3600  -25.6592   17.3407 C   0  0  0  0  0  0  0  0  0  0  0  0
  -25.8881  -11.5682   20.6045 N   0  0  0  0  0  0  0  0  0  0  0  0
  -24.1763  -20.0333   16.1345 N   0  0  0  0  0  0  0  0  0  0  0  0
  -26.2893  -12.8473   20.5103 N   0  0  0  0  0  0  0  0  0  0  0  0
  -28.1841  -26.0919   15.7309 N   0  0  0  0  0  0  0  0  0  0  0  0
  -29.4731  -13.5412   18.5098 N   0  0  0  0  0  0  0  0  0  0  0  0
  -29.0796  -15.6990   17.5560 N   0  0  0  0  0  0  0  0  0  0  0  0
  -25.5123  -15.0828   20.6084 N   0  0  0  0  0  0  0  0  0  0  0  0
  -21.7743  -12.6484   21.3142 N   0  0  0  0  0  0  0  0  0  0  0  0
  -28.4680  -25.4499   12.2327 N   0  0  0  0  0  0  0  0  0  0  0  0
  -29.8867  -27.4746   18.3092 N   0  0  0  0  0  0  0  0  0  0  0  0
  -27.8809  -29.2663   20.7246 N   0  3  0  0  0  0  0  0  0  0  0  0
  -22.5985  -14.7789   21.1130 O   0  0  0  0  0  0  0  0  0  0  0  0
  -28.2949  -24.0315   14.0713 O   0  0  0  0  0  0  0  0  0  0  0  0
  -29.9856  -27.5445   15.4467 O   0  0  0  0  0  0  0  0  0  0  0  0
  -28.3113  -26.6457   19.7952 O   0  0  0  0  0  0  0  0  0  0  0  0
  -31.1991  -15.0357   18.1803 O   0  0  0  0  0  0  0  0  0  0  0  0
  -21.4459   -7.0895   21.4747 O   0  0  0  0  0  0  0  0  0  0  0  0
  -23.3055  -22.6909   17.4021 O   0  0  0  0  0  0  0  0  0  1  0  0
  -26.0864  -19.5867   14.9092 O   0  0  0  0  0  0  0  0  0  0  0  0
  -23.4090   -3.0803   24.7113 F   0  0  0  0  0  0  0  0  0  0  0  0
  -23.8459   -5.8460   20.8949 F   0  0  0  0  0  0  0  0  0  0  0  0
  1  2  1  0  0  0  0
  1  5  2  0  0  0  0
  2  6  2  0  0  0  0
  3  8  2  0  0  0  0
  3 16  1  0  0  0  0
  4  9  1  0  0  0  0
  4 16  2  0  0  0  0
  5 18  1  0  0  0  0
  6 20  1  0  0  0  0
  7 10  2  0  0  0  0
  7 19  1  0  0  0  0
  8 24  1  0  0  0  0
  9 24  2  0  0  0  0
 10 25  1  0  0  0  0
 11 12  2  0  0  0  0
 11 26  1  0  0  0  0
 12 27  1  0  0  0  0
 13 21  2  0  0  0  0
 13 23  1  0  0  0  0
 14 22  1  0  0  0  0
 14 25  2  0  0  0  0
 15 27  2  0  0  0  0
 15 28  1  0  0  0  0
 16 29  1  0  0  0  0
 17 29  1  0  0  0  0
 17 32  2  0  0  0  0
 17 33  1  0  0  0  0
 18 20  2  0  0  0  0
 18 38  1  0  0  0  0
 19 22  2  0  0  0  0
 19 39  1  0  0  0  0
 20 52  1  0  0  0  0
 21 31  1  0  0  0  0
 21 51  1  0  0  0  0
 22 40  1  0  0  0  0
 23 30  2  0  0  0  0
 23 55  1  0  0  0  0
 24 83  1  0  0  0  0
 25 84  1  0  0  0  0
 26 28  2  0  0  0  0
 26 83  1  0  0  0  0
 27 86  1  0  0  0  0
 28 87  1  0  0  0  0
 29 67  2  0  0  0  0
 30 62  1  0  0  0  0
 30 68  1  0  0  0  0
 31 68  2  0  0  0  0
 31 85  1  0  0  0  0
 32 69  1  0  0  0  0
 32 73  1  0  0  0  0
 33 74  1  0  0  0  0
 33 78  2  0  0  0  0
 34 53  1  0  0  0  0
 34 75  1  0  0  0  0
 34 79  2  0  0  0  0
 35 64  1  0  0  0  0
 35 70  1  0  0  0  0
 35 80  2  0  0  0  0
 36 65  1  0  0  0  0
 36 76  1  0  0  0  0
 36 81  2  0  0  0  0
 37 71  1  0  0  0  0
 37 72  1  0  0  0  0
 37 82  2  0  0  0  0
 38 41  1  0  0  0  0
 39 53  1  0  0  0  0
 40 70  1  0  0  0  0
 41 43  1  0  0  0  0
 42 44  1  0  0  0  0
 42 47  1  0  0  0  0
 43 52  1  0  0  0  0
 44 54  1  0  0  0  0
 45 48  1  0  0  0  0
 45 51  1  0  0  0  0
 46 49  1  0  0  0  0
 46 51  1  0  0  0  0
 47 71  1  0  0  0  0
 48 72  1  0  0  0  0
 49 72  1  0  0  0  0
 50 54  1  0  0  0  0
 50 71  1  0  0  0  0
 52 75  1  0  0  0  0
 53 70  1  0  0  0  0
 54 69  1  0  0  0  0
 56 65  1  0  0  0  0
 57 66  1  0  0  0  0
 58 66  1  0  0  0  0
 59 66  1  0  0  0  0
 60 77  1  0  0  0  0
 61 85  1  0  0  0  0
 62 63  1  0  0  0  0
 63 84  1  0  0  0  0
 64 66  1  0  0  0  0
 64 76  1  0  0  0  0
 65 77  1  0  0  0  0
 67 69  1  0  0  0  0
M  CHG  1  77   1
M  ISO  4  37 100  63 101  72 100  84 101
M  END
> <Batch ID>
0148

> <Smiles>
CNC(C)C(=O)NC(C(=O)N1Cc2cc([101O:1][101CH2:1]Cc3nc(OC)c(C4CC[100N:0]([100C:0](=O)N5CCCC(n6nc(-c7ccc(Oc8ccc(F)cc8F)cc7)c(C(N)=O)c6N)C5)CC4)cc3C)ccc2CC1C(=O)NC1CCCc2ccccc21)C(C)(C)C

> <Shape>
0.186

> <Color>
0.201

> <Negative vol penalty>
0.000

$$$$

  -OEChem-04052321363D

 89 98  0     1  0  0  0  0  0999 V2000
  -20.5315  -34.6556   21.6525 C   0  0  0  0  0  0  0  0  0  0  0  0
  -21.7080  -34.0433   21.2325 C   0  0  0  0  0  0  0  0  0  0  0  0
  -24.7292  -12.9193   22.4302 C   0  0  0  0  0  0  0  0  0  0  0  0
  -23.7002  -12.6001   20.2677 C   0  0  0  0  0  0  0  0  0  0  0  0
  -19.7670  -34.0745   22.6634 C   0  0  0  0  0  0  0  0  0  0  0  0
  -22.1213  -32.8501   21.8239 C   0  0  0  0  0  0  0  0  0  0  0  0
  -25.0362  -28.2057   19.0965 C   0  0  0  0  0  0  0  0  0  0  0  0
  -23.7630  -12.0980   23.0112 C   0  0  0  0  0  0  0  0  0  0  0  0
  -22.7340  -11.7788   20.8487 C   0  0  0  0  0  0  0  0  0  0  0  0
  -26.3815  -27.8433   19.0452 C   0  0  0  0  0  0  0  0  0  0  0  0
  -33.7562  -25.3057   21.9596 C   0  0  0  0  0  0  0  0  0  0  0  0
  -32.9359  -25.9569   21.0383 C   0  0  0  0  0  0  0  0  0  0  0  0
  -20.2082   -9.3076   21.7040 C   0  0  0  0  0  0  0  0  0  0  0  0
  -19.8939   -8.1145   21.0535 C   0  0  0  0  0  0  0  0  0  0  0  0
  -26.0324  -26.3108   20.8751 C   0  0  0  0  0  0  0  0  0  0  0  0
  -32.1881  -23.4704   22.0586 C   0  0  0  0  0  0  0  0  0  0  0  0
  -22.1876   -7.3889   21.2761 C   0  0  0  0  0  0  0  0  0  0  0  0
  -24.6978  -13.1704   21.0585 C   0  0  0  0  0  0  0  0  0  0  0  0
  -26.9373  -13.6253   19.9248 C   0  0  0  0  0  0  0  0  0  0  0  0
  -20.1661  -32.8685   23.2608 C   0  0  0  0  0  0  0  0  0  0  0  0
  -24.1799  -27.6303   20.0463 C   0  0  0  0  0  0  0  0  0  0  0  0
  -21.3621  -32.2530   22.8446 C   0  0  0  0  0  0  0  0  0  0  0  0
  -24.6760  -26.6656   20.9347 C   0  0  0  0  0  0  0  0  0  0  0  0
  -31.3678  -24.1216   21.1373 C   0  0  0  0  0  0  0  0  0  0  0  0
  -22.7654  -11.5278   22.2205 C   0  0  0  0  0  0  0  0  0  0  0  0
  -33.3823  -24.0624   22.4697 C   0  0  0  0  0  0  0  0  0  0  0  0
  -26.8804  -26.8979   19.9364 C   0  0  0  0  0  0  0  0  0  0  0  0
  -31.7417  -25.3648   20.6272 C   0  0  0  0  0  0  0  0  0  0  0  0
  -21.5123   -9.5414   22.1406 C   0  0  0  0  0  0  0  0  0  0  0  0
  -20.8836   -7.1551   20.8395 C   0  0  0  0  0  0  0  0  0  0  0  0
  -22.5019   -8.5821   21.9266 C   0  0  0  0  0  0  0  0  0  0  0  0
  -25.6953  -14.0191   20.4578 C   0  0  0  0  0  0  0  0  0  0  0  0
  -27.5063  -14.7938   19.4806 C   0  0  0  0  0  0  0  0  0  0  0  0
  -27.5241  -12.3200   19.8387 C   0  0  0  0  0  0  0  0  0  0  0  0
  -22.4470  -28.7409   22.4686 C   0  0  0  0  0  0  0  0  0  0  0  0
  -21.3723  -25.6828   22.5925 C   0  0  0  0  0  0  0  0  0  0  0  0
  -21.9210  -22.3885   21.8904 C   0  0  0  0  0  0  0  0  0  0  0  0
  -28.8577  -19.9916   20.1807 C   0  0  0  0  0  0  0  0  0  0  0  0
  -19.3315  -32.3030   24.3825 C   0  0  0  0  0  0  0  0  0  0  0  0
  -22.7253  -28.0122   20.0712 C   0  0  0  0  0  0  0  0  0  0  0  0
  -23.7936  -26.0034   21.9600 C   0  0  0  0  0  0  0  0  0  0  0  0
  -19.6445  -30.8426   24.6980 C   0  0  0  0  0  0  0  0  0  0  0  0
  -25.5588  -19.4100   18.9032 C   0  0  0  0  0  0  0  0  0  0  0  0
  -21.1520  -30.6258   24.7821 C   0  0  0  0  0  0  0  0  0  0  0  0
  -25.3887  -17.9186   19.1814 C   0  0  0  0  0  0  0  0  0  0  0  0
  -29.0927  -23.2040   21.8491 C   0  0  0  0  0  0  0  0  0  0  0  0
  -26.3257  -20.1247   20.0176 C   0  0  0  0  0  0  0  0  0  0  0  0
  -28.1358  -22.1940   21.2324 C   0  0  0  0  0  0  0  0  0  0  0  0
  -27.4541  -18.0024   20.6210 C   0  0  0  0  0  0  0  0  0  0  0  0
  -30.0784  -23.4658   20.7036 C   0  0  2  0  0  0  0  0  0  0  0  0
  -21.8307  -30.9451   23.4446 C   0  0  1  0  0  0  0  0  0  0  0  0
  -22.0591  -27.7408   21.4165 C   0  0  1  0  0  0  0  0  0  0  0  0
  -26.7467  -17.2615   19.4772 C   0  0  1  0  0  0  0  0  0  0  0  0
  -30.2442  -22.0680   20.0672 C   0  0  2  0  0  0  0  0  0  0  0  0
  -20.8792  -20.1198   22.1461 C   0  0  0  0  0  0  0  0  0  0  0  0
  -29.3392  -22.8229   17.8497 C   0  0  0  0  0  0  0  0  0  0  0  0
  -31.8085  -22.9135   18.2942 C   0  0  0  0  0  0  0  0  0  0  0  0
  -22.1469  -25.6624   25.5437 C   0  0  0  0  0  0  0  0  0  0  0  0
  -21.9853  -23.1644   25.4970 C   0  0  0  0  0  0  0  0  0  0  0  0
  -19.9657  -24.5521   25.0299 C   0  0  0  0  0  0  0  0  0  0  0  0
  -21.8155  -21.9789   18.9613 C   0  0  0  0  0  0  0  0  0  0  0  0
  -33.7411  -22.1590   23.8495 C   0  0  0  0  0  0  0  0  0  0  0  0
  -29.1184  -27.5331   19.4424 C   0  0  0  0  0  0  0  0  0  1  0  0
  -30.4623  -27.3004   20.1053 C   0  0  0  0  0  0  0  0  0  0  0  0
  -21.8082  -24.4244   23.3034 C   0  0  1  0  0  0  0  0  0  0  0  0
  -21.0379  -21.3353   21.2459 C   0  0  2  0  0  0  0  0  0  0  0  0
  -30.5110  -22.1552   18.5667 C   0  0  0  0  0  0  0  0  0  0  0  0
  -21.4938  -24.4646   24.8256 C   0  0  0  0  0  0  0  0  0  0  0  0
  -25.4870  -15.3350   20.3622 N   0  0  0  0  0  0  0  0  0  0  0  0
  -26.6058  -15.7782   19.7640 N   0  0  0  0  0  0  0  0  0  0  0  0
  -22.3801  -26.4149   21.9488 N   0  0  0  0  0  0  0  0  0  0  0  0
  -27.5818  -19.4331   20.3306 N   0  0  0  0  0  0  0  0  0  0  0  0
  -28.9838  -21.3711   20.3675 N   0  0  0  0  0  0  0  0  0  0  0  0
  -28.6842  -15.0651   18.8794 N   0  0  0  0  0  0  0  0  0  0  0  0
  -26.8036  -11.2289   20.3434 N   0  0  0  0  0  0  0  0  0  0  0  0
  -21.6366  -29.8595   22.5075 N   0  0  0  0  0  0  0  0  0  0  0  0
  -21.1805  -23.3158   22.5926 N   0  0  0  0  0  0  0  0  0  0  0  0
  -21.6257  -20.8879   19.9515 N   0  3  0  0  0  0  0  0  0  0  0  0
  -28.6610  -12.1291   19.3441 O   0  0  0  0  0  0  0  0  0  0  0  0
  -23.4094  -28.5139   23.1925 O   0  0  0  0  0  0  0  0  0  0  0  0
  -20.1805  -26.0006   22.6016 O   0  0  0  0  0  0  0  0  0  0  0  0
  -23.1455  -22.3865   21.7849 O   0  0  0  0  0  0  0  0  0  0  0  0
  -29.8426  -19.2878   19.9218 O   0  0  0  0  0  0  0  0  0  0  0  0
  -21.8225  -10.7261   22.7870 O   0  0  0  0  0  0  0  0  0  0  0  0
  -34.1833  -23.4273   23.3683 O   0  0  0  0  0  0  0  0  0  0  0  0
  -28.2022  -26.5405   19.8885 O   0  0  0  0  0  0  0  0  0  1  0  0
  -30.9516  -26.0152   19.7276 O   0  0  0  0  0  0  0  0  0  0  0  0
  -20.5813   -6.0087   20.2161 F   0  0  0  0  0  0  0  0  0  0  0  0
  -23.7562   -8.8005   22.3448 F   0  0  0  0  0  0  0  0  0  0  0  0
  1  2  1  0  0  0  0
  1  5  2  0  0  0  0
  2  6  2  0  0  0  0
  3  8  2  0  0  0  0
  3 18  1  0  0  0  0
  4  9  1  0  0  0  0
  4 18  2  0  0  0  0
  5 20  1  0  0  0  0
  6 22  1  0  0  0  0
  7 10  2  0  0  0  0
  7 21  1  0  0  0  0
  8 25  1  0  0  0  0
  9 25  2  0  0  0  0
 10 27  1  0  0  0  0
 11 12  2  0  0  0  0
 11 26  1  0  0  0  0
 12 28  1  0  0  0  0
 13 14  2  0  0  0  0
 13 29  1  0  0  0  0
 14 30  1  0  0  0  0
 15 23  1  0  0  0  0
 15 27  2  0  0  0  0
 16 24  1  0  0  0  0
 16 26  2  0  0  0  0
 17 30  2  0  0  0  0
 17 31  1  0  0  0  0
 18 32  1  0  0  0  0
 19 32  1  0  0  0  0
 19 33  2  0  0  0  0
 19 34  1  0  0  0  0
 20 22  2  0  0  0  0
 20 39  1  0  0  0  0
 21 23  2  0  0  0  0
 21 40  1  0  0  0  0
 22 51  1  0  0  0  0
 23 41  1  0  0  0  0
 24 28  2  0  0  0  0
 24 50  1  0  0  0  0
 25 84  1  0  0  0  0
 26 85  1  0  0  0  0
 27 86  1  0  0  0  0
 28 87  1  0  0  0  0
 29 31  2  0  0  0  0
 29 84  1  0  0  0  0
 30 88  1  0  0  0  0
 31 89  1  0  0  0  0
 32 69  2  0  0  0  0
 33 70  1  0  0  0  0
 33 74  1  0  0  0  0
 34 75  1  0  0  0  0
 34 79  2  0  0  0  0
 35 52  1  0  0  0  0
 35 76  1  0  0  0  0
 35 80  2  0  0  0  0
 36 65  1  0  0  0  0
 36 71  1  0  0  0  0
 36 81  2  0  0  0  0
 37 66  1  0  0  0  0
 37 77  1  0  0  0  0
 37 82  2  0  0  0  0
 38 72  1  0  0  0  0
 38 73  1  0  0  0  0
 38 83  2  0  0  0  0
 39 42  1  0  0  0  0
 40 52  1  0  0  0  0
 41 71  1  0  0  0  0
 42 44  1  0  0  0  0
 43 45  1  0  0  0  0
 43 47  1  0  0  0  0
 44 51  1  0  0  0  0
 45 53  1  0  0  0  0
 46 48  1  0  0  0  0
 46 50  1  0  0  0  0
 47 72  1  0  0  0  0
 48 73  1  0  0  0  0
 49 53  1  0  0  0  0
 49 72  1  0  0  0  0
 50 54  1  0  0  0  0
 51 76  1  0  0  0  0
 52 71  1  0  0  0  0
 53 70  1  0  0  0  0
 54 67  1  0  0  0  0
 54 73  1  0  0  0  0
 55 66  1  0  0  0  0
 56 67  1  0  0  0  0
 57 67  1  0  0  0  0
 58 68  1  0  0  0  0
 59 68  1  0  0  0  0
 60 68  1  0  0  0  0
 61 78  1  0  0  0  0
 62 85  1  0  0  0  0
 63 64  1  0  0  0  0
 63 86  1  0  0  0  0
 64 87  1  0  0  0  0
 65 68  1  0  0  0  0
 65 77  1  0  0  0  0
 66 78  1  0  0  0  0
 69 70  1  0  0  0  0
M  CHG  1  78   1
M  ISO  4  38 100  63 101  73 100  86 101
M  END
> <Batch ID>
0148

> <Smiles>
CNC(C)C(=O)NC(C(=O)N1Cc2cc([101O:1][101CH2:1]COc3ccc(OC)cc3C3CC[100N:0]([100C:0](=O)N4CCCC(n5nc(-c6ccc(Oc7ccc(F)cc7F)cc6)c(C(N)=O)c5N)C4)C3C(C)C)ccc2CC1C(=O)NC1CCCc2ccccc21)C(C)(C)C

> <Shape>
0.242

> <Color>
0.089

> <Negative vol penalty>
0.000

$$$$

  -OEChem-04052321363D

 88 98  0     1  0  0  0  0  0999 V2000
  -26.6133  -33.9430   24.9587 C   0  0  0  0  0  0  0  0  0  0  0  0
  -27.0782  -32.7673   24.3782 C   0  0  0  0  0  0  0  0  0  0  0  0
  -26.6443  -12.6810   21.9438 C   0  0  0  0  0  0  0  0  0  0  0  0
  -25.8235  -14.3783   20.4331 C   0  0  0  0  0  0  0  0  0  0  0  0
  -25.3818  -33.9568   25.6122 C   0  0  0  0  0  0  0  0  0  0  0  0
  -26.3124  -31.6043   24.4520 C   0  0  0  0  0  0  0  0  0  0  0  0
  -26.0880  -29.1422   20.0325 C   0  0  0  0  0  0  0  0  0  0  0  0
  -25.3862  -12.0787   21.9508 C   0  0  0  0  0  0  0  0  0  0  0  0
  -24.5653  -13.7760   20.4400 C   0  0  0  0  0  0  0  0  0  0  0  0
  -27.1979  -28.3798   19.6713 C   0  0  0  0  0  0  0  0  0  0  0  0
  -23.5846  -10.0496   19.9334 C   0  0  0  0  0  0  0  0  0  0  0  0
  -23.5292   -8.6624   19.7991 C   0  0  0  0  0  0  0  0  0  0  0  0
  -26.0634  -26.3859   20.4175 C   0  0  0  0  0  0  0  0  0  0  0  0
  -30.1769  -24.9448   17.7031 C   0  0  0  0  0  0  0  0  0  0  0  0
  -22.4323   -8.4984   21.9455 C   0  0  0  0  0  0  0  0  0  0  0  0
  -32.6115  -25.2260   18.9029 C   0  0  0  0  0  0  0  0  0  0  0  0
  -26.8629  -13.8308   21.1850 C   0  0  0  0  0  0  0  0  0  0  0  0
  -29.2282  -14.1864   20.2980 C   0  0  0  0  0  0  0  0  0  0  0  0
  -24.5960  -32.7959   25.6857 C   0  0  0  0  0  0  0  0  0  0  0  0
  -24.9598  -28.5326   20.5999 C   0  0  0  0  0  0  0  0  0  0  0  0
  -25.0698  -31.6023   25.1084 C   0  0  0  0  0  0  0  0  0  0  0  0
  -24.9395  -27.1426   20.7826 C   0  0  0  0  0  0  0  0  0  0  0  0
  -31.1923  -24.0429   17.4053 C   0  0  0  0  0  0  0  0  0  0  0  0
  -32.4358  -24.1792   18.0123 C   0  0  0  0  0  0  0  0  0  0  0  0
  -24.3467  -12.6262   21.1989 C   0  0  0  0  0  0  0  0  0  0  0  0
  -27.1869  -27.0018   19.8665 C   0  0  0  0  0  0  0  0  0  0  0  0
  -23.0639  -10.6613   21.0738 C   0  0  0  0  0  0  0  0  0  0  0  0
  -22.9531   -7.8867   20.8051 C   0  0  0  0  0  0  0  0  0  0  0  0
  -22.4878   -9.8857   22.0798 C   0  0  0  0  0  0  0  0  0  0  0  0
  -28.1622  -14.4537   21.1778 C   0  0  0  0  0  0  0  0  0  0  0  0
  -30.4536  -25.9573   18.6076 C   0  0  0  0  0  0  0  0  0  0  0  0
  -30.2297  -15.0339   20.7047 C   0  0  0  0  0  0  0  0  0  0  0  0
  -29.3062  -13.2555   19.2104 C   0  0  0  0  0  0  0  0  0  0  0  0
  -23.4495  -28.7623   23.3874 C   0  0  0  0  0  0  0  0  0  0  0  0
  -21.3150  -26.7867   21.9509 C   0  0  0  0  0  0  0  0  0  0  0  0
  -20.6973  -24.4461   19.5454 C   0  0  0  0  0  0  0  0  0  0  0  0
  -31.9675  -20.0693   22.3689 C   0  0  0  0  0  0  0  0  0  0  0  0
  -23.2932  -32.8479   26.4437 C   0  0  0  0  0  0  0  0  0  0  0  0
  -23.7601  -29.3658   20.9593 C   0  0  0  0  0  0  0  0  0  0  0  0
  -23.7450  -26.4372   21.3692 C   0  0  0  0  0  0  0  0  0  0  0  0
  -22.3717  -31.6661   26.1528 C   0  0  0  0  0  0  0  0  0  0  0  0
  -30.6378  -17.8956   24.8556 C   0  0  0  0  0  0  0  0  0  0  0  0
  -31.2950  -23.1371   14.9880 C   0  0  0  0  0  0  0  0  0  0  0  0
  -29.8546  -23.1227   15.3947 C   0  0  0  0  0  0  0  0  0  0  0  0
  -23.1506  -30.3557   26.2076 C   0  0  0  0  0  0  0  0  0  0  0  0
  -29.9582  -16.7884   24.0481 C   0  0  0  0  0  0  0  0  0  0  0  0
  -34.0969  -20.0741   19.3097 C   0  0  0  0  0  0  0  0  0  0  0  0
  -30.4879  -19.2582   24.1826 C   0  0  0  0  0  0  0  0  0  0  0  0
  -30.2525  -18.1996   21.9695 C   0  0  0  0  0  0  0  0  0  0  0  0
  -34.8054  -21.2149   18.5962 C   0  0  0  0  0  0  0  0  0  0  0  0
  -32.8443  -22.0202   19.8166 C   0  0  0  0  0  0  0  0  0  0  0  0
  -30.9279  -22.9404   16.4350 C   0  0  0  0  0  0  0  0  0  0  0  0
  -24.2567  -30.3266   25.1459 C   0  0  1  0  0  0  0  0  0  0  0  0
  -22.8656  -28.7057   22.0041 C   0  0  1  0  0  0  0  0  0  0  0  0
  -30.4247  -16.7982   22.5799 C   0  0  2  0  0  0  0  0  0  0  0  0
  -33.3798  -20.7572   20.4616 C   0  0  1  0  0  0  0  0  0  0  0  0
  -34.8085  -23.9393   17.1724 C   0  0  0  0  0  0  0  0  0  0  0  0
  -18.8669  -22.9878   18.6397 C   0  0  0  0  0  0  0  0  0  0  0  0
  -21.6207  -24.9202   24.3452 C   0  0  0  0  0  0  0  0  0  0  0  0
  -20.5556  -23.1104   22.9819 C   0  0  0  0  0  0  0  0  0  0  0  0
  -19.2746  -25.1823   23.5196 C   0  0  0  0  0  0  0  0  0  0  0  0
  -20.8449  -25.7188   16.8775 C   0  0  0  0  0  0  0  0  0  0  0  0
  -29.3819  -26.9491   18.9525 C   0  0  0  0  0  0  0  0  0  1  0  0
  -33.5595  -23.2429   17.7307 C   0  0  1  0  0  0  0  0  0  0  0  0
  -21.1548  -25.2903   21.8328 C   0  0  1  0  0  0  0  0  0  0  0  0
  -19.5834  -24.3239   18.5212 C   0  0  2  0  0  0  0  0  0  0  0  0
  -20.6748  -24.6390   23.1606 C   0  0  0  0  0  0  0  0  0  0  0  0
  -31.6490  -26.1218   19.2173 N   0  0  0  0  0  0  0  0  0  0  0  0
  -28.4588  -15.3970   22.0757 N   0  0  0  0  0  0  0  0  0  0  0  0
  -29.7225  -15.7299   21.7623 N   0  0  0  0  0  0  0  0  0  0  0  0
  -22.5990  -27.2961   21.7105 N   0  0  0  0  0  0  0  0  0  0  0  0
  -30.9493  -19.1998   22.7935 N   0  0  0  0  0  0  0  0  0  0  0  0
  -31.4859  -15.2441   20.2572 N   0  0  0  0  0  0  0  0  0  0  0  0
  -28.1859  -12.4618   18.9287 N   0  0  0  0  0  0  0  0  0  0  0  0
  -23.6976  -30.0436   23.8413 N   0  0  0  0  0  0  0  0  0  0  0  0
  -20.2642  -25.0632   20.6998 N   0  0  0  0  0  0  0  0  0  0  0  0
  -32.3499  -19.9439   21.0390 N   0  0  0  0  0  0  0  0  0  0  0  0
  -33.9898  -22.4532   18.9248 N   0  3  2  0  0  0  0  0  0  0  0  0
  -20.1335  -24.4415   17.1412 N   0  3  0  0  0  0  0  0  0  0  0  0
  -30.3443  -13.1194   18.5196 O   0  0  0  0  0  0  0  0  0  0  0  0
  -23.6581  -27.7206   23.9982 O   0  0  0  0  0  0  0  0  0  0  0  0
  -20.3354  -27.4790   22.2386 O   0  0  0  0  0  0  0  0  0  0  0  0
  -21.8366  -24.0319   19.3430 O   0  0  0  0  0  0  0  0  0  0  0  0
  -32.5002  -20.8926   23.1209 O   0  0  0  0  0  0  0  0  0  0  0  0
  -23.1190  -12.0387   21.2053 O   0  0  0  0  0  0  0  0  0  0  0  0
  -28.2692  -26.2552   19.5154 O   0  0  0  0  0  0  0  0  0  1  0  0
  -22.8986   -6.5547   20.6753 F   0  0  0  0  0  0  0  0  0  0  0  0
  -21.9848  -10.4677   23.1771 F   0  0  0  0  0  0  0  0  0  0  0  0
  1  2  1  0  0  0  0
  1  5  2  0  0  0  0
  2  6  2  0  0  0  0
  3  8  2  0  0  0  0
  3 17  1  0  0  0  0
  4  9  1  0  0  0  0
  4 17  2  0  0  0  0
  5 19  1  0  0  0  0
  6 21  1  0  0  0  0
  7 10  2  0  0  0  0
  7 20  1  0  0  0  0
  8 25  1  0  0  0  0
  9 25  2  0  0  0  0
 10 26  1  0  0  0  0
 11 12  2  0  0  0  0
 11 27  1  0  0  0  0
 12 28  1  0  0  0  0
 13 22  1  0  0  0  0
 13 26  2  0  0  0  0
 14 23  2  0  0  0  0
 14 31  1  0  0  0  0
 15 28  2  0  0  0  0
 15 29  1  0  0  0  0
 16 24  2  0  0  0  0
 16 68  1  0  0  0  0
 17 30  1  0  0  0  0
 18 30  1  0  0  0  0
 18 32  2  0  0  0  0
 18 33  1  0  0  0  0
 19 21  2  0  0  0  0
 19 38  1  0  0  0  0
 20 22  2  0  0  0  0
 20 39  1  0  0  0  0
 21 53  1  0  0  0  0
 22 40  1  0  0  0  0
 23 24  1  0  0  0  0
 23 52  1  0  0  0  0
 24 64  1  0  0  0  0
 25 85  1  0  0  0  0
 26 86  1  0  0  0  0
 27 29  2  0  0  0  0
 27 85  1  0  0  0  0
 28 87  1  0  0  0  0
 29 88  1  0  0  0  0
 30 69  2  0  0  0  0
 31 63  1  0  0  0  0
 31 68  2  0  0  0  0
 32 70  1  0  0  0  0
 32 73  1  0  0  0  0
 33 74  1  0  0  0  0
 33 80  2  0  0  0  0
 34 54  1  0  0  0  0
 34 75  1  0  0  0  0
 34 81  2  0  0  0  0
 35 65  1  0  0  0  0
 35 71  1  0  0  0  0
 35 82  2  0  0  0  0
 36 66  1  0  0  0  0
 36 76  1  0  0  0  0
 36 83  2  0  0  0  0
 37 72  1  0  0  0  0
 37 77  1  0  0  0  0
 37 84  2  0  0  0  0
 38 41  1  0  0  0  0
 39 54  1  0  0  0  0
 40 71  1  0  0  0  0
 41 45  1  0  0  0  0
 42 46  1  0  0  0  0
 42 48  1  0  0  0  0
 43 44  1  0  0  0  0
 43 52  1  0  0  0  0
 44 52  1  0  0  0  0
 45 53  1  0  0  0  0
 46 55  1  0  0  0  0
 47 50  1  0  0  0  0
 47 56  1  0  0  0  0
 48 72  1  0  0  0  0
 49 55  1  0  0  0  0
 49 72  1  0  0  0  0
 50 78  1  0  0  0  0
 51 56  1  0  0  0  0
 51 78  1  0  0  0  0
 53 75  1  0  0  0  0
 54 71  1  0  0  0  0
 55 70  1  0  0  0  0
 56 77  1  0  0  0  0
 57 64  1  0  0  0  0
 58 66  1  0  0  0  0
 59 67  1  0  0  0  0
 60 67  1  0  0  0  0
 61 67  1  0  0  0  0
 62 79  1  0  0  0  0
 63 86  1  0  0  0  0
 64 78  1  0  0  0  0
 65 67  1  0  0  0  0
 65 76  1  0  0  0  0
 66 79  1  0  0  0  0
 69 70  1  0  0  0  0
M  CHG  2  78   1  79   1
M  ISO  4  37 100  63 101  77 100  86 101
M  END
> <Batch ID>
0148

> <Smiles>
CNC(C)C(=O)NC(C(=O)N1Cc2cc([101O:1][101CH2:1]c3cc(C4CC4)c(C(C)N4CCC([100NH:0][100C:0](=O)N5CCCC(n6nc(-c7ccc(Oc8ccc(F)cc8F)cc7)c(C(N)=O)c6N)C5)C4)cn3)ccc2CC1C(=O)NC1CCCc2ccccc21)C(C)(C)C

> <Shape>
0.272

> <Color>
0.071

> <Negative vol penalty>
0.000

$$$$

  -OEChem-04052321363D

 91101  0     1  0  0  0  0  0999 V2000
  -32.2338  -35.1781   33.3055 C   0  0  0  0  0  0  0  0  0  0  0  0
  -33.2101  -34.1873   33.3301 C   0  0  0  0  0  0  0  0  0  0  0  0
  -23.3101  -10.2165   22.2399 C   0  0  0  0  0  0  0  0  0  0  0  0
  -23.5987   -9.5304   19.9414 C   0  0  0  0  0  0  0  0  0  0  0  0
  -30.8849  -34.8257   33.2921 C   0  0  0  0  0  0  0  0  0  0  0  0
  -32.8380  -32.8435   33.3425 C   0  0  0  0  0  0  0  0  0  0  0  0
  -35.0119  -28.3458   28.1525 C   0  0  0  0  0  0  0  0  0  0  0  0
  -22.5660   -9.0637   22.4906 C   0  0  0  0  0  0  0  0  0  0  0  0
  -22.8546   -8.3776   20.1921 C   0  0  0  0  0  0  0  0  0  0  0  0
  -35.5597  -27.3768   27.3116 C   0  0  0  0  0  0  0  0  0  0  0  0
  -19.4141   -7.9679   21.9526 C   0  0  0  0  0  0  0  0  0  0  0  0
  -18.2324   -8.1058   22.6807 C   0  0  0  0  0  0  0  0  0  0  0  0
  -34.3930  -19.2648   23.5363 C   0  0  0  0  0  0  0  0  0  0  0  0
  -32.4992  -19.9738   24.8582 C   0  0  0  0  0  0  0  0  0  0  0  0
  -34.2315  -25.6707   28.3947 C   0  0  0  0  0  0  0  0  0  0  0  0
  -19.1013   -6.6165   24.3730 C   0  0  0  0  0  0  0  0  0  0  0  0
  -23.8264  -10.4499   20.9653 C   0  0  0  0  0  0  0  0  0  0  0  0
  -24.1671  -12.9751   20.8427 C   0  0  0  0  0  0  0  0  0  0  0  0
  -30.4962  -33.4768   33.2946 C   0  0  0  0  0  0  0  0  0  0  0  0
  -34.0592  -27.9829   29.1086 C   0  0  0  0  0  0  0  0  0  0  0  0
  -31.4826  -32.4728   33.3305 C   0  0  0  0  0  0  0  0  0  0  0  0
  -33.7976  -20.1880   24.3958 C   0  0  0  0  0  0  0  0  0  0  0  0
  -33.6701  -26.6389   29.2314 C   0  0  0  0  0  0  0  0  0  0  0  0
  -33.6900  -18.1273   23.1392 C   0  0  0  0  0  0  0  0  0  0  0  0
  -32.3916  -17.9131   23.6016 C   0  0  0  0  0  0  0  0  0  0  0  0
  -22.3382   -8.1442   21.4668 C   0  0  0  0  0  0  0  0  0  0  0  0
  -35.1706  -26.0426   27.4326 C   0  0  0  0  0  0  0  0  0  0  0  0
  -20.4395   -7.1543   22.4347 C   0  0  0  0  0  0  0  0  0  0  0  0
  -31.7962  -18.8363   24.4612 C   0  0  0  0  0  0  0  0  0  0  0  0
  -18.0760   -7.4301   23.8909 C   0  0  0  0  0  0  0  0  0  0  0  0
  -20.2830   -6.4786   23.6449 C   0  0  0  0  0  0  0  0  0  0  0  0
  -24.5947  -11.6409   20.7055 C   0  0  0  0  0  0  0  0  0  0  0  0
  -25.2584  -13.7247   20.4773 C   0  0  0  0  0  0  0  0  0  0  0  0
  -22.8969  -13.4908   21.2629 C   0  0  0  0  0  0  0  0  0  0  0  0
  -31.7634  -29.0948   31.8597 C   0  0  0  0  0  0  0  0  0  0  0  0
  -30.2324  -27.0111   30.2091 C   0  0  0  0  0  0  0  0  0  0  0  0
  -28.7494  -24.9944   27.8915 C   0  0  0  0  0  0  0  0  0  0  0  0
  -30.7420  -14.7461   20.6574 C   0  0  0  0  0  0  0  0  0  0  0  0
  -29.0252  -33.1453   33.3273 C   0  0  0  0  0  0  0  0  0  0  0  0
  -33.4882  -28.9832   30.0767 C   0  0  0  0  0  0  0  0  0  0  0  0
  -32.6679  -26.2892   30.2973 C   0  0  0  0  0  0  0  0  0  0  0  0
  -28.7196  -31.6946   32.9632 C   0  0  0  0  0  0  0  0  0  0  0  0
  -29.6021  -12.3592   18.2741 C   0  0  0  0  0  0  0  0  0  0  0  0
  -34.7972  -21.4541   26.3474 C   0  0  0  0  0  0  0  0  0  0  0  0
  -33.8748  -22.7181   24.3498 C   0  0  0  0  0  0  0  0  0  0  0  0
  -29.6573  -30.7487   33.7066 C   0  0  0  0  0  0  0  0  0  0  0  0
  -30.1815  -19.4287   21.9188 C   0  0  0  0  0  0  0  0  0  0  0  0
  -29.3247  -18.7803   20.8675 C   0  0  0  0  0  0  0  0  0  0  0  0
  -28.1654  -12.0653   18.7092 C   0  0  0  0  0  0  0  0  0  0  0  0
  -35.5737  -22.6991   26.7685 C   0  0  0  0  0  0  0  0  0  0  0  0
  -34.6566  -23.9562   24.7810 C   0  0  0  0  0  0  0  0  0  0  0  0
  -30.5208  -12.5814   19.4736 C   0  0  0  0  0  0  0  0  0  0  0  0
  -28.6206  -13.3128   20.8622 C   0  0  0  0  0  0  0  0  0  0  0  0
  -34.5623  -21.4263   24.8266 C   0  0  0  0  0  0  0  0  0  0  0  0
  -31.1190  -31.0038   33.3195 C   0  0  1  0  0  0  0  0  0  0  0  0
  -32.0166  -28.7062   30.4327 C   0  0  1  0  0  0  0  0  0  0  0  0
  -29.7839  -17.9853   22.0582 C   0  0  0  0  0  0  0  0  0  0  0  0
  -27.6449  -13.1369   19.6860 C   0  0  2  0  0  0  0  0  0  0  0  0
  -34.8909  -23.9789   26.2895 C   0  0  0  0  0  0  0  0  0  1  0  0
  -34.3495  -17.1546   22.2172 C   0  0  0  0  0  0  0  0  0  0  0  0
  -26.5789  -23.8417   27.3841 C   0  0  0  0  0  0  0  0  0  0  0  0
  -30.8605  -24.9053   32.3245 C   0  0  0  0  0  0  0  0  0  0  0  0
  -29.2688  -23.3630   31.1599 C   0  0  0  0  0  0  0  0  0  0  0  0
  -28.4398  -25.5043   32.1347 C   0  0  0  0  0  0  0  0  0  0  0  0
  -28.4133  -26.4899   25.3598 C   0  0  0  0  0  0  0  0  0  0  0  0
  -30.0001  -19.6380   25.7981 C   0  0  0  0  0  0  0  0  0  0  0  0
  -31.6338  -16.6949   23.1798 C   0  0  0  0  0  0  0  0  0  0  0  0
  -29.8535  -25.5616   30.0395 C   0  0  1  0  0  0  0  0  0  0  0  0
  -27.4148  -25.0948   27.1751 C   0  0  2  0  0  0  0  0  0  0  0  0
  -30.8087  -16.8977   21.8924 C   0  0  1  0  0  0  0  0  0  0  0  0
  -29.6276  -24.8449   31.4006 C   0  0  0  0  0  0  0  0  0  0  0  0
  -25.8590  -11.5452   20.2856 N   0  0  0  0  0  0  0  0  0  0  0  0
  -26.2352  -12.8288   20.1557 N   0  0  0  0  0  0  0  0  0  0  0  0
  -31.5974  -27.2980   30.3308 N   0  0  0  0  0  0  0  0  0  0  0  0
  -29.9710  -13.6104   20.3595 N   0  0  0  0  0  0  0  0  0  0  0  0
  -25.4682  -15.0562   20.4029 N   0  0  0  0  0  0  0  0  0  0  0  0
  -21.8858  -12.5815   21.6023 N   0  0  0  0  0  0  0  0  0  0  0  0
  -31.4090  -30.4198   32.0275 N   0  0  0  0  0  0  0  0  0  0  0  0
  -28.6934  -25.5437   29.1550 N   0  0  0  0  0  0  0  0  0  0  0  0
  -30.1436  -15.6754   21.4995 N   0  0  0  0  0  0  0  0  0  0  0  0
  -27.6252  -25.2807   25.7115 N   0  3  0  0  0  0  0  0  0  0  0  0
  -22.6603  -14.7213   21.3196 O   0  0  0  0  0  0  0  0  0  0  0  0
  -31.8792  -28.2547   32.7443 O   0  0  0  0  0  0  0  0  0  0  0  0
  -29.3439  -27.8672   30.2388 O   0  0  0  0  0  0  0  0  0  0  0  0
  -29.7412  -24.4769   27.3827 O   0  0  0  0  0  0  0  0  0  0  0  0
  -31.8773  -14.9217   20.2021 O   0  0  0  0  0  0  0  0  0  0  0  0
  -21.6124   -7.0190   21.7111 O   0  0  0  0  0  0  0  0  0  0  0  0
  -35.7060  -25.1024   26.6054 O   0  0  0  0  0  0  0  0  0  1  0  0
  -30.5293  -18.6432   24.9238 O   0  0  0  0  0  0  0  0  0  0  0  0
  -16.9417   -7.5638   24.5907 F   0  0  0  0  0  0  0  0  0  0  0  0
  -21.2650   -5.6964   24.1138 F   0  0  0  0  0  0  0  0  0  0  0  0
  1  2  1  0  0  0  0
  1  5  2  0  0  0  0
  2  6  2  0  0  0  0
  3  8  2  0  0  0  0
  3 17  1  0  0  0  0
  4  9  1  0  0  0  0
  4 17  2  0  0  0  0
  5 19  1  0  0  0  0
  6 21  1  0  0  0  0
  7 10  2  0  0  0  0
  7 20  1  0  0  0  0
  8 26  1  0  0  0  0
  9 26  2  0  0  0  0
 10 27  1  0  0  0  0
 11 12  2  0  0  0  0
 11 28  1  0  0  0  0
 12 30  1  0  0  0  0
 13 22  1  0  0  0  0
 13 24  2  0  0  0  0
 14 22  2  0  0  0  0
 14 29  1  0  0  0  0
 15 23  1  0  0  0  0
 15 27  2  0  0  0  0
 16 30  2  0  0  0  0
 16 31  1  0  0  0  0
 17 32  1  0  0  0  0
 18 32  1  0  0  0  0
 18 33  2  0  0  0  0
 18 34  1  0  0  0  0
 19 21  2  0  0  0  0
 19 39  1  0  0  0  0
 20 23  2  0  0  0  0
 20 40  1  0  0  0  0
 21 55  1  0  0  0  0
 22 54  1  0  0  0  0
 23 41  1  0  0  0  0
 24 25  1  0  0  0  0
 24 60  1  0  0  0  0
 25 29  2  0  0  0  0
 25 67  1  0  0  0  0
 26 87  1  0  0  0  0
 27 88  1  0  0  0  0
 28 31  2  0  0  0  0
 28 87  1  0  0  0  0
 29 89  1  0  0  0  0
 30 90  1  0  0  0  0
 31 91  1  0  0  0  0
 32 72  2  0  0  0  0
 33 73  1  0  0  0  0
 33 76  1  0  0  0  0
 34 77  1  0  0  0  0
 34 82  2  0  0  0  0
 35 56  1  0  0  0  0
 35 78  1  0  0  0  0
 35 83  2  0  0  0  0
 36 68  1  0  0  0  0
 36 74  1  0  0  0  0
 36 84  2  0  0  0  0
 37 69  1  0  0  0  0
 37 79  1  0  0  0  0
 37 85  2  0  0  0  0
 38 75  1  0  0  0  0
 38 80  1  0  0  0  0
 38 86  2  0  0  0  0
 39 42  1  0  0  0  0
 40 56  1  0  0  0  0
 41 74  1  0  0  0  0
 42 46  1  0  0  0  0
 43 49  1  0  0  0  0
 43 52  1  0  0  0  0
 44 50  1  0  0  0  0
 44 54  1  0  0  0  0
 45 51  1  0  0  0  0
 45 54  1  0  0  0  0
 46 55  1  0  0  0  0
 47 48  1  0  0  0  0
 47 57  1  0  0  0  0
 48 57  1  0  0  0  0
 49 58  1  0  0  0  0
 50 59  1  0  0  0  0
 51 59  1  0  0  0  0
 52 75  1  0  0  0  0
 53 58  1  0  0  0  0
 53 75  1  0  0  0  0
 55 78  1  0  0  0  0
 56 74  1  0  0  0  0
 57 70  1  0  0  0  0
 58 73  1  0  0  0  0
 59 88  1  0  0  0  0
 61 69  1  0  0  0  0
 62 71  1  0  0  0  0
 63 71  1  0  0  0  0
 64 71  1  0  0  0  0
 65 81  1  0  0  0  0
 66 89  1  0  0  0  0
 67 70  1  0  0  0  0
 68 71  1  0  0  0  0
 68 79  1  0  0  0  0
 69 81  1  0  0  0  0
 70 80  1  0  0  0  0
 72 73  1  0  0  0  0
M  CHG  1  81   1
M  ISO  4  38 100  59 101  80 100  88 101
M  END
> <Batch ID>
0148

> <Smiles>
CNC(C)C(=O)NC(C(=O)N1Cc2cc([101O:1][101CH:1]3CCC(c4cc(C)c(CC([100NH:0][100C:0](=O)N5CCCC(n6nc(-c7ccc(Oc8ccc(F)cc8F)cc7)c(C(N)=O)c6N)C5)C5CC5)c(OC)c4)CC3)ccc2CC1C(=O)NC1CCCc2ccccc21)C(C)(C)C

> <Shape>
0.158

> <Color>
0.191

> <Negative vol penalty>
0.000

$$$$

  -OEChem-04052321363D

 85 94  0     1  0  0  0  0  0999 V2000
  -23.2657  -24.0275   21.2770 C   0  0  0  0  0  0  0  0  0  0  0  0
  -24.1519  -23.0812   20.7749 C   0  0  0  0  0  0  0  0  0  0  0  0
  -22.3451  -27.7627   19.6882 C   0  0  0  0  0  0  0  0  0  0  0  0
  -22.7911  -28.0770   22.0418 C   0  0  0  0  0  0  0  0  0  0  0  0
  -22.3162  -23.6534   22.2255 C   0  0  0  0  0  0  0  0  0  0  0  0
  -24.0812  -21.7581   21.2123 C   0  0  0  0  0  0  0  0  0  0  0  0
  -26.9570  -18.4900   18.9205 C   0  0  0  0  0  0  0  0  0  0  0  0
  -20.9838  -27.6334   19.9634 C   0  0  0  0  0  0  0  0  0  0  0  0
  -21.4298  -27.9477   22.3170 C   0  0  0  0  0  0  0  0  0  0  0  0
  -28.3400  -18.4516   19.0927 C   0  0  0  0  0  0  0  0  0  0  0  0
  -18.6582  -29.8721   22.1277 C   0  0  0  0  0  0  0  0  0  0  0  0
  -18.0870  -30.7891   23.0100 C   0  0  0  0  0  0  0  0  0  0  0  0
  -28.1013  -16.5307   20.5323 C   0  0  0  0  0  0  0  0  0  0  0  0
  -30.8900  -19.1612   24.4787 C   0  0  0  0  0  0  0  0  0  0  0  0
  -17.4586  -28.9803   24.4832 C   0  0  0  0  0  0  0  0  0  0  0  0
  -31.9331  -17.1597   22.9452 C   0  0  0  0  0  0  0  0  0  0  0  0
  -23.2488  -27.9845   20.7274 C   0  0  0  0  0  0  0  0  0  0  0  0
  -25.3552  -29.3038   20.1530 C   0  0  0  0  0  0  0  0  0  0  0  0
  -22.2426  -22.3276   22.6834 C   0  0  0  0  0  0  0  0  0  0  0  0
  -26.1335  -17.5541   19.5627 C   0  0  0  0  0  0  0  0  0  0  0  0
  -23.1143  -21.3558   22.1514 C   0  0  0  0  0  0  0  0  0  0  0  0
  -26.7084  -16.5578   20.3646 C   0  0  0  0  0  0  0  0  0  0  0  0
  -31.7823  -18.4132   22.3743 C   0  0  0  0  0  0  0  0  0  0  0  0
  -20.5261  -27.7259   21.2778 C   0  0  0  0  0  0  0  0  0  0  0  0
  -28.9121  -17.4736   19.9010 C   0  0  0  0  0  0  0  0  0  0  0  0
  -18.6296  -28.5091   22.4232 C   0  0  0  0  0  0  0  0  0  0  0  0
  -31.2501  -19.4275   23.1624 C   0  0  0  0  0  0  0  0  0  0  0  0
  -17.4872  -30.3432   24.1877 C   0  0  0  0  0  0  0  0  0  0  0  0
  -18.0298  -28.0632   23.6009 C   0  0  0  0  0  0  0  0  0  0  0  0
  -24.6552  -28.1176   20.4438 C   0  0  0  0  0  0  0  0  0  0  0  0
  -31.0805  -17.8742   24.9553 C   0  0  0  0  0  0  0  0  0  0  0  0
  -26.6535  -28.8983   19.9620 C   0  0  0  0  0  0  0  0  0  0  0  0
  -24.8749  -30.6518   20.0636 C   0  0  0  0  0  0  0  0  0  0  0  0
  -23.8032  -17.7225   21.7179 C   0  0  0  0  0  0  0  0  0  0  0  0
  -23.5418  -14.5468   21.1108 C   0  0  0  0  0  0  0  0  0  0  0  0
  -25.0223  -11.6764   20.0081 C   0  0  0  0  0  0  0  0  0  0  0  0
  -29.6625  -24.2474   22.0041 C   0  0  0  0  0  0  0  0  0  0  0  0
  -21.1904  -21.9758   23.7054 C   0  0  0  0  0  0  0  0  0  0  0  0
  -24.6457  -17.5927   19.3453 C   0  0  0  0  0  0  0  0  0  0  0  0
  -25.8699  -15.5176   21.0599 C   0  0  0  0  0  0  0  0  0  0  0  0
  -21.4802  -20.6654   24.4302 C   0  0  0  0  0  0  0  0  0  0  0  0
  -29.2256  -25.1280   18.5211 C   0  0  0  0  0  0  0  0  0  0  0  0
  -21.8045  -19.5740   23.4211 C   0  0  0  0  0  0  0  0  0  0  0  0
  -29.7407  -16.4365   26.6322 C   0  0  0  0  0  0  0  0  0  0  0  0
  -29.2962  -17.8527   26.8245 C   0  0  0  0  0  0  0  0  0  0  0  0
  -28.0599  -26.1154   18.6009 C   0  0  0  0  0  0  0  0  0  0  0  0
  -29.0553  -23.9895   19.5227 C   0  0  0  0  0  0  0  0  0  0  0  0
  -27.7145  -25.4191   21.0167 C   0  0  0  0  0  0  0  0  0  0  0  0
  -23.0761  -19.9174   22.6350 C   0  0  1  0  0  0  0  0  0  0  0  0
  -30.7010  -17.5652   26.3648 C   0  0  0  0  0  0  0  0  0  0  0  0
  -23.8611  -16.9052   20.4585 C   0  0  1  0  0  0  0  0  0  0  0  0
  -27.8390  -26.6060   20.0441 C   0  0  2  0  0  0  0  0  0  0  0  0
  -24.5687   -9.2323   19.6644 C   0  0  0  0  0  0  0  0  0  0  0  0
  -23.8039  -14.0783   24.1144 C   0  0  0  0  0  0  0  0  0  0  0  0
  -24.2969  -11.6728   23.6257 C   0  0  0  0  0  0  0  0  0  0  0  0
  -22.0935  -12.6485   22.9810 C   0  0  0  0  0  0  0  0  0  0  0  0
  -25.5042  -11.8779   17.0950 C   0  0  0  0  0  0  0  0  0  0  0  0
  -32.1883  -18.6524   20.9403 C   0  0  0  0  0  0  0  0  0  0  0  0
  -31.6404  -23.0112   22.8506 C   0  0  0  0  0  0  0  0  0  0  0  0
  -30.9904  -18.6942   19.9978 C   0  0  0  0  0  0  0  0  0  1  0  0
  -31.1723  -21.7668   23.5837 C   0  0  0  0  0  0  0  0  0  0  0  0
  -24.1633  -13.2947   21.6808 C   0  0  1  0  0  0  0  0  0  0  0  0
  -24.5555  -10.6141   19.0293 C   0  0  2  0  0  0  0  0  0  0  0  0
  -23.6053  -12.9442   23.0891 C   0  0  0  0  0  0  0  0  0  0  0  0
  -31.5947  -16.8631   24.2199 N   0  0  0  0  0  0  0  0  0  0  0  0
  -25.4434  -27.0393   20.4389 N   0  0  0  0  0  0  0  0  0  0  0  0
  -26.6522  -27.5465   20.1426 N   0  0  0  0  0  0  0  0  0  0  0  0
  -24.4196  -15.6010   20.8212 N   0  0  0  0  0  0  0  0  0  0  0  0
  -28.8679  -24.5236   20.8790 N   0  0  0  0  0  0  0  0  0  0  0  0
  -27.7847  -29.5698   19.6587 N   0  0  0  0  0  0  0  0  0  0  0  0
  -23.5125  -30.8919   20.2889 N   0  0  0  0  0  0  0  0  0  0  0  0
  -23.2325  -18.9702   21.5532 N   0  0  0  0  0  0  0  0  0  0  0  0
  -23.9649  -12.2495   20.6824 N   0  0  0  0  0  0  0  0  0  0  0  0
  -30.7307  -23.3848   21.7905 N   0  0  0  0  0  0  0  0  0  0  0  0
  -25.4411  -10.5889   17.8309 N   0  3  0  0  0  0  0  0  0  0  0  0
  -25.6282  -31.6126   19.7758 O   0  0  0  0  0  0  0  0  0  0  0  0
  -24.2423  -17.2552   22.7622 O   0  0  0  0  0  0  0  0  0  0  0  0
  -22.3233  -14.5854   20.9227 O   0  0  0  0  0  0  0  0  0  0  0  0
  -26.2067  -11.9661   20.1619 O   0  0  0  0  0  0  0  0  0  0  0  0
  -29.4397  -24.7377   23.1163 O   0  0  0  0  0  0  0  0  0  0  0  0
  -19.1978  -27.6000   21.5466 O   0  0  0  0  0  0  0  0  0  0  0  0
  -30.2617  -17.4342   20.0714 O   0  0  0  0  0  0  0  0  0  1  0  0
  -31.0764  -20.6819   22.6623 O   0  0  0  0  0  0  0  0  0  0  0  0
  -16.9401  -31.2241   25.0356 F   0  0  0  0  0  0  0  0  0  0  0  0
  -18.0003  -26.7552   23.8907 F   0  0  0  0  0  0  0  0  0  0  0  0
  1  2  1  0  0  0  0
  1  5  2  0  0  0  0
  2  6  2  0  0  0  0
  3  8  2  0  0  0  0
  3 17  1  0  0  0  0
  4  9  1  0  0  0  0
  4 17  2  0  0  0  0
  5 19  1  0  0  0  0
  6 21  1  0  0  0  0
  7 10  2  0  0  0  0
  7 20  1  0  0  0  0
  8 24  1  0  0  0  0
  9 24  2  0  0  0  0
 10 25  1  0  0  0  0
 11 12  2  0  0  0  0
 11 26  1  0  0  0  0
 12 28  1  0  0  0  0
 13 22  1  0  0  0  0
 13 25  2  0  0  0  0
 14 27  1  0  0  0  0
 14 31  2  0  0  0  0
 15 28  2  0  0  0  0
 15 29  1  0  0  0  0
 16 23  1  0  0  0  0
 16 65  2  0  0  0  0
 17 30  1  0  0  0  0
 18 30  1  0  0  0  0
 18 32  2  0  0  0  0
 18 33  1  0  0  0  0
 19 21  2  0  0  0  0
 19 38  1  0  0  0  0
 20 22  2  0  0  0  0
 20 39  1  0  0  0  0
 21 49  1  0  0  0  0
 22 40  1  0  0  0  0
 23 27  2  0  0  0  0
 23 58  1  0  0  0  0
 24 81  1  0  0  0  0
 25 82  1  0  0  0  0
 26 29  2  0  0  0  0
 26 81  1  0  0  0  0
 27 83  1  0  0  0  0
 28 84  1  0  0  0  0
 29 85  1  0  0  0  0
 30 66  2  0  0  0  0
 31 50  1  0  0  0  0
 31 65  1  0  0  0  0
 32 67  1  0  0  0  0
 32 70  1  0  0  0  0
 33 71  1  0  0  0  0
 33 76  2  0  0  0  0
 34 51  1  0  0  0  0
 34 72  1  0  0  0  0
 34 77  2  0  0  0  0
 35 62  1  0  0  0  0
 35 68  1  0  0  0  0
 35 78  2  0  0  0  0
 36 63  1  0  0  0  0
 36 73  1  0  0  0  0
 36 79  2  0  0  0  0
 37 69  1  0  0  0  0
 37 74  1  0  0  0  0
 37 80  2  0  0  0  0
 38 41  1  0  0  0  0
 39 51  1  0  0  0  0
 40 68  1  0  0  0  0
 41 43  1  0  0  0  0
 42 46  1  0  0  0  0
 42 47  1  0  0  0  0
 43 49  1  0  0  0  0
 44 45  1  0  0  0  0
 44 50  1  0  0  0  0
 45 50  1  0  0  0  0
 46 52  1  0  0  0  0
 47 69  1  0  0  0  0
 48 52  1  0  0  0  0
 48 69  1  0  0  0  0
 49 72  1  0  0  0  0
 51 68  1  0  0  0  0
 52 67  1  0  0  0  0
 53 63  1  0  0  0  0
 54 64  1  0  0  0  0
 55 64  1  0  0  0  0
 56 64  1  0  0  0  0
 57 75  1  0  0  0  0
 58 60  1  0  0  0  0
 59 61  1  0  0  0  0
 59 74  1  0  0  0  0
 60 82  1  0  0  0  0
 61 83  1  0  0  0  0
 62 64  1  0  0  0  0
 62 73  1  0  0  0  0
 63 75  1  0  0  0  0
 66 67  1  0  0  0  0
M  CHG  1  75   1
M  ISO  4  37 100  60 101  74 100  82 101
M  END
> <Batch ID>
0148

> <Smiles>
CNC(C)C(=O)NC(C(=O)N1Cc2cc([101O:1][101CH2:1]Cc3cnc(C4CC4)cc3OCC[100NH:0][100C:0](=O)N3CCCC(n4nc(-c5ccc(Oc6ccc(F)cc6F)cc5)c(C(N)=O)c4N)C3)ccc2CC1C(=O)NC1CCCc2ccccc21)C(C)(C)C

> <Shape>
0.206

> <Color>
0.085

> <Negative vol penalty>
0.000

$$$$

  -OEChem-04052321363D

 88 97  0     1  0  0  0  0  0999 V2000
  -21.9883  -11.3437   21.4477 C   0  0  0  0  0  0  0  0  0  0  0  0
  -21.8309  -12.6791   21.8047 C   0  0  0  0  0  0  0  0  0  0  0  0
  -30.1177  -28.4080   19.2946 C   0  0  0  0  0  0  0  0  0  0  0  0
  -29.9135  -28.0238   21.6711 C   0  0  0  0  0  0  0  0  0  0  0  0
  -23.2305  -10.8805   21.0162 C   0  0  0  0  0  0  0  0  0  0  0  0
  -22.9160  -13.5518   21.7314 C   0  0  0  0  0  0  0  0  0  0  0  0
  -21.7024  -17.9867   19.6091 C   0  0  0  0  0  0  0  0  0  0  0  0
  -31.5027  -28.5042   19.4291 C   0  0  0  0  0  0  0  0  0  0  0  0
  -31.2985  -28.1200   21.8056 C   0  0  0  0  0  0  0  0  0  0  0  0
  -21.0238  -18.9088   20.4047 C   0  0  0  0  0  0  0  0  0  0  0  0
  -34.8108  -27.9058   22.7199 C   0  0  0  0  0  0  0  0  0  0  0  0
  -35.4542  -26.9527   23.5094 C   0  0  0  0  0  0  0  0  0  0  0  0
  -23.0936  -20.0839   20.7977 C   0  0  0  0  0  0  0  0  0  0  0  0
  -21.0019  -22.6576   24.5865 C   0  0  0  0  0  0  0  0  0  0  0  0
  -19.2982  -24.3573   24.7991 C   0  0  0  0  0  0  0  0  0  0  0  0
  -34.6404  -25.2010   22.0581 C   0  0  0  0  0  0  0  0  0  0  0  0
  -29.3231  -28.1678   20.4156 C   0  0  0  0  0  0  0  0  0  0  0  0
  -27.1411  -26.9053   20.0249 C   0  0  0  0  0  0  0  0  0  0  0  0
  -24.3290  -11.7501   20.9284 C   0  0  0  0  0  0  0  0  0  0  0  0
  -23.0859  -18.1002   19.4103 C   0  0  0  0  0  0  0  0  0  0  0  0
  -24.1744  -13.0994   21.2996 C   0  0  0  0  0  0  0  0  0  0  0  0
  -23.7870  -19.1634   19.9970 C   0  0  0  0  0  0  0  0  0  0  0  0
  -20.9404  -22.7696   23.1975 C   0  0  0  0  0  0  0  0  0  0  0  0
  -19.2367  -24.4694   23.4101 C   0  0  0  0  0  0  0  0  0  0  0  0
  -20.0578  -23.6755   22.6093 C   0  0  0  0  0  0  0  0  0  0  0  0
  -32.0931  -28.3602   20.6846 C   0  0  0  0  0  0  0  0  0  0  0  0
  -21.7198  -19.9559   21.0015 C   0  0  0  0  0  0  0  0  0  0  0  0
  -34.0821  -27.5064   21.5995 C   0  0  0  0  0  0  0  0  0  0  0  0
  -20.1807  -23.4514   25.3873 C   0  0  0  0  0  0  0  0  0  0  0  0
  -35.3690  -25.6004   23.1785 C   0  0  0  0  0  0  0  0  0  0  0  0
  -33.9970  -26.1541   21.2686 C   0  0  0  0  0  0  0  0  0  0  0  0
  -27.8923  -28.0688   20.2773 C   0  0  0  0  0  0  0  0  0  0  0  0
  -25.8387  -27.3396   19.9841 C   0  0  0  0  0  0  0  0  0  0  0  0
  -27.5812  -25.5529   19.8437 C   0  0  0  0  0  0  0  0  0  0  0  0
  -25.6047  -16.2794   20.0768 C   0  0  0  0  0  0  0  0  0  0  0  0
  -27.1977  -18.5406   18.3823 C   0  0  0  0  0  0  0  0  0  0  0  0
  -27.3179  -21.7527   17.2355 C   0  0  0  0  0  0  0  0  0  0  0  0
  -21.6641  -30.4073   22.0594 C   0  0  0  0  0  0  0  0  0  0  0  0
  -25.6638  -11.1927   20.5014 C   0  0  0  0  0  0  0  0  0  0  0  0
  -23.7987  -17.1127   18.5276 C   0  0  0  0  0  0  0  0  0  0  0  0
  -25.2693  -19.3414   19.7984 C   0  0  0  0  0  0  0  0  0  0  0  0
  -26.6702  -12.2661   20.0949 C   0  0  0  0  0  0  0  0  0  0  0  0
  -23.9328  -32.0230   19.8415 C   0  0  0  0  0  0  0  0  0  0  0  0
  -26.6895  -13.3955   21.1201 C   0  0  0  0  0  0  0  0  0  0  0  0
  -25.1052  -31.0455   19.7415 C   0  0  0  0  0  0  0  0  0  0  0  0
  -19.0773  -28.7764   21.7579 C   0  0  0  0  0  0  0  0  0  0  0  0
  -23.3351  -32.0455   21.2466 C   0  0  0  0  0  0  0  0  0  0  0  0
  -24.1162  -29.7475   21.6744 C   0  0  0  0  0  0  0  0  0  0  0  0
  -17.9382  -27.8891   22.2349 C   0  0  0  0  0  0  0  0  0  0  0  0
  -20.0724  -27.1772   23.1951 C   0  0  0  0  0  0  0  0  0  0  0  0
  -25.3215  -14.0824   21.2099 C   0  0  1  0  0  0  0  0  0  0  0  0
  -25.2952  -17.0288   18.8117 C   0  0  1  0  0  0  0  0  0  0  0  0
  -24.7164  -29.6484   20.2615 C   0  0  2  0  0  0  0  0  0  0  0  0
  -20.1165  -28.6548   22.8591 C   0  0  1  0  0  0  0  0  0  0  0  0
  -19.9917  -23.7951   21.1198 C   0  0  0  0  0  0  0  0  0  0  0  0
  -16.8216  -25.1859   23.1939 C   0  0  0  0  0  0  0  0  0  0  0  0
  -28.7627  -23.3179   15.9089 C   0  0  0  0  0  0  0  0  0  0  0  0
  -29.0723  -18.8319   20.7721 C   0  0  0  0  0  0  0  0  0  0  0  0
  -29.8616  -21.0000   19.8001 C   0  0  0  0  0  0  0  0  0  0  0  0
  -30.2080  -18.8725   18.5443 C   0  0  0  0  0  0  0  0  0  0  0  0
  -25.2165  -22.1427   15.1884 C   0  0  0  0  0  0  0  0  0  0  0  0
  -19.3726  -24.1817   27.5014 C   0  0  0  0  0  0  0  0  0  0  0  0
  -21.8355  -21.9047   22.3597 C   0  0  0  0  0  0  0  0  0  1  0  0
  -18.2819  -25.4454   22.8044 C   0  0  1  0  0  0  0  0  0  0  0  0
  -27.8805  -19.8446   18.7178 C   0  0  1  0  0  0  0  0  0  0  0  0
  -27.6158  -22.3205   15.8596 C   0  0  2  0  0  0  0  0  0  0  0  0
  -29.2280  -19.6331   19.4641 C   0  0  0  0  0  0  0  0  0  0  0  0
  -27.1305  -29.1603   20.3888 N   0  0  0  0  0  0  0  0  0  0  0  0
  -25.8871  -28.6845   20.2055 N   0  0  0  0  0  0  0  0  0  0  0  0
  -25.9225  -18.3465   18.9318 N   0  0  0  0  0  0  0  0  0  0  0  0
  -22.9865  -30.6901   21.6795 N   0  0  0  0  0  0  0  0  0  0  0  0
  -24.6682  -26.6984   19.7806 N   0  0  0  0  0  0  0  0  0  0  0  0
  -28.9542  -25.2815   19.9170 N   0  0  0  0  0  0  0  0  0  0  0  0
  -25.1325  -14.9808   20.0911 N   0  0  0  0  0  0  0  0  0  0  0  0
  -28.0017  -20.5768   17.4618 N   0  0  0  0  0  0  0  0  0  0  0  0
  -21.4177  -29.0969   22.4502 N   0  0  0  0  0  0  0  0  0  0  0  0
  -18.5903  -26.8669   23.1494 N   0  3  2  0  0  0  0  0  0  0  0  0
  -26.4142  -23.0126   15.3136 N   0  3  0  0  0  0  0  0  0  0  0  0
  -26.7820  -24.6155   19.6069 O   0  0  0  0  0  0  0  0  0  0  0  0
  -26.2271  -16.8374   20.9728 O   0  0  0  0  0  0  0  0  0  0  0  0
  -27.7716  -17.7275   17.6536 O   0  0  0  0  0  0  0  0  0  0  0  0
  -26.5579  -22.2996   18.0316 O   0  0  0  0  0  0  0  0  0  0  0  0
  -20.7682  -31.2583   22.0460 O   0  0  0  0  0  0  0  0  0  0  0  0
  -33.4446  -28.4539   20.8162 O   0  0  0  0  0  0  0  0  0  0  0  0
  -20.2396  -23.3402   26.7425 O   0  0  0  0  0  0  0  0  0  0  0  0
  -21.0600  -20.8569   21.7791 O   0  0  0  0  0  0  0  0  0  1  0  0
  -35.9882  -24.6854   23.9359 F   0  0  0  0  0  0  0  0  0  0  0  0
  -33.2994  -25.7645   20.1928 F   0  0  0  0  0  0  0  0  0  0  0  0
  1  2  1  0  0  0  0
  1  5  2  0  0  0  0
  2  6  2  0  0  0  0
  3  8  2  0  0  0  0
  3 17  1  0  0  0  0
  4  9  1  0  0  0  0
  4 17  2  0  0  0  0
  5 19  1  0  0  0  0
  6 21  1  0  0  0  0
  7 10  2  0  0  0  0
  7 20  1  0  0  0  0
  8 26  1  0  0  0  0
  9 26  2  0  0  0  0
 10 27  1  0  0  0  0
 11 12  2  0  0  0  0
 11 28  1  0  0  0  0
 12 30  1  0  0  0  0
 13 22  1  0  0  0  0
 13 27  2  0  0  0  0
 14 23  1  0  0  0  0
 14 29  2  0  0  0  0
 15 24  2  0  0  0  0
 15 29  1  0  0  0  0
 16 30  2  0  0  0  0
 16 31  1  0  0  0  0
 17 32  1  0  0  0  0
 18 32  1  0  0  0  0
 18 33  2  0  0  0  0
 18 34  1  0  0  0  0
 19 21  2  0  0  0  0
 19 39  1  0  0  0  0
 20 22  2  0  0  0  0
 20 40  1  0  0  0  0
 21 51  1  0  0  0  0
 22 41  1  0  0  0  0
 23 25  2  0  0  0  0
 23 63  1  0  0  0  0
 24 25  1  0  0  0  0
 24 64  1  0  0  0  0
 25 55  1  0  0  0  0
 26 84  1  0  0  0  0
 27 86  1  0  0  0  0
 28 31  2  0  0  0  0
 28 84  1  0  0  0  0
 29 85  1  0  0  0  0
 30 87  1  0  0  0  0
 31 88  1  0  0  0  0
 32 68  2  0  0  0  0
 33 69  1  0  0  0  0
 33 72  1  0  0  0  0
 34 73  1  0  0  0  0
 34 79  2  0  0  0  0
 35 52  1  0  0  0  0
 35 74  1  0  0  0  0
 35 80  2  0  0  0  0
 36 65  1  0  0  0  0
 36 70  1  0  0  0  0
 36 81  2  0  0  0  0
 37 66  1  0  0  0  0
 37 75  1  0  0  0  0
 37 82  2  0  0  0  0
 38 71  1  0  0  0  0
 38 76  1  0  0  0  0
 38 83  2  0  0  0  0
 39 42  1  0  0  0  0
 40 52  1  0  0  0  0
 41 70  1  0  0  0  0
 42 44  1  0  0  0  0
 43 45  1  0  0  0  0
 43 47  1  0  0  0  0
 44 51  1  0  0  0  0
 45 53  1  0  0  0  0
 46 49  1  0  0  0  0
 46 54  1  0  0  0  0
 47 71  1  0  0  0  0
 48 53  1  0  0  0  0
 48 71  1  0  0  0  0
 49 77  1  0  0  0  0
 50 54  1  0  0  0  0
 50 77  1  0  0  0  0
 51 74  1  0  0  0  0
 52 70  1  0  0  0  0
 53 69  1  0  0  0  0
 54 76  1  0  0  0  0
 56 64  1  0  0  0  0
 57 66  1  0  0  0  0
 58 67  1  0  0  0  0
 59 67  1  0  0  0  0
 60 67  1  0  0  0  0
 61 78  1  0  0  0  0
 62 85  1  0  0  0  0
 63 86  1  0  0  0  0
 64 77  1  0  0  0  0
 65 67  1  0  0  0  0
 65 75  1  0  0  0  0
 66 78  1  0  0  0  0
 68 69  1  0  0  0  0
M  CHG  2  77   1  78   1
M  ISO  4  38 100  63 101  76 100  86 101
M  END
> <Batch ID>
0148

> <Smiles>
CNC(C)C(=O)NC(C(=O)N1Cc2cc([101O:1][101CH2:1]c3cc(OC)cc(C(C)N4CCC([100NH:0][100C:0](=O)N5CCCC(n6nc(-c7ccc(Oc8ccc(F)cc8F)cc7)c(C(N)=O)c6N)C5)C4)c3C)ccc2CC1C(=O)NC1CCCc2ccccc21)C(C)(C)C

> <Shape>
0.223

> <Color>
0.084

> <Negative vol penalty>
0.000

$$$$

  -OEChem-04052321363D

 85 94  0     1  0  0  0  0  0999 V2000
  -35.2011  -34.8548   25.1869 C   0  0  0  0  0  0  0  0  0  0  0  0
  -34.8079  -33.6725   24.5681 C   0  0  0  0  0  0  0  0  0  0  0  0
  -23.3866   -9.4284   20.5687 C   0  0  0  0  0  0  0  0  0  0  0  0
  -24.0281  -10.0401   22.8162 C   0  0  0  0  0  0  0  0  0  0  0  0
  -34.2586  -35.6409   25.8485 C   0  0  0  0  0  0  0  0  0  0  0  0
  -33.4720  -33.2750   24.6114 C   0  0  0  0  0  0  0  0  0  0  0  0
  -30.3652  -30.3238   20.2360 C   0  0  0  0  0  0  0  0  0  0  0  0
  -22.7720   -8.2758   21.0578 C   0  0  0  0  0  0  0  0  0  0  0  0
  -23.4135   -8.8875   23.3054 C   0  0  0  0  0  0  0  0  0  0  0  0
  -30.0425  -28.9791   20.0593 C   0  0  0  0  0  0  0  0  0  0  0  0
  -19.8707   -7.4586   22.5900 C   0  0  0  0  0  0  0  0  0  0  0  0
  -29.2585  -19.8155   21.7867 C   0  0  0  0  0  0  0  0  0  0  0  0
  -18.6034   -7.1422   22.1007 C   0  0  0  0  0  0  0  0  0  0  0  0
  -28.9537  -18.4670   21.6387 C   0  0  0  0  0  0  0  0  0  0  0  0
  -27.8882  -29.3693   21.0722 C   0  0  0  0  0  0  0  0  0  0  0  0
  -19.4509   -5.0398   21.2650 C   0  0  0  0  0  0  0  0  0  0  0  0
  -24.0147  -10.3106   21.4479 C   0  0  0  0  0  0  0  0  0  0  0  0
  -24.0631  -12.7683   20.7661 C   0  0  0  0  0  0  0  0  0  0  0  0
  -32.9088  -35.2578   25.8917 C   0  0  0  0  0  0  0  0  0  0  0  0
  -29.4546  -31.2006   20.8430 C   0  0  0  0  0  0  0  0  0  0  0  0
  -32.5108  -34.0561   25.2753 C   0  0  0  0  0  0  0  0  0  0  0  0
  -28.2008  -30.7253   21.2531 C   0  0  0  0  0  0  0  0  0  0  0  0
  -22.7854   -8.0053   22.4262 C   0  0  0  0  0  0  0  0  0  0  0  0
  -28.8049  -28.5010   20.4800 C   0  0  0  0  0  0  0  0  0  0  0  0
  -20.9282   -6.5656   22.4168 C   0  0  0  0  0  0  0  0  0  0  0  0
  -30.4796  -20.3004   21.3318 C   0  0  0  0  0  0  0  0  0  0  0  0
  -18.3935   -5.9328   21.4382 C   0  0  0  0  0  0  0  0  0  0  0  0
  -20.7182   -5.3562   21.7543 C   0  0  0  0  0  0  0  0  0  0  0  0
  -24.6502  -11.5012   20.9432 C   0  0  0  0  0  0  0  0  0  0  0  0
  -31.3543  -19.4030   20.7407 C   0  0  0  0  0  0  0  0  0  0  0  0
  -29.8965  -17.6517   21.0337 C   0  0  0  0  0  0  0  0  0  0  0  0
  -25.0760  -13.5492   20.2654 C   0  0  0  0  0  0  0  0  0  0  0  0
  -22.7220  -13.2010   21.0307 C   0  0  0  0  0  0  0  0  0  0  0  0
  -29.4675  -32.9765   23.4792 C   0  0  0  0  0  0  0  0  0  0  0  0
  -26.6515  -34.0642   22.2922 C   0  0  0  0  0  0  0  0  0  0  0  0
  -23.9486  -33.5136   20.2827 C   0  0  0  0  0  0  0  0  0  0  0  0
  -30.3667  -15.2841   20.3127 C   0  0  0  0  0  0  0  0  0  0  0  0
  -31.9348  -36.1162   26.6592 C   0  0  0  0  0  0  0  0  0  0  0  0
  -29.8075  -32.6541   21.0021 C   0  0  0  0  0  0  0  0  0  0  0  0
  -27.1799  -31.6299   21.8918 C   0  0  0  0  0  0  0  0  0  0  0  0
  -30.4731  -35.8146   26.3385 C   0  0  0  0  0  0  0  0  0  0  0  0
  -29.6597  -12.2841   18.5301 C   0  0  0  0  0  0  0  0  0  0  0  0
  -30.2239  -34.3098   26.3484 C   0  0  0  0  0  0  0  0  0  0  0  0
  -32.7112  -21.0210   19.2524 C   0  0  0  0  0  0  0  0  0  0  0  0
  -33.0485  -19.6337   18.8030 C   0  0  0  0  0  0  0  0  0  0  0  0
  -28.2451  -11.9172   18.9844 C   0  0  0  0  0  0  0  0  0  0  0  0
  -30.4822  -12.8871   19.6675 C   0  0  0  0  0  0  0  0  0  0  0  0
  -28.4386  -13.6556   20.8086 C   0  0  0  0  0  0  0  0  0  0  0  0
  -31.0666  -33.6039   25.2793 C   0  0  1  0  0  0  0  0  0  0  0  0
  -32.6765  -19.8855   20.2392 C   0  0  0  0  0  0  0  0  0  0  0  0
  -29.0048  -33.3473   22.0986 C   0  0  1  0  0  0  0  0  0  0  0  0
  -27.5512  -13.1044   19.6806 C   0  0  2  0  0  0  0  0  0  0  0  0
  -21.7937  -34.5682   19.5467 C   0  0  0  0  0  0  0  0  0  0  0  0
  -25.3873  -33.3475   24.9751 C   0  0  0  0  0  0  0  0  0  0  0  0
  -23.1408  -33.5170   23.8829 C   0  0  0  0  0  0  0  0  0  0  0  0
  -24.6195  -35.5222   24.0078 C   0  0  0  0  0  0  0  0  0  0  0  0
  -24.8056  -33.5633   17.4504 C   0  0  0  0  0  0  0  0  0  0  0  0
  -29.0651  -24.9058   20.8433 C   0  0  0  0  0  0  0  0  0  0  0  0
  -30.1887  -23.8770   20.9060 C   0  0  0  0  0  0  0  0  0  0  0  0
  -29.5636  -26.2518   20.3344 C   0  0  0  0  0  0  0  0  0  1  0  0
  -29.7004  -22.5440   21.4551 C   0  0  0  0  0  0  0  0  0  0  0  0
  -25.2061  -33.6467   22.4170 C   0  0  1  0  0  0  0  0  0  0  0  0
  -23.2726  -34.3876   19.2418 C   0  0  2  0  0  0  0  0  0  0  0  0
  -24.6082  -33.9907   23.8104 C   0  0  0  0  0  0  0  0  0  0  0  0
  -25.9364  -11.4741   20.5840 N   0  0  0  0  0  0  0  0  0  0  0  0
  -31.0933  -18.0864   20.5793 N   0  0  0  0  0  0  0  0  0  0  0  0
  -26.1658  -12.7339   20.1761 N   0  0  0  0  0  0  0  0  0  0  0  0
  -27.5744  -33.0414   22.0312 N   0  0  0  0  0  0  0  0  0  0  0  0
  -29.7641  -14.0088   20.2767 N   0  0  0  0  0  0  0  0  0  0  0  0
  -25.1320  -14.8467   19.8971 N   0  0  0  0  0  0  0  0  0  0  0  0
  -21.8087  -12.2700   21.5440 N   0  0  0  0  0  0  0  0  0  0  0  0
  -29.5762  -16.2793   20.8866 N   0  0  0  0  0  0  0  0  0  0  0  0
  -30.4760  -33.7835   23.9703 N   0  0  0  0  0  0  0  0  0  0  0  0
  -24.5046  -34.2644   21.2968 N   0  0  0  0  0  0  0  0  0  0  0  0
  -23.4022  -33.7763   17.8888 N   0  3  0  0  0  0  0  0  0  0  0  0
  -22.3404  -14.3740   20.8028 O   0  0  0  0  0  0  0  0  0  0  0  0
  -28.9471  -32.0293   24.0568 O   0  0  0  0  0  0  0  0  0  0  0  0
  -26.9498  -35.2549   22.4143 O   0  0  0  0  0  0  0  0  0  0  0  0
  -23.9770  -32.2873   20.2059 O   0  0  0  0  0  0  0  0  0  0  0  0
  -31.4895  -15.4848   19.8427 O   0  0  0  0  0  0  0  0  0  0  0  0
  -22.1856   -6.8808   22.9038 O   0  0  0  0  0  0  0  0  0  0  0  0
  -28.4876  -27.1887   20.3094 O   0  0  0  0  0  0  0  0  0  1  0  0
  -30.7871  -21.6287   21.4738 O   0  0  0  0  0  0  0  0  0  0  0  0
  -17.1761   -5.6285   20.9697 F   0  0  0  0  0  0  0  0  0  0  0  0
  -21.7300   -4.4937   21.5859 F   0  0  0  0  0  0  0  0  0  0  0  0
  1  2  1  0  0  0  0
  1  5  2  0  0  0  0
  2  6  2  0  0  0  0
  3  8  2  0  0  0  0
  3 17  1  0  0  0  0
  4  9  1  0  0  0  0
  4 17  2  0  0  0  0
  5 19  1  0  0  0  0
  6 21  1  0  0  0  0
  7 10  2  0  0  0  0
  7 20  1  0  0  0  0
  8 23  1  0  0  0  0
  9 23  2  0  0  0  0
 10 24  1  0  0  0  0
 11 13  2  0  0  0  0
 11 25  1  0  0  0  0
 12 14  2  0  0  0  0
 12 26  1  0  0  0  0
 13 27  1  0  0  0  0
 14 31  1  0  0  0  0
 15 22  1  0  0  0  0
 15 24  2  0  0  0  0
 16 27  2  0  0  0  0
 16 28  1  0  0  0  0
 17 29  1  0  0  0  0
 18 29  1  0  0  0  0
 18 32  2  0  0  0  0
 18 33  1  0  0  0  0
 19 21  2  0  0  0  0
 19 38  1  0  0  0  0
 20 22  2  0  0  0  0
 20 39  1  0  0  0  0
 21 49  1  0  0  0  0
 22 40  1  0  0  0  0
 23 81  1  0  0  0  0
 24 82  1  0  0  0  0
 25 28  2  0  0  0  0
 25 81  1  0  0  0  0
 26 30  2  0  0  0  0
 26 83  1  0  0  0  0
 27 84  1  0  0  0  0
 28 85  1  0  0  0  0
 29 65  2  0  0  0  0
 30 50  1  0  0  0  0
 30 66  1  0  0  0  0
 31 66  2  0  0  0  0
 31 72  1  0  0  0  0
 32 67  1  0  0  0  0
 32 70  1  0  0  0  0
 33 71  1  0  0  0  0
 33 76  2  0  0  0  0
 34 51  1  0  0  0  0
 34 73  1  0  0  0  0
 34 77  2  0  0  0  0
 35 62  1  0  0  0  0
 35 68  1  0  0  0  0
 35 78  2  0  0  0  0
 36 63  1  0  0  0  0
 36 74  1  0  0  0  0
 36 79  2  0  0  0  0
 37 69  1  0  0  0  0
 37 72  1  0  0  0  0
 37 80  2  0  0  0  0
 38 41  1  0  0  0  0
 39 51  1  0  0  0  0
 40 68  1  0  0  0  0
 41 43  1  0  0  0  0
 42 46  1  0  0  0  0
 42 47  1  0  0  0  0
 43 49  1  0  0  0  0
 44 45  1  0  0  0  0
 44 50  1  0  0  0  0
 45 50  1  0  0  0  0
 46 52  1  0  0  0  0
 47 69  1  0  0  0  0
 48 52  1  0  0  0  0
 48 69  1  0  0  0  0
 49 73  1  0  0  0  0
 51 68  1  0  0  0  0
 52 67  1  0  0  0  0
 53 63  1  0  0  0  0
 54 64  1  0  0  0  0
 55 64  1  0  0  0  0
 56 64  1  0  0  0  0
 57 75  1  0  0  0  0
 58 59  1  0  0  0  0
 58 60  1  0  0  0  0
 59 61  1  0  0  0  0
 60 82  1  0  0  0  0
 61 83  1  0  0  0  0
 62 64  1  0  0  0  0
 62 74  1  0  0  0  0
 63 75  1  0  0  0  0
 65 67  1  0  0  0  0
M  CHG  1  75   1
M  ISO  4  37 100  60 101  72 100  82 101
M  END
> <Batch ID>
0148

> <Smiles>
CNC(C)C(=O)NC(C(=O)N1Cc2cc([101O:1][101CH2:1]CCCOc3ccc([100NH:0][100C:0](=O)N4CCCC(n5nc(-c6ccc(Oc7ccc(F)cc7F)cc6)c(C(N)=O)c5N)C4)nc3C3CC3)ccc2CC1C(=O)NC1CCCc2ccccc21)C(C)(C)C

> <Shape>
0.248

> <Color>
0.181

> <Negative vol penalty>
0.000

$$$$

  -OEChem-04052321363D

 88 96  0     1  0  0  0  0  0999 V2000
  -16.1006  -27.1235   26.1464 C   0  0  0  0  0  0  0  0  0  0  0  0
  -17.0761  -26.1338   26.2107 C   0  0  0  0  0  0  0  0  0  0  0  0
  -24.0495  -13.9620   20.8584 C   0  0  0  0  0  0  0  0  0  0  0  0
  -26.4413  -13.7802   20.5699 C   0  0  0  0  0  0  0  0  0  0  0  0
  -16.1274  -28.0612   25.1149 C   0  0  0  0  0  0  0  0  0  0  0  0
  -18.0786  -26.0805   25.2429 C   0  0  0  0  0  0  0  0  0  0  0  0
  -24.9771  -24.3243   24.4413 C   0  0  0  0  0  0  0  0  0  0  0  0
  -23.9040  -12.6229   20.4961 C   0  0  0  0  0  0  0  0  0  0  0  0
  -26.2959  -12.4411   20.2077 C   0  0  0  0  0  0  0  0  0  0  0  0
  -25.8017  -23.5358   23.6401 C   0  0  0  0  0  0  0  0  0  0  0  0
  -24.3010   -9.5933   21.9442 C   0  0  0  0  0  0  0  0  0  0  0  0
  -23.4535   -8.8008   22.7182 C   0  0  0  0  0  0  0  0  0  0  0  0
  -25.7937  -25.2561   21.9491 C   0  0  0  0  0  0  0  0  0  0  0  0
  -30.4704  -24.1082   22.1001 C   0  0  0  0  0  0  0  0  0  0  0  0
  -22.0897   -8.3596   20.7733 C   0  0  0  0  0  0  0  0  0  0  0  0
  -25.3182  -14.5407   20.8952 C   0  0  0  0  0  0  0  0  0  0  0  0
  -25.6646  -16.4382   22.5647 C   0  0  0  0  0  0  0  0  0  0  0  0
  -17.1363  -28.0252   24.1394 C   0  0  0  0  0  0  0  0  0  0  0  0
  -24.5450  -25.5823   23.9971 C   0  0  0  0  0  0  0  0  0  0  0  0
  -18.1182  -27.0178   24.1966 C   0  0  0  0  0  0  0  0  0  0  0  0
  -24.9657  -26.0598   22.7477 C   0  0  0  0  0  0  0  0  0  0  0  0
  -29.8940  -23.3725   21.0706 C   0  0  0  0  0  0  0  0  0  0  0  0
  -25.0272  -11.8624   20.1708 C   0  0  0  0  0  0  0  0  0  0  0  0
  -26.2077  -24.0004   22.3925 C   0  0  0  0  0  0  0  0  0  0  0  0
  -24.0428   -9.7691   20.5847 C   0  0  0  0  0  0  0  0  0  0  0  0
  -31.1626  -25.2781   21.8079 C   0  0  0  0  0  0  0  0  0  0  0  0
  -22.3479   -8.1839   22.1328 C   0  0  0  0  0  0  0  0  0  0  0  0
  -22.9372   -9.1522   19.9993 C   0  0  0  0  0  0  0  0  0  0  0  0
  -25.4690  -15.9241   21.2688 C   0  0  0  0  0  0  0  0  0  0  0  0
  -31.2492  -25.6661   20.4806 C   0  0  0  0  0  0  0  0  0  0  0  0
  -30.0372  -23.8459   19.7763 C   0  0  0  0  0  0  0  0  0  0  0  0
  -25.7472  -17.7975   22.3859 C   0  0  0  0  0  0  0  0  0  0  0  0
  -25.7628  -15.7487   23.8179 C   0  0  0  0  0  0  0  0  0  0  0  0
  -21.7166  -26.8889   23.3673 C   0  0  0  0  0  0  0  0  0  0  0  0
  -23.4845  -29.5791   22.9684 C   0  0  0  0  0  0  0  0  0  0  0  0
  -26.5176  -30.9743   22.2607 C   0  0  0  0  0  0  0  0  0  0  0  0
  -27.3959  -21.0622   17.7514 C   0  0  0  0  0  0  0  0  0  0  0  0
  -17.0966  -29.0315   23.0167 C   0  0  0  0  0  0  0  0  0  0  0  0
  -23.6775  -26.4320   24.8846 C   0  0  0  0  0  0  0  0  0  0  0  0
  -24.5462  -27.4118   22.2331 C   0  0  0  0  0  0  0  0  0  0  0  0
  -18.4087  -29.1329   22.2431 C   0  0  0  0  0  0  0  0  0  0  0  0
  -24.2299  -21.2927   19.4895 C   0  0  0  0  0  0  0  0  0  0  0  0
  -18.9386  -27.7428   21.9060 C   0  0  0  0  0  0  0  0  0  0  0  0
  -24.2150  -19.9771   20.2700 C   0  0  0  0  0  0  0  0  0  0  0  0
  -24.8538  -21.1095   18.1091 C   0  0  0  0  0  0  0  0  0  0  0  0
  -26.2137  -19.2144   18.9049 C   0  0  0  0  0  0  0  0  0  0  0  0
  -19.2361  -26.9421   23.1795 C   0  0  1  0  0  0  0  0  0  0  0  0
  -22.8791  -27.4791   24.1142 C   0  0  1  0  0  0  0  0  0  0  0  0
  -25.6155  -19.3381   20.3181 C   0  0  2  0  0  0  0  0  0  0  0  0
  -30.0557  -21.0428   22.0075 C   0  0  0  0  0  0  0  0  0  0  0  0
  -31.0641  -27.9612   19.4549 C   0  0  0  0  0  0  0  0  0  0  0  0
  -33.1956  -26.6381   19.2073 C   0  0  0  0  0  0  0  0  0  0  0  0
  -27.6433  -33.1982   21.9701 C   0  0  0  0  0  0  0  0  0  0  0  0
  -22.1873  -29.8742   20.2225 C   0  0  0  0  0  0  0  0  0  0  0  0
  -23.9940  -31.4996   19.6208 C   0  0  0  0  0  0  0  0  0  0  0  0
  -22.4312  -32.0126   21.4962 C   0  0  0  0  0  0  0  0  0  0  0  0
  -28.3833  -30.4528   24.4982 C   0  0  0  0  0  0  0  0  0  0  0  0
  -31.5783  -25.5112   24.1378 C   0  0  0  0  0  0  0  0  0  0  0  0
  -28.4398  -22.9836   16.5785 C   0  0  0  0  0  0  0  0  0  0  0  0
  -29.0715  -23.9080   17.6039 C   0  0  0  0  0  0  0  0  0  0  0  0
  -27.9137  -22.3478   22.2721 C   0  0  0  0  0  0  0  0  0  1  0  0
  -29.1345  -22.0914   21.3780 C   0  0  1  0  0  0  0  0  0  0  0  0
  -31.9817  -26.9148   20.1132 C   0  0  0  0  0  0  0  0  0  0  0  0
  -24.1957  -30.2285   21.8059 C   0  0  1  0  0  0  0  0  0  0  0  0
  -27.3013  -32.0808   22.9434 C   0  0  2  0  0  0  0  0  0  0  0  0
  -23.2086  -30.8774   20.7949 C   0  0  0  0  0  0  0  0  0  0  0  0
  -25.4296  -16.8790   20.3358 N   0  0  0  0  0  0  0  0  0  0  0  0
  -30.7024  -24.9778   19.4536 N   0  0  0  0  0  0  0  0  0  0  0  0
  -25.6014  -18.0068   21.0461 N   0  0  0  0  0  0  0  0  0  0  0  0
  -23.6927  -28.2027   23.1351 N   0  0  0  0  0  0  0  0  0  0  0  0
  -26.1926  -20.5146   18.2264 N   0  0  0  0  0  0  0  0  0  0  0  0
  -25.9294  -18.8222   23.2457 N   0  0  0  0  0  0  0  0  0  0  0  0
  -25.6564  -14.3512   23.8218 N   0  0  0  0  0  0  0  0  0  0  0  0
  -20.4861  -27.3738   23.7675 N   0  0  0  0  0  0  0  0  0  0  0  0
  -25.1570  -31.1608   22.3846 N   0  0  0  0  0  0  0  0  0  0  0  0
  -27.2883  -22.2926   17.1148 N   0  0  0  0  0  0  0  0  0  0  0  0
  -28.5718  -31.5436   23.5075 N   0  3  0  0  0  0  0  0  0  0  0  0
  -25.9234  -16.3552   24.9042 O   0  0  0  0  0  0  0  0  0  0  0  0
  -21.9210  -26.0563   22.4917 O   0  0  0  0  0  0  0  0  0  0  0  0
  -22.7763  -30.2692   23.7059 O   0  0  0  0  0  0  0  0  0  0  0  0
  -27.0583  -30.0401   21.6730 O   0  0  0  0  0  0  0  0  0  0  0  0
  -28.4870  -20.4987   17.8893 O   0  0  0  0  0  0  0  0  0  0  0  0
  -24.8856  -10.5556   19.8174 O   0  0  0  0  0  0  0  0  0  0  0  0
  -31.7292  -26.0038   22.8055 O   0  0  0  0  0  0  0  0  0  0  0  0
  -27.0121  -23.2324   21.6082 O   0  0  0  0  0  0  0  0  0  1  0  0
  -29.4831  -23.1489   18.7342 O   0  0  0  0  0  0  0  0  0  0  0  0
  -21.5350   -7.4215   22.8759 F   0  0  0  0  0  0  0  0  0  0  0  0
  -22.6848   -9.3164   18.6935 F   0  0  0  0  0  0  0  0  0  0  0  0
  1  2  1  0  0  0  0
  1  5  2  0  0  0  0
  2  6  2  0  0  0  0
  3  8  2  0  0  0  0
  3 16  1  0  0  0  0
  4  9  1  0  0  0  0
  4 16  2  0  0  0  0
  5 18  1  0  0  0  0
  6 20  1  0  0  0  0
  7 10  2  0  0  0  0
  7 19  1  0  0  0  0
  8 23  1  0  0  0  0
  9 23  2  0  0  0  0
 10 24  1  0  0  0  0
 11 12  2  0  0  0  0
 11 25  1  0  0  0  0
 12 27  1  0  0  0  0
 13 21  1  0  0  0  0
 13 24  2  0  0  0  0
 14 22  1  0  0  0  0
 14 26  2  0  0  0  0
 15 27  2  0  0  0  0
 15 28  1  0  0  0  0
 16 29  1  0  0  0  0
 17 29  1  0  0  0  0
 17 32  2  0  0  0  0
 17 33  1  0  0  0  0
 18 20  2  0  0  0  0
 18 38  1  0  0  0  0
 19 21  2  0  0  0  0
 19 39  1  0  0  0  0
 20 47  1  0  0  0  0
 21 40  1  0  0  0  0
 22 31  2  0  0  0  0
 22 62  1  0  0  0  0
 23 83  1  0  0  0  0
 24 85  1  0  0  0  0
 25 28  2  0  0  0  0
 25 83  1  0  0  0  0
 26 30  1  0  0  0  0
 26 84  1  0  0  0  0
 27 87  1  0  0  0  0
 28 88  1  0  0  0  0
 29 67  2  0  0  0  0
 30 63  1  0  0  0  0
 30 68  2  0  0  0  0
 31 68  1  0  0  0  0
 31 86  1  0  0  0  0
 32 69  1  0  0  0  0
 32 72  1  0  0  0  0
 33 73  1  0  0  0  0
 33 78  2  0  0  0  0
 34 48  1  0  0  0  0
 34 74  1  0  0  0  0
 34 79  2  0  0  0  0
 35 64  1  0  0  0  0
 35 70  1  0  0  0  0
 35 80  2  0  0  0  0
 36 65  1  0  0  0  0
 36 75  1  0  0  0  0
 36 81  2  0  0  0  0
 37 71  1  0  0  0  0
 37 76  1  0  0  0  0
 37 82  2  0  0  0  0
 38 41  1  0  0  0  0
 39 48  1  0  0  0  0
 40 70  1  0  0  0  0
 41 43  1  0  0  0  0
 42 44  1  0  0  0  0
 42 45  1  0  0  0  0
 43 47  1  0  0  0  0
 44 49  1  0  0  0  0
 45 71  1  0  0  0  0
 46 49  1  0  0  0  0
 46 71  1  0  0  0  0
 47 74  1  0  0  0  0
 48 70  1  0  0  0  0
 49 69  1  0  0  0  0
 50 62  1  0  0  0  0
 51 63  1  0  0  0  0
 52 63  1  0  0  0  0
 53 65  1  0  0  0  0
 54 66  1  0  0  0  0
 55 66  1  0  0  0  0
 56 66  1  0  0  0  0
 57 77  1  0  0  0  0
 58 84  1  0  0  0  0
 59 60  1  0  0  0  0
 59 76  1  0  0  0  0
 60 86  1  0  0  0  0
 61 62  1  0  0  0  0
 61 85  1  0  0  0  0
 64 66  1  0  0  0  0
 64 75  1  0  0  0  0
 65 77  1  0  0  0  0
 67 69  1  0  0  0  0
M  CHG  1  77   1
M  ISO  4  37 100  61 101  76 100  85 101
M  END
> <Batch ID>
0148

> <Smiles>
CNC(C)C(=O)NC(C(=O)N1Cc2cc([101O:1][101CH2:1]C(C)c3cc(OC)c(C(C)C)nc3OCC[100NH:0][100C:0](=O)N3CCCC(n4nc(-c5ccc(Oc6ccc(F)cc6F)cc5)c(C(N)=O)c4N)C3)ccc2CC1C(=O)NC1CCCc2ccccc21)C(C)(C)C

> <Shape>
0.244

> <Color>
0.068

> <Negative vol penalty>
0.000

$$$$

  -OEChem-04052321363D

 86 96  0     1  0  0  0  0  0999 V2000
  -27.2277  -11.8372   17.2831 C   0  0  0  0  0  0  0  0  0  0  0  0
  -26.3769  -12.8743   16.9143 C   0  0  0  0  0  0  0  0  0  0  0  0
  -28.4769  -26.6026   19.7631 C   0  0  0  0  0  0  0  0  0  0  0  0
  -26.5801  -25.2466   19.1302 C   0  0  0  0  0  0  0  0  0  0  0  0
  -27.1834  -11.3286   18.5805 C   0  0  0  0  0  0  0  0  0  0  0  0
  -25.4805  -13.4027   17.8425 C   0  0  0  0  0  0  0  0  0  0  0  0
  -22.3106  -19.5641   19.6604 C   0  0  0  0  0  0  0  0  0  0  0  0
  -29.3143  -25.4956   19.6254 C   0  0  0  0  0  0  0  0  0  0  0  0
  -27.4175  -24.1396   18.9925 C   0  0  0  0  0  0  0  0  0  0  0  0
  -21.0440  -20.0917   19.9081 C   0  0  0  0  0  0  0  0  0  0  0  0
  -28.9223  -21.8871   21.0155 C   0  0  0  0  0  0  0  0  0  0  0  0
  -28.4933  -20.6779   21.5627 C   0  0  0  0  0  0  0  0  0  0  0  0
  -21.1111  -19.1873   22.1435 C   0  0  0  0  0  0  0  0  0  0  0  0
  -16.2786  -24.2396   20.2957 C   0  0  0  0  0  0  0  0  0  0  0  0
  -16.8920  -26.4297   21.1108 C   0  0  0  0  0  0  0  0  0  0  0  0
  -28.5692  -19.6600   19.3729 C   0  0  0  0  0  0  0  0  0  0  0  0
  -27.1098  -26.4781   19.5155 C   0  0  0  0  0  0  0  0  0  0  0  0
  -25.9046  -28.5594   18.6652 C   0  0  0  0  0  0  0  0  0  0  0  0
  -26.2926  -11.8575   19.5279 C   0  0  0  0  0  0  0  0  0  0  0  0
  -22.9834  -18.8336   20.6505 C   0  0  0  0  0  0  0  0  0  0  0  0
  -25.4232  -12.8998   19.1534 C   0  0  0  0  0  0  0  0  0  0  0  0
  -22.3871  -18.6537   21.9067 C   0  0  0  0  0  0  0  0  0  0  0  0
  -17.2748  -23.6664   21.0859 C   0  0  0  0  0  0  0  0  0  0  0  0
  -17.8882  -25.8565   21.9011 C   0  0  0  0  0  0  0  0  0  0  0  0
  -18.0796  -24.4748   21.8887 C   0  0  0  0  0  0  0  0  0  0  0  0
  -28.7846  -24.2641   19.2400 C   0  0  0  0  0  0  0  0  0  0  0  0
  -20.4429  -19.9008   21.1488 C   0  0  0  0  0  0  0  0  0  0  0  0
  -29.1747  -21.9828   19.6469 C   0  0  0  0  0  0  0  0  0  0  0  0
  -16.0872  -25.6213   20.3080 C   0  0  0  0  0  0  0  0  0  0  0  0
  -28.3167  -19.5644   20.7414 C   0  0  0  0  0  0  0  0  0  0  0  0
  -28.9982  -20.8692   18.8257 C   0  0  0  0  0  0  0  0  0  0  0  0
  -26.2442  -27.6212   19.6582 C   0  0  0  0  0  0  0  0  0  0  0  0
  -25.0624  -29.4403   19.2988 C   0  0  0  0  0  0  0  0  0  0  0  0
  -26.3136  -28.6286   17.2927 C   0  0  0  0  0  0  0  0  0  0  0  0
  -24.0460  -15.8485   20.9030 C   0  0  0  0  0  0  0  0  0  0  0  0
  -25.3186  -16.9496   23.6762 C   0  0  0  0  0  0  0  0  0  0  0  0
  -25.2132  -19.2398   26.2042 C   0  0  0  0  0  0  0  0  0  0  0  0
  -20.8913  -29.3261   23.4192 C   0  0  0  0  0  0  0  0  0  0  0  0
  -26.2481  -11.2433   20.9046 C   0  0  0  0  0  0  0  0  0  0  0  0
  -24.3604  -18.2939   20.3765 C   0  0  0  0  0  0  0  0  0  0  0  0
  -23.0761  -17.8945   23.0101 C   0  0  0  0  0  0  0  0  0  0  0  0
  -25.5306  -12.1107   21.9356 C   0  0  0  0  0  0  0  0  0  0  0  0
  -24.1729  -30.6880   23.9755 C   0  0  0  0  0  0  0  0  0  0  0  0
  -24.2140  -12.6336   21.3699 C   0  0  0  0  0  0  0  0  0  0  0  0
  -25.0248  -30.0857   22.8632 C   0  0  0  0  0  0  0  0  0  0  0  0
  -17.6854  -21.5037   19.7331 C   0  0  0  0  0  0  0  0  0  0  0  0
  -23.1067  -29.7037   24.4377 C   0  0  0  0  0  0  0  0  0  0  0  0
  -20.2876  -26.9679   22.4526 C   0  0  0  0  0  0  0  0  0  0  0  0
  -18.6738  -28.3294   22.6405 C   0  0  0  0  0  0  0  0  0  0  0  0
  -23.0279  -28.6572   22.1899 C   0  0  0  0  0  0  0  0  0  0  0  0
  -17.4598  -22.1850   21.0567 C   0  0  1  0  0  0  0  0  0  0  0  0
  -18.7900  -26.7965   22.8046 C   0  0  0  0  0  0  0  0  0  0  0  0
  -24.4542  -13.5160   20.1390 C   0  0  1  0  0  0  0  0  0  0  0  0
  -24.7365  -17.1273   21.2847 C   0  0  1  0  0  0  0  0  0  0  0  0
  -24.1370  -29.6112   21.7038 C   0  0  2  0  0  0  0  0  0  0  0  0
  -18.8163  -21.6266   20.7080 C   0  0  1  0  0  0  0  0  0  1  0  0
  -19.1496  -23.8654   22.7376 C   0  0  0  0  0  0  0  0  0  0  0  0
  -26.3592  -19.8610   28.3485 C   0  0  0  0  0  0  0  0  0  0  0  0
  -23.9219  -14.6345   25.0904 C   0  0  0  0  0  0  0  0  0  0  0  0
  -24.2974  -15.8252   27.2606 C   0  0  0  0  0  0  0  0  0  0  0  0
  -26.2475  -15.0936   25.8877 C   0  0  0  0  0  0  0  0  0  0  0  0
  -25.9903  -21.8957   25.1547 C   0  0  0  0  0  0  0  0  0  0  0  0
  -14.9745  -27.5991   19.5968 C   0  0  0  0  0  0  0  0  0  0  0  0
  -24.8442  -17.0460   25.1061 C   0  0  1  0  0  0  0  0  0  0  0  0
  -26.3004  -20.0832   26.8452 C   0  0  2  0  0  0  0  0  0  0  0  0
  -24.8137  -15.6625   25.8150 C   0  0  0  0  0  0  0  0  0  0  0  0
  -25.6653  -27.8816   20.8333 N   0  0  0  0  0  0  0  0  0  0  0  0
  -24.9534  -28.9936   20.5828 N   0  0  0  0  0  0  0  0  0  0  0  0
  -24.4185  -17.3808   22.6914 N   0  0  0  0  0  0  0  0  0  0  0  0
  -22.2835  -29.2192   23.3255 N   0  0  0  0  0  0  0  0  0  0  0  0
  -20.1222  -28.3689   22.8005 N   0  0  0  0  0  0  0  0  0  0  0  0
  -24.4120  -30.5456   18.8772 N   0  0  0  0  0  0  0  0  0  0  0  0
  -27.1821  -27.6431   16.8040 N   0  0  0  0  0  0  0  0  0  0  0  0
  -24.9072  -14.8306   20.5403 N   0  0  0  0  0  0  0  0  0  0  0  0
  -25.7023  -18.0313   25.7553 N   0  0  0  0  0  0  0  0  0  0  0  0
  -26.0493  -21.5305   26.5935 N   0  3  0  0  0  0  0  0  0  0  0  0
  -25.9336  -29.5466   16.5270 O   0  0  0  0  0  0  0  0  0  0  0  0
  -22.8224  -15.7893   20.9366 O   0  0  0  0  0  0  0  0  0  0  0  0
  -26.4489  -16.5146   23.4421 O   0  0  0  0  0  0  0  0  0  0  0  0
  -24.0459  -19.6139   26.1142 O   0  0  0  0  0  0  0  0  0  0  0  0
  -20.3477  -30.2338   24.0624 O   0  0  0  0  0  0  0  0  0  0  0  0
  -29.6014  -23.1837   19.1053 O   0  0  0  0  0  0  0  0  0  0  0  0
  -19.1886  -20.4216   21.3965 O   0  0  0  0  0  0  0  0  0  1  0  0
  -15.1158  -26.1806   19.5361 O   0  0  0  0  0  0  0  0  0  0  0  0
  -27.9062  -18.4029   21.2673 F   0  0  0  0  0  0  0  0  0  0  0  0
  -29.2403  -20.9547   17.5104 F   0  0  0  0  0  0  0  0  0  0  0  0
  1  2  1  0  0  0  0
  1  5  2  0  0  0  0
  2  6  2  0  0  0  0
  3  8  2  0  0  0  0
  3 17  1  0  0  0  0
  4  9  1  0  0  0  0
  4 17  2  0  0  0  0
  5 19  1  0  0  0  0
  6 21  1  0  0  0  0
  7 10  2  0  0  0  0
  7 20  1  0  0  0  0
  8 26  1  0  0  0  0
  9 26  2  0  0  0  0
 10 27  1  0  0  0  0
 11 12  2  0  0  0  0
 11 28  1  0  0  0  0
 12 30  1  0  0  0  0
 13 22  1  0  0  0  0
 13 27  2  0  0  0  0
 14 23  1  0  0  0  0
 14 29  2  0  0  0  0
 15 24  2  0  0  0  0
 15 29  1  0  0  0  0
 16 30  2  0  0  0  0
 16 31  1  0  0  0  0
 17 32  1  0  0  0  0
 18 32  1  0  0  0  0
 18 33  2  0  0  0  0
 18 34  1  0  0  0  0
 19 21  2  0  0  0  0
 19 39  1  0  0  0  0
 20 22  2  0  0  0  0
 20 40  1  0  0  0  0
 21 53  1  0  0  0  0
 22 41  1  0  0  0  0
 23 25  2  0  0  0  0
 23 51  1  0  0  0  0
 24 25  1  0  0  0  0
 24 52  1  0  0  0  0
 25 57  1  0  0  0  0
 26 82  1  0  0  0  0
 27 83  1  0  0  0  0
 28 31  2  0  0  0  0
 28 82  1  0  0  0  0
 29 84  1  0  0  0  0
 30 85  1  0  0  0  0
 31 86  1  0  0  0  0
 32 67  2  0  0  0  0
 33 68  1  0  0  0  0
 33 72  1  0  0  0  0
 34 73  1  0  0  0  0
 34 77  2  0  0  0  0
 35 54  1  0  0  0  0
 35 74  1  0  0  0  0
 35 78  2  0  0  0  0
 36 64  1  0  0  0  0
 36 69  1  0  0  0  0
 36 79  2  0  0  0  0
 37 65  1  0  0  0  0
 37 75  1  0  0  0  0
 37 80  2  0  0  0  0
 38 70  1  0  0  0  0
 38 71  1  0  0  0  0
 38 81  2  0  0  0  0
 39 42  1  0  0  0  0
 40 54  1  0  0  0  0
 41 69  1  0  0  0  0
 42 44  1  0  0  0  0
 43 45  1  0  0  0  0
 43 47  1  0  0  0  0
 44 53  1  0  0  0  0
 45 55  1  0  0  0  0
 46 51  1  0  0  0  0
 46 56  1  0  0  0  0
 47 70  1  0  0  0  0
 48 52  1  0  0  0  0
 48 71  1  0  0  0  0
 49 52  1  0  0  0  0
 49 71  1  0  0  0  0
 50 55  1  0  0  0  0
 50 70  1  0  0  0  0
 51 56  1  0  0  0  0
 53 74  1  0  0  0  0
 54 69  1  0  0  0  0
 55 68  1  0  0  0  0
 56 83  1  0  0  0  0
 58 65  1  0  0  0  0
 59 66  1  0  0  0  0
 60 66  1  0  0  0  0
 61 66  1  0  0  0  0
 62 76  1  0  0  0  0
 63 84  1  0  0  0  0
 64 66  1  0  0  0  0
 64 75  1  0  0  0  0
 65 76  1  0  0  0  0
 67 68  1  0  0  0  0
M  CHG  1  76   1
M  ISO  4  38 100  56 101  71 100  83 101
M  END
> <Batch ID>
0148

> <Smiles>
CNC(C)C(=O)NC(C(=O)N1Cc2cc([101O:1][101CH:1]3CC3c3cc(OC)cc(C4C[100N:0]([100C:0](=O)N5CCCC(n6nc(-c7ccc(Oc8ccc(F)cc8F)cc7)c(C(N)=O)c6N)C5)C4)c3C)ccc2CC1C(=O)NC1CCCc2ccccc21)C(C)(C)C

> <Shape>
0.201

> <Color>
0.079

> <Negative vol penalty>
0.000

$$$$

  -OEChem-04052321363D

 87 95  0     1  0  0  0  0  0999 V2000
  -29.5837  -11.4050   18.9393 C   0  0  0  0  0  0  0  0  0  0  0  0
  -28.2140  -11.4556   19.1776 C   0  0  0  0  0  0  0  0  0  0  0  0
  -28.2416  -27.6152   21.2376 C   0  0  0  0  0  0  0  0  0  0  0  0
  -27.5495  -27.3117   18.9429 C   0  0  0  0  0  0  0  0  0  0  0  0
  -30.3907  -12.4881   19.2850 C   0  0  0  0  0  0  0  0  0  0  0  0
  -27.6507  -12.5890   19.7629 C   0  0  0  0  0  0  0  0  0  0  0  0
  -21.6434  -16.4912   19.7251 C   0  0  0  0  0  0  0  0  0  0  0  0
  -29.3597  -26.8140   21.0064 C   0  0  0  0  0  0  0  0  0  0  0  0
  -28.6677  -26.5104   18.7116 C   0  0  0  0  0  0  0  0  0  0  0  0
  -20.6958  -17.0182   20.6015 C   0  0  0  0  0  0  0  0  0  0  0  0
  -31.9671  -26.9500   18.1276 C   0  0  0  0  0  0  0  0  0  0  0  0
  -32.6941  -27.1763   16.9590 C   0  0  0  0  0  0  0  0  0  0  0  0
  -22.1762  -18.8607   21.0843 C   0  0  0  0  0  0  0  0  0  0  0  0
  -19.5382  -22.5812   19.7244 C   0  0  0  0  0  0  0  0  0  0  0  0
  -32.2590  -24.9083   16.2490 C   0  0  0  0  0  0  0  0  0  0  0  0
  -27.3365  -27.8640   20.2059 C   0  0  0  0  0  0  0  0  0  0  0  0
  -26.0878  -30.0871   20.2875 C   0  0  0  0  0  0  0  0  0  0  0  0
  -29.8356  -13.6392   19.8659 C   0  0  0  0  0  0  0  0  0  0  0  0
  -22.8709  -17.1403   19.5296 C   0  0  0  0  0  0  0  0  0  0  0  0
  -28.4512  -13.6880   20.1179 C   0  0  0  0  0  0  0  0  0  0  0  0
  -23.1365  -18.3412   20.2029 C   0  0  0  0  0  0  0  0  0  0  0  0
  -19.8294  -23.7493   19.0200 C   0  0  0  0  0  0  0  0  0  0  0  0
  -17.5583  -23.8204   18.1989 C   0  0  0  0  0  0  0  0  0  0  0  0
  -18.8395  -24.3690   18.2572 C   0  0  0  0  0  0  0  0  0  0  0  0
  -17.2671  -22.6522   18.9033 C   0  0  0  0  0  0  0  0  0  0  0  0
  -29.5728  -26.2616   19.7434 C   0  0  0  0  0  0  0  0  0  0  0  0
  -20.9633  -18.2016   21.2835 C   0  0  0  0  0  0  0  0  0  0  0  0
  -31.3860  -25.7028   18.3570 C   0  0  0  0  0  0  0  0  0  0  0  0
  -18.2570  -22.0326   19.6660 C   0  0  0  0  0  0  0  0  0  0  0  0
  -32.8401  -26.1555   16.0197 C   0  0  0  0  0  0  0  0  0  0  0  0
  -31.5320  -24.6820   17.4177 C   0  0  0  0  0  0  0  0  0  0  0  0
  -26.1810  -28.6912   20.4442 C   0  0  0  0  0  0  0  0  0  0  0  0
  -24.7938  -30.3862   20.6373 C   0  0  0  0  0  0  0  0  0  0  0  0
  -27.0821  -31.0290   19.8634 C   0  0  0  0  0  0  0  0  0  0  0  0
  -25.9165  -16.3748   20.0216 C   0  0  0  0  0  0  0  0  0  0  0  0
  -26.4633  -19.1987   18.5220 C   0  0  0  0  0  0  0  0  0  0  0  0
  -25.3084  -22.2918   17.6586 C   0  0  0  0  0  0  0  0  0  0  0  0
  -19.7285  -27.1934   20.6395 C   0  0  0  0  0  0  0  0  0  0  0  0
  -30.7549  -14.7660   20.2659 C   0  0  0  0  0  0  0  0  0  0  0  0
  -23.8716  -16.5730   18.5604 C   0  0  0  0  0  0  0  0  0  0  0  0
  -24.4308  -19.0875   20.0126 C   0  0  0  0  0  0  0  0  0  0  0  0
  -30.0259  -16.0792   20.5384 C   0  0  0  0  0  0  0  0  0  0  0  0
  -21.2160  -28.8502   23.4178 C   0  0  0  0  0  0  0  0  0  0  0  0
  -28.8044  -15.8388   21.4198 C   0  0  0  0  0  0  0  0  0  0  0  0
  -22.6488  -29.1232   22.9566 C   0  0  0  0  0  0  0  0  0  0  0  0
  -20.7007  -27.5108   22.8957 C   0  0  0  0  0  0  0  0  0  0  0  0
  -22.2414  -27.6054   20.9745 C   0  0  0  0  0  0  0  0  0  0  0  0
  -27.7993  -14.9097   20.7282 C   0  0  1  0  0  0  0  0  0  0  0  0
  -25.2971  -17.0457   18.8283 C   0  0  1  0  0  0  0  0  0  0  0  0
  -22.7851  -28.9705   21.4297 C   0  0  2  0  0  0  0  0  0  0  0  0
  -21.2096  -24.3151   19.0987 C   0  0  0  0  0  0  0  0  0  0  0  0
  -16.4959  -24.4847   17.3811 C   0  0  0  0  0  0  0  0  0  0  0  0
  -15.8957  -22.0579   18.8455 C   0  0  0  0  0  0  0  0  0  0  0  0
  -25.9971  -24.3894   16.4656 C   0  0  0  0  0  0  0  0  0  0  0  0
  -18.7625  -28.1207   17.4019 C   0  0  0  0  0  0  0  0  0  0  0  0
  -28.1758  -19.9963   20.9181 C   0  0  0  0  0  0  0  0  0  0  0  0
  -28.0431  -22.3704   20.1343 C   0  0  0  0  0  0  0  0  0  0  0  0
  -29.1247  -20.6427   18.6963 C   0  0  0  0  0  0  0  0  0  0  0  0
  -23.1401  -22.0079   15.6644 C   0  0  0  0  0  0  0  0  0  0  0  0
  -19.1548  -25.6222   17.5034 C   0  0  0  0  0  0  0  0  0  0  0  0
  -17.7824  -19.6002   22.3916 C   0  0  0  0  0  0  0  0  0  0  0  0
  -18.6345  -18.4601   21.8563 C   0  0  0  0  0  0  0  0  0  1  0  0
  -18.1663  -20.9357   21.7742 C   0  0  0  0  0  0  0  0  0  0  0  0
  -26.6109  -20.6340   18.9661 C   0  0  1  0  0  0  0  0  0  0  0  0
  -25.3150  -23.0364   16.3357 C   0  0  2  0  0  0  0  0  0  0  0  0
  -18.9020  -26.9081   18.3168 C   0  0  1  0  0  0  0  0  0  0  0  0
  -27.9649  -20.8960   19.6840 C   0  0  0  0  0  0  0  0  0  0  0  0
  -25.0373  -28.1416   20.8613 N   0  0  0  0  0  0  0  0  0  0  0  0
  -24.2132  -29.1977   20.9697 N   0  0  0  0  0  0  0  0  0  0  0  0
  -25.3799  -18.4893   19.0593 N   0  0  0  0  0  0  0  0  0  0  0  0
  -20.8571  -27.4306   21.4414 N   0  0  0  0  0  0  0  0  0  0  0  0
  -24.1072  -31.5474   20.6900 N   0  0  0  0  0  0  0  0  0  0  0  0
  -28.3602  -30.5522   19.5418 N   0  0  0  0  0  0  0  0  0  0  0  0
  -27.0461  -15.6351   19.7278 N   0  0  0  0  0  0  0  0  0  0  0  0
  -26.3962  -21.4530   17.7780 N   0  0  0  0  0  0  0  0  0  0  0  0
  -19.9636  -27.1385   19.2711 N   0  0  0  0  0  0  0  0  0  0  0  0
  -23.9205  -23.2570   15.8585 N   0  3  0  0  0  0  0  0  0  0  0  0
  -26.8489  -32.2593   19.7882 O   0  0  0  0  0  0  0  0  0  0  0  0
  -25.4081  -16.5188   21.1272 O   0  0  0  0  0  0  0  0  0  0  0  0
  -27.2752  -18.7266   17.7222 O   0  0  0  0  0  0  0  0  0  0  0  0
  -24.4284  -22.4423   18.5033 O   0  0  0  0  0  0  0  0  0  0  0  0
  -18.5944  -27.0471   21.1079 O   0  0  0  0  0  0  0  0  0  0  0  0
  -30.6638  -25.4799   19.5174 O   0  0  0  0  0  0  0  0  0  0  0  0
  -20.0405  -18.7179   22.1401 O   0  0  0  0  0  0  0  0  0  1  0  0
  -17.9897  -20.8842   20.3649 O   0  0  0  0  0  0  0  0  0  0  0  0
  -33.5370  -26.3735   14.8967 F   0  0  0  0  0  0  0  0  0  0  0  0
  -30.9750  -23.4821   17.6321 F   0  0  0  0  0  0  0  0  0  0  0  0
  1  2  1  0  0  0  0
  1  5  2  0  0  0  0
  2  6  2  0  0  0  0
  3  8  2  0  0  0  0
  3 16  1  0  0  0  0
  4  9  1  0  0  0  0
  4 16  2  0  0  0  0
  5 18  1  0  0  0  0
  6 20  1  0  0  0  0
  7 10  2  0  0  0  0
  7 19  1  0  0  0  0
  8 26  1  0  0  0  0
  9 26  2  0  0  0  0
 10 27  1  0  0  0  0
 11 12  2  0  0  0  0
 11 28  1  0  0  0  0
 12 30  1  0  0  0  0
 13 21  1  0  0  0  0
 13 27  2  0  0  0  0
 14 22  2  0  0  0  0
 14 29  1  0  0  0  0
 15 30  2  0  0  0  0
 15 31  1  0  0  0  0
 16 32  1  0  0  0  0
 17 32  1  0  0  0  0
 17 33  2  0  0  0  0
 17 34  1  0  0  0  0
 18 20  2  0  0  0  0
 18 39  1  0  0  0  0
 19 21  2  0  0  0  0
 19 40  1  0  0  0  0
 20 48  1  0  0  0  0
 21 41  1  0  0  0  0
 22 24  1  0  0  0  0
 22 51  1  0  0  0  0
 23 24  2  0  0  0  0
 23 25  1  0  0  0  0
 23 52  1  0  0  0  0
 24 60  1  0  0  0  0
 25 29  2  0  0  0  0
 25 53  1  0  0  0  0
 26 83  1  0  0  0  0
 27 84  1  0  0  0  0
 28 31  2  0  0  0  0
 28 83  1  0  0  0  0
 29 85  1  0  0  0  0
 30 86  1  0  0  0  0
 31 87  1  0  0  0  0
 32 68  2  0  0  0  0
 33 69  1  0  0  0  0
 33 72  1  0  0  0  0
 34 73  1  0  0  0  0
 34 78  2  0  0  0  0
 35 49  1  0  0  0  0
 35 74  1  0  0  0  0
 35 79  2  0  0  0  0
 36 64  1  0  0  0  0
 36 70  1  0  0  0  0
 36 80  2  0  0  0  0
 37 65  1  0  0  0  0
 37 75  1  0  0  0  0
 37 81  2  0  0  0  0
 38 71  1  0  0  0  0
 38 76  1  0  0  0  0
 38 82  2  0  0  0  0
 39 42  1  0  0  0  0
 40 49  1  0  0  0  0
 41 70  1  0  0  0  0
 42 44  1  0  0  0  0
 43 45  1  0  0  0  0
 43 46  1  0  0  0  0
 44 48  1  0  0  0  0
 45 50  1  0  0  0  0
 46 71  1  0  0  0  0
 47 50  1  0  0  0  0
 47 71  1  0  0  0  0
 48 74  1  0  0  0  0
 49 70  1  0  0  0  0
 50 69  1  0  0  0  0
 54 65  1  0  0  0  0
 55 66  1  0  0  0  0
 56 67  1  0  0  0  0
 57 67  1  0  0  0  0
 58 67  1  0  0  0  0
 59 77  1  0  0  0  0
 60 66  1  0  0  0  0
 61 62  1  0  0  0  0
 61 63  1  0  0  0  0
 62 84  1  0  0  0  0
 63 85  1  0  0  0  0
 64 67  1  0  0  0  0
 64 75  1  0  0  0  0
 65 77  1  0  0  0  0
 66 76  1  0  0  0  0
 68 69  1  0  0  0  0
M  CHG  1  77   1
M  ISO  4  38 100  62 101  76 100  84 101
M  END
> <Batch ID>
0148

> <Smiles>
CNC(C)C(=O)NC(C(=O)N1Cc2cc([101O:1][101CH2:1]CCOc3cc(C)c(CC(C)[100NH:0][100C:0](=O)N4CCCC(n5nc(-c6ccc(Oc7ccc(F)cc7F)cc6)c(C(N)=O)c5N)C4)c(C)c3C)ccc2CC1C(=O)NC1CCCc2ccccc21)C(C)(C)C

> <Shape>
0.212

> <Color>
0.048

> <Negative vol penalty>
0.000

$$$$

  -OEChem-04052321363D

 87 96  0     1  0  0  0  0  0999 V2000
  -16.9638  -28.1151   22.9879 C   0  0  0  0  0  0  0  0  0  0  0  0
  -17.9693  -27.6497   22.1466 C   0  0  0  0  0  0  0  0  0  0  0  0
  -23.1764   -9.2524   20.7339 C   0  0  0  0  0  0  0  0  0  0  0  0
  -23.1428  -10.7185   22.6540 C   0  0  0  0  0  0  0  0  0  0  0  0
  -17.2191  -29.1746   23.8575 C   0  0  0  0  0  0  0  0  0  0  0  0
  -19.2303  -28.2442   22.1736 C   0  0  0  0  0  0  0  0  0  0  0  0
  -24.6266  -25.4711   21.3392 C   0  0  0  0  0  0  0  0  0  0  0  0
  -28.7761  -19.7849   19.4876 C   0  0  0  0  0  0  0  0  0  0  0  0
  -22.4050   -8.3223   21.4306 C   0  0  0  0  0  0  0  0  0  0  0  0
  -22.3713   -9.7884   23.3507 C   0  0  0  0  0  0  0  0  0  0  0  0
  -25.4624  -25.3601   20.2289 C   0  0  0  0  0  0  0  0  0  0  0  0
  -20.7465   -5.4045   22.8303 C   0  0  0  0  0  0  0  0  0  0  0  0
  -21.1254   -4.0639   22.7616 C   0  0  0  0  0  0  0  0  0  0  0  0
  -28.4829  -18.4595   19.7886 C   0  0  0  0  0  0  0  0  0  0  0  0
  -26.7548  -27.2364   21.0218 C   0  0  0  0  0  0  0  0  0  0  0  0
  -23.2664   -4.6192   23.7336 C   0  0  0  0  0  0  0  0  0  0  0  0
  -23.5453  -10.4505   21.3456 C   0  0  0  0  0  0  0  0  0  0  0  0
  -23.8785  -12.4640   19.8151 C   0  0  0  0  0  0  0  0  0  0  0  0
  -18.4867  -29.7761   23.9021 C   0  0  0  0  0  0  0  0  0  0  0  0
  -24.8424  -26.4741   22.2952 C   0  0  0  0  0  0  0  0  0  0  0  0
  -19.5024  -29.3136   23.0437 C   0  0  0  0  0  0  0  0  0  0  0  0
  -30.0931  -20.1637   19.2526 C   0  0  0  0  0  0  0  0  0  0  0  0
  -25.9218  -27.3563   22.1447 C   0  0  0  0  0  0  0  0  0  0  0  0
  -22.0024   -8.5902   22.7390 C   0  0  0  0  0  0  0  0  0  0  0  0
  -26.5249  -26.2446   20.0685 C   0  0  0  0  0  0  0  0  0  0  0  0
  -21.6275   -6.3525   23.3507 C   0  0  0  0  0  0  0  0  0  0  0  0
  -22.3854   -3.6712   23.2132 C   0  0  0  0  0  0  0  0  0  0  0  0
  -22.8875   -5.9599   23.8023 C   0  0  0  0  0  0  0  0  0  0  0  0
  -24.3426  -11.4115   20.6267 C   0  0  0  0  0  0  0  0  0  0  0  0
  -31.0726  -19.1868   19.3302 C   0  0  0  0  0  0  0  0  0  0  0  0
  -29.5345  -17.5588   19.8419 C   0  0  0  0  0  0  0  0  0  0  0  0
  -25.0207  -13.0803   19.3656 C   0  0  0  0  0  0  0  0  0  0  0  0
  -22.5351  -12.8501   19.4962 C   0  0  0  0  0  0  0  0  0  0  0  0
  -23.1664  -28.9564   23.3596 C   0  0  0  0  0  0  0  0  0  0  0  0
  -25.6072  -29.1967   25.4827 C   0  0  0  0  0  0  0  0  0  0  0  0
  -28.8703  -28.5363   26.2327 C   0  0  0  0  0  0  0  0  0  0  0  0
  -30.1155  -15.1427   20.2558 C   0  0  0  0  0  0  0  0  0  0  0  0
  -18.7013  -30.9495   24.8250 C   0  0  0  0  0  0  0  0  0  0  0  0
  -23.9479  -26.5636   23.5011 C   0  0  0  0  0  0  0  0  0  0  0  0
  -26.2086  -28.4378   23.1529 C   0  0  0  0  0  0  0  0  0  0  0  0
  -20.1734  -31.2791   25.0590 C   0  0  0  0  0  0  0  0  0  0  0  0
  -29.8665  -11.6440   19.6444 C   0  0  0  0  0  0  0  0  0  0  0  0
  -20.9341  -31.2923   23.7370 C   0  0  0  0  0  0  0  0  0  0  0  0
  -28.3690  -11.3582   19.7787 C   0  0  0  0  0  0  0  0  0  0  0  0
  -29.7074  -22.0121   17.6334 C   0  0  0  0  0  0  0  0  0  0  0  0
  -30.0050  -22.5026   20.0946 C   0  0  0  0  0  0  0  0  0  0  0  0
  -30.3346  -12.6984   20.6458 C   0  0  0  0  0  0  0  0  0  0  0  0
  -28.0722  -13.6660   20.7651 C   0  0  0  0  0  0  0  0  0  0  0  0
  -29.9492  -23.4832   17.3208 C   0  0  0  0  0  0  0  0  0  0  0  0
  -30.2449  -23.9700   19.7631 C   0  0  0  0  0  0  0  0  0  0  0  0
  -30.4155  -21.5871   18.9299 C   0  0  0  0  0  0  0  0  0  0  0  0
  -20.8904  -29.9163   23.0615 C   0  0  1  0  0  0  0  0  0  0  0  0
  -23.9519  -27.9458   24.1467 C   0  0  1  0  0  0  0  0  0  0  0  0
  -27.5410  -12.6574   19.7334 C   0  0  2  0  0  0  0  0  0  0  0  0
  -32.5044  -19.5373   19.0883 C   0  0  0  0  0  0  0  0  0  0  0  0
  -30.5900  -28.8903   28.0256 C   0  0  0  0  0  0  0  0  0  0  0  0
  -31.0622  -26.2110   18.3272 C   0  0  0  0  0  0  0  0  0  0  0  0
  -25.9118  -32.1054   24.6127 C   0  0  0  0  0  0  0  0  0  0  0  0
  -28.1714  -32.1184   25.6908 C   0  0  0  0  0  0  0  0  0  0  0  0
  -26.1335  -31.7241   27.0744 C   0  0  0  0  0  0  0  0  0  0  0  0
  -29.2133  -25.6251   26.6404 C   0  0  0  0  0  0  0  0  0  0  0  0
  -28.6980  -26.5506   19.1520 C   0  0  0  0  0  0  0  0  0  1  0  0
  -26.9370  -29.9108   25.5065 C   0  0  1  0  0  0  0  0  0  0  0  0
  -29.5209  -27.9585   27.4766 C   0  0  2  0  0  0  0  0  0  0  0  0
  -29.6067  -25.7948   18.1891 C   0  0  2  0  0  0  0  0  0  0  0  0
  -26.7821  -31.4456   25.7009 C   0  0  0  0  0  0  0  0  0  0  0  0
  -25.6758  -11.3590   20.6907 N   0  0  0  0  0  0  0  0  0  0  0  0
  -30.8264  -17.8895   19.6198 N   0  0  0  0  0  0  0  0  0  0  0  0
  -26.0591  -12.3863   19.9136 N   0  0  0  0  0  0  0  0  0  0  0  0
  -25.3018  -28.4887   24.3117 N   0  0  0  0  0  0  0  0  0  0  0  0
  -29.5072  -13.9023   20.5425 N   0  0  0  0  0  0  0  0  0  0  0  0
  -25.2281  -14.1427   18.5589 N   0  0  0  0  0  0  0  0  0  0  0  0
  -21.4791  -12.1085   20.0430 N   0  0  0  0  0  0  0  0  0  0  0  0
  -29.2251  -16.2107   20.1495 N   0  0  0  0  0  0  0  0  0  0  0  0
  -21.8270  -29.0126   23.6944 N   0  0  0  0  0  0  0  0  0  0  0  0
  -27.7339  -29.2552   26.5377 N   0  0  0  0  0  0  0  0  0  0  0  0
  -29.5090  -24.3374   18.4914 N   0  3  0  0  0  0  0  0  0  0  0  0
  -30.1552  -26.6459   27.1673 N   0  3  0  0  0  0  0  0  0  0  0  0
  -22.2789  -13.8139   18.7352 O   0  0  0  0  0  0  0  0  0  0  0  0
  -23.7340  -29.6359   22.5123 O   0  0  0  0  0  0  0  0  0  0  0  0
  -24.8697  -29.2588   26.4695 O   0  0  0  0  0  0  0  0  0  0  0  0
  -29.3267  -28.3698   25.1038 O   0  0  0  0  0  0  0  0  0  0  0  0
  -31.3335  -15.2448   20.0881 O   0  0  0  0  0  0  0  0  0  0  0  0
  -21.2495   -7.6830   23.4190 O   0  0  0  0  0  0  0  0  0  0  0  0
  -27.3419  -26.1390   18.9853 O   0  0  0  0  0  0  0  0  0  1  0  0
  -22.7486   -2.3836   23.1486 F   0  0  0  0  0  0  0  0  0  0  0  0
  -23.7377   -6.8659   24.3043 F   0  0  0  0  0  0  0  0  0  0  0  0
  1  2  1  0  0  0  0
  1  5  2  0  0  0  0
  2  6  2  0  0  0  0
  3  9  2  0  0  0  0
  3 17  1  0  0  0  0
  4 10  1  0  0  0  0
  4 17  2  0  0  0  0
  5 19  1  0  0  0  0
  6 21  1  0  0  0  0
  7 11  2  0  0  0  0
  7 20  1  0  0  0  0
  8 14  2  0  0  0  0
  8 22  1  0  0  0  0
  9 24  1  0  0  0  0
 10 24  2  0  0  0  0
 11 25  1  0  0  0  0
 12 13  2  0  0  0  0
 12 26  1  0  0  0  0
 13 27  1  0  0  0  0
 14 31  1  0  0  0  0
 15 23  1  0  0  0  0
 15 25  2  0  0  0  0
 16 27  2  0  0  0  0
 16 28  1  0  0  0  0
 17 29  1  0  0  0  0
 18 29  1  0  0  0  0
 18 32  2  0  0  0  0
 18 33  1  0  0  0  0
 19 21  2  0  0  0  0
 19 38  1  0  0  0  0
 20 23  2  0  0  0  0
 20 39  1  0  0  0  0
 21 52  1  0  0  0  0
 22 30  2  0  0  0  0
 22 51  1  0  0  0  0
 23 40  1  0  0  0  0
 24 84  1  0  0  0  0
 25 85  1  0  0  0  0
 26 28  2  0  0  0  0
 26 84  1  0  0  0  0
 27 86  1  0  0  0  0
 28 87  1  0  0  0  0
 29 67  2  0  0  0  0
 30 55  1  0  0  0  0
 30 68  1  0  0  0  0
 31 68  2  0  0  0  0
 31 74  1  0  0  0  0
 32 69  1  0  0  0  0
 32 72  1  0  0  0  0
 33 73  1  0  0  0  0
 33 79  2  0  0  0  0
 34 53  1  0  0  0  0
 34 75  1  0  0  0  0
 34 80  2  0  0  0  0
 35 63  1  0  0  0  0
 35 70  1  0  0  0  0
 35 81  2  0  0  0  0
 36 64  1  0  0  0  0
 36 76  1  0  0  0  0
 36 82  2  0  0  0  0
 37 71  1  0  0  0  0
 37 74  1  0  0  0  0
 37 83  2  0  0  0  0
 38 41  1  0  0  0  0
 39 53  1  0  0  0  0
 40 70  1  0  0  0  0
 41 43  1  0  0  0  0
 42 44  1  0  0  0  0
 42 47  1  0  0  0  0
 43 52  1  0  0  0  0
 44 54  1  0  0  0  0
 45 49  1  0  0  0  0
 45 51  1  0  0  0  0
 46 50  1  0  0  0  0
 46 51  1  0  0  0  0
 47 71  1  0  0  0  0
 48 54  1  0  0  0  0
 48 71  1  0  0  0  0
 49 77  1  0  0  0  0
 50 77  1  0  0  0  0
 52 75  1  0  0  0  0
 53 70  1  0  0  0  0
 54 69  1  0  0  0  0
 56 64  1  0  0  0  0
 57 65  1  0  0  0  0
 58 66  1  0  0  0  0
 59 66  1  0  0  0  0
 60 66  1  0  0  0  0
 61 78  1  0  0  0  0
 62 65  1  0  0  0  0
 62 85  1  0  0  0  0
 63 66  1  0  0  0  0
 63 76  1  0  0  0  0
 64 78  1  0  0  0  0
 65 77  1  0  0  0  0
 67 69  1  0  0  0  0
M  CHG  2  77   1  78   1
M  ISO  4  37 100  62 101  74 100  85 101
M  END
> <Batch ID>
0148

> <Smiles>
CNC(C)C(=O)NC(C(=O)N1Cc2cc([101O:1][101CH2:1]C(C)N3CCC(c4ccc([100NH:0][100C:0](=O)N5CCCC(n6nc(-c7ccc(Oc8ccc(F)cc8F)cc7)c(C(N)=O)c6N)C5)nc4C)CC3)ccc2CC1C(=O)NC1CCCc2ccccc21)C(C)(C)C

> <Shape>
0.344

> <Color>
0.120

> <Negative vol penalty>
0.000

$$$$

  -OEChem-04052321363D

 86 95  0     1  0  0  0  0  0999 V2000
  -22.0861  -23.5049   19.7766 C   0  0  0  0  0  0  0  0  0  0  0  0
  -23.2979  -22.8709   20.0316 C   0  0  0  0  0  0  0  0  0  0  0  0
  -21.6580  -28.4972   20.7207 C   0  0  0  0  0  0  0  0  0  0  0  0
  -22.3080  -27.4580   22.8027 C   0  0  0  0  0  0  0  0  0  0  0  0
  -20.8909  -22.9079   20.1750 C   0  0  0  0  0  0  0  0  0  0  0  0
  -23.3151  -21.6398   20.6863 C   0  0  0  0  0  0  0  0  0  0  0  0
  -26.4585  -18.3229   18.5041 C   0  0  0  0  0  0  0  0  0  0  0  0
  -20.4398  -27.8192   20.7626 C   0  0  0  0  0  0  0  0  0  0  0  0
  -21.0897  -26.7800   22.8446 C   0  0  0  0  0  0  0  0  0  0  0  0
  -27.8205  -18.4713   18.7627 C   0  0  0  0  0  0  0  0  0  0  0  0
  -17.0109  -26.6394   20.5058 C   0  0  0  0  0  0  0  0  0  0  0  0
  -15.8553  -27.3637   20.2135 C   0  0  0  0  0  0  0  0  0  0  0  0
  -27.6945  -16.7090   20.4050 C   0  0  0  0  0  0  0  0  0  0  0  0
  -28.7859  -19.6184   23.0338 C   0  0  0  0  0  0  0  0  0  0  0  0
  -30.2897  -21.4624   22.6836 C   0  0  0  0  0  0  0  0  0  0  0  0
  -16.3166  -28.8467   22.0642 C   0  0  0  0  0  0  0  0  0  0  0  0
  -22.5922  -28.3166   21.7408 C   0  0  0  0  0  0  0  0  0  0  0  0
  -24.1386  -30.2829   22.2405 C   0  0  0  0  0  0  0  0  0  0  0  0
  -20.8929  -21.6643   20.8263 C   0  0  0  0  0  0  0  0  0  0  0  0
  -25.7008  -17.3722   19.2030 C   0  0  0  0  0  0  0  0  0  0  0  0
  -22.1188  -21.0262   21.0950 C   0  0  0  0  0  0  0  0  0  0  0  0
  -26.3237  -16.5487   20.1516 C   0  0  0  0  0  0  0  0  0  0  0  0
  -30.0324  -20.0965   22.6452 C   0  0  0  0  0  0  0  0  0  0  0  0
  -20.1556  -26.9606   21.8245 C   0  0  0  0  0  0  0  0  0  0  0  0
  -28.4381  -17.6663   19.7153 C   0  0  0  0  0  0  0  0  0  0  0  0
  -17.8194  -27.0187   21.5774 C   0  0  0  0  0  0  0  0  0  0  0  0
  -15.5081  -28.4673   20.9927 C   0  0  0  0  0  0  0  0  0  0  0  0
  -17.4723  -28.1223   22.3566 C   0  0  0  0  0  0  0  0  0  0  0  0
  -23.8511  -29.0162   21.6978 C   0  0  0  0  0  0  0  0  0  0  0  0
  -27.8385  -20.5401   23.4495 C   0  0  0  0  0  0  0  0  0  0  0  0
  -29.2749  -22.3016   23.1147 C   0  0  0  0  0  0  0  0  0  0  0  0
  -25.4606  -30.4954   21.9348 C   0  0  0  0  0  0  0  0  0  0  0  0
  -23.2868  -31.1867   22.9570 C   0  0  0  0  0  0  0  0  0  0  0  0
  -23.2135  -17.4980   21.1781 C   0  0  0  0  0  0  0  0  0  0  0  0
  -23.3581  -14.2661   20.9412 C   0  0  0  0  0  0  0  0  0  0  0  0
  -25.2308  -11.4904   20.2816 C   0  0  0  0  0  0  0  0  0  0  0  0
  -30.0308  -26.7948   20.8080 C   0  0  0  0  0  0  0  0  0  0  0  0
  -19.5784  -21.0804   21.2802 C   0  0  0  0  0  0  0  0  0  0  0  0
  -24.2383  -17.2062   18.8932 C   0  0  0  0  0  0  0  0  0  0  0  0
  -25.5591  -15.4992   20.9147 C   0  0  0  0  0  0  0  0  0  0  0  0
  -19.6605  -19.5979   21.6346 C   0  0  0  0  0  0  0  0  0  0  0  0
  -28.7806  -29.3622   18.6814 C   0  0  0  0  0  0  0  0  0  0  0  0
  -20.8772  -19.3257   22.5135 C   0  0  0  0  0  0  0  0  0  0  0  0
  -27.4014  -29.6789   19.2623 C   0  0  0  0  0  0  0  0  0  0  0  0
  -31.0854  -17.7476   22.7717 C   0  0  0  0  0  0  0  0  0  0  0  0
  -32.1406  -18.7206   23.1960 C   0  0  0  0  0  0  0  0  0  0  0  0
  -29.1056  -27.8733   18.7788 C   0  0  0  0  0  0  0  0  0  0  0  0
  -27.5990  -27.6155   20.7121 C   0  0  0  0  0  0  0  0  0  0  0  0
  -22.1771  -19.6784   21.7806 C   0  0  1  0  0  0  0  0  0  0  0  0
  -23.4563  -16.5579   20.0315 C   0  0  1  0  0  0  0  0  0  0  0  0
  -27.2497  -29.1134   20.6873 C   0  0  2  0  0  0  0  0  0  0  0  0
  -31.0885  -19.1495   22.1892 C   0  0  0  0  0  0  0  0  0  0  0  0
  -26.4902  -20.0628   23.8751 C   0  0  0  0  0  0  0  0  0  0  0  0
  -25.0828   -8.9864   20.2066 C   0  0  0  0  0  0  0  0  0  0  0  0
  -23.4487  -14.1719   23.9897 C   0  0  0  0  0  0  0  0  0  0  0  0
  -24.2451  -11.8041   23.8233 C   0  0  0  0  0  0  0  0  0  0  0  0
  -21.9993  -12.4282   22.9347 C   0  0  0  0  0  0  0  0  0  0  0  0
  -25.9008  -11.4212   17.3997 C   0  0  0  0  0  0  0  0  0  0  0  0
  -31.5125  -19.3123   20.7601 C   0  0  0  0  0  0  0  0  0  0  0  0
  -30.8132  -24.2340   22.7609 C   0  0  0  0  0  0  0  0  0  0  0  0
  -30.8165  -25.7471   22.9161 C   0  0  0  0  0  0  0  0  0  0  0  0
  -30.3523  -19.1321   19.7902 C   0  0  0  0  0  0  0  0  0  1  0  0
  -24.0733  -13.1700   21.6935 C   0  0  1  0  0  0  0  0  0  0  0  0
  -24.9606  -10.2766   19.4108 C   0  0  2  0  0  0  0  0  0  0  0  0
  -23.4559  -12.9145   23.0975 C   0  0  0  0  0  0  0  0  0  0  0  0
  -24.9056  -28.4629   21.0930 N   0  0  0  0  0  0  0  0  0  0  0  0
  -28.0517  -21.8741   23.5001 N   0  0  0  0  0  0  0  0  0  0  0  0
  -25.8687  -29.3864   21.2538 N   0  0  0  0  0  0  0  0  0  0  0  0
  -24.1302  -15.3796   20.5808 N   0  0  0  0  0  0  0  0  0  0  0  0
  -28.9440  -27.4001   20.1558 N   0  0  0  0  0  0  0  0  0  0  0  0
  -26.3023  -31.5209   22.1848 N   0  0  0  0  0  0  0  0  0  0  0  0
  -21.9556  -30.8116   23.1845 N   0  0  0  0  0  0  0  0  0  0  0  0
  -29.5523  -23.6909   23.1483 N   0  0  0  0  0  0  0  0  0  0  0  0
  -22.5193  -18.6413   20.8310 N   0  0  0  0  0  0  0  0  0  0  0  0
  -24.0685  -12.0034   20.8175 N   0  0  0  0  0  0  0  0  0  0  0  0
  -29.7945  -26.3808   22.1131 N   0  0  0  0  0  0  0  0  0  0  0  0
  -25.9295  -10.2246   18.2797 N   0  3  0  0  0  0  0  0  0  0  0  0
  -23.6895  -32.3011   23.3686 O   0  0  0  0  0  0  0  0  0  0  0  0
  -23.6242  -17.2071   22.2954 O   0  0  0  0  0  0  0  0  0  0  0  0
  -22.1603  -14.1360   20.6767 O   0  0  0  0  0  0  0  0  0  0  0  0
  -26.3603  -11.9364   20.4708 O   0  0  0  0  0  0  0  0  0  0  0  0
  -31.1320  -26.6401   20.2690 O   0  0  0  0  0  0  0  0  0  0  0  0
  -18.9668  -26.2990   21.8659 O   0  0  0  0  0  0  0  0  0  0  0  0
  -29.7671  -17.8096   19.9702 O   0  0  0  0  0  0  0  0  0  1  0  0
  -14.3991  -29.1637   20.7109 F   0  0  0  0  0  0  0  0  0  0  0  0
  -18.2457  -28.4922   23.3865 F   0  0  0  0  0  0  0  0  0  0  0  0
  1  2  1  0  0  0  0
  1  5  2  0  0  0  0
  2  6  2  0  0  0  0
  3  8  2  0  0  0  0
  3 17  1  0  0  0  0
  4  9  1  0  0  0  0
  4 17  2  0  0  0  0
  5 19  1  0  0  0  0
  6 21  1  0  0  0  0
  7 10  2  0  0  0  0
  7 20  1  0  0  0  0
  8 24  1  0  0  0  0
  9 24  2  0  0  0  0
 10 25  1  0  0  0  0
 11 12  2  0  0  0  0
 11 26  1  0  0  0  0
 12 27  1  0  0  0  0
 13 22  1  0  0  0  0
 13 25  2  0  0  0  0
 14 23  1  0  0  0  0
 14 30  2  0  0  0  0
 15 23  2  0  0  0  0
 15 31  1  0  0  0  0
 16 27  2  0  0  0  0
 16 28  1  0  0  0  0
 17 29  1  0  0  0  0
 18 29  1  0  0  0  0
 18 32  2  0  0  0  0
 18 33  1  0  0  0  0
 19 21  2  0  0  0  0
 19 38  1  0  0  0  0
 20 22  2  0  0  0  0
 20 39  1  0  0  0  0
 21 49  1  0  0  0  0
 22 40  1  0  0  0  0
 23 52  1  0  0  0  0
 24 83  1  0  0  0  0
 25 84  1  0  0  0  0
 26 28  2  0  0  0  0
 26 83  1  0  0  0  0
 27 85  1  0  0  0  0
 28 86  1  0  0  0  0
 29 66  2  0  0  0  0
 30 53  1  0  0  0  0
 30 67  1  0  0  0  0
 31 67  2  0  0  0  0
 31 73  1  0  0  0  0
 32 68  1  0  0  0  0
 32 71  1  0  0  0  0
 33 72  1  0  0  0  0
 33 78  2  0  0  0  0
 34 50  1  0  0  0  0
 34 74  1  0  0  0  0
 34 79  2  0  0  0  0
 35 63  1  0  0  0  0
 35 69  1  0  0  0  0
 35 80  2  0  0  0  0
 36 64  1  0  0  0  0
 36 75  1  0  0  0  0
 36 81  2  0  0  0  0
 37 70  1  0  0  0  0
 37 76  1  0  0  0  0
 37 82  2  0  0  0  0
 38 41  1  0  0  0  0
 39 50  1  0  0  0  0
 40 69  1  0  0  0  0
 41 43  1  0  0  0  0
 42 44  1  0  0  0  0
 42 47  1  0  0  0  0
 43 49  1  0  0  0  0
 44 51  1  0  0  0  0
 45 46  1  0  0  0  0
 45 52  1  0  0  0  0
 46 52  1  0  0  0  0
 47 70  1  0  0  0  0
 48 51  1  0  0  0  0
 48 70  1  0  0  0  0
 49 74  1  0  0  0  0
 50 69  1  0  0  0  0
 51 68  1  0  0  0  0
 52 59  1  0  0  0  0
 54 64  1  0  0  0  0
 55 65  1  0  0  0  0
 56 65  1  0  0  0  0
 57 65  1  0  0  0  0
 58 77  1  0  0  0  0
 59 62  1  0  0  0  0
 60 61  1  0  0  0  0
 60 73  1  0  0  0  0
 61 76  1  0  0  0  0
 62 84  1  0  0  0  0
 63 65  1  0  0  0  0
 63 75  1  0  0  0  0
 64 77  1  0  0  0  0
 66 68  1  0  0  0  0
M  CHG  1  77   1
M  ISO  4  37 100  62 101  76 100  84 101
M  END
> <Batch ID>
0148

> <Smiles>
CNC(C)C(=O)NC(C(=O)N1Cc2cc([101O:1][101CH2:1]CC3(c4cc(C)nc(NCC[100NH:0][100C:0](=O)N5CCCC(n6nc(-c7ccc(Oc8ccc(F)cc8F)cc7)c(C(N)=O)c6N)C5)c4)CC3)ccc2CC1C(=O)NC1CCCc2ccccc21)C(C)(C)C

> <Shape>
0.228

> <Color>
0.070

> <Negative vol penalty>
0.000

$$$$

  -OEChem-04052321363D

 87 97  0     1  0  0  0  0  0999 V2000
  -27.1784  -11.3999   23.4937 C   0  0  0  0  0  0  0  0  0  0  0  0
  -27.9033  -12.5328   23.1381 C   0  0  0  0  0  0  0  0  0  0  0  0
  -19.3035  -28.2996   23.7614 C   0  0  0  0  0  0  0  0  0  0  0  0
  -20.6216  -27.1307   22.1082 C   0  0  0  0  0  0  0  0  0  0  0  0
  -26.0532  -11.0338   22.7564 C   0  0  0  0  0  0  0  0  0  0  0  0
  -27.5038  -13.2998   22.0442 C   0  0  0  0  0  0  0  0  0  0  0  0
  -27.9457  -19.3793   21.4525 C   0  0  0  0  0  0  0  0  0  0  0  0
  -18.1380  -27.9499   23.0795 C   0  0  0  0  0  0  0  0  0  0  0  0
  -19.4561  -26.7809   21.4263 C   0  0  0  0  0  0  0  0  0  0  0  0
  -28.8759  -20.1938   20.8082 C   0  0  0  0  0  0  0  0  0  0  0  0
  -16.9876  -24.4926   21.7274 C   0  0  0  0  0  0  0  0  0  0  0  0
  -16.8670  -23.1747   21.2870 C   0  0  0  0  0  0  0  0  0  0  0  0
  -27.4399  -20.2923   18.8724 C   0  0  0  0  0  0  0  0  0  0  0  0
  -30.1442  -25.0313   18.6074 C   0  0  0  0  0  0  0  0  0  0  0  0
  -16.6847  -23.9532   19.0071 C   0  0  0  0  0  0  0  0  0  0  0  0
  -28.2592  -24.5588   19.9789 C   0  0  0  0  0  0  0  0  0  0  0  0
  -20.5453  -27.8901   23.2758 C   0  0  0  0  0  0  0  0  0  0  0  0
  -22.3875  -27.5241   25.0020 C   0  0  0  0  0  0  0  0  0  0  0  0
  -25.6341  -11.8020   21.6588 C   0  0  0  0  0  0  0  0  0  0  0  0
  -26.7586  -19.0055   20.8063 C   0  0  0  0  0  0  0  0  0  0  0  0
  -26.3727  -12.9429   21.2907 C   0  0  0  0  0  0  0  0  0  0  0  0
  -26.4951  -19.4750   19.5116 C   0  0  0  0  0  0  0  0  0  0  0  0
  -30.3105  -23.6639   18.4175 C   0  0  0  0  0  0  0  0  0  0  0  0
  -18.2143  -27.1905   21.9120 C   0  0  0  0  0  0  0  0  0  0  0  0
  -28.6244  -20.6481   19.5169 C   0  0  0  0  0  0  0  0  0  0  0  0
  -16.9566  -25.5410   20.8077 C   0  0  0  0  0  0  0  0  0  0  0  0
  -29.1017  -25.4953   19.4020 C   0  0  0  0  0  0  0  0  0  0  0  0
  -16.7156  -22.9049   19.9269 C   0  0  0  0  0  0  0  0  0  0  0  0
  -16.8053  -25.2712   19.4476 C   0  0  0  0  0  0  0  0  0  0  0  0
  -21.7496  -28.2515   23.9794 C   0  0  0  0  0  0  0  0  0  0  0  0
  -29.4142  -22.8091   19.0386 C   0  0  0  0  0  0  0  0  0  1  0  0
  -23.4811  -28.2857   25.3343 C   0  0  0  0  0  0  0  0  0  0  0  0
  -22.0240  -26.2719   25.5983 C   0  0  0  0  0  0  0  0  0  0  0  0
  -25.4736  -16.2444   19.8962 C   0  0  0  0  0  0  0  0  0  0  0  0
  -22.9375  -18.1206   19.1409 C   0  0  0  0  0  0  0  0  0  0  0  0
  -21.7696  -21.2202   18.3193 C   0  0  0  0  0  0  0  0  0  0  0  0
  -26.7668  -32.2258   22.4895 C   0  0  0  0  0  0  0  0  0  0  0  0
  -24.4389  -11.3401   20.8633 C   0  0  0  0  0  0  0  0  0  0  0  0
  -25.7532  -18.1482   21.5251 C   0  0  0  0  0  0  0  0  0  0  0  0
  -25.2265  -19.1191   18.7819 C   0  0  0  0  0  0  0  0  0  0  0  0
  -23.8648  -12.4167   19.9459 C   0  0  0  0  0  0  0  0  0  0  0  0
  -25.0214  -32.8090   25.4166 C   0  0  0  0  0  0  0  0  0  0  0  0
  -31.5503  -23.6485   16.1511 C   0  0  0  0  0  0  0  0  0  0  0  0
  -31.1066  -22.2429   16.4112 C   0  0  0  0  0  0  0  0  0  0  0  0
  -24.9818  -13.1110   19.1734 C   0  0  0  0  0  0  0  0  0  0  0  0
  -24.0414  -31.6385   25.4940 C   0  0  0  0  0  0  0  0  0  0  0  0
  -28.4549  -29.1724   21.2432 C   0  0  0  0  0  0  0  0  0  0  0  0
  -26.1728  -29.3336   20.1873 C   0  0  0  0  0  0  0  0  0  0  0  0
  -25.1356  -33.3319   23.9891 C   0  0  0  0  0  0  0  0  0  0  0  0
  -28.4170  -30.6745   21.5103 C   0  0  0  0  0  0  0  0  0  0  0  0
  -26.1803  -30.8325   20.4691 C   0  0  0  0  0  0  0  0  0  0  0  0
  -24.5621  -31.1128   23.0607 C   0  0  0  0  0  0  0  0  0  0  0  0
  -31.4235  -23.1541   17.5691 C   0  0  0  0  0  0  0  0  0  0  0  0
  -25.9566  -13.8144   20.1256 C   0  0  1  0  0  0  0  0  0  0  0  0
  -24.8129  -17.4089   20.5782 C   0  0  1  0  0  0  0  0  0  0  0  0
  -27.5992  -28.7902   20.0285 C   0  0  0  0  0  0  0  0  0  0  0  0
  -24.4136  -30.5385   24.4840 C   0  0  2  0  0  0  0  0  0  0  0  0
  -20.0941  -23.0168   17.8070 C   0  0  0  0  0  0  0  0  0  0  0  0
  -23.0303  -16.9046   16.3440 C   0  0  0  0  0  0  0  0  0  0  0  0
  -21.5783  -18.7850   15.5540 C   0  0  0  0  0  0  0  0  0  0  0  0
  -20.7292  -17.1958   17.2791 C   0  0  0  0  0  0  0  0  0  0  0  0
  -21.4897  -21.9357   21.1774 C   0  0  0  0  0  0  0  0  0  0  0  0
  -27.5848  -27.2767   19.8277 C   0  0  0  0  0  0  0  0  0  0  0  0
  -22.5004  -18.8844   17.9143 C   0  0  1  0  0  0  0  0  0  0  0  0
  -20.5968  -22.0271   18.8465 C   0  0  2  0  0  0  0  0  0  0  0  0
  -21.9844  -17.9477   16.7856 C   0  0  0  0  0  0  0  0  0  0  0  0
  -28.3891  -23.2228   19.8168 N   0  0  0  0  0  0  0  0  0  0  0  0
  -22.3850  -29.3880   23.6817 N   0  0  0  0  0  0  0  0  0  0  0  0
  -23.4335  -29.3805   24.5223 N   0  0  0  0  0  0  0  0  0  0  0  0
  -24.2774  -18.2732   19.5244 N   0  0  0  0  0  0  0  0  0  0  0  0
  -25.4856  -32.2571   23.0607 N   0  0  0  0  0  0  0  0  0  0  0  0
  -27.0435  -31.1659   21.6101 N   0  0  0  0  0  0  0  0  0  0  0  0
  -24.4692  -28.1191   26.2389 N   0  0  0  0  0  0  0  0  0  0  0  0
  -20.8701  -25.6228   25.1383 N   0  0  0  0  0  0  0  0  0  0  0  0
  -25.3900  -15.0585   20.6006 N   0  0  0  0  0  0  0  0  0  0  0  0
  -21.5215  -19.8649   18.3713 N   0  0  0  0  0  0  0  0  0  0  0  0
  -20.9968  -22.7873   20.0644 N   0  3  0  0  0  0  0  0  0  0  0  0
  -22.6933  -25.7522   26.5232 O   0  0  0  0  0  0  0  0  0  0  0  0
  -26.0176  -16.4092   18.8106 O   0  0  0  0  0  0  0  0  0  0  0  0
  -22.1183  -17.4202   19.7410 O   0  0  0  0  0  0  0  0  0  0  0  0
  -22.8010  -21.7404   17.8997 O   0  0  0  0  0  0  0  0  0  0  0  0
  -27.6150  -33.0879   22.7509 O   0  0  0  0  0  0  0  0  0  0  0  0
  -17.0773  -26.8489   21.2465 O   0  0  0  0  0  0  0  0  0  0  0  0
  -29.5438  -21.4541   18.8765 O   0  0  0  0  0  0  0  0  0  1  0  0
  -28.9131  -26.8398   19.6079 O   0  0  0  0  0  0  0  0  0  0  0  0
  -16.6014  -21.6392   19.5039 F   0  0  0  0  0  0  0  0  0  0  0  0
  -16.7760  -26.2741   18.5592 F   0  0  0  0  0  0  0  0  0  0  0  0
  1  2  1  0  0  0  0
  1  5  2  0  0  0  0
  2  6  2  0  0  0  0
  3  8  2  0  0  0  0
  3 17  1  0  0  0  0
  4  9  1  0  0  0  0
  4 17  2  0  0  0  0
  5 19  1  0  0  0  0
  6 21  1  0  0  0  0
  7 10  2  0  0  0  0
  7 20  1  0  0  0  0
  8 24  1  0  0  0  0
  9 24  2  0  0  0  0
 10 25  1  0  0  0  0
 11 12  2  0  0  0  0
 11 26  1  0  0  0  0
 12 28  1  0  0  0  0
 13 22  1  0  0  0  0
 13 25  2  0  0  0  0
 14 23  1  0  0  0  0
 14 27  2  0  0  0  0
 15 28  2  0  0  0  0
 15 29  1  0  0  0  0
 16 27  1  0  0  0  0
 16 67  2  0  0  0  0
 17 30  1  0  0  0  0
 18 30  1  0  0  0  0
 18 32  2  0  0  0  0
 18 33  1  0  0  0  0
 19 21  2  0  0  0  0
 19 38  1  0  0  0  0
 20 22  2  0  0  0  0
 20 39  1  0  0  0  0
 21 54  1  0  0  0  0
 22 40  1  0  0  0  0
 23 31  2  0  0  0  0
 23 53  1  0  0  0  0
 24 83  1  0  0  0  0
 25 84  1  0  0  0  0
 26 29  2  0  0  0  0
 26 83  1  0  0  0  0
 27 85  1  0  0  0  0
 28 86  1  0  0  0  0
 29 87  1  0  0  0  0
 30 68  2  0  0  0  0
 31 67  1  0  0  0  0
 31 84  1  0  0  0  0
 32 69  1  0  0  0  0
 32 73  1  0  0  0  0
 33 74  1  0  0  0  0
 33 78  2  0  0  0  0
 34 55  1  0  0  0  0
 34 75  1  0  0  0  0
 34 79  2  0  0  0  0
 35 64  1  0  0  0  0
 35 70  1  0  0  0  0
 35 80  2  0  0  0  0
 36 65  1  0  0  0  0
 36 76  1  0  0  0  0
 36 81  2  0  0  0  0
 37 71  1  0  0  0  0
 37 72  1  0  0  0  0
 37 82  2  0  0  0  0
 38 41  1  0  0  0  0
 39 55  1  0  0  0  0
 40 70  1  0  0  0  0
 41 45  1  0  0  0  0
 42 46  1  0  0  0  0
 42 49  1  0  0  0  0
 43 44  1  0  0  0  0
 43 53  1  0  0  0  0
 44 53  1  0  0  0  0
 45 54  1  0  0  0  0
 46 57  1  0  0  0  0
 47 50  1  0  0  0  0
 47 56  1  0  0  0  0
 48 51  1  0  0  0  0
 48 56  1  0  0  0  0
 49 71  1  0  0  0  0
 50 72  1  0  0  0  0
 51 72  1  0  0  0  0
 52 57  1  0  0  0  0
 52 71  1  0  0  0  0
 54 75  1  0  0  0  0
 55 70  1  0  0  0  0
 56 63  1  0  0  0  0
 57 69  1  0  0  0  0
 58 65  1  0  0  0  0
 59 66  1  0  0  0  0
 60 66  1  0  0  0  0
 61 66  1  0  0  0  0
 62 77  1  0  0  0  0
 63 85  1  0  0  0  0
 64 66  1  0  0  0  0
 64 76  1  0  0  0  0
 65 77  1  0  0  0  0
 68 69  1  0  0  0  0
M  CHG  1  77   1
M  ISO  4  31 101  37 100  72 100  84 101
M  END
> <Batch ID>
0148

> <Smiles>
CNC(C)C(=O)NC(C(=O)N1Cc2cc([101O:1][101c:1]3ncc(OCC4CC[100N:0]([100C:0](=O)N5CCCC(n6nc(-c7ccc(Oc8ccc(F)cc8F)cc7)c(C(N)=O)c6N)C5)CC4)cc3C3CC3)ccc2CC1C(=O)NC1CCCc2ccccc21)C(C)(C)C

> <Shape>
0.237

> <Color>
0.082

> <Negative vol penalty>
0.000

$$$$

  -OEChem-04052321363D

 87 96  0     1  0  0  0  0  0999 V2000
  -27.0578  -35.1159   23.5344 C   0  0  0  0  0  0  0  0  0  0  0  0
  -27.4137  -33.7996   23.2584 C   0  0  0  0  0  0  0  0  0  0  0  0
  -26.1504  -13.1801   21.6958 C   0  0  0  0  0  0  0  0  0  0  0  0
  -26.5333  -13.4958   19.3313 C   0  0  0  0  0  0  0  0  0  0  0  0
  -25.7820  -35.4054   24.0166 C   0  0  0  0  0  0  0  0  0  0  0  0
  -26.4942  -32.7719   23.4656 C   0  0  0  0  0  0  0  0  0  0  0  0
  -26.3683  -29.4745   19.6241 C   0  0  0  0  0  0  0  0  0  0  0  0
  -25.7080  -11.8802   21.4506 C   0  0  0  0  0  0  0  0  0  0  0  0
  -26.0909  -12.1959   19.0861 C   0  0  0  0  0  0  0  0  0  0  0  0
  -27.3947  -28.5333   19.5590 C   0  0  0  0  0  0  0  0  0  0  0  0
  -24.1380   -8.6005   21.4075 C   0  0  0  0  0  0  0  0  0  0  0  0
  -22.9781   -8.1755   22.0554 C   0  0  0  0  0  0  0  0  0  0  0  0
  -25.9345  -26.8819   20.5387 C   0  0  0  0  0  0  0  0  0  0  0  0
  -21.7317   -9.9481   20.9870 C   0  0  0  0  0  0  0  0  0  0  0  0
  -26.5630  -13.9880   20.6361 C   0  0  0  0  0  0  0  0  0  0  0  0
  -28.3382  -15.7443   21.1571 C   0  0  0  0  0  0  0  0  0  0  0  0
  -24.8433  -34.3818   24.2206 C   0  0  0  0  0  0  0  0  0  0  0  0
  -25.1185  -29.1289   20.1580 C   0  0  0  0  0  0  0  0  0  0  0  0
  -25.2051  -33.0478   23.9522 C   0  0  0  0  0  0  0  0  0  0  0  0
  -24.8931  -27.8198   20.6072 C   0  0  0  0  0  0  0  0  0  0  0  0
  -25.6783  -11.3881   20.1458 C   0  0  0  0  0  0  0  0  0  0  0  0
  -27.1789  -27.2376   20.0190 C   0  0  0  0  0  0  0  0  0  0  0  0
  -24.0947   -9.6994   20.5493 C   0  0  0  0  0  0  0  0  0  0  0  0
  -21.7750   -8.8493   21.8451 C   0  0  0  0  0  0  0  0  0  0  0  0
  -22.8916  -10.3731   20.3391 C   0  0  0  0  0  0  0  0  0  0  0  0
  -27.0195  -15.3311   20.8886 C   0  0  0  0  0  0  0  0  0  0  0  0
  -28.2448  -17.1046   21.3228 C   0  0  0  0  0  0  0  0  0  0  0  0
  -29.5402  -14.9680   21.2486 C   0  0  0  0  0  0  0  0  0  0  0  0
  -23.3904  -30.1091   22.6393 C   0  0  0  0  0  0  0  0  0  0  0  0
  -21.1578  -28.1277   21.3698 C   0  0  0  0  0  0  0  0  0  0  0  0
  -20.4654  -25.4170   19.4154 C   0  0  0  0  0  0  0  0  0  0  0  0
  -24.3434  -21.1942   19.3466 C   0  0  0  0  0  0  0  0  0  0  0  0
  -23.4922  -34.7384   24.7881 C   0  0  0  0  0  0  0  0  0  0  0  0
  -24.0133  -30.1484   20.1966 C   0  0  0  0  0  0  0  0  0  0  0  0
  -23.5631  -27.3927   21.1704 C   0  0  0  0  0  0  0  0  0  0  0  0
  -22.4521  -33.6330   24.6251 C   0  0  0  0  0  0  0  0  0  0  0  0
  -25.1882  -20.5034   22.7356 C   0  0  0  0  0  0  0  0  0  0  0  0
  -23.0378  -32.2846   25.0320 C   0  0  0  0  0  0  0  0  0  0  0  0
  -25.8723  -19.1368   22.6708 C   0  0  0  0  0  0  0  0  0  0  0  0
  -28.3417  -21.6978   15.3598 C   0  0  0  0  0  0  0  0  0  0  0  0
  -27.0274  -23.6772   16.2252 C   0  0  0  0  0  0  0  0  0  0  0  0
  -27.6827  -21.8819   17.8342 C   0  0  0  0  0  0  0  0  0  0  0  0
  -24.0401  -20.6079   21.7342 C   0  0  0  0  0  0  0  0  0  0  0  0
  -25.0860  -18.9182   20.2765 C   0  0  0  0  0  0  0  0  0  0  0  0
  -28.5235  -20.1899   15.2785 C   0  0  0  0  0  0  0  0  0  0  0  0
  -28.2294  -24.5071   16.6561 C   0  0  0  0  0  0  0  0  0  0  0  0
  -26.1310  -19.8612   15.9146 C   0  0  0  0  0  0  0  0  0  0  0  0
  -24.2274  -31.9083   24.1404 C   0  0  1  0  0  0  0  0  0  0  0  0
  -22.9409  -29.8281   21.2333 C   0  0  1  0  0  0  0  0  0  0  0  0
  -25.9191  -21.3789   16.0045 C   0  0  2  0  0  0  0  0  0  0  0  0
  -26.2863  -18.7848   21.2293 C   0  0  2  0  0  0  0  0  0  0  0  0
  -28.8970  -22.7065   18.2974 C   0  0  2  0  0  0  0  0  0  0  0  0
  -27.2425  -22.1492   16.3712 C   0  0  2  0  0  0  0  0  0  0  0  0
  -29.1751  -22.4217   19.7743 C   0  0  0  0  0  0  0  0  0  0  0  0
  -18.5511  -24.0155   18.5976 C   0  0  0  0  0  0  0  0  0  0  0  0
  -23.4129  -21.4243   16.2048 C   0  0  0  0  0  0  0  0  0  0  0  0
  -20.9754  -26.7856   24.1040 C   0  0  0  0  0  0  0  0  0  0  0  0
  -19.8127  -24.8604   23.0040 C   0  0  0  0  0  0  0  0  0  0  0  0
  -18.7772  -27.1295   22.9620 C   0  0  0  0  0  0  0  0  0  0  0  0
  -21.0411  -26.0737   16.5877 C   0  0  0  0  0  0  0  0  0  0  0  0
  -29.7074  -25.1007   18.5481 C   0  0  0  0  0  0  0  0  0  0  0  0
  -29.1269  -26.4560   18.9008 C   0  0  0  0  0  0  0  0  0  1  0  0
  -20.8091  -26.6676   21.5302 C   0  0  1  0  0  0  0  0  0  0  0  0
  -19.4497  -25.2075   18.3069 C   0  0  2  0  0  0  0  0  0  0  0  0
  -24.7271  -21.6403   16.9356 C   0  0  1  0  0  0  0  0  0  0  0  0
  -20.1194  -26.3691   22.8913 C   0  0  0  0  0  0  0  0  0  0  0  0
  -26.1519  -16.3466   20.8832 N   0  0  0  0  0  0  0  0  0  0  0  0
  -26.9271  -17.4114   21.1504 N   0  0  0  0  0  0  0  0  0  0  0  0
  -22.5160  -28.4274   21.1929 N   0  0  0  0  0  0  0  0  0  0  0  0
  -24.4995  -20.2631   20.3866 N   0  0  0  0  0  0  0  0  0  0  0  0
  -29.1620  -18.0562   21.5976 N   0  0  0  0  0  0  0  0  0  0  0  0
  -29.4576  -13.5829   21.0511 N   0  0  0  0  0  0  0  0  0  0  0  0
  -23.7642  -31.4212   22.8587 N   0  0  0  0  0  0  0  0  0  0  0  0
  -20.0099  -26.3083   20.3638 N   0  0  0  0  0  0  0  0  0  0  0  0
  -24.8113  -20.7902   18.1022 N   0  0  0  0  0  0  0  0  0  0  0  0
  -27.2191  -19.5601   14.9443 N   0  3  0  0  0  0  0  0  0  0  0  0
  -28.5963  -24.1867   18.0892 N   0  3  1  0  0  0  0  0  0  0  0  0
  -20.1416  -24.9690   17.0087 N   0  3  0  0  0  0  0  0  0  0  0  0
  -30.6517  -15.4850   21.5143 O   0  0  0  0  0  0  0  0  0  0  0  0
  -23.3963  -29.2030   23.4642 O   0  0  0  0  0  0  0  0  0  0  0  0
  -20.2575  -28.9705   21.3933 O   0  0  0  0  0  0  0  0  0  0  0  0
  -21.5525  -24.8442   19.4397 O   0  0  0  0  0  0  0  0  0  0  0  0
  -23.8303  -22.3056   19.5157 O   0  0  0  0  0  0  0  0  0  0  0  0
  -25.2469  -10.1196   19.9062 O   0  0  0  0  0  0  0  0  0  0  0  0
  -28.1865  -26.3105   19.9568 O   0  0  0  0  0  0  0  0  0  1  0  0
  -20.6610   -8.4401   22.4662 F   0  0  0  0  0  0  0  0  0  0  0  0
  -22.8436  -11.4287   19.5149 F   0  0  0  0  0  0  0  0  0  0  0  0
  1  2  1  0  0  0  0
  1  5  2  0  0  0  0
  2  6  2  0  0  0  0
  3  8  2  0  0  0  0
  3 15  1  0  0  0  0
  4  9  1  0  0  0  0
  4 15  2  0  0  0  0
  5 17  1  0  0  0  0
  6 19  1  0  0  0  0
  7 10  2  0  0  0  0
  7 18  1  0  0  0  0
  8 21  1  0  0  0  0
  9 21  2  0  0  0  0
 10 22  1  0  0  0  0
 11 12  2  0  0  0  0
 11 23  1  0  0  0  0
 12 24  1  0  0  0  0
 13 20  1  0  0  0  0
 13 22  2  0  0  0  0
 14 24  2  0  0  0  0
 14 25  1  0  0  0  0
 15 26  1  0  0  0  0
 16 26  1  0  0  0  0
 16 27  2  0  0  0  0
 16 28  1  0  0  0  0
 17 19  2  0  0  0  0
 17 33  1  0  0  0  0
 18 20  2  0  0  0  0
 18 34  1  0  0  0  0
 19 48  1  0  0  0  0
 20 35  1  0  0  0  0
 21 84  1  0  0  0  0
 22 85  1  0  0  0  0
 23 25  2  0  0  0  0
 23 84  1  0  0  0  0
 24 86  1  0  0  0  0
 25 87  1  0  0  0  0
 26 67  2  0  0  0  0
 27 68  1  0  0  0  0
 27 71  1  0  0  0  0
 28 72  1  0  0  0  0
 28 79  2  0  0  0  0
 29 49  1  0  0  0  0
 29 73  1  0  0  0  0
 29 80  2  0  0  0  0
 30 63  1  0  0  0  0
 30 69  1  0  0  0  0
 30 81  2  0  0  0  0
 31 64  1  0  0  0  0
 31 74  1  0  0  0  0
 31 82  2  0  0  0  0
 32 70  1  0  0  0  0
 32 75  1  0  0  0  0
 32 83  2  0  0  0  0
 33 36  1  0  0  0  0
 34 49  1  0  0  0  0
 35 69  1  0  0  0  0
 36 38  1  0  0  0  0
 37 39  1  0  0  0  0
 37 43  1  0  0  0  0
 38 48  1  0  0  0  0
 39 51  1  0  0  0  0
 40 45  1  0  0  0  0
 40 53  1  0  0  0  0
 41 46  1  0  0  0  0
 41 53  1  0  0  0  0
 42 52  1  0  0  0  0
 42 53  1  0  0  0  0
 43 70  1  0  0  0  0
 44 51  1  0  0  0  0
 44 70  1  0  0  0  0
 45 76  1  0  0  0  0
 46 77  1  0  0  0  0
 47 50  1  0  0  0  0
 47 76  1  0  0  0  0
 48 73  1  0  0  0  0
 49 69  1  0  0  0  0
 50 53  1  0  0  0  0
 50 65  1  0  0  0  0
 51 68  1  0  0  0  0
 52 54  1  0  0  0  0
 52 77  1  0  0  0  0
 55 64  1  0  0  0  0
 56 65  1  0  0  0  0
 57 66  1  0  0  0  0
 58 66  1  0  0  0  0
 59 66  1  0  0  0  0
 60 78  1  0  0  0  0
 61 62  1  0  0  0  0
 61 77  1  0  0  0  0
 62 85  1  0  0  0  0
 63 66  1  0  0  0  0
 63 74  1  0  0  0  0
 64 78  1  0  0  0  0
 65 75  1  0  0  0  0
 67 68  1  0  0  0  0
M  CHG  3  76   1  77   1  78   1
M  ISO  4  32 100  62 101  75 100  85 101
M  END
> <Batch ID>
0148

> <Smiles>
CNC(C)C(=O)NC(C(=O)N1Cc2cc([101O:1][101CH2:1]CN3CCC4(CCNCC4C(C)[100NH:0][100C:0](=O)N4CCCC(n5nc(-c6ccc(Oc7ccc(F)cc7F)cc6)c(C(N)=O)c5N)C4)CC3C)ccc2CC1C(=O)NC1CCCc2ccccc21)C(C)(C)C

> <Shape>
0.276

> <Color>
0.078

> <Negative vol penalty>
0.000

$$$$

  -OEChem-04052321363D

 89 98  0     1  0  0  0  0  0999 V2000
  -18.8637  -29.0193   23.3769 C   0  0  0  0  0  0  0  0  0  0  0  0
  -20.2424  -28.8341   23.3907 C   0  0  0  0  0  0  0  0  0  0  0  0
  -25.9322  -13.3628   21.6759 C   0  0  0  0  0  0  0  0  0  0  0  0
  -25.1212  -14.3486   19.6246 C   0  0  0  0  0  0  0  0  0  0  0  0
  -18.0524  -28.1528   22.6456 C   0  0  0  0  0  0  0  0  0  0  0  0
  -20.8106  -27.7815   22.6741 C   0  0  0  0  0  0  0  0  0  0  0  0
  -24.9115  -29.1992   20.0631 C   0  0  0  0  0  0  0  0  0  0  0  0
  -24.8925  -12.4336   21.6404 C   0  0  0  0  0  0  0  0  0  0  0  0
  -24.0815  -13.4195   19.5891 C   0  0  0  0  0  0  0  0  0  0  0  0
  -26.1007  -29.3463   20.7758 C   0  0  0  0  0  0  0  0  0  0  0  0
  -24.1767   -9.5573   20.0132 C   0  0  0  0  0  0  0  0  0  0  0  0
  -24.4900   -8.2236   20.2752 C   0  0  0  0  0  0  0  0  0  0  0  0
  -26.8202  -27.1742   20.0119 C   0  0  0  0  0  0  0  0  0  0  0  0
  -22.9762   -8.2379   22.1581 C   0  0  0  0  0  0  0  0  0  0  0  0
  -26.0465  -14.3203   20.6680 C   0  0  0  0  0  0  0  0  0  0  0  0
  -28.4000  -15.1471   20.1339 C   0  0  0  0  0  0  0  0  0  0  0  0
  -18.6117  -27.0948   21.9119 C   0  0  0  0  0  0  0  0  0  0  0  0
  -24.6626  -28.0318   19.3270 C   0  0  0  0  0  0  0  0  0  0  0  0
  -20.0059  -26.8992   21.9334 C   0  0  0  0  0  0  0  0  0  0  0  0
  -25.6282  -27.0158   19.2886 C   0  0  0  0  0  0  0  0  0  0  0  0
  -31.6226  -23.8727   20.0313 C   0  0  0  0  0  0  0  0  0  0  0  0
  -31.7084  -23.1188   21.2209 C   0  0  0  0  0  0  0  0  0  0  0  0
  -31.6702  -25.2767   20.0952 C   0  0  0  0  0  0  0  0  0  0  0  0
  -31.8574  -23.8069   22.4420 C   0  0  0  0  0  0  0  0  0  0  0  0
  -31.9066  -25.1997   22.4893 C   0  0  0  0  0  0  0  0  0  0  0  0
  -31.8101  -25.9350   21.3152 C   0  0  0  0  0  0  0  0  0  0  0  0
  -23.9672  -12.4619   20.5970 C   0  0  0  0  0  0  0  0  0  0  0  0
  -27.0540  -28.3325   20.7526 C   0  0  0  0  0  0  0  0  0  0  0  0
  -23.2632  -10.2314   20.8237 C   0  0  0  0  0  0  0  0  0  0  0  0
  -23.8898   -7.5639   21.3476 C   0  0  0  0  0  0  0  0  0  0  0  0
  -22.6630   -9.5716   21.8961 C   0  0  0  0  0  0  0  0  0  0  0  0
  -27.1200  -15.2808   20.7045 C   0  0  0  0  0  0  0  0  0  0  0  0
  -29.0391  -16.3223   20.4452 C   0  0  0  0  0  0  0  0  0  0  0  0
  -28.9612  -14.0580   19.3892 C   0  0  0  0  0  0  0  0  0  0  0  0
  -22.4737  -25.7300   19.4443 C   0  0  0  0  0  0  0  0  0  0  0  0
  -23.9370  -24.7361   16.7252 C   0  0  0  0  0  0  0  0  0  0  0  0
  -26.7521  -24.7021   14.7962 C   0  0  0  0  0  0  0  0  0  0  0  0
  -28.5862  -21.9229   20.4699 C   0  0  0  0  0  0  0  0  0  0  0  0
  -17.6902  -26.1556   21.1747 C   0  0  0  0  0  0  0  0  0  0  0  0
  -23.3864  -27.8999   18.5419 C   0  0  0  0  0  0  0  0  0  0  0  0
  -31.4742  -23.2174   18.6812 C   0  0  0  0  0  0  0  0  0  0  0  0
  -25.4181  -25.7516   18.4973 C   0  0  0  0  0  0  0  0  0  0  0  0
  -18.4037  -25.2899   20.1394 C   0  0  0  0  0  0  0  0  0  0  0  0
  -27.7587  -20.0504   23.6023 C   0  0  0  0  0  0  0  0  0  0  0  0
  -19.6740  -24.6876   20.7315 C   0  0  0  0  0  0  0  0  0  0  0  0
  -27.5565  -18.6405   23.0476 C   0  0  0  0  0  0  0  0  0  0  0  0
  -27.4469  -21.1080   22.5503 C   0  0  0  0  0  0  0  0  0  0  0  0
  -30.7909  -20.8740   20.2028 C   0  0  0  0  0  0  0  0  0  0  0  0
  -28.0038  -19.5474   20.7239 C   0  0  0  0  0  0  0  0  0  0  0  0
  -31.6440  -21.5945   21.2777 C   0  0  1  0  0  0  0  0  0  0  0  0
  -20.6618  -25.7838   21.1487 C   0  0  1  0  0  0  0  0  0  0  0  0
  -23.0162  -26.4506   18.2425 C   0  0  1  0  0  0  0  0  0  0  0  0
  -28.3430  -18.4448   21.7397 C   0  0  2  0  0  0  0  0  0  0  0  0
  -30.1012  -22.5376   18.4813 C   0  0  1  0  0  0  0  0  0  0  0  0
  -31.5563  -26.1146   18.8563 C   0  0  0  0  0  0  0  0  0  0  0  0
  -31.9682  -23.0647   23.7426 C   0  0  0  0  0  0  0  0  0  0  0  0
  -32.0617  -25.9049   23.8004 C   0  0  0  0  0  0  0  0  0  0  0  0
  -33.0594  -21.0069   21.3019 C   0  0  0  0  0  0  0  0  0  0  0  0
  -30.1402  -21.7087   17.1912 C   0  0  0  0  0  0  0  0  0  0  0  0
  -27.6565  -23.7739   12.6473 C   0  0  0  0  0  0  0  0  0  0  0  0
  -24.2431  -21.9993   18.0390 C   0  0  0  0  0  0  0  0  0  0  0  0
  -25.9418  -21.4275   16.2910 C   0  0  0  0  0  0  0  0  0  0  0  0
  -23.5909  -21.9308   15.6256 C   0  0  0  0  0  0  0  0  0  0  0  0
  -27.2141  -27.4069   13.6874 C   0  0  0  0  0  0  0  0  0  0  0  0
  -31.8549  -27.4301   21.3654 C   0  0  0  0  0  0  0  0  0  0  0  0
  -30.5523  -28.0806   21.8507 C   0  0  0  0  0  0  0  0  0  0  0  0
  -29.3691  -27.8168   20.9266 C   0  0  0  0  0  0  0  0  0  1  0  0
  -25.0879  -23.8126   16.4067 C   0  0  1  0  0  0  0  0  0  0  0  0
  -26.9600  -24.9505   13.3131 C   0  0  2  0  0  0  0  0  0  0  0  0
  -24.7194  -22.3154   16.6072 C   0  0  0  0  0  0  0  0  0  0  0  0
  -26.9541  -16.4487   21.3308 N   0  0  0  0  0  0  0  0  0  0  0  0
  -28.1382  -17.0597   21.1558 N   0  0  0  0  0  0  0  0  0  0  0  0
  -24.1516  -25.6670   17.7514 N   0  0  0  0  0  0  0  0  0  0  0  0
  -28.1896  -20.8752   21.3103 N   0  0  0  0  0  0  0  0  0  0  0  0
  -29.7203  -21.7101   19.6540 N   0  0  0  0  0  0  0  0  0  0  0  0
  -30.2782  -16.7866   20.1776 N   0  0  0  0  0  0  0  0  0  0  0  0
  -28.1671  -12.9261   19.1599 N   0  0  0  0  0  0  0  0  0  0  0  0
  -21.3467  -26.3147   19.9896 N   0  0  0  0  0  0  0  0  0  0  0  0
  -25.5165  -24.1464   15.0527 N   0  0  0  0  0  0  0  0  0  0  0  0
  -27.7919  -26.1690   13.1036 N   0  3  0  0  0  0  0  0  0  0  0  0
  -30.1376  -14.0810   18.9544 O   0  0  0  0  0  0  0  0  0  0  0  0
  -23.0352  -24.7176   19.8461 O   0  0  0  0  0  0  0  0  0  0  0  0
  -22.8887  -24.6400   16.0821 O   0  0  0  0  0  0  0  0  0  0  0  0
  -27.6023  -24.9706   15.6422 O   0  0  0  0  0  0  0  0  0  0  0  0
  -27.9182  -22.9633   20.3977 O   0  0  0  0  0  0  0  0  0  0  0  0
  -22.9526  -11.5553   20.5619 O   0  0  0  0  0  0  0  0  0  0  0  0
  -28.2235  -28.4742   21.4528 O   0  0  0  0  0  0  0  0  0  1  0  0
  -24.1895   -6.2827   21.5981 F   0  0  0  0  0  0  0  0  0  0  0  0
  -21.7837  -10.2136   22.6776 F   0  0  0  0  0  0  0  0  0  0  0  0
  1  2  1  0  0  0  0
  1  5  2  0  0  0  0
  2  6  2  0  0  0  0
  3  8  2  0  0  0  0
  3 15  1  0  0  0  0
  4  9  1  0  0  0  0
  4 15  2  0  0  0  0
  5 17  1  0  0  0  0
  6 19  1  0  0  0  0
  7 10  2  0  0  0  0
  7 18  1  0  0  0  0
  8 27  1  0  0  0  0
  9 27  2  0  0  0  0
 10 28  1  0  0  0  0
 11 12  2  0  0  0  0
 11 29  1  0  0  0  0
 12 30  1  0  0  0  0
 13 20  1  0  0  0  0
 13 28  2  0  0  0  0
 14 30  2  0  0  0  0
 14 31  1  0  0  0  0
 15 32  1  0  0  0  0
 16 32  1  0  0  0  0
 16 33  2  0  0  0  0
 16 34  1  0  0  0  0
 17 19  2  0  0  0  0
 17 39  1  0  0  0  0
 18 20  2  0  0  0  0
 18 40  1  0  0  0  0
 19 51  1  0  0  0  0
 20 42  1  0  0  0  0
 21 22  2  0  0  0  0
 21 23  1  0  0  0  0
 21 41  1  0  0  0  0
 22 24  1  0  0  0  0
 22 50  1  0  0  0  0
 23 26  2  0  0  0  0
 23 55  1  0  0  0  0
 24 25  2  0  0  0  0
 24 56  1  0  0  0  0
 25 26  1  0  0  0  0
 25 57  1  0  0  0  0
 26 65  1  0  0  0  0
 27 86  1  0  0  0  0
 28 87  1  0  0  0  0
 29 31  2  0  0  0  0
 29 86  1  0  0  0  0
 30 88  1  0  0  0  0
 31 89  1  0  0  0  0
 32 71  2  0  0  0  0
 33 72  1  0  0  0  0
 33 76  1  0  0  0  0
 34 77  1  0  0  0  0
 34 81  2  0  0  0  0
 35 52  1  0  0  0  0
 35 78  1  0  0  0  0
 35 82  2  0  0  0  0
 36 68  1  0  0  0  0
 36 73  1  0  0  0  0
 36 83  2  0  0  0  0
 37 69  1  0  0  0  0
 37 79  1  0  0  0  0
 37 84  2  0  0  0  0
 38 74  1  0  0  0  0
 38 75  1  0  0  0  0
 38 85  2  0  0  0  0
 39 43  1  0  0  0  0
 40 52  1  0  0  0  0
 41 54  1  0  0  0  0
 42 73  1  0  0  0  0
 43 45  1  0  0  0  0
 44 46  1  0  0  0  0
 44 47  1  0  0  0  0
 45 51  1  0  0  0  0
 46 53  1  0  0  0  0
 47 74  1  0  0  0  0
 48 50  1  0  0  0  0
 48 75  1  0  0  0  0
 49 53  1  0  0  0  0
 49 74  1  0  0  0  0
 50 58  1  0  0  0  0
 51 78  1  0  0  0  0
 52 73  1  0  0  0  0
 53 72  1  0  0  0  0
 54 59  1  0  0  0  0
 54 75  1  0  0  0  0
 60 69  1  0  0  0  0
 61 70  1  0  0  0  0
 62 70  1  0  0  0  0
 63 70  1  0  0  0  0
 64 80  1  0  0  0  0
 65 66  1  0  0  0  0
 66 67  1  0  0  0  0
 67 87  1  0  0  0  0
 68 70  1  0  0  0  0
 68 79  1  0  0  0  0
 69 80  1  0  0  0  0
 71 72  1  0  0  0  0
M  CHG  1  80   1
M  ISO  4  38 100  67 101  75 100  87 101
M  END
> <Batch ID>
0148

> <Smiles>
CNC(C)C(=O)NC(C(=O)N1Cc2cc([101O:1][101CH2:1]CCc3c(C)c(C)c4c(c3C)CC(C)[100N:0]([100C:0](=O)N3CCCC(n5nc(-c6ccc(Oc7ccc(F)cc7F)cc6)c(C(N)=O)c5N)C3)CC4C)ccc2CC1C(=O)NC1CCCc2ccccc21)C(C)(C)C

> <Shape>
0.261

> <Color>
0.072

> <Negative vol penalty>
0.000

$$$$

  -OEChem-04052321363D

 86 95  0     1  0  0  0  0  0999 V2000
  -28.2718  -34.4223   22.6576 C   0  0  0  0  0  0  0  0  0  0  0  0
  -28.1969  -33.1146   22.1889 C   0  0  0  0  0  0  0  0  0  0  0  0
  -22.1012  -13.2181   18.6826 C   0  0  0  0  0  0  0  0  0  0  0  0
  -24.3258  -13.5240   19.5740 C   0  0  0  0  0  0  0  0  0  0  0  0
  -27.3358  -34.8851   23.5816 C   0  0  0  0  0  0  0  0  0  0  0  0
  -27.1865  -32.2686   22.6447 C   0  0  0  0  0  0  0  0  0  0  0  0
  -25.0168  -29.6399   18.8994 C   0  0  0  0  0  0  0  0  0  0  0  0
  -22.5420  -12.1071   17.9637 C   0  0  0  0  0  0  0  0  0  0  0  0
  -24.7667  -12.4129   18.8551 C   0  0  0  0  0  0  0  0  0  0  0  0
  -25.7123  -28.5345   18.4113 C   0  0  0  0  0  0  0  0  0  0  0  0
  -26.3950   -9.4417   17.5365 C   0  0  0  0  0  0  0  0  0  0  0  0
  -27.2053   -8.5197   18.1987 C   0  0  0  0  0  0  0  0  0  0  0  0
  -24.3208  -27.0798   19.7404 C   0  0  0  0  0  0  0  0  0  0  0  0
  -25.4433   -8.1240   19.8037 C   0  0  0  0  0  0  0  0  0  0  0  0
  -22.9931  -13.9266   19.4878 C   0  0  0  0  0  0  0  0  0  0  0  0
  -22.0133  -15.0891   21.5363 C   0  0  0  0  0  0  0  0  0  0  0  0
  -26.3077  -34.0473   24.0416 C   0  0  0  0  0  0  0  0  0  0  0  0
  -23.9734  -29.4740   19.8214 C   0  0  0  0  0  0  0  0  0  0  0  0
  -26.2367  -32.7202   23.5767 C   0  0  0  0  0  0  0  0  0  0  0  0
  -23.6119  -28.1844   20.2366 C   0  0  0  0  0  0  0  0  0  0  0  0
  -23.8748  -11.7045   18.0500 C   0  0  0  0  0  0  0  0  0  0  0  0
  -25.3663  -27.2544   18.8340 C   0  0  0  0  0  0  0  0  0  0  0  0
  -25.1088   -9.7051   18.0078 C   0  0  0  0  0  0  0  0  0  0  0  0
  -26.7295   -7.8607   19.3324 C   0  0  0  0  0  0  0  0  0  0  0  0
  -24.6330   -9.0461   19.1415 C   0  0  0  0  0  0  0  0  0  0  0  0
  -22.5385  -15.0747   20.2302 C   0  0  0  0  0  0  0  0  0  0  0  0
  -21.7348  -16.4118   21.7799 C   0  0  0  0  0  0  0  0  0  0  0  0
  -21.7968  -14.0038   22.4478 C   0  0  0  0  0  0  0  0  0  0  0  0
  -23.4542  -30.4118   22.8139 C   0  0  0  0  0  0  0  0  0  0  0  0
  -20.5283  -29.1079   22.3024 C   0  0  0  0  0  0  0  0  0  0  0  0
  -18.6094  -26.8915   20.5553 C   0  0  0  0  0  0  0  0  0  0  0  0
  -23.9329  -21.5181   19.5563 C   0  0  0  0  0  0  0  0  0  0  0  0
  -25.3471  -34.5778   25.0763 C   0  0  0  0  0  0  0  0  0  0  0  0
  -23.2154  -30.6746   20.3179 C   0  0  0  0  0  0  0  0  0  0  0  0
  -22.4861  -27.9510   21.2095 C   0  0  0  0  0  0  0  0  0  0  0  0
  -24.0847  -33.7327   25.2255 C   0  0  0  0  0  0  0  0  0  0  0  0
  -20.5332  -20.4608   19.5321 C   0  0  0  0  0  0  0  0  0  0  0  0
  -24.4405  -32.2517   25.3087 C   0  0  0  0  0  0  0  0  0  0  0  0
  -20.6142  -18.9618   19.8261 C   0  0  0  0  0  0  0  0  0  0  0  0
  -30.1343  -20.3765   18.5024 C   0  0  0  0  0  0  0  0  0  0  0  0
  -21.6985  -20.9294   18.6635 C   0  0  0  0  0  0  0  0  0  0  0  0
  -23.1164  -19.0844   19.4756 C   0  0  0  0  0  0  0  0  0  0  0  0
  -25.1406  -31.7797   24.0286 C   0  0  1  0  0  0  0  0  0  0  0  0
  -22.5081  -30.4271   21.6467 C   0  0  1  0  0  0  0  0  0  0  0  0
  -27.1681  -22.1473   19.3453 C   0  0  2  0  0  0  0  0  0  0  0  0
  -21.9929  -18.5757   20.3949 C   0  0  2  0  0  0  0  0  0  0  0  0
  -29.0839  -21.4034   18.1625 C   0  0  1  0  0  0  0  0  0  0  0  0
  -27.8403  -20.8803   18.8518 C   0  0  1  0  0  0  0  0  0  0  0  0
  -29.7121  -19.9386   19.8956 C   0  0  2  0  0  0  0  0  0  0  0  0
  -28.3723  -23.0127   19.7091 C   0  0  2  0  0  0  0  0  0  0  0  0
  -29.6281  -18.0939   21.5805 C   0  0  0  0  0  0  0  0  0  0  0  0
  -16.2607  -26.0237   20.3879 C   0  0  0  0  0  0  0  0  0  0  0  0
  -29.1003  -25.2654   20.5192 C   0  0  0  0  0  0  0  0  0  0  0  0
  -20.9622  -27.4532   24.8290 C   0  0  0  0  0  0  0  0  0  0  0  0
  -19.0830  -25.9699   24.0965 C   0  0  0  0  0  0  0  0  0  0  0  0
  -18.6538  -28.3806   24.5729 C   0  0  0  0  0  0  0  0  0  0  0  0
  -18.3432  -27.8175   17.7569 C   0  0  0  0  0  0  0  0  0  0  0  0
  -26.1904  -21.9510   20.4921 C   0  0  0  0  0  0  0  0  0  0  0  0
  -30.1373  -18.5239   20.2395 C   0  0  0  0  0  0  0  0  0  0  0  0
  -28.1597  -25.0554   18.2012 C   0  0  0  0  0  0  0  0  0  0  0  0
  -27.4127  -26.3693   18.0066 C   0  0  0  0  0  0  0  0  0  1  0  0
  -19.9224  -27.7370   22.4829 C   0  0  1  0  0  0  0  0  0  0  0  0
  -17.2625  -27.0452   19.8722 C   0  0  2  0  0  0  0  0  0  0  0  0
  -28.0979  -24.5154   19.6391 C   0  0  1  0  0  0  0  0  0  0  0  0
  -19.6779  -27.3894   23.9785 C   0  0  0  0  0  0  0  0  0  0  0  0
  -22.5912  -16.2917   19.6823 N   0  0  0  0  0  0  0  0  0  0  0  0
  -22.0956  -17.0831   20.6488 N   0  0  0  0  0  0  0  0  0  0  0  0
  -21.7793  -29.1572   21.6711 N   0  0  0  0  0  0  0  0  0  0  0  0
  -22.9767  -20.5330   19.2594 N   0  0  0  0  0  0  0  0  0  0  0  0
  -21.2187  -17.0544   22.8490 N   0  0  0  0  0  0  0  0  0  0  0  0
  -22.1387  -12.7080   22.0373 N   0  0  0  0  0  0  0  0  0  0  0  0
  -24.1754  -31.5802   22.9689 N   0  0  0  0  0  0  0  0  0  0  0  0
  -18.7188  -27.7110   21.6588 N   0  0  0  0  0  0  0  0  0  0  0  0
  -25.1142  -21.0578   20.1251 N   0  0  0  0  0  0  0  0  0  0  0  0
  -17.4045  -26.8624   18.4000 N   0  3  0  0  0  0  0  0  0  0  0  0
  -21.2992  -14.1758   23.5864 O   0  0  0  0  0  0  0  0  0  0  0  0
  -23.5236  -29.4143   23.5224 O   0  0  0  0  0  0  0  0  0  0  0  0
  -19.9111  -30.0990   22.7002 O   0  0  0  0  0  0  0  0  0  0  0  0
  -19.4763  -26.1190   20.1525 O   0  0  0  0  0  0  0  0  0  0  0  0
  -23.7456  -22.7195   19.3362 O   0  0  0  0  0  0  0  0  0  0  0  0
  -29.3992  -22.6738   18.7588 O   0  0  0  0  0  0  0  0  0  0  0  0
  -28.2791  -20.0360   19.9291 O   0  0  0  0  0  0  0  0  0  0  0  0
  -24.3052  -10.6202   17.3488 O   0  0  0  0  0  0  0  0  0  0  0  0
  -26.0439  -26.1738   18.3598 O   0  0  0  0  0  0  0  0  0  1  0  0
  -27.5073   -6.9741   19.9673 F   0  0  0  0  0  0  0  0  0  0  0  0
  -23.3978   -9.2940   19.5983 F   0  0  0  0  0  0  0  0  0  0  0  0
  1  2  1  0  0  0  0
  1  5  2  0  0  0  0
  2  6  2  0  0  0  0
  3  8  2  0  0  0  0
  3 15  1  0  0  0  0
  4  9  1  0  0  0  0
  4 15  2  0  0  0  0
  5 17  1  0  0  0  0
  6 19  1  0  0  0  0
  7 10  2  0  0  0  0
  7 18  1  0  0  0  0
  8 21  1  0  0  0  0
  9 21  2  0  0  0  0
 10 22  1  0  0  0  0
 11 12  2  0  0  0  0
 11 23  1  0  0  0  0
 12 24  1  0  0  0  0
 13 20  1  0  0  0  0
 13 22  2  0  0  0  0
 14 24  2  0  0  0  0
 14 25  1  0  0  0  0
 15 26  1  0  0  0  0
 16 26  1  0  0  0  0
 16 27  2  0  0  0  0
 16 28  1  0  0  0  0
 17 19  2  0  0  0  0
 17 33  1  0  0  0  0
 18 20  2  0  0  0  0
 18 34  1  0  0  0  0
 19 43  1  0  0  0  0
 20 35  1  0  0  0  0
 21 83  1  0  0  0  0
 22 84  1  0  0  0  0
 23 25  2  0  0  0  0
 23 83  1  0  0  0  0
 24 85  1  0  0  0  0
 25 86  1  0  0  0  0
 26 66  2  0  0  0  0
 27 67  1  0  0  0  0
 27 70  1  0  0  0  0
 28 71  1  0  0  0  0
 28 76  2  0  0  0  0
 29 44  1  0  0  0  0
 29 72  1  0  0  0  0
 29 77  2  0  0  0  0
 30 62  1  0  0  0  0
 30 68  1  0  0  0  0
 30 78  2  0  0  0  0
 31 63  1  0  0  0  0
 31 73  1  0  0  0  0
 31 79  2  0  0  0  0
 32 69  1  0  0  0  0
 32 74  1  0  0  0  0
 32 80  2  0  0  0  0
 33 36  1  0  0  0  0
 34 44  1  0  0  0  0
 35 68  1  0  0  0  0
 36 38  1  0  0  0  0
 37 39  1  0  0  0  0
 37 41  1  0  0  0  0
 38 43  1  0  0  0  0
 39 46  1  0  0  0  0
 40 47  1  0  0  0  0
 40 49  1  0  0  0  0
 41 69  1  0  0  0  0
 42 46  1  0  0  0  0
 42 69  1  0  0  0  0
 43 72  1  0  0  0  0
 44 68  1  0  0  0  0
 45 48  1  0  0  0  0
 45 50  1  0  0  0  0
 45 58  1  0  0  0  0
 46 67  1  0  0  0  0
 47 48  1  0  0  0  0
 47 81  1  0  0  0  0
 48 82  1  0  0  0  0
 49 59  1  0  0  0  0
 49 82  1  0  0  0  0
 50 64  1  0  0  0  0
 50 81  1  0  0  0  0
 51 59  1  0  0  0  0
 52 63  1  0  0  0  0
 53 64  1  0  0  0  0
 54 65  1  0  0  0  0
 55 65  1  0  0  0  0
 56 65  1  0  0  0  0
 57 75  1  0  0  0  0
 58 74  1  0  0  0  0
 60 61  1  0  0  0  0
 60 64  1  0  0  0  0
 61 84  1  0  0  0  0
 62 65  1  0  0  0  0
 62 73  1  0  0  0  0
 63 75  1  0  0  0  0
 66 67  1  0  0  0  0
M  CHG  1  75   1
M  ISO  4  32 100  61 101  74 100  84 101
M  END
> <Batch ID>
0148

> <Smiles>
CCC1CC2OC(C(C)C[101CH2:1][101O:1]c3ccc4c(c3)CN(C(=O)C(NC(=O)C(C)NC)C(C)(C)C)C(C(=O)NC3CCCc5ccccc53)C4)C(C[100NH:0][100C:0](=O)N3CCCC(n4nc(-c5ccc(Oc6ccc(F)cc6F)cc5)c(C(N)=O)c4N)C3)C2O1

> <Shape>
0.228

> <Color>
0.050

> <Negative vol penalty>
0.000

$$$$

  -OEChem-04052321363D

 87 97  0     1  0  0  0  0  0999 V2000
  -18.2217  -32.4706   24.5451 C   0  0  0  0  0  0  0  0  0  0  0  0
  -19.5129  -32.7403   24.1032 C   0  0  0  0  0  0  0  0  0  0  0  0
  -20.2317  -17.2679   21.3562 C   0  0  0  0  0  0  0  0  0  0  0  0
  -21.3466  -18.6173   23.0215 C   0  0  0  0  0  0  0  0  0  0  0  0
  -17.8377  -31.1572   24.8123 C   0  0  0  0  0  0  0  0  0  0  0  0
  -20.4214  -31.6967   23.9293 C   0  0  0  0  0  0  0  0  0  0  0  0
  -25.9404  -29.7278   19.8086 C   0  0  0  0  0  0  0  0  0  0  0  0
  -18.9947  -17.6459   21.8781 C   0  0  0  0  0  0  0  0  0  0  0  0
  -20.1096  -18.9953   23.5434 C   0  0  0  0  0  0  0  0  0  0  0  0
  -27.2569  -29.2810   19.9130 C   0  0  0  0  0  0  0  0  0  0  0  0
  -15.5352  -18.5412   22.5457 C   0  0  0  0  0  0  0  0  0  0  0  0
  -14.5372  -18.9123   21.6447 C   0  0  0  0  0  0  0  0  0  0  0  0
  -29.9249  -25.5872   22.4891 C   0  0  0  0  0  0  0  0  0  0  0  0
  -29.5472  -25.4118   24.8688 C   0  0  0  0  0  0  0  0  0  0  0  0
  -30.4499  -27.4494   23.9360 C   0  0  0  0  0  0  0  0  0  0  0  0
  -26.4580  -27.0433   20.3299 C   0  0  0  0  0  0  0  0  0  0  0  0
  -15.9418  -20.6990   20.8250 C   0  0  0  0  0  0  0  0  0  0  0  0
  -21.4077  -17.7535   21.9280 C   0  0  0  0  0  0  0  0  0  0  0  0
  -23.2027  -16.0574   21.2885 C   0  0  0  0  0  0  0  0  0  0  0  0
  -18.7389  -30.0960   24.6324 C   0  0  0  0  0  0  0  0  0  0  0  0
  -24.8708  -28.8363   19.9752 C   0  0  0  0  0  0  0  0  0  0  0  0
  -20.0495  -30.3680   24.1957 C   0  0  0  0  0  0  0  0  0  0  0  0
  -29.4981  -24.8495   23.5932 C   0  0  0  0  0  0  0  0  0  0  0  0
  -30.4009  -26.8872   22.6604 C   0  0  0  0  0  0  0  0  0  0  0  0
  -25.1289  -27.4808   20.2246 C   0  0  0  0  0  0  0  0  0  0  0  0
  -30.0231  -26.7118   25.0402 C   0  0  0  0  0  0  0  0  0  0  0  0
  -18.9336  -18.5096   22.9717 C   0  0  0  0  0  0  0  0  0  0  0  0
  -27.5159  -27.9391   20.1765 C   0  0  0  0  0  0  0  0  0  0  0  0
  -16.7365  -19.2490   22.5865 C   0  0  0  0  0  0  0  0  0  0  0  0
  -14.7406  -19.9912   20.7843 C   0  0  0  0  0  0  0  0  0  0  0  0
  -16.9398  -20.3279   21.7261 C   0  0  0  0  0  0  0  0  0  0  0  0
  -22.6859  -17.3630   21.3897 C   0  0  0  0  0  0  0  0  0  0  0  0
  -24.4389  -16.2211   20.7128 C   0  0  0  0  0  0  0  0  0  0  0  0
  -22.6175  -14.8084   21.6798 C   0  0  0  0  0  0  0  0  0  0  0  0
  -22.4540  -28.5905   22.0251 C   0  0  0  0  0  0  0  0  0  0  0  0
  -21.5337  -26.1876   20.0499 C   0  0  0  0  0  0  0  0  0  0  0  0
  -22.4167  -23.8438   17.7317 C   0  0  0  0  0  0  0  0  0  0  0  0
  -28.3432  -20.5985   20.5131 C   0  0  0  0  0  0  0  0  0  0  0  0
  -18.2925  -28.6978   24.9795 C   0  0  0  0  0  0  0  0  0  0  0  0
  -23.4568  -29.3289   19.8330 C   0  0  0  0  0  0  0  0  0  0  0  0
  -24.0163  -26.4794   20.3915 C   0  0  0  0  0  0  0  0  0  0  0  0
  -19.2002  -27.6099   24.4112 C   0  0  0  0  0  0  0  0  0  0  0  0
  -26.8579  -19.1056   17.7721 C   0  0  0  0  0  0  0  0  0  0  0  0
  -20.6652  -27.9503   24.6656 C   0  0  0  0  0  0  0  0  0  0  0  0
  -25.6668  -18.3555   18.3678 C   0  0  0  0  0  0  0  0  0  0  0  0
  -32.0046  -27.1208   20.6564 C   0  0  0  0  0  0  0  0  0  0  0  0
  -32.2351  -28.3078   21.5384 C   0  0  0  0  0  0  0  0  0  0  0  0
  -27.7117  -23.3976   22.5340 C   0  0  0  0  0  0  0  0  0  0  0  0
  -30.0579  -22.4962   22.8374 C   0  0  0  0  0  0  0  0  0  0  0  0
  -27.0218  -20.4742   18.4228 C   0  0  0  0  0  0  0  0  0  0  0  0
  -27.2124  -21.9654   22.3224 C   0  0  0  0  0  0  0  0  0  0  0  0
  -29.5014  -21.0884   22.6455 C   0  0  0  0  0  0  0  0  0  0  0  0
  -25.9816  -19.6749   20.5198 C   0  0  0  0  0  0  0  0  0  0  0  0
  -28.9795  -23.4362   23.4060 C   0  0  0  0  0  0  0  0  0  0  0  0
  -21.0559  -29.2605   23.9712 C   0  0  1  0  0  0  0  0  0  0  0  0
  -22.4387  -28.4323   20.5309 C   0  0  1  0  0  0  0  0  0  0  0  0
  -25.7731  -18.2777   19.9011 C   0  0  1  0  0  0  0  0  0  0  0  0
  -30.8565  -27.6751   21.4803 C   0  0  0  0  0  0  0  0  0  0  0  0
  -30.0756  -27.3136   26.4039 C   0  0  0  0  0  0  0  0  0  0  0  0
  -21.4525  -22.0011   16.3275 C   0  0  0  0  0  0  0  0  0  0  0  0
  -21.4085  -24.3836   22.5075 C   0  0  0  0  0  0  0  0  0  0  0  0
  -21.3841  -22.4079   20.9698 C   0  0  0  0  0  0  0  0  0  0  0  0
  -19.5281  -24.0726   20.8883 C   0  0  0  0  0  0  0  0  0  0  0  0
  -23.1944  -25.1961   15.2166 C   0  0  0  0  0  0  0  0  0  0  0  0
  -29.7708  -28.4227   20.7573 C   0  0  0  0  0  0  0  0  0  1  0  0
  -21.7999  -24.7035   19.9756 C   0  0  1  0  0  0  0  0  0  0  0  0
  -21.8116  -23.4776   16.3886 C   0  0  2  0  0  0  0  0  0  0  0  0
  -21.0513  -23.9109   21.0841 C   0  0  0  0  0  0  0  0  0  0  0  0
  -23.5253  -18.2879   20.9164 N   0  0  0  0  0  0  0  0  0  0  0  0
  -24.5820  -17.5626   20.5123 N   0  0  0  0  0  0  0  0  0  0  0  0
  -22.6507  -27.0110   20.2498 N   0  0  0  0  0  0  0  0  0  0  0  0
  -27.1155  -20.3581   19.8780 N   0  0  0  0  0  0  0  0  0  0  0  0
  -28.2944  -21.1075   21.8196 N   0  0  0  0  0  0  0  0  0  0  0  0
  -25.4066  -15.3470   20.3636 N   0  0  0  0  0  0  0  0  0  0  0  0
  -22.8503  -14.3397   22.9800 N   0  0  0  0  0  0  0  0  0  0  0  0
  -21.2600  -29.0407   22.5554 N   0  0  0  0  0  0  0  0  0  0  0  0
  -21.4606  -24.2954   18.6166 N   0  0  0  0  0  0  0  0  0  0  0  0
  -22.7733  -23.7732   15.2892 N   0  3  0  0  0  0  0  0  0  0  0  0
  -21.9227  -14.1200   20.8943 O   0  0  0  0  0  0  0  0  0  0  0  0
  -23.4730  -28.3224   22.6506 O   0  0  0  0  0  0  0  0  0  0  0  0
  -20.3781  -26.6015   19.9276 O   0  0  0  0  0  0  0  0  0  0  0  0
  -23.6170  -23.7363   17.9731 O   0  0  0  0  0  0  0  0  0  0  0  0
  -29.4199  -20.3714   19.9471 O   0  0  0  0  0  0  0  0  0  0  0  0
  -17.7266  -18.8788   23.4811 O   0  0  0  0  0  0  0  0  0  0  0  0
  -28.8114  -27.4965   20.2805 O   0  0  0  0  0  0  0  0  0  1  0  0
  -13.7827  -20.3465   19.9180 F   0  0  0  0  0  0  0  0  0  0  0  0
  -18.0922  -21.0110   21.7598 F   0  0  0  0  0  0  0  0  0  0  0  0
  1  2  1  0  0  0  0
  1  5  2  0  0  0  0
  2  6  2  0  0  0  0
  3  8  2  0  0  0  0
  3 18  1  0  0  0  0
  4  9  1  0  0  0  0
  4 18  2  0  0  0  0
  5 20  1  0  0  0  0
  6 22  1  0  0  0  0
  7 10  2  0  0  0  0
  7 21  1  0  0  0  0
  8 27  1  0  0  0  0
  9 27  2  0  0  0  0
 10 28  1  0  0  0  0
 11 12  2  0  0  0  0
 11 29  1  0  0  0  0
 12 30  1  0  0  0  0
 13 23  1  0  0  0  0
 13 24  2  0  0  0  0
 14 23  2  0  0  0  0
 14 26  1  0  0  0  0
 15 24  1  0  0  0  0
 15 26  2  0  0  0  0
 16 25  1  0  0  0  0
 16 28  2  0  0  0  0
 17 30  2  0  0  0  0
 17 31  1  0  0  0  0
 18 32  1  0  0  0  0
 19 32  1  0  0  0  0
 19 33  2  0  0  0  0
 19 34  1  0  0  0  0
 20 22  2  0  0  0  0
 20 39  1  0  0  0  0
 21 25  2  0  0  0  0
 21 40  1  0  0  0  0
 22 55  1  0  0  0  0
 23 54  1  0  0  0  0
 24 58  1  0  0  0  0
 25 41  1  0  0  0  0
 26 59  1  0  0  0  0
 27 84  1  0  0  0  0
 28 85  1  0  0  0  0
 29 31  2  0  0  0  0
 29 84  1  0  0  0  0
 30 86  1  0  0  0  0
 31 87  1  0  0  0  0
 32 69  2  0  0  0  0
 33 70  1  0  0  0  0
 33 74  1  0  0  0  0
 34 75  1  0  0  0  0
 34 79  2  0  0  0  0
 35 56  1  0  0  0  0
 35 76  1  0  0  0  0
 35 80  2  0  0  0  0
 36 66  1  0  0  0  0
 36 71  1  0  0  0  0
 36 81  2  0  0  0  0
 37 67  1  0  0  0  0
 37 77  1  0  0  0  0
 37 82  2  0  0  0  0
 38 72  1  0  0  0  0
 38 73  1  0  0  0  0
 38 83  2  0  0  0  0
 39 42  1  0  0  0  0
 40 56  1  0  0  0  0
 41 71  1  0  0  0  0
 42 44  1  0  0  0  0
 43 45  1  0  0  0  0
 43 50  1  0  0  0  0
 44 55  1  0  0  0  0
 45 57  1  0  0  0  0
 46 47  1  0  0  0  0
 46 58  1  0  0  0  0
 47 58  1  0  0  0  0
 48 51  1  0  0  0  0
 48 54  1  0  0  0  0
 49 52  1  0  0  0  0
 49 54  1  0  0  0  0
 50 72  1  0  0  0  0
 51 73  1  0  0  0  0
 52 73  1  0  0  0  0
 53 57  1  0  0  0  0
 53 72  1  0  0  0  0
 55 76  1  0  0  0  0
 56 71  1  0  0  0  0
 57 70  1  0  0  0  0
 58 65  1  0  0  0  0
 60 67  1  0  0  0  0
 61 68  1  0  0  0  0
 62 68  1  0  0  0  0
 63 68  1  0  0  0  0
 64 78  1  0  0  0  0
 65 85  1  0  0  0  0
 66 68  1  0  0  0  0
 66 77  1  0  0  0  0
 67 78  1  0  0  0  0
 69 70  1  0  0  0  0
M  CHG  1  78   1
M  ISO  4  38 100  65 101  73 100  85 101
M  END
> <Batch ID>
0148

> <Smiles>
CNC(C)C(=O)NC(C(=O)N1Cc2cc([101O:1][101CH2:1]C3(c4cc(C)cc(C5CC[100N:0]([100C:0](=O)N6CCCC(n7nc(-c8ccc(Oc9ccc(F)cc9F)cc8)c(C(N)=O)c7N)C6)CC5)c4)CC3)ccc2CC1C(=O)NC1CCCc2ccccc21)C(C)(C)C

> <Shape>
0.149

> <Color>
0.134

> <Negative vol penalty>
0.000

$$$$

  -OEChem-04052321363D

 87 96  0     1  0  0  0  0  0999 V2000
  -25.4257  -37.4456   21.0194 C   0  0  0  0  0  0  0  0  0  0  0  0
  -26.0743  -36.4625   20.2791 C   0  0  0  0  0  0  0  0  0  0  0  0
  -24.3056   -9.6872   21.7747 C   0  0  0  0  0  0  0  0  0  0  0  0
  -22.3483  -10.6603   20.7455 C   0  0  0  0  0  0  0  0  0  0  0  0
  -24.9191  -37.1446   22.2830 C   0  0  0  0  0  0  0  0  0  0  0  0
  -26.2178  -35.1780   20.8024 C   0  0  0  0  0  0  0  0  0  0  0  0
  -26.4652  -28.3148   18.7648 C   0  0  0  0  0  0  0  0  0  0  0  0
  -23.6930   -8.4343   21.7552 C   0  0  0  0  0  0  0  0  0  0  0  0
  -21.7357   -9.4073   20.7259 C   0  0  0  0  0  0  0  0  0  0  0  0
  -27.2625  -27.1791   18.9003 C   0  0  0  0  0  0  0  0  0  0  0  0
  -21.3672   -6.7709   23.5574 C   0  0  0  0  0  0  0  0  0  0  0  0
  -21.4506   -5.9914   24.7111 C   0  0  0  0  0  0  0  0  0  0  0  0
  -26.2777  -26.7529   21.0608 C   0  0  0  0  0  0  0  0  0  0  0  0
  -27.3836  -18.7515   23.1915 C   0  0  0  0  0  0  0  0  0  0  0  0
  -22.5857   -4.2631   23.4615 C   0  0  0  0  0  0  0  0  0  0  0  0
  -29.8864  -17.8656   22.5617 C   0  0  0  0  0  0  0  0  0  0  0  0
  -23.6332  -10.8003   21.2700 C   0  0  0  0  0  0  0  0  0  0  0  0
  -24.7150  -12.8036   22.4206 C   0  0  0  0  0  0  0  0  0  0  0  0
  -25.0479  -35.8532   22.8181 C   0  0  0  0  0  0  0  0  0  0  0  0
  -25.5746  -28.6848   19.7827 C   0  0  0  0  0  0  0  0  0  0  0  0
  -25.7137  -34.8598   22.0750 C   0  0  0  0  0  0  0  0  0  0  0  0
  -25.4684  -27.8923   20.9346 C   0  0  0  0  0  0  0  0  0  0  0  0
  -27.8963  -19.0008   21.9233 C   0  0  0  0  0  0  0  0  0  0  0  0
  -29.1709  -18.5528   21.5944 C   0  0  0  0  0  0  0  0  0  0  0  0
  -22.4081   -8.2943   21.2307 C   0  0  0  0  0  0  0  0  0  0  0  0
  -27.1709  -26.3996   20.0497 C   0  0  0  0  0  0  0  0  0  0  0  0
  -21.8930   -6.2964   22.3556 C   0  0  0  0  0  0  0  0  0  0  0  0
  -22.0598   -4.7376   24.6632 C   0  0  0  0  0  0  0  0  0  0  0  0
  -22.5023   -5.0425   22.3077 C   0  0  0  0  0  0  0  0  0  0  0  0
  -24.2652  -12.0950   21.2904 C   0  0  0  0  0  0  0  0  0  0  0  0
  -28.1791  -18.0553   24.0872 C   0  0  0  0  0  0  0  0  0  0  0  0
  -25.2348  -13.9684   21.9111 C   0  0  0  0  0  0  0  0  0  0  0  0
  -24.6674  -12.4413   23.8070 C   0  0  0  0  0  0  0  0  0  0  0  0
  -25.2673  -31.2126   21.6852 C   0  0  0  0  0  0  0  0  0  0  0  0
  -22.5400  -29.7094   22.5933 C   0  0  0  0  0  0  0  0  0  0  0  0
  -20.7987  -26.7881   22.8770 C   0  0  0  0  0  0  0  0  0  0  0  0
  -28.3270  -16.6759   18.1358 C   0  0  0  0  0  0  0  0  0  0  0  0
  -24.5258  -35.5879   24.2080 C   0  0  0  0  0  0  0  0  0  0  0  0
  -24.7022  -29.8978   19.6096 C   0  0  0  0  0  0  0  0  0  0  0  0
  -24.5132  -28.2350   22.0476 C   0  0  0  0  0  0  0  0  0  0  0  0
  -24.3892  -34.1029   24.5342 C   0  0  0  0  0  0  0  0  0  0  0  0
  -24.9542  -15.9422   17.2623 C   0  0  0  0  0  0  0  0  0  0  0  0
  -25.6443  -33.3459   24.1119 C   0  0  0  0  0  0  0  0  0  0  0  0
  -24.5139  -14.9302   18.3215 C   0  0  0  0  0  0  0  0  0  0  0  0
  -27.6537  -23.1084   19.1987 C   0  0  0  0  0  0  0  0  0  0  0  0
  -27.6673  -23.4483   21.6922 C   0  0  0  0  0  0  0  0  0  0  0  0
  -26.4154  -15.7441   16.8653 C   0  0  0  0  0  0  0  0  0  0  0  0
  -26.9275  -14.7262   19.0506 C   0  0  0  0  0  0  0  0  0  0  0  0
  -27.0731  -21.7167   19.3944 C   0  0  0  0  0  0  0  0  0  0  0  0
  -27.0861  -22.0562   21.8828 C   0  0  0  0  0  0  0  0  0  0  0  0
  -25.8672  -33.4481   22.5982 C   0  0  1  0  0  0  0  0  0  0  0  0
  -24.2011  -30.4673   20.9332 C   0  0  1  0  0  0  0  0  0  0  0  0
  -25.4770  -14.9220   19.5238 C   0  0  2  0  0  0  0  0  0  0  0  0
  -27.2785  -24.0455   20.3435 C   0  0  0  0  0  0  0  0  0  1  0  0
  -27.6613  -17.7700   25.4574 C   0  0  0  0  0  0  0  0  0  0  0  0
  -18.6099  -25.8707   23.6924 C   0  0  0  0  0  0  0  0  0  0  0  0
  -23.5162  -29.9479   25.4743 C   0  0  0  0  0  0  0  0  0  0  0  0
  -21.8179  -28.2250   26.1189 C   0  0  0  0  0  0  0  0  0  0  0  0
  -21.0778  -30.4048   25.1579 C   0  0  0  0  0  0  0  0  0  0  0  0
  -20.0686  -25.8154   20.1789 C   0  0  0  0  0  0  0  0  0  0  0  0
  -29.7685  -18.7929   20.2516 C   0  0  0  0  0  0  0  0  0  0  0  0
  -27.0599  -19.7520   20.9298 C   0  0  0  0  0  0  0  0  0  0  0  0
  -30.2021  -17.5094   19.5316 C   0  0  0  0  0  0  0  0  0  0  0  0
  -22.1795  -28.6972   23.6537 C   0  0  1  0  0  0  0  0  0  0  0  0
  -19.3741  -26.4239   22.4997 C   0  0  2  0  0  0  0  0  0  0  0  0
  -22.1673  -29.3131   25.0813 C   0  0  0  0  0  0  0  0  0  0  0  0
  -29.4217  -17.6044   23.8040 N   0  0  0  0  0  0  0  0  0  0  0  0
  -24.4802  -12.7545   20.1491 N   0  0  0  0  0  0  0  0  0  0  0  0
  -25.0708  -13.8899   20.5594 N   0  0  0  0  0  0  0  0  0  0  0  0
  -23.6862  -29.4341   21.8342 N   0  0  0  0  0  0  0  0  0  0  0  0
  -27.2760  -15.7478   18.0507 N   0  0  0  0  0  0  0  0  0  0  0  0
  -25.8115  -15.0419   22.4920 N   0  0  0  0  0  0  0  0  0  0  0  0
  -24.0997  -11.2084   24.1563 N   0  0  0  0  0  0  0  0  0  0  0  0
  -24.9790  -32.5477   21.8946 N   0  0  0  0  0  0  0  0  0  0  0  0
  -20.9070  -28.1127   23.2442 N   0  0  0  0  0  0  0  0  0  0  0  0
  -29.0902  -16.6158   19.2954 N   0  0  0  0  0  0  0  0  0  0  0  0
  -27.5120  -21.1730   20.7336 N   0  3  0  0  0  0  0  0  0  0  0  0
  -19.3707  -25.3954   21.4212 N   0  3  0  0  0  0  0  0  0  0  0  0
  -25.1001  -13.1959   24.7108 O   0  0  0  0  0  0  0  0  0  0  0  0
  -26.2760  -30.6200   22.0497 O   0  0  0  0  0  0  0  0  0  0  0  0
  -21.8268  -30.7040   22.4394 O   0  0  0  0  0  0  0  0  0  0  0  0
  -21.7222  -25.9776   22.8522 O   0  0  0  0  0  0  0  0  0  0  0  0
  -28.5640  -17.5007   17.2467 O   0  0  0  0  0  0  0  0  0  0  0  0
  -21.8101   -7.0717   21.2112 O   0  0  0  0  0  0  0  0  0  0  0  0
  -27.9484  -25.2909   20.1848 O   0  0  0  0  0  0  0  0  0  1  0  0
  -22.1412   -3.9899   25.7716 F   0  0  0  0  0  0  0  0  0  0  0  0
  -23.0103   -4.5819   21.1564 F   0  0  0  0  0  0  0  0  0  0  0  0
  1  2  1  0  0  0  0
  1  5  2  0  0  0  0
  2  6  2  0  0  0  0
  3  8  2  0  0  0  0
  3 17  1  0  0  0  0
  4  9  1  0  0  0  0
  4 17  2  0  0  0  0
  5 19  1  0  0  0  0
  6 21  1  0  0  0  0
  7 10  2  0  0  0  0
  7 20  1  0  0  0  0
  8 25  1  0  0  0  0
  9 25  2  0  0  0  0
 10 26  1  0  0  0  0
 11 12  2  0  0  0  0
 11 27  1  0  0  0  0
 12 28  1  0  0  0  0
 13 22  1  0  0  0  0
 13 26  2  0  0  0  0
 14 23  1  0  0  0  0
 14 31  2  0  0  0  0
 15 28  2  0  0  0  0
 15 29  1  0  0  0  0
 16 24  1  0  0  0  0
 16 67  2  0  0  0  0
 17 30  1  0  0  0  0
 18 30  1  0  0  0  0
 18 32  2  0  0  0  0
 18 33  1  0  0  0  0
 19 21  2  0  0  0  0
 19 38  1  0  0  0  0
 20 22  2  0  0  0  0
 20 39  1  0  0  0  0
 21 51  1  0  0  0  0
 22 40  1  0  0  0  0
 23 24  2  0  0  0  0
 23 62  1  0  0  0  0
 24 61  1  0  0  0  0
 25 84  1  0  0  0  0
 26 85  1  0  0  0  0
 27 29  2  0  0  0  0
 27 84  1  0  0  0  0
 28 86  1  0  0  0  0
 29 87  1  0  0  0  0
 30 68  2  0  0  0  0
 31 55  1  0  0  0  0
 31 67  1  0  0  0  0
 32 69  1  0  0  0  0
 32 72  1  0  0  0  0
 33 73  1  0  0  0  0
 33 79  2  0  0  0  0
 34 52  1  0  0  0  0
 34 74  1  0  0  0  0
 34 80  2  0  0  0  0
 35 64  1  0  0  0  0
 35 70  1  0  0  0  0
 35 81  2  0  0  0  0
 36 65  1  0  0  0  0
 36 75  1  0  0  0  0
 36 82  2  0  0  0  0
 37 71  1  0  0  0  0
 37 76  1  0  0  0  0
 37 83  2  0  0  0  0
 38 41  1  0  0  0  0
 39 52  1  0  0  0  0
 40 70  1  0  0  0  0
 41 43  1  0  0  0  0
 42 44  1  0  0  0  0
 42 47  1  0  0  0  0
 43 51  1  0  0  0  0
 44 53  1  0  0  0  0
 45 49  1  0  0  0  0
 45 54  1  0  0  0  0
 46 50  1  0  0  0  0
 46 54  1  0  0  0  0
 47 71  1  0  0  0  0
 48 53  1  0  0  0  0
 48 71  1  0  0  0  0
 49 77  1  0  0  0  0
 50 77  1  0  0  0  0
 51 74  1  0  0  0  0
 52 70  1  0  0  0  0
 53 69  1  0  0  0  0
 54 85  1  0  0  0  0
 56 65  1  0  0  0  0
 57 66  1  0  0  0  0
 58 66  1  0  0  0  0
 59 66  1  0  0  0  0
 60 78  1  0  0  0  0
 61 63  1  0  0  0  0
 62 77  1  0  0  0  0
 63 76  1  0  0  0  0
 64 66  1  0  0  0  0
 64 75  1  0  0  0  0
 65 78  1  0  0  0  0
 68 69  1  0  0  0  0
M  CHG  2  77   1  78   1
M  ISO  4  37 100  54 101  76 100  85 101
M  END
> <Batch ID>
0148

> <Smiles>
CNC(C)C(=O)NC(C(=O)N1Cc2cc([101O:1][101CH:1]3CCN(Cc4cc(C)ncc4CC[100NH:0][100C:0](=O)N4CCCC(n5nc(-c6ccc(Oc7ccc(F)cc7F)cc6)c(C(N)=O)c5N)C4)CC3)ccc2CC1C(=O)NC1CCCc2ccccc21)C(C)(C)C

> <Shape>
0.319

> <Color>
0.077

> <Negative vol penalty>
0.000

$$$$

  -OEChem-04052321363D

 85 94  0     1  0  0  0  0  0999 V2000
  -17.3634  -18.6512   17.7138 C   0  0  0  0  0  0  0  0  0  0  0  0
  -17.9640  -17.4477   17.3586 C   0  0  0  0  0  0  0  0  0  0  0  0
  -25.6396  -25.8802   20.2071 C   0  0  0  0  0  0  0  0  0  0  0  0
  -26.6203  -25.2780   22.3314 C   0  0  0  0  0  0  0  0  0  0  0  0
  -17.9266  -19.4413   18.7151 C   0  0  0  0  0  0  0  0  0  0  0  0
  -19.1290  -17.0341   18.0038 C   0  0  0  0  0  0  0  0  0  0  0  0
  -22.5149  -11.0973   20.1501 C   0  0  0  0  0  0  0  0  0  0  0  0
  -24.8737  -26.8602   20.8385 C   0  0  0  0  0  0  0  0  0  0  0  0
  -25.8544  -26.2580   22.9628 C   0  0  0  0  0  0  0  0  0  0  0  0
  -23.7570  -10.4714   20.0542 C   0  0  0  0  0  0  0  0  0  0  0  0
  -22.9267  -29.7632   21.8367 C   0  0  0  0  0  0  0  0  0  0  0  0
  -22.8529  -31.0181   21.2321 C   0  0  0  0  0  0  0  0  0  0  0  0
  -24.5963  -11.8797   21.8238 C   0  0  0  0  0  0  0  0  0  0  0  0
  -25.2503  -31.2499   21.4206 C   0  0  0  0  0  0  0  0  0  0  0  0
  -29.2583  -12.9243   20.7926 C   0  0  0  0  0  0  0  0  0  0  0  0
  -26.5129  -25.0891   20.9536 C   0  0  0  0  0  0  0  0  0  0  0  0
  -28.5905  -24.2263   19.7509 C   0  0  0  0  0  0  0  0  0  0  0  0
  -19.0936  -19.0325   19.3795 C   0  0  0  0  0  0  0  0  0  0  0  0
  -22.3070  -12.1282   21.0776 C   0  0  0  0  0  0  0  0  0  0  0  0
  -19.7091  -17.8200   19.0139 C   0  0  0  0  0  0  0  0  0  0  0  0
  -23.3499  -12.5153   21.9312 C   0  0  0  0  0  0  0  0  0  0  0  0
  -29.4065  -13.7782   19.7115 C   0  0  0  0  0  0  0  0  0  0  0  0
  -29.0465  -13.3052   18.4545 C   0  0  0  0  0  0  0  0  0  0  0  0
  -28.5562  -12.0111   18.3190 C   0  0  0  0  0  0  0  0  0  0  0  0
  -24.9811  -27.0491   22.2163 C   0  0  0  0  0  0  0  0  0  0  0  0
  -24.7988  -10.8646   20.8892 C   0  0  0  0  0  0  0  0  0  0  0  0
  -24.1623  -29.2517   22.2333 C   0  0  0  0  0  0  0  0  0  0  0  0
  -24.0147  -31.7614   21.0241 C   0  0  0  0  0  0  0  0  0  0  0  0
  -25.3241  -29.9951   22.0252 C   0  0  0  0  0  0  0  0  0  0  0  0
  -27.3039  -24.0762   20.3021 C   0  0  0  0  0  0  0  0  0  0  0  0
  -28.4463  -11.2363   19.4624 C   0  0  0  0  0  0  0  0  0  0  0  0
  -28.8995  -22.9826   19.2566 C   0  0  0  0  0  0  0  0  0  0  0  0
  -29.4313  -25.3861   19.6911 C   0  0  0  0  0  0  0  0  0  0  0  0
  -21.5415  -15.2067   20.8755 C   0  0  0  0  0  0  0  0  0  0  0  0
  -21.4012  -14.9831   24.1086 C   0  0  0  0  0  0  0  0  0  0  0  0
  -22.3893  -13.3653   26.9464 C   0  0  0  0  0  0  0  0  0  0  0  0
  -29.1386  -17.5318   20.0668 C   0  0  0  0  0  0  0  0  0  0  0  0
  -19.6918  -19.9428   20.4226 C   0  0  0  0  0  0  0  0  0  0  0  0
  -20.9534  -12.7750   21.1868 C   0  0  0  0  0  0  0  0  0  0  0  0
  -23.1722  -13.6030   22.9577 C   0  0  0  0  0  0  0  0  0  0  0  0
  -20.7187  -19.2527   21.3168 C   0  0  0  0  0  0  0  0  0  0  0  0
  -26.0391  -18.8911   18.5755 C   0  0  0  0  0  0  0  0  0  0  0  0
  -21.6919  -18.4317   20.4768 C   0  0  0  0  0  0  0  0  0  0  0  0
  -28.7043   -7.4632   20.2079 C   0  0  0  0  0  0  0  0  0  0  0  0
  -29.9352   -8.3202   20.1074 C   0  0  0  0  0  0  0  0  0  0  0  0
  -26.1816  -20.3730   18.9076 C   0  0  0  0  0  0  0  0  0  0  0  0
  -26.6502  -17.9979   19.6546 C   0  0  0  0  0  0  0  0  0  0  0  0
  -28.2140  -19.8142   20.2955 C   0  0  0  0  0  0  0  0  0  0  0  0
  -20.9596  -17.3253   19.7078 C   0  0  1  0  0  0  0  0  0  0  0  0
  -21.0039  -14.1644   21.8148 C   0  0  1  0  0  0  0  0  0  0  0  0
  -28.6038   -8.9497   20.4107 C   0  0  0  0  0  0  0  0  0  0  0  0
  -27.6491  -20.7240   19.1942 C   0  0  2  0  0  0  0  0  0  0  0  0
  -29.1869  -14.1865   17.2548 C   0  0  0  0  0  0  0  0  0  0  0  0
  -28.1597  -11.4752   16.9843 C   0  0  0  0  0  0  0  0  0  0  0  0
  -22.1405  -13.4364   29.4425 C   0  0  0  0  0  0  0  0  0  0  0  0
  -23.3251  -17.3483   24.2305 C   0  0  0  0  0  0  0  0  0  0  0  0
  -23.7740  -16.7701   26.6248 C   0  0  0  0  0  0  0  0  0  0  0  0
  -21.4742  -17.4213   25.9109 C   0  0  0  0  0  0  0  0  0  0  0  0
  -21.1642  -10.6721   27.0173 C   0  0  0  0  0  0  0  0  0  0  0  0
  -29.9374  -15.1549   19.9162 C   0  0  0  0  0  0  0  0  0  0  0  0
  -26.3907   -9.7513   19.5172 C   0  0  0  0  0  0  0  0  0  1  0  0
  -27.9184   -9.8147   19.3779 C   0  0  1  0  0  0  0  0  0  0  0  0
  -22.3885  -15.1627   25.2365 C   0  0  1  0  0  0  0  0  0  0  0  0
  -21.6036  -12.8584   28.1424 C   0  0  2  0  0  0  0  0  0  0  0  0
  -22.7447  -16.6564   25.4801 C   0  0  0  0  0  0  0  0  0  0  0  0
  -28.7858  -11.6611   20.7001 N   0  0  0  0  0  0  0  0  0  0  0  0
  -26.8281  -22.8351   20.1704 N   0  0  0  0  0  0  0  0  0  0  0  0
  -27.8210  -22.1940   19.5308 N   0  0  0  0  0  0  0  0  0  0  0  0
  -21.8321  -14.2093   23.0217 N   0  0  0  0  0  0  0  0  0  0  0  0
  -28.0315  -18.3939   19.9718 N   0  0  0  0  0  0  0  0  0  0  0  0
  -29.9858  -22.4976   18.6185 N   0  0  0  0  0  0  0  0  0  0  0  0
  -28.9593  -26.5828   20.2474 N   0  0  0  0  0  0  0  0  0  0  0  0
  -20.6470  -16.2199   20.5880 N   0  0  0  0  0  0  0  0  0  0  0  0
  -21.8115  -14.4893   26.3950 N   0  0  0  0  0  0  0  0  0  0  0  0
  -28.8792  -16.1831   19.8435 N   0  0  0  0  0  0  0  0  0  0  0  0
  -21.6815  -11.3723   28.2211 N   0  3  0  0  0  0  0  0  0  0  0  0
  -30.5606  -25.3662   19.1455 O   0  0  0  0  0  0  0  0  0  0  0  0
  -22.6838  -15.1003   20.4447 O   0  0  0  0  0  0  0  0  0  0  0  0
  -20.2862  -15.5041   24.1922 O   0  0  0  0  0  0  0  0  0  0  0  0
  -23.4151  -12.8210   26.5441 O   0  0  0  0  0  0  0  0  0  0  0  0
  -30.2775  -17.9277   20.3377 O   0  0  0  0  0  0  0  0  0  0  0  0
  -24.2341  -28.0054   22.8327 O   0  0  0  0  0  0  0  0  0  0  0  0
  -26.0124  -10.2559   20.7973 O   0  0  0  0  0  0  0  0  0  1  0  0
  -23.9438  -32.9658   20.4421 F   0  0  0  0  0  0  0  0  0  0  0  0
  -26.5142  -29.5084   22.4030 F   0  0  0  0  0  0  0  0  0  0  0  0
  1  2  1  0  0  0  0
  1  5  2  0  0  0  0
  2  6  2  0  0  0  0
  3  8  2  0  0  0  0
  3 16  1  0  0  0  0
  4  9  1  0  0  0  0
  4 16  2  0  0  0  0
  5 18  1  0  0  0  0
  6 20  1  0  0  0  0
  7 10  2  0  0  0  0
  7 19  1  0  0  0  0
  8 25  1  0  0  0  0
  9 25  2  0  0  0  0
 10 26  1  0  0  0  0
 11 12  2  0  0  0  0
 11 27  1  0  0  0  0
 12 28  1  0  0  0  0
 13 21  1  0  0  0  0
 13 26  2  0  0  0  0
 14 28  2  0  0  0  0
 14 29  1  0  0  0  0
 15 22  1  0  0  0  0
 15 66  2  0  0  0  0
 16 30  1  0  0  0  0
 17 30  1  0  0  0  0
 17 32  2  0  0  0  0
 17 33  1  0  0  0  0
 18 20  2  0  0  0  0
 18 38  1  0  0  0  0
 19 21  2  0  0  0  0
 19 39  1  0  0  0  0
 20 49  1  0  0  0  0
 21 40  1  0  0  0  0
 22 23  2  0  0  0  0
 22 60  1  0  0  0  0
 23 24  1  0  0  0  0
 23 53  1  0  0  0  0
 24 31  2  0  0  0  0
 24 54  1  0  0  0  0
 25 82  1  0  0  0  0
 26 83  1  0  0  0  0
 27 29  2  0  0  0  0
 27 82  1  0  0  0  0
 28 84  1  0  0  0  0
 29 85  1  0  0  0  0
 30 67  2  0  0  0  0
 31 62  1  0  0  0  0
 31 66  1  0  0  0  0
 32 68  1  0  0  0  0
 32 71  1  0  0  0  0
 33 72  1  0  0  0  0
 33 77  2  0  0  0  0
 34 50  1  0  0  0  0
 34 73  1  0  0  0  0
 34 78  2  0  0  0  0
 35 63  1  0  0  0  0
 35 69  1  0  0  0  0
 35 79  2  0  0  0  0
 36 64  1  0  0  0  0
 36 74  1  0  0  0  0
 36 80  2  0  0  0  0
 37 70  1  0  0  0  0
 37 75  1  0  0  0  0
 37 81  2  0  0  0  0
 38 41  1  0  0  0  0
 39 50  1  0  0  0  0
 40 69  1  0  0  0  0
 41 43  1  0  0  0  0
 42 46  1  0  0  0  0
 42 47  1  0  0  0  0
 43 49  1  0  0  0  0
 44 45  1  0  0  0  0
 44 51  1  0  0  0  0
 45 51  1  0  0  0  0
 46 52  1  0  0  0  0
 47 70  1  0  0  0  0
 48 52  1  0  0  0  0
 48 70  1  0  0  0  0
 49 73  1  0  0  0  0
 50 69  1  0  0  0  0
 51 62  1  0  0  0  0
 52 68  1  0  0  0  0
 55 64  1  0  0  0  0
 56 65  1  0  0  0  0
 57 65  1  0  0  0  0
 58 65  1  0  0  0  0
 59 76  1  0  0  0  0
 60 75  1  0  0  0  0
 61 62  1  0  0  0  0
 61 83  1  0  0  0  0
 63 65  1  0  0  0  0
 63 74  1  0  0  0  0
 64 76  1  0  0  0  0
 67 68  1  0  0  0  0
M  CHG  1  76   1
M  ISO  4  37 100  61 101  75 100  83 101
M  END
> <Batch ID>
0148

> <Smiles>
CNC(C)C(=O)NC(C(=O)N1Cc2cc([101O:1][101CH2:1]C(c3ncc(C[100NH:0][100C:0](=O)N4CCCC(n5nc(-c6ccc(Oc7ccc(F)cc7F)cc6)c(C(N)=O)c5N)C4)c(C)c3C)C3CC3)ccc2CC1C(=O)NC1CCCc2ccccc21)C(C)(C)C

> <Shape>
0.200

> <Color>
0.084

> <Negative vol penalty>
0.000

$$$$

  -OEChem-04052321363D

 85 94  0     1  0  0  0  0  0999 V2000
  -27.9750  -24.4451   16.9251 C   0  0  0  0  0  0  0  0  0  0  0  0
  -26.7852  -24.6949   17.6014 C   0  0  0  0  0  0  0  0  0  0  0  0
  -26.1768  -13.7112   19.3219 C   0  0  0  0  0  0  0  0  0  0  0  0
  -24.1790  -14.0011   20.6493 C   0  0  0  0  0  0  0  0  0  0  0  0
  -29.1806  -24.9213   17.4386 C   0  0  0  0  0  0  0  0  0  0  0  0
  -26.8005  -25.4202   18.7922 C   0  0  0  0  0  0  0  0  0  0  0  0
  -23.1425  -28.9170   18.9841 C   0  0  0  0  0  0  0  0  0  0  0  0
  -21.6504  -25.1358   22.1934 C   0  0  0  0  0  0  0  0  0  0  0  0
  -22.6783  -24.2156   21.9880 C   0  0  0  0  0  0  0  0  0  0  0  0
  -26.3157  -12.4136   19.8143 C   0  0  0  0  0  0  0  0  0  0  0  0
  -24.3179  -12.7034   21.1417 C   0  0  0  0  0  0  0  0  0  0  0  0
  -21.8536  -28.4746   19.2785 C   0  0  0  0  0  0  0  0  0  0  0  0
  -23.6934   -9.5573   20.0777 C   0  0  0  0  0  0  0  0  0  0  0  0
  -22.5516   -8.7574   20.1234 C   0  0  0  0  0  0  0  0  0  0  0  0
  -22.1399  -29.1822   21.5668 C   0  0  0  0  0  0  0  0  0  0  0  0
  -21.0485  -22.5147   21.4516 C   0  0  0  0  0  0  0  0  0  0  0  0
  -22.7995   -8.5402   22.5168 C   0  0  0  0  0  0  0  0  0  0  0  0
  -25.1085  -14.5050   19.7395 C   0  0  0  0  0  0  0  0  0  0  0  0
  -24.2591  -16.2482   18.0820 C   0  0  0  0  0  0  0  0  0  0  0  0
  -29.2096  -25.6611   18.6312 C   0  0  0  0  0  0  0  0  0  0  0  0
  -23.9452  -29.4863   19.9831 C   0  0  0  0  0  0  0  0  0  0  0  0
  -28.0078  -25.9057   19.3228 C   0  0  0  0  0  0  0  0  0  0  0  0
  -23.4378  -29.6333   21.2819 C   0  0  0  0  0  0  0  0  0  0  0  0
  -20.3215  -24.7454   22.0280 C   0  0  0  0  0  0  0  0  0  0  0  0
  -22.3774  -22.9050   21.6171 C   0  0  0  0  0  0  0  0  0  0  0  0
  -25.3862  -11.9097   20.7242 C   0  0  0  0  0  0  0  0  0  0  0  0
  -21.3531  -28.6045   20.5707 C   0  0  0  0  0  0  0  0  0  0  0  0
  -24.3883   -9.8485   21.2516 C   0  0  0  0  0  0  0  0  0  0  0  0
  -20.0205  -23.4349   21.6570 C   0  0  0  0  0  0  0  0  0  0  0  0
  -22.1046   -8.2489   21.3429 C   0  0  0  0  0  0  0  0  0  0  0  0
  -23.9414   -9.3400   22.4711 C   0  0  0  0  0  0  0  0  0  0  0  0
  -24.9648  -15.8457   19.2317 C   0  0  0  0  0  0  0  0  0  0  0  0
  -24.4255  -17.6108   18.0364 C   0  0  0  0  0  0  0  0  0  0  0  0
  -23.5192  -15.4608   17.1395 C   0  0  0  0  0  0  0  0  0  0  0  0
  -26.7270  -28.7348   21.3249 C   0  0  0  0  0  0  0  0  0  0  0  0
  -26.3469  -31.5999   22.7977 C   0  0  0  0  0  0  0  0  0  0  0  0
  -24.2241  -34.0486   23.8675 C   0  0  0  0  0  0  0  0  0  0  0  0
  -24.7927  -22.1941   21.5320 C   0  0  0  0  0  0  0  0  0  0  0  0
  -30.5424  -26.1147   19.1720 C   0  0  0  0  0  0  0  0  0  0  0  0
  -25.3236  -29.9830   19.6431 C   0  0  0  0  0  0  0  0  0  0  0  0
  -24.2517  -30.2562   22.3856 C   0  0  0  0  0  0  0  0  0  0  0  0
  -30.4289  -27.1960   20.2435 C   0  0  0  0  0  0  0  0  0  0  0  0
  -27.6766  -20.7916   19.9850 C   0  0  0  0  0  0  0  0  0  0  0  0
  -29.3594  -26.8245   21.2657 C   0  0  0  0  0  0  0  0  0  0  0  0
  -16.1249  -21.4698   23.7409 C   0  0  0  0  0  0  0  0  0  0  0  0
  -16.3116  -22.9614   23.7562 C   0  0  0  0  0  0  0  0  0  0  0  0
  -27.2039  -19.4123   19.5199 C   0  0  0  0  0  0  0  0  0  0  0  0
  -27.0531  -21.1832   21.3235 C   0  0  0  0  0  0  0  0  0  0  0  0
  -25.1153  -19.7195   20.9092 C   0  0  0  0  0  0  0  0  0  0  0  0
  -27.9805  -26.7099   20.6045 C   0  0  1  0  0  0  0  0  0  0  0  0
  -26.2412  -30.0779   20.8582 C   0  0  1  0  0  0  0  0  0  0  0  0
  -16.7840  -22.1569   22.5771 C   0  0  0  0  0  0  0  0  0  0  0  0
  -25.6661  -19.3094   19.5337 C   0  0  2  0  0  0  0  0  0  0  0  0
  -24.2035  -36.2499   25.0722 C   0  0  0  0  0  0  0  0  0  0  0  0
  -26.7544  -30.1490   25.4508 C   0  0  0  0  0  0  0  0  0  0  0  0
  -25.7974  -32.1500   26.6122 C   0  0  0  0  0  0  0  0  0  0  0  0
  -27.9001  -32.3660   25.2875 C   0  0  0  0  0  0  0  0  0  0  0  0
  -23.0853  -35.4522   21.5240 C   0  0  0  0  0  0  0  0  0  0  0  0
  -19.2234  -25.7537   22.2545 C   0  0  0  0  0  0  0  0  0  0  0  0
  -18.2653  -21.9751   22.3231 C   0  0  0  0  0  0  0  0  0  0  0  0
  -18.6071  -26.2940   20.9623 C   0  0  0  0  0  0  0  0  0  0  0  0
  -19.5951  -27.0730   20.1019 C   0  0  0  0  0  0  0  0  0  1  0  0
  -25.6995  -32.0655   24.0796 C   0  0  1  0  0  0  0  0  0  0  0  0
  -24.2719  -35.5586   23.7193 C   0  0  2  0  0  0  0  0  0  0  0  0
  -26.5230  -31.6691   25.3374 C   0  0  0  0  0  0  0  0  0  0  0  0
  -25.5371  -16.8698   19.8702 N   0  0  0  0  0  0  0  0  0  0  0  0
  -25.1913  -17.9292   19.1192 N   0  0  0  0  0  0  0  0  0  0  0  0
  -25.5959  -30.7206   22.0048 N   0  0  0  0  0  0  0  0  0  0  0  0
  -25.5947  -21.0655   21.2604 N   0  0  0  0  0  0  0  0  0  0  0  0
  -23.9902  -18.5557   17.1761 N   0  0  0  0  0  0  0  0  0  0  0  0
  -23.4494  -14.0748   17.3359 N   0  0  0  0  0  0  0  0  0  0  0  0
  -23.4218  -21.9703   21.4092 N   0  0  0  0  0  0  0  0  0  0  0  0
  -27.4234  -28.0241   20.3661 N   0  0  0  0  0  0  0  0  0  0  0  0
  -25.4881  -33.5015   23.9319 N   0  0  0  0  0  0  0  0  0  0  0  0
  -23.1285  -36.0342   22.8902 N   0  3  0  0  0  0  0  0  0  0  0  0
  -22.9509  -15.9691   16.1435 O   0  0  0  0  0  0  0  0  0  0  0  0
  -26.4889  -28.3709   22.4706 O   0  0  0  0  0  0  0  0  0  0  0  0
  -27.4745  -32.0072   22.5071 O   0  0  0  0  0  0  0  0  0  0  0  0
  -23.1708  -33.4179   23.9244 O   0  0  0  0  0  0  0  0  0  0  0  0
  -25.2867  -23.2863   21.8236 O   0  0  0  0  0  0  0  0  0  0  0  0
  -25.5213  -10.6434   21.2047 O   0  0  0  0  0  0  0  0  0  0  0  0
  -18.7278  -23.0374   21.4916 O   0  0  0  0  0  0  0  0  0  0  0  0
  -20.0956  -28.1729   20.8609 O   0  0  0  0  0  0  0  0  0  1  0  0
  -21.0072   -7.4821   21.3868 F   0  0  0  0  0  0  0  0  0  0  0  0
  -24.6041   -9.6174   23.6023 F   0  0  0  0  0  0  0  0  0  0  0  0
  1  2  1  0  0  0  0
  1  5  2  0  0  0  0
  2  6  2  0  0  0  0
  3 10  2  0  0  0  0
  3 18  1  0  0  0  0
  4 11  1  0  0  0  0
  4 18  2  0  0  0  0
  5 20  1  0  0  0  0
  6 22  1  0  0  0  0
  7 12  2  0  0  0  0
  7 21  1  0  0  0  0
  8  9  2  0  0  0  0
  8 24  1  0  0  0  0
  9 25  1  0  0  0  0
 10 26  1  0  0  0  0
 11 26  2  0  0  0  0
 12 27  1  0  0  0  0
 13 14  2  0  0  0  0
 13 28  1  0  0  0  0
 14 30  1  0  0  0  0
 15 23  1  0  0  0  0
 15 27  2  0  0  0  0
 16 25  2  0  0  0  0
 16 29  1  0  0  0  0
 17 30  2  0  0  0  0
 17 31  1  0  0  0  0
 18 32  1  0  0  0  0
 19 32  1  0  0  0  0
 19 33  2  0  0  0  0
 19 34  1  0  0  0  0
 20 22  2  0  0  0  0
 20 39  1  0  0  0  0
 21 23  2  0  0  0  0
 21 40  1  0  0  0  0
 22 50  1  0  0  0  0
 23 41  1  0  0  0  0
 24 29  2  0  0  0  0
 24 59  1  0  0  0  0
 25 72  1  0  0  0  0
 26 81  1  0  0  0  0
 27 83  1  0  0  0  0
 28 31  2  0  0  0  0
 28 81  1  0  0  0  0
 29 82  1  0  0  0  0
 30 84  1  0  0  0  0
 31 85  1  0  0  0  0
 32 66  2  0  0  0  0
 33 67  1  0  0  0  0
 33 70  1  0  0  0  0
 34 71  1  0  0  0  0
 34 76  2  0  0  0  0
 35 51  1  0  0  0  0
 35 73  1  0  0  0  0
 35 77  2  0  0  0  0
 36 63  1  0  0  0  0
 36 68  1  0  0  0  0
 36 78  2  0  0  0  0
 37 64  1  0  0  0  0
 37 74  1  0  0  0  0
 37 79  2  0  0  0  0
 38 69  1  0  0  0  0
 38 72  1  0  0  0  0
 38 80  2  0  0  0  0
 39 42  1  0  0  0  0
 40 51  1  0  0  0  0
 41 68  1  0  0  0  0
 42 44  1  0  0  0  0
 43 47  1  0  0  0  0
 43 48  1  0  0  0  0
 44 50  1  0  0  0  0
 45 46  1  0  0  0  0
 45 52  1  0  0  0  0
 46 52  1  0  0  0  0
 47 53  1  0  0  0  0
 48 69  1  0  0  0  0
 49 53  1  0  0  0  0
 49 69  1  0  0  0  0
 50 73  1  0  0  0  0
 51 68  1  0  0  0  0
 52 60  1  0  0  0  0
 53 67  1  0  0  0  0
 54 64  1  0  0  0  0
 55 65  1  0  0  0  0
 56 65  1  0  0  0  0
 57 65  1  0  0  0  0
 58 75  1  0  0  0  0
 59 61  1  0  0  0  0
 60 82  1  0  0  0  0
 61 62  1  0  0  0  0
 62 83  1  0  0  0  0
 63 65  1  0  0  0  0
 63 74  1  0  0  0  0
 64 75  1  0  0  0  0
 66 67  1  0  0  0  0
M  CHG  1  75   1
M  ISO  4  38 100  62 101  72 100  83 101
M  END
> <Batch ID>
0148

> <Smiles>
CNC(C)C(=O)NC(C(=O)N1Cc2cc([101O:1][101CH2:1]CCc3ccc([100NH:0][100C:0](=O)N4CCCC(n5nc(-c6ccc(Oc7ccc(F)cc7F)cc6)c(C(N)=O)c5N)C4)cc3OCC3CC3)ccc2CC1C(=O)NC1CCCc2ccccc21)C(C)(C)C

> <Shape>
0.291

> <Color>
0.092

> <Negative vol penalty>
0.000

$$$$

  -OEChem-04052321363D

 90100  0     1  0  0  0  0  0999 V2000
  -28.1533  -36.7864   21.5483 C   0  0  0  0  0  0  0  0  0  0  0  0
  -28.3066  -35.6150   20.8136 C   0  0  0  0  0  0  0  0  0  0  0  0
  -23.9936   -9.6689   22.4063 C   0  0  0  0  0  0  0  0  0  0  0  0
  -23.3501  -10.1716   20.1325 C   0  0  0  0  0  0  0  0  0  0  0  0
  -27.7807  -36.7225   22.8903 C   0  0  0  0  0  0  0  0  0  0  0  0
  -28.0884  -34.3789   21.4209 C   0  0  0  0  0  0  0  0  0  0  0  0
  -25.7178  -29.3667   18.8200 C   0  0  0  0  0  0  0  0  0  0  0  0
  -23.0692   -8.6249   22.4371 C   0  0  0  0  0  0  0  0  0  0  0  0
  -22.4257   -9.1275   20.1633 C   0  0  0  0  0  0  0  0  0  0  0  0
  -26.3047  -28.2231   18.2804 C   0  0  0  0  0  0  0  0  0  0  0  0
  -22.8683   -5.4418   21.3143 C   0  0  0  0  0  0  0  0  0  0  0  0
  -23.2832   -4.2244   21.8540 C   0  0  0  0  0  0  0  0  0  0  0  0
  -25.9729  -27.0721   20.3743 C   0  0  0  0  0  0  0  0  0  0  0  0
  -32.5085  -21.5829   20.2318 C   0  0  0  0  0  0  0  0  0  0  0  0
  -21.5505   -4.3773   23.5307 C   0  0  0  0  0  0  0  0  0  0  0  0
  -24.1341  -10.4424   21.2540 C   0  0  0  0  0  0  0  0  0  0  0  0
  -26.4814  -11.4300   21.4032 C   0  0  0  0  0  0  0  0  0  0  0  0
  -27.5484  -35.4853   23.5117 C   0  0  0  0  0  0  0  0  0  0  0  0
  -25.2631  -29.3751   20.1465 C   0  0  0  0  0  0  0  0  0  0  0  0
  -27.7136  -34.2983   22.7728 C   0  0  0  0  0  0  0  0  0  0  0  0
  -25.3783  -28.2163   20.9276 C   0  0  0  0  0  0  0  0  0  0  0  0
  -33.3123  -20.6878   19.4837 C   0  0  0  0  0  0  0  0  0  0  0  0
  -22.2853   -8.3541   21.3156 C   0  0  0  0  0  0  0  0  0  0  0  0
  -26.4350  -27.0764   19.0584 C   0  0  0  0  0  0  0  0  0  0  0  0
  -21.7945   -6.1271   21.8828 C   0  0  0  0  0  0  0  0  0  0  0  0
  -22.6243   -3.6921   22.9622 C   0  0  0  0  0  0  0  0  0  0  0  0
  -21.1356   -5.5948   22.9910 C   0  0  0  0  0  0  0  0  0  0  0  0
  -25.0884  -11.5214   21.2217 C   0  0  0  0  0  0  0  0  0  0  0  0
  -31.2181  -21.1021   20.1995 C   0  0  0  0  0  0  0  0  0  0  0  0
  -32.4886  -19.6874   19.0167 C   0  0  0  0  0  0  0  0  0  0  0  0
  -26.9293  -12.7225   21.2801 C   0  0  0  0  0  0  0  0  0  0  0  0
  -27.2976  -10.2795   21.6600 C   0  0  0  0  0  0  0  0  0  0  0  0
  -26.0063  -31.0214   22.7621 C   0  0  0  0  0  0  0  0  0  0  0  0
  -23.4704  -29.4310   24.0119 C   0  0  0  0  0  0  0  0  0  0  0  0
  -21.4142  -26.7097   23.8965 C   0  0  0  0  0  0  0  0  0  0  0  0
  -26.7110  -17.5109   18.2593 C   0  0  0  0  0  0  0  0  0  0  0  0
  -27.1933  -35.4645   24.9774 C   0  0  0  0  0  0  0  0  0  0  0  0
  -24.6080  -30.6084   20.7054 C   0  0  0  0  0  0  0  0  0  0  0  0
  -24.8878  -28.1673   22.3508 C   0  0  0  0  0  0  0  0  0  0  0  0
  -26.6164  -34.1309   25.4454 C   0  0  0  0  0  0  0  0  0  0  0  0
  -24.4051  -17.0964   21.1071 C   0  0  0  0  0  0  0  0  0  0  0  0
  -27.4590  -32.9718   24.9226 C   0  0  0  0  0  0  0  0  0  0  0  0
  -27.7726  -22.7306   20.3097 C   0  0  0  0  0  0  0  0  0  0  0  0
  -29.9256  -23.9910   19.8953 C   0  0  0  0  0  0  0  0  0  0  0  0
  -24.4523  -15.5897   21.3604 C   0  0  0  0  0  0  0  0  0  0  0  0
  -27.0220  -23.7341   19.4395 C   0  0  0  0  0  0  0  0  0  0  0  0
  -29.1689  -24.9914   19.0267 C   0  0  0  0  0  0  0  0  0  0  0  0
  -30.1103  -17.6757   19.7512 C   0  0  0  0  0  0  0  0  0  0  0  0
  -29.6702  -19.0537   17.6601 C   0  0  0  0  0  0  0  0  0  0  0  0
  -24.6661  -17.4357   19.6419 C   0  0  0  0  0  0  0  0  0  0  0  0
  -28.8048  -16.8906   19.5560 C   0  0  0  0  0  0  0  0  0  0  0  0
  -28.9512  -17.7666   17.2505 C   0  0  0  0  0  0  0  0  0  0  0  0
  -25.9659  -15.3563   19.3541 C   0  0  0  0  0  0  0  0  0  0  0  0
  -27.4618  -32.9394   23.3895 C   0  0  1  0  0  0  0  0  0  0  0  0
  -24.6468  -30.6672   22.2293 C   0  0  1  0  0  0  0  0  0  0  0  0
  -29.2461  -22.6145   19.8956 C   0  0  0  0  0  0  0  0  0  0  0  0
  -25.7628  -14.9812   20.8292 C   0  0  2  0  0  0  0  0  0  0  0  0
  -29.9981  -19.0963   19.1698 C   0  0  0  0  0  0  0  0  0  0  0  0
  -27.7024  -25.1004   19.4389 C   0  0  0  0  0  0  0  0  0  1  0  0
  -34.7653  -20.8113   19.2524 C   0  0  0  0  0  0  0  0  0  0  0  0
  -32.8027  -18.5039   18.1880 C   0  0  0  0  0  0  0  0  0  0  0  0
  -19.4566  -25.6686   25.0716 C   0  0  0  0  0  0  0  0  0  0  0  0
  -25.3110  -28.5250   26.2704 C   0  0  0  0  0  0  0  0  0  0  0  0
  -23.6174  -26.7764   26.8554 C   0  0  0  0  0  0  0  0  0  0  0  0
  -23.0142  -29.1925   27.0007 C   0  0  0  0  0  0  0  0  0  0  0  0
  -19.7305  -26.8547   21.4669 C   0  0  0  0  0  0  0  0  0  0  0  0
  -29.9897  -21.6463   20.8139 C   0  0  0  0  0  0  0  0  0  0  0  0
  -23.2808  -28.1160   24.7287 C   0  0  1  0  0  0  0  0  0  0  0  0
  -19.9019  -26.5871   23.9443 C   0  0  2  0  0  0  0  0  0  0  0  0
  -23.8170  -28.1537   26.1876 C   0  0  0  0  0  0  0  0  0  0  0  0
  -24.6783  -12.7732   21.0004 N   0  0  0  0  0  0  0  0  0  0  0  0
  -31.2179  -19.9497   19.4577 N   0  0  0  0  0  0  0  0  0  0  0  0
  -25.8204  -13.4802   21.0420 N   0  0  0  0  0  0  0  0  0  0  0  0
  -24.2602  -29.4004   22.8538 N   0  0  0  0  0  0  0  0  0  0  0  0
  -25.9002  -16.8112   19.1652 N   0  0  0  0  0  0  0  0  0  0  0  0
  -28.0951  -17.2807   18.3278 N   0  0  0  0  0  0  0  0  0  0  0  0
  -28.1595  -13.2736   21.3535 N   0  0  0  0  0  0  0  0  0  0  0  0
  -27.8249   -9.5771   20.5677 N   0  0  0  0  0  0  0  0  0  0  0  0
  -26.2227  -32.3798   22.8935 N   0  0  0  0  0  0  0  0  0  0  0  0
  -21.8620  -27.7936   24.6216 N   0  0  0  0  0  0  0  0  0  0  0  0
  -19.3858  -26.0376   22.6587 N   0  3  0  0  0  0  0  0  0  0  0  0
  -27.5383   -9.8763   22.8232 O   0  0  0  0  0  0  0  0  0  0  0  0
  -26.7997  -30.1283   23.0352 O   0  0  0  0  0  0  0  0  0  0  0  0
  -22.9314  -30.4466   24.4588 O   0  0  0  0  0  0  0  0  0  0  0  0
  -22.1274  -25.9205   23.2807 O   0  0  0  0  0  0  0  0  0  0  0  0
  -26.2285  -18.3168   17.4533 O   0  0  0  0  0  0  0  0  0  0  0  0
  -21.3833   -7.3352   21.3452 O   0  0  0  0  0  0  0  0  0  0  0  0
  -27.0119  -25.9516   18.5309 O   0  0  0  0  0  0  0  0  0  1  0  0
  -23.0218   -2.5223   23.4795 F   0  0  0  0  0  0  0  0  0  0  0  0
  -20.1026   -6.2479   23.5407 F   0  0  0  0  0  0  0  0  0  0  0  0
  1  2  1  0  0  0  0
  1  5  2  0  0  0  0
  2  6  2  0  0  0  0
  3  8  2  0  0  0  0
  3 16  1  0  0  0  0
  4  9  1  0  0  0  0
  4 16  2  0  0  0  0
  5 18  1  0  0  0  0
  6 20  1  0  0  0  0
  7 10  2  0  0  0  0
  7 19  1  0  0  0  0
  8 23  1  0  0  0  0
  9 23  2  0  0  0  0
 10 24  1  0  0  0  0
 11 12  2  0  0  0  0
 11 25  1  0  0  0  0
 12 26  1  0  0  0  0
 13 21  1  0  0  0  0
 13 24  2  0  0  0  0
 14 22  1  0  0  0  0
 14 29  2  0  0  0  0
 15 26  2  0  0  0  0
 15 27  1  0  0  0  0
 16 28  1  0  0  0  0
 17 28  1  0  0  0  0
 17 31  2  0  0  0  0
 17 32  1  0  0  0  0
 18 20  2  0  0  0  0
 18 37  1  0  0  0  0
 19 21  2  0  0  0  0
 19 38  1  0  0  0  0
 20 54  1  0  0  0  0
 21 39  1  0  0  0  0
 22 30  2  0  0  0  0
 22 60  1  0  0  0  0
 23 87  1  0  0  0  0
 24 88  1  0  0  0  0
 25 27  2  0  0  0  0
 25 87  1  0  0  0  0
 26 89  1  0  0  0  0
 27 90  1  0  0  0  0
 28 71  2  0  0  0  0
 29 67  1  0  0  0  0
 29 72  1  0  0  0  0
 30 61  1  0  0  0  0
 30 72  1  0  0  0  0
 31 73  1  0  0  0  0
 31 77  1  0  0  0  0
 32 78  1  0  0  0  0
 32 82  2  0  0  0  0
 33 55  1  0  0  0  0
 33 79  1  0  0  0  0
 33 83  2  0  0  0  0
 34 68  1  0  0  0  0
 34 74  1  0  0  0  0
 34 84  2  0  0  0  0
 35 69  1  0  0  0  0
 35 80  1  0  0  0  0
 35 85  2  0  0  0  0
 36 75  1  0  0  0  0
 36 76  1  0  0  0  0
 36 86  2  0  0  0  0
 37 40  1  0  0  0  0
 38 55  1  0  0  0  0
 39 74  1  0  0  0  0
 40 42  1  0  0  0  0
 41 45  1  0  0  0  0
 41 50  1  0  0  0  0
 42 54  1  0  0  0  0
 43 46  1  0  0  0  0
 43 56  1  0  0  0  0
 44 47  1  0  0  0  0
 44 56  1  0  0  0  0
 45 57  1  0  0  0  0
 46 59  1  0  0  0  0
 47 59  1  0  0  0  0
 48 51  1  0  0  0  0
 48 58  1  0  0  0  0
 49 52  1  0  0  0  0
 49 58  1  0  0  0  0
 50 75  1  0  0  0  0
 51 76  1  0  0  0  0
 52 76  1  0  0  0  0
 53 57  1  0  0  0  0
 53 75  1  0  0  0  0
 54 79  1  0  0  0  0
 55 74  1  0  0  0  0
 56 67  1  0  0  0  0
 57 73  1  0  0  0  0
 58 72  1  0  0  0  0
 59 88  1  0  0  0  0
 62 69  1  0  0  0  0
 63 70  1  0  0  0  0
 64 70  1  0  0  0  0
 65 70  1  0  0  0  0
 66 81  1  0  0  0  0
 68 70  1  0  0  0  0
 68 80  1  0  0  0  0
 69 81  1  0  0  0  0
 71 73  1  0  0  0  0
M  CHG  1  81   1
M  ISO  4  36 100  59 101  76 100  88 101
M  END
> <Batch ID>
0148

> <Smiles>
CNC(C)C(=O)NC(C(=O)N1Cc2cc([101O:1][101CH:1]3CCC(Cc4cc(C)c(C)n4C4CC[100N:0]([100C:0](=O)N5CCCC(n6nc(-c7ccc(Oc8ccc(F)cc8F)cc7)c(C(N)=O)c6N)C5)CC4)CC3)ccc2CC1C(=O)NC1CCCc2ccccc21)C(C)(C)C

> <Shape>
0.295

> <Color>
0.072

> <Negative vol penalty>
0.000

$$$$

  -OEChem-04052321363D

 91100  0     1  0  0  0  0  0999 V2000
  -22.6129  -19.0730   23.4859 C   0  0  0  0  0  0  0  0  0  0  0  0
  -23.8000  -19.6065   23.9775 C   0  0  0  0  0  0  0  0  0  0  0  0
  -23.1028   -9.8290   19.9470 C   0  0  0  0  0  0  0  0  0  0  0  0
  -23.7682   -9.9329   22.2672 C   0  0  0  0  0  0  0  0  0  0  0  0
  -21.8880  -19.7646   22.5163 C   0  0  0  0  0  0  0  0  0  0  0  0
  -24.2634  -20.8315   23.4989 C   0  0  0  0  0  0  0  0  0  0  0  0
  -25.8671  -23.8850   27.2069 C   0  0  0  0  0  0  0  0  0  0  0  0
  -22.3766   -8.6670   20.2072 C   0  0  0  0  0  0  0  0  0  0  0  0
  -23.0418   -8.7708   22.5275 C   0  0  0  0  0  0  0  0  0  0  0  0
  -27.1273  -23.6264   27.7443 C   0  0  0  0  0  0  0  0  0  0  0  0
  -23.4329   -5.4400   22.0989 C   0  0  0  0  0  0  0  0  0  0  0  0
  -24.0424   -4.4553   22.8764 C   0  0  0  0  0  0  0  0  0  0  0  0
  -28.0602  -25.3916   26.3905 C   0  0  0  0  0  0  0  0  0  0  0  0
  -30.1464  -18.6197   24.0460 C   0  0  0  0  0  0  0  0  0  0  0  0
  -31.8179  -16.8644   22.6647 C   0  0  0  0  0  0  0  0  0  0  0  0
  -22.2692   -4.6447   24.5064 C   0  0  0  0  0  0  0  0  0  0  0  0
  -23.7987  -10.4620   20.9770 C   0  0  0  0  0  0  0  0  0  0  0  0
  -24.0860  -12.9893   20.7823 C   0  0  0  0  0  0  0  0  0  0  0  0
  -22.3377  -21.0033   22.0326 C   0  0  0  0  0  0  0  0  0  0  0  0
  -25.6957  -24.8932   26.2475 C   0  0  0  0  0  0  0  0  0  0  0  0
  -23.5445  -21.5397   22.5209 C   0  0  0  0  0  0  0  0  0  0  0  0
  -26.7963  -25.6627   25.8443 C   0  0  0  0  0  0  0  0  0  0  0  0
  -31.5258  -18.6656   24.2482 C   0  0  0  0  0  0  0  0  0  0  0  0
  -32.3615  -17.7880   23.5576 C   0  0  0  0  0  0  0  0  0  0  0  0
  -30.4385  -16.8185   22.4625 C   0  0  0  0  0  0  0  0  0  0  0  0
  -22.3460   -8.1379   21.4975 C   0  0  0  0  0  0  0  0  0  0  0  0
  -28.2246  -24.3779   27.3340 C   0  0  0  0  0  0  0  0  0  0  0  0
  -22.2415   -6.0272   22.5252 C   0  0  0  0  0  0  0  0  0  0  0  0
  -29.6028  -17.6960   23.1531 C   0  0  0  0  0  0  0  0  0  0  0  0
  -23.4605   -4.0576   24.0801 C   0  0  0  0  0  0  0  0  0  0  0  0
  -21.6597   -5.6295   23.7290 C   0  0  0  0  0  0  0  0  0  0  0  0
  -24.5496  -11.6621   20.7086 C   0  0  0  0  0  0  0  0  0  0  0  0
  -25.1742  -13.7528   20.4370 C   0  0  0  0  0  0  0  0  0  0  0  0
  -22.7877  -13.4874   21.1318 C   0  0  0  0  0  0  0  0  0  0  0  0
  -24.7347  -24.9674   23.2185 C   0  0  0  0  0  0  0  0  0  0  0  0
  -24.9408  -28.1773   23.6392 C   0  0  0  0  0  0  0  0  0  0  0  0
  -26.3082  -30.7928   25.3527 C   0  0  0  0  0  0  0  0  0  0  0  0
  -30.6028  -14.9388   20.7932 C   0  0  0  0  0  0  0  0  0  0  0  0
  -21.5444  -21.6913   20.9500 C   0  0  0  0  0  0  0  0  0  0  0  0
  -24.3250  -25.1775   25.6972 C   0  0  0  0  0  0  0  0  0  0  0  0
  -26.6617  -26.7699   24.8322 C   0  0  0  0  0  0  0  0  0  0  0  0
  -21.9106  -23.1619   20.7677 C   0  0  0  0  0  0  0  0  0  0  0  0
  -29.6427  -12.4189   18.4683 C   0  0  0  0  0  0  0  0  0  0  0  0
  -23.4258  -23.3338   20.7285 C   0  0  0  0  0  0  0  0  0  0  0  0
  -28.1939  -12.1065   18.8500 C   0  0  0  0  0  0  0  0  0  0  0  0
  -31.7519  -21.0917   24.7483 C   0  0  0  0  0  0  0  0  0  0  0  0
  -31.5329  -19.4097   26.6217 C   0  0  0  0  0  0  0  0  0  0  0  0
  -30.5024  -12.7111   19.6968 C   0  0  0  0  0  0  0  0  0  0  0  0
  -28.5243  -13.4347   20.9746 C   0  0  0  0  0  0  0  0  0  0  0  0
  -32.2372  -22.1308   25.7509 C   0  0  0  0  0  0  0  0  0  0  0  0
  -32.0202  -20.4616   27.6099 C   0  0  0  0  0  0  0  0  0  0  0  0
  -32.0853  -19.6638   25.2098 C   0  0  0  0  0  0  0  0  0  0  0  0
  -24.0670  -22.8777   22.0447 C   0  0  1  0  0  0  0  0  0  0  0  0
  -24.3584  -25.8860   24.3466 C   0  0  1  0  0  0  0  0  0  0  0  0
  -27.6046  -13.1974   19.7656 C   0  0  2  0  0  0  0  0  0  0  0  0
  -33.8411  -17.8186   23.7584 C   0  0  0  0  0  0  0  0  0  0  0  0
  -26.4258  -18.4901   21.6591 C   0  0  0  0  0  0  0  0  0  0  0  0
  -26.3136  -33.3006   25.4439 C   0  0  0  0  0  0  0  0  0  0  0  0
  -31.3678  -24.0105   30.3123 C   0  0  0  0  0  0  0  0  0  0  0  0
  -26.7253  -28.2609   21.1657 C   0  0  0  0  0  0  0  0  0  0  0  0
  -27.4510  -30.5565   21.8525 C   0  0  0  0  0  0  0  0  0  0  0  0
  -25.0559  -30.1174   21.3109 C   0  0  0  0  0  0  0  0  0  0  0  0
  -25.2566  -30.8102   28.1191 C   0  0  0  0  0  0  0  0  0  0  0  0
  -31.9895  -22.9041   28.1079 C   0  0  0  0  0  0  0  0  0  0  0  0
  -27.6397  -18.8600   22.4845 C   0  0  0  0  0  0  0  0  0  0  0  0
  -29.5512  -23.0796   28.8208 C   0  0  0  0  0  0  0  0  0  1  0  0
  -26.0265  -29.2111   23.4624 C   0  0  1  0  0  0  0  0  0  0  0  0
  -25.6806  -32.0253   25.9784 C   0  0  2  0  0  0  0  0  0  0  0  0
  -31.0062  -22.9332   29.2837 C   0  0  2  0  0  0  0  0  0  0  0  0
  -26.3179  -29.5144   21.9655 C   0  0  0  0  0  0  0  0  0  0  0  0
  -25.8323  -11.5834   20.3448 N   0  0  0  0  0  0  0  0  0  0  0  0
  -26.1841  -12.8708   20.1868 N   0  0  0  0  0  0  0  0  0  0  0  0
  -25.3022  -27.0053   24.3187 N   0  0  0  0  0  0  0  0  0  0  0  0
  -29.8841  -13.7570   20.5145 N   0  0  0  0  0  0  0  0  0  0  0  0
  -25.3562  -15.0858   20.3258 N   0  0  0  0  0  0  0  0  0  0  0  0
  -21.7845  -12.5654   21.4600 N   0  0  0  0  0  0  0  0  0  0  0  0
  -29.9011  -15.8749   21.5522 N   0  0  0  0  0  0  0  0  0  0  0  0
  -23.8895  -23.8846   23.0690 N   0  0  0  0  0  0  0  0  0  0  0  0
  -25.6121  -30.3751   24.2382 N   0  0  0  0  0  0  0  0  0  0  0  0
  -31.6495  -21.8506   27.1222 N   0  3  0  0  0  0  0  0  0  0  0  0
  -25.8530  -31.9997   27.4585 N   0  3  0  0  0  0  0  0  0  0  0  0
  -22.5206  -14.7130   21.1365 O   0  0  0  0  0  0  0  0  0  0  0  0
  -25.7182  -25.2231   22.5336 O   0  0  0  0  0  0  0  0  0  0  0  0
  -23.8117  -28.4043   23.1973 O   0  0  0  0  0  0  0  0  0  0  0  0
  -27.3173  -30.2566   25.8051 O   0  0  0  0  0  0  0  0  0  0  0  0
  -31.7458  -15.1195   20.3655 O   0  0  0  0  0  0  0  0  0  0  0  0
  -21.6372   -7.0041   21.7519 O   0  0  0  0  0  0  0  0  0  0  0  0
  -29.4559  -24.1271   27.8565 O   0  0  0  0  0  0  0  0  0  1  0  0
  -28.2525  -17.6674   22.9696 O   0  0  0  0  0  0  0  0  0  0  0  0
  -24.0451   -3.1109   24.8258 F   0  0  0  0  0  0  0  0  0  0  0  0
  -20.5146   -6.1891   24.1431 F   0  0  0  0  0  0  0  0  0  0  0  0
  1  2  1  0  0  0  0
  1  5  2  0  0  0  0
  2  6  2  0  0  0  0
  3  8  2  0  0  0  0
  3 17  1  0  0  0  0
  4  9  1  0  0  0  0
  4 17  2  0  0  0  0
  5 19  1  0  0  0  0
  6 21  1  0  0  0  0
  7 10  2  0  0  0  0
  7 20  1  0  0  0  0
  8 26  1  0  0  0  0
  9 26  2  0  0  0  0
 10 27  1  0  0  0  0
 11 12  2  0  0  0  0
 11 28  1  0  0  0  0
 12 30  1  0  0  0  0
 13 22  1  0  0  0  0
 13 27  2  0  0  0  0
 14 23  2  0  0  0  0
 14 29  1  0  0  0  0
 15 24  2  0  0  0  0
 15 25  1  0  0  0  0
 16 30  2  0  0  0  0
 16 31  1  0  0  0  0
 17 32  1  0  0  0  0
 18 32  1  0  0  0  0
 18 33  2  0  0  0  0
 18 34  1  0  0  0  0
 19 21  2  0  0  0  0
 19 39  1  0  0  0  0
 20 22  2  0  0  0  0
 20 40  1  0  0  0  0
 21 53  1  0  0  0  0
 22 41  1  0  0  0  0
 23 24  1  0  0  0  0
 23 52  1  0  0  0  0
 24 56  1  0  0  0  0
 25 29  2  0  0  0  0
 25 77  1  0  0  0  0
 26 87  1  0  0  0  0
 27 88  1  0  0  0  0
 28 31  2  0  0  0  0
 28 87  1  0  0  0  0
 29 89  1  0  0  0  0
 30 90  1  0  0  0  0
 31 91  1  0  0  0  0
 32 71  2  0  0  0  0
 33 72  1  0  0  0  0
 33 75  1  0  0  0  0
 34 76  1  0  0  0  0
 34 82  2  0  0  0  0
 35 54  1  0  0  0  0
 35 78  1  0  0  0  0
 35 83  2  0  0  0  0
 36 67  1  0  0  0  0
 36 73  1  0  0  0  0
 36 84  2  0  0  0  0
 37 68  1  0  0  0  0
 37 79  1  0  0  0  0
 37 85  2  0  0  0  0
 38 74  1  0  0  0  0
 38 77  1  0  0  0  0
 38 86  2  0  0  0  0
 39 42  1  0  0  0  0
 40 54  1  0  0  0  0
 41 73  1  0  0  0  0
 42 44  1  0  0  0  0
 43 45  1  0  0  0  0
 43 48  1  0  0  0  0
 44 53  1  0  0  0  0
 45 55  1  0  0  0  0
 46 50  1  0  0  0  0
 46 52  1  0  0  0  0
 47 51  1  0  0  0  0
 47 52  1  0  0  0  0
 48 74  1  0  0  0  0
 49 55  1  0  0  0  0
 49 74  1  0  0  0  0
 50 80  1  0  0  0  0
 51 80  1  0  0  0  0
 53 78  1  0  0  0  0
 54 73  1  0  0  0  0
 55 72  1  0  0  0  0
 57 65  1  0  0  0  0
 58 68  1  0  0  0  0
 59 69  1  0  0  0  0
 60 70  1  0  0  0  0
 61 70  1  0  0  0  0
 62 70  1  0  0  0  0
 63 81  1  0  0  0  0
 64 69  1  0  0  0  0
 64 80  1  0  0  0  0
 65 89  1  0  0  0  0
 66 69  1  0  0  0  0
 66 88  1  0  0  0  0
 67 70  1  0  0  0  0
 67 79  1  0  0  0  0
 68 81  1  0  0  0  0
 71 72  1  0  0  0  0
M  CHG  2  80   1  81   1
M  ISO  4  38 100  66 101  77 100  88 101
M  END
> <Batch ID>
0148

> <Smiles>
CCOc1cc(C2CCN(CC(C)[101CH2:1][101O:1]c3ccc4c(c3)CN(C(=O)C(NC(=O)C(C)NC)C(C)(C)C)C(C(=O)NC3CCCc5ccccc53)C4)CC2)c(C)cc1[100NH:0][100C:0](=O)N1CCCC(n2nc(-c3ccc(Oc4ccc(F)cc4F)cc3)c(C(N)=O)c2N)C1

> <Shape>
0.238

> <Color>
0.198

> <Negative vol penalty>
0.000

$$$$

  -OEChem-04052321363D

 90 99  0     1  0  0  0  0  0999 V2000
  -26.2329  -28.1846   26.0059 C   0  0  0  0  0  0  0  0  0  0  0  0
  -26.2888  -26.9351   25.3968 C   0  0  0  0  0  0  0  0  0  0  0  0
  -22.0506  -24.7198   20.3921 C   0  0  0  0  0  0  0  0  0  0  0  0
  -22.6925  -23.4322   22.3331 C   0  0  0  0  0  0  0  0  0  0  0  0
  -26.5367  -29.3306   25.2723 C   0  0  0  0  0  0  0  0  0  0  0  0
  -26.6474  -26.8310   24.0533 C   0  0  0  0  0  0  0  0  0  0  0  0
  -29.9703  -23.1031   23.2128 C   0  0  0  0  0  0  0  0  0  0  0  0
  -21.6930  -25.7858   21.2176 C   0  0  0  0  0  0  0  0  0  0  0  0
  -22.3349  -24.4982   23.1585 C   0  0  0  0  0  0  0  0  0  0  0  0
  -29.4709  -21.8021   23.1728 C   0  0  0  0  0  0  0  0  0  0  0  0
  -19.0903  -26.6371   23.1989 C   0  0  0  0  0  0  0  0  0  0  0  0
  -17.8799  -27.2795   22.9388 C   0  0  0  0  0  0  0  0  0  0  0  0
  -29.5002  -21.8714   20.7617 C   0  0  0  0  0  0  0  0  0  0  0  0
  -28.4937  -14.9700   21.4949 C   0  0  0  0  0  0  0  0  0  0  0  0
  -26.1753  -15.6068   21.2573 C   0  0  0  0  0  0  0  0  0  0  0  0
  -19.0597  -29.3567   22.5781 C   0  0  0  0  0  0  0  0  0  0  0  0
  -22.5503  -23.5429   20.9499 C   0  0  0  0  0  0  0  0  0  0  0  0
  -24.1800  -22.1985   19.5201 C   0  0  0  0  0  0  0  0  0  0  0  0
  -26.9087  -29.2397   23.9218 C   0  0  0  0  0  0  0  0  0  0  0  0
  -30.2286  -23.8032   22.0255 C   0  0  0  0  0  0  0  0  0  0  0  0
  -26.9552  -27.9770   23.3006 C   0  0  0  0  0  0  0  0  0  0  0  0
  -30.0053  -23.1803   20.7893 C   0  0  0  0  0  0  0  0  0  0  0  0
  -28.1445  -13.6316   21.3149 C   0  0  0  0  0  0  0  0  0  0  0  0
  -25.8261  -14.2684   21.0773 C   0  0  0  0  0  0  0  0  0  0  0  0
  -21.8352  -25.6750   22.6007 C   0  0  0  0  0  0  0  0  0  0  0  0
  -29.2330  -21.1870   21.9471 C   0  0  0  0  0  0  0  0  0  0  0  0
  -20.2855  -27.3545   23.1487 C   0  0  0  0  0  0  0  0  0  0  0  0
  -27.5090  -15.9576   21.4661 C   0  0  0  0  0  0  0  0  0  0  0  0
  -26.8108  -13.2808   21.1061 C   0  0  0  0  0  0  0  0  0  0  0  0
  -17.8645  -28.6392   22.6283 C   0  0  0  0  0  0  0  0  0  0  0  0
  -20.2702  -28.7143   22.8383 C   0  0  0  0  0  0  0  0  0  0  0  0
  -22.9193  -22.4412   20.0978 C   0  0  0  0  0  0  0  0  0  0  0  0
  -24.0126  -21.0371   18.8061 C   0  0  0  0  0  0  0  0  0  0  0  0
  -25.3937  -22.9550   19.6201 C   0  0  0  0  0  0  0  0  0  0  0  0
  -29.1104  -26.4697   20.7053 C   0  0  0  0  0  0  0  0  0  0  0  0
  -31.4441  -25.9055   18.5240 C   0  0  0  0  0  0  0  0  0  0  0  0
  -33.5035  -23.6493   17.0025 C   0  0  0  0  0  0  0  0  0  0  0  0
  -20.2040  -16.4459   19.3229 C   0  0  0  0  0  0  0  0  0  0  0  0
  -27.1822  -30.5106   23.1570 C   0  0  0  0  0  0  0  0  0  0  0  0
  -30.7923  -25.1964   22.0857 C   0  0  0  0  0  0  0  0  0  0  0  0
  -30.2853  -23.8814   19.4860 C   0  0  0  0  0  0  0  0  0  0  0  0
  -27.9169  -30.2819   21.8386 C   0  0  0  0  0  0  0  0  0  0  0  0
  -20.6767  -18.5249   16.4713 C   0  0  0  0  0  0  0  0  0  0  0  0
  -30.3860  -12.7179   20.4122 C   0  0  0  0  0  0  0  0  0  0  0  0
  -29.3584  -11.6561   20.1738 C   0  0  0  0  0  0  0  0  0  0  0  0
  -27.2782  -29.1337   21.0637 C   0  0  0  0  0  0  0  0  0  0  0  0
  -21.4188  -19.7424   17.0253 C   0  0  0  0  0  0  0  0  0  0  0  0
  -19.6495  -17.9893   17.4663 C   0  0  0  0  0  0  0  0  0  0  0  0
  -20.9256  -18.9105   19.3627 C   0  0  0  0  0  0  0  0  0  0  0  0
  -29.2125  -12.5890   21.3464 C   0  0  0  0  0  0  0  0  0  0  0  0
  -27.3641  -27.8211   21.8520 C   0  0  1  0  0  0  0  0  0  0  0  0
  -30.5337  -26.0010   20.8156 C   0  0  1  0  0  0  0  0  0  0  0  0
  -22.0115  -19.4523   18.4173 C   0  0  2  0  0  0  0  0  0  0  0  0
  -35.2741  -23.4796   15.2323 C   0  0  0  0  0  0  0  0  0  0  0  0
  -29.2993  -26.1051   16.3630 C   0  0  0  0  0  0  0  0  0  0  0  0
  -30.8960  -25.0107   14.7752 C   0  0  0  0  0  0  0  0  0  0  0  0
  -31.4646  -27.2175   15.7897 C   0  0  0  0  0  0  0  0  0  0  0  0
  -35.5201  -22.6948   18.9471 C   0  0  0  0  0  0  0  0  0  0  0  0
  -26.1463  -11.2256   22.1014 C   0  0  0  0  0  0  0  0  0  0  0  0
  -23.3913  -14.7916   21.2304 C   0  0  0  0  0  0  0  0  0  0  0  0
  -20.8468  -15.0206   21.2501 C   0  0  0  0  0  0  0  0  0  0  0  0
  -29.1161  -19.1156   20.7847 C   0  0  0  0  0  0  0  0  0  1  0  0
  -29.1498  -17.6595   21.2071 C   0  0  0  0  0  0  0  0  0  0  0  0
  -31.5322  -25.1385   17.2267 C   0  0  1  0  0  0  0  0  0  0  0  0
  -34.9935  -23.6806   16.7134 C   0  0  2  0  0  0  0  0  0  0  0  0
  -22.0472  -14.1439   20.8944 C   0  0  2  0  0  0  0  0  0  0  0  0
  -30.7908  -25.8552   16.0631 C   0  0  0  0  0  0  0  0  0  0  0  0
  -22.0176  -21.5091   19.7783 N   0  0  0  0  0  0  0  0  0  0  0  0
  -22.7124  -20.6694   18.9920 N   0  0  0  0  0  0  0  0  0  0  0  0
  -30.8299  -25.2446   19.5973 N   0  0  0  0  0  0  0  0  0  0  0  0
  -20.2760  -17.7332   18.7654 N   0  0  0  0  0  0  0  0  0  0  0  0
  -24.8522  -20.3049   18.0436 N   0  0  0  0  0  0  0  0  0  0  0  0
  -25.3912  -24.1230   20.3948 N   0  0  0  0  0  0  0  0  0  0  0  0
  -24.4715  -13.9290   20.8674 N   0  0  0  0  0  0  0  0  0  0  0  0
  -28.6956  -27.2618   21.7588 N   0  0  0  0  0  0  0  0  0  0  0  0
  -32.9525  -24.9131   16.9814 N   0  0  0  0  0  0  0  0  0  0  0  0
  -20.8294  -16.2876   20.5535 N   0  0  0  0  0  0  0  0  0  0  0  0
  -21.9353  -12.8506   21.6306 N   0  3  0  0  0  0  0  0  0  0  0  0
  -35.6915  -22.6059   17.4741 N   0  3  0  0  0  0  0  0  0  0  0  0
  -26.4449  -22.6146   19.0263 O   0  0  0  0  0  0  0  0  0  0  0  0
  -28.4387  -26.1385   19.7353 O   0  0  0  0  0  0  0  0  0  0  0  0
  -31.9098  -27.0461   18.5850 O   0  0  0  0  0  0  0  0  0  0  0  0
  -32.8892  -22.6075   17.2212 O   0  0  0  0  0  0  0  0  0  0  0  0
  -19.6299  -15.5060   18.7627 O   0  0  0  0  0  0  0  0  0  0  0  0
  -21.4865  -26.7151   23.4065 O   0  0  0  0  0  0  0  0  0  0  0  0
  -26.4705  -11.9707   20.9307 O   0  0  0  0  0  0  0  0  0  0  0  0
  -28.7450  -19.9174   21.9052 O   0  0  0  0  0  0  0  0  0  1  0  0
  -27.8524  -17.2721   21.6429 O   0  0  0  0  0  0  0  0  0  0  0  0
  -16.7022  -29.2556   22.3770 F   0  0  0  0  0  0  0  0  0  0  0  0
  -21.4153  -29.4085   22.7874 F   0  0  0  0  0  0  0  0  0  0  0  0
  1  2  1  0  0  0  0
  1  5  2  0  0  0  0
  2  6  2  0  0  0  0
  3  8  2  0  0  0  0
  3 17  1  0  0  0  0
  4  9  1  0  0  0  0
  4 17  2  0  0  0  0
  5 19  1  0  0  0  0
  6 21  1  0  0  0  0
  7 10  2  0  0  0  0
  7 20  1  0  0  0  0
  8 25  1  0  0  0  0
  9 25  2  0  0  0  0
 10 26  1  0  0  0  0
 11 12  2  0  0  0  0
 11 27  1  0  0  0  0
 12 30  1  0  0  0  0
 13 22  1  0  0  0  0
 13 26  2  0  0  0  0
 14 23  1  0  0  0  0
 14 28  2  0  0  0  0
 15 24  2  0  0  0  0
 15 28  1  0  0  0  0
 16 30  2  0  0  0  0
 16 31  1  0  0  0  0
 17 32  1  0  0  0  0
 18 32  1  0  0  0  0
 18 33  2  0  0  0  0
 18 34  1  0  0  0  0
 19 21  2  0  0  0  0
 19 39  1  0  0  0  0
 20 22  2  0  0  0  0
 20 40  1  0  0  0  0
 21 51  1  0  0  0  0
 22 41  1  0  0  0  0
 23 29  2  0  0  0  0
 23 50  1  0  0  0  0
 24 29  1  0  0  0  0
 24 74  1  0  0  0  0
 25 85  1  0  0  0  0
 26 87  1  0  0  0  0
 27 31  2  0  0  0  0
 27 85  1  0  0  0  0
 28 88  1  0  0  0  0
 29 86  1  0  0  0  0
 30 89  1  0  0  0  0
 31 90  1  0  0  0  0
 32 68  2  0  0  0  0
 33 69  1  0  0  0  0
 33 72  1  0  0  0  0
 34 73  1  0  0  0  0
 34 80  2  0  0  0  0
 35 52  1  0  0  0  0
 35 75  1  0  0  0  0
 35 81  2  0  0  0  0
 36 64  1  0  0  0  0
 36 70  1  0  0  0  0
 36 82  2  0  0  0  0
 37 65  1  0  0  0  0
 37 76  1  0  0  0  0
 37 83  2  0  0  0  0
 38 71  1  0  0  0  0
 38 77  1  0  0  0  0
 38 84  2  0  0  0  0
 39 42  1  0  0  0  0
 40 52  1  0  0  0  0
 41 70  1  0  0  0  0
 42 46  1  0  0  0  0
 43 47  1  0  0  0  0
 43 48  1  0  0  0  0
 44 45  1  0  0  0  0
 44 50  1  0  0  0  0
 45 50  1  0  0  0  0
 46 51  1  0  0  0  0
 47 53  1  0  0  0  0
 48 71  1  0  0  0  0
 49 53  1  0  0  0  0
 49 71  1  0  0  0  0
 51 75  1  0  0  0  0
 52 70  1  0  0  0  0
 53 69  1  0  0  0  0
 54 65  1  0  0  0  0
 55 67  1  0  0  0  0
 56 67  1  0  0  0  0
 57 67  1  0  0  0  0
 58 79  1  0  0  0  0
 59 86  1  0  0  0  0
 60 66  1  0  0  0  0
 60 74  1  0  0  0  0
 61 66  1  0  0  0  0
 61 77  1  0  0  0  0
 62 63  1  0  0  0  0
 62 87  1  0  0  0  0
 63 88  1  0  0  0  0
 64 67  1  0  0  0  0
 64 76  1  0  0  0  0
 65 79  1  0  0  0  0
 66 78  1  0  0  0  0
 68 69  1  0  0  0  0
M  CHG  2  78   1  79   1
M  ISO  4  38 100  62 101  77 100  87 101
M  END
> <Batch ID>
0148

> <Smiles>
CNC(C)C(=O)NC(C(=O)N1Cc2cc([101O:1][101CH2:1]COc3cc(NCC(N)C[100NH:0][100C:0](=O)N4CCCC(n5nc(-c6ccc(Oc7ccc(F)cc7F)cc6)c(C(N)=O)c5N)C4)c(OC)c(C4CC4)c3)ccc2CC1C(=O)NC1CCCc2ccccc21)C(C)(C)C

> <Shape>
0.224

> <Color>
0.053

> <Negative vol penalty>
0.000

$$$$

  -OEChem-04052321363D

 89 98  0     1  0  0  0  0  0999 V2000
  -18.0328  -24.2723   23.7464 C   0  0  0  0  0  0  0  0  0  0  0  0
  -19.3995  -24.0161   23.7048 C   0  0  0  0  0  0  0  0  0  0  0  0
  -24.7321   -9.5513   21.0406 C   0  0  0  0  0  0  0  0  0  0  0  0
  -22.5293  -10.3504   21.6291 C   0  0  0  0  0  0  0  0  0  0  0  0
  -17.5521  -25.5399   23.4209 C   0  0  0  0  0  0  0  0  0  0  0  0
  -20.2864  -25.0272   23.3366 C   0  0  0  0  0  0  0  0  0  0  0  0
  -24.3394  -25.2540   26.3642 C   0  0  0  0  0  0  0  0  0  0  0  0
  -24.2505   -8.2425   21.0153 C   0  0  0  0  0  0  0  0  0  0  0  0
  -22.0477   -9.0415   21.6038 C   0  0  0  0  0  0  0  0  0  0  0  0
  -25.3428  -24.3084   26.1569 C   0  0  0  0  0  0  0  0  0  0  0  0
  -22.0942   -6.3304   23.6232 C   0  0  0  0  0  0  0  0  0  0  0  0
  -21.2699   -5.9227   24.6720 C   0  0  0  0  0  0  0  0  0  0  0  0
  -26.5737  -21.1328   23.6561 C   0  0  0  0  0  0  0  0  0  0  0  0
  -26.6248  -25.9457   24.9343 C   0  0  0  0  0  0  0  0  0  0  0  0
  -25.5322  -20.3310   21.6371 C   0  0  0  0  0  0  0  0  0  0  0  0
  -19.4938   -5.4666   23.0989 C   0  0  0  0  0  0  0  0  0  0  0  0
  -23.8715  -10.6053   21.3476 C   0  0  0  0  0  0  0  0  0  0  0  0
  -24.4123  -12.8685   20.3021 C   0  0  0  0  0  0  0  0  0  0  0  0
  -18.4343  -26.5697   23.0579 C   0  0  0  0  0  0  0  0  0  0  0  0
  -24.4666  -26.5516   25.8479 C   0  0  0  0  0  0  0  0  0  0  0  0
  -19.8169  -26.3094   23.0047 C   0  0  0  0  0  0  0  0  0  0  0  0
  -27.5988  -21.7301   22.9045 C   0  0  0  0  0  0  0  0  0  0  0  0
  -25.6228  -26.9066   25.1386 C   0  0  0  0  0  0  0  0  0  0  0  0
  -25.5452  -20.4377   23.0238 C   0  0  0  0  0  0  0  0  0  0  0  0
  -27.5834  -21.6396   21.4983 C   0  0  0  0  0  0  0  0  0  0  0  0
  -22.9084   -7.9876   21.2969 C   0  0  0  0  0  0  0  0  0  0  0  0
  -26.4844  -24.6533   25.4394 C   0  0  0  0  0  0  0  0  0  0  0  0
  -21.6183   -6.3063   22.3122 C   0  0  0  0  0  0  0  0  0  0  0  0
  -26.5457  -20.9230   20.8820 C   0  0  0  0  0  0  0  0  0  0  0  0
  -19.9698   -5.4908   24.4099 C   0  0  0  0  0  0  0  0  0  0  0  0
  -20.3181   -5.8744   22.0501 C   0  0  0  0  0  0  0  0  0  0  0  0
  -24.3685  -11.9575   21.3744 C   0  0  0  0  0  0  0  0  0  0  0  0
  -24.9669  -14.0045   20.8392 C   0  0  0  0  0  0  0  0  0  0  0  0
  -23.9893  -12.7028   18.9422 C   0  0  0  0  0  0  0  0  0  0  0  0
  -22.8361  -28.3028   23.7554 C   0  0  0  0  0  0  0  0  0  0  0  0
  -24.8850  -30.6337   24.6996 C   0  0  0  0  0  0  0  0  0  0  0  0
  -27.9062  -31.4614   26.0539 C   0  0  0  0  0  0  0  0  0  0  0  0
  -25.3376  -17.7673   24.9440 C   0  0  0  0  0  0  0  0  0  0  0  0
  -17.8639  -27.9106   22.6687 C   0  0  0  0  0  0  0  0  0  0  0  0
  -23.3874  -27.5677   26.1031 C   0  0  0  0  0  0  0  0  0  0  0  0
  -25.8169  -28.2922   24.5809 C   0  0  0  0  0  0  0  0  0  0  0  0
  -18.9001  -29.0315   22.6515 C   0  0  0  0  0  0  0  0  0  0  0  0
  -27.2305  -14.7724   25.2971 C   0  0  0  0  0  0  0  0  0  0  0  0
  -20.1624  -28.5804   21.9235 C   0  0  0  0  0  0  0  0  0  0  0  0
  -26.6541  -13.8468   24.2243 C   0  0  0  0  0  0  0  0  0  0  0  0
  -29.9578  -22.5594   22.7220 C   0  0  0  0  0  0  0  0  0  0  0  0
  -26.1487  -15.6446   25.9304 C   0  0  0  0  0  0  0  0  0  0  0  0
  -24.7611  -15.4929   23.8993 C   0  0  0  0  0  0  0  0  0  0  0  0
  -28.7074  -22.4830   23.6130 C   0  0  1  0  0  0  0  0  0  0  0  0
  -20.8126  -27.3872   22.6341 C   0  0  1  0  0  0  0  0  0  0  0  0
  -23.3905  -28.7096   25.0915 C   0  0  1  0  0  0  0  0  0  0  0  0
  -25.8231  -14.6332   23.1926 C   0  0  2  0  0  0  0  0  0  0  0  0
  -29.6209  -23.0361   21.3045 C   0  0  1  0  0  0  0  0  0  0  0  0
  -27.2038  -19.4977   17.6362 C   0  0  0  0  0  0  0  0  0  0  0  0
  -29.3134  -33.4473   26.6650 C   0  0  0  0  0  0  0  0  0  0  0  0
  -31.1545  -21.5840   19.9468 C   0  0  0  0  0  0  0  0  0  0  0  0
  -30.6860  -23.9407   19.2188 C   0  0  0  0  0  0  0  0  0  0  0  0
  -25.5670  -31.0534   21.7553 C   0  0  0  0  0  0  0  0  0  0  0  0
  -27.6003  -32.3223   22.4791 C   0  0  0  0  0  0  0  0  0  0  0  0
  -25.3293  -33.1602   23.0817 C   0  0  0  0  0  0  0  0  0  0  0  0
  -27.9396  -30.7036   28.9146 C   0  0  0  0  0  0  0  0  0  0  0  0
  -24.4631  -19.8065   23.8323 C   0  0  0  0  0  0  0  0  0  0  0  0
  -28.2335  -23.8561   24.0391 C   0  0  0  0  0  0  0  0  0  1  0  0
  -26.5459  -19.4699   18.9994 C   0  0  0  0  0  0  0  0  0  0  0  0
  -26.2436  -31.1109   24.2463 C   0  0  1  0  0  0  0  0  0  0  0  0
  -28.2840  -32.4393   27.1518 C   0  0  2  0  0  0  0  0  0  0  0  0
  -30.8607  -23.0079   20.4155 C   0  0  0  0  0  0  0  0  0  0  0  0
  -26.1808  -31.8850   22.8993 C   0  0  0  0  0  0  0  0  0  0  0  0
  -24.8566  -12.4703   22.5070 N   0  0  0  0  0  0  0  0  0  0  0  0
  -25.2124  -13.7159   22.1494 N   0  0  0  0  0  0  0  0  0  0  0  0
  -28.5931  -22.1897   20.7190 N   0  0  0  0  0  0  0  0  0  0  0  0
  -24.7307  -29.2485   24.8515 N   0  0  0  0  0  0  0  0  0  0  0  0
  -25.3985  -16.3647   24.8986 N   0  0  0  0  0  0  0  0  0  0  0  0
  -25.2638  -15.2120   20.3137 N   0  0  0  0  0  0  0  0  0  0  0  0
  -23.4409  -11.4715   18.5584 N   0  0  0  0  0  0  0  0  0  0  0  0
  -21.5385  -27.8305   23.8049 N   0  0  0  0  0  0  0  0  0  0  0  0
  -26.7955  -31.8833   25.3541 N   0  0  0  0  0  0  0  0  0  0  0  0
  -24.6114  -18.3711   23.9248 N   0  0  0  0  0  0  0  0  0  0  0  0
  -28.8551  -31.7113   28.3200 N   0  3  0  0  0  0  0  0  0  0  0  0
  -24.1097  -13.6140   18.0886 O   0  0  0  0  0  0  0  0  0  0  0  0
  -23.5335  -28.4110   22.7536 O   0  0  0  0  0  0  0  0  0  0  0  0
  -23.9956  -31.4601   24.9180 O   0  0  0  0  0  0  0  0  0  0  0  0
  -28.5358  -30.4286   25.8362 O   0  0  0  0  0  0  0  0  0  0  0  0
  -25.8940  -18.4324   25.8243 O   0  0  0  0  0  0  0  0  0  0  0  0
  -22.4381   -6.7106   21.2720 O   0  0  0  0  0  0  0  0  0  0  0  0
  -27.4649  -23.7321   25.2350 O   0  0  0  0  0  0  0  0  0  1  0  0
  -26.5068  -20.7943   19.5229 O   0  0  0  0  0  0  0  0  0  0  0  0
  -19.1789   -5.0979   25.4170 F   0  0  0  0  0  0  0  0  0  0  0  0
  -19.8557   -5.8479   20.7926 F   0  0  0  0  0  0  0  0  0  0  0  0
  1  2  1  0  0  0  0
  1  5  2  0  0  0  0
  2  6  2  0  0  0  0
  3  8  2  0  0  0  0
  3 17  1  0  0  0  0
  4  9  1  0  0  0  0
  4 17  2  0  0  0  0
  5 19  1  0  0  0  0
  6 21  1  0  0  0  0
  7 10  2  0  0  0  0
  7 20  1  0  0  0  0
  8 26  1  0  0  0  0
  9 26  2  0  0  0  0
 10 27  1  0  0  0  0
 11 12  2  0  0  0  0
 11 28  1  0  0  0  0
 12 30  1  0  0  0  0
 13 22  2  0  0  0  0
 13 24  1  0  0  0  0
 14 23  1  0  0  0  0
 14 27  2  0  0  0  0
 15 24  2  0  0  0  0
 15 29  1  0  0  0  0
 16 30  2  0  0  0  0
 16 31  1  0  0  0  0
 17 32  1  0  0  0  0
 18 32  1  0  0  0  0
 18 33  2  0  0  0  0
 18 34  1  0  0  0  0
 19 21  2  0  0  0  0
 19 39  1  0  0  0  0
 20 23  2  0  0  0  0
 20 40  1  0  0  0  0
 21 50  1  0  0  0  0
 22 25  1  0  0  0  0
 22 49  1  0  0  0  0
 23 41  1  0  0  0  0
 24 62  1  0  0  0  0
 25 29  2  0  0  0  0
 25 71  1  0  0  0  0
 26 85  1  0  0  0  0
 27 86  1  0  0  0  0
 28 31  2  0  0  0  0
 28 85  1  0  0  0  0
 29 87  1  0  0  0  0
 30 88  1  0  0  0  0
 31 89  1  0  0  0  0
 32 69  2  0  0  0  0
 33 70  1  0  0  0  0
 33 74  1  0  0  0  0
 34 75  1  0  0  0  0
 34 80  2  0  0  0  0
 35 51  1  0  0  0  0
 35 76  1  0  0  0  0
 35 81  2  0  0  0  0
 36 65  1  0  0  0  0
 36 72  1  0  0  0  0
 36 82  2  0  0  0  0
 37 66  1  0  0  0  0
 37 77  1  0  0  0  0
 37 83  2  0  0  0  0
 38 73  1  0  0  0  0
 38 78  1  0  0  0  0
 38 84  2  0  0  0  0
 39 42  1  0  0  0  0
 40 51  1  0  0  0  0
 41 72  1  0  0  0  0
 42 44  1  0  0  0  0
 43 45  1  0  0  0  0
 43 47  1  0  0  0  0
 44 50  1  0  0  0  0
 45 52  1  0  0  0  0
 46 49  1  0  0  0  0
 46 53  1  0  0  0  0
 47 73  1  0  0  0  0
 48 52  1  0  0  0  0
 48 73  1  0  0  0  0
 49 63  1  0  0  0  0
 50 76  1  0  0  0  0
 51 72  1  0  0  0  0
 52 70  1  0  0  0  0
 53 67  1  0  0  0  0
 53 71  1  0  0  0  0
 54 64  1  0  0  0  0
 55 66  1  0  0  0  0
 56 67  1  0  0  0  0
 57 67  1  0  0  0  0
 58 68  1  0  0  0  0
 59 68  1  0  0  0  0
 60 68  1  0  0  0  0
 61 79  1  0  0  0  0
 62 78  1  0  0  0  0
 63 86  1  0  0  0  0
 64 87  1  0  0  0  0
 65 68  1  0  0  0  0
 65 77  1  0  0  0  0
 66 79  1  0  0  0  0
 69 70  1  0  0  0  0
M  CHG  1  79   1
M  ISO  4  38 100  63 101  78 100  86 101
M  END
> <Batch ID>
0148

> <Smiles>
CCOc1cc(C[100NH:0][100C:0](=O)N2CCCC(n3nc(-c4ccc(Oc5ccc(F)cc5F)cc4)c(C(N)=O)c3N)C2)cc2c1NC(C(C)C)CC2[101CH2:1][101O:1]c1ccc2c(c1)CN(C(=O)C(NC(=O)C(C)NC)C(C)(C)C)C(C(=O)NC1CCCc3ccccc31)C2

> <Shape>
0.227

> <Color>
0.112

> <Negative vol penalty>
0.000

$$$$

  -OEChem-04052321363D

 85 94  0     1  0  0  0  0  0999 V2000
  -24.4513  -29.2625   24.7308 C   0  0  0  0  0  0  0  0  0  0  0  0
  -25.0051  -28.0428   24.3551 C   0  0  0  0  0  0  0  0  0  0  0  0
  -23.1985   -9.9542   21.4390 C   0  0  0  0  0  0  0  0  0  0  0  0
  -23.8861  -10.8256   23.5849 C   0  0  0  0  0  0  0  0  0  0  0  0
  -24.1635  -30.2238   23.7628 C   0  0  0  0  0  0  0  0  0  0  0  0
  -25.2705  -27.7834   23.0110 C   0  0  0  0  0  0  0  0  0  0  0  0
  -29.8207  -25.6773   22.3005 C   0  0  0  0  0  0  0  0  0  0  0  0
  -31.5776  -19.6288   23.5128 C   0  0  0  0  0  0  0  0  0  0  0  0
  -22.4883   -8.9385   22.0790 C   0  0  0  0  0  0  0  0  0  0  0  0
  -23.1759   -9.8099   24.2250 C   0  0  0  0  0  0  0  0  0  0  0  0
  -29.9433  -24.3169   22.5799 C   0  0  0  0  0  0  0  0  0  0  0  0
  -31.7104  -18.2427   23.5943 C   0  0  0  0  0  0  0  0  0  0  0  0
  -23.1679   -5.9799   23.5655 C   0  0  0  0  0  0  0  0  0  0  0  0
  -23.3000   -4.6841   23.0665 C   0  0  0  0  0  0  0  0  0  0  0  0
  -29.2094  -19.3780   23.1057 C   0  0  0  0  0  0  0  0  0  0  0  0
  -29.7572  -23.8230   20.2260 C   0  0  0  0  0  0  0  0  0  0  0  0
  -20.9232   -4.6058   22.6403 C   0  0  0  0  0  0  0  0  0  0  0  0
  -23.8975  -10.8977   22.1920 C   0  0  0  0  0  0  0  0  0  0  0  0
  -24.1537  -13.2200   21.1678 C   0  0  0  0  0  0  0  0  0  0  0  0
  -24.4344  -29.9797   22.4072 C   0  0  0  0  0  0  0  0  0  0  0  0
  -29.6542  -26.1207   20.9807 C   0  0  0  0  0  0  0  0  0  0  0  0
  -24.9848  -28.7418   22.0238 C   0  0  0  0  0  0  0  0  0  0  0  0
  -29.3422  -17.9918   23.1871 C   0  0  0  0  0  0  0  0  0  0  0  0
  -29.6353  -25.1897   19.9324 C   0  0  0  0  0  0  0  0  0  0  0  0
  -30.3270  -20.1965   23.2686 C   0  0  0  0  0  0  0  0  0  0  0  0
  -22.4770   -8.8664   23.4720 C   0  0  0  0  0  0  0  0  0  0  0  0
  -29.9086  -23.3893   21.5429 C   0  0  0  0  0  0  0  0  0  0  0  0
  -30.5927  -17.4242   23.4314 C   0  0  0  0  0  0  0  0  0  0  0  0
  -21.9133   -6.5887   23.6019 C   0  0  0  0  0  0  0  0  0  0  0  0
  -22.1777   -3.9971   22.6039 C   0  0  0  0  0  0  0  0  0  0  0  0
  -20.7910   -5.9017   23.1393 C   0  0  0  0  0  0  0  0  0  0  0  0
  -24.6317  -11.9468   21.5314 C   0  0  0  0  0  0  0  0  0  0  0  0
  -25.2295  -13.8342   20.5746 C   0  0  0  0  0  0  0  0  0  0  0  0
  -22.8534  -13.7961   21.3500 C   0  0  0  0  0  0  0  0  0  0  0  0
  -27.3808  -27.6949   19.4131 C   0  0  0  0  0  0  0  0  0  0  0  0
  -29.5528  -27.6488   17.0042 C   0  0  0  0  0  0  0  0  0  0  0  0
  -32.2736  -26.1560   15.5845 C   0  0  0  0  0  0  0  0  0  0  0  0
  -31.1469  -13.0681   21.0724 C   0  0  0  0  0  0  0  0  0  0  0  0
  -24.0624  -31.0310   21.3918 C   0  0  0  0  0  0  0  0  0  0  0  0
  -29.5502  -27.5935   20.6934 C   0  0  0  0  0  0  0  0  0  0  0  0
  -29.4790  -25.6156   18.4962 C   0  0  0  0  0  0  0  0  0  0  0  0
  -24.7210  -30.8231   20.0305 C   0  0  0  0  0  0  0  0  0  0  0  0
  -26.3829  -16.0538   23.8490 C   0  0  0  0  0  0  0  0  0  0  0  0
  -29.2034  -12.8540   18.0970 C   0  0  0  0  0  0  0  0  0  0  0  0
  -27.9034  -15.8108   23.8959 C   0  0  0  0  0  0  0  0  0  0  0  0
  -26.7068  -17.5411   23.6103 C   0  0  0  0  0  0  0  0  0  0  0  0
  -24.5962  -29.3668   19.5940 C   0  0  0  0  0  0  0  0  0  0  0  0
  -27.7682  -12.7121   18.6070 C   0  0  0  0  0  0  0  0  0  0  0  0
  -30.1961  -12.1161   18.9925 C   0  0  0  0  0  0  0  0  0  0  0  0
  -28.6904  -12.3320   20.9316 C   0  0  0  0  0  0  0  0  0  0  0  0
  -28.0635  -17.0761   22.9998 C   0  0  0  0  0  0  0  0  0  0  0  0
  -25.3100  -28.4327   20.5786 C   0  0  1  0  0  0  0  0  0  0  0  0
  -28.8690  -27.8960   19.3623 C   0  0  1  0  0  0  0  0  0  0  0  0
  -27.6594  -13.1060   20.0923 C   0  0  2  0  0  0  0  0  0  0  0  0
  -33.7991  -26.3213   13.5989 C   0  0  0  0  0  0  0  0  0  0  0  0
  -27.3827  -26.4308   15.2387 C   0  0  0  0  0  0  0  0  0  0  0  0
  -29.1732  -25.7536   13.6251 C   0  0  0  0  0  0  0  0  0  0  0  0
  -28.7875  -28.1687   14.1159 C   0  0  0  0  0  0  0  0  0  0  0  0
  -34.6447  -26.6060   17.2975 C   0  0  0  0  0  0  0  0  0  0  0  0
  -30.1848  -21.6876   23.1811 C   0  0  0  0  0  0  0  0  0  1  0  0
  -31.9495  -14.0167   23.2207 C   0  0  0  0  0  0  0  0  0  0  0  0
  -31.9945  -15.5302   23.1097 C   0  0  0  0  0  0  0  0  0  0  0  0
  -29.8712  -26.7052   15.8697 C   0  0  1  0  0  0  0  0  0  0  0  0
  -33.5712  -26.7307   15.0457 C   0  0  2  0  0  0  0  0  0  0  0  0
  -28.8047  -26.7561   14.7395 C   0  0  0  0  0  0  0  0  0  0  0  0
  -25.9115  -11.7617   21.1970 N   0  0  0  0  0  0  0  0  0  0  0  0
  -26.2468  -12.9267   20.6170 N   0  0  0  0  0  0  0  0  0  0  0  0
  -29.3749  -27.0662   18.2670 N   0  0  0  0  0  0  0  0  0  0  0  0
  -30.0420  -12.5363   20.3874 N   0  0  0  0  0  0  0  0  0  0  0  0
  -25.3950  -15.0565   20.0260 N   0  0  0  0  0  0  0  0  0  0  0  0
  -21.8642  -13.0273   21.9784 N   0  0  0  0  0  0  0  0  0  0  0  0
  -26.7406  -28.4684   20.3624 N   0  0  0  0  0  0  0  0  0  0  0  0
  -31.2228  -27.0356   15.4311 N   0  0  0  0  0  0  0  0  0  0  0  0
  -30.9131  -13.4473   22.3886 N   0  0  0  0  0  0  0  0  0  0  0  0
  -34.7260  -26.2521   15.8570 N   0  3  0  0  0  0  0  0  0  0  0  0
  -22.5723  -14.9520   20.9523 O   0  0  0  0  0  0  0  0  0  0  0  0
  -26.8523  -26.8980   18.6466 O   0  0  0  0  0  0  0  0  0  0  0  0
  -29.4722  -28.8591   16.7796 O   0  0  0  0  0  0  0  0  0  0  0  0
  -32.1988  -25.0371   16.0876 O   0  0  0  0  0  0  0  0  0  0  0  0
  -32.2581  -13.2005   20.5481 O   0  0  0  0  0  0  0  0  0  0  0  0
  -21.7839   -7.8756   24.0969 O   0  0  0  0  0  0  0  0  0  0  0  0
  -30.0274  -22.0608   21.8128 O   0  0  0  0  0  0  0  0  0  1  0  0
  -30.7382  -16.0723   23.5122 O   0  0  0  0  0  0  0  0  0  0  0  0
  -22.3050   -2.7533   22.1233 F   0  0  0  0  0  0  0  0  0  0  0  0
  -19.5834   -6.4818   23.1707 F   0  0  0  0  0  0  0  0  0  0  0  0
  1  2  1  0  0  0  0
  1  5  2  0  0  0  0
  2  6  2  0  0  0  0
  3  9  2  0  0  0  0
  3 18  1  0  0  0  0
  4 10  1  0  0  0  0
  4 18  2  0  0  0  0
  5 20  1  0  0  0  0
  6 22  1  0  0  0  0
  7 11  2  0  0  0  0
  7 21  1  0  0  0  0
  8 12  2  0  0  0  0
  8 25  1  0  0  0  0
  9 26  1  0  0  0  0
 10 26  2  0  0  0  0
 11 27  1  0  0  0  0
 12 28  1  0  0  0  0
 13 14  2  0  0  0  0
 13 29  1  0  0  0  0
 14 30  1  0  0  0  0
 15 23  1  0  0  0  0
 15 25  2  0  0  0  0
 16 24  1  0  0  0  0
 16 27  2  0  0  0  0
 17 30  2  0  0  0  0
 17 31  1  0  0  0  0
 18 32  1  0  0  0  0
 19 32  1  0  0  0  0
 19 33  2  0  0  0  0
 19 34  1  0  0  0  0
 20 22  2  0  0  0  0
 20 39  1  0  0  0  0
 21 24  2  0  0  0  0
 21 40  1  0  0  0  0
 22 52  1  0  0  0  0
 23 28  2  0  0  0  0
 23 51  1  0  0  0  0
 24 41  1  0  0  0  0
 25 60  1  0  0  0  0
 26 81  1  0  0  0  0
 27 82  1  0  0  0  0
 28 83  1  0  0  0  0
 29 31  2  0  0  0  0
 29 81  1  0  0  0  0
 30 84  1  0  0  0  0
 31 85  1  0  0  0  0
 32 66  2  0  0  0  0
 33 67  1  0  0  0  0
 33 70  1  0  0  0  0
 34 71  1  0  0  0  0
 34 76  2  0  0  0  0
 35 53  1  0  0  0  0
 35 72  1  0  0  0  0
 35 77  2  0  0  0  0
 36 63  1  0  0  0  0
 36 68  1  0  0  0  0
 36 78  2  0  0  0  0
 37 64  1  0  0  0  0
 37 73  1  0  0  0  0
 37 79  2  0  0  0  0
 38 69  1  0  0  0  0
 38 74  1  0  0  0  0
 38 80  2  0  0  0  0
 39 42  1  0  0  0  0
 40 53  1  0  0  0  0
 41 68  1  0  0  0  0
 42 47  1  0  0  0  0
 43 45  1  0  0  0  0
 43 46  1  0  0  0  0
 44 48  1  0  0  0  0
 44 49  1  0  0  0  0
 45 51  1  0  0  0  0
 46 51  1  0  0  0  0
 47 52  1  0  0  0  0
 48 54  1  0  0  0  0
 49 69  1  0  0  0  0
 50 54  1  0  0  0  0
 50 69  1  0  0  0  0
 52 72  1  0  0  0  0
 53 68  1  0  0  0  0
 54 67  1  0  0  0  0
 55 64  1  0  0  0  0
 56 65  1  0  0  0  0
 57 65  1  0  0  0  0
 58 65  1  0  0  0  0
 59 75  1  0  0  0  0
 60 82  1  0  0  0  0
 61 62  1  0  0  0  0
 61 74  1  0  0  0  0
 62 83  1  0  0  0  0
 63 65  1  0  0  0  0
 63 73  1  0  0  0  0
 64 75  1  0  0  0  0
 66 67  1  0  0  0  0
M  CHG  1  75   1
M  ISO  4  38 100  60 101  74 100  82 101
M  END
> <Batch ID>
0148

> <Smiles>
CNC(C)C(=O)NC(C(=O)N1Cc2cc([101O:1][101CH2:1]c3ccc(OCC[100NH:0][100C:0](=O)N4CCCC(n5nc(-c6ccc(Oc7ccc(F)cc7F)cc6)c(C(N)=O)c5N)C4)c(C4CCC4)c3)ccc2CC1C(=O)NC1CCCc2ccccc21)C(C)(C)C

> <Shape>
0.254

> <Color>
0.155

> <Negative vol penalty>
0.000

$$$$

  -OEChem-04052321363D

 85 94  0     1  0  0  0  0  0999 V2000
  -26.9014  -34.3313   22.9391 C   0  0  0  0  0  0  0  0  0  0  0  0
  -27.3878  -33.0412   22.7538 C   0  0  0  0  0  0  0  0  0  0  0  0
  -23.9211   -9.9480   22.2251 C   0  0  0  0  0  0  0  0  0  0  0  0
  -24.3903  -11.4491   24.0591 C   0  0  0  0  0  0  0  0  0  0  0  0
  -25.6056  -34.5248   23.4162 C   0  0  0  0  0  0  0  0  0  0  0  0
  -26.5790  -31.9436   23.0466 C   0  0  0  0  0  0  0  0  0  0  0  0
  -26.4605  -26.5704   20.1105 C   0  0  0  0  0  0  0  0  0  0  0  0
  -23.4397   -8.9980   23.1258 C   0  0  0  0  0  0  0  0  0  0  0  0
  -23.9088  -10.4992   24.9599 C   0  0  0  0  0  0  0  0  0  0  0  0
  -27.0495  -25.3373   20.3869 C   0  0  0  0  0  0  0  0  0  0  0  0
  -20.6080   -8.4486   24.8902 C   0  0  0  0  0  0  0  0  0  0  0  0
  -19.4117   -7.8044   24.5751 C   0  0  0  0  0  0  0  0  0  0  0  0
  -25.0052  -24.6028   21.4359 C   0  0  0  0  0  0  0  0  0  0  0  0
  -20.5526   -5.6748   24.5974 C   0  0  0  0  0  0  0  0  0  0  0  0
  -30.1337  -20.2094   22.4380 C   0  0  0  0  0  0  0  0  0  0  0  0
  -24.3965  -11.1736   22.6917 C   0  0  0  0  0  0  0  0  0  0  0  0
  -24.1581  -13.1691   21.1205 C   0  0  0  0  0  0  0  0  0  0  0  0
  -24.7772  -33.4291   23.7058 C   0  0  0  0  0  0  0  0  0  0  0  0
  -25.1408  -26.8333   20.5051 C   0  0  0  0  0  0  0  0  0  0  0  0
  -25.2715  -32.1226   23.5293 C   0  0  0  0  0  0  0  0  0  0  0  0
  -24.4009  -25.8391   21.1611 C   0  0  0  0  0  0  0  0  0  0  0  0
  -28.4535  -19.2022   21.1399 C   0  0  0  0  0  0  0  0  0  0  0  0
  -28.0239  -20.4729   20.7640 C   0  0  0  0  0  0  0  0  0  0  0  0
  -23.4335   -9.2736   24.4932 C   0  0  0  0  0  0  0  0  0  0  0  0
  -26.3228  -24.3543   21.0522 C   0  0  0  0  0  0  0  0  0  0  0  0
  -21.7767   -7.7060   25.0588 C   0  0  0  0  0  0  0  0  0  0  0  0
  -29.5236  -19.0439   21.9971 C   0  0  0  0  0  0  0  0  0  0  0  0
  -19.3839   -6.4175   24.4287 C   0  0  0  0  0  0  0  0  0  0  0  0
  -21.7490   -6.3191   24.9124 C   0  0  0  0  0  0  0  0  0  0  0  0
  -24.8945  -12.1551   21.7618 C   0  0  0  0  0  0  0  0  0  0  0  0
  -28.6827  -21.5732   21.2605 C   0  0  0  0  0  0  0  0  0  0  0  0
  -25.0822  -13.8273   20.3464 C   0  0  0  0  0  0  0  0  0  0  0  0
  -22.7634  -13.4876   21.2160 C   0  0  0  0  0  0  0  0  0  0  0  0
  -23.7576  -28.9275   22.4556 C   0  0  0  0  0  0  0  0  0  0  0  0
  -21.0270  -27.6370   21.2721 C   0  0  0  0  0  0  0  0  0  0  0  0
  -19.4817  -24.9734   19.8011 C   0  0  0  0  0  0  0  0  0  0  0  0
  -31.0227  -14.4627   20.7439 C   0  0  0  0  0  0  0  0  0  0  0  0
  -23.4003  -33.6877   24.2642 C   0  0  0  0  0  0  0  0  0  0  0  0
  -24.5111  -28.1590   20.1758 C   0  0  0  0  0  0  0  0  0  0  0  0
  -27.5844  -18.1443   20.5364 C   0  0  0  0  0  0  0  0  0  0  0  0
  -26.8280  -20.4064   19.8744 C   0  0  0  0  0  0  0  0  0  0  0  0
  -22.9742  -26.0640   21.5878 C   0  0  0  0  0  0  0  0  0  0  0  0
  -22.4772  -32.4738   24.1951 C   0  0  0  0  0  0  0  0  0  0  0  0
  -29.1924  -13.1147   18.0035 C   0  0  0  0  0  0  0  0  0  0  0  0
  -23.1996  -31.2249   24.6901 C   0  0  0  0  0  0  0  0  0  0  0  0
  -27.8169  -12.8074   18.5981 C   0  0  0  0  0  0  0  0  0  0  0  0
  -30.3131  -12.8467   19.0056 C   0  0  0  0  0  0  0  0  0  0  0  0
  -28.7814  -13.2183   20.9002 C   0  0  0  0  0  0  0  0  0  0  0  0
  -24.4160  -30.9067   23.8121 C   0  0  1  0  0  0  0  0  0  0  0  0
  -23.3306  -28.5007   21.0797 C   0  0  1  0  0  0  0  0  0  0  0  0
  -26.8564  -18.9286   19.4192 C   0  0  1  0  0  0  0  0  0  0  0  0
  -27.6152  -13.5264   19.9456 C   0  0  2  0  0  0  0  0  0  0  0  0
  -27.5743  -18.7747   18.0735 C   0  0  0  0  0  0  0  0  0  0  0  0
  -17.2363  -24.1998   18.9905 C   0  0  0  0  0  0  0  0  0  0  0  0
  -20.1599  -27.1409   24.1551 C   0  0  0  0  0  0  0  0  0  0  0  0
  -18.4249  -25.5581   23.2875 C   0  0  0  0  0  0  0  0  0  0  0  0
  -18.3441  -27.9677   22.6472 C   0  0  0  0  0  0  0  0  0  0  0  0
  -20.4546  -24.6876   17.0207 C   0  0  0  0  0  0  0  0  0  0  0  0
  -28.2446  -22.9618   20.8984 C   0  0  0  0  0  0  0  0  0  1  0  0
  -31.5877  -16.0614   22.5561 C   0  0  0  0  0  0  0  0  0  0  0  0
  -31.3089  -17.4748   22.0766 C   0  0  0  0  0  0  0  0  0  0  0  0
  -20.1352  -26.4820   21.6589 C   0  0  1  0  0  0  0  0  0  0  0  0
  -18.5406  -24.8848   18.6133 C   0  0  2  0  0  0  0  0  0  0  0  0
  -19.2935  -26.7833   22.9310 C   0  0  0  0  0  0  0  0  0  0  0  0
  -29.7434  -21.4663   22.0933 N   0  0  0  0  0  0  0  0  0  0  0  0
  -26.1868  -12.1643   21.4243 N   0  0  0  0  0  0  0  0  0  0  0  0
  -26.2697  -13.1921   20.5625 N   0  0  0  0  0  0  0  0  0  0  0  0
  -22.4049  -27.3788   21.2488 N   0  0  0  0  0  0  0  0  0  0  0  0
  -30.0622  -13.5586   20.2611 N   0  0  0  0  0  0  0  0  0  0  0  0
  -24.9868  -14.8816   19.5088 N   0  0  0  0  0  0  0  0  0  0  0  0
  -21.9567  -12.7100   22.0579 N   0  0  0  0  0  0  0  0  0  0  0  0
  -23.9971  -30.2832   22.5751 N   0  0  0  0  0  0  0  0  0  0  0  0
  -19.3400  -26.1668   20.4771 N   0  0  0  0  0  0  0  0  0  0  0  0
  -30.7033  -15.0995   21.9368 N   0  0  0  0  0  0  0  0  0  0  0  0
  -19.1740  -24.1128   17.5070 N   0  3  0  0  0  0  0  0  0  0  0  0
  -22.2447  -14.4233   20.5613 O   0  0  0  0  0  0  0  0  0  0  0  0
  -23.8606  -28.0892   23.3435 O   0  0  0  0  0  0  0  0  0  0  0  0
  -20.5193  -28.7262   20.9937 O   0  0  0  0  0  0  0  0  0  0  0  0
  -20.2618  -24.0724   20.1016 O   0  0  0  0  0  0  0  0  0  0  0  0
  -32.0838  -14.6898   20.1527 O   0  0  0  0  0  0  0  0  0  0  0  0
  -22.9635   -8.3469   25.3724 O   0  0  0  0  0  0  0  0  0  0  0  0
  -26.8955  -23.1501   21.3238 O   0  0  0  0  0  0  0  0  0  1  0  0
  -29.9584  -17.8262   22.3928 O   0  0  0  0  0  0  0  0  0  0  0  0
  -18.2347   -5.7988   24.1276 F   0  0  0  0  0  0  0  0  0  0  0  0
  -22.8682   -5.6002   25.0744 F   0  0  0  0  0  0  0  0  0  0  0  0
  1  2  1  0  0  0  0
  1  5  2  0  0  0  0
  2  6  2  0  0  0  0
  3  8  2  0  0  0  0
  3 16  1  0  0  0  0
  4  9  1  0  0  0  0
  4 16  2  0  0  0  0
  5 18  1  0  0  0  0
  6 20  1  0  0  0  0
  7 10  2  0  0  0  0
  7 19  1  0  0  0  0
  8 24  1  0  0  0  0
  9 24  2  0  0  0  0
 10 25  1  0  0  0  0
 11 12  2  0  0  0  0
 11 26  1  0  0  0  0
 12 28  1  0  0  0  0
 13 21  1  0  0  0  0
 13 25  2  0  0  0  0
 14 28  2  0  0  0  0
 14 29  1  0  0  0  0
 15 27  1  0  0  0  0
 15 65  2  0  0  0  0
 16 30  1  0  0  0  0
 17 30  1  0  0  0  0
 17 32  2  0  0  0  0
 17 33  1  0  0  0  0
 18 20  2  0  0  0  0
 18 38  1  0  0  0  0
 19 21  2  0  0  0  0
 19 39  1  0  0  0  0
 20 49  1  0  0  0  0
 21 42  1  0  0  0  0
 22 23  1  0  0  0  0
 22 27  2  0  0  0  0
 22 40  1  0  0  0  0
 23 31  2  0  0  0  0
 23 41  1  0  0  0  0
 24 81  1  0  0  0  0
 25 82  1  0  0  0  0
 26 29  2  0  0  0  0
 26 81  1  0  0  0  0
 27 83  1  0  0  0  0
 28 84  1  0  0  0  0
 29 85  1  0  0  0  0
 30 66  2  0  0  0  0
 31 59  1  0  0  0  0
 31 65  1  0  0  0  0
 32 67  1  0  0  0  0
 32 70  1  0  0  0  0
 33 71  1  0  0  0  0
 33 76  2  0  0  0  0
 34 50  1  0  0  0  0
 34 72  1  0  0  0  0
 34 77  2  0  0  0  0
 35 62  1  0  0  0  0
 35 68  1  0  0  0  0
 35 78  2  0  0  0  0
 36 63  1  0  0  0  0
 36 73  1  0  0  0  0
 36 79  2  0  0  0  0
 37 69  1  0  0  0  0
 37 74  1  0  0  0  0
 37 80  2  0  0  0  0
 38 43  1  0  0  0  0
 39 50  1  0  0  0  0
 40 51  1  0  0  0  0
 41 51  1  0  0  0  0
 42 68  1  0  0  0  0
 43 45  1  0  0  0  0
 44 46  1  0  0  0  0
 44 47  1  0  0  0  0
 45 49  1  0  0  0  0
 46 52  1  0  0  0  0
 47 69  1  0  0  0  0
 48 52  1  0  0  0  0
 48 69  1  0  0  0  0
 49 72  1  0  0  0  0
 50 68  1  0  0  0  0
 51 53  1  0  0  0  0
 52 67  1  0  0  0  0
 54 63  1  0  0  0  0
 55 64  1  0  0  0  0
 56 64  1  0  0  0  0
 57 64  1  0  0  0  0
 58 75  1  0  0  0  0
 59 82  1  0  0  0  0
 60 61  1  0  0  0  0
 60 74  1  0  0  0  0
 61 83  1  0  0  0  0
 62 64  1  0  0  0  0
 62 73  1  0  0  0  0
 63 75  1  0  0  0  0
 66 67  1  0  0  0  0
M  CHG  1  75   1
M  ISO  4  37 100  59 101  74 100  82 101
M  END
> <Batch ID>
0148

> <Smiles>
CNC(C)C(=O)NC(C(=O)N1Cc2cc([101O:1][101CH2:1]c3ncc(OCC[100NH:0][100C:0](=O)N4CCCC(n5nc(-c6ccc(Oc7ccc(F)cc7F)cc6)c(C(N)=O)c5N)C4)c4c3CC(C)C4)ccc2CC1C(=O)NC1CCCc2ccccc21)C(C)(C)C

> <Shape>
0.314

> <Color>
0.117

> <Negative vol penalty>
0.000

$$$$

  -OEChem-04052321363D

 84 93  0     1  0  0  0  0  0999 V2000
  -17.9091  -32.5021   24.1455 C   0  0  0  0  0  0  0  0  0  0  0  0
  -19.1502  -32.8095   23.5972 C   0  0  0  0  0  0  0  0  0  0  0  0
  -24.5441  -13.7754   19.6183 C   0  0  0  0  0  0  0  0  0  0  0  0
  -26.4678  -13.9669   21.0674 C   0  0  0  0  0  0  0  0  0  0  0  0
  -17.6752  -31.2314   24.6695 C   0  0  0  0  0  0  0  0  0  0  0  0
  -20.1585  -31.8466   23.5735 C   0  0  0  0  0  0  0  0  0  0  0  0
  -25.7257  -29.6890   19.6153 C   0  0  0  0  0  0  0  0  0  0  0  0
  -24.5413  -12.3931   19.8047 C   0  0  0  0  0  0  0  0  0  0  0  0
  -26.4650  -12.5845   21.2538 C   0  0  0  0  0  0  0  0  0  0  0  0
  -27.0848  -29.4019   19.7341 C   0  0  0  0  0  0  0  0  0  0  0  0
  -23.8070   -8.8533   20.1864 C   0  0  0  0  0  0  0  0  0  0  0  0
  -22.5819   -8.2352   20.4367 C   0  0  0  0  0  0  0  0  0  0  0  0
  -29.5192  -26.1091   17.8140 C   0  0  0  0  0  0  0  0  0  0  0  0
  -26.5413  -27.2154   20.5963 C   0  0  0  0  0  0  0  0  0  0  0  0
  -31.3797  -25.1582   19.0269 C   0  0  0  0  0  0  0  0  0  0  0  0
  -22.3086   -9.5816   22.4241 C   0  0  0  0  0  0  0  0  0  0  0  0
  -25.5075  -14.5623   20.2496 C   0  0  0  0  0  0  0  0  0  0  0  0
  -24.8345  -16.9539   20.8285 C   0  0  0  0  0  0  0  0  0  0  0  0
  -18.6780  -30.2494   24.6434 C   0  0  0  0  0  0  0  0  0  0  0  0
  -24.7625  -28.7440   19.9969 C   0  0  0  0  0  0  0  0  0  0  0  0
  -19.9382  -30.5620   24.0988 C   0  0  0  0  0  0  0  0  0  0  0  0
  -29.2042  -24.8480   17.3083 C   0  0  0  0  0  0  0  0  0  0  0  0
  -25.1706  -27.4921   20.4789 C   0  0  0  0  0  0  0  0  0  0  0  0
  -30.6070  -26.2643   18.6733 C   0  0  0  0  0  0  0  0  0  0  0  0
  -29.9769  -23.7418   17.6619 C   0  0  0  0  0  0  0  0  0  0  0  0
  -25.5017  -11.7976   20.6225 C   0  0  0  0  0  0  0  0  0  0  0  0
  -27.4928  -28.1660   20.2274 C   0  0  0  0  0  0  0  0  0  0  0  0
  -24.2830   -9.8355   21.0550 C   0  0  0  0  0  0  0  0  0  0  0  0
  -31.0647  -23.8969   18.5212 C   0  0  0  0  0  0  0  0  0  0  0  0
  -21.8327   -8.5994   21.5555 C   0  0  0  0  0  0  0  0  0  0  0  0
  -23.5337  -10.1997   22.1738 C   0  0  0  0  0  0  0  0  0  0  0  0
  -25.5113  -15.9903   20.0571 C   0  0  0  0  0  0  0  0  0  0  0  0
  -25.1583  -18.1528   20.2416 C   0  0  0  0  0  0  0  0  0  0  0  0
  -23.9888  -16.7809   21.9733 C   0  0  0  0  0  0  0  0  0  0  0  0
  -22.4498  -28.6525   22.1756 C   0  0  0  0  0  0  0  0  0  0  0  0
  -28.9787  -21.5247   18.1650 C   0  0  0  0  0  0  0  0  0  0  0  0
  -21.7294  -25.8412   20.7264 C   0  0  0  0  0  0  0  0  0  0  0  0
  -22.7845  -23.2008   18.8392 C   0  0  0  0  0  0  0  0  0  0  0  0
  -18.3936  -28.9048   25.2645 C   0  0  0  0  0  0  0  0  0  0  0  0
  -23.3005  -29.0591   19.8375 C   0  0  0  0  0  0  0  0  0  0  0  0
  -24.1764  -26.4355   20.8833 C   0  0  0  0  0  0  0  0  0  0  0  0
  -19.3937  -27.8241   24.8619 C   0  0  0  0  0  0  0  0  0  0  0  0
  -27.4444  -19.1715   15.8551 C   0  0  0  0  0  0  0  0  0  0  0  0
  -26.9177  -25.7120   16.4721 C   0  0  0  0  0  0  0  0  0  0  0  0
  -26.6991  -24.3152   16.9634 C   0  0  0  0  0  0  0  0  0  0  0  0
  -20.8214  -28.3490   24.9753 C   0  0  0  0  0  0  0  0  0  0  0  0
  -26.7718  -18.1933   16.8173 C   0  0  0  0  0  0  0  0  0  0  0  0
  -28.7651  -19.6922   16.4163 C   0  0  0  0  0  0  0  0  0  0  0  0
  -27.9687  -19.3386   18.7326 C   0  0  0  0  0  0  0  0  0  0  0  0
  -28.0350  -24.7066   16.3905 C   0  0  0  0  0  0  0  0  0  0  0  0
  -21.0492  -29.5366   24.0324 C   0  0  1  0  0  0  0  0  0  0  0  0
  -22.4054  -28.2145   20.7390 C   0  0  1  0  0  0  0  0  0  0  0  0
  -26.6184  -18.8135   18.2171 C   0  0  2  0  0  0  0  0  0  0  0  0
  -31.9746  -28.3491   18.3346 C   0  0  0  0  0  0  0  0  0  0  0  0
  -22.6258  -21.0800   17.5070 C   0  0  0  0  0  0  0  0  0  0  0  0
  -21.8724  -24.5300   23.4778 C   0  0  0  0  0  0  0  0  0  0  0  0
  -22.0105  -22.3071   22.3343 C   0  0  0  0  0  0  0  0  0  0  0  0
  -19.9866  -23.7354   22.0402 C   0  0  0  0  0  0  0  0  0  0  0  0
  -22.1971  -24.6765   16.3420 C   0  0  0  0  0  0  0  0  0  0  0  0
  -29.6453  -22.3866   17.1226 C   0  0  0  0  0  0  0  0  0  0  0  0
  -29.7014  -28.5103   19.4154 C   0  0  0  0  0  0  0  0  0  1  0  0
  -30.9506  -27.6392   19.2246 C   0  0  1  0  0  0  0  0  0  0  0  0
  -22.1493  -24.4034   20.9140 C   0  0  1  0  0  0  0  0  0  0  0  0
  -22.1805  -22.5298   17.6187 C   0  0  2  0  0  0  0  0  0  0  0  0
  -21.5237  -23.7644   22.1859 C   0  0  0  0  0  0  0  0  0  0  0  0
  -26.2120  -16.5303   19.0563 N   0  0  0  0  0  0  0  0  0  0  0  0
  -25.9772  -17.8462   19.1949 N   0  0  0  0  0  0  0  0  0  0  0  0
  -22.7584  -26.7936   20.7147 N   0  0  0  0  0  0  0  0  0  0  0  0
  -28.5814  -20.2497   17.7616 N   0  0  0  0  0  0  0  0  0  0  0  0
  -24.8195  -19.4287   20.5240 N   0  0  0  0  0  0  0  0  0  0  0  0
  -23.7614  -15.4811   22.4457 N   0  0  0  0  0  0  0  0  0  0  0  0
  -21.2317  -29.0748   22.6730 N   0  0  0  0  0  0  0  0  0  0  0  0
  -21.8135  -23.7148   19.6724 N   0  0  0  0  0  0  0  0  0  0  0  0
  -22.5920  -23.2448   16.3776 N   0  3  0  0  0  0  0  0  0  0  0  0
  -23.4375  -17.7488   22.5500 O   0  0  0  0  0  0  0  0  0  0  0  0
  -23.5104  -28.6090   22.7880 O   0  0  0  0  0  0  0  0  0  0  0  0
  -28.8145  -21.9739   19.3023 O   0  0  0  0  0  0  0  0  0  0  0  0
  -20.5332  -26.1088   20.5880 O   0  0  0  0  0  0  0  0  0  0  0  0
  -23.9963  -23.2595   19.0357 O   0  0  0  0  0  0  0  0  0  0  0  0
  -31.8310  -22.8284   18.8778 O   0  0  0  0  0  0  0  0  0  0  0  0
  -25.4991  -10.4488   20.8047 O   0  0  0  0  0  0  0  0  0  0  0  0
  -28.8188  -27.8834   20.3450 O   0  0  0  0  0  0  0  0  0  1  0  0
  -20.6555   -8.0068   21.7949 F   0  0  0  0  0  0  0  0  0  0  0  0
  -23.9852  -11.1435   23.0112 F   0  0  0  0  0  0  0  0  0  0  0  0
  1  2  1  0  0  0  0
  1  5  2  0  0  0  0
  2  6  2  0  0  0  0
  3  8  2  0  0  0  0
  3 17  1  0  0  0  0
  4  9  1  0  0  0  0
  4 17  2  0  0  0  0
  5 19  1  0  0  0  0
  6 21  1  0  0  0  0
  7 10  2  0  0  0  0
  7 20  1  0  0  0  0
  8 26  1  0  0  0  0
  9 26  2  0  0  0  0
 10 27  1  0  0  0  0
 11 12  2  0  0  0  0
 11 28  1  0  0  0  0
 12 30  1  0  0  0  0
 13 22  1  0  0  0  0
 13 24  2  0  0  0  0
 14 23  1  0  0  0  0
 14 27  2  0  0  0  0
 15 24  1  0  0  0  0
 15 29  2  0  0  0  0
 16 30  2  0  0  0  0
 16 31  1  0  0  0  0
 17 32  1  0  0  0  0
 18 32  1  0  0  0  0
 18 33  2  0  0  0  0
 18 34  1  0  0  0  0
 19 21  2  0  0  0  0
 19 39  1  0  0  0  0
 20 23  2  0  0  0  0
 20 40  1  0  0  0  0
 21 51  1  0  0  0  0
 22 25  2  0  0  0  0
 22 50  1  0  0  0  0
 23 41  1  0  0  0  0
 24 62  1  0  0  0  0
 25 29  1  0  0  0  0
 25 60  1  0  0  0  0
 26 81  1  0  0  0  0
 27 82  1  0  0  0  0
 28 31  2  0  0  0  0
 28 81  1  0  0  0  0
 29 80  1  0  0  0  0
 30 83  1  0  0  0  0
 31 84  1  0  0  0  0
 32 66  2  0  0  0  0
 33 67  1  0  0  0  0
 33 70  1  0  0  0  0
 34 71  1  0  0  0  0
 34 75  2  0  0  0  0
 35 52  1  0  0  0  0
 35 72  1  0  0  0  0
 35 76  2  0  0  0  0
 36 60  1  0  0  0  0
 36 69  1  0  0  0  0
 36 77  2  0  0  0  0
 37 63  1  0  0  0  0
 37 68  1  0  0  0  0
 37 78  2  0  0  0  0
 38 64  1  0  0  0  0
 38 73  1  0  0  0  0
 38 79  2  0  0  0  0
 39 42  1  0  0  0  0
 40 52  1  0  0  0  0
 41 68  1  0  0  0  0
 42 46  1  0  0  0  0
 43 47  1  0  0  0  0
 43 48  1  0  0  0  0
 44 45  1  0  0  0  0
 44 50  1  0  0  0  0
 45 50  1  0  0  0  0
 46 51  1  0  0  0  0
 47 53  1  0  0  0  0
 48 69  1  0  0  0  0
 49 53  1  0  0  0  0
 49 69  1  0  0  0  0
 51 72  1  0  0  0  0
 52 68  1  0  0  0  0
 53 67  1  0  0  0  0
 54 62  1  0  0  0  0
 55 64  1  0  0  0  0
 56 65  1  0  0  0  0
 57 65  1  0  0  0  0
 58 65  1  0  0  0  0
 59 74  1  0  0  0  0
 61 62  1  0  0  0  0
 61 82  1  0  0  0  0
 63 65  1  0  0  0  0
 63 73  1  0  0  0  0
 64 74  1  0  0  0  0
 66 67  1  0  0  0  0
M  CHG  1  74   1
M  ISO  4  36 100  60 100  61 101  82 101
M  END
> <Batch ID>
0148

> <Smiles>
CNC(C)C(=O)NC(C(=O)N1Cc2cc([101O:1][101CH2:1]C(C)c3cc(O)c([100CH2:0][100C:0](=O)N4CCCC(n5nc(-c6ccc(Oc7ccc(F)cc7F)cc6)c(C(N)=O)c5N)C4)c(C4CC4)c3)ccc2CC1C(=O)NC1CCCc2ccccc21)C(C)(C)C

> <Shape>
0.226

> <Color>
0.096

> <Negative vol penalty>
0.000

$$$$

  -OEChem-04052321363D

 89 99  0     1  0  0  0  0  0999 V2000
  -27.3597  -34.9554   26.0419 C   0  0  0  0  0  0  0  0  0  0  0  0
  -27.5988  -33.6792   25.5426 C   0  0  0  0  0  0  0  0  0  0  0  0
  -23.9179   -9.5265   22.3015 C   0  0  0  0  0  0  0  0  0  0  0  0
  -25.1671   -7.5684   21.6363 C   0  0  0  0  0  0  0  0  0  0  0  0
  -26.0537  -35.4361   26.1268 C   0  0  0  0  0  0  0  0  0  0  0  0
  -26.5319  -32.8823   25.1288 C   0  0  0  0  0  0  0  0  0  0  0  0
  -27.4247  -30.5839   20.7056 C   0  0  0  0  0  0  0  0  0  0  0  0
  -22.7280   -8.8093   22.1782 C   0  0  0  0  0  0  0  0  0  0  0  0
  -23.9772   -6.8512   21.5130 C   0  0  0  0  0  0  0  0  0  0  0  0
  -28.2473  -29.4584   20.7275 C   0  0  0  0  0  0  0  0  0  0  0  0
  -21.7801   -5.3033   23.5618 C   0  0  0  0  0  0  0  0  0  0  0  0
  -21.7412   -4.0177   24.1014 C   0  0  0  0  0  0  0  0  0  0  0  0
  -29.7546  -20.4865   20.3508 C   0  0  0  0  0  0  0  0  0  0  0  0
  -26.2980  -28.0395   20.6496 C   0  0  0  0  0  0  0  0  0  0  0  0
  -21.2563   -3.1141   21.9138 C   0  0  0  0  0  0  0  0  0  0  0  0
  -29.3646  -20.9866   22.6430 C   0  0  0  0  0  0  0  0  0  0  0  0
  -25.1375   -8.9061   22.0305 C   0  0  0  0  0  0  0  0  0  0  0  0
  -27.1712   -9.7691   23.3061 C   0  0  0  0  0  0  0  0  0  0  0  0
  -24.9710  -34.6485   25.7049 C   0  0  0  0  0  0  0  0  0  0  0  0
  -26.0298  -30.4453   20.6665 C   0  0  0  0  0  0  0  0  0  0  0  0
  -25.2101  -33.3524   25.2094 C   0  0  0  0  0  0  0  0  0  0  0  0
  -29.5914  -20.0397   21.6573 C   0  0  0  0  0  0  0  0  0  0  0  0
  -25.4600  -29.1648   20.6247 C   0  0  0  0  0  0  0  0  0  0  0  0
  -22.7576   -7.4716   21.7840 C   0  0  0  0  0  0  0  0  0  0  0  0
  -27.6839  -28.1860   20.7024 C   0  0  0  0  0  0  0  0  0  0  0  0
  -21.5570   -5.4944   22.1982 C   0  0  0  0  0  0  0  0  0  0  0  0
  -29.6870  -21.8473   20.0738 C   0  0  0  0  0  0  0  0  0  0  0  0
  -21.4794   -2.9231   23.2774 C   0  0  0  0  0  0  0  0  0  0  0  0
  -21.2952   -4.3998   21.3742 C   0  0  0  0  0  0  0  0  0  0  0  0
  -26.3670   -9.6466   22.1572 C   0  0  0  0  0  0  0  0  0  0  0  0
  -29.4558  -22.7134   21.1303 C   0  0  0  0  0  0  0  0  0  0  0  0
  -28.2155  -10.5687   22.9107 C   0  0  0  0  0  0  0  0  0  0  0  0
  -26.9903   -9.2099   24.6139 C   0  0  0  0  0  0  0  0  0  0  0  0
  -23.6384  -31.2742   22.5895 C   0  0  0  0  0  0  0  0  0  0  0  0
  -21.8089  -30.1950   20.1378 C   0  0  0  0  0  0  0  0  0  0  0  0
  -21.5407  -28.1969   17.3842 C   0  0  0  0  0  0  0  0  0  0  0  0
  -30.2972  -14.8948   20.2701 C   0  0  0  0  0  0  0  0  0  0  0  0
  -23.5731  -35.1931   25.8599 C   0  0  0  0  0  0  0  0  0  0  0  0
  -25.1572  -31.6694   20.6163 C   0  0  0  0  0  0  0  0  0  0  0  0
  -23.9688  -28.9620   20.5619 C   0  0  0  0  0  0  0  0  0  0  0  0
  -22.5283  -34.4285   25.0512 C   0  0  0  0  0  0  0  0  0  0  0  0
  -29.6298  -12.1218   18.3173 C   0  0  0  0  0  0  0  0  0  0  0  0
  -22.7076  -32.9247   25.2337 C   0  0  0  0  0  0  0  0  0  0  0  0
  -30.4224  -25.0376   21.6433 C   0  0  0  0  0  0  0  0  0  0  0  0
  -28.7869  -11.2300   19.2286 C   0  0  0  0  0  0  0  0  0  0  0  0
  -29.6328  -25.9799   22.5500 C   0  0  0  0  0  0  0  0  0  0  0  0
  -28.5477  -17.7587   21.2973 C   0  0  0  0  0  0  0  0  0  0  0  0
  -31.0425  -17.9619   21.6774 C   0  0  0  0  0  0  0  0  0  0  0  0
  -28.0013  -24.7907   21.2812 C   0  0  0  0  0  0  0  0  0  0  0  0
  -29.2274  -13.5849   18.4616 C   0  0  0  0  0  0  0  0  0  0  0  0
  -28.6432  -16.2638   21.6158 C   0  0  0  0  0  0  0  0  0  0  0  0
  -31.0748  -16.4733   22.0114 C   0  0  0  0  0  0  0  0  0  0  0  0
  -28.4687  -13.2154   20.7867 C   0  0  0  0  0  0  0  0  0  0  0  0
  -29.6606  -18.5620   21.9941 C   0  0  0  0  0  0  0  0  0  0  0  0
  -24.0810  -32.4675   24.7275 C   0  0  1  0  0  0  0  0  0  0  0  0
  -29.3707  -24.2030   20.8835 C   0  0  2  0  0  0  0  0  0  0  0  0
  -23.7327  -31.4078   21.0958 C   0  0  1  0  0  0  0  0  0  0  0  0
  -28.8394  -11.7217   20.6859 C   0  0  1  0  0  0  0  0  0  0  0  0
  -28.3167  -26.1815   21.8147 C   0  0  2  0  0  0  0  0  0  1  0  0
  -19.9106  -27.4975   15.6091 C   0  0  0  0  0  0  0  0  0  0  0  0
  -20.3885  -28.3982   22.1537 C   0  0  0  0  0  0  0  0  0  0  0  0
  -19.4755  -27.0803   20.2307 C   0  0  0  0  0  0  0  0  0  0  0  0
  -18.8797  -29.4894   20.4841 C   0  0  0  0  0  0  0  0  0  0  0  0
  -23.2556  -29.2689   15.2235 C   0  0  0  0  0  0  0  0  0  0  0  0
  -30.0804  -21.3144   17.7897 C   0  0  0  0  0  0  0  0  0  0  0  0
  -21.2167  -28.8610   19.7525 C   0  0  1  0  0  0  0  0  0  0  0  0
  -21.0148  -28.4724   15.9871 C   0  0  2  0  0  0  0  0  0  0  0  0
  -20.0182  -28.4607   20.6584 C   0  0  0  0  0  0  0  0  0  0  0  0
  -29.2923  -22.3167   22.4124 N   0  0  0  0  0  0  0  0  0  0  0  0
  -26.8583  -10.3151   21.1103 N   0  0  0  0  0  0  0  0  0  0  0  0
  -27.9824  -10.8653   21.6000 N   0  0  0  0  0  0  0  0  0  0  0  0
  -23.1576  -30.1899   20.5211 N   0  0  0  0  0  0  0  0  0  0  0  0
  -29.2866  -14.0124   19.8593 N   0  0  0  0  0  0  0  0  0  0  0  0
  -29.9938  -15.7582   21.3335 N   0  0  0  0  0  0  0  0  0  0  0  0
  -29.3014  -11.0400   23.5597 N   0  0  0  0  0  0  0  0  0  0  0  0
  -25.8627   -8.4115   24.8491 N   0  0  0  0  0  0  0  0  0  0  0  0
  -24.0848  -32.3831   23.2828 N   0  0  0  0  0  0  0  0  0  0  0  0
  -20.8886  -28.9544   18.3340 N   0  0  0  0  0  0  0  0  0  0  0  0
  -22.1127  -28.3498   14.9869 N   0  3  0  0  0  0  0  0  0  0  0  0
  -27.7960   -9.4258   25.5509 O   0  0  0  0  0  0  0  0  0  0  0  0
  -23.1923  -30.2422   23.0768 O   0  0  0  0  0  0  0  0  0  0  0  0
  -21.1029  -31.2056   20.0933 O   0  0  0  0  0  0  0  0  0  0  0  0
  -22.4375  -27.3876   17.6108 O   0  0  0  0  0  0  0  0  0  0  0  0
  -31.4056  -14.9103   19.7202 O   0  0  0  0  0  0  0  0  0  0  0  0
  -21.5967   -6.7713   21.6638 O   0  0  0  0  0  0  0  0  0  0  0  0
  -28.4901  -27.0782   20.7245 O   0  0  0  0  0  0  0  0  0  1  0  0
  -29.8468  -22.2946   18.8021 O   0  0  0  0  0  0  0  0  0  0  0  0
  -21.4436   -1.6884   23.7955 F   0  0  0  0  0  0  0  0  0  0  0  0
  -21.0812   -4.5770   20.0632 F   0  0  0  0  0  0  0  0  0  0  0  0
  1  2  1  0  0  0  0
  1  5  2  0  0  0  0
  2  6  2  0  0  0  0
  3  8  2  0  0  0  0
  3 17  1  0  0  0  0
  4  9  1  0  0  0  0
  4 17  2  0  0  0  0
  5 19  1  0  0  0  0
  6 21  1  0  0  0  0
  7 10  2  0  0  0  0
  7 20  1  0  0  0  0
  8 24  1  0  0  0  0
  9 24  2  0  0  0  0
 10 25  1  0  0  0  0
 11 12  2  0  0  0  0
 11 26  1  0  0  0  0
 12 28  1  0  0  0  0
 13 22  2  0  0  0  0
 13 27  1  0  0  0  0
 14 23  1  0  0  0  0
 14 25  2  0  0  0  0
 15 28  2  0  0  0  0
 15 29  1  0  0  0  0
 16 22  1  0  0  0  0
 16 69  2  0  0  0  0
 17 30  1  0  0  0  0
 18 30  1  0  0  0  0
 18 32  2  0  0  0  0
 18 33  1  0  0  0  0
 19 21  2  0  0  0  0
 19 38  1  0  0  0  0
 20 23  2  0  0  0  0
 20 39  1  0  0  0  0
 21 55  1  0  0  0  0
 22 54  1  0  0  0  0
 23 40  1  0  0  0  0
 24 85  1  0  0  0  0
 25 86  1  0  0  0  0
 26 29  2  0  0  0  0
 26 85  1  0  0  0  0
 27 31  2  0  0  0  0
 27 87  1  0  0  0  0
 28 88  1  0  0  0  0
 29 89  1  0  0  0  0
 30 70  2  0  0  0  0
 31 56  1  0  0  0  0
 31 69  1  0  0  0  0
 32 71  1  0  0  0  0
 32 75  1  0  0  0  0
 33 76  1  0  0  0  0
 33 80  2  0  0  0  0
 34 57  1  0  0  0  0
 34 77  1  0  0  0  0
 34 81  2  0  0  0  0
 35 66  1  0  0  0  0
 35 72  1  0  0  0  0
 35 82  2  0  0  0  0
 36 67  1  0  0  0  0
 36 78  1  0  0  0  0
 36 83  2  0  0  0  0
 37 73  1  0  0  0  0
 37 74  1  0  0  0  0
 37 84  2  0  0  0  0
 38 41  1  0  0  0  0
 39 57  1  0  0  0  0
 40 72  1  0  0  0  0
 41 43  1  0  0  0  0
 42 45  1  0  0  0  0
 42 50  1  0  0  0  0
 43 55  1  0  0  0  0
 44 46  1  0  0  0  0
 44 56  1  0  0  0  0
 45 58  1  0  0  0  0
 46 59  1  0  0  0  0
 47 51  1  0  0  0  0
 47 54  1  0  0  0  0
 48 52  1  0  0  0  0
 48 54  1  0  0  0  0
 49 56  1  0  0  0  0
 49 59  1  0  0  0  0
 50 73  1  0  0  0  0
 51 74  1  0  0  0  0
 52 74  1  0  0  0  0
 53 58  1  0  0  0  0
 53 73  1  0  0  0  0
 55 77  1  0  0  0  0
 57 72  1  0  0  0  0
 58 71  1  0  0  0  0
 59 86  1  0  0  0  0
 60 67  1  0  0  0  0
 61 68  1  0  0  0  0
 62 68  1  0  0  0  0
 63 68  1  0  0  0  0
 64 79  1  0  0  0  0
 65 87  1  0  0  0  0
 66 68  1  0  0  0  0
 66 78  1  0  0  0  0
 67 79  1  0  0  0  0
 70 71  1  0  0  0  0
M  CHG  1  79   1
M  ISO  4  37 100  59 101  74 100  86 101
M  END
> <Batch ID>
0148

> <Smiles>
CNC(C)C(=O)NC(C(=O)N1Cc2cc([101O:1][101CH:1]3CCC(c4ncc(C5CC[100N:0]([100C:0](=O)N6CCCC(n7nc(-c8ccc(Oc9ccc(F)cc9F)cc8)c(C(N)=O)c7N)C6)CC5)cc4OC)C3)ccc2CC1C(=O)NC1CCCc2ccccc21)C(C)(C)C

> <Shape>
0.310

> <Color>
0.095

> <Negative vol penalty>
0.000

$$$$

  -OEChem-04052321363D

 87 96  0     1  0  0  0  0  0999 V2000
  -31.4417  -34.6769   23.7858 C   0  0  0  0  0  0  0  0  0  0  0  0
  -31.2680  -33.4906   23.0803 C   0  0  0  0  0  0  0  0  0  0  0  0
  -26.4525  -21.9014   16.8395 C   0  0  0  0  0  0  0  0  0  0  0  0
  -23.5329   -9.3879   20.0009 C   0  0  0  0  0  0  0  0  0  0  0  0
  -25.0420   -8.2131   21.4772 C   0  0  0  0  0  0  0  0  0  0  0  0
  -30.5538  -35.0165   24.8057 C   0  0  0  0  0  0  0  0  0  0  0  0
  -30.2069  -32.6425   23.3951 C   0  0  0  0  0  0  0  0  0  0  0  0
  -26.9897  -29.1721   19.5077 C   0  0  0  0  0  0  0  0  0  0  0  0
  -26.5494  -23.2714   17.0830 C   0  0  0  0  0  0  0  0  0  0  0  0
  -26.9768  -20.9911   17.7573 C   0  0  0  0  0  0  0  0  0  0  0  0
  -22.4567   -9.0209   20.8088 C   0  0  0  0  0  0  0  0  0  0  0  0
  -23.9658   -7.8461   22.2852 C   0  0  0  0  0  0  0  0  0  0  0  0
  -27.0670  -27.8211   19.1720 C   0  0  0  0  0  0  0  0  0  0  0  0
  -21.4934   -5.5403   22.2457 C   0  0  0  0  0  0  0  0  0  0  0  0
  -21.4324   -4.2169   22.6821 C   0  0  0  0  0  0  0  0  0  0  0  0
  -25.3241  -27.3313   20.7663 C   0  0  0  0  0  0  0  0  0  0  0  0
  -21.5117   -4.9699   24.9765 C   0  0  0  0  0  0  0  0  0  0  0  0
  -24.8255   -8.9840   20.3350 C   0  0  0  0  0  0  0  0  0  0  0  0
  -26.1256   -9.0484   18.1411 C   0  0  0  0  0  0  0  0  0  0  0  0
  -29.4756  -34.1768   25.1267 C   0  0  0  0  0  0  0  0  0  0  0  0
  -26.0850  -29.6120   20.4846 C   0  0  0  0  0  0  0  0  0  0  0  0
  -29.3045  -32.9705   24.4211 C   0  0  0  0  0  0  0  0  0  0  0  0
  -25.2355  -28.6888   21.1107 C   0  0  0  0  0  0  0  0  0  0  0  0
  -27.1708  -23.7312   18.2440 C   0  0  0  0  0  0  0  0  0  0  0  0
  -27.6952  -22.8209   19.1618 C   0  0  0  0  0  0  0  0  0  0  0  0
  -27.5982  -21.4509   18.9183 C   0  0  0  0  0  0  0  0  0  0  0  0
  -22.6732   -8.2500   21.9510 C   0  0  0  0  0  0  0  0  0  0  0  0
  -26.2362  -26.9001   19.8034 C   0  0  0  0  0  0  0  0  0  0  0  0
  -21.5636   -6.5785   23.1746 C   0  0  0  0  0  0  0  0  0  0  0  0
  -21.4415   -3.9317   24.0475 C   0  0  0  0  0  0  0  0  0  0  0  0
  -21.5728   -6.2933   24.5400 C   0  0  0  0  0  0  0  0  0  0  0  0
  -25.9375   -9.3623   19.5005 C   0  0  0  0  0  0  0  0  0  0  0  0
  -27.3244   -9.6347   17.8161 C   0  0  0  0  0  0  0  0  0  0  0  0
  -25.2913   -8.2944   17.2517 C   0  0  0  0  0  0  0  0  0  0  0  0
  -26.3554  -31.0407   23.3112 C   0  0  0  0  0  0  0  0  0  0  0  0
  -23.1189  -31.1561   23.1258 C   0  0  0  0  0  0  0  0  0  0  0  0
  -20.2434  -29.8582   21.8245 C   0  0  0  0  0  0  0  0  0  0  0  0
  -30.3699  -14.2116   19.9263 C   0  0  0  0  0  0  0  0  0  0  0  0
  -28.5695  -34.5633   26.2687 C   0  0  0  0  0  0  0  0  0  0  0  0
  -25.9952  -31.0764   20.8162 C   0  0  0  0  0  0  0  0  0  0  0  0
  -24.2329  -29.1128   22.1517 C   0  0  0  0  0  0  0  0  0  0  0  0
  -27.2527  -33.7914   26.2896 C   0  0  0  0  0  0  0  0  0  0  0  0
  -31.5039  -10.9407   19.7225 C   0  0  0  0  0  0  0  0  0  0  0  0
  -27.5040  -32.3013   26.0814 C   0  0  0  0  0  0  0  0  0  0  0  0
  -30.2304  -10.1226   19.5133 C   0  0  0  0  0  0  0  0  0  0  0  0
  -28.2016  -18.3570   20.9629 C   0  0  0  0  0  0  0  0  0  0  0  0
  -29.1246  -18.6568   18.6289 C   0  0  0  0  0  0  0  0  0  0  0  0
  -28.2102  -16.8396   20.7730 C   0  0  0  0  0  0  0  0  0  0  0  0
  -29.1344  -17.1397   18.4369 C   0  0  0  0  0  0  0  0  0  0  0  0
  -31.2747  -12.0549   20.7367 C   0  0  0  0  0  0  0  0  0  0  0  0
  -28.8718  -12.1752   20.1597 C   0  0  0  0  0  0  0  0  0  0  0  0
  -28.1511  -32.0364   24.7166 C   0  0  1  0  0  0  0  0  0  0  0  0
  -25.3965  -31.3414   22.1942 C   0  0  1  0  0  0  0  0  0  0  0  0
  -29.0465  -11.0317   19.1394 C   0  0  2  0  0  0  0  0  0  0  0  0
  -28.0451  -19.0834   19.6254 C   0  0  0  0  0  0  0  0  0  0  0  0
  -29.2853  -16.4076   19.7729 C   0  0  0  0  0  0  0  0  0  0  0  0
  -28.3612  -23.3185   20.4062 C   0  0  0  0  0  0  0  0  0  0  0  0
  -17.7504  -30.1384   21.8876 C   0  0  0  0  0  0  0  0  0  0  0  0
  -23.0390  -29.8072   25.8615 C   0  0  0  0  0  0  0  0  0  0  0  0
  -20.6312  -29.2620   25.4449 C   0  0  0  0  0  0  0  0  0  0  0  0
  -21.3684  -31.6427   25.5542 C   0  0  0  0  0  0  0  0  0  0  0  0
  -27.9286  -14.4174   19.2919 C   0  0  0  0  0  0  0  0  0  0  0  0
  -20.1207  -30.4546   18.9282 C   0  0  0  0  0  0  0  0  0  0  0  0
  -27.2616  -25.2100   18.4812 C   0  0  0  0  0  0  0  0  0  1  0  0
  -21.9910  -30.2434   23.5426 C   0  0  1  0  0  0  0  0  0  0  0  0
  -19.0403  -30.5220   21.1792 C   0  0  2  0  0  0  0  0  0  0  0  0
  -21.7775  -30.2303   25.0826 C   0  0  0  0  0  0  0  0  0  0  0  0
  -26.9368  -10.0912   20.0045 N   0  0  0  0  0  0  0  0  0  0  0  0
  -27.7645  -10.2402   18.9562 N   0  0  0  0  0  0  0  0  0  0  0  0
  -24.1874  -30.5546   22.4459 N   0  0  0  0  0  0  0  0  0  0  0  0
  -30.1400  -12.8952   20.3529 N   0  0  0  0  0  0  0  0  0  0  0  0
  -28.0345   -9.6861   16.6691 N   0  0  0  0  0  0  0  0  0  0  0  0
  -25.4940   -6.9108   17.1575 N   0  0  0  0  0  0  0  0  0  0  0  0
  -28.1222  -20.5131   19.8351 N   0  0  0  0  0  0  0  0  0  0  0  0
  -27.1595  -32.1074   23.6648 N   0  0  0  0  0  0  0  0  0  0  0  0
  -20.8209  -30.6664   22.7808 N   0  0  0  0  0  0  0  0  0  0  0  0
  -29.2478  -14.9783   19.5778 N   0  0  0  0  0  0  0  0  0  0  0  0
  -18.9298  -30.1165   19.7494 N   0  3  0  0  0  0  0  0  0  0  0  0
  -24.4035   -8.8341   16.5488 O   0  0  0  0  0  0  0  0  0  0  0  0
  -26.3640  -29.9241   23.8160 O   0  0  0  0  0  0  0  0  0  0  0  0
  -23.0510  -32.3597   23.3873 O   0  0  0  0  0  0  0  0  0  0  0  0
  -20.6298  -28.7336   21.5140 O   0  0  0  0  0  0  0  0  0  0  0  0
  -31.5141  -14.6801   19.8670 O   0  0  0  0  0  0  0  0  0  0  0  0
  -21.6233   -7.8919   22.7397 O   0  0  0  0  0  0  0  0  0  0  0  0
  -26.3102  -25.5808   19.4780 O   0  0  0  0  0  0  0  0  0  1  0  0
  -21.3814   -2.6609   24.4665 F   0  0  0  0  0  0  0  0  0  0  0  0
  -21.6389   -7.2866   25.4371 F   0  0  0  0  0  0  0  0  0  0  0  0
  1  2  1  0  0  0  0
  1  6  2  0  0  0  0
  2  7  2  0  0  0  0
  3  9  2  0  0  0  0
  3 10  1  0  0  0  0
  4 11  2  0  0  0  0
  4 18  1  0  0  0  0
  5 12  1  0  0  0  0
  5 18  2  0  0  0  0
  6 20  1  0  0  0  0
  7 22  1  0  0  0  0
  8 13  2  0  0  0  0
  8 21  1  0  0  0  0
  9 24  1  0  0  0  0
 10 26  2  0  0  0  0
 11 27  1  0  0  0  0
 12 27  2  0  0  0  0
 13 28  1  0  0  0  0
 14 15  2  0  0  0  0
 14 29  1  0  0  0  0
 15 30  1  0  0  0  0
 16 23  1  0  0  0  0
 16 28  2  0  0  0  0
 17 30  2  0  0  0  0
 17 31  1  0  0  0  0
 18 32  1  0  0  0  0
 19 32  1  0  0  0  0
 19 33  2  0  0  0  0
 19 34  1  0  0  0  0
 20 22  2  0  0  0  0
 20 39  1  0  0  0  0
 21 23  2  0  0  0  0
 21 40  1  0  0  0  0
 22 52  1  0  0  0  0
 23 41  1  0  0  0  0
 24 25  2  0  0  0  0
 24 64  1  0  0  0  0
 25 26  1  0  0  0  0
 25 57  1  0  0  0  0
 26 74  1  0  0  0  0
 27 84  1  0  0  0  0
 28 85  1  0  0  0  0
 29 31  2  0  0  0  0
 29 84  1  0  0  0  0
 30 86  1  0  0  0  0
 31 87  1  0  0  0  0
 32 68  2  0  0  0  0
 33 69  1  0  0  0  0
 33 72  1  0  0  0  0
 34 73  1  0  0  0  0
 34 79  2  0  0  0  0
 35 53  1  0  0  0  0
 35 75  1  0  0  0  0
 35 80  2  0  0  0  0
 36 65  1  0  0  0  0
 36 70  1  0  0  0  0
 36 81  2  0  0  0  0
 37 66  1  0  0  0  0
 37 76  1  0  0  0  0
 37 82  2  0  0  0  0
 38 71  1  0  0  0  0
 38 77  1  0  0  0  0
 38 83  2  0  0  0  0
 39 42  1  0  0  0  0
 40 53  1  0  0  0  0
 41 70  1  0  0  0  0
 42 44  1  0  0  0  0
 43 45  1  0  0  0  0
 43 50  1  0  0  0  0
 44 52  1  0  0  0  0
 45 54  1  0  0  0  0
 46 48  1  0  0  0  0
 46 55  1  0  0  0  0
 47 49  1  0  0  0  0
 47 55  1  0  0  0  0
 48 56  1  0  0  0  0
 49 56  1  0  0  0  0
 50 71  1  0  0  0  0
 51 54  1  0  0  0  0
 51 71  1  0  0  0  0
 52 75  1  0  0  0  0
 53 70  1  0  0  0  0
 54 69  1  0  0  0  0
 55 74  1  0  0  0  0
 56 77  1  0  0  0  0
 58 66  1  0  0  0  0
 59 67  1  0  0  0  0
 60 67  1  0  0  0  0
 61 67  1  0  0  0  0
 62 77  1  0  0  0  0
 63 78  1  0  0  0  0
 64 85  1  0  0  0  0
 65 67  1  0  0  0  0
 65 76  1  0  0  0  0
 66 78  1  0  0  0  0
 68 69  1  0  0  0  0
M  CHG  1  78   1
M  ISO  4  38 100  64 101  77 100  85 101
M  END
> <Batch ID>
0148

> <Smiles>
CNC(C)C(=O)NC(C(=O)N1Cc2cc([101O:1][101CH2:1]c3cccc(NC4CCC([100N:0](C)[100C:0](=O)N5CCCC(n6nc(-c7ccc(Oc8ccc(F)cc8F)cc7)c(C(N)=O)c6N)C5)CC4)c3C)ccc2CC1C(=O)NC1CCCc2ccccc21)C(C)(C)C

> <Shape>
0.283

> <Color>
0.097

> <Negative vol penalty>
0.000

$$$$

  -OEChem-04052321363D

 83 92  0     1  0  0  0  0  0999 V2000
  -20.0793  -19.1310   14.4346 C   0  0  0  0  0  0  0  0  0  0  0  0
  -20.8499  -18.0155   14.7462 C   0  0  0  0  0  0  0  0  0  0  0  0
  -26.2017  -28.0259   18.8986 C   0  0  0  0  0  0  0  0  0  0  0  0
  -26.3513  -27.6851   21.2858 C   0  0  0  0  0  0  0  0  0  0  0  0
  -20.0929  -20.2431   15.2754 C   0  0  0  0  0  0  0  0  0  0  0  0
  -21.6355  -18.0119   15.8982 C   0  0  0  0  0  0  0  0  0  0  0  0
  -22.8613  -13.2153   19.5033 C   0  0  0  0  0  0  0  0  0  0  0  0
  -25.1674  -28.9410   19.0941 C   0  0  0  0  0  0  0  0  0  0  0  0
  -25.3170  -28.6003   21.4813 C   0  0  0  0  0  0  0  0  0  0  0  0
  -23.9583  -12.3588   19.5841 C   0  0  0  0  0  0  0  0  0  0  0  0
  -21.9444  -28.6362   21.2451 C   0  0  0  0  0  0  0  0  0  0  0  0
  -20.9336  -28.2899   22.1417 C   0  0  0  0  0  0  0  0  0  0  0  0
  -28.2888  -15.2917   20.7116 C   0  0  0  0  0  0  0  0  0  0  0  0
  -24.8680  -13.7019   21.3695 C   0  0  0  0  0  0  0  0  0  0  0  0
  -31.0486  -15.3189   20.3050 C   0  0  0  0  0  0  0  0  0  0  0  0
  -21.4600  -30.2286   23.4839 C   0  0  0  0  0  0  0  0  0  0  0  0
  -26.7937  -27.3978   19.9945 C   0  0  0  0  0  0  0  0  0  0  0  0
  -29.2419  -26.7255   19.7460 C   0  0  0  0  0  0  0  0  0  0  0  0
  -20.8715  -20.2494   16.4434 C   0  0  0  0  0  0  0  0  0  0  0  0
  -22.7645  -14.3297   20.3491 C   0  0  0  0  0  0  0  0  0  0  0  0
  -21.6606  -19.1256   16.7547 C   0  0  0  0  0  0  0  0  0  0  0  0
  -28.9334  -14.1542   20.2256 C   0  0  0  0  0  0  0  0  0  0  0  0
  -23.7674  -14.5696   21.2992 C   0  0  0  0  0  0  0  0  0  0  0  0
  -29.0241  -16.4428   20.9942 C   0  0  0  0  0  0  0  0  0  0  0  0
  -30.3133  -14.1678   20.0223 C   0  0  0  0  0  0  0  0  0  0  0  0
  -30.4040  -16.4564   20.7909 C   0  0  0  0  0  0  0  0  0  0  0  0
  -24.7250  -29.2283   20.3854 C   0  0  0  0  0  0  0  0  0  0  0  0
  -24.9633  -12.6036   20.5153 C   0  0  0  0  0  0  0  0  0  0  0  0
  -22.7132  -29.7786   21.4679 C   0  0  0  0  0  0  0  0  0  0  0  0
  -20.6914  -29.0862   23.2611 C   0  0  0  0  0  0  0  0  0  0  0  0
  -22.4710  -30.5748   22.5873 C   0  0  0  0  0  0  0  0  0  0  0  0
  -27.8618  -26.4520   19.7933 C   0  0  0  0  0  0  0  0  0  0  0  0
  -29.8277  -25.5012   19.5354 C   0  0  0  0  0  0  0  0  0  0  0  0
  -29.9327  -27.9747   19.8806 C   0  0  0  0  0  0  0  0  0  0  0  0
  -22.6480  -17.4757   19.9100 C   0  0  0  0  0  0  0  0  0  0  0  0
  -22.1263  -17.5109   23.1113 C   0  0  0  0  0  0  0  0  0  0  0  0
  -22.4704  -15.9380   26.1204 C   0  0  0  0  0  0  0  0  0  0  0  0
  -28.0568  -20.0193   20.8270 C   0  0  0  0  0  0  0  0  0  0  0  0
  -20.8905  -21.4930   17.2966 C   0  0  0  0  0  0  0  0  0  0  0  0
  -21.5616  -15.2289   20.2676 C   0  0  0  0  0  0  0  0  0  0  0  0
  -23.7009  -15.7407   22.2440 C   0  0  0  0  0  0  0  0  0  0  0  0
  -21.4603  -21.2642   18.6941 C   0  0  0  0  0  0  0  0  0  0  0  0
  -28.9729  -21.2340   17.5434 C   0  0  0  0  0  0  0  0  0  0  0  0
  -22.7538  -20.4593   18.6181 C   0  0  0  0  0  0  0  0  0  0  0  0
  -28.9205  -22.7484   17.7537 C   0  0  0  0  0  0  0  0  0  0  0  0
  -28.5126  -11.6288   20.5738 C   0  0  0  0  0  0  0  0  0  0  0  0
  -27.8631  -20.5296   18.3181 C   0  0  0  0  0  0  0  0  0  0  0  0
  -27.7957  -22.3379   19.9912 C   0  0  0  0  0  0  0  0  0  0  0  0
  -28.1326  -12.9421   19.9308 C   0  0  1  0  0  0  0  0  0  0  0  0
  -22.5066  -19.0741   18.0084 C   0  0  1  0  0  0  0  0  0  0  0  0
  -21.8192  -16.6238   20.8292 C   0  0  1  0  0  0  0  0  0  0  0  0
  -28.9064  -23.1058   19.2518 C   0  0  2  0  0  0  0  0  0  0  0  0
  -27.2723  -12.3406   21.0205 C   0  0  1  0  0  0  0  0  0  1  0  0
  -31.0271  -12.9623   19.5039 C   0  0  0  0  0  0  0  0  0  0  0  0
  -31.2125  -17.6768   21.0871 C   0  0  0  0  0  0  0  0  0  0  0  0
  -21.9788  -16.2306   28.5637 C   0  0  0  0  0  0  0  0  0  0  0  0
  -24.4557  -19.4680   23.3431 C   0  0  0  0  0  0  0  0  0  0  0  0
  -24.5266  -18.9846   25.7986 C   0  0  0  0  0  0  0  0  0  0  0  0
  -22.4892  -20.0110   24.7896 C   0  0  0  0  0  0  0  0  0  0  0  0
  -20.7369  -13.5399   26.1775 C   0  0  0  0  0  0  0  0  0  0  0  0
  -28.3125  -17.6487   21.5140 C   0  0  0  0  0  0  0  0  0  0  0  0
  -23.0050  -17.5776   24.3371 C   0  0  1  0  0  0  0  0  0  0  0  0
  -21.4784  -15.6758   27.2392 C   0  0  2  0  0  0  0  0  0  0  0  0
  -23.6216  -18.9892   24.5481 C   0  0  0  0  0  0  0  0  0  0  0  0
  -27.5871  -25.1556   19.6259 N   0  0  0  0  0  0  0  0  0  0  0  0
  -28.8027  -24.6037   19.4714 N   0  0  0  0  0  0  0  0  0  0  0  0
  -22.5079  -16.5946   22.1211 N   0  0  0  0  0  0  0  0  0  0  0  0
  -27.9169  -20.8979   19.7399 N   0  0  0  0  0  0  0  0  0  0  0  0
  -31.1143  -25.1155   19.4005 N   0  0  0  0  0  0  0  0  0  0  0  0
  -29.1777  -29.1362   20.0930 N   0  0  0  0  0  0  0  0  0  0  0  0
  -21.9092  -18.1906   18.9867 N   0  0  0  0  0  0  0  0  0  0  0  0
  -22.1876  -17.1100   25.4513 N   0  0  0  0  0  0  0  0  0  0  0  0
  -28.1582  -18.6718   20.5037 N   0  0  0  0  0  0  0  0  0  0  0  0
  -21.2524  -14.2113   27.3984 N   0  3  0  0  0  0  0  0  0  0  0  0
  -31.1814  -28.0607   19.7982 O   0  0  0  0  0  0  0  0  0  0  0  0
  -23.8675  -17.4848   20.0304 O   0  0  0  0  0  0  0  0  0  0  0  0
  -21.1338  -18.2397   23.0384 O   0  0  0  0  0  0  0  0  0  0  0  0
  -23.4050  -15.1809   25.8678 O   0  0  0  0  0  0  0  0  0  0  0  0
  -28.0940  -20.4076   21.9996 O   0  0  0  0  0  0  0  0  0  0  0  0
  -23.7159  -30.1214   20.5765 O   0  0  0  0  0  0  0  0  0  0  0  0
  -26.0355  -11.7695   20.5958 O   0  0  0  0  0  0  0  0  0  1  0  0
  -19.7196  -28.7544   24.1211 F   0  0  0  0  0  0  0  0  0  0  0  0
  -23.2054  -31.6742   22.8060 F   0  0  0  0  0  0  0  0  0  0  0  0
  1  2  1  0  0  0  0
  1  5  2  0  0  0  0
  2  6  2  0  0  0  0
  3  8  2  0  0  0  0
  3 17  1  0  0  0  0
  4  9  1  0  0  0  0
  4 17  2  0  0  0  0
  5 19  1  0  0  0  0
  6 21  1  0  0  0  0
  7 10  2  0  0  0  0
  7 20  1  0  0  0  0
  8 27  1  0  0  0  0
  9 27  2  0  0  0  0
 10 28  1  0  0  0  0
 11 12  2  0  0  0  0
 11 29  1  0  0  0  0
 12 30  1  0  0  0  0
 13 22  1  0  0  0  0
 13 24  2  0  0  0  0
 14 23  1  0  0  0  0
 14 28  2  0  0  0  0
 15 25  1  0  0  0  0
 15 26  2  0  0  0  0
 16 30  2  0  0  0  0
 16 31  1  0  0  0  0
 17 32  1  0  0  0  0
 18 32  1  0  0  0  0
 18 33  2  0  0  0  0
 18 34  1  0  0  0  0
 19 21  2  0  0  0  0
 19 39  1  0  0  0  0
 20 23  2  0  0  0  0
 20 40  1  0  0  0  0
 21 50  1  0  0  0  0
 22 25  2  0  0  0  0
 22 49  1  0  0  0  0
 23 41  1  0  0  0  0
 24 26  1  0  0  0  0
 24 61  1  0  0  0  0
 25 54  1  0  0  0  0
 26 55  1  0  0  0  0
 27 80  1  0  0  0  0
 28 81  1  0  0  0  0
 29 31  2  0  0  0  0
 29 80  1  0  0  0  0
 30 82  1  0  0  0  0
 31 83  1  0  0  0  0
 32 65  2  0  0  0  0
 33 66  1  0  0  0  0
 33 69  1  0  0  0  0
 34 70  1  0  0  0  0
 34 75  2  0  0  0  0
 35 51  1  0  0  0  0
 35 71  1  0  0  0  0
 35 76  2  0  0  0  0
 36 62  1  0  0  0  0
 36 67  1  0  0  0  0
 36 77  2  0  0  0  0
 37 63  1  0  0  0  0
 37 72  1  0  0  0  0
 37 78  2  0  0  0  0
 38 68  1  0  0  0  0
 38 73  1  0  0  0  0
 38 79  2  0  0  0  0
 39 42  1  0  0  0  0
 40 51  1  0  0  0  0
 41 67  1  0  0  0  0
 42 44  1  0  0  0  0
 43 45  1  0  0  0  0
 43 47  1  0  0  0  0
 44 50  1  0  0  0  0
 45 52  1  0  0  0  0
 46 49  1  0  0  0  0
 46 53  1  0  0  0  0
 47 68  1  0  0  0  0
 48 52  1  0  0  0  0
 48 68  1  0  0  0  0
 49 53  1  0  0  0  0
 50 71  1  0  0  0  0
 51 67  1  0  0  0  0
 52 66  1  0  0  0  0
 53 81  1  0  0  0  0
 56 63  1  0  0  0  0
 57 64  1  0  0  0  0
 58 64  1  0  0  0  0
 59 64  1  0  0  0  0
 60 74  1  0  0  0  0
 61 73  1  0  0  0  0
 62 64  1  0  0  0  0
 62 72  1  0  0  0  0
 63 74  1  0  0  0  0
 65 66  1  0  0  0  0
M  CHG  1  74   1
M  ISO  4  38 100  53 101  73 100  81 101
M  END
> <Batch ID>
0148

> <Smiles>
CNC(C)C(=O)NC(C(=O)N1Cc2cc([101O:1][101CH:1]3CC3c3cc(C[100NH:0][100C:0](=O)N4CCCC(n5nc(-c6ccc(Oc7ccc(F)cc7F)cc6)c(C(N)=O)c5N)C4)c(C)cc3C)ccc2CC1C(=O)NC1CCCc2ccccc21)C(C)(C)C

> <Shape>
0.241

> <Color>
0.056

> <Negative vol penalty>
0.000

$$$$

  -OEChem-04052321363D

 88 98  0     1  0  0  0  0  0999 V2000
  -27.0746  -37.6710   24.1730 C   0  0  0  0  0  0  0  0  0  0  0  0
  -27.7721  -36.6731   23.4998 C   0  0  0  0  0  0  0  0  0  0  0  0
  -23.6474  -10.4805   22.4223 C   0  0  0  0  0  0  0  0  0  0  0  0
  -24.4790   -8.6136   21.1337 C   0  0  0  0  0  0  0  0  0  0  0  0
  -25.9472  -37.3453   24.9259 C   0  0  0  0  0  0  0  0  0  0  0  0
  -27.3431  -35.3487   23.5800 C   0  0  0  0  0  0  0  0  0  0  0  0
  -27.0597  -29.3281   19.7085 C   0  0  0  0  0  0  0  0  0  0  0  0
  -22.5069   -9.7470   22.7490 C   0  0  0  0  0  0  0  0  0  0  0  0
  -23.3385   -7.8801   21.4605 C   0  0  0  0  0  0  0  0  0  0  0  0
  -27.4050  -27.9797   19.7873 C   0  0  0  0  0  0  0  0  0  0  0  0
  -20.8141   -5.3860   22.2511 C   0  0  0  0  0  0  0  0  0  0  0  0
  -20.9864   -4.0594   22.6460 C   0  0  0  0  0  0  0  0  0  0  0  0
  -28.7063  -23.3688   21.2890 C   0  0  0  0  0  0  0  0  0  0  0  0
  -25.3979  -27.5459   21.0533 C   0  0  0  0  0  0  0  0  0  0  0  0
  -28.0856  -23.0536   18.9754 C   0  0  0  0  0  0  0  0  0  0  0  0
  -22.3553   -4.7887   24.4984 C   0  0  0  0  0  0  0  0  0  0  0  0
  -24.6335   -9.9138   21.6146 C   0  0  0  0  0  0  0  0  0  0  0  0
  -27.0248  -10.7197   21.9889 C   0  0  0  0  0  0  0  0  0  0  0  0
  -25.4986  -36.0177   25.0075 C   0  0  0  0  0  0  0  0  0  0  0  0
  -25.8845  -29.7984   20.3119 C   0  0  0  0  0  0  0  0  0  0  0  0
  -26.2094  -35.0048   24.3358 C   0  0  0  0  0  0  0  0  0  0  0  0
  -28.8782  -21.9918   21.4304 C   0  0  0  0  0  0  0  0  0  0  0  0
  -25.0387  -28.9004   20.9785 C   0  0  0  0  0  0  0  0  0  0  0  0
  -28.6539  -21.1457   20.3444 C   0  0  0  0  0  0  0  0  0  0  0  0
  -28.3099  -23.8997   20.0614 C   0  0  0  0  0  0  0  0  0  0  0  0
  -28.2576  -21.6766   19.1169 C   0  0  0  0  0  0  0  0  0  0  0  0
  -22.3524   -8.4468   22.2681 C   0  0  0  0  0  0  0  0  0  0  0  0
  -26.5756  -27.0889   20.4623 C   0  0  0  0  0  0  0  0  0  0  0  0
  -21.4124   -6.4140   22.9798 C   0  0  0  0  0  0  0  0  0  0  0  0
  -21.7570   -3.7607   23.7697 C   0  0  0  0  0  0  0  0  0  0  0  0
  -22.1830   -6.1153   24.1034 C   0  0  0  0  0  0  0  0  0  0  0  0
  -25.8116  -10.6713   21.2763 C   0  0  0  0  0  0  0  0  0  0  0  0
  -27.8167  -11.5738   21.2609 C   0  0  0  0  0  0  0  0  0  0  0  0
  -27.4022  -10.0522   23.2003 C   0  0  0  0  0  0  0  0  0  0  0  0
  -25.2267  -31.8842   22.6184 C   0  0  0  0  0  0  0  0  0  0  0  0
  -22.1602  -31.3025   21.7350 C   0  0  0  0  0  0  0  0  0  0  0  0
  -19.9178  -29.1837   20.2759 C   0  0  0  0  0  0  0  0  0  0  0  0
  -28.6513  -16.1488   18.3637 C   0  0  0  0  0  0  0  0  0  0  0  0
  -24.3024  -35.7075   25.8721 C   0  0  0  0  0  0  0  0  0  0  0  0
  -25.5127  -31.2511   20.1949 C   0  0  0  0  0  0  0  0  0  0  0  0
  -23.7556  -29.3511   21.6258 C   0  0  0  0  0  0  0  0  0  0  0  0
  -23.6949  -34.3334   25.6012 C   0  0  0  0  0  0  0  0  0  0  0  0
  -27.1935  -13.5278   16.6452 C   0  0  0  0  0  0  0  0  0  0  0  0
  -28.2513  -20.9620   23.7153 C   0  0  0  0  0  0  0  0  0  0  0  0
  -28.9912  -22.2313   24.0011 C   0  0  0  0  0  0  0  0  0  0  0  0
  -24.7877  -33.2717   25.5278 C   0  0  0  0  0  0  0  0  0  0  0  0
  -26.7996  -12.5449   17.7475 C   0  0  0  0  0  0  0  0  0  0  0  0
  -27.5282  -18.8768   20.2649 C   0  0  0  0  0  0  0  0  0  0  0  0
  -29.9547  -19.1090   19.5811 C   0  0  0  0  0  0  0  0  0  0  0  0
  -26.9062  -14.9642   17.0667 C   0  0  0  0  0  0  0  0  0  0  0  0
  -27.7304  -17.3638   20.3878 C   0  0  0  0  0  0  0  0  0  0  0  0
  -30.1061  -17.5995   19.7449 C   0  0  0  0  0  0  0  0  0  0  0  0
  -27.1878  -14.3892   19.4559 C   0  0  0  0  0  0  0  0  0  0  0  0
  -29.3033  -21.4476   22.7543 C   0  0  0  0  0  0  0  0  0  0  0  0
  -28.8402  -19.6478   20.4963 C   0  0  0  0  0  0  0  0  0  0  0  0
  -25.7608  -33.5602   24.3782 C   0  0  1  0  0  0  0  0  0  0  0  0
  -24.5521  -31.7118   21.2870 C   0  0  1  0  0  0  0  0  0  0  0  0
  -27.4641  -12.9181   19.0845 C   0  0  1  0  0  0  0  0  0  0  0  0
  -28.8889  -21.1589   16.7463 C   0  0  0  0  0  0  0  0  0  0  0  0
  -17.4769  -28.9666   19.7350 C   0  0  0  0  0  0  0  0  0  0  0  0
  -21.5722  -30.6570   24.6586 C   0  0  0  0  0  0  0  0  0  0  0  0
  -19.4486  -29.5581   23.9165 C   0  0  0  0  0  0  0  0  0  0  0  0
  -19.7991  -31.9940   23.5085 C   0  0  0  0  0  0  0  0  0  0  0  0
  -20.4562  -29.0353   17.3696 C   0  0  0  0  0  0  0  0  0  0  0  0
  -28.0106  -20.7924   17.9387 C   0  0  0  0  0  0  0  0  0  0  0  0
  -28.1257  -25.3718   19.9102 C   0  0  0  0  0  0  0  0  0  1  0  0
  -21.0999  -30.3090   22.1443 C   0  0  1  0  0  0  0  0  0  0  0  0
  -18.8393  -29.4201   19.2341 C   0  0  2  0  0  0  0  0  0  0  0  0
  -20.5050  -30.6211   23.5465 C   0  0  0  0  0  0  0  0  0  0  0  0
  -25.8267  -11.4341   20.1800 N   0  0  0  0  0  0  0  0  0  0  0  0
  -27.0591  -11.9699   20.1982 N   0  0  0  0  0  0  0  0  0  0  0  0
  -23.4389  -30.7824   21.4895 N   0  0  0  0  0  0  0  0  0  0  0  0
  -27.5511  -15.2784   18.3415 N   0  0  0  0  0  0  0  0  0  0  0  0
  -28.8321  -16.9156   19.5247 N   0  0  0  0  0  0  0  0  0  0  0  0
  -29.0801  -12.0172   21.4326 N   0  0  0  0  0  0  0  0  0  0  0  0
  -26.4675   -9.2102   23.8183 N   0  0  0  0  0  0  0  0  0  0  0  0
  -25.1759  -33.1739   23.1121 N   0  0  0  0  0  0  0  0  0  0  0  0
  -20.1158  -30.2953   21.0674 N   0  0  0  0  0  0  0  0  0  0  0  0
  -19.1535  -28.6717   17.9843 N   0  3  0  0  0  0  0  0  0  0  0  0
  -28.5289  -10.2108   23.7283 O   0  0  0  0  0  0  0  0  0  0  0  0
  -25.7530  -30.9184   23.1587 O   0  0  0  0  0  0  0  0  0  0  0  0
  -21.8631  -32.4951   21.6298 O   0  0  0  0  0  0  0  0  0  0  0  0
  -20.5213  -28.1182   20.3799 O   0  0  0  0  0  0  0  0  0  0  0  0
  -29.4271  -16.2357   17.4037 O   0  0  0  0  0  0  0  0  0  0  0  0
  -21.2398   -7.7306   22.5869 O   0  0  0  0  0  0  0  0  0  0  0  0
  -26.9129  -25.7632   20.5418 O   0  0  0  0  0  0  0  0  0  1  0  0
  -21.9211   -2.4868   24.1497 F   0  0  0  0  0  0  0  0  0  0  0  0
  -22.7593   -7.0987   24.8082 F   0  0  0  0  0  0  0  0  0  0  0  0
  1  2  1  0  0  0  0
  1  5  2  0  0  0  0
  2  6  2  0  0  0  0
  3  8  2  0  0  0  0
  3 17  1  0  0  0  0
  4  9  1  0  0  0  0
  4 17  2  0  0  0  0
  5 19  1  0  0  0  0
  6 21  1  0  0  0  0
  7 10  2  0  0  0  0
  7 20  1  0  0  0  0
  8 27  1  0  0  0  0
  9 27  2  0  0  0  0
 10 28  1  0  0  0  0
 11 12  2  0  0  0  0
 11 29  1  0  0  0  0
 12 30  1  0  0  0  0
 13 22  2  0  0  0  0
 13 25  1  0  0  0  0
 14 23  1  0  0  0  0
 14 28  2  0  0  0  0
 15 25  2  0  0  0  0
 15 26  1  0  0  0  0
 16 30  2  0  0  0  0
 16 31  1  0  0  0  0
 17 32  1  0  0  0  0
 18 32  1  0  0  0  0
 18 33  2  0  0  0  0
 18 34  1  0  0  0  0
 19 21  2  0  0  0  0
 19 39  1  0  0  0  0
 20 23  2  0  0  0  0
 20 40  1  0  0  0  0
 21 56  1  0  0  0  0
 22 24  1  0  0  0  0
 22 54  1  0  0  0  0
 23 41  1  0  0  0  0
 24 26  2  0  0  0  0
 24 55  1  0  0  0  0
 25 66  1  0  0  0  0
 26 65  1  0  0  0  0
 27 85  1  0  0  0  0
 28 86  1  0  0  0  0
 29 31  2  0  0  0  0
 29 85  1  0  0  0  0
 30 87  1  0  0  0  0
 31 88  1  0  0  0  0
 32 70  2  0  0  0  0
 33 71  1  0  0  0  0
 33 75  1  0  0  0  0
 34 76  1  0  0  0  0
 34 80  2  0  0  0  0
 35 57  1  0  0  0  0
 35 77  1  0  0  0  0
 35 81  2  0  0  0  0
 36 67  1  0  0  0  0
 36 72  1  0  0  0  0
 36 82  2  0  0  0  0
 37 68  1  0  0  0  0
 37 78  1  0  0  0  0
 37 83  2  0  0  0  0
 38 73  1  0  0  0  0
 38 74  1  0  0  0  0
 38 84  2  0  0  0  0
 39 42  1  0  0  0  0
 40 57  1  0  0  0  0
 41 72  1  0  0  0  0
 42 46  1  0  0  0  0
 43 47  1  0  0  0  0
 43 50  1  0  0  0  0
 44 45  1  0  0  0  0
 44 54  1  0  0  0  0
 45 54  1  0  0  0  0
 46 56  1  0  0  0  0
 47 58  1  0  0  0  0
 48 51  1  0  0  0  0
 48 55  1  0  0  0  0
 49 52  1  0  0  0  0
 49 55  1  0  0  0  0
 50 73  1  0  0  0  0
 51 74  1  0  0  0  0
 52 74  1  0  0  0  0
 53 58  1  0  0  0  0
 53 73  1  0  0  0  0
 56 77  1  0  0  0  0
 57 72  1  0  0  0  0
 58 71  1  0  0  0  0
 59 65  1  0  0  0  0
 60 68  1  0  0  0  0
 61 69  1  0  0  0  0
 62 69  1  0  0  0  0
 63 69  1  0  0  0  0
 64 79  1  0  0  0  0
 66 86  1  0  0  0  0
 67 69  1  0  0  0  0
 67 78  1  0  0  0  0
 68 79  1  0  0  0  0
 70 71  1  0  0  0  0
M  CHG  1  79   1
M  ISO  4  38 100  66 101  74 100  86 101
M  END
> <Batch ID>
0148

> <Smiles>
CCc1cc([101CH2:1][101O:1]c2ccc3c(c2)CN(C(=O)C(NC(=O)C(C)NC)C(C)(C)C)C(C(=O)NC2CCCc4ccccc42)C3)cc(C2CC2)c1C1CC[100N:0]([100C:0](=O)N2CCCC(n3nc(-c4ccc(Oc5ccc(F)cc5F)cc4)c(C(N)=O)c3N)C2)CC1

> <Shape>
0.326

> <Color>
0.087

> <Negative vol penalty>
0.000

$$$$

  -OEChem-04052321363D

 92102  0     1  0  0  0  0  0999 V2000
  -15.8448  -27.7476   15.6121 C   0  0  0  0  0  0  0  0  0  0  0  0
  -16.9283  -26.9400   15.2817 C   0  0  0  0  0  0  0  0  0  0  0  0
  -23.0798   -9.8606   19.9478 C   0  0  0  0  0  0  0  0  0  0  0  0
  -23.8330   -9.8854   22.2433 C   0  0  0  0  0  0  0  0  0  0  0  0
  -16.0024  -28.7800   16.5358 C   0  0  0  0  0  0  0  0  0  0  0  0
  -18.1704  -27.1651   15.8741 C   0  0  0  0  0  0  0  0  0  0  0  0
  -22.7232  -22.2986   19.9505 C   0  0  0  0  0  0  0  0  0  0  0  0
  -22.3376   -8.7077   20.2038 C   0  0  0  0  0  0  0  0  0  0  0  0
  -23.0908   -8.7325   22.4993 C   0  0  0  0  0  0  0  0  0  0  0  0
  -23.5415  -21.5777   20.8204 C   0  0  0  0  0  0  0  0  0  0  0  0
  -19.8626   -7.9322   23.0981 C   0  0  0  0  0  0  0  0  0  0  0  0
  -19.1023   -7.8990   24.2671 C   0  0  0  0  0  0  0  0  0  0  0  0
  -24.3195  -23.6401   21.8149 C   0  0  0  0  0  0  0  0  0  0  0  0
  -32.7739  -21.1515   23.1942 C   0  0  0  0  0  0  0  0  0  0  0  0
  -32.6112  -23.4767   23.8298 C   0  0  0  0  0  0  0  0  0  0  0  0
  -20.3456   -5.9694   25.0208 C   0  0  0  0  0  0  0  0  0  0  0  0
  -23.8276  -10.4495   20.9676 C   0  0  0  0  0  0  0  0  0  0  0  0
  -24.1645  -12.9744   20.8306 C   0  0  0  0  0  0  0  0  0  0  0  0
  -17.2447  -29.0118   17.1470 C   0  0  0  0  0  0  0  0  0  0  0  0
  -22.6882  -23.6941   20.0200 C   0  0  0  0  0  0  0  0  0  0  0  0
  -18.3451  -28.2024   16.8058 C   0  0  0  0  0  0  0  0  0  0  0  0
  -23.4923  -24.3670   20.9545 C   0  0  0  0  0  0  0  0  0  0  0  0
  -31.3851  -21.0846   23.0832 C   0  0  0  0  0  0  0  0  0  0  0  0
  -31.2223  -23.4099   23.7187 C   0  0  0  0  0  0  0  0  0  0  0  0
  -30.6093  -22.2138   23.3454 C   0  0  0  0  0  0  0  0  0  0  0  0
  -22.3431   -8.1437   21.4795 C   0  0  0  0  0  0  0  0  0  0  0  0
  -24.3378  -22.2468   21.7501 C   0  0  0  0  0  0  0  0  0  0  0  0
  -20.8643   -6.9840   22.8905 C   0  0  0  0  0  0  0  0  0  0  0  0
  -33.3869  -22.3475   23.5675 C   0  0  0  0  0  0  0  0  0  0  0  0
  -19.3438   -6.9176   25.2285 C   0  0  0  0  0  0  0  0  0  0  0  0
  -21.1059   -6.0027   23.8518 C   0  0  0  0  0  0  0  0  0  0  0  0
  -24.5949  -11.6401   20.7036 C   0  0  0  0  0  0  0  0  0  0  0  0
  -25.2561  -13.7236   20.4652 C   0  0  0  0  0  0  0  0  0  0  0  0
  -22.8917  -13.4905   21.2422 C   0  0  0  0  0  0  0  0  0  0  0  0
  -21.2451  -26.8877   18.6805 C   0  0  0  0  0  0  0  0  0  0  0  0
  -21.4166  -27.1965   21.7277 C   0  0  0  0  0  0  0  0  0  0  0  0
  -21.3799  -26.9752   25.1317 C   0  0  0  0  0  0  0  0  0  0  0  0
  -30.7372  -14.7555   20.6622 C   0  0  0  0  0  0  0  0  0  0  0  0
  -17.3781  -30.1697   18.1041 C   0  0  0  0  0  0  0  0  0  0  0  0
  -21.8681  -24.5142   19.0616 C   0  0  0  0  0  0  0  0  0  0  0  0
  -23.4484  -25.8706   20.9700 C   0  0  0  0  0  0  0  0  0  0  0  0
  -18.6356  -30.1048   18.9671 C   0  0  0  0  0  0  0  0  0  0  0  0
  -29.6115  -12.3517   18.2891 C   0  0  0  0  0  0  0  0  0  0  0  0
  -31.0210  -18.6572   23.7019 C   0  0  0  0  0  0  0  0  0  0  0  0
  -31.1821  -19.3352   21.2648 C   0  0  0  0  0  0  0  0  0  0  0  0
  -19.8538  -29.7725   18.1113 C   0  0  0  0  0  0  0  0  0  0  0  0
  -28.1734  -12.0581   18.7200 C   0  0  0  0  0  0  0  0  0  0  0  0
  -30.3623  -17.3404   23.2891 C   0  0  0  0  0  0  0  0  0  0  0  0
  -30.5242  -18.0165   20.8571 C   0  0  0  0  0  0  0  0  0  0  0  0
  -27.0603  -21.2163   23.9838 C   0  0  0  0  0  0  0  0  0  0  0  0
  -27.2166  -22.4700   21.8272 C   0  0  0  0  0  0  0  0  0  0  0  0
  -30.5247  -12.5830   19.4911 C   0  0  0  0  0  0  0  0  0  0  0  0
  -28.4179  -21.7703   24.4072 C   0  0  0  0  0  0  0  0  0  0  0  0
  -28.5715  -23.0290   22.2501 C   0  0  0  0  0  0  0  0  0  0  0  0
  -28.6174  -13.3199   20.8669 C   0  0  0  0  0  0  0  0  0  0  0  0
  -30.7468  -19.7693   22.6751 C   0  0  0  0  0  0  0  0  0  0  0  0
  -19.7024  -28.3995   17.4455 C   0  0  1  0  0  0  0  0  0  0  0  0
  -21.2880  -25.7885   19.7010 C   0  0  1  0  0  0  0  0  0  0  0  0
  -27.6470  -13.1349   19.6877 C   0  0  2  0  0  0  0  0  0  0  0  0
  -30.7950  -16.9149   21.8840 C   0  0  0  0  0  0  0  0  0  0  0  0
  -26.3353  -22.1585   23.0313 C   0  0  0  0  0  0  0  0  0  1  0  0
  -30.4176  -24.6359   24.0060 C   0  0  0  0  0  0  0  0  0  0  0  0
  -20.7909  -28.2921   27.1850 C   0  0  0  0  0  0  0  0  0  0  0  0
  -23.9615  -28.8449   21.3960 C   0  0  0  0  0  0  0  0  0  0  0  0
  -23.8281  -29.4101   23.8313 C   0  0  0  0  0  0  0  0  0  0  0  0
  -22.0019  -30.1183   22.2866 C   0  0  0  0  0  0  0  0  0  0  0  0
  -19.3503  -24.9888   25.9648 C   0  0  0  0  0  0  0  0  0  0  0  0
  -35.4742  -21.2211   23.3933 C   0  0  0  0  0  0  0  0  0  0  0  0
  -22.2237  -27.6774   22.9070 C   0  0  1  0  0  0  0  0  0  0  0  0
  -20.2998  -27.2916   26.1503 C   0  0  2  0  0  0  0  0  0  0  0  0
  -23.0047  -28.9855   22.5967 C   0  0  0  0  0  0  0  0  0  0  0  0
  -25.8612  -11.5440   20.2897 N   0  0  0  0  0  0  0  0  0  0  0  0
  -26.2358  -12.8274   20.1533 N   0  0  0  0  0  0  0  0  0  0  0  0
  -29.2146  -22.1467   23.2340 N   0  0  0  0  0  0  0  0  0  0  0  0
  -22.0590  -26.3341   20.8310 N   0  0  0  0  0  0  0  0  0  0  0  0
  -29.9694  -13.6166   20.3681 N   0  0  0  0  0  0  0  0  0  0  0  0
  -25.4640  -15.0550   20.3834 N   0  0  0  0  0  0  0  0  0  0  0  0
  -21.8807  -12.5816   21.5830 N   0  0  0  0  0  0  0  0  0  0  0  0
  -19.9716  -27.3435   18.3979 N   0  0  0  0  0  0  0  0  0  0  0  0
  -21.2900  -27.7892   24.0224 N   0  0  0  0  0  0  0  0  0  0  0  0
  -30.1337  -15.6890   21.4959 N   0  0  0  0  0  0  0  0  0  0  0  0
  -19.8774  -26.0509   26.8598 N   0  3  0  0  0  0  0  0  0  0  0  0
  -22.6528  -14.7210   21.2901 O   0  0  0  0  0  0  0  0  0  0  0  0
  -22.2901  -27.2943   18.1862 O   0  0  0  0  0  0  0  0  0  0  0  0
  -20.2498  -27.5779   21.5996 O   0  0  0  0  0  0  0  0  0  0  0  0
  -22.2217  -26.0965   25.3045 O   0  0  0  0  0  0  0  0  0  0  0  0
  -31.8741  -14.9301   20.2106 O   0  0  0  0  0  0  0  0  0  0  0  0
  -21.6188   -7.0188   21.7297 O   0  0  0  0  0  0  0  0  0  0  0  0
  -25.1310  -21.5366   22.5994 O   0  0  0  0  0  0  0  0  0  1  0  0
  -34.7422  -22.4127   23.6759 O   0  0  0  0  0  0  0  0  0  0  0  0
  -18.6147   -6.8868   26.3517 F   0  0  0  0  0  0  0  0  0  0  0  0
  -22.0677   -5.0898   23.6585 F   0  0  0  0  0  0  0  0  0  0  0  0
  1  2  1  0  0  0  0
  1  5  2  0  0  0  0
  2  6  2  0  0  0  0
  3  8  2  0  0  0  0
  3 17  1  0  0  0  0
  4  9  1  0  0  0  0
  4 17  2  0  0  0  0
  5 19  1  0  0  0  0
  6 21  1  0  0  0  0
  7 10  2  0  0  0  0
  7 20  1  0  0  0  0
  8 26  1  0  0  0  0
  9 26  2  0  0  0  0
 10 27  1  0  0  0  0
 11 12  2  0  0  0  0
 11 28  1  0  0  0  0
 12 30  1  0  0  0  0
 13 22  1  0  0  0  0
 13 27  2  0  0  0  0
 14 23  1  0  0  0  0
 14 29  2  0  0  0  0
 15 24  2  0  0  0  0
 15 29  1  0  0  0  0
 16 30  2  0  0  0  0
 16 31  1  0  0  0  0
 17 32  1  0  0  0  0
 18 32  1  0  0  0  0
 18 33  2  0  0  0  0
 18 34  1  0  0  0  0
 19 21  2  0  0  0  0
 19 39  1  0  0  0  0
 20 22  2  0  0  0  0
 20 40  1  0  0  0  0
 21 57  1  0  0  0  0
 22 41  1  0  0  0  0
 23 25  2  0  0  0  0
 23 56  1  0  0  0  0
 24 25  1  0  0  0  0
 24 62  1  0  0  0  0
 25 74  1  0  0  0  0
 26 88  1  0  0  0  0
 27 89  1  0  0  0  0
 28 31  2  0  0  0  0
 28 88  1  0  0  0  0
 29 90  1  0  0  0  0
 30 91  1  0  0  0  0
 31 92  1  0  0  0  0
 32 72  2  0  0  0  0
 33 73  1  0  0  0  0
 33 77  1  0  0  0  0
 34 78  1  0  0  0  0
 34 83  2  0  0  0  0
 35 58  1  0  0  0  0
 35 79  1  0  0  0  0
 35 84  2  0  0  0  0
 36 69  1  0  0  0  0
 36 75  1  0  0  0  0
 36 85  2  0  0  0  0
 37 70  1  0  0  0  0
 37 80  1  0  0  0  0
 37 86  2  0  0  0  0
 38 76  1  0  0  0  0
 38 81  1  0  0  0  0
 38 87  2  0  0  0  0
 39 42  1  0  0  0  0
 40 58  1  0  0  0  0
 41 75  1  0  0  0  0
 42 46  1  0  0  0  0
 43 47  1  0  0  0  0
 43 52  1  0  0  0  0
 44 48  1  0  0  0  0
 44 56  1  0  0  0  0
 45 49  1  0  0  0  0
 45 56  1  0  0  0  0
 46 57  1  0  0  0  0
 47 59  1  0  0  0  0
 48 60  1  0  0  0  0
 49 60  1  0  0  0  0
 50 53  1  0  0  0  0
 50 61  1  0  0  0  0
 51 54  1  0  0  0  0
 51 61  1  0  0  0  0
 52 76  1  0  0  0  0
 53 74  1  0  0  0  0
 54 74  1  0  0  0  0
 55 59  1  0  0  0  0
 55 76  1  0  0  0  0
 57 79  1  0  0  0  0
 58 75  1  0  0  0  0
 59 73  1  0  0  0  0
 60 81  1  0  0  0  0
 61 89  1  0  0  0  0
 63 70  1  0  0  0  0
 64 71  1  0  0  0  0
 65 71  1  0  0  0  0
 66 71  1  0  0  0  0
 67 82  1  0  0  0  0
 68 90  1  0  0  0  0
 69 71  1  0  0  0  0
 69 80  1  0  0  0  0
 70 82  1  0  0  0  0
 72 73  1  0  0  0  0
M  CHG  1  82   1
M  ISO  4  38 100  61 101  81 100  89 101
M  END
> <Batch ID>
0148

> <Smiles>
CNC(C)C(=O)NC(C(=O)N1Cc2cc([101O:1][101CH:1]3CCN(c4c(C)cc(OC)cc4C4CCC([100NH:0][100C:0](=O)N5CCCC(n6nc(-c7ccc(Oc8ccc(F)cc8F)cc7)c(C(N)=O)c6N)C5)CC4)CC3)ccc2CC1C(=O)NC1CCCc2ccccc21)C(C)(C)C

> <Shape>
0.220

> <Color>
0.188

> <Negative vol penalty>
0.000

$$$$

  -OEChem-04052321363D

 84 93  0     1  0  0  0  0  0999 V2000
  -17.7704  -16.7647   17.4191 C   0  0  0  0  0  0  0  0  0  0  0  0
  -18.7275  -15.9262   17.9815 C   0  0  0  0  0  0  0  0  0  0  0  0
  -23.0737   -9.8698   19.9417 C   0  0  0  0  0  0  0  0  0  0  0  0
  -23.8390   -9.8743   22.2332 C   0  0  0  0  0  0  0  0  0  0  0  0
  -17.7488  -18.1183   17.7525 C   0  0  0  0  0  0  0  0  0  0  0  0
  -19.6644  -16.4411   18.8768 C   0  0  0  0  0  0  0  0  0  0  0  0
  -23.4357  -14.6026   24.6831 C   0  0  0  0  0  0  0  0  0  0  0  0
  -22.3310   -8.7159   20.1920 C   0  0  0  0  0  0  0  0  0  0  0  0
  -23.0963   -8.7204   22.4836 C   0  0  0  0  0  0  0  0  0  0  0  0
  -24.7475  -14.5879   25.1552 C   0  0  0  0  0  0  0  0  0  0  0  0
  -19.8700   -7.9202   23.0928 C   0  0  0  0  0  0  0  0  0  0  0  0
  -19.1159   -7.8784   24.2655 C   0  0  0  0  0  0  0  0  0  0  0  0
  -24.5647  -16.9265   25.7181 C   0  0  0  0  0  0  0  0  0  0  0  0
  -20.3601   -5.9407   24.9966 C   0  0  0  0  0  0  0  0  0  0  0  0
  -29.9153  -14.9932   25.9531 C   0  0  0  0  0  0  0  0  0  0  0  0
  -23.8278  -10.4489   20.9623 C   0  0  0  0  0  0  0  0  0  0  0  0
  -24.1680  -12.9744   20.8446 C   0  0  0  0  0  0  0  0  0  0  0  0
  -18.6798  -18.6482   18.6597 C   0  0  0  0  0  0  0  0  0  0  0  0
  -22.6810  -15.7840   24.7149 C   0  0  0  0  0  0  0  0  0  0  0  0
  -19.6561  -17.8034   19.2215 C   0  0  0  0  0  0  0  0  0  0  0  0
  -23.2428  -16.9529   25.2480 C   0  0  0  0  0  0  0  0  0  0  0  0
  -30.7657  -14.9613   24.8700 C   0  0  0  0  0  0  0  0  0  0  0  0
  -30.8381  -16.2771   24.3500 C   0  0  0  0  0  0  0  0  0  0  0  0
  -22.3423   -8.1413   21.4629 C   0  0  0  0  0  0  0  0  0  0  0  0
  -25.3131  -15.7506   25.6702 C   0  0  0  0  0  0  0  0  0  0  0  0
  -20.8691   -6.9722   22.8720 C   0  0  0  0  0  0  0  0  0  0  0  0
  -19.3609   -6.8887   25.2174 C   0  0  0  0  0  0  0  0  0  0  0  0
  -21.1142   -5.9825   23.8238 C   0  0  0  0  0  0  0  0  0  0  0  0
  -24.5956  -11.6405   20.7042 C   0  0  0  0  0  0  0  0  0  0  0  0
  -30.0298  -17.0732   25.1313 C   0  0  0  0  0  0  0  0  0  0  0  0
  -25.2589  -13.7249   20.4796 C   0  0  0  0  0  0  0  0  0  0  0  0
  -22.8983  -13.4890   21.2672 C   0  0  0  0  0  0  0  0  0  0  0  0
  -21.3131  -17.6317   22.5197 C   0  0  0  0  0  0  0  0  0  0  0  0
  -20.1331  -19.1759   25.1169 C   0  0  0  0  0  0  0  0  0  0  0  0
  -20.4492  -19.9309   28.4301 C   0  0  0  0  0  0  0  0  0  0  0  0
  -30.7425  -14.7465   20.6561 C   0  0  0  0  0  0  0  0  0  0  0  0
  -18.6468  -20.1272   18.9531 C   0  0  0  0  0  0  0  0  0  0  0  0
  -21.2585  -15.7768   24.2263 C   0  0  0  0  0  0  0  0  0  0  0  0
  -22.4679  -18.2423   25.3232 C   0  0  0  0  0  0  0  0  0  0  0  0
  -19.4397  -20.5192   20.1972 C   0  0  0  0  0  0  0  0  0  0  0  0
  -29.6005  -12.3644   18.2691 C   0  0  0  0  0  0  0  0  0  0  0  0
  -20.8089  -19.8469   20.1915 C   0  0  0  0  0  0  0  0  0  0  0  0
  -30.9844  -19.5056   24.9219 C   0  0  0  0  0  0  0  0  0  0  0  0
  -30.0684  -19.5070   26.1056 C   0  0  0  0  0  0  0  0  0  0  0  0
  -28.1642  -12.0694   18.7051 C   0  0  0  0  0  0  0  0  0  0  0  0
  -30.5203  -12.5842   19.4681 C   0  0  0  0  0  0  0  0  0  0  0  0
  -28.6216  -13.3126   20.8601 C   0  0  0  0  0  0  0  0  0  0  0  0
  -20.6736  -18.3196   20.2157 C   0  0  1  0  0  0  0  0  0  0  0  0
  -29.7910  -18.5737   24.9456 C   0  0  0  0  0  0  0  0  0  0  0  0
  -20.7546  -17.1621   23.8332 C   0  0  1  0  0  0  0  0  0  0  0  0
  -27.6447  -13.1390   19.6846 C   0  0  2  0  0  0  0  0  0  0  0  0
  -31.4671  -13.7678   24.3566 C   0  0  0  0  0  0  0  0  0  0  0  0
  -19.3519  -21.2461   30.2641 C   0  0  0  0  0  0  0  0  0  0  0  0
  -21.2686  -21.7538   23.9444 C   0  0  0  0  0  0  0  0  0  0  0  0
  -20.9963  -22.8154   26.1954 C   0  0  0  0  0  0  0  0  0  0  0  0
  -18.9951  -21.9827   24.9607 C   0  0  0  0  0  0  0  0  0  0  0  0
  -19.9615  -17.4971   30.0417 C   0  0  0  0  0  0  0  0  0  0  0  0
  -31.6334  -16.7126   23.1826 C   0  0  0  0  0  0  0  0  0  0  0  0
  -28.5220  -16.7484   27.1770 C   0  0  0  0  0  0  0  0  0  0  0  0
  -30.8103  -16.8956   21.8955 C   0  0  0  0  0  0  0  0  0  0  0  0
  -27.1096  -16.9662   26.6452 C   0  0  0  0  0  0  0  0  0  1  0  0
  -20.6005  -20.3195   25.9845 C   0  0  1  0  0  0  0  0  0  0  0  0
  -19.4486  -19.8959   29.5711 C   0  0  2  0  0  0  0  0  0  0  0  0
  -20.4806  -21.6942   25.2682 C   0  0  0  0  0  0  0  0  0  0  0  0
  -25.8595  -11.5459   20.2828 N   0  0  0  0  0  0  0  0  0  0  0  0
  -29.4743  -16.2821   26.1028 N   0  0  0  0  0  0  0  0  0  0  0  0
  -26.2354  -12.8298   20.1551 N   0  0  0  0  0  0  0  0  0  0  0  0
  -21.0829  -18.1860   24.8273 N   0  0  0  0  0  0  0  0  0  0  0  0
  -29.9714  -13.6114   20.3567 N   0  0  0  0  0  0  0  0  0  0  0  0
  -25.4684  -15.0566   20.4078 N   0  0  0  0  0  0  0  0  0  0  0  0
  -21.8876  -12.5789   21.6058 N   0  0  0  0  0  0  0  0  0  0  0  0
  -20.3549  -17.8615   21.5509 N   0  0  0  0  0  0  0  0  0  0  0  0
  -19.8423  -20.2252   27.2274 N   0  0  0  0  0  0  0  0  0  0  0  0
  -30.1449  -15.6740   21.5008 N   0  0  0  0  0  0  0  0  0  0  0  0
  -19.8505  -18.8767   30.5814 N   0  3  0  0  0  0  0  0  0  0  0  0
  -22.6615  -14.7195   21.3266 O   0  0  0  0  0  0  0  0  0  0  0  0
  -22.5235  -17.7762   22.3949 O   0  0  0  0  0  0  0  0  0  0  0  0
  -18.9664  -19.1577   24.7171 O   0  0  0  0  0  0  0  0  0  0  0  0
  -21.6497  -19.7221   28.5903 O   0  0  0  0  0  0  0  0  0  0  0  0
  -31.8773  -14.9232   20.2000 O   0  0  0  0  0  0  0  0  0  0  0  0
  -21.6175   -7.0155   21.7076 O   0  0  0  0  0  0  0  0  0  0  0  0
  -26.5935  -15.7392   26.1311 O   0  0  0  0  0  0  0  0  0  1  0  0
  -18.6377   -6.8497   26.3441 F   0  0  0  0  0  0  0  0  0  0  0  0
  -22.0735   -5.0697   23.6178 F   0  0  0  0  0  0  0  0  0  0  0  0
  1  2  1  0  0  0  0
  1  5  2  0  0  0  0
  2  6  2  0  0  0  0
  3  8  2  0  0  0  0
  3 16  1  0  0  0  0
  4  9  1  0  0  0  0
  4 16  2  0  0  0  0
  5 18  1  0  0  0  0
  6 20  1  0  0  0  0
  7 10  2  0  0  0  0
  7 19  1  0  0  0  0
  8 24  1  0  0  0  0
  9 24  2  0  0  0  0
 10 25  1  0  0  0  0
 11 12  2  0  0  0  0
 11 26  1  0  0  0  0
 12 27  1  0  0  0  0
 13 21  1  0  0  0  0
 13 25  2  0  0  0  0
 14 27  2  0  0  0  0
 14 28  1  0  0  0  0
 15 22  2  0  0  0  0
 15 66  1  0  0  0  0
 16 29  1  0  0  0  0
 17 29  1  0  0  0  0
 17 31  2  0  0  0  0
 17 32  1  0  0  0  0
 18 20  2  0  0  0  0
 18 37  1  0  0  0  0
 19 21  2  0  0  0  0
 19 38  1  0  0  0  0
 20 48  1  0  0  0  0
 21 39  1  0  0  0  0
 22 23  1  0  0  0  0
 22 52  1  0  0  0  0
 23 30  2  0  0  0  0
 23 58  1  0  0  0  0
 24 81  1  0  0  0  0
 25 82  1  0  0  0  0
 26 28  2  0  0  0  0
 26 81  1  0  0  0  0
 27 83  1  0  0  0  0
 28 84  1  0  0  0  0
 29 65  2  0  0  0  0
 30 49  1  0  0  0  0
 30 66  1  0  0  0  0
 31 67  1  0  0  0  0
 31 70  1  0  0  0  0
 32 71  1  0  0  0  0
 32 76  2  0  0  0  0
 33 50  1  0  0  0  0
 33 72  1  0  0  0  0
 33 77  2  0  0  0  0
 34 62  1  0  0  0  0
 34 68  1  0  0  0  0
 34 78  2  0  0  0  0
 35 63  1  0  0  0  0
 35 73  1  0  0  0  0
 35 79  2  0  0  0  0
 36 69  1  0  0  0  0
 36 74  1  0  0  0  0
 36 80  2  0  0  0  0
 37 40  1  0  0  0  0
 38 50  1  0  0  0  0
 39 68  1  0  0  0  0
 40 42  1  0  0  0  0
 41 45  1  0  0  0  0
 41 46  1  0  0  0  0
 42 48  1  0  0  0  0
 43 44  1  0  0  0  0
 43 49  1  0  0  0  0
 44 49  1  0  0  0  0
 45 51  1  0  0  0  0
 46 69  1  0  0  0  0
 47 51  1  0  0  0  0
 47 69  1  0  0  0  0
 48 72  1  0  0  0  0
 50 68  1  0  0  0  0
 51 67  1  0  0  0  0
 53 63  1  0  0  0  0
 54 64  1  0  0  0  0
 55 64  1  0  0  0  0
 56 64  1  0  0  0  0
 57 75  1  0  0  0  0
 58 60  1  0  0  0  0
 59 61  1  0  0  0  0
 59 66  1  0  0  0  0
 60 74  1  0  0  0  0
 61 82  1  0  0  0  0
 62 64  1  0  0  0  0
 62 73  1  0  0  0  0
 63 75  1  0  0  0  0
 65 67  1  0  0  0  0
M  CHG  1  75   1
M  ISO  4  36 100  61 101  74 100  82 101
M  END
> <Batch ID>
0148

> <Smiles>
CNC(C)C(=O)NC(C(=O)N1Cc2cc([101O:1][101CH2:1]Cn3cc(C)c(CC[100NH:0][100C:0](=O)N4CCCC(n5nc(-c6ccc(Oc7ccc(F)cc7F)cc6)c(C(N)=O)c5N)C4)c3C3CC3)ccc2CC1C(=O)NC1CCCc2ccccc21)C(C)(C)C

> <Shape>
0.163

> <Color>
0.200

> <Negative vol penalty>
0.000

$$$$

  -OEChem-04052321363D

 83 91  0     1  0  0  0  0  0999 V2000
  -22.8437   -8.1638   20.4867 C   0  0  0  0  0  0  0  0  0  0  0  0
  -22.5011   -9.4090   19.9696 C   0  0  0  0  0  0  0  0  0  0  0  0
  -28.3573  -28.1416   21.1061 C   0  0  0  0  0  0  0  0  0  0  0  0
  -27.0620  -27.1781   19.3086 C   0  0  0  0  0  0  0  0  0  0  0  0
  -23.5914   -8.0795   21.6606 C   0  0  0  0  0  0  0  0  0  0  0  0
  -22.9050  -10.5707   20.6267 C   0  0  0  0  0  0  0  0  0  0  0  0
  -24.4922  -15.8951   18.0503 C   0  0  0  0  0  0  0  0  0  0  0  0
  -29.3957  -27.2506   20.8354 C   0  0  0  0  0  0  0  0  0  0  0  0
  -28.1005  -26.2871   19.0379 C   0  0  0  0  0  0  0  0  0  0  0  0
  -23.7910  -17.0818   17.8412 C   0  0  0  0  0  0  0  0  0  0  0  0
  -29.3032  -23.3992   20.3202 C   0  0  0  0  0  0  0  0  0  0  0  0
  -28.9701  -22.0620   20.1048 C   0  0  0  0  0  0  0  0  0  0  0  0
  -24.7345  -17.9894   19.8673 C   0  0  0  0  0  0  0  0  0  0  0  0
  -29.9306  -22.1794   17.8910 C   0  0  0  0  0  0  0  0  0  0  0  0
  -27.1904  -28.1053   20.3427 C   0  0  0  0  0  0  0  0  0  0  0  0
  -25.9300  -30.3064   20.0699 C   0  0  0  0  0  0  0  0  0  0  0  0
  -24.0129   -9.2408   22.3271 C   0  0  0  0  0  0  0  0  0  0  0  0
  -25.3127  -15.7423   19.1772 C   0  0  0  0  0  0  0  0  0  0  0  0
  -23.6578  -10.5019   21.8113 C   0  0  0  0  0  0  0  0  0  0  0  0
  -25.4470  -16.8007   20.0871 C   0  0  0  0  0  0  0  0  0  0  0  0
  -29.2674  -26.3234   19.8013 C   0  0  0  0  0  0  0  0  0  0  0  0
  -23.9098  -18.1281   18.7512 C   0  0  0  0  0  0  0  0  0  0  0  0
  -29.9499  -24.1266   19.3210 C   0  0  0  0  0  0  0  0  0  0  0  0
  -29.2839  -21.4520   18.8902 C   0  0  0  0  0  0  0  0  0  0  0  0
  -30.2636  -23.5167   18.1064 C   0  0  0  0  0  0  0  0  0  0  0  0
  -26.1170  -29.0251   20.6222 C   0  0  0  0  0  0  0  0  0  0  0  0
  -24.7754  -30.7669   20.6540 C   0  0  0  0  0  0  0  0  0  0  0  0
  -26.7286  -31.0168   19.1142 C   0  0  0  0  0  0  0  0  0  0  0  0
  -25.3373  -13.7907   21.6860 C   0  0  0  0  0  0  0  0  0  0  0  0
  -28.1508  -15.2751   22.3212 C   0  0  0  0  0  0  0  0  0  0  0  0
  -30.1252  -18.0312   21.9306 C   0  0  0  0  0  0  0  0  0  0  0  0
  -20.0404  -28.0030   23.0607 C   0  0  0  0  0  0  0  0  0  0  0  0
  -24.7790   -9.0991   23.6185 C   0  0  0  0  0  0  0  0  0  0  0  0
  -26.0833  -14.4658   19.3743 C   0  0  0  0  0  0  0  0  0  0  0  0
  -26.3308  -16.6945   21.3021 C   0  0  0  0  0  0  0  0  0  0  0  0
  -25.4871  -10.3806   24.0504 C   0  0  0  0  0  0  0  0  0  0  0  0
  -22.1821  -30.3592   24.6539 C   0  0  0  0  0  0  0  0  0  0  0  0
  -24.5464  -11.5757   23.9333 C   0  0  0  0  0  0  0  0  0  0  0  0
  -23.4165  -30.4001   23.7515 C   0  0  0  0  0  0  0  0  0  0  0  0
  -21.5930  -28.9530   24.7410 C   0  0  0  0  0  0  0  0  0  0  0  0
  -22.5287  -28.3659   22.5379 C   0  0  0  0  0  0  0  0  0  0  0  0
  -18.6046  -21.4685   20.2353 C   0  0  0  0  0  0  0  0  0  0  0  0
  -24.0985  -11.7850   22.4817 C   0  0  1  0  0  0  0  0  0  0  0  0
  -26.4884  -14.2305   20.8262 C   0  0  1  0  0  0  0  0  0  0  0  0
  -17.8186  -22.6899   20.7647 C   0  0  2  0  0  0  0  0  0  0  0  0
  -23.1253  -29.7743   22.3742 C   0  0  2  0  0  0  0  0  0  0  0  0
  -19.2160  -23.2263   21.2324 C   0  0  2  0  0  0  0  0  0  0  0  0
  -16.7230  -22.4082   21.7741 C   0  0  0  0  0  0  0  0  0  0  0  0
  -19.6054  -22.9287   22.6815 C   0  0  0  0  0  0  0  0  0  0  0  0
  -32.1749  -19.4695   22.0962 C   0  0  0  0  0  0  0  0  0  0  0  0
  -27.0601  -15.8781   25.1063 C   0  0  0  0  0  0  0  0  0  0  0  0
  -28.8767  -17.5800   25.3732 C   0  0  0  0  0  0  0  0  0  0  0  0
  -29.4597  -15.1755   25.0552 C   0  0  0  0  0  0  0  0  0  0  0  0
  -31.2255  -16.9559   19.4024 C   0  0  0  0  0  0  0  0  0  0  0  0
  -19.4591  -24.6947   20.8844 C   0  0  0  0  0  0  0  0  0  0  0  0
  -18.3827  -25.5693   21.5264 C   0  0  0  0  0  0  0  0  0  0  0  0
  -21.5415  -20.7642   19.4070 C   0  0  0  0  0  0  0  0  0  0  0  0
  -18.6078  -27.0553   21.2695 C   0  0  0  0  0  0  0  0  0  0  0  0
  -21.0328  -21.6062   20.5674 C   0  0  0  0  0  0  0  0  0  0  0  0
  -22.8374  -20.0221   19.7098 C   0  0  0  0  0  0  0  0  0  1  0  0
  -28.5603  -16.5019   23.0998 C   0  0  1  0  0  0  0  0  0  0  0  0
  -31.5878  -18.1769   21.5510 C   0  0  2  0  0  0  0  0  0  0  0  0
  -28.4710  -16.2855   24.6369 C   0  0  0  0  0  0  0  0  0  0  0  0
  -25.1581  -28.6930   21.4906 N   0  0  0  0  0  0  0  0  0  0  0  0
  -24.3574  -29.7723   21.4884 N   0  0  0  0  0  0  0  0  0  0  0  0
  -27.0589  -15.4240   21.4543 N   0  0  0  0  0  0  0  0  0  0  0  0
  -21.3385  -28.4175   23.4014 N   0  0  0  0  0  0  0  0  0  0  0  0
  -24.0870  -31.9216   20.5301 N   0  0  0  0  0  0  0  0  0  0  0  0
  -27.8827  -30.3973   18.6157 N   0  0  0  0  0  0  0  0  0  0  0  0
  -25.1481  -12.4222   21.7158 N   0  0  0  0  0  0  0  0  0  0  0  0
  -29.8914  -16.8622   22.6235 N   0  0  0  0  0  0  0  0  0  0  0  0
  -19.8846  -27.5141   21.7694 N   0  0  0  0  0  0  0  0  0  0  0  0
  -19.8002  -22.3335   20.1835 N   0  3  1  0  0  0  0  0  0  0  0  0
  -31.7403  -18.1799   20.0686 N   0  3  0  0  0  0  0  0  0  0  0  0
  -26.4366  -32.1736   18.7266 O   0  0  0  0  0  0  0  0  0  0  0  0
  -24.6712  -14.6306   22.2797 O   0  0  0  0  0  0  0  0  0  0  0  0
  -28.7810  -14.2254   22.4712 O   0  0  0  0  0  0  0  0  0  0  0  0
  -29.2758  -18.8722   21.6447 O   0  0  0  0  0  0  0  0  0  0  0  0
  -19.0896  -28.0690   23.8471 O   0  0  0  0  0  0  0  0  0  0  0  0
  -30.2806  -25.4539   19.5367 O   0  0  0  0  0  0  0  0  0  0  0  0
  -23.2259  -19.2873   18.5498 O   0  0  0  0  0  0  0  0  0  1  0  0
  -28.9654  -20.1674   18.6840 F   0  0  0  0  0  0  0  0  0  0  0  0
  -30.8860  -24.2101   17.1432 F   0  0  0  0  0  0  0  0  0  0  0  0
  1  2  1  0  0  0  0
  1  5  2  0  0  0  0
  2  6  2  0  0  0  0
  3  8  2  0  0  0  0
  3 15  1  0  0  0  0
  4  9  1  0  0  0  0
  4 15  2  0  0  0  0
  5 17  1  0  0  0  0
  6 19  1  0  0  0  0
  7 10  2  0  0  0  0
  7 18  1  0  0  0  0
  8 21  1  0  0  0  0
  9 21  2  0  0  0  0
 10 22  1  0  0  0  0
 11 12  2  0  0  0  0
 11 23  1  0  0  0  0
 12 24  1  0  0  0  0
 13 20  1  0  0  0  0
 13 22  2  0  0  0  0
 14 24  2  0  0  0  0
 14 25  1  0  0  0  0
 15 26  1  0  0  0  0
 16 26  1  0  0  0  0
 16 27  2  0  0  0  0
 16 28  1  0  0  0  0
 17 19  2  0  0  0  0
 17 33  1  0  0  0  0
 18 20  2  0  0  0  0
 18 34  1  0  0  0  0
 19 43  1  0  0  0  0
 20 35  1  0  0  0  0
 21 80  1  0  0  0  0
 22 81  1  0  0  0  0
 23 25  2  0  0  0  0
 23 80  1  0  0  0  0
 24 82  1  0  0  0  0
 25 83  1  0  0  0  0
 26 64  2  0  0  0  0
 27 65  1  0  0  0  0
 27 68  1  0  0  0  0
 28 69  1  0  0  0  0
 28 75  2  0  0  0  0
 29 44  1  0  0  0  0
 29 70  1  0  0  0  0
 29 76  2  0  0  0  0
 30 61  1  0  0  0  0
 30 66  1  0  0  0  0
 30 77  2  0  0  0  0
 31 62  1  0  0  0  0
 31 71  1  0  0  0  0
 31 78  2  0  0  0  0
 32 67  1  0  0  0  0
 32 72  1  0  0  0  0
 32 79  2  0  0  0  0
 33 36  1  0  0  0  0
 34 44  1  0  0  0  0
 35 66  1  0  0  0  0
 36 38  1  0  0  0  0
 37 39  1  0  0  0  0
 37 40  1  0  0  0  0
 38 43  1  0  0  0  0
 39 46  1  0  0  0  0
 40 67  1  0  0  0  0
 41 46  1  0  0  0  0
 41 67  1  0  0  0  0
 42 45  1  0  0  0  0
 42 73  1  0  0  0  0
 43 70  1  0  0  0  0
 44 66  1  0  0  0  0
 45 47  1  0  0  0  0
 45 48  1  0  0  0  0
 46 65  1  0  0  0  0
 47 49  1  0  0  0  0
 47 55  1  0  0  0  0
 47 73  1  0  0  0  0
 50 62  1  0  0  0  0
 51 63  1  0  0  0  0
 52 63  1  0  0  0  0
 53 63  1  0  0  0  0
 54 74  1  0  0  0  0
 55 56  1  0  0  0  0
 56 58  1  0  0  0  0
 57 59  1  0  0  0  0
 57 60  1  0  0  0  0
 58 72  1  0  0  0  0
 59 73  1  0  0  0  0
 60 81  1  0  0  0  0
 61 63  1  0  0  0  0
 61 71  1  0  0  0  0
 62 74  1  0  0  0  0
 64 65  1  0  0  0  0
M  CHG  2  73   1  74   1
M  ISO  4  32 100  60 101  72 100  81 101
M  END
> <Batch ID>
0148

> <Smiles>
CNC(C)C(=O)NC(C(=O)N1Cc2cc([101O:1][101CH2:1]CCN3CC(C)C3(C)CCC[100NH:0][100C:0](=O)N3CCCC(n4nc(-c5ccc(Oc6ccc(F)cc6F)cc5)c(C(N)=O)c4N)C3)ccc2CC1C(=O)NC1CCCc2ccccc21)C(C)(C)C

> <Shape>
0.267

> <Color>
0.046

> <Negative vol penalty>
0.000

$$$$

  -OEChem-04052321363D

 89 98  0     1  0  0  0  0  0999 V2000
  -23.2073  -19.1996   29.0325 C   0  0  0  0  0  0  0  0  0  0  0  0
  -23.1830  -19.0248   27.6525 C   0  0  0  0  0  0  0  0  0  0  0  0
  -29.0241  -20.2321   21.1110 C   0  0  0  0  0  0  0  0  0  0  0  0
  -30.0067  -19.5167   19.0230 C   0  0  0  0  0  0  0  0  0  0  0  0
  -22.8069  -20.4144   29.5873 C   0  0  0  0  0  0  0  0  0  0  0  0
  -22.7571  -20.0644   26.8266 C   0  0  0  0  0  0  0  0  0  0  0  0
  -25.7720  -20.7143   22.8101 C   0  0  0  0  0  0  0  0  0  0  0  0
  -28.8736  -21.5207   20.5987 C   0  0  0  0  0  0  0  0  0  0  0  0
  -29.8561  -20.8053   18.5106 C   0  0  0  0  0  0  0  0  0  0  0  0
  -25.6224  -19.8207   21.7504 C   0  0  0  0  0  0  0  0  0  0  0  0
  -30.0608  -23.9932   16.7770 C   0  0  0  0  0  0  0  0  0  0  0  0
  -31.1375  -24.5448   16.0826 C   0  0  0  0  0  0  0  0  0  0  0  0
  -21.5325  -15.8331   18.9260 C   0  0  0  0  0  0  0  0  0  0  0  0
  -24.3072  -21.4580   20.5635 C   0  0  0  0  0  0  0  0  0  0  0  0
  -21.5146  -17.4846   17.1627 C   0  0  0  0  0  0  0  0  0  0  0  0
  -32.5169  -24.3352   18.0551 C   0  0  0  0  0  0  0  0  0  0  0  0
  -29.5908  -19.2301   20.3231 C   0  0  0  0  0  0  0  0  0  0  0  0
  -30.4929  -17.5156   21.9828 C   0  0  0  0  0  0  0  0  0  0  0  0
  -22.3850  -21.4728   28.7671 C   0  0  0  0  0  0  0  0  0  0  0  0
  -25.1802  -21.9846   22.7590 C   0  0  0  0  0  0  0  0  0  0  0  0
  -22.3493  -21.2941   27.3710 C   0  0  0  0  0  0  0  0  0  0  0  0
  -22.9010  -16.0365   19.1027 C   0  0  0  0  0  0  0  0  0  0  0  0
  -24.4530  -22.3668   21.6227 C   0  0  0  0  0  0  0  0  0  0  0  0
  -20.8392  -16.5571   17.9560 C   0  0  0  0  0  0  0  0  0  0  0  0
  -22.8832  -17.6880   17.3394 C   0  0  0  0  0  0  0  0  0  0  0  0
  -23.5764  -16.9640   18.3094 C   0  0  0  0  0  0  0  0  0  0  0  0
  -29.2895  -21.8073   19.2985 C   0  0  0  0  0  0  0  0  0  0  0  0
  -24.8874  -20.1915   20.6281 C   0  0  0  0  0  0  0  0  0  0  0  0
  -30.2121  -23.6127   18.1104 C   0  0  0  0  0  0  0  0  0  0  0  0
  -32.3655  -24.7157   16.7216 C   0  0  0  0  0  0  0  0  0  0  0  0
  -31.4402  -23.7837   18.7494 C   0  0  0  0  0  0  0  0  0  0  0  0
  -29.7471  -17.8989   20.8520 C   0  0  0  0  0  0  0  0  0  0  0  0
  -30.3220  -16.1551   22.0617 C   0  0  0  0  0  0  0  0  0  0  0  0
  -31.2705  -18.3177   22.8815 C   0  0  0  0  0  0  0  0  0  0  0  0
  -22.9857  -23.5077   24.4817 C   0  0  0  0  0  0  0  0  0  0  0  0
  -23.7937  -26.0100   22.5823 C   0  0  0  0  0  0  0  0  0  0  0  0
  -25.1013  -27.0976   19.6235 C   0  0  0  0  0  0  0  0  0  0  0  0
  -26.1285  -12.4405   20.2649 C   0  0  0  0  0  0  0  0  0  0  0  0
  -21.9166  -22.7514   29.4155 C   0  0  0  0  0  0  0  0  0  0  0  0
  -25.3735  -22.9466   23.8989 C   0  0  0  0  0  0  0  0  0  0  0  0
  -23.8147  -23.7263   21.5099 C   0  0  0  0  0  0  0  0  0  0  0  0
  -21.8348  -23.9300   28.4489 C   0  0  0  0  0  0  0  0  0  0  0  0
  -29.4742  -12.3124   19.3480 C   0  0  0  0  0  0  0  0  0  0  0  0
  -21.1365  -23.5144   27.1580 C   0  0  0  0  0  0  0  0  0  0  0  0
  -30.0111  -13.6912   19.7315 C   0  0  0  0  0  0  0  0  0  0  0  0
  -23.5363  -14.0073   22.3844 C   0  0  0  0  0  0  0  0  0  0  0  0
  -28.0803  -12.4187   18.7398 C   0  0  0  0  0  0  0  0  0  0  0  0
  -24.1610  -12.7848   21.7173 C   0  0  0  0  0  0  0  0  0  0  0  0
  -24.2447  -13.9648   19.5462 C   0  0  0  0  0  0  0  0  0  0  0  0
  -27.6123  -14.4837   20.0183 C   0  0  0  0  0  0  0  0  0  0  0  0
  -23.6328  -15.2342   20.1656 C   0  0  2  0  0  0  0  0  0  0  0  0
  -21.9173  -22.4066   26.4405 C   0  0  1  0  0  0  0  0  0  0  0  0
  -24.2962  -24.0251   23.9597 C   0  0  1  0  0  0  0  0  0  0  0  0
  -29.0198  -14.4333   20.6447 C   0  0  2  0  0  0  0  0  0  0  0  0
  -22.7555  -14.8539   21.3765 C   0  0  2  0  0  0  0  0  0  0  0  0
  -19.3757  -16.3406   17.7676 C   0  0  0  0  0  0  0  0  0  0  0  0
  -23.5827  -18.6871   16.4769 C   0  0  0  0  0  0  0  0  0  0  0  0
  -25.5962  -29.1977   18.3421 C   0  0  0  0  0  0  0  0  0  0  0  0
  -20.8308  -26.2964   21.9120 C   0  0  0  0  0  0  0  0  0  0  0  0
  -21.4815  -27.7267   19.9628 C   0  0  0  0  0  0  0  0  0  0  0  0
  -22.0302  -28.4592   22.2834 C   0  0  0  0  0  0  0  0  0  0  0  0
  -28.0017  -26.5127   19.5589 C   0  0  0  0  0  0  0  0  0  0  0  0
  -21.0093  -15.8655   22.8352 C   0  0  0  0  0  0  0  0  0  0  0  0
  -23.3548  -16.6946   22.9432 C   0  0  0  0  0  0  0  0  0  0  0  0
  -25.0439  -17.1822   18.4987 C   0  0  0  0  0  0  0  0  0  0  0  0
  -25.3628  -18.0448   19.7216 C   0  0  0  0  0  0  0  0  0  1  0  0
  -23.3151  -26.5412   21.2527 C   0  0  1  0  0  0  0  0  0  0  0  0
  -26.1401  -28.1595   19.3111 C   0  0  2  0  0  0  0  0  0  0  0  0
  -21.9247  -27.2295   21.3554 C   0  0  0  0  0  0  0  0  0  0  0  0
  -29.1472  -16.8654   20.2553 N   0  0  0  0  0  0  0  0  0  0  0  0
  -29.5159  -15.8192   21.0140 N   0  0  0  0  0  0  0  0  0  0  0  0
  -24.0268  -24.6292   22.6533 N   0  0  0  0  0  0  0  0  0  0  0  0
  -27.1680  -13.1369   19.6299 N   0  0  0  0  0  0  0  0  0  0  0  0
  -24.9593  -13.1644   20.5519 N   0  0  0  0  0  0  0  0  0  0  0  0
  -30.7841  -15.2252   22.9244 N   0  0  0  0  0  0  0  0  0  0  0  0
  -32.6255  -18.5256   22.5894 N   0  0  0  0  0  0  0  0  0  0  0  0
  -23.0610  -22.9612   25.7486 N   0  0  0  0  0  0  0  0  0  0  0  0
  -24.3762  -27.4094   20.7541 N   0  0  0  0  0  0  0  0  0  0  0  0
  -27.3501  -27.5373   18.7030 N   0  3  0  0  0  0  0  0  0  0  0  0
  -22.2877  -16.0880   22.0703 N   0  3  0  0  0  0  0  0  0  0  0  0
  -30.7824  -18.8211   23.9216 O   0  0  0  0  0  0  0  0  0  0  0  0
  -21.9803  -23.5988   23.7870 O   0  0  0  0  0  0  0  0  0  0  0  0
  -23.9616  -26.7923   23.5211 O   0  0  0  0  0  0  0  0  0  0  0  0
  -24.9458  -26.0938   18.9315 O   0  0  0  0  0  0  0  0  0  0  0  0
  -26.2370  -11.2442   20.5619 O   0  0  0  0  0  0  0  0  0  0  0  0
  -29.1425  -23.0645   18.7982 O   0  0  0  0  0  0  0  0  0  0  0  0
  -24.7382  -19.3149   19.5853 O   0  0  0  0  0  0  0  0  0  1  0  0
  -33.3998  -25.2440   16.0542 F   0  0  0  0  0  0  0  0  0  0  0  0
  -31.5919  -23.4189   20.0300 F   0  0  0  0  0  0  0  0  0  0  0  0
  1  2  1  0  0  0  0
  1  5  2  0  0  0  0
  2  6  2  0  0  0  0
  3  8  2  0  0  0  0
  3 17  1  0  0  0  0
  4  9  1  0  0  0  0
  4 17  2  0  0  0  0
  5 19  1  0  0  0  0
  6 21  1  0  0  0  0
  7 10  2  0  0  0  0
  7 20  1  0  0  0  0
  8 27  1  0  0  0  0
  9 27  2  0  0  0  0
 10 28  1  0  0  0  0
 11 12  2  0  0  0  0
 11 29  1  0  0  0  0
 12 30  1  0  0  0  0
 13 22  1  0  0  0  0
 13 24  2  0  0  0  0
 14 23  1  0  0  0  0
 14 28  2  0  0  0  0
 15 24  1  0  0  0  0
 15 25  2  0  0  0  0
 16 30  2  0  0  0  0
 16 31  1  0  0  0  0
 17 32  1  0  0  0  0
 18 32  1  0  0  0  0
 18 33  2  0  0  0  0
 18 34  1  0  0  0  0
 19 21  2  0  0  0  0
 19 39  1  0  0  0  0
 20 23  2  0  0  0  0
 20 40  1  0  0  0  0
 21 52  1  0  0  0  0
 22 26  2  0  0  0  0
 22 51  1  0  0  0  0
 23 41  1  0  0  0  0
 24 56  1  0  0  0  0
 25 26  1  0  0  0  0
 25 57  1  0  0  0  0
 26 65  1  0  0  0  0
 27 86  1  0  0  0  0
 28 87  1  0  0  0  0
 29 31  2  0  0  0  0
 29 86  1  0  0  0  0
 30 88  1  0  0  0  0
 31 89  1  0  0  0  0
 32 70  2  0  0  0  0
 33 71  1  0  0  0  0
 33 75  1  0  0  0  0
 34 76  1  0  0  0  0
 34 81  2  0  0  0  0
 35 53  1  0  0  0  0
 35 77  1  0  0  0  0
 35 82  2  0  0  0  0
 36 67  1  0  0  0  0
 36 72  1  0  0  0  0
 36 83  2  0  0  0  0
 37 68  1  0  0  0  0
 37 78  1  0  0  0  0
 37 84  2  0  0  0  0
 38 73  1  0  0  0  0
 38 74  1  0  0  0  0
 38 85  2  0  0  0  0
 39 42  1  0  0  0  0
 40 53  1  0  0  0  0
 41 72  1  0  0  0  0
 42 44  1  0  0  0  0
 43 45  1  0  0  0  0
 43 47  1  0  0  0  0
 44 52  1  0  0  0  0
 45 54  1  0  0  0  0
 46 48  1  0  0  0  0
 46 55  1  0  0  0  0
 47 73  1  0  0  0  0
 48 74  1  0  0  0  0
 49 51  1  0  0  0  0
 49 74  1  0  0  0  0
 50 54  1  0  0  0  0
 50 73  1  0  0  0  0
 51 55  1  0  0  0  0
 52 77  1  0  0  0  0
 53 72  1  0  0  0  0
 54 71  1  0  0  0  0
 55 80  1  0  0  0  0
 58 68  1  0  0  0  0
 59 69  1  0  0  0  0
 60 69  1  0  0  0  0
 61 69  1  0  0  0  0
 62 79  1  0  0  0  0
 63 80  1  0  0  0  0
 64 80  1  0  0  0  0
 65 66  1  0  0  0  0
 66 87  1  0  0  0  0
 67 69  1  0  0  0  0
 67 78  1  0  0  0  0
 68 79  1  0  0  0  0
 70 71  1  0  0  0  0
M  CHG  2  79   1  80   1
M  ISO  4  38 100  66 101  74 100  87 101
M  END
> <Batch ID>
0148

> <Smiles>
CNC(C)C(=O)NC(C(=O)N1Cc2cc([101O:1][101CH2:1]Cc3c(C)cc(C)cc3C3C[100N:0]([100C:0](=O)N4CCCC(n5nc(-c6ccc(Oc7ccc(F)cc7F)cc6)c(C(N)=O)c5N)C4)CCC3N(C)C)ccc2CC1C(=O)NC1CCCc2ccccc21)C(C)(C)C

> <Shape>
0.195

> <Color>
0.044

> <Negative vol penalty>
0.000

$$$$

  -OEChem-04052321363D

 92102  0     1  0  0  0  0  0999 V2000
  -32.9969  -34.9868   17.3094 C   0  0  0  0  0  0  0  0  0  0  0  0
  -32.8021  -33.6094   17.3216 C   0  0  0  0  0  0  0  0  0  0  0  0
  -23.6166   -6.7807   18.6187 C   0  0  0  0  0  0  0  0  0  0  0  0
  -25.2474   -6.3166   20.3397 C   0  0  0  0  0  0  0  0  0  0  0  0
  -32.6085  -35.7544   18.4066 C   0  0  0  0  0  0  0  0  0  0  0  0
  -32.2197  -32.9986   18.4316 C   0  0  0  0  0  0  0  0  0  0  0  0
  -28.4915  -28.1400   18.4268 C   0  0  0  0  0  0  0  0  0  0  0  0
  -24.0766   -5.6856   17.8874 C   0  0  0  0  0  0  0  0  0  0  0  0
  -25.7074   -5.2214   19.6085 C   0  0  0  0  0  0  0  0  0  0  0  0
  -28.7169  -26.7844   18.6622 C   0  0  0  0  0  0  0  0  0  0  0  0
  -25.0625   -3.2249   15.3981 C   0  0  0  0  0  0  0  0  0  0  0  0
  -25.2627   -3.3958   14.0283 C   0  0  0  0  0  0  0  0  0  0  0  0
  -30.3965  -22.3403   20.2862 C   0  0  0  0  0  0  0  0  0  0  0  0
  -28.0364  -27.0761   20.9581 C   0  0  0  0  0  0  0  0  0  0  0  0
  -28.3774  -21.7749   19.0858 C   0  0  0  0  0  0  0  0  0  0  0  0
  -26.8788   -5.1336   14.4813 C   0  0  0  0  0  0  0  0  0  0  0  0
  -24.2020   -7.0962   19.8448 C   0  0  0  0  0  0  0  0  0  0  0  0
  -22.7069   -8.2348   21.5698 C   0  0  0  0  0  0  0  0  0  0  0  0
  -32.0123  -35.1539   19.5266 C   0  0  0  0  0  0  0  0  0  0  0  0
  -28.0465  -28.9774   19.4599 C   0  0  0  0  0  0  0  0  0  0  0  0
  -31.8242  -33.7587   19.5454 C   0  0  0  0  0  0  0  0  0  0  0  0
  -30.5329  -21.0102   20.6832 C   0  0  0  0  0  0  0  0  0  0  0  0
  -27.8036  -28.4414   20.7326 C   0  0  0  0  0  0  0  0  0  0  0  0
  -29.3187  -22.7227   19.4875 C   0  0  0  0  0  0  0  0  0  0  0  0
  -28.5139  -20.4447   19.4828 C   0  0  0  0  0  0  0  0  0  0  0  0
  -29.5917  -20.0623   20.2816 C   0  0  0  0  0  0  0  0  0  0  0  0
  -25.1220   -4.9060   18.3823 C   0  0  0  0  0  0  0  0  0  0  0  0
  -28.4922  -26.2528   19.9287 C   0  0  0  0  0  0  0  0  0  0  0  0
  -25.7703   -4.0085   16.3095 C   0  0  0  0  0  0  0  0  0  0  0  0
  -26.1709   -4.3501   13.5699 C   0  0  0  0  0  0  0  0  0  0  0  0
  -26.6785   -4.9628   15.8511 C   0  0  0  0  0  0  0  0  0  0  0  0
  -23.7276   -8.2276   20.6004 C   0  0  0  0  0  0  0  0  0  0  0  0
  -22.6392   -9.5415   21.9875 C   0  0  0  0  0  0  0  0  0  0  0  0
  -21.8927   -7.1567   22.0500 C   0  0  0  0  0  0  0  0  0  0  0  0
  -29.2193  -31.5370   20.9352 C   0  0  0  0  0  0  0  0  0  0  0  0
  -26.3124  -31.5573   22.3745 C   0  0  0  0  0  0  0  0  0  0  0  0
  -23.5408  -29.8107   23.3310 C   0  0  0  0  0  0  0  0  0  0  0  0
  -26.4613  -13.8757   22.2343 C   0  0  0  0  0  0  0  0  0  0  0  0
  -31.6522  -36.0189   20.7085 C   0  0  0  0  0  0  0  0  0  0  0  0
  -27.7824  -30.4320   19.1829 C   0  0  0  0  0  0  0  0  0  0  0  0
  -27.3063  -29.2938   21.8704 C   0  0  0  0  0  0  0  0  0  0  0  0
  -30.6998  -35.3421   21.6909 C   0  0  0  0  0  0  0  0  0  0  0  0
  -23.4198  -14.0079   20.4782 C   0  0  0  0  0  0  0  0  0  0  0  0
  -33.0879  -20.9476   21.0607 C   0  0  0  0  0  0  0  0  0  0  0  0
  -32.6133  -19.5282   21.0761 C   0  0  0  0  0  0  0  0  0  0  0  0
  -31.1645  -33.9207   21.9917 C   0  0  0  0  0  0  0  0  0  0  0  0
  -23.0485  -12.5273   20.4019 C   0  0  0  0  0  0  0  0  0  0  0  0
  -28.8760  -15.9457   20.7307 C   0  0  0  0  0  0  0  0  0  0  0  0
  -24.9162  -14.2353   20.2569 C   0  0  0  0  0  0  0  0  0  0  0  0
  -27.3572  -15.7818   20.8276 C   0  0  0  0  0  0  0  0  0  0  0  0
  -27.4877  -15.8627   23.2984 C   0  0  0  0  0  0  0  0  0  0  0  0
  -25.4120  -11.9541   21.0755 C   0  0  0  0  0  0  0  0  0  0  0  0
  -31.6969  -20.6288   21.5386 C   0  0  0  0  0  0  0  0  0  0  0  0
  -31.1732  -33.0626   20.7209 C   0  0  1  0  0  0  0  0  0  0  0  0
  -27.8214  -31.2962   20.4395 C   0  0  1  0  0  0  0  0  0  0  0  0
  -29.4812  -16.6831   21.9387 C   0  0  2  0  0  0  0  0  0  0  0  0
  -29.0153  -16.0033   23.2502 C   0  0  1  0  0  0  0  0  0  0  0  0
  -23.9236  -11.6887   21.3504 C   0  0  2  0  0  0  0  0  0  0  0  0
  -29.5284  -16.7089   24.5055 C   0  0  0  0  0  0  0  0  0  0  0  0
  -26.9718  -17.5426   17.4567 C   0  0  0  0  0  0  0  0  0  0  0  0
  -21.3502  -30.0904   24.5227 C   0  0  0  0  0  0  0  0  0  0  0  0
  -27.7769  -31.6032   25.0508 C   0  0  0  0  0  0  0  0  0  0  0  0
  -25.6338  -30.9296   26.1560 C   0  0  0  0  0  0  0  0  0  0  0  0
  -25.7755  -33.0980   24.9311 C   0  0  0  0  0  0  0  0  0  0  0  0
  -22.0013  -29.0218   20.9296 C   0  0  0  0  0  0  0  0  0  0  0  0
  -27.4898  -19.4519   19.0369 C   0  0  0  0  0  0  0  0  0  0  0  0
  -29.1727  -24.1449   19.0630 C   0  0  0  0  0  0  0  0  0  1  0  0
  -29.1713  -18.1833   21.8685 C   0  0  0  0  0  0  0  0  0  0  0  0
  -28.0028  -18.5742   17.8866 C   0  0  0  0  0  0  0  0  0  0  0  0
  -25.7327  -30.9355   23.6220 C   0  0  1  0  0  0  0  0  0  0  0  0
  -22.0601  -30.1083   23.1779 C   0  0  2  0  0  0  0  0  0  0  0  0
  -26.2410  -31.6256   24.9193 C   0  0  0  0  0  0  0  0  0  0  0  0
  -24.2693   -9.4341   20.4131 N   0  0  0  0  0  0  0  0  0  0  0  0
  -23.5864  -10.2115   21.2705 N   0  0  0  0  0  0  0  0  0  0  0  0
  -27.0690  -30.7113   21.5513 N   0  0  0  0  0  0  0  0  0  0  0  0
  -25.7104  -13.3856   21.1553 N   0  0  0  0  0  0  0  0  0  0  0  0
  -26.9819  -15.1731   22.1105 N   0  0  0  0  0  0  0  0  0  0  0  0
  -21.8624  -10.1713   22.8944 N   0  0  0  0  0  0  0  0  0  0  0  0
  -22.0936   -5.8776   21.5136 N   0  0  0  0  0  0  0  0  0  0  0  0
  -29.7271  -18.7289   20.6786 N   0  0  0  0  0  0  0  0  0  0  0  0
  -29.8288  -32.6471   20.3824 N   0  0  0  0  0  0  0  0  0  0  0  0
  -24.2835  -30.9655   23.4576 N   0  0  0  0  0  0  0  0  0  0  0  0
  -21.4170  -29.0958   22.2934 N   0  3  0  0  0  0  0  0  0  0  0  0
  -21.0019   -7.3260   22.9168 O   0  0  0  0  0  0  0  0  0  0  0  0
  -29.7081  -30.7731   21.7593 O   0  0  0  0  0  0  0  0  0  0  0  0
  -26.0956  -32.7478   22.1354 O   0  0  0  0  0  0  0  0  0  0  0  0
  -23.9930  -28.6679   23.3411 O   0  0  0  0  0  0  0  0  0  0  0  0
  -26.6553  -13.1945   23.2489 O   0  0  0  0  0  0  0  0  0  0  0  0
  -25.5710   -3.8372   17.6691 O   0  0  0  0  0  0  0  0  0  0  0  0
  -28.7136  -24.9211   20.1629 O   0  0  0  0  0  0  0  0  0  1  0  0
  -26.3642   -4.5129   12.2545 F   0  0  0  0  0  0  0  0  0  0  0  0
  -27.3623   -5.7177   16.7219 F   0  0  0  0  0  0  0  0  0  0  0  0
  1  2  1  0  0  0  0
  1  5  2  0  0  0  0
  2  6  2  0  0  0  0
  3  8  2  0  0  0  0
  3 17  1  0  0  0  0
  4  9  1  0  0  0  0
  4 17  2  0  0  0  0
  5 19  1  0  0  0  0
  6 21  1  0  0  0  0
  7 10  2  0  0  0  0
  7 20  1  0  0  0  0
  8 27  1  0  0  0  0
  9 27  2  0  0  0  0
 10 28  1  0  0  0  0
 11 12  2  0  0  0  0
 11 29  1  0  0  0  0
 12 30  1  0  0  0  0
 13 22  2  0  0  0  0
 13 24  1  0  0  0  0
 14 23  1  0  0  0  0
 14 28  2  0  0  0  0
 15 24  2  0  0  0  0
 15 25  1  0  0  0  0
 16 30  2  0  0  0  0
 16 31  1  0  0  0  0
 17 32  1  0  0  0  0
 18 32  1  0  0  0  0
 18 33  2  0  0  0  0
 18 34  1  0  0  0  0
 19 21  2  0  0  0  0
 19 39  1  0  0  0  0
 20 23  2  0  0  0  0
 20 40  1  0  0  0  0
 21 54  1  0  0  0  0
 22 26  1  0  0  0  0
 22 53  1  0  0  0  0
 23 41  1  0  0  0  0
 24 67  1  0  0  0  0
 25 26  2  0  0  0  0
 25 66  1  0  0  0  0
 26 80  1  0  0  0  0
 27 89  1  0  0  0  0
 28 90  1  0  0  0  0
 29 31  2  0  0  0  0
 29 89  1  0  0  0  0
 30 91  1  0  0  0  0
 31 92  1  0  0  0  0
 32 73  2  0  0  0  0
 33 74  1  0  0  0  0
 33 78  1  0  0  0  0
 34 79  1  0  0  0  0
 34 84  2  0  0  0  0
 35 55  1  0  0  0  0
 35 81  1  0  0  0  0
 35 85  2  0  0  0  0
 36 70  1  0  0  0  0
 36 75  1  0  0  0  0
 36 86  2  0  0  0  0
 37 71  1  0  0  0  0
 37 82  1  0  0  0  0
 37 87  2  0  0  0  0
 38 76  1  0  0  0  0
 38 77  1  0  0  0  0
 38 88  2  0  0  0  0
 39 42  1  0  0  0  0
 40 55  1  0  0  0  0
 41 75  1  0  0  0  0
 42 46  1  0  0  0  0
 43 47  1  0  0  0  0
 43 49  1  0  0  0  0
 44 45  1  0  0  0  0
 44 53  1  0  0  0  0
 45 53  1  0  0  0  0
 46 54  1  0  0  0  0
 47 58  1  0  0  0  0
 48 50  1  0  0  0  0
 48 56  1  0  0  0  0
 49 76  1  0  0  0  0
 50 77  1  0  0  0  0
 51 57  1  0  0  0  0
 51 77  1  0  0  0  0
 52 58  1  0  0  0  0
 52 76  1  0  0  0  0
 54 81  1  0  0  0  0
 55 75  1  0  0  0  0
 56 57  1  0  0  0  0
 56 68  1  0  0  0  0
 57 59  1  0  0  0  0
 58 74  1  0  0  0  0
 60 69  1  0  0  0  0
 61 71  1  0  0  0  0
 62 72  1  0  0  0  0
 63 72  1  0  0  0  0
 64 72  1  0  0  0  0
 65 83  1  0  0  0  0
 66 69  1  0  0  0  0
 67 90  1  0  0  0  0
 68 80  1  0  0  0  0
 70 72  1  0  0  0  0
 70 82  1  0  0  0  0
 71 83  1  0  0  0  0
 73 74  1  0  0  0  0
M  CHG  1  83   1
M  ISO  4  38 100  67 101  77 100  90 101
M  END
> <Batch ID>
0148

> <Smiles>
CCCc1cc([101CH2:1][101O:1]c2ccc3c(c2)CN(C(=O)C(NC(=O)C(C)NC)C(C)(C)C)C(C(=O)NC2CCCc4ccccc42)C3)cc(C2CC2)c1NCC1CC[100N:0]([100C:0](=O)N2CCCC(n3nc(-c4ccc(Oc5ccc(F)cc5F)cc4)c(C(N)=O)c3N)C2)CC1C

> <Shape>
0.244

> <Color>
0.075

> <Negative vol penalty>
0.000

$$$$

  -OEChem-04052321363D

 89 98  0     1  0  0  0  0  0999 V2000
  -30.6145  -35.3841   19.0912 C   0  0  0  0  0  0  0  0  0  0  0  0
  -30.7644  -34.0038   19.1793 C   0  0  0  0  0  0  0  0  0  0  0  0
  -23.9331   -8.9258   21.7748 C   0  0  0  0  0  0  0  0  0  0  0  0
  -25.1737  -10.0094   23.5423 C   0  0  0  0  0  0  0  0  0  0  0  0
  -29.6866  -36.0365   19.9019 C   0  0  0  0  0  0  0  0  0  0  0  0
  -29.9873  -33.2753   20.0790 C   0  0  0  0  0  0  0  0  0  0  0  0
  -27.7897  -27.6122   19.3006 C   0  0  0  0  0  0  0  0  0  0  0  0
  -23.6361   -7.8667   22.6326 C   0  0  0  0  0  0  0  0  0  0  0  0
  -24.8767   -8.9503   24.4001 C   0  0  0  0  0  0  0  0  0  0  0  0
  -28.2335  -26.3654   19.7390 C   0  0  0  0  0  0  0  0  0  0  0  0
  -21.4720   -7.2336   25.1522 C   0  0  0  0  0  0  0  0  0  0  0  0
  -20.1591   -6.7629   25.1706 C   0  0  0  0  0  0  0  0  0  0  0  0
  -26.7261  -26.4961   21.6179 C   0  0  0  0  0  0  0  0  0  0  0  0
  -28.4516  -21.6530   21.3102 C   0  0  0  0  0  0  0  0  0  0  0  0
  -30.7526  -22.3352   21.5874 C   0  0  0  0  0  0  0  0  0  0  0  0
  -20.9322   -4.5794   24.4838 C   0  0  0  0  0  0  0  0  0  0  0  0
  -24.7020   -9.9971   22.2297 C   0  0  0  0  0  0  0  0  0  0  0  0
  -24.0953  -11.9436   20.6965 C   0  0  0  0  0  0  0  0  0  0  0  0
  -28.8909  -35.3144   20.8052 C   0  0  0  0  0  0  0  0  0  0  0  0
  -26.8170  -28.3165   20.0247 C   0  0  0  0  0  0  0  0  0  0  0  0
  -29.0488  -33.9188   20.9036 C   0  0  0  0  0  0  0  0  0  0  0  0
  -26.2698  -27.7506   21.1852 C   0  0  0  0  0  0  0  0  0  0  0  0
  -30.0478  -20.1404   22.3108 C   0  0  0  0  0  0  0  0  0  0  0  0
  -29.4535  -22.6120   21.1615 C   0  0  0  0  0  0  0  0  0  0  0  0
  -28.7487  -20.4172   21.8849 C   0  0  0  0  0  0  0  0  0  0  0  0
  -31.0497  -21.0994   22.1620 C   0  0  0  0  0  0  0  0  0  0  0  0
  -24.1079   -7.8790   23.9452 C   0  0  0  0  0  0  0  0  0  0  0  0
  -27.7038  -25.8084   20.8993 C   0  0  0  0  0  0  0  0  0  0  0  0
  -22.5150   -6.3772   24.7995 C   0  0  0  0  0  0  0  0  0  0  0  0
  -19.8892   -5.4359   24.8364 C   0  0  0  0  0  0  0  0  0  0  0  0
  -22.2452   -5.0501   24.4654 C   0  0  0  0  0  0  0  0  0  0  0  0
  -25.0096  -11.0912   21.3439 C   0  0  0  0  0  0  0  0  0  0  0  0
  -24.8829  -12.8084   19.9764 C   0  0  0  0  0  0  0  0  0  0  0  0
  -22.6623  -11.9530   20.7419 C   0  0  0  0  0  0  0  0  0  0  0  0
  -26.7326  -31.1106   21.5378 C   0  0  0  0  0  0  0  0  0  0  0  0
  -23.5889  -30.3882   21.8809 C   0  0  0  0  0  0  0  0  0  0  0  0
  -21.1639  -27.9901   22.0039 C   0  0  0  0  0  0  0  0  0  0  0  0
  -30.5298  -14.6881   20.6324 C   0  0  0  0  0  0  0  0  0  0  0  0
  -27.9348  -36.0692   21.6946 C   0  0  0  0  0  0  0  0  0  0  0  0
  -26.3295  -29.6484   19.5240 C   0  0  0  0  0  0  0  0  0  0  0  0
  -25.2088  -28.4569   21.9875 C   0  0  0  0  0  0  0  0  0  0  0  0
  -26.8854  -35.1788   22.3551 C   0  0  0  0  0  0  0  0  0  0  0  0
  -29.1300  -13.0662   17.7887 C   0  0  0  0  0  0  0  0  0  0  0  0
  -27.5374  -33.9317   22.9435 C   0  0  0  0  0  0  0  0  0  0  0  0
  -29.3780  -17.0552   24.5562 C   0  0  0  0  0  0  0  0  0  0  0  0
  -27.8328  -12.4530   18.3190 C   0  0  0  0  0  0  0  0  0  0  0  0
  -30.5191  -16.1943   24.0257 C   0  0  0  0  0  0  0  0  0  0  0  0
  -30.1403  -17.6402   21.9439 C   0  0  0  0  0  0  0  0  0  0  0  0
  -30.2462  -13.0130   18.8296 C   0  0  0  0  0  0  0  0  0  0  0  0
  -28.6046  -12.9884   20.6677 C   0  0  0  0  0  0  0  0  0  0  0  0
  -30.3715  -18.7929   22.9368 C   0  0  2  0  0  0  0  0  0  0  0  0
  -28.2066  -33.0907   21.8497 C   0  0  1  0  0  0  0  0  0  0  0  0
  -25.7069  -30.5075   20.6202 C   0  0  1  0  0  0  0  0  0  0  0  0
  -29.5873  -18.5549   24.2595 C   0  0  2  0  0  0  0  0  0  0  0  0
  -27.4338  -13.0695   19.6732 C   0  0  2  0  0  0  0  0  0  0  0  0
  -30.6734  -16.3130   22.5028 C   0  0  2  0  0  0  0  0  0  0  0  0
  -27.6579  -19.4072   22.0317 C   0  0  0  0  0  0  0  0  0  0  0  0
  -32.4488  -20.8276   22.6098 C   0  0  0  0  0  0  0  0  0  0  0  0
  -30.0081  -20.2600   27.7098 C   0  0  0  0  0  0  0  0  0  0  0  0
  -18.6931  -27.7022   22.3348 C   0  0  0  0  0  0  0  0  0  0  0  0
  -23.9393  -30.8463   24.8771 C   0  0  0  0  0  0  0  0  0  0  0  0
  -21.7708  -29.6496   25.2429 C   0  0  0  0  0  0  0  0  0  0  0  0
  -21.8184  -31.7653   23.9222 C   0  0  0  0  0  0  0  0  0  0  0  0
  -20.8254  -26.7986   19.3160 C   0  0  0  0  0  0  0  0  0  0  0  0
  -29.1337  -23.9416   20.5440 C   0  0  0  0  0  0  0  0  0  1  0  0
  -30.2939  -19.2448   25.4336 C   0  0  0  0  0  0  0  0  0  0  0  0
  -29.3044  -19.5985   26.5357 C   0  0  0  0  0  0  0  0  0  0  0  0
  -22.7675  -29.6513   22.9111 C   0  0  1  0  0  0  0  0  0  0  0  0
  -19.8117  -27.8890   21.3216 C   0  0  2  0  0  0  0  0  0  0  0  0
  -22.5954  -30.4654   24.2245 C   0  0  0  0  0  0  0  0  0  0  0  0
  -26.2807  -11.3874   21.0602 N   0  0  0  0  0  0  0  0  0  0  0  0
  -26.1708  -12.4357   20.2264 N   0  0  0  0  0  0  0  0  0  0  0  0
  -24.7695  -29.7595   21.4605 N   0  0  0  0  0  0  0  0  0  0  0  0
  -29.8039  -13.6149   20.0898 N   0  0  0  0  0  0  0  0  0  0  0  0
  -24.5924  -13.8436   19.1601 N   0  0  0  0  0  0  0  0  0  0  0  0
  -22.0301  -12.7262   21.7251 N   0  0  0  0  0  0  0  0  0  0  0  0
  -27.2147  -32.3348   21.1154 N   0  0  0  0  0  0  0  0  0  0  0  0
  -21.5118  -29.3001   22.2568 N   0  0  0  0  0  0  0  0  0  0  0  0
  -30.0390  -15.2040   21.8256 N   0  0  0  0  0  0  0  0  0  0  0  0
  -19.7913  -26.7335   20.3807 N   0  3  0  0  0  0  0  0  0  0  0  0
  -21.9635  -11.2823   19.9448 O   0  0  0  0  0  0  0  0  0  0  0  0
  -27.0611  -30.5105   22.5545 O   0  0  0  0  0  0  0  0  0  0  0  0
  -23.1938  -31.4780   21.4592 O   0  0  0  0  0  0  0  0  0  0  0  0
  -21.8421  -27.0051   22.2878 O   0  0  0  0  0  0  0  0  0  0  0  0
  -31.5373  -15.1555   20.0908 O   0  0  0  0  0  0  0  0  0  0  0  0
  -23.8180   -6.8458   24.7825 O   0  0  0  0  0  0  0  0  0  0  0  0
  -28.1357  -24.5919   21.3298 O   0  0  0  0  0  0  0  0  0  1  0  0
  -18.6285   -4.9836   24.8556 F   0  0  0  0  0  0  0  0  0  0  0  0
  -23.2432   -4.2224   24.1269 F   0  0  0  0  0  0  0  0  0  0  0  0
  1  2  1  0  0  0  0
  1  5  2  0  0  0  0
  2  6  2  0  0  0  0
  3  8  2  0  0  0  0
  3 17  1  0  0  0  0
  4  9  1  0  0  0  0
  4 17  2  0  0  0  0
  5 19  1  0  0  0  0
  6 21  1  0  0  0  0
  7 10  2  0  0  0  0
  7 20  1  0  0  0  0
  8 27  1  0  0  0  0
  9 27  2  0  0  0  0
 10 28  1  0  0  0  0
 11 12  2  0  0  0  0
 11 29  1  0  0  0  0
 12 30  1  0  0  0  0
 13 22  1  0  0  0  0
 13 28  2  0  0  0  0
 14 24  1  0  0  0  0
 14 25  2  0  0  0  0
 15 24  2  0  0  0  0
 15 26  1  0  0  0  0
 16 30  2  0  0  0  0
 16 31  1  0  0  0  0
 17 32  1  0  0  0  0
 18 32  1  0  0  0  0
 18 33  2  0  0  0  0
 18 34  1  0  0  0  0
 19 21  2  0  0  0  0
 19 39  1  0  0  0  0
 20 22  2  0  0  0  0
 20 40  1  0  0  0  0
 21 52  1  0  0  0  0
 22 41  1  0  0  0  0
 23 25  1  0  0  0  0
 23 26  2  0  0  0  0
 23 51  1  0  0  0  0
 24 65  1  0  0  0  0
 25 57  1  0  0  0  0
 26 58  1  0  0  0  0
 27 86  1  0  0  0  0
 28 87  1  0  0  0  0
 29 31  2  0  0  0  0
 29 86  1  0  0  0  0
 30 88  1  0  0  0  0
 31 89  1  0  0  0  0
 32 71  2  0  0  0  0
 33 72  1  0  0  0  0
 33 75  1  0  0  0  0
 34 76  1  0  0  0  0
 34 81  2  0  0  0  0
 35 53  1  0  0  0  0
 35 77  1  0  0  0  0
 35 82  2  0  0  0  0
 36 68  1  0  0  0  0
 36 73  1  0  0  0  0
 36 83  2  0  0  0  0
 37 69  1  0  0  0  0
 37 78  1  0  0  0  0
 37 84  2  0  0  0  0
 38 74  1  0  0  0  0
 38 79  1  0  0  0  0
 38 85  2  0  0  0  0
 39 42  1  0  0  0  0
 40 53  1  0  0  0  0
 41 73  1  0  0  0  0
 42 44  1  0  0  0  0
 43 46  1  0  0  0  0
 43 49  1  0  0  0  0
 44 52  1  0  0  0  0
 45 47  1  0  0  0  0
 45 54  1  0  0  0  0
 46 55  1  0  0  0  0
 47 56  1  0  0  0  0
 48 51  1  0  0  0  0
 48 56  1  0  0  0  0
 49 74  1  0  0  0  0
 50 55  1  0  0  0  0
 50 74  1  0  0  0  0
 51 54  1  0  0  0  0
 52 77  1  0  0  0  0
 53 73  1  0  0  0  0
 54 66  1  0  0  0  0
 55 72  1  0  0  0  0
 56 79  1  0  0  0  0
 59 67  1  0  0  0  0
 60 69  1  0  0  0  0
 61 70  1  0  0  0  0
 62 70  1  0  0  0  0
 63 70  1  0  0  0  0
 64 80  1  0  0  0  0
 65 87  1  0  0  0  0
 66 67  1  0  0  0  0
 68 70  1  0  0  0  0
 68 78  1  0  0  0  0
 69 80  1  0  0  0  0
 71 72  1  0  0  0  0
M  CHG  1  80   1
M  ISO  4  38 100  65 101  79 100  87 101
M  END
> <Batch ID>
0148

> <Smiles>
CCCC1CCC([100NH:0][100C:0](=O)N2CCCC(n3nc(-c4ccc(Oc5ccc(F)cc5F)cc4)c(C(N)=O)c3N)C2)CC1c1c(C)cc([101CH2:1][101O:1]c2ccc3c(c2)CN(C(=O)C(NC(=O)C(C)NC)C(C)(C)C)C(C(=O)NC2CCCc4ccccc42)C3)cc1C

> <Shape>
0.313

> <Color>
0.104

> <Negative vol penalty>
0.000

$$$$

  -OEChem-04052321363D

 83 92  0     1  0  0  0  0  0999 V2000
  -28.1909  -18.0280   17.9953 C   0  0  0  0  0  0  0  0  0  0  0  0
  -27.1056  -18.8669   17.7635 C   0  0  0  0  0  0  0  0  0  0  0  0
  -24.6153  -14.6728   20.5089 C   0  0  0  0  0  0  0  0  0  0  0  0
  -25.0976  -14.9219   22.8631 C   0  0  0  0  0  0  0  0  0  0  0  0
  -29.0514  -18.2820   19.0625 C   0  0  0  0  0  0  0  0  0  0  0  0
  -26.8795  -19.9598   18.5995 C   0  0  0  0  0  0  0  0  0  0  0  0
  -24.3232  -26.6505   18.4734 C   0  0  0  0  0  0  0  0  0  0  0  0
  -25.6311  -13.7231   20.4012 C   0  0  0  0  0  0  0  0  0  0  0  0
  -26.1134  -13.9720   22.7555 C   0  0  0  0  0  0  0  0  0  0  0  0
  -23.3983  -27.4626   19.1281 C   0  0  0  0  0  0  0  0  0  0  0  0
  -28.3366  -11.4955   19.4308 C   0  0  0  0  0  0  0  0  0  0  0  0
  -29.2072  -11.5950   18.3456 C   0  0  0  0  0  0  0  0  0  0  0  0
  -24.9964  -27.8493   20.8933 C   0  0  0  0  0  0  0  0  0  0  0  0
  -29.8758  -13.7962   19.0838 C   0  0  0  0  0  0  0  0  0  0  0  0
  -24.3485  -15.2723   21.7398 C   0  0  0  0  0  0  0  0  0  0  0  0
  -21.9449  -16.0197   22.1541 C   0  0  0  0  0  0  0  0  0  0  0  0
  -28.8413  -19.3841   19.9062 C   0  0  0  0  0  0  0  0  0  0  0  0
  -25.5899  -26.4225   19.0300 C   0  0  0  0  0  0  0  0  0  0  0  0
  -27.7372  -20.2280   19.6798 C   0  0  0  0  0  0  0  0  0  0  0  0
  -25.9365  -27.0359   20.2423 C   0  0  0  0  0  0  0  0  0  0  0  0
  -19.3235  -26.2973   22.6129 C   0  0  0  0  0  0  0  0  0  0  0  0
  -18.7651  -27.1347   21.6404 C   0  0  0  0  0  0  0  0  0  0  0  0
  -26.3801  -13.3726   21.5245 C   0  0  0  0  0  0  0  0  0  0  0  0
  -23.7337  -28.0598   20.3397 C   0  0  0  0  0  0  0  0  0  0  0  0
  -28.2355  -12.5464   20.3425 C   0  0  0  0  0  0  0  0  0  0  0  0
  -29.9769  -12.7453   18.1721 C   0  0  0  0  0  0  0  0  0  0  0  0
  -29.0052  -13.6967   20.1691 C   0  0  0  0  0  0  0  0  0  0  0  0
  -23.2997  -16.2539   21.8516 C   0  0  0  0  0  0  0  0  0  0  0  0
  -20.3680  -26.9626   23.1879 C   0  0  0  0  0  0  0  0  0  0  0  0
  -19.5116  -28.3049   21.6653 C   0  0  0  0  0  0  0  0  0  0  0  0
  -21.3696  -17.2668   22.1409 C   0  0  0  0  0  0  0  0  0  0  0  0
  -21.2671  -14.7852   22.4231 C   0  0  0  0  0  0  0  0  0  0  0  0
  -27.1580  -23.8573   20.0618 C   0  0  0  0  0  0  0  0  0  0  0  0
  -29.6049  -25.9627   20.3814 C   0  0  0  0  0  0  0  0  0  0  0  0
  -30.6076  -29.1993   20.7887 C   0  0  0  0  0  0  0  0  0  0  0  0
  -21.4098  -22.5395   23.6052 C   0  0  0  0  0  0  0  0  0  0  0  0
  -29.7713  -19.5910   21.0754 C   0  0  0  0  0  0  0  0  0  0  0  0
  -26.5858  -25.5653   18.2980 C   0  0  0  0  0  0  0  0  0  0  0  0
  -19.1472  -24.9563   23.2036 C   0  0  0  0  0  0  0  0  0  0  0  0
  -27.2905  -26.8393   20.8719 C   0  0  0  0  0  0  0  0  0  0  0  0
  -21.0829  -26.2258   24.2423 C   0  0  0  0  0  0  0  0  0  0  0  0
  -29.6769  -20.9854   21.6894 C   0  0  0  0  0  0  0  0  0  0  0  0
  -23.1856  -21.7163   20.5612 C   0  0  0  0  0  0  0  0  0  0  0  0
  -28.2179  -21.3833   21.8889 C   0  0  0  0  0  0  0  0  0  0  0  0
  -23.2598  -20.1912   20.6553 C   0  0  0  0  0  0  0  0  0  0  0  0
  -23.3503  -22.3635   21.9331 C   0  0  0  0  0  0  0  0  0  0  0  0
  -22.4554  -20.3606   23.0561 C   0  0  0  0  0  0  0  0  0  0  0  0
  -27.4729  -21.4378   20.5496 C   0  0  1  0  0  0  0  0  0  0  0  0
  -27.6630  -24.9883   19.2113 C   0  0  1  0  0  0  0  0  0  0  0  0
  -22.2732  -19.6459   21.7048 C   0  0  2  0  0  0  0  0  0  0  0  0
  -20.4649  -24.7893   24.0556 C   0  0  2  0  0  0  0  0  0  0  0  0
  -17.6166  -26.8346   20.7655 C   0  0  0  0  0  0  0  0  0  0  0  0
  -19.3689  -29.5327   20.8524 C   0  0  0  0  0  0  0  0  0  0  0  0
  -32.6699  -30.6040   21.0546 C   0  0  0  0  0  0  0  0  0  0  0  0
  -29.8639  -25.0303   23.2751 C   0  0  0  0  0  0  0  0  0  0  0  0
  -31.2374  -27.0720   23.7369 C   0  0  0  0  0  0  0  0  0  0  0  0
  -32.0398  -25.3769   22.0920 C   0  0  0  0  0  0  0  0  0  0  0  0
  -30.0282  -30.7239   18.3191 C   0  0  0  0  0  0  0  0  0  0  0  0
  -21.5335  -29.2256   22.9825 C   0  0  0  0  0  0  0  0  0  0  0  0
  -22.9067  -28.8990   22.4055 C   0  0  0  0  0  0  0  0  0  1  0  0
  -30.0953  -26.8729   21.4814 C   0  0  1  0  0  0  0  0  0  0  0  0
  -31.6623  -30.0246   20.0740 C   0  0  2  0  0  0  0  0  0  0  0  0
  -30.7828  -26.0903   22.6357 C   0  0  0  0  0  0  0  0  0  0  0  0
  -23.5690  -17.5480   21.6600 N   0  0  0  0  0  0  0  0  0  0  0  0
  -20.4991  -28.1857   22.6259 N   0  0  0  0  0  0  0  0  0  0  0  0
  -22.3755  -18.1382   21.8426 N   0  0  0  0  0  0  0  0  0  0  0  0
  -28.2275  -25.9875   20.1209 N   0  0  0  0  0  0  0  0  0  0  0  0
  -22.3698  -21.8142   22.8802 N   0  0  0  0  0  0  0  0  0  0  0  0
  -20.1064  -17.6921   22.3554 N   0  0  0  0  0  0  0  0  0  0  0  0
  -22.0086  -13.5962   22.3962 N   0  0  0  0  0  0  0  0  0  0  0  0
  -27.8008  -22.6547   19.8381 N   0  0  0  0  0  0  0  0  0  0  0  0
  -30.9510  -27.8648   20.8394 N   0  0  0  0  0  0  0  0  0  0  0  0
  -21.3993  -23.9116   23.3865 N   0  0  0  0  0  0  0  0  0  0  0  0
  -31.0254  -31.1507   19.3342 N   0  3  0  0  0  0  0  0  0  0  0  0
  -20.0369  -14.7362   22.6635 O   0  0  0  0  0  0  0  0  0  0  0  0
  -26.2532  -24.0609   20.8628 O   0  0  0  0  0  0  0  0  0  0  0  0
  -30.4151  -25.2610   19.7709 O   0  0  0  0  0  0  0  0  0  0  0  0
  -29.5834  -29.6899   21.2586 O   0  0  0  0  0  0  0  0  0  0  0  0
  -20.6164  -22.0031   24.3862 O   0  0  0  0  0  0  0  0  0  0  0  0
  -27.3713  -12.4457   21.4199 O   0  0  0  0  0  0  0  0  0  0  0  0
  -22.8326  -28.8525   20.9812 O   0  0  0  0  0  0  0  0  0  1  0  0
  -30.8140  -12.8402   17.1308 F   0  0  0  0  0  0  0  0  0  0  0  0
  -28.9132  -14.7090   21.0423 F   0  0  0  0  0  0  0  0  0  0  0  0
  1  2  1  0  0  0  0
  1  5  2  0  0  0  0
  2  6  2  0  0  0  0
  3  8  2  0  0  0  0
  3 15  1  0  0  0  0
  4  9  1  0  0  0  0
  4 15  2  0  0  0  0
  5 17  1  0  0  0  0
  6 19  1  0  0  0  0
  7 10  2  0  0  0  0
  7 18  1  0  0  0  0
  8 23  1  0  0  0  0
  9 23  2  0  0  0  0
 10 24  1  0  0  0  0
 11 12  2  0  0  0  0
 11 25  1  0  0  0  0
 12 26  1  0  0  0  0
 13 20  1  0  0  0  0
 13 24  2  0  0  0  0
 14 26  2  0  0  0  0
 14 27  1  0  0  0  0
 15 28  1  0  0  0  0
 16 28  1  0  0  0  0
 16 31  2  0  0  0  0
 16 32  1  0  0  0  0
 17 19  2  0  0  0  0
 17 37  1  0  0  0  0
 18 20  2  0  0  0  0
 18 38  1  0  0  0  0
 19 48  1  0  0  0  0
 20 40  1  0  0  0  0
 21 22  1  0  0  0  0
 21 29  2  0  0  0  0
 21 39  1  0  0  0  0
 22 30  2  0  0  0  0
 22 52  1  0  0  0  0
 23 80  1  0  0  0  0
 24 81  1  0  0  0  0
 25 27  2  0  0  0  0
 25 80  1  0  0  0  0
 26 82  1  0  0  0  0
 27 83  1  0  0  0  0
 28 64  2  0  0  0  0
 29 41  1  0  0  0  0
 29 65  1  0  0  0  0
 30 53  1  0  0  0  0
 30 65  1  0  0  0  0
 31 66  1  0  0  0  0
 31 69  1  0  0  0  0
 32 70  1  0  0  0  0
 32 75  2  0  0  0  0
 33 49  1  0  0  0  0
 33 71  1  0  0  0  0
 33 76  2  0  0  0  0
 34 61  1  0  0  0  0
 34 67  1  0  0  0  0
 34 77  2  0  0  0  0
 35 62  1  0  0  0  0
 35 72  1  0  0  0  0
 35 78  2  0  0  0  0
 36 68  1  0  0  0  0
 36 73  1  0  0  0  0
 36 79  2  0  0  0  0
 37 42  1  0  0  0  0
 38 49  1  0  0  0  0
 39 51  1  0  0  0  0
 40 67  1  0  0  0  0
 41 51  1  0  0  0  0
 42 44  1  0  0  0  0
 43 45  1  0  0  0  0
 43 46  1  0  0  0  0
 44 48  1  0  0  0  0
 45 50  1  0  0  0  0
 46 68  1  0  0  0  0
 47 50  1  0  0  0  0
 47 68  1  0  0  0  0
 48 71  1  0  0  0  0
 49 67  1  0  0  0  0
 50 66  1  0  0  0  0
 51 73  1  0  0  0  0
 54 62  1  0  0  0  0
 55 63  1  0  0  0  0
 56 63  1  0  0  0  0
 57 63  1  0  0  0  0
 58 74  1  0  0  0  0
 59 60  1  0  0  0  0
 59 65  1  0  0  0  0
 60 81  1  0  0  0  0
 61 63  1  0  0  0  0
 61 72  1  0  0  0  0
 62 74  1  0  0  0  0
 64 66  1  0  0  0  0
M  CHG  1  74   1
M  ISO  4  36 100  60 101  73 100  81 101
M  END
> <Batch ID>
0148

> <Smiles>
CNC(C)C(=O)NC(C(=O)N1Cc2cc([101O:1][101CH2:1]Cn3c(C)c(C)c4c3CC([100NH:0][100C:0](=O)N3CCCC(n5nc(-c6ccc(Oc7ccc(F)cc7F)cc6)c(C(N)=O)c5N)C3)C4)ccc2CC1C(=O)NC1CCCc2ccccc21)C(C)(C)C

> <Shape>
0.239

> <Color>
0.058

> <Negative vol penalty>
0.000

$$$$

  -OEChem-04052321363D

 81 89  0     1  0  0  0  0  0999 V2000
  -17.9690  -14.2427   28.3393 C   0  0  0  0  0  0  0  0  0  0  0  0
  -19.1463  -14.0402   27.6262 C   0  0  0  0  0  0  0  0  0  0  0  0
  -27.4304  -23.3690   20.5817 C   0  0  0  0  0  0  0  0  0  0  0  0
  -28.8920  -23.3803   18.6580 C   0  0  0  0  0  0  0  0  0  0  0  0
  -16.8649  -14.8171   27.7110 C   0  0  0  0  0  0  0  0  0  0  0  0
  -19.2197  -14.4109   26.2840 C   0  0  0  0  0  0  0  0  0  0  0  0
  -24.1144  -16.6142   23.3355 C   0  0  0  0  0  0  0  0  0  0  0  0
  -27.5253  -24.7583   20.6620 C   0  0  0  0  0  0  0  0  0  0  0  0
  -28.9869  -24.7696   18.7383 C   0  0  0  0  0  0  0  0  0  0  0  0
  -25.0601  -16.0117   22.5071 C   0  0  0  0  0  0  0  0  0  0  0  0
  -26.1870  -27.4410   19.0983 C   0  0  0  0  0  0  0  0  0  0  0  0
  -25.0097  -28.1604   19.3029 C   0  0  0  0  0  0  0  0  0  0  0  0
  -23.8041  -16.7153   20.5715 C   0  0  0  0  0  0  0  0  0  0  0  0
  -25.9134  -29.0552   21.3571 C   0  0  0  0  0  0  0  0  0  0  0  0
  -28.1138  -22.6800   19.5797 C   0  0  0  0  0  0  0  0  0  0  0  0
  -27.0689  -20.4975   18.7719 C   0  0  0  0  0  0  0  0  0  0  0  0
  -16.9278  -15.2039   26.3630 C   0  0  0  0  0  0  0  0  0  0  0  0
  -22.9987  -17.2635   22.7876 C   0  0  0  0  0  0  0  0  0  0  0  0
  -18.1148  -14.9898   25.6367 C   0  0  0  0  0  0  0  0  0  0  0  0
  -22.8469  -17.3275   21.3951 C   0  0  0  0  0  0  0  0  0  0  0  0
  -28.3035  -25.4586   19.7403 C   0  0  0  0  0  0  0  0  0  0  0  0
  -24.9035  -16.0597   21.1250 C   0  0  0  0  0  0  0  0  0  0  0  0
  -27.2276  -27.5286   20.0231 C   0  0  0  0  0  0  0  0  0  0  0  0
  -24.8729  -28.9675   20.4323 C   0  0  0  0  0  0  0  0  0  0  0  0
  -27.0908  -28.3357   21.1525 C   0  0  0  0  0  0  0  0  0  0  0  0
  -28.0166  -21.2448   19.4966 C   0  0  0  0  0  0  0  0  0  0  0  0
  -27.4036  -19.1882   19.0174 C   0  0  0  0  0  0  0  0  0  0  0  0
  -25.9832  -20.9466   17.9502 C   0  0  0  0  0  0  0  0  0  0  0  0
  -19.8526  -16.8415   22.9526 C   0  0  0  0  0  0  0  0  0  0  0  0
  -19.7846  -19.6157   21.2728 C   0  0  0  0  0  0  0  0  0  0  0  0
  -21.3912  -21.7674   19.1667 C   0  0  0  0  0  0  0  0  0  0  0  0
  -31.2258  -15.1509   19.5034 C   0  0  0  0  0  0  0  0  0  0  0  0
  -15.6932  -15.7775   25.7140 C   0  0  0  0  0  0  0  0  0  0  0  0
  -22.0015  -17.9315   23.6940 C   0  0  0  0  0  0  0  0  0  0  0  0
  -21.6776  -18.0298   20.7563 C   0  0  0  0  0  0  0  0  0  0  0  0
  -15.9737  -16.4863   24.3914 C   0  0  0  0  0  0  0  0  0  0  0  0
  -30.6259  -17.1855   22.3630 C   0  0  0  0  0  0  0  0  0  0  0  0
  -16.8839  -15.6348   23.5120 C   0  0  0  0  0  0  0  0  0  0  0  0
  -29.8212  -18.3637   21.8113 C   0  0  0  0  0  0  0  0  0  0  0  0
  -31.6859  -16.7122   21.3708 C   0  0  0  0  0  0  0  0  0  0  0  0
  -30.3710  -17.5726   19.4723 C   0  0  0  0  0  0  0  0  0  0  0  0
  -27.1139  -12.3602   16.9489 C   0  0  0  0  0  0  0  0  0  0  0  0
  -27.6900  -14.1745   18.4881 C   0  0  0  0  0  0  0  0  0  0  0  0
  -18.2414  -15.4015   24.1860 C   0  0  1  0  0  0  0  0  0  0  0  0
  -20.6351  -18.1210   23.0426 C   0  0  1  0  0  0  0  0  0  0  0  0
  -25.8943  -13.2184   17.2718 C   0  0  2  0  0  0  0  0  0  0  0  0
  -26.2274  -13.7872   18.6521 C   0  0  2  0  0  0  0  0  0  0  0  0
  -29.2523  -18.0492   20.4146 C   0  0  2  0  0  0  0  0  0  0  0  0
  -24.5992  -12.4225   17.2242 C   0  0  0  0  0  0  0  0  0  0  0  0
  -21.7857  -23.8480   17.8203 C   0  0  0  0  0  0  0  0  0  0  0  0
  -31.9363  -13.6170   16.7163 C   0  0  0  0  0  0  0  0  0  0  0  0
  -18.0305  -18.1873   19.2253 C   0  0  0  0  0  0  0  0  0  0  0  0
  -18.5265  -20.0374   17.6131 C   0  0  0  0  0  0  0  0  0  0  0  0
  -17.3296  -20.5309   19.7453 C   0  0  0  0  0  0  0  0  0  0  0  0
  -22.6668  -23.1454   21.4543 C   0  0  0  0  0  0  0  0  0  0  0  0
  -25.3608  -14.9675   19.0624 C   0  0  0  0  0  0  0  0  0  1  0  0
  -29.3894  -13.4565   16.7715 C   0  0  0  0  0  0  0  0  0  0  0  0
  -19.7960  -19.9788   19.8076 C   0  0  1  0  0  0  0  0  0  0  0  0
  -21.5732  -23.2738   19.2123 C   0  0  2  0  0  0  0  0  0  0  0  0
  -30.6717  -13.7030   17.5655 C   0  0  2  0  0  0  0  0  0  0  0  0
  -18.4418  -19.6686   19.1096 C   0  0  0  0  0  0  0  0  0  0  0  0
  -28.8879  -20.4744   20.1534 N   0  0  0  0  0  0  0  0  0  0  0  0
  -28.4889  -19.2293   19.8424 N   0  0  0  0  0  0  0  0  0  0  0  0
  -20.7263  -18.6622   21.6851 N   0  0  0  0  0  0  0  0  0  0  0  0
  -31.0809  -16.4293   20.0670 N   0  0  0  0  0  0  0  0  0  0  0  0
  -26.8724  -18.0173   18.6061 N   0  0  0  0  0  0  0  0  0  0  0  0
  -25.7810  -22.3259   17.8056 N   0  0  0  0  0  0  0  0  0  0  0  0
  -19.0750  -16.5782   24.0642 N   0  0  0  0  0  0  0  0  0  0  0  0
  -20.1973  -21.3797   19.7373 N   0  0  0  0  0  0  0  0  0  0  0  0
  -30.6163  -14.9653   18.2686 N   0  0  0  0  0  0  0  0  0  0  0  0
  -28.2668  -13.0396   17.6672 N   0  3  2  0  0  0  0  0  0  0  0  0
  -22.7526  -23.6279   20.0518 N   0  3  0  0  0  0  0  0  0  0  0  0
  -25.2052  -20.1484   17.3749 O   0  0  0  0  0  0  0  0  0  0  0  0
  -19.9461  -16.1455   21.9484 O   0  0  0  0  0  0  0  0  0  0  0  0
  -18.9750  -20.1633   22.0253 O   0  0  0  0  0  0  0  0  0  0  0  0
  -22.2231  -21.0107   18.6709 O   0  0  0  0  0  0  0  0  0  0  0  0
  -31.8476  -14.2407   20.0619 O   0  0  0  0  0  0  0  0  0  0  0  0
  -28.3961  -26.8143   19.8182 O   0  0  0  0  0  0  0  0  0  0  0  0
  -25.8249  -15.4719   20.3141 O   0  0  0  0  0  0  0  0  0  1  0  0
  -23.7428  -29.6595   20.6278 F   0  0  0  0  0  0  0  0  0  0  0  0
  -28.0874  -28.4248   22.0439 F   0  0  0  0  0  0  0  0  0  0  0  0
  1  2  1  0  0  0  0
  1  5  2  0  0  0  0
  2  6  2  0  0  0  0
  3  8  2  0  0  0  0
  3 15  1  0  0  0  0
  4  9  1  0  0  0  0
  4 15  2  0  0  0  0
  5 17  1  0  0  0  0
  6 19  1  0  0  0  0
  7 10  2  0  0  0  0
  7 18  1  0  0  0  0
  8 21  1  0  0  0  0
  9 21  2  0  0  0  0
 10 22  1  0  0  0  0
 11 12  2  0  0  0  0
 11 23  1  0  0  0  0
 12 24  1  0  0  0  0
 13 20  1  0  0  0  0
 13 22  2  0  0  0  0
 14 24  2  0  0  0  0
 14 25  1  0  0  0  0
 15 26  1  0  0  0  0
 16 26  1  0  0  0  0
 16 27  2  0  0  0  0
 16 28  1  0  0  0  0
 17 19  2  0  0  0  0
 17 33  1  0  0  0  0
 18 20  2  0  0  0  0
 18 34  1  0  0  0  0
 19 44  1  0  0  0  0
 20 35  1  0  0  0  0
 21 78  1  0  0  0  0
 22 79  1  0  0  0  0
 23 25  2  0  0  0  0
 23 78  1  0  0  0  0
 24 80  1  0  0  0  0
 25 81  1  0  0  0  0
 26 62  2  0  0  0  0
 27 63  1  0  0  0  0
 27 66  1  0  0  0  0
 28 67  1  0  0  0  0
 28 73  2  0  0  0  0
 29 45  1  0  0  0  0
 29 68  1  0  0  0  0
 29 74  2  0  0  0  0
 30 58  1  0  0  0  0
 30 64  1  0  0  0  0
 30 75  2  0  0  0  0
 31 59  1  0  0  0  0
 31 69  1  0  0  0  0
 31 76  2  0  0  0  0
 32 65  1  0  0  0  0
 32 70  1  0  0  0  0
 32 77  2  0  0  0  0
 33 36  1  0  0  0  0
 34 45  1  0  0  0  0
 35 64  1  0  0  0  0
 36 38  1  0  0  0  0
 37 39  1  0  0  0  0
 37 40  1  0  0  0  0
 38 44  1  0  0  0  0
 39 48  1  0  0  0  0
 40 65  1  0  0  0  0
 41 48  1  0  0  0  0
 41 65  1  0  0  0  0
 42 46  1  0  0  0  0
 42 71  1  0  0  0  0
 43 47  1  0  0  0  0
 43 71  1  0  0  0  0
 44 68  1  0  0  0  0
 45 64  1  0  0  0  0
 46 47  1  0  0  0  0
 46 49  1  0  0  0  0
 47 56  1  0  0  0  0
 48 63  1  0  0  0  0
 50 59  1  0  0  0  0
 51 60  1  0  0  0  0
 52 61  1  0  0  0  0
 53 61  1  0  0  0  0
 54 61  1  0  0  0  0
 55 72  1  0  0  0  0
 56 79  1  0  0  0  0
 57 60  1  0  0  0  0
 57 71  1  0  0  0  0
 58 61  1  0  0  0  0
 58 69  1  0  0  0  0
 59 72  1  0  0  0  0
 60 70  1  0  0  0  0
 62 63  1  0  0  0  0
M  CHG  2  71   1  72   1
M  ISO  4  32 100  56 101  70 100  79 101
M  END
> <Batch ID>
0148

> <Smiles>
CNC(C)C(=O)NC(C(=O)N1Cc2cc([101O:1][101CH2:1]C3CN(CC(C)[100NH:0][100C:0](=O)N4CCCC(n5nc(-c6ccc(Oc7ccc(F)cc7F)cc6)c(C(N)=O)c5N)C4)CC3C)ccc2CC1C(=O)NC1CCCc2ccccc21)C(C)(C)C

> <Shape>
0.159

> <Color>
0.083

> <Negative vol penalty>
0.000

$$$$

  -OEChem-04052321363D

 88 97  0     1  0  0  0  0  0999 V2000
  -29.4943  -24.6067   17.0511 C   0  0  0  0  0  0  0  0  0  0  0  0
  -28.3019  -24.6282   17.7674 C   0  0  0  0  0  0  0  0  0  0  0  0
  -27.1439  -12.6074   22.6082 C   0  0  0  0  0  0  0  0  0  0  0  0
  -27.3732  -11.3255   20.5732 C   0  0  0  0  0  0  0  0  0  0  0  0
  -30.5862  -25.3516   17.4948 C   0  0  0  0  0  0  0  0  0  0  0  0
  -28.2010  -25.3937   18.9286 C   0  0  0  0  0  0  0  0  0  0  0  0
  -23.7305  -23.1732   19.7154 C   0  0  0  0  0  0  0  0  0  0  0  0
  -23.8868  -28.0368   19.1445 C   0  0  0  0  0  0  0  0  0  0  0  0
  -22.7042  -24.1026   19.5465 C   0  0  0  0  0  0  0  0  0  0  0  0
  -26.2381  -11.6668   23.0986 C   0  0  0  0  0  0  0  0  0  0  0  0
  -26.4674  -10.3849   21.0636 C   0  0  0  0  0  0  0  0  0  0  0  0
  -22.7333  -27.3441   19.5096 C   0  0  0  0  0  0  0  0  0  0  0  0
  -23.1159  -10.0935   21.4004 C   0  0  0  0  0  0  0  0  0  0  0  0
  -22.1179   -9.6430   20.5363 C   0  0  0  0  0  0  0  0  0  0  0  0
  -22.9376  -28.1999   21.7557 C   0  0  0  0  0  0  0  0  0  0  0  0
  -22.2519  -24.0343   21.9189 C   0  0  0  0  0  0  0  0  0  0  0  0
  -22.9409   -7.3830   20.7642 C   0  0  0  0  0  0  0  0  0  0  0  0
  -27.7114  -12.4368   21.3455 C   0  0  0  0  0  0  0  0  0  0  0  0
  -30.0455  -13.4055   20.9972 C   0  0  0  0  0  0  0  0  0  0  0  0
  -30.4956  -26.1342   18.6567 C   0  0  0  0  0  0  0  0  0  0  0  0
  -24.5817  -28.8088   20.0866 C   0  0  0  0  0  0  0  0  0  0  0  0
  -29.2932  -26.1486   19.3890 C   0  0  0  0  0  0  0  0  0  0  0  0
  -24.0174  -22.6743   20.9861 C   0  0  0  0  0  0  0  0  0  0  0  0
  -24.0982  -28.9035   21.3994 C   0  0  0  0  0  0  0  0  0  0  0  0
  -21.9649  -24.5332   20.6482 C   0  0  0  0  0  0  0  0  0  0  0  0
  -23.2782  -23.1048   22.0877 C   0  0  0  0  0  0  0  0  0  0  0  0
  -25.8999  -10.5556   22.3263 C   0  0  0  0  0  0  0  0  0  0  0  0
  -22.2601  -27.4232   20.8161 C   0  0  0  0  0  0  0  0  0  0  0  0
  -24.0265   -9.1888   21.9463 C   0  0  0  0  0  0  0  0  0  0  0  0
  -22.0304   -8.2878   20.2182 C   0  0  0  0  0  0  0  0  0  0  0  0
  -23.9389   -7.8335   21.6282 C   0  0  0  0  0  0  0  0  0  0  0  0
  -28.6467  -13.4083   20.8381 C   0  0  0  0  0  0  0  0  0  0  0  0
  -30.4686  -14.5317   20.3345 C   0  0  0  0  0  0  0  0  0  0  0  0
  -30.8870  -12.4687   21.6826 C   0  0  0  0  0  0  0  0  0  0  0  0
  -27.5032  -28.7286   21.3364 C   0  0  0  0  0  0  0  0  0  0  0  0
  -26.5670  -31.5113   22.7158 C   0  0  0  0  0  0  0  0  0  0  0  0
  -24.0055  -33.4982   23.7823 C   0  0  0  0  0  0  0  0  0  0  0  0
  -28.0043  -19.6820   18.9752 C   0  0  0  0  0  0  0  0  0  0  0  0
  -31.7175  -26.8852   19.1231 C   0  0  0  0  0  0  0  0  0  0  0  0
  -25.8094  -29.5715   19.6701 C   0  0  0  0  0  0  0  0  0  0  0  0
  -24.7961  -29.7350   22.4434 C   0  0  0  0  0  0  0  0  0  0  0  0
  -31.4107  -27.9653   20.1573 C   0  0  0  0  0  0  0  0  0  0  0  0
  -29.3006  -17.4157   16.7099 C   0  0  0  0  0  0  0  0  0  0  0  0
  -30.4805  -27.4217   21.2371 C   0  0  0  0  0  0  0  0  0  0  0  0
  -29.4231  -16.1240   17.5178 C   0  0  0  0  0  0  0  0  0  0  0  0
  -24.8553  -20.3643   20.3665 C   0  0  0  0  0  0  0  0  0  0  0  0
  -26.5034  -22.2507   20.7339 C   0  0  0  0  0  0  0  0  0  0  0  0
  -28.0009  -18.1422   17.0362 C   0  0  0  0  0  0  0  0  0  0  0  0
  -26.0058  -19.3625   20.4999 C   0  0  0  0  0  0  0  0  0  0  0  0
  -27.6065  -21.2071   20.8843 C   0  0  0  0  0  0  0  0  0  0  0  0
  -27.9505  -17.1688   19.3096 C   0  0  0  0  0  0  0  0  0  0  0  0
  -25.1391  -21.6645   21.1401 C   0  0  0  0  0  0  0  0  0  0  0  0
  -29.1370  -26.9862   20.6397 C   0  0  1  0  0  0  0  0  0  0  0  0
  -26.7253  -29.9148   20.8408 C   0  0  1  0  0  0  0  0  0  0  0  0
  -29.2535  -16.3951   19.0232 C   0  0  1  0  0  0  0  0  0  0  0  0
  -19.5068  -25.0023   20.9323 C   0  0  0  0  0  0  0  0  0  0  0  0
  -23.5536  -35.6972   24.9036 C   0  0  0  0  0  0  0  0  0  0  0  0
  -24.1595  -24.6531   24.4960 C   0  0  0  0  0  0  0  0  0  0  0  0
  -23.7081  -22.5311   25.7764 C   0  0  0  0  0  0  0  0  0  0  0  0
  -27.3646  -30.3028   25.4017 C   0  0  0  0  0  0  0  0  0  0  0  0
  -26.0402  -32.1051   26.5269 C   0  0  0  0  0  0  0  0  0  0  0  0
  -28.0022  -32.7031   25.1071 C   0  0  0  0  0  0  0  0  0  0  0  0
  -22.5145  -34.5189   21.4384 C   0  0  0  0  0  0  0  0  0  0  0  0
  -20.8678  -25.5271   20.4669 C   0  0  1  0  0  0  0  0  0  1  0  0
  -25.8781  -31.8864   24.0056 C   0  0  1  0  0  0  0  0  0  0  0  0
  -23.7234  -34.9754   23.5759 C   0  0  2  0  0  0  0  0  0  0  0  0
  -23.3346  -23.3763   24.5674 C   0  0  0  0  0  0  0  0  0  0  0  0
  -26.8090  -31.7320   25.2414 C   0  0  0  0  0  0  0  0  0  0  0  0
  -28.2103  -14.4534   20.1301 N   0  0  0  0  0  0  0  0  0  0  0  0
  -29.3415  -15.1179   19.8384 N   0  0  0  0  0  0  0  0  0  0  0  0
  -25.9960  -30.4571   21.9889 N   0  0  0  0  0  0  0  0  0  0  0  0
  -27.8755  -18.3777   18.4745 N   0  0  0  0  0  0  0  0  0  0  0  0
  -27.2848  -19.9900   20.1397 N   0  0  0  0  0  0  0  0  0  0  0  0
  -31.6911  -15.0679   20.1337 N   0  0  0  0  0  0  0  0  0  0  0  0
  -30.2886  -11.3674   22.3098 N   0  0  0  0  0  0  0  0  0  0  0  0
  -23.5546  -22.6100   23.3813 N   0  0  0  0  0  0  0  0  0  0  0  0
  -28.3034  -28.1395   20.3762 N   0  0  0  0  0  0  0  0  0  0  0  0
  -25.3589  -33.2361   23.8135 N   0  0  0  0  0  0  0  0  0  0  0  0
  -22.4776  -35.1584   22.7788 N   0  3  0  0  0  0  0  0  0  0  0  0
  -32.1312  -12.6130   21.7513 O   0  0  0  0  0  0  0  0  0  0  0  0
  -27.3871  -28.3750   22.5040 O   0  0  0  0  0  0  0  0  0  0  0  0
  -27.5707  -32.1355   22.3626 O   0  0  0  0  0  0  0  0  0  0  0  0
  -23.1144  -32.6610   23.9074 O   0  0  0  0  0  0  0  0  0  0  0  0
  -28.7203  -20.5221   18.4160 O   0  0  0  0  0  0  0  0  0  0  0  0
  -25.0162   -9.6375   22.8047 O   0  0  0  0  0  0  0  0  0  0  0  0
  -21.1316  -26.7456   21.1764 O   0  0  0  0  0  0  0  0  0  1  0  0
  -21.0710   -7.8550   19.3897 F   0  0  0  0  0  0  0  0  0  0  0  0
  -24.8101   -6.9594   22.1505 F   0  0  0  0  0  0  0  0  0  0  0  0
  1  2  1  0  0  0  0
  1  5  2  0  0  0  0
  2  6  2  0  0  0  0
  3 10  2  0  0  0  0
  3 18  1  0  0  0  0
  4 11  1  0  0  0  0
  4 18  2  0  0  0  0
  5 20  1  0  0  0  0
  6 22  1  0  0  0  0
  7  9  2  0  0  0  0
  7 23  1  0  0  0  0
  8 12  2  0  0  0  0
  8 21  1  0  0  0  0
  9 25  1  0  0  0  0
 10 27  1  0  0  0  0
 11 27  2  0  0  0  0
 12 28  1  0  0  0  0
 13 14  2  0  0  0  0
 13 29  1  0  0  0  0
 14 30  1  0  0  0  0
 15 24  1  0  0  0  0
 15 28  2  0  0  0  0
 16 25  2  0  0  0  0
 16 26  1  0  0  0  0
 17 30  2  0  0  0  0
 17 31  1  0  0  0  0
 18 32  1  0  0  0  0
 19 32  1  0  0  0  0
 19 33  2  0  0  0  0
 19 34  1  0  0  0  0
 20 22  2  0  0  0  0
 20 39  1  0  0  0  0
 21 24  2  0  0  0  0
 21 40  1  0  0  0  0
 22 53  1  0  0  0  0
 23 26  2  0  0  0  0
 23 52  1  0  0  0  0
 24 41  1  0  0  0  0
 25 64  1  0  0  0  0
 26 76  1  0  0  0  0
 27 85  1  0  0  0  0
 28 86  1  0  0  0  0
 29 31  2  0  0  0  0
 29 85  1  0  0  0  0
 30 87  1  0  0  0  0
 31 88  1  0  0  0  0
 32 69  2  0  0  0  0
 33 70  1  0  0  0  0
 33 74  1  0  0  0  0
 34 75  1  0  0  0  0
 34 80  2  0  0  0  0
 35 54  1  0  0  0  0
 35 77  1  0  0  0  0
 35 81  2  0  0  0  0
 36 65  1  0  0  0  0
 36 71  1  0  0  0  0
 36 82  2  0  0  0  0
 37 66  1  0  0  0  0
 37 78  1  0  0  0  0
 37 83  2  0  0  0  0
 38 72  1  0  0  0  0
 38 73  1  0  0  0  0
 38 84  2  0  0  0  0
 39 42  1  0  0  0  0
 40 54  1  0  0  0  0
 41 71  1  0  0  0  0
 42 44  1  0  0  0  0
 43 45  1  0  0  0  0
 43 48  1  0  0  0  0
 44 53  1  0  0  0  0
 45 55  1  0  0  0  0
 46 49  1  0  0  0  0
 46 52  1  0  0  0  0
 47 50  1  0  0  0  0
 47 52  1  0  0  0  0
 48 72  1  0  0  0  0
 49 73  1  0  0  0  0
 50 73  1  0  0  0  0
 51 55  1  0  0  0  0
 51 72  1  0  0  0  0
 53 77  1  0  0  0  0
 54 71  1  0  0  0  0
 55 70  1  0  0  0  0
 56 64  1  0  0  0  0
 57 66  1  0  0  0  0
 58 67  1  0  0  0  0
 59 67  1  0  0  0  0
 60 68  1  0  0  0  0
 61 68  1  0  0  0  0
 62 68  1  0  0  0  0
 63 79  1  0  0  0  0
 64 86  1  0  0  0  0
 65 68  1  0  0  0  0
 65 78  1  0  0  0  0
 66 79  1  0  0  0  0
 67 76  1  0  0  0  0
 69 70  1  0  0  0  0
M  CHG  1  79   1
M  ISO  4  38 100  64 101  73 100  86 101
M  END
> <Batch ID>
0148

> <Smiles>
CNC(C)C(=O)NC(C(=O)N1Cc2cc([101O:1][101CH:1](C)c3ccc(C4CC[100N:0]([100C:0](=O)N5CCCC(n6nc(-c7ccc(Oc8ccc(F)cc8F)cc7)c(C(N)=O)c6N)C5)CC4)c(NC(C)C)c3)ccc2CC1C(=O)NC1CCCc2ccccc21)C(C)(C)C

> <Shape>
0.300

> <Color>
0.081

> <Negative vol penalty>
0.000

$$$$

  -OEChem-04052321363D

 92101  0     1  0  0  0  0  0999 V2000
  -29.0469  -36.1967   18.9004 C   0  0  0  0  0  0  0  0  0  0  0  0
  -29.3158  -34.8380   19.0308 C   0  0  0  0  0  0  0  0  0  0  0  0
  -24.4791   -8.6529   20.5226 C   0  0  0  0  0  0  0  0  0  0  0  0
  -23.0473  -10.5605   20.9074 C   0  0  0  0  0  0  0  0  0  0  0  0
  -28.0804  -36.7954   19.7074 C   0  0  0  0  0  0  0  0  0  0  0  0
  -28.6190  -34.0774   19.9692 C   0  0  0  0  0  0  0  0  0  0  0  0
  -26.9011  -28.2248   19.4206 C   0  0  0  0  0  0  0  0  0  0  0  0
  -23.4588   -7.8016   20.9465 C   0  0  0  0  0  0  0  0  0  0  0  0
  -22.0270   -9.7091   21.3313 C   0  0  0  0  0  0  0  0  0  0  0  0
  -27.4572  -27.0359   19.8909 C   0  0  0  0  0  0  0  0  0  0  0  0
  -22.1282   -6.7766   23.8796 C   0  0  0  0  0  0  0  0  0  0  0  0
  -22.4668   -5.7478   24.7585 C   0  0  0  0  0  0  0  0  0  0  0  0
  -25.9761  -27.1028   21.7938 C   0  0  0  0  0  0  0  0  0  0  0  0
  -25.7035  -21.1962   17.5690 C   0  0  0  0  0  0  0  0  0  0  0  0
  -27.5359  -22.3288   16.4752 C   0  0  0  0  0  0  0  0  0  0  0  0
  -21.6928   -4.1192   23.1506 C   0  0  0  0  0  0  0  0  0  0  0  0
  -24.2734  -10.0325   20.5031 C   0  0  0  0  0  0  0  0  0  0  0  0
  -25.9543  -10.9272   18.8056 C   0  0  0  0  0  0  0  0  0  0  0  0
  -27.3646  -36.0399   20.6494 C   0  0  0  0  0  0  0  0  0  0  0  0
  -25.8841  -28.8684   20.1402 C   0  0  0  0  0  0  0  0  0  0  0  0
  -27.6430  -34.6669   20.7905 C   0  0  0  0  0  0  0  0  0  0  0  0
  -25.4069  -28.2983   21.3292 C   0  0  0  0  0  0  0  0  0  0  0  0
  -26.3924  -21.2516   18.7806 C   0  0  0  0  0  0  0  0  0  0  0  0
  -27.6531  -21.8456   18.8394 C   0  0  0  0  0  0  0  0  0  0  0  0
  -22.2327   -8.3296   21.3508 C   0  0  0  0  0  0  0  0  0  0  0  0
  -26.9967  -26.4763   21.0791 C   0  0  0  0  0  0  0  0  0  0  0  0
  -21.5718   -6.4767   22.6361 C   0  0  0  0  0  0  0  0  0  0  0  0
  -26.2752  -21.7347   16.4163 C   0  0  0  0  0  0  0  0  0  0  0  0
  -28.2249  -22.3842   17.6867 C   0  0  0  0  0  0  0  0  0  0  0  0
  -22.2492   -4.4192   24.3940 C   0  0  0  0  0  0  0  0  0  0  0  0
  -21.3541   -5.1480   22.2716 C   0  0  0  0  0  0  0  0  0  0  0  0
  -25.3272  -10.9125   20.0658 C   0  0  0  0  0  0  0  0  0  0  0  0
  -26.8785  -11.9394   18.8938 C   0  0  0  0  0  0  0  0  0  0  0  0
  -25.7221  -10.0999   17.6578 C   0  0  0  0  0  0  0  0  0  0  0  0
  -25.5864  -31.6957   21.5620 C   0  0  0  0  0  0  0  0  0  0  0  0
  -22.5223  -30.7211   21.9905 C   0  0  0  0  0  0  0  0  0  0  0  0
  -20.3137  -28.1314   22.2400 C   0  0  0  0  0  0  0  0  0  0  0  0
  -27.2233  -16.8619   22.2851 C   0  0  0  0  0  0  0  0  0  0  0  0
  -26.3626  -36.7409   21.5322 C   0  0  0  0  0  0  0  0  0  0  0  0
  -25.2761  -30.1361   19.6057 C   0  0  0  0  0  0  0  0  0  0  0  0
  -24.3030  -28.9392   22.1286 C   0  0  0  0  0  0  0  0  0  0  0  0
  -25.4044  -35.7879   22.2421 C   0  0  0  0  0  0  0  0  0  0  0  0
  -29.6215  -14.2392   22.0684 C   0  0  0  0  0  0  0  0  0  0  0  0
  -26.1705  -34.6216   22.8582 C   0  0  0  0  0  0  0  0  0  0  0  0
  -23.6110  -20.0821   21.2773 C   0  0  0  0  0  0  0  0  0  0  0  0
  -28.8494  -13.0905   21.4169 C   0  0  0  0  0  0  0  0  0  0  0  0
  -24.0913  -18.6433   21.4450 C   0  0  0  0  0  0  0  0  0  0  0  0
  -26.2202  -19.2001   20.2146 C   0  0  0  0  0  0  0  0  0  0  0  0
  -28.7387  -15.0449   23.0190 C   0  0  0  0  0  0  0  0  0  0  0  0
  -26.7131  -14.3973   21.7735 C   0  0  0  0  0  0  0  0  0  0  0  0
  -25.7471  -20.6565   20.0231 C   0  0  2  0  0  0  0  0  0  0  0  0
  -26.8907  -33.8033   21.7797 C   0  0  1  0  0  0  0  0  0  0  0  0
  -24.6009  -30.9764   20.6852 C   0  0  1  0  0  0  0  0  0  0  0  0
  -24.1972  -20.7481   20.0199 C   0  0  2  0  0  0  0  0  0  0  0  0
  -27.5466  -13.5899   20.7637 C   0  0  2  0  0  0  0  0  0  0  0  0
  -25.6166  -18.5695   21.4714 C   0  0  2  0  0  0  0  0  0  0  0  0
  -22.2161  -22.2708   19.9365 C   0  0  0  0  0  0  0  0  0  0  0  0
  -17.8825  -27.6463   22.6287 C   0  0  0  0  0  0  0  0  0  0  0  0
  -22.8825  -31.3101   24.9626 C   0  0  0  0  0  0  0  0  0  0  0  0
  -20.8308  -29.9469   25.4102 C   0  0  0  0  0  0  0  0  0  0  0  0
  -20.6750  -32.0123   24.0200 C   0  0  0  0  0  0  0  0  0  0  0  0
  -20.0332  -26.8237   19.5998 C   0  0  0  0  0  0  0  0  0  0  0  0
  -24.3179  -21.0608   15.2456 C   0  0  0  0  0  0  0  0  0  0  0  0
  -29.9620  -23.4923   16.4991 C   0  0  0  0  0  0  0  0  0  0  0  0
  -28.4021  -21.9092   20.1465 C   0  0  0  0  0  0  0  0  0  0  0  0
  -23.7058  -22.1986   19.9428 C   0  0  0  0  0  0  0  0  0  0  0  0
  -27.8793  -22.9819   21.1045 C   0  0  0  0  0  0  0  0  0  0  0  0
  -28.0366  -24.3996   20.5673 C   0  0  0  0  0  0  0  0  0  1  0  0
  -21.7844  -29.9531   23.0603 C   0  0  1  0  0  0  0  0  0  0  0  0
  -18.9638  -27.8924   21.5880 C   0  0  2  0  0  0  0  0  0  0  0  0
  -21.5653  -30.7943   24.3494 C   0  0  0  0  0  0  0  0  0  0  0  0
  -25.8121  -11.8414   20.8940 N   0  0  0  0  0  0  0  0  0  0  0  0
  -26.7539  -12.4493   20.1526 N   0  0  0  0  0  0  0  0  0  0  0  0
  -23.7451  -30.1809   21.5679 N   0  0  0  0  0  0  0  0  0  0  0  0
  -27.5207  -15.4901   22.3376 N   0  0  0  0  0  0  0  0  0  0  0  0
  -27.7776  -12.4340   18.0166 N   0  0  0  0  0  0  0  0  0  0  0  0
  -24.7353   -9.1080   17.7378 N   0  0  0  0  0  0  0  0  0  0  0  0
  -25.9549  -32.9411   21.0903 N   0  0  0  0  0  0  0  0  0  0  0  0
  -20.5524  -29.4742   22.4428 N   0  0  0  0  0  0  0  0  0  0  0  0
  -26.0536  -17.1986   21.6149 N   0  0  0  0  0  0  0  0  0  0  0  0
  -19.0265  -26.7077   20.6862 N   0  3  0  0  0  0  0  0  0  0  0  0
  -26.3819  -10.2256   16.5983 O   0  0  0  0  0  0  0  0  0  0  0  0
  -25.9821  -31.1610   22.5912 O   0  0  0  0  0  0  0  0  0  0  0  0
  -22.0284  -31.7583   21.5411 O   0  0  0  0  0  0  0  0  0  0  0  0
  -21.0783  -27.2179   22.5426 O   0  0  0  0  0  0  0  0  0  0  0  0
  -27.9494  -17.7233   22.7929 O   0  0  0  0  0  0  0  0  0  0  0  0
  -21.2368   -7.4991   21.7643 O   0  0  0  0  0  0  0  0  0  0  0  0
  -25.6026  -21.6814   15.2342 O   0  0  0  0  0  0  0  0  0  0  0  0
  -29.4554  -22.9684   17.7249 O   0  0  0  0  0  0  0  0  0  0  0  0
  -27.5383  -25.3163   21.5407 O   0  0  0  0  0  0  0  0  0  1  0  0
  -22.5759   -3.4313   25.2376 F   0  0  0  0  0  0  0  0  0  0  0  0
  -20.8210   -4.8536   21.0779 F   0  0  0  0  0  0  0  0  0  0  0  0
  1  2  1  0  0  0  0
  1  5  2  0  0  0  0
  2  6  2  0  0  0  0
  3  8  2  0  0  0  0
  3 17  1  0  0  0  0
  4  9  1  0  0  0  0
  4 17  2  0  0  0  0
  5 19  1  0  0  0  0
  6 21  1  0  0  0  0
  7 10  2  0  0  0  0
  7 20  1  0  0  0  0
  8 25  1  0  0  0  0
  9 25  2  0  0  0  0
 10 26  1  0  0  0  0
 11 12  2  0  0  0  0
 11 27  1  0  0  0  0
 12 30  1  0  0  0  0
 13 22  1  0  0  0  0
 13 26  2  0  0  0  0
 14 23  1  0  0  0  0
 14 28  2  0  0  0  0
 15 28  1  0  0  0  0
 15 29  2  0  0  0  0
 16 30  2  0  0  0  0
 16 31  1  0  0  0  0
 17 32  1  0  0  0  0
 18 32  1  0  0  0  0
 18 33  2  0  0  0  0
 18 34  1  0  0  0  0
 19 21  2  0  0  0  0
 19 39  1  0  0  0  0
 20 22  2  0  0  0  0
 20 40  1  0  0  0  0
 21 52  1  0  0  0  0
 22 41  1  0  0  0  0
 23 24  2  0  0  0  0
 23 51  1  0  0  0  0
 24 29  1  0  0  0  0
 24 65  1  0  0  0  0
 25 87  1  0  0  0  0
 26 90  1  0  0  0  0
 27 31  2  0  0  0  0
 27 87  1  0  0  0  0
 28 88  1  0  0  0  0
 29 89  1  0  0  0  0
 30 91  1  0  0  0  0
 31 92  1  0  0  0  0
 32 72  2  0  0  0  0
 33 73  1  0  0  0  0
 33 76  1  0  0  0  0
 34 77  1  0  0  0  0
 34 82  2  0  0  0  0
 35 53  1  0  0  0  0
 35 78  1  0  0  0  0
 35 83  2  0  0  0  0
 36 69  1  0  0  0  0
 36 74  1  0  0  0  0
 36 84  2  0  0  0  0
 37 70  1  0  0  0  0
 37 79  1  0  0  0  0
 37 85  2  0  0  0  0
 38 75  1  0  0  0  0
 38 80  1  0  0  0  0
 38 86  2  0  0  0  0
 39 42  1  0  0  0  0
 40 53  1  0  0  0  0
 41 74  1  0  0  0  0
 42 44  1  0  0  0  0
 43 46  1  0  0  0  0
 43 49  1  0  0  0  0
 44 52  1  0  0  0  0
 45 47  1  0  0  0  0
 45 54  1  0  0  0  0
 46 55  1  0  0  0  0
 47 56  1  0  0  0  0
 48 51  1  0  0  0  0
 48 56  1  0  0  0  0
 49 75  1  0  0  0  0
 50 55  1  0  0  0  0
 50 75  1  0  0  0  0
 51 54  1  0  0  0  0
 52 78  1  0  0  0  0
 53 74  1  0  0  0  0
 54 66  1  0  0  0  0
 55 73  1  0  0  0  0
 56 80  1  0  0  0  0
 57 66  1  0  0  0  0
 58 70  1  0  0  0  0
 59 71  1  0  0  0  0
 60 71  1  0  0  0  0
 61 71  1  0  0  0  0
 62 81  1  0  0  0  0
 63 88  1  0  0  0  0
 64 89  1  0  0  0  0
 65 67  1  0  0  0  0
 67 68  1  0  0  0  0
 68 90  1  0  0  0  0
 69 71  1  0  0  0  0
 69 79  1  0  0  0  0
 70 81  1  0  0  0  0
 72 73  1  0  0  0  0
M  CHG  1  81   1
M  ISO  4  38 100  68 101  80 100  90 101
M  END
> <Batch ID>
0148

> <Smiles>
CCC1CCC([100NH:0][100C:0](=O)N2CCCC(n3nc(-c4ccc(Oc5ccc(F)cc5F)cc4)c(C(N)=O)c3N)C2)CC1c1cc(OC)cc(OC)c1CC[101CH2:1][101O:1]c1ccc2c(c1)CN(C(=O)C(NC(=O)C(C)NC)C(C)(C)C)C(C(=O)NC1CCCc3ccccc31)C2

> <Shape>
0.272

> <Color>
0.098

> <Negative vol penalty>
0.000

$$$$

  -OEChem-04052321363D

 86 95  0     1  0  0  0  0  0999 V2000
  -19.1113  -24.5044   24.0348 C   0  0  0  0  0  0  0  0  0  0  0  0
  -20.0066  -24.4475   22.9715 C   0  0  0  0  0  0  0  0  0  0  0  0
  -26.9645  -12.2456   20.3495 C   0  0  0  0  0  0  0  0  0  0  0  0
  -25.8947  -14.4089   20.2364 C   0  0  0  0  0  0  0  0  0  0  0  0
  -18.5495  -25.7250   24.4070 C   0  0  0  0  0  0  0  0  0  0  0  0
  -20.3397  -25.6110   22.2790 C   0  0  0  0  0  0  0  0  0  0  0  0
  -27.1757  -27.8416   21.8487 C   0  0  0  0  0  0  0  0  0  0  0  0
  -25.7304  -11.6252   20.1553 C   0  0  0  0  0  0  0  0  0  0  0  0
  -24.6606  -13.7885   20.0422 C   0  0  0  0  0  0  0  0  0  0  0  0
  -28.4831  -28.2202   21.5429 C   0  0  0  0  0  0  0  0  0  0  0  0
  -23.0033  -10.8720   22.0047 C   0  0  0  0  0  0  0  0  0  0  0  0
  -22.6900   -9.7848   22.8204 C   0  0  0  0  0  0  0  0  0  0  0  0
  -27.6553  -30.1523   20.3472 C   0  0  0  0  0  0  0  0  0  0  0  0
  -22.4943   -8.3760   20.8674 C   0  0  0  0  0  0  0  0  0  0  0  0
  -27.0466  -13.6375   20.3900 C   0  0  0  0  0  0  0  0  0  0  0  0
  -29.4633  -14.1749   19.7750 C   0  0  0  0  0  0  0  0  0  0  0  0
  -18.8833  -26.9056   23.7248 C   0  0  0  0  0  0  0  0  0  0  0  0
  -26.1025  -28.6262   21.4175 C   0  0  0  0  0  0  0  0  0  0  0  0
  -19.7808  -26.8484   22.6415 C   0  0  0  0  0  0  0  0  0  0  0  0
  -26.3441  -29.7848   20.6611 C   0  0  0  0  0  0  0  0  0  0  0  0
  -24.5785  -12.3966   20.0017 C   0  0  0  0  0  0  0  0  0  0  0  0
  -28.7223  -29.3726   20.7938 C   0  0  0  0  0  0  0  0  0  0  0  0
  -23.0621  -10.7113   20.6204 C   0  0  0  0  0  0  0  0  0  0  0  0
  -22.4355   -8.5368   22.2518 C   0  0  0  0  0  0  0  0  0  0  0  0
  -22.8076   -9.4633   20.0517 C   0  0  0  0  0  0  0  0  0  0  0  0
  -28.3210  -14.2790   20.5911 C   0  0  0  0  0  0  0  0  0  0  0  0
  -30.4001  -14.9669   20.3928 C   0  0  0  0  0  0  0  0  0  0  0  0
  -29.6601  -13.4290   18.5664 C   0  0  0  0  0  0  0  0  0  0  0  0
  -31.3717  -26.6365   18.8963 C   0  0  0  0  0  0  0  0  0  0  0  0
  -22.3848  -29.1245   21.3409 C   0  0  0  0  0  0  0  0  0  0  0  0
  -23.6460  -31.8897   21.7572 C   0  0  0  0  0  0  0  0  0  0  0  0
  -25.4045  -34.6812   22.6247 C   0  0  0  0  0  0  0  0  0  0  0  0
  -29.9742  -19.6649   24.0804 C   0  0  0  0  0  0  0  0  0  0  0  0
  -18.2141  -28.1940   24.1333 C   0  0  0  0  0  0  0  0  0  0  0  0
  -24.6752  -28.2236   21.6712 C   0  0  0  0  0  0  0  0  0  0  0  0
  -25.1573  -30.5794   20.1889 C   0  0  0  0  0  0  0  0  0  0  0  0
  -18.9069  -29.4399   23.5874 C   0  0  0  0  0  0  0  0  0  0  0  0
  -31.6660  -16.5959   24.7096 C   0  0  0  0  0  0  0  0  0  0  0  0
  -19.2262  -29.2673   22.1058 C   0  0  0  0  0  0  0  0  0  0  0  0
  -30.4548  -23.6962   21.8206 C   0  0  0  0  0  0  0  0  0  0  0  0
  -27.9299  -23.5904   21.8568 C   0  0  0  0  0  0  0  0  0  0  0  0
  -31.1036  -15.6447   23.6518 C   0  0  0  0  0  0  0  0  0  0  0  0
  -30.5236  -22.1878   22.0610 C   0  0  0  0  0  0  0  0  0  0  0  0
  -27.9943  -22.0819   22.0981 C   0  0  0  0  0  0  0  0  0  0  0  0
  -32.1586  -28.9970   19.5223 C   0  0  0  0  0  0  0  0  0  0  0  0
  -30.5998  -17.5595   25.2260 C   0  0  0  0  0  0  0  0  0  0  0  0
  -29.3321  -17.3706   23.1210 C   0  0  0  0  0  0  0  0  0  0  0  0
  -20.1862  -28.0927   21.8816 C   0  0  1  0  0  0  0  0  0  0  0  0
  -31.0887  -28.0715   19.0083 C   0  0  2  0  0  0  0  0  0  0  0  0
  -23.7419  -29.4249   21.9060 C   0  0  1  0  0  0  0  0  0  0  0  0
  -29.1614  -24.1365   21.1201 C   0  0  0  0  0  0  0  0  0  0  0  0
  -30.3839  -16.4165   22.5295 C   0  0  2  0  0  0  0  0  0  0  0  0
  -29.2883  -21.6836   22.8102 C   0  0  0  0  0  0  0  0  0  0  0  0
  -30.9627  -28.6920   20.3758 C   0  0  2  0  0  0  0  0  0  1  0  0
  -25.0990  -37.1120   23.1680 C   0  0  0  0  0  0  0  0  0  0  0  0
  -30.2523  -23.9730   17.3850 C   0  0  0  0  0  0  0  0  0  0  0  0
  -23.2406  -32.4968   18.7956 C   0  0  0  0  0  0  0  0  0  0  0  0
  -23.8890  -34.8689   19.2659 C   0  0  0  0  0  0  0  0  0  0  0  0
  -21.8624  -33.8942   20.3455 C   0  0  0  0  0  0  0  0  0  0  0  0
  -26.5204  -34.3332   25.3437 C   0  0  0  0  0  0  0  0  0  0  0  0
  -29.1566  -23.7416   19.6408 C   0  0  0  0  0  0  0  0  0  0  0  0
  -24.1541  -33.1574   21.1184 C   0  0  1  0  0  0  0  0  0  0  0  0
  -25.1944  -35.7017   23.7288 C   0  0  2  0  0  0  0  0  0  0  0  0
  -30.2977  -24.3944   18.8501 C   0  0  2  0  0  0  0  0  0  0  0  0
  -23.3041  -33.5829   19.8880 C   0  0  0  0  0  0  0  0  0  0  0  0
  -28.5125  -15.0743   21.6469 N   0  0  0  0  0  0  0  0  0  0  0  0
  -29.7860  -15.4771   21.4985 N   0  0  0  0  0  0  0  0  0  0  0  0
  -24.1615  -30.6837   21.2670 N   0  0  0  0  0  0  0  0  0  0  0  0
  -29.9567  -18.2607   24.1121 N   0  0  0  0  0  0  0  0  0  0  0  0
  -31.6810  -15.2697   20.0926 N   0  0  0  0  0  0  0  0  0  0  0  0
  -29.3687  -14.0489   17.3437 N   0  0  0  0  0  0  0  0  0  0  0  0
  -21.5402  -28.4748   22.2207 N   0  0  0  0  0  0  0  0  0  0  0  0
  -30.2465  -25.8358   18.9443 N   0  0  0  0  0  0  0  0  0  0  0  0
  -24.2094  -34.1560   22.1806 N   0  0  0  0  0  0  0  0  0  0  0  0
  -29.3476  -20.2497   22.9867 N   0  0  0  0  0  0  0  0  0  0  0  0
  -26.3258  -35.6568   24.6978 N   0  3  0  0  0  0  0  0  0  0  0  0
  -30.0661  -12.2421   18.5716 O   0  0  0  0  0  0  0  0  0  0  0  0
  -32.5302  -26.2571   18.7717 O   0  0  0  0  0  0  0  0  0  0  0  0
  -22.1213  -29.4585   20.1917 O   0  0  0  0  0  0  0  0  0  0  0  0
  -22.8104  -31.9635   22.6626 O   0  0  0  0  0  0  0  0  0  0  0  0
  -26.5171  -34.3827   22.1964 O   0  0  0  0  0  0  0  0  0  0  0  0
  -30.5134  -20.3468   24.9586 O   0  0  0  0  0  0  0  0  0  0  0  0
  -23.3741  -11.7915   19.8120 O   0  0  0  0  0  0  0  0  0  0  0  0
  -30.0013  -29.7388   20.5026 O   0  0  0  0  0  0  0  0  0  1  0  0
  -22.1361   -7.4924   23.0353 F   0  0  0  0  0  0  0  0  0  0  0  0
  -22.8638   -9.3024   18.7225 F   0  0  0  0  0  0  0  0  0  0  0  0
  1  2  1  0  0  0  0
  1  5  2  0  0  0  0
  2  6  2  0  0  0  0
  3  8  2  0  0  0  0
  3 15  1  0  0  0  0
  4  9  1  0  0  0  0
  4 15  2  0  0  0  0
  5 17  1  0  0  0  0
  6 19  1  0  0  0  0
  7 10  2  0  0  0  0
  7 18  1  0  0  0  0
  8 21  1  0  0  0  0
  9 21  2  0  0  0  0
 10 22  1  0  0  0  0
 11 12  2  0  0  0  0
 11 23  1  0  0  0  0
 12 24  1  0  0  0  0
 13 20  1  0  0  0  0
 13 22  2  0  0  0  0
 14 24  2  0  0  0  0
 14 25  1  0  0  0  0
 15 26  1  0  0  0  0
 16 26  1  0  0  0  0
 16 27  2  0  0  0  0
 16 28  1  0  0  0  0
 17 19  2  0  0  0  0
 17 34  1  0  0  0  0
 18 20  2  0  0  0  0
 18 35  1  0  0  0  0
 19 48  1  0  0  0  0
 20 36  1  0  0  0  0
 21 83  1  0  0  0  0
 22 84  1  0  0  0  0
 23 25  2  0  0  0  0
 23 83  1  0  0  0  0
 24 85  1  0  0  0  0
 25 86  1  0  0  0  0
 26 66  2  0  0  0  0
 27 67  1  0  0  0  0
 27 70  1  0  0  0  0
 28 71  1  0  0  0  0
 28 77  2  0  0  0  0
 29 49  1  0  0  0  0
 29 73  1  0  0  0  0
 29 78  2  0  0  0  0
 30 50  1  0  0  0  0
 30 72  1  0  0  0  0
 30 79  2  0  0  0  0
 31 62  1  0  0  0  0
 31 68  1  0  0  0  0
 31 80  2  0  0  0  0
 32 63  1  0  0  0  0
 32 74  1  0  0  0  0
 32 81  2  0  0  0  0
 33 69  1  0  0  0  0
 33 75  1  0  0  0  0
 33 82  2  0  0  0  0
 34 37  1  0  0  0  0
 35 50  1  0  0  0  0
 36 68  1  0  0  0  0
 37 39  1  0  0  0  0
 38 42  1  0  0  0  0
 38 46  1  0  0  0  0
 39 48  1  0  0  0  0
 40 43  1  0  0  0  0
 40 51  1  0  0  0  0
 41 44  1  0  0  0  0
 41 51  1  0  0  0  0
 42 52  1  0  0  0  0
 43 53  1  0  0  0  0
 44 53  1  0  0  0  0
 45 49  1  0  0  0  0
 45 54  1  0  0  0  0
 46 69  1  0  0  0  0
 47 52  1  0  0  0  0
 47 69  1  0  0  0  0
 48 72  1  0  0  0  0
 49 54  1  0  0  0  0
 50 68  1  0  0  0  0
 51 61  1  0  0  0  0
 52 67  1  0  0  0  0
 53 75  1  0  0  0  0
 54 84  1  0  0  0  0
 55 63  1  0  0  0  0
 56 64  1  0  0  0  0
 57 65  1  0  0  0  0
 58 65  1  0  0  0  0
 59 65  1  0  0  0  0
 60 76  1  0  0  0  0
 61 64  1  0  0  0  0
 62 65  1  0  0  0  0
 62 74  1  0  0  0  0
 63 76  1  0  0  0  0
 64 73  1  0  0  0  0
 66 67  1  0  0  0  0
M  CHG  1  76   1
M  ISO  4  33 100  54 101  75 100  84 101
M  END
> <Batch ID>
0148

> <Smiles>
CNC(C)C(=O)NC(C(=O)N1Cc2cc([101O:1][101CH:1]3CC3C(=O)NC(C)CC3CCC([100NH:0][100C:0](=O)N4CCCC(n5nc(-c6ccc(Oc7ccc(F)cc7F)cc6)c(C(N)=O)c5N)C4)CC3)ccc2CC1C(=O)NC1CCCc2ccccc21)C(C)(C)C

> <Shape>
0.333

> <Color>
0.091

> <Negative vol penalty>
0.000

$$$$

  -OEChem-04052321363D

 91101  0     1  0  0  0  0  0999 V2000
  -19.1874  -33.4570   20.8910 C   0  0  0  0  0  0  0  0  0  0  0  0
  -20.4750  -33.0917   20.5113 C   0  0  0  0  0  0  0  0  0  0  0  0
  -25.2833  -10.8174   19.5763 C   0  0  0  0  0  0  0  0  0  0  0  0
  -25.3388  -10.7958   21.9916 C   0  0  0  0  0  0  0  0  0  0  0  0
  -18.5983  -32.8686   22.0094 C   0  0  0  0  0  0  0  0  0  0  0  0
  -21.1747  -32.1387   21.2506 C   0  0  0  0  0  0  0  0  0  0  0  0
  -25.1222  -27.9807   19.0977 C   0  0  0  0  0  0  0  0  0  0  0  0
  -32.1650  -21.3843   22.7883 C   0  0  0  0  0  0  0  0  0  0  0  0
  -25.1782   -9.4265   19.5663 C   0  0  0  0  0  0  0  0  0  0  0  0
  -25.2337   -9.4049   21.9816 C   0  0  0  0  0  0  0  0  0  0  0  0
  -26.5148  -27.9520   19.0384 C   0  0  0  0  0  0  0  0  0  0  0  0
  -31.9494  -22.3664   21.8216 C   0  0  0  0  0  0  0  0  0  0  0  0
  -24.6169   -5.8759   22.6010 C   0  0  0  0  0  0  0  0  0  0  0  0
  -23.7187   -5.2862   23.4904 C   0  0  0  0  0  0  0  0  0  0  0  0
  -26.5697  -26.6774   21.0857 C   0  0  0  0  0  0  0  0  0  0  0  0
  -29.6250  -21.7216   21.6849 C   0  0  0  0  0  0  0  0  0  0  0  0
  -21.9021   -6.5029   22.4623 C   0  0  0  0  0  0  0  0  0  0  0  0
  -25.3636  -11.5020   20.7890 C   0  0  0  0  0  0  0  0  0  0  0  0
  -24.4185  -13.8711   20.8327 C   0  0  0  0  0  0  0  0  0  0  0  0
  -19.2875  -31.9008   22.7570 C   0  0  0  0  0  0  0  0  0  0  0  0
  -24.4422  -27.3663   20.1591 C   0  0  0  0  0  0  0  0  0  0  0  0
  -20.5948  -31.5378   22.3808 C   0  0  0  0  0  0  0  0  0  0  0  0
  -25.1683  -26.6975   21.1549 C   0  0  0  0  0  0  0  0  0  0  0  0
  -31.1106  -20.5708   23.2033 C   0  0  0  0  0  0  0  0  0  0  0  0
  -29.8407  -20.7395   22.6516 C   0  0  0  0  0  0  0  0  0  0  0  0
  -25.1534   -8.7203   20.7689 C   0  0  0  0  0  0  0  0  0  0  0  0
  -27.2389  -27.3027   20.0340 C   0  0  0  0  0  0  0  0  0  0  0  0
  -30.6794  -22.5351   21.2699 C   0  0  0  0  0  0  0  0  0  0  0  0
  -24.1577   -6.7791   21.6423 C   0  0  0  0  0  0  0  0  0  0  0  0
  -22.3613   -5.5997   23.4211 C   0  0  0  0  0  0  0  0  0  0  0  0
  -22.8003   -7.0926   21.5730 C   0  0  0  0  0  0  0  0  0  0  0  0
  -25.4727  -12.9387   20.8000 C   0  0  0  0  0  0  0  0  0  0  0  0
  -25.0422  -15.0948   20.8301 C   0  0  0  0  0  0  0  0  0  0  0  0
  -23.0021  -13.6507   20.8628 C   0  0  0  0  0  0  0  0  0  0  0  0
  -22.5092  -28.3787   22.4705 C   0  0  0  0  0  0  0  0  0  0  0  0
  -22.2231  -25.2068   23.0866 C   0  0  0  0  0  0  0  0  0  0  0  0
  -23.5614  -22.0766   22.8469 C   0  0  0  0  0  0  0  0  0  0  0  0
  -30.3934  -16.7860   22.6628 C   0  0  0  0  0  0  0  0  0  0  0  0
  -18.6276  -31.3272   23.9859 C   0  0  0  0  0  0  0  0  0  0  0  0
  -22.9385  -27.3832   20.1944 C   0  0  0  0  0  0  0  0  0  0  0  0
  -24.4851  -26.0049   22.3047 C   0  0  0  0  0  0  0  0  0  0  0  0
  -19.2936  -30.0519   24.4959 C   0  0  0  0  0  0  0  0  0  0  0  0
  -29.0438  -17.2552   19.3378 C   0  0  0  0  0  0  0  0  0  0  0  0
  -20.8088  -30.2226   24.5418 C   0  0  0  0  0  0  0  0  0  0  0  0
  -27.6966  -18.7910   26.1716 C   0  0  0  0  0  0  0  0  0  0  0  0
  -26.6147  -19.8133   26.3817 C   0  0  0  0  0  0  0  0  0  0  0  0
  -27.8659  -16.2792   19.3472 C   0  0  0  0  0  0  0  0  0  0  0  0
  -32.8029  -17.3990   24.6395 C   0  0  0  0  0  0  0  0  0  0  0  0
  -33.5914  -18.2866   23.7249 C   0  0  0  0  0  0  0  0  0  0  0  0
  -30.2370  -16.6890   20.1018 C   0  0  0  0  0  0  0  0  0  0  0  0
  -28.7599  -15.3154   21.5178 C   0  0  0  0  0  0  0  0  0  0  0  0
  -21.3765  -30.4896   23.1426 C   0  0  1  0  0  0  0  0  0  0  0  0
  -22.3712  -27.1662   21.5938 C   0  0  1  0  0  0  0  0  0  0  0  0
  -27.0977  -19.5049   24.9916 C   0  0  0  0  0  0  0  0  0  0  0  0
  -27.5140  -15.8393   20.7806 C   0  0  2  0  0  0  0  0  0  0  0  0
  -32.0791  -18.3050   23.6669 C   0  0  0  0  0  0  0  0  0  0  0  0
  -23.1135  -19.6892   23.4770 C   0  0  0  0  0  0  0  0  0  0  0  0
  -23.0034  -25.8242   25.9710 C   0  0  0  0  0  0  0  0  0  0  0  0
  -23.4625  -23.3845   26.2956 C   0  0  0  0  0  0  0  0  0  0  0  0
  -21.1592  -24.1532   25.7241 C   0  0  0  0  0  0  0  0  0  0  0  0
  -23.5357  -21.2129   20.0163 C   0  0  0  0  0  0  0  0  0  0  0  0
  -31.3659  -19.5262   24.2396 C   0  0  0  0  0  0  0  0  0  0  0  0
  -27.9033  -20.5152   24.2313 C   0  0  0  0  0  0  0  0  0  0  0  0
  -30.5396  -25.8513   19.8056 C   0  0  0  0  0  0  0  0  0  0  0  0
  -29.2477  -26.1406   20.5538 C   0  0  0  0  0  0  0  0  0  1  0  0
  -31.2827  -24.6616   20.3926 C   0  0  0  0  0  0  0  0  0  0  0  0
  -28.6971  -19.8796   23.0796 C   0  0  1  0  0  0  0  0  0  0  0  0
  -22.9618  -24.2150   23.9524 C   0  0  1  0  0  0  0  0  0  0  0  0
  -22.9600  -20.7553   22.4033 C   0  0  2  0  0  0  0  0  0  0  0  0
  -22.6599  -24.4088   25.4653 C   0  0  0  0  0  0  0  0  0  0  0  0
  -26.6749  -13.5203   20.7780 N   0  0  0  0  0  0  0  0  0  0  0  0
  -26.3799  -14.8313   20.7970 N   0  0  0  0  0  0  0  0  0  0  0  0
  -23.0137  -26.0548   22.2981 N   0  0  0  0  0  0  0  0  0  0  0  0
  -29.8391  -16.3071   21.4642 N   0  0  0  0  0  0  0  0  0  0  0  0
  -24.5713  -16.3598   20.8530 N   0  0  0  0  0  0  0  0  0  0  0  0
  -22.5311  -12.3307   20.8611 N   0  0  0  0  0  0  0  0  0  0  0  0
  -21.4483  -29.2598   22.3832 N   0  0  0  0  0  0  0  0  0  0  0  0
  -22.6210  -22.8924   23.4398 N   0  0  0  0  0  0  0  0  0  0  0  0
  -31.4153  -17.7174   22.5246 N   0  0  0  0  0  0  0  0  0  0  0  0
  -23.6290  -20.2722   21.1624 N   0  3  0  0  0  0  0  0  0  0  0  0
  -22.1781  -14.5965   20.8739 O   0  0  0  0  0  0  0  0  0  0  0  0
  -23.5039  -28.5048   23.1751 O   0  0  0  0  0  0  0  0  0  0  0  0
  -20.9897  -25.2236   23.1037 O   0  0  0  0  0  0  0  0  0  0  0  0
  -24.7476  -22.3556   22.6871 O   0  0  0  0  0  0  0  0  0  0  0  0
  -30.0028  -16.4150   23.7750 O   0  0  0  0  0  0  0  0  0  0  0  0
  -25.0506   -7.3631   20.7595 O   0  0  0  0  0  0  0  0  0  0  0  0
  -28.5983  -27.2738   19.9788 O   0  0  0  0  0  0  0  0  0  1  0  0
  -30.4675  -23.4998   20.3196 O   0  0  0  0  0  0  0  0  0  0  0  0
  -21.4986   -5.0322   24.2742 F   0  0  0  0  0  0  0  0  0  0  0  0
  -22.3531   -7.9587   20.6533 F   0  0  0  0  0  0  0  0  0  0  0  0
  -27.8090  -19.6359   22.0610 F   0  0  0  0  0  0  0  0  0  0  0  0
  1  2  1  0  0  0  0
  1  5  2  0  0  0  0
  2  6  2  0  0  0  0
  3  9  2  0  0  0  0
  3 18  1  0  0  0  0
  4 10  1  0  0  0  0
  4 18  2  0  0  0  0
  5 20  1  0  0  0  0
  6 22  1  0  0  0  0
  7 11  2  0  0  0  0
  7 21  1  0  0  0  0
  8 12  2  0  0  0  0
  8 24  1  0  0  0  0
  9 26  1  0  0  0  0
 10 26  2  0  0  0  0
 11 27  1  0  0  0  0
 12 28  1  0  0  0  0
 13 14  2  0  0  0  0
 13 29  1  0  0  0  0
 14 30  1  0  0  0  0
 15 23  1  0  0  0  0
 15 27  2  0  0  0  0
 16 25  1  0  0  0  0
 16 28  2  0  0  0  0
 17 30  2  0  0  0  0
 17 31  1  0  0  0  0
 18 32  1  0  0  0  0
 19 32  1  0  0  0  0
 19 33  2  0  0  0  0
 19 34  1  0  0  0  0
 20 22  2  0  0  0  0
 20 39  1  0  0  0  0
 21 23  2  0  0  0  0
 21 40  1  0  0  0  0
 22 52  1  0  0  0  0
 23 41  1  0  0  0  0
 24 25  2  0  0  0  0
 24 62  1  0  0  0  0
 25 67  1  0  0  0  0
 26 86  1  0  0  0  0
 27 87  1  0  0  0  0
 28 88  1  0  0  0  0
 29 31  2  0  0  0  0
 29 86  1  0  0  0  0
 30 89  1  0  0  0  0
 31 90  1  0  0  0  0
 32 71  2  0  0  0  0
 33 72  1  0  0  0  0
 33 75  1  0  0  0  0
 34 76  1  0  0  0  0
 34 81  2  0  0  0  0
 35 53  1  0  0  0  0
 35 77  1  0  0  0  0
 35 82  2  0  0  0  0
 36 68  1  0  0  0  0
 36 73  1  0  0  0  0
 36 83  2  0  0  0  0
 37 69  1  0  0  0  0
 37 78  1  0  0  0  0
 37 84  2  0  0  0  0
 38 74  1  0  0  0  0
 38 79  1  0  0  0  0
 38 85  2  0  0  0  0
 39 42  1  0  0  0  0
 40 53  1  0  0  0  0
 41 73  1  0  0  0  0
 42 44  1  0  0  0  0
 43 47  1  0  0  0  0
 43 50  1  0  0  0  0
 44 52  1  0  0  0  0
 45 46  1  0  0  0  0
 45 54  1  0  0  0  0
 46 54  1  0  0  0  0
 47 55  1  0  0  0  0
 48 49  1  0  0  0  0
 48 56  1  0  0  0  0
 49 56  1  0  0  0  0
 50 74  1  0  0  0  0
 51 55  1  0  0  0  0
 51 74  1  0  0  0  0
 52 77  1  0  0  0  0
 53 73  1  0  0  0  0
 54 63  1  0  0  0  0
 55 72  1  0  0  0  0
 56 62  1  0  0  0  0
 56 79  1  0  0  0  0
 57 69  1  0  0  0  0
 58 70  1  0  0  0  0
 59 70  1  0  0  0  0
 60 70  1  0  0  0  0
 61 80  1  0  0  0  0
 63 67  1  0  0  0  0
 64 65  1  0  0  0  0
 64 66  1  0  0  0  0
 65 87  1  0  0  0  0
 66 88  1  0  0  0  0
 67 91  1  0  0  0  0
 68 70  1  0  0  0  0
 68 78  1  0  0  0  0
 69 80  1  0  0  0  0
 71 72  1  0  0  0  0
M  CHG  1  80   1
M  ISO  4  38 100  65 101  79 100  87 101
M  END
> <Batch ID>
0148

> <Smiles>
CNC(C)C(=O)NC(C(=O)N1Cc2cc([101O:1][101CH2:1]CCOc3ccc(CC4([100NH:0][100C:0](=O)N5CCCC(n6nc(-c7ccc(Oc8ccc(F)cc8F)cc7)c(C(N)=O)c6N)C5)CC4)c(C(F)CC4CC4)c3)ccc2CC1C(=O)NC1CCCc2ccccc21)C(C)(C)C

> <Shape>
0.222

> <Color>
0.089

> <Negative vol penalty>
0.000

$$$$

  -OEChem-04052321363D

 91101  0     1  0  0  0  0  0999 V2000
  -28.0035  -35.3795   23.9160 C   0  0  0  0  0  0  0  0  0  0  0  0
  -28.1540  -34.0025   23.7866 C   0  0  0  0  0  0  0  0  0  0  0  0
  -23.0872  -10.3006   21.8596 C   0  0  0  0  0  0  0  0  0  0  0  0
  -24.1134   -9.2503   19.9411 C   0  0  0  0  0  0  0  0  0  0  0  0
  -26.7279  -35.9344   24.0102 C   0  0  0  0  0  0  0  0  0  0  0  0
  -27.0288  -33.1795   23.7523 C   0  0  0  0  0  0  0  0  0  0  0  0
  -27.3048  -29.6617   20.1200 C   0  0  0  0  0  0  0  0  0  0  0  0
  -29.3494  -20.5545   20.3107 C   0  0  0  0  0  0  0  0  0  0  0  0
  -22.3751   -9.1297   22.1198 C   0  0  0  0  0  0  0  0  0  0  0  0
  -23.4014   -8.0794   20.2013 C   0  0  0  0  0  0  0  0  0  0  0  0
  -28.1035  -28.5472   20.3723 C   0  0  0  0  0  0  0  0  0  0  0  0
  -29.5878  -21.9019   20.0406 C   0  0  0  0  0  0  0  0  0  0  0  0
  -22.9703   -6.1127   23.5256 C   0  0  0  0  0  0  0  0  0  0  0  0
  -22.9232   -5.6622   24.8448 C   0  0  0  0  0  0  0  0  0  0  0  0
  -26.1356  -27.2737   20.9425 C   0  0  0  0  0  0  0  0  0  0  0  0
  -27.2500  -22.2102   19.5146 C   0  0  0  0  0  0  0  0  0  0  0  0
  -20.5143   -5.8461   24.8216 C   0  0  0  0  0  0  0  0  0  0  0  0
  -23.9563  -10.3609   20.7703 C   0  0  0  0  0  0  0  0  0  0  0  0
  -25.9646  -11.9184   20.9908 C   0  0  0  0  0  0  0  0  0  0  0  0
  -25.5863  -35.1187   23.9673 C   0  0  0  0  0  0  0  0  0  0  0  0
  -25.9143  -29.5937   20.2877 C   0  0  0  0  0  0  0  0  0  0  0  0
  -25.7368  -33.7239   23.8473 C   0  0  0  0  0  0  0  0  0  0  0  0
  -25.3213  -28.3881   20.6891 C   0  0  0  0  0  0  0  0  0  0  0  0
  -28.0612  -20.0348   20.1828 C   0  0  0  0  0  0  0  0  0  0  0  0
  -27.0115  -20.8627   19.7848 C   0  0  0  0  0  0  0  0  0  0  0  0
  -22.5323   -8.0191   21.2906 C   0  0  0  0  0  0  0  0  0  0  0  0
  -27.5192  -27.3538   20.7865 C   0  0  0  0  0  0  0  0  0  0  0  0
  -28.5382  -22.7298   19.6426 C   0  0  0  0  0  0  0  0  0  0  0  0
  -21.7894   -6.4300   22.8543 C   0  0  0  0  0  0  0  0  0  0  0  0
  -21.6952   -5.5289   25.4928 C   0  0  0  0  0  0  0  0  0  0  0  0
  -20.5614   -6.2967   23.5023 C   0  0  0  0  0  0  0  0  0  0  0  0
  -24.6916  -11.5703   20.5007 C   0  0  0  0  0  0  0  0  0  0  0  0
  -26.2156  -13.1545   20.4473 C   0  0  0  0  0  0  0  0  0  0  0  0
  -26.8418  -11.1894   21.8597 C   0  0  0  0  0  0  0  0  0  0  0  0
  -26.1687  -16.5664   16.0120 C   0  0  0  0  0  0  0  0  0  0  0  0
  -23.8050  -31.0689   22.1528 C   0  0  0  0  0  0  0  0  0  0  0  0
  -21.6567  -29.4315   20.3566 C   0  0  0  0  0  0  0  0  0  0  0  0
  -28.6194  -17.6726   19.5271 C   0  0  0  0  0  0  0  0  0  0  0  0
  -21.0015  -26.7438   18.3581 C   0  0  0  0  0  0  0  0  0  0  0  0
  -24.2298  -35.7599   24.1203 C   0  0  0  0  0  0  0  0  0  0  0  0
  -25.0641  -30.7972   19.9856 C   0  0  0  0  0  0  0  0  0  0  0  0
  -23.8312  -28.2571   20.8645 C   0  0  0  0  0  0  0  0  0  0  0  0
  -23.0764  -34.8530   23.6991 C   0  0  0  0  0  0  0  0  0  0  0  0
  -23.1821  -16.3605   17.9918 C   0  0  0  0  0  0  0  0  0  0  0  0
  -23.2511  -33.4577   24.2902 C   0  0  0  0  0  0  0  0  0  0  0  0
  -27.1163  -18.4490   23.0142 C   0  0  0  0  0  0  0  0  0  0  0  0
  -27.5003  -17.0561   22.5994 C   0  0  0  0  0  0  0  0  0  0  0  0
  -23.3992  -15.1063   18.8375 C   0  0  0  0  0  0  0  0  0  0  0  0
  -23.7914  -16.2088   16.6016 C   0  0  0  0  0  0  0  0  0  0  0  0
  -25.4638  -14.5961   17.4580 C   0  0  0  0  0  0  0  0  0  0  0  0
  -24.5398  -32.8004   23.7815 C   0  0  1  0  0  0  0  0  0  0  0  0
  -27.5892  -16.1173   16.1330 C   0  0  1  0  0  0  0  0  0  0  0  0
  -23.7088  -30.7621   20.6850 C   0  0  1  0  0  0  0  0  0  0  0  0
  -28.1509  -18.2421   21.9429 C   0  0  0  0  0  0  0  0  0  0  0  0
  -28.6951  -17.1255   15.9497 C   0  0  1  0  0  0  0  0  0  0  0  0
  -24.8882  -14.7194   18.8798 C   0  0  2  0  0  0  0  0  0  0  0  0
  -28.4287  -16.5464   17.3147 C   0  0  1  0  0  0  0  0  0  0  0  0
  -25.6245  -20.3284   19.6399 C   0  0  0  0  0  0  0  0  0  0  0  0
  -29.9319  -16.7525   15.2073 C   0  0  0  0  0  0  0  0  0  0  0  0
  -19.1446  -25.6532   17.0697 C   0  0  0  0  0  0  0  0  0  0  0  0
  -20.4758  -28.3698   22.9620 C   0  0  0  0  0  0  0  0  0  0  0  0
  -19.3001  -26.6063   21.6292 C   0  0  0  0  0  0  0  0  0  0  0  0
  -18.7843  -29.0152   21.2367 C   0  0  0  0  0  0  0  0  0  0  0  0
  -22.4430  -27.0548   15.7921 C   0  0  0  0  0  0  0  0  0  0  0  0
  -29.5044  -26.1445   20.2839 C   0  0  0  0  0  0  0  0  0  1  0  0
  -29.8285  -24.6747   20.0990 C   0  0  0  0  0  0  0  0  0  0  0  0
  -27.8305  -18.5891   20.4775 C   0  0  1  0  0  0  0  0  0  0  0  0
  -20.9965  -28.0771   20.4502 C   0  0  1  0  0  0  0  0  0  0  0  0
  -20.3053  -26.6343   17.0136 C   0  0  2  0  0  0  0  0  0  0  0  0
  -19.9175  -28.0198   21.5682 C   0  0  0  0  0  0  0  0  0  0  0  0
  -24.1702  -12.5096   19.7070 N   0  0  0  0  0  0  0  0  0  0  0  0
  -25.1202  -13.4600   19.6943 N   0  0  0  0  0  0  0  0  0  0  0  0
  -25.1983  -15.8150   16.6827 N   0  0  0  0  0  0  0  0  0  0  0  0
  -23.0432  -29.4636   20.5629 N   0  0  0  0  0  0  0  0  0  0  0  0
  -27.2642  -13.9992   20.5450 N   0  0  0  0  0  0  0  0  0  0  0  0
  -26.4283   -9.9343   22.3266 N   0  0  0  0  0  0  0  0  0  0  0  0
  -24.3563  -32.3043   22.4344 N   0  0  0  0  0  0  0  0  0  0  0  0
  -27.9006  -17.3679   18.3793 N   0  0  0  0  0  0  0  0  0  0  0  0
  -20.4903  -27.7766   19.1153 N   0  0  0  0  0  0  0  0  0  0  0  0
  -21.2631  -26.1699   15.9706 N   0  3  0  0  0  0  0  0  0  0  0  0
  -27.9520  -11.6450   22.2247 O   0  0  0  0  0  0  0  0  0  0  0  0
  -25.9375  -17.5650   15.3354 O   0  0  0  0  0  0  0  0  0  0  0  0
  -23.4071  -30.2463   22.9693 O   0  0  0  0  0  0  0  0  0  0  0  0
  -20.9688  -30.4233   20.1025 O   0  0  0  0  0  0  0  0  0  0  0  0
  -29.7622  -17.2875   19.7650 O   0  0  0  0  0  0  0  0  0  0  0  0
  -21.9056  -25.9864   18.7037 O   0  0  0  0  0  0  0  0  0  0  0  0
  -21.8378   -6.8764   21.5443 O   0  0  0  0  0  0  0  0  0  0  0  0
  -28.2965  -26.2646   21.0341 O   0  0  0  0  0  0  0  0  0  1  0  0
  -28.7723  -24.0533   19.3767 O   0  0  0  0  0  0  0  0  0  0  0  0
  -21.6500   -5.0948   26.7592 F   0  0  0  0  0  0  0  0  0  0  0  0
  -19.4235   -6.5988   22.8622 F   0  0  0  0  0  0  0  0  0  0  0  0
  1  2  1  0  0  0  0
  1  5  2  0  0  0  0
  2  6  2  0  0  0  0
  3  9  2  0  0  0  0
  3 18  1  0  0  0  0
  4 10  1  0  0  0  0
  4 18  2  0  0  0  0
  5 20  1  0  0  0  0
  6 22  1  0  0  0  0
  7 11  2  0  0  0  0
  7 21  1  0  0  0  0
  8 12  2  0  0  0  0
  8 24  1  0  0  0  0
  9 26  1  0  0  0  0
 10 26  2  0  0  0  0
 11 27  1  0  0  0  0
 12 28  1  0  0  0  0
 13 14  2  0  0  0  0
 13 29  1  0  0  0  0
 14 30  1  0  0  0  0
 15 23  1  0  0  0  0
 15 27  2  0  0  0  0
 16 25  1  0  0  0  0
 16 28  2  0  0  0  0
 17 30  2  0  0  0  0
 17 31  1  0  0  0  0
 18 32  1  0  0  0  0
 19 32  1  0  0  0  0
 19 33  2  0  0  0  0
 19 34  1  0  0  0  0
 20 22  2  0  0  0  0
 20 40  1  0  0  0  0
 21 23  2  0  0  0  0
 21 41  1  0  0  0  0
 22 51  1  0  0  0  0
 23 42  1  0  0  0  0
 24 25  2  0  0  0  0
 24 67  1  0  0  0  0
 25 58  1  0  0  0  0
 26 87  1  0  0  0  0
 27 88  1  0  0  0  0
 28 89  1  0  0  0  0
 29 31  2  0  0  0  0
 29 87  1  0  0  0  0
 30 90  1  0  0  0  0
 31 91  1  0  0  0  0
 32 71  2  0  0  0  0
 33 72  1  0  0  0  0
 33 75  1  0  0  0  0
 34 76  1  0  0  0  0
 34 81  2  0  0  0  0
 35 52  1  0  0  0  0
 35 73  1  0  0  0  0
 35 82  2  0  0  0  0
 36 53  1  0  0  0  0
 36 77  1  0  0  0  0
 36 83  2  0  0  0  0
 37 68  1  0  0  0  0
 37 74  1  0  0  0  0
 37 84  2  0  0  0  0
 38 67  1  0  0  0  0
 38 78  1  0  0  0  0
 38 85  2  0  0  0  0
 39 69  1  0  0  0  0
 39 79  1  0  0  0  0
 39 86  2  0  0  0  0
 40 43  1  0  0  0  0
 41 53  1  0  0  0  0
 42 74  1  0  0  0  0
 43 45  1  0  0  0  0
 44 48  1  0  0  0  0
 44 49  1  0  0  0  0
 45 51  1  0  0  0  0
 46 47  1  0  0  0  0
 46 54  1  0  0  0  0
 47 54  1  0  0  0  0
 48 56  1  0  0  0  0
 49 73  1  0  0  0  0
 50 56  1  0  0  0  0
 50 73  1  0  0  0  0
 51 77  1  0  0  0  0
 52 55  1  0  0  0  0
 52 57  1  0  0  0  0
 53 74  1  0  0  0  0
 54 67  1  0  0  0  0
 55 57  1  0  0  0  0
 55 59  1  0  0  0  0
 56 72  1  0  0  0  0
 57 78  1  0  0  0  0
 60 69  1  0  0  0  0
 61 70  1  0  0  0  0
 62 70  1  0  0  0  0
 63 70  1  0  0  0  0
 64 80  1  0  0  0  0
 65 66  1  0  0  0  0
 65 88  1  0  0  0  0
 66 89  1  0  0  0  0
 68 70  1  0  0  0  0
 68 79  1  0  0  0  0
 69 80  1  0  0  0  0
 71 72  1  0  0  0  0
M  CHG  1  80   1
M  ISO  4  35 100  52 100  65 101  88 101
M  END
> <Batch ID>
0148

> <Smiles>
CNC(C)C(=O)NC(C(=O)N1Cc2cc([101O:1][101CH2:1]COc3ccc(C(C(=O)NC4C(C)[100CH:0]4[100C:0](=O)N4CCCC(n5nc(-c6ccc(Oc7ccc(F)cc7F)cc6)c(C(N)=O)c5N)C4)C4CC4)c(C)c3)ccc2CC1C(=O)NC1CCCc2ccccc21)C(C)(C)C

> <Shape>
0.316

> <Color>
0.109

> <Negative vol penalty>
0.000

$$$$

  -OEChem-04052321363D

 90100  0     1  0  0  0  0  0999 V2000
  -27.4175  -32.7285   14.4742 C   0  0  0  0  0  0  0  0  0  0  0  0
  -26.2153  -32.1142   14.8060 C   0  0  0  0  0  0  0  0  0  0  0  0
  -23.0076   -9.9838   19.9597 C   0  0  0  0  0  0  0  0  0  0  0  0
  -23.7539   -9.9556   22.2574 C   0  0  0  0  0  0  0  0  0  0  0  0
  -28.5849  -31.9717   14.3985 C   0  0  0  0  0  0  0  0  0  0  0  0
  -26.1820  -30.7453   15.0739 C   0  0  0  0  0  0  0  0  0  0  0  0
  -31.7322  -18.6038   20.1695 C   0  0  0  0  0  0  0  0  0  0  0  0
  -31.5275  -19.4371   19.0699 C   0  0  0  0  0  0  0  0  0  0  0  0
  -22.9978  -23.6704   17.0220 C   0  0  0  0  0  0  0  0  0  0  0  0
  -22.2034   -8.8713   20.2073 C   0  0  0  0  0  0  0  0  0  0  0  0
  -22.9497   -8.8432   22.5050 C   0  0  0  0  0  0  0  0  0  0  0  0
  -23.2129  -22.2933   16.9909 C   0  0  0  0  0  0  0  0  0  0  0  0
  -19.6811   -8.2153   23.0904 C   0  0  0  0  0  0  0  0  0  0  0  0
  -18.9166   -8.2169   24.2570 C   0  0  0  0  0  0  0  0  0  0  0  0
  -29.6029  -17.5388   19.7589 C   0  0  0  0  0  0  0  0  0  0  0  0
  -25.3401  -22.6070   18.0840 C   0  0  0  0  0  0  0  0  0  0  0  0
  -20.0515   -6.2190   25.0036 C   0  0  0  0  0  0  0  0  0  0  0  0
  -23.7829  -10.5259   20.9848 C   0  0  0  0  0  0  0  0  0  0  0  0
  -24.2561  -13.0297   20.8626 C   0  0  0  0  0  0  0  0  0  0  0  0
  -30.7700  -17.6545   20.5140 C   0  0  0  0  0  0  0  0  0  0  0  0
  -28.5628  -30.5906   14.6536 C   0  0  0  0  0  0  0  0  0  0  0  0
  -23.9583  -24.5291   17.5759 C   0  0  0  0  0  0  0  0  0  0  0  0
  -27.3538  -29.9686   15.0261 C   0  0  0  0  0  0  0  0  0  0  0  0
  -30.3603  -19.3214   18.3148 C   0  0  0  0  0  0  0  0  0  0  0  0
  -25.1325  -23.9941   18.1252 C   0  0  0  0  0  0  0  0  0  0  0  0
  -22.1744   -8.3010   21.4799 C   0  0  0  0  0  0  0  0  0  0  0  0
  -24.3852  -21.7616   17.5199 C   0  0  0  0  0  0  0  0  0  0  0  0
  -20.6308   -7.2154   22.8803 C   0  0  0  0  0  0  0  0  0  0  0  0
  -29.3980  -18.3722   18.6593 C   0  0  0  0  0  0  0  0  0  0  0  0
  -19.1018   -7.2188   25.2136 C   0  0  0  0  0  0  0  0  0  0  0  0
  -20.8160   -6.2173   23.8369 C   0  0  0  0  0  0  0  0  0  0  0  0
  -24.6142  -11.6748   20.7295 C   0  0  0  0  0  0  0  0  0  0  0  0
  -25.3878  -13.7207   20.5044 C   0  0  0  0  0  0  0  0  0  0  0  0
  -23.0118  -13.6116   21.2735 C   0  0  0  0  0  0  0  0  0  0  0  0
  -25.7583  -26.9672   16.5455 C   0  0  0  0  0  0  0  0  0  0  0  0
  -26.5465  -27.0693   19.7737 C   0  0  0  0  0  0  0  0  0  0  0  0
  -26.7578  -30.4722   19.8975 C   0  0  0  0  0  0  0  0  0  0  0  0
  -30.8545  -14.4863   20.6565 C   0  0  0  0  0  0  0  0  0  0  0  0
  -29.8571  -29.8210   14.5651 C   0  0  0  0  0  0  0  0  0  0  0  0
  -23.6932  -26.0095   17.6269 C   0  0  0  0  0  0  0  0  0  0  0  0
  -26.1919  -24.8726   18.7341 C   0  0  0  0  0  0  0  0  0  0  0  0
  -29.6461  -28.3165   14.4295 C   0  0  0  0  0  0  0  0  0  0  0  0
  -30.9864  -22.2582   17.2227 C   0  0  0  0  0  0  0  0  0  0  0  0
  -30.0326  -16.0913   23.8026 C   0  0  0  0  0  0  0  0  0  0  0  0
  -29.6649  -12.1681   18.3241 C   0  0  0  0  0  0  0  0  0  0  0  0
  -29.5575  -21.6988   17.3409 C   0  0  0  0  0  0  0  0  0  0  0  0
  -31.3444  -21.0090   16.3973 C   0  0  0  0  0  0  0  0  0  0  0  0
  -30.4038  -17.3312   22.9990 C   0  0  0  0  0  0  0  0  0  0  0  0
  -28.6664  -27.8316   15.4877 C   0  0  0  0  0  0  0  0  0  0  0  0
  -28.2198  -11.9201   18.7523 C   0  0  0  0  0  0  0  0  0  0  0  0
  -30.5760  -12.2978   19.5383 C   0  0  0  0  0  0  0  0  0  0  0  0
  -29.5302  -15.1340   22.7331 C   0  0  0  0  0  0  0  0  0  0  0  0
  -28.7110  -13.1540   20.9246 C   0  0  0  0  0  0  0  0  0  0  0  0
  -30.1405  -20.2839   17.0604 C   0  0  0  0  0  0  0  0  0  0  0  0
  -30.9920  -16.7513   21.7059 C   0  0  1  0  0  0  0  0  0  0  0  0
  -27.2880  -28.4755   15.2918 C   0  0  1  0  0  0  0  0  0  0  0  0
  -24.9555  -26.8495   17.8100 C   0  0  1  0  0  0  0  0  0  0  0  0
  -27.7459  -13.0079   19.7303 C   0  0  2  0  0  0  0  0  0  0  0  0
  -27.3665  -32.7363   20.7923 C   0  0  0  0  0  0  0  0  0  0  0  0
  -25.7388  -17.8928   16.4910 C   0  0  0  0  0  0  0  0  0  0  0  0
  -24.0033  -26.7015   21.4177 C   0  0  0  0  0  0  0  0  0  0  0  0
  -24.2685  -29.0568   22.2243 C   0  0  0  0  0  0  0  0  0  0  0  0
  -26.0186  -27.3573   22.7456 C   0  0  0  0  0  0  0  0  0  0  0  0
  -29.4015  -30.4148   18.5683 C   0  0  0  0  0  0  0  0  0  0  0  0
  -25.8117  -19.8876   18.0413 C   0  0  0  0  0  0  0  0  0  1  0  0
  -27.0888  -17.8045   18.6262 C   0  0  0  0  0  0  0  0  0  0  0  0
  -25.8062  -28.2333   20.3835 C   0  0  1  0  0  0  0  0  0  0  0  0
  -27.8924  -31.3972   20.2994 C   0  0  2  0  0  0  0  0  0  0  0  0
  -25.8324  -18.3593   17.9488 C   0  0  2  0  0  0  0  0  0  0  0  0
  -25.0226  -27.8316   21.6649 C   0  0  0  0  0  0  0  0  0  0  0  0
  -25.8747  -11.5126   20.3186 N   0  0  0  0  0  0  0  0  0  0  0  0
  -26.3185  -12.7746   20.1903 N   0  0  0  0  0  0  0  0  0  0  0  0
  -25.8491  -26.2971   18.8359 N   0  0  0  0  0  0  0  0  0  0  0  0
  -30.0947  -13.3259   20.4618 N   0  0  0  0  0  0  0  0  0  0  0  0
  -30.3651  -15.4277   21.5667 N   0  0  0  0  0  0  0  0  0  0  0  0
  -25.6675  -15.0393   20.4304 N   0  0  0  0  0  0  0  0  0  0  0  0
  -21.9522  -12.7569   21.6064 N   0  0  0  0  0  0  0  0  0  0  0  0
  -26.4521  -28.1564   16.4281 N   0  0  0  0  0  0  0  0  0  0  0  0
  -26.7976  -29.2827   20.5937 N   0  0  0  0  0  0  0  0  0  0  0  0
  -28.7945  -31.6447   19.1392 N   0  3  0  0  0  0  0  0  0  0  0  0
  -22.8395  -14.8529   21.3275 O   0  0  0  0  0  0  0  0  0  0  0  0
  -25.7500  -26.0465   15.7368 O   0  0  0  0  0  0  0  0  0  0  0  0
  -27.7086  -26.8441   20.1232 O   0  0  0  0  0  0  0  0  0  0  0  0
  -25.9179  -30.7761   19.0533 O   0  0  0  0  0  0  0  0  0  0  0  0
  -31.9268  -14.6639   20.0645 O   0  0  0  0  0  0  0  0  0  0  0  0
  -21.3896   -7.2156   21.7219 O   0  0  0  0  0  0  0  0  0  0  0  0
  -24.6017  -20.3911   17.4908 O   0  0  0  0  0  0  0  0  0  1  0  0
  -28.2531  -18.2482   17.9320 O   0  0  0  0  0  0  0  0  0  0  0  0
  -18.3686   -7.2214   26.3346 F   0  0  0  0  0  0  0  0  0  0  0  0
  -21.7277   -5.2549   23.6412 F   0  0  0  0  0  0  0  0  0  0  0  0
  1  2  1  0  0  0  0
  1  5  2  0  0  0  0
  2  6  2  0  0  0  0
  3 10  2  0  0  0  0
  3 18  1  0  0  0  0
  4 11  1  0  0  0  0
  4 18  2  0  0  0  0
  5 21  1  0  0  0  0
  6 23  1  0  0  0  0
  7  8  2  0  0  0  0
  7 20  1  0  0  0  0
  8 24  1  0  0  0  0
  9 12  2  0  0  0  0
  9 22  1  0  0  0  0
 10 26  1  0  0  0  0
 11 26  2  0  0  0  0
 12 27  1  0  0  0  0
 13 14  2  0  0  0  0
 13 28  1  0  0  0  0
 14 30  1  0  0  0  0
 15 20  2  0  0  0  0
 15 29  1  0  0  0  0
 16 25  1  0  0  0  0
 16 27  2  0  0  0  0
 17 30  2  0  0  0  0
 17 31  1  0  0  0  0
 18 32  1  0  0  0  0
 19 32  1  0  0  0  0
 19 33  2  0  0  0  0
 19 34  1  0  0  0  0
 20 55  1  0  0  0  0
 21 23  2  0  0  0  0
 21 39  1  0  0  0  0
 22 25  2  0  0  0  0
 22 40  1  0  0  0  0
 23 56  1  0  0  0  0
 24 29  2  0  0  0  0
 24 54  1  0  0  0  0
 25 41  1  0  0  0  0
 26 86  1  0  0  0  0
 27 87  1  0  0  0  0
 28 31  2  0  0  0  0
 28 86  1  0  0  0  0
 29 88  1  0  0  0  0
 30 89  1  0  0  0  0
 31 90  1  0  0  0  0
 32 71  2  0  0  0  0
 33 72  1  0  0  0  0
 33 76  1  0  0  0  0
 34 77  1  0  0  0  0
 34 81  2  0  0  0  0
 35 57  1  0  0  0  0
 35 78  1  0  0  0  0
 35 82  2  0  0  0  0
 36 67  1  0  0  0  0
 36 73  1  0  0  0  0
 36 83  2  0  0  0  0
 37 68  1  0  0  0  0
 37 79  1  0  0  0  0
 37 84  2  0  0  0  0
 38 74  1  0  0  0  0
 38 75  1  0  0  0  0
 38 85  2  0  0  0  0
 39 42  1  0  0  0  0
 40 57  1  0  0  0  0
 41 73  1  0  0  0  0
 42 49  1  0  0  0  0
 43 46  1  0  0  0  0
 43 47  1  0  0  0  0
 44 48  1  0  0  0  0
 44 52  1  0  0  0  0
 45 50  1  0  0  0  0
 45 51  1  0  0  0  0
 46 54  1  0  0  0  0
 47 54  1  0  0  0  0
 48 55  1  0  0  0  0
 49 56  1  0  0  0  0
 50 58  1  0  0  0  0
 51 74  1  0  0  0  0
 52 75  1  0  0  0  0
 53 58  1  0  0  0  0
 53 74  1  0  0  0  0
 55 75  1  0  0  0  0
 56 78  1  0  0  0  0
 57 73  1  0  0  0  0
 58 72  1  0  0  0  0
 59 68  1  0  0  0  0
 60 69  1  0  0  0  0
 61 70  1  0  0  0  0
 62 70  1  0  0  0  0
 63 70  1  0  0  0  0
 64 80  1  0  0  0  0
 65 69  1  0  0  0  0
 65 87  1  0  0  0  0
 66 69  1  0  0  0  0
 66 88  1  0  0  0  0
 67 70  1  0  0  0  0
 67 79  1  0  0  0  0
 68 80  1  0  0  0  0
 71 72  1  0  0  0  0
M  CHG  1  80   1
M  ISO  4  38 100  65 101  75 100  87 101
M  END
> <Batch ID>
0148

> <Smiles>
CNC(C)C(=O)NC(C(=O)N1Cc2cc([101O:1][101CH2:1]C(C)COc3cc(C4CCC[100N:0]4[100C:0](=O)N4CCCC(n5nc(-c6ccc(Oc7ccc(F)cc7F)cc6)c(C(N)=O)c5N)C4)ccc3C3CCC3)ccc2CC1C(=O)NC1CCCc2ccccc21)C(C)(C)C

> <Shape>
0.248

> <Color>
0.195

> <Negative vol penalty>
0.000

$$$$

  -OEChem-04052321363D

 91100  0     1  0  0  0  0  0999 V2000
  -29.0435  -34.8897   13.8773 C   0  0  0  0  0  0  0  0  0  0  0  0
  -28.8070  -33.5801   14.2829 C   0  0  0  0  0  0  0  0  0  0  0  0
  -23.3122  -10.6530   21.9642 C   0  0  0  0  0  0  0  0  0  0  0  0
  -24.7121   -8.9324   21.0065 C   0  0  0  0  0  0  0  0  0  0  0  0
  -29.4447  -35.8453   14.8098 C   0  0  0  0  0  0  0  0  0  0  0  0
  -28.9727  -33.2252   15.6211 C   0  0  0  0  0  0  0  0  0  0  0  0
  -25.6898  -29.1307   18.7777 C   0  0  0  0  0  0  0  0  0  0  0  0
  -22.1942   -9.8355   21.7986 C   0  0  0  0  0  0  0  0  0  0  0  0
  -23.5940   -8.1149   20.8409 C   0  0  0  0  0  0  0  0  0  0  0  0
  -25.9235  -27.7973   19.1109 C   0  0  0  0  0  0  0  0  0  0  0  0
  -21.1625   -5.4339   20.4975 C   0  0  0  0  0  0  0  0  0  0  0  0
  -21.2773   -4.0941   20.8679 C   0  0  0  0  0  0  0  0  0  0  0  0
  -28.5117  -22.3874   21.3971 C   0  0  0  0  0  0  0  0  0  0  0  0
  -26.7834  -28.4902   21.2556 C   0  0  0  0  0  0  0  0  0  0  0  0
  -21.7857   -4.7639   23.1329 C   0  0  0  0  0  0  0  0  0  0  0  0
  -24.5711  -10.2014   21.5681 C   0  0  0  0  0  0  0  0  0  0  0  0
  -26.5739  -11.1104   22.8605 C   0  0  0  0  0  0  0  0  0  0  0  0
  -29.6061  -35.5042   16.1619 C   0  0  0  0  0  0  0  0  0  0  0  0
  -26.0118  -30.1564   19.6781 C   0  0  0  0  0  0  0  0  0  0  0  0
  -29.3778  -34.1769   16.5724 C   0  0  0  0  0  0  0  0  0  0  0  0
  -27.8763  -21.7020   22.4324 C   0  0  0  0  0  0  0  0  0  0  0  0
  -26.5505  -29.8357   20.9324 C   0  0  0  0  0  0  0  0  0  0  0  0
  -28.3131  -23.7596   21.2441 C   0  0  0  0  0  0  0  0  0  0  0  0
  -27.0422  -22.3886   23.3147 C   0  0  0  0  0  0  0  0  0  0  0  0
  -26.8435  -23.7608   23.1617 C   0  0  0  0  0  0  0  0  0  0  0  0
  -27.4790  -24.4463   22.1264 C   0  0  0  0  0  0  0  0  0  0  0  0
  -22.3351   -8.5665   21.2370 C   0  0  0  0  0  0  0  0  0  0  0  0
  -26.4730  -27.4770   20.3489 C   0  0  0  0  0  0  0  0  0  0  0  0
  -21.3594   -6.4388   21.4447 C   0  0  0  0  0  0  0  0  0  0  0  0
  -21.5888   -3.7591   22.1856 C   0  0  0  0  0  0  0  0  0  0  0  0
  -21.6709   -6.1038   22.7624 C   0  0  0  0  0  0  0  0  0  0  0  0
  -25.7263  -11.0456   21.7384 C   0  0  0  0  0  0  0  0  0  0  0  0
  -27.5118  -12.0572   22.5282 C   0  0  0  0  0  0  0  0  0  0  0  0
  -26.5185  -10.3799   24.0930 C   0  0  0  0  0  0  0  0  0  0  0  0
  -27.9987  -32.6372   19.6351 C   0  0  0  0  0  0  0  0  0  0  0  0
  -26.5537  -33.3458   22.4515 C   0  0  0  0  0  0  0  0  0  0  0  0
  -24.8117  -32.2445   25.1717 C   0  0  0  0  0  0  0  0  0  0  0  0
  -29.0132  -16.8674   20.3766 C   0  0  0  0  0  0  0  0  0  0  0  0
  -30.0872  -36.5607   17.1248 C   0  0  0  0  0  0  0  0  0  0  0  0
  -25.7288  -31.5881   19.3141 C   0  0  0  0  0  0  0  0  0  0  0  0
  -26.8949  -30.8983   21.9426 C   0  0  0  0  0  0  0  0  0  0  0  0
  -29.8773  -36.1898   18.5906 C   0  0  0  0  0  0  0  0  0  0  0  0
  -28.5212  -14.2990   18.1161 C   0  0  0  0  0  0  0  0  0  0  0  0
  -30.3366  -34.7585   18.8502 C   0  0  0  0  0  0  0  0  0  0  0  0
  -27.8198  -13.2193   18.9399 C   0  0  0  0  0  0  0  0  0  0  0  0
  -27.0457  -19.3854   21.8280 C   0  0  0  0  0  0  0  0  0  0  0  0
  -29.5247  -19.8008   22.1308 C   0  0  0  0  0  0  0  0  0  0  0  0
  -27.9842  -15.6833   18.4609 C   0  0  0  0  0  0  0  0  0  0  0  0
  -27.3053  -17.8811   21.9502 C   0  0  0  0  0  0  0  0  0  0  0  0
  -29.7216  -18.2942   22.2716 C   0  0  0  0  0  0  0  0  0  0  0  0
  -27.3896  -14.9553   20.7487 C   0  0  0  0  0  0  0  0  0  0  0  0
  -28.1089  -20.2097   22.5760 C   0  0  0  0  0  0  0  0  0  0  0  0
  -29.5227  -33.7589   18.0196 C   0  0  1  0  0  0  0  0  0  0  0  0
  -26.5723  -32.5836   20.1046 C   0  0  1  0  0  0  0  0  0  0  0  0
  -27.9002  -13.5322   20.4445 C   0  0  1  0  0  0  0  0  0  0  0  0
  -29.0061  -24.4701   20.1277 C   0  0  0  0  0  0  0  0  0  0  0  0
  -26.7370  -25.2990   25.1389 C   0  0  0  0  0  0  0  0  0  0  0  0
  -23.8043  -33.0503   27.3242 C   0  0  0  0  0  0  0  0  0  0  0  0
  -25.9676  -21.4199   26.9650 C   0  0  0  0  0  0  0  0  0  0  0  0
  -28.2007  -22.1376   26.1244 C   0  0  0  0  0  0  0  0  0  0  0  0
  -29.3338  -33.4723   23.7025 C   0  0  0  0  0  0  0  0  0  0  0  0
  -28.2507  -33.3279   25.9551 C   0  0  0  0  0  0  0  0  0  0  0  0
  -27.7656  -35.2663   24.4618 C   0  0  0  0  0  0  0  0  0  0  0  0
  -22.0896  -31.4403   24.3336 C   0  0  0  0  0  0  0  0  0  0  0  0
  -25.9493  -24.4975   24.1085 C   0  0  0  0  0  0  0  0  0  0  0  0
  -27.2673  -25.9178   21.9594 C   0  0  0  0  0  0  0  0  0  1  0  0
  -26.3620  -21.6510   24.4244 C   0  0  1  0  0  0  0  0  0  0  0  0
  -26.8037  -32.9970   23.8989 C   0  0  1  0  0  0  0  0  0  0  0  0
  -23.5605  -32.7744   25.8487 C   0  0  2  0  0  0  0  0  0  0  0  0
  -26.6903  -22.1900   25.8510 C   0  0  0  0  0  0  0  0  0  0  0  0
  -28.0339  -33.7457   24.4850 C   0  0  0  0  0  0  0  0  0  0  0  0
  -26.0932  -11.8846   20.7660 N   0  0  0  0  0  0  0  0  0  0  0  0
  -27.1816  -12.4856   21.2762 N   0  0  0  0  0  0  0  0  0  0  0  0
  -26.6055  -32.2838   21.5375 N   0  0  0  0  0  0  0  0  0  0  0  0
  -28.0746  -15.9408   19.8980 N   0  0  0  0  0  0  0  0  0  0  0  0
  -28.6825  -17.5579   21.5523 N   0  0  0  0  0  0  0  0  0  0  0  0
  -28.5784  -12.5569   23.1878 N   0  0  0  0  0  0  0  0  0  0  0  0
  -25.4894   -9.4451   24.2699 N   0  0  0  0  0  0  0  0  0  0  0  0
  -28.2224  -33.5452   18.6178 N   0  0  0  0  0  0  0  0  0  0  0  0
  -25.5534  -33.2586   24.6037 N   0  0  0  0  0  0  0  0  0  0  0  0
  -24.8671  -21.6383   24.2376 N   0  3  0  0  0  0  0  0  0  0  0  0
  -22.4508  -31.7864   25.7325 N   0  3  0  0  0  0  0  0  0  0  0  0
  -27.3472  -10.5628   25.0167 O   0  0  0  0  0  0  0  0  0  0  0  0
  -28.8347  -31.9097   20.1582 O   0  0  0  0  0  0  0  0  0  0  0  0
  -26.3140  -34.5162   22.1442 O   0  0  0  0  0  0  0  0  0  0  0  0
  -25.1039  -31.0509   25.1523 O   0  0  0  0  0  0  0  0  0  0  0  0
  -30.0840  -17.0659   19.7892 O   0  0  0  0  0  0  0  0  0  0  0  0
  -21.2444   -7.7685   21.0754 O   0  0  0  0  0  0  0  0  0  0  0  0
  -26.7045  -26.1667   20.6788 O   0  0  0  0  0  0  0  0  0  1  0  0
  -21.6974   -2.4724   22.5416 F   0  0  0  0  0  0  0  0  0  0  0  0
  -21.8600   -7.0647   23.6770 F   0  0  0  0  0  0  0  0  0  0  0  0
  1  2  1  0  0  0  0
  1  5  2  0  0  0  0
  2  6  2  0  0  0  0
  3  8  2  0  0  0  0
  3 16  1  0  0  0  0
  4  9  1  0  0  0  0
  4 16  2  0  0  0  0
  5 18  1  0  0  0  0
  6 20  1  0  0  0  0
  7 10  2  0  0  0  0
  7 19  1  0  0  0  0
  8 27  1  0  0  0  0
  9 27  2  0  0  0  0
 10 28  1  0  0  0  0
 11 12  2  0  0  0  0
 11 29  1  0  0  0  0
 12 30  1  0  0  0  0
 13 21  1  0  0  0  0
 13 23  2  0  0  0  0
 14 22  1  0  0  0  0
 14 28  2  0  0  0  0
 15 30  2  0  0  0  0
 15 31  1  0  0  0  0
 16 32  1  0  0  0  0
 17 32  1  0  0  0  0
 17 33  2  0  0  0  0
 17 34  1  0  0  0  0
 18 20  2  0  0  0  0
 18 39  1  0  0  0  0
 19 22  2  0  0  0  0
 19 40  1  0  0  0  0
 20 53  1  0  0  0  0
 21 24  2  0  0  0  0
 21 52  1  0  0  0  0
 22 41  1  0  0  0  0
 23 26  1  0  0  0  0
 23 56  1  0  0  0  0
 24 25  1  0  0  0  0
 24 67  1  0  0  0  0
 25 26  2  0  0  0  0
 25 65  1  0  0  0  0
 26 66  1  0  0  0  0
 27 88  1  0  0  0  0
 28 89  1  0  0  0  0
 29 31  2  0  0  0  0
 29 88  1  0  0  0  0
 30 90  1  0  0  0  0
 31 91  1  0  0  0  0
 32 72  2  0  0  0  0
 33 73  1  0  0  0  0
 33 77  1  0  0  0  0
 34 78  1  0  0  0  0
 34 83  2  0  0  0  0
 35 54  1  0  0  0  0
 35 79  1  0  0  0  0
 35 84  2  0  0  0  0
 36 68  1  0  0  0  0
 36 74  1  0  0  0  0
 36 85  2  0  0  0  0
 37 69  1  0  0  0  0
 37 80  1  0  0  0  0
 37 86  2  0  0  0  0
 38 75  1  0  0  0  0
 38 76  1  0  0  0  0
 38 87  2  0  0  0  0
 39 42  1  0  0  0  0
 40 54  1  0  0  0  0
 41 74  1  0  0  0  0
 42 44  1  0  0  0  0
 43 45  1  0  0  0  0
 43 48  1  0  0  0  0
 44 53  1  0  0  0  0
 45 55  1  0  0  0  0
 46 49  1  0  0  0  0
 46 52  1  0  0  0  0
 47 50  1  0  0  0  0
 47 52  1  0  0  0  0
 48 75  1  0  0  0  0
 49 76  1  0  0  0  0
 50 76  1  0  0  0  0
 51 55  1  0  0  0  0
 51 75  1  0  0  0  0
 53 79  1  0  0  0  0
 54 74  1  0  0  0  0
 55 73  1  0  0  0  0
 57 65  1  0  0  0  0
 58 69  1  0  0  0  0
 59 70  1  0  0  0  0
 60 70  1  0  0  0  0
 61 71  1  0  0  0  0
 62 71  1  0  0  0  0
 63 71  1  0  0  0  0
 64 82  1  0  0  0  0
 66 89  1  0  0  0  0
 67 70  1  0  0  0  0
 67 81  1  0  0  0  0
 68 71  1  0  0  0  0
 68 80  1  0  0  0  0
 69 82  1  0  0  0  0
 72 73  1  0  0  0  0
M  CHG  2  81   1  82   1
M  ISO  4  38 100  66 101  76 100  89 101
M  END
> <Batch ID>
0148

> <Smiles>
CCc1c(C(N)C(C)C)c(C2CC[100N:0]([100C:0](=O)N3CCCC(n4nc(-c5ccc(Oc6ccc(F)cc6F)cc5)c(C(N)=O)c4N)C3)CC2)cc(C)c1[101CH2:1][101O:1]c1ccc2c(c1)CN(C(=O)C(NC(=O)C(C)NC)C(C)(C)C)C(C(=O)NC1CCCc3ccccc31)C2

> <Shape>
0.226

> <Color>
0.091

> <Negative vol penalty>
0.000

$$$$

  -OEChem-04052321363D

 85 94  0     1  0  0  0  0  0999 V2000
  -20.9072  -10.3820   18.4379 C   0  0  0  0  0  0  0  0  0  0  0  0
  -21.1188  -11.6613   17.9340 C   0  0  0  0  0  0  0  0  0  0  0  0
  -24.0992  -25.0175   24.2085 C   0  0  0  0  0  0  0  0  0  0  0  0
  -24.4981  -26.5402   26.0414 C   0  0  0  0  0  0  0  0  0  0  0  0
  -21.5686   -9.9715   19.5947 C   0  0  0  0  0  0  0  0  0  0  0  0
  -21.9912  -12.5313   18.5872 C   0  0  0  0  0  0  0  0  0  0  0  0
  -26.6392  -17.8175   17.2573 C   0  0  0  0  0  0  0  0  0  0  0  0
  -24.6962  -23.9870   24.9346 C   0  0  0  0  0  0  0  0  0  0  0  0
  -25.0951  -25.5097   26.7675 C   0  0  0  0  0  0  0  0  0  0  0  0
  -26.9263  -19.1237   17.6512 C   0  0  0  0  0  0  0  0  0  0  0  0
  -23.8439  -21.8938   27.4495 C   0  0  0  0  0  0  0  0  0  0  0  0
  -23.2001  -20.6566   27.4683 C   0  0  0  0  0  0  0  0  0  0  0  0
  -28.0743  -18.2783   19.5971 C   0  0  0  0  0  0  0  0  0  0  0  0
  -28.2533  -24.3443   21.8457 C   0  0  0  0  0  0  0  0  0  0  0  0
  -29.7466  -23.0174   19.8983 C   0  0  0  0  0  0  0  0  0  0  0  0
  -25.1449  -19.6293   26.4686 C   0  0  0  0  0  0  0  0  0  0  0  0
  -24.0002  -26.2942   24.7618 C   0  0  0  0  0  0  0  0  0  0  0  0
  -22.0234  -27.7199   24.0088 C   0  0  0  0  0  0  0  0  0  0  0  0
  -22.4568  -10.8335   20.2569 C   0  0  0  0  0  0  0  0  0  0  0  0
  -27.0588  -16.7304   18.0374 C   0  0  0  0  0  0  0  0  0  0  0  0
  -22.6640  -12.1324   19.7546 C   0  0  0  0  0  0  0  0  0  0  0  0
  -27.7934  -16.9591   19.2096 C   0  0  0  0  0  0  0  0  0  0  0  0
  -29.1783  -25.0492   21.0756 C   0  0  0  0  0  0  0  0  0  0  0  0
  -28.8216  -22.3125   20.6684 C   0  0  0  0  0  0  0  0  0  0  0  0
  -25.1941  -24.2331   26.2141 C   0  0  0  0  0  0  0  0  0  0  0  0
  -27.6414  -19.3544   18.8227 C   0  0  0  0  0  0  0  0  0  0  0  0
  -25.1383  -21.9988   26.9402 C   0  0  0  0  0  0  0  0  0  0  0  0
  -29.9249  -24.3858   20.1019 C   0  0  0  0  0  0  0  0  0  0  0  0
  -23.8505  -19.5244   26.9778 C   0  0  0  0  0  0  0  0  0  0  0  0
  -25.7888  -20.8666   26.4498 C   0  0  0  0  0  0  0  0  0  0  0  0
  -28.0750  -22.9759   21.6422 C   0  0  0  0  0  0  0  0  0  0  0  0
  -23.3842  -27.3592   24.0120 C   0  0  0  0  0  0  0  0  0  0  0  0
  -21.9521  -28.7831   23.1422 C   0  0  0  0  0  0  0  0  0  0  0  0
  -20.9223  -27.1453   24.7251 C   0  0  0  0  0  0  0  0  0  0  0  0
  -25.5826  -14.3935   19.6070 C   0  0  0  0  0  0  0  0  0  0  0  0
  -28.6091  -13.3239   20.0746 C   0  0  0  0  0  0  0  0  0  0  0  0
  -31.9402  -14.0431   20.2579 C   0  0  0  0  0  0  0  0  0  0  0  0
  -27.3646  -29.5862   22.2383 C   0  0  0  0  0  0  0  0  0  0  0  0
  -23.1126  -10.3615   21.5305 C   0  0  0  0  0  0  0  0  0  0  0  0
  -26.7642  -15.3265   17.5848 C   0  0  0  0  0  0  0  0  0  0  0  0
  -28.2842  -15.8259   20.0718 C   0  0  0  0  0  0  0  0  0  0  0  0
  -24.3070  -11.2133   21.9525 C   0  0  0  0  0  0  0  0  0  0  0  0
  -24.7741  -29.9224   19.4169 C   0  0  0  0  0  0  0  0  0  0  0  0
  -23.9636  -12.6968   21.8613 C   0  0  0  0  0  0  0  0  0  0  0  0
  -23.5420  -29.5938   20.2495 C   0  0  0  0  0  0  0  0  0  0  0  0
  -29.7936  -26.9023   22.7263 C   0  0  0  0  0  0  0  0  0  0  0  0
  -26.0267  -29.3467   20.0714 C   0  0  0  0  0  0  0  0  0  0  0  0
  -29.4376  -28.3775   22.8029 C   0  0  0  0  0  0  0  0  0  0  0  0
  -28.0896  -27.3671   21.1013 C   0  0  0  0  0  0  0  0  0  0  0  0
  -25.1139  -30.5537   22.0465 C   0  0  0  0  0  0  0  0  0  0  0  0
  -29.3584  -26.5282   21.3094 C   0  0  2  0  0  0  0  0  0  0  0  0
  -23.6215  -13.0964   20.4209 C   0  0  1  0  0  0  0  0  0  0  0  0
  -26.7957  -14.3124   18.7241 C   0  0  1  0  0  0  0  0  0  0  0  0
  -23.6970  -30.0470   21.7134 C   0  0  2  0  0  0  0  0  0  0  0  0
  -34.1663  -12.9692   20.6921 C   0  0  0  0  0  0  0  0  0  0  0  0
  -27.9871  -13.2476   23.0608 C   0  0  0  0  0  0  0  0  0  0  0  0
  -30.4479  -13.1030   23.4988 C   0  0  0  0  0  0  0  0  0  0  0  0
  -29.3023  -11.2941   22.2189 C   0  0  0  0  0  0  0  0  0  0  0  0
  -32.9395  -14.7557   17.5649 C   0  0  0  0  0  0  0  0  0  0  0  0
  -31.5528  -24.3026   18.3701 C   0  0  0  0  0  0  0  0  0  0  0  0
  -28.6604  -20.8473   20.4200 C   0  0  0  0  0  0  0  0  0  1  0  0
  -29.6703  -13.5439   21.1256 C   0  0  1  0  0  0  0  0  0  0  0  0
  -33.1511  -13.3730   19.6342 C   0  0  2  0  0  0  0  0  0  0  0  0
  -29.3411  -12.8188   22.4610 C   0  0  0  0  0  0  0  0  0  0  0  0
  -24.1240  -28.1306   23.2109 N   0  0  0  0  0  0  0  0  0  0  0  0
  -23.2248  -28.9865   22.6961 N   0  0  0  0  0  0  0  0  0  0  0  0
  -27.9656  -14.4716   19.5903 N   0  0  0  0  0  0  0  0  0  0  0  0
  -26.1935  -29.7345   21.4770 N   0  0  0  0  0  0  0  0  0  0  0  0
  -28.2366  -28.5293   21.9816 N   0  0  0  0  0  0  0  0  0  0  0  0
  -20.9254  -29.5545   22.7258 N   0  0  0  0  0  0  0  0  0  0  0  0
  -21.1717  -26.0578   25.5733 N   0  0  0  0  0  0  0  0  0  0  0  0
  -24.8287  -13.2358   19.6349 N   0  0  0  0  0  0  0  0  0  0  0  0
  -30.9342  -13.1374   20.5208 N   0  0  0  0  0  0  0  0  0  0  0  0
  -33.8166  -14.2970   18.6727 N   0  3  0  0  0  0  0  0  0  0  0  0
  -19.7493  -27.5729   24.6037 O   0  0  0  0  0  0  0  0  0  0  0  0
  -25.3488  -15.4292   20.2189 O   0  0  0  0  0  0  0  0  0  0  0  0
  -28.3653  -12.1768   19.6922 O   0  0  0  0  0  0  0  0  0  0  0  0
  -31.8929  -15.2486   20.4922 O   0  0  0  0  0  0  0  0  0  0  0  0
  -27.6180  -30.3816   23.1572 O   0  0  0  0  0  0  0  0  0  0  0  0
  -25.7765  -23.2277   26.9230 O   0  0  0  0  0  0  0  0  0  0  0  0
  -30.8335  -25.0591   19.3419 O   0  0  0  0  0  0  0  0  0  0  0  0
  -27.9280  -20.6537   19.2175 O   0  0  0  0  0  0  0  0  0  1  0  0
  -23.2327  -18.3361   26.9973 F   0  0  0  0  0  0  0  0  0  0  0  0
  -27.0327  -20.9610   25.9604 F   0  0  0  0  0  0  0  0  0  0  0  0
  -26.9211  -22.1367   22.6135 Cl  0  0  0  0  0  0  0  0  0  0  0  0
  1  2  1  0  0  0  0
  1  5  2  0  0  0  0
  2  6  2  0  0  0  0
  3  8  2  0  0  0  0
  3 17  1  0  0  0  0
  4  9  1  0  0  0  0
  4 17  2  0  0  0  0
  5 19  1  0  0  0  0
  6 21  1  0  0  0  0
  7 10  2  0  0  0  0
  7 20  1  0  0  0  0
  8 25  1  0  0  0  0
  9 25  2  0  0  0  0
 10 26  1  0  0  0  0
 11 12  2  0  0  0  0
 11 27  1  0  0  0  0
 12 29  1  0  0  0  0
 13 22  1  0  0  0  0
 13 26  2  0  0  0  0
 14 23  2  0  0  0  0
 14 31  1  0  0  0  0
 15 24  1  0  0  0  0
 15 28  2  0  0  0  0
 16 29  2  0  0  0  0
 16 30  1  0  0  0  0
 17 32  1  0  0  0  0
 18 32  1  0  0  0  0
 18 33  2  0  0  0  0
 18 34  1  0  0  0  0
 19 21  2  0  0  0  0
 19 39  1  0  0  0  0
 20 22  2  0  0  0  0
 20 40  1  0  0  0  0
 21 52  1  0  0  0  0
 22 41  1  0  0  0  0
 23 28  1  0  0  0  0
 23 51  1  0  0  0  0
 24 31  2  0  0  0  0
 24 61  1  0  0  0  0
 25 80  1  0  0  0  0
 26 82  1  0  0  0  0
 27 30  2  0  0  0  0
 27 80  1  0  0  0  0
 28 81  1  0  0  0  0
 29 83  1  0  0  0  0
 30 84  1  0  0  0  0
 31 85  1  0  0  0  0
 32 65  2  0  0  0  0
 33 66  1  0  0  0  0
 33 70  1  0  0  0  0
 34 71  1  0  0  0  0
 34 75  2  0  0  0  0
 35 53  1  0  0  0  0
 35 72  1  0  0  0  0
 35 76  2  0  0  0  0
 36 62  1  0  0  0  0
 36 67  1  0  0  0  0
 36 77  2  0  0  0  0
 37 63  1  0  0  0  0
 37 73  1  0  0  0  0
 37 78  2  0  0  0  0
 38 68  1  0  0  0  0
 38 69  1  0  0  0  0
 38 79  2  0  0  0  0
 39 42  1  0  0  0  0
 40 53  1  0  0  0  0
 41 67  1  0  0  0  0
 42 44  1  0  0  0  0
 43 45  1  0  0  0  0
 43 47  1  0  0  0  0
 44 52  1  0  0  0  0
 45 54  1  0  0  0  0
 46 48  1  0  0  0  0
 46 51  1  0  0  0  0
 47 68  1  0  0  0  0
 48 69  1  0  0  0  0
 49 51  1  0  0  0  0
 49 69  1  0  0  0  0
 50 54  1  0  0  0  0
 50 68  1  0  0  0  0
 52 72  1  0  0  0  0
 53 67  1  0  0  0  0
 54 66  1  0  0  0  0
 55 63  1  0  0  0  0
 56 64  1  0  0  0  0
 57 64  1  0  0  0  0
 58 64  1  0  0  0  0
 59 74  1  0  0  0  0
 60 81  1  0  0  0  0
 61 82  1  0  0  0  0
 62 64  1  0  0  0  0
 62 73  1  0  0  0  0
 63 74  1  0  0  0  0
 65 66  1  0  0  0  0
M  CHG  1  74   1
M  ISO  4  38 100  61 101  69 100  82 101
M  END
> <Batch ID>
0148

> <Smiles>
CNC(C)C(=O)NC(C(=O)N1Cc2cc([101O:1][101CH2:1]c3cc(OC)c(C4CC[100N:0]([100C:0](=O)N5CCCC(n6nc(-c7ccc(Oc8ccc(F)cc8F)cc7)c(C(N)=O)c6N)C5)C4)cc3Cl)ccc2CC1C(=O)NC1CCCc2ccccc21)C(C)(C)C

> <Shape>
0.244

> <Color>
0.088

> <Negative vol penalty>
0.000

$$$$

  -OEChem-04052321363D

 93103  0     1  0  0  0  0  0999 V2000
  -19.7537  -27.6755   26.6226 C   0  0  0  0  0  0  0  0  0  0  0  0
  -21.0369  -27.3506   26.1944 C   0  0  0  0  0  0  0  0  0  0  0  0
  -24.5986  -17.1603   21.6198 C   0  0  0  0  0  0  0  0  0  0  0  0
  -24.4570  -17.1265   19.2082 C   0  0  0  0  0  0  0  0  0  0  0  0
  -18.7594  -27.9604   25.6877 C   0  0  0  0  0  0  0  0  0  0  0  0
  -21.3262  -27.3094   24.8310 C   0  0  0  0  0  0  0  0  0  0  0  0
  -26.6027  -28.8634   22.1385 C   0  0  0  0  0  0  0  0  0  0  0  0
  -23.7987  -16.0194   21.6828 C   0  0  0  0  0  0  0  0  0  0  0  0
  -23.6571  -15.9855   19.2711 C   0  0  0  0  0  0  0  0  0  0  0  0
  -27.6842  -28.1076   21.6882 C   0  0  0  0  0  0  0  0  0  0  0  0
  -21.8753  -12.8544   18.7820 C   0  0  0  0  0  0  0  0  0  0  0  0
  -22.1644  -11.8095   17.9043 C   0  0  0  0  0  0  0  0  0  0  0  0
  -26.7557  -28.1164   19.4618 C   0  0  0  0  0  0  0  0  0  0  0  0
  -29.4701  -23.9154   16.8949 C   0  0  0  0  0  0  0  0  0  0  0  0
  -24.3754  -11.6189   18.8594 C   0  0  0  0  0  0  0  0  0  0  0  0
  -24.9277  -17.7139   20.3825 C   0  0  0  0  0  0  0  0  0  0  0  0
  -27.1579  -18.9434   20.2334 C   0  0  0  0  0  0  0  0  0  0  0  0
  -19.0391  -27.9321   24.3124 C   0  0  0  0  0  0  0  0  0  0  0  0
  -25.5823  -29.2428   21.2545 C   0  0  0  0  0  0  0  0  0  0  0  0
  -20.3343  -27.5929   23.8768 C   0  0  0  0  0  0  0  0  0  0  0  0
  -25.6636  -28.8792   19.9028 C   0  0  0  0  0  0  0  0  0  0  0  0
  -30.5983  -23.3766   17.5612 C   0  0  0  0  0  0  0  0  0  0  0  0
  -23.3279  -15.4320   20.5085 C   0  0  0  0  0  0  0  0  0  0  0  0
  -27.7594  -27.7315   20.3503 C   0  0  0  0  0  0  0  0  0  0  0  0
  -22.8363  -13.2816   19.6983 C   0  0  0  0  0  0  0  0  0  0  0  0
  -23.4144  -11.1918   17.9430 C   0  0  0  0  0  0  0  0  0  0  0  0
  -24.0864  -12.6638   19.7371 C   0  0  0  0  0  0  0  0  0  0  0  0
  -25.7536  -18.8928   20.3168 C   0  0  0  0  0  0  0  0  0  0  0  0
  -28.8342  -22.8744   16.2552 C   0  0  0  0  0  0  0  0  0  0  0  0
  -30.6176  -22.0227   17.3082 C   0  0  0  0  0  0  0  0  0  0  0  0
  -27.4516  -20.2846   20.1965 C   0  0  0  0  0  0  0  0  0  0  0  0
  -28.1117  -17.8737   20.1929 C   0  0  0  0  0  0  0  0  0  0  0  0
  -22.4609  -28.6760   21.0559 C   0  0  0  0  0  0  0  0  0  0  0  0
  -22.6231  -30.8135   18.6213 C   0  0  0  0  0  0  0  0  0  0  0  0
  -24.5185  -32.3454   16.2323 C   0  0  0  0  0  0  0  0  0  0  0  0
  -24.1951  -24.8949   18.4751 C   0  0  0  0  0  0  0  0  0  0  0  0
  -17.9196  -28.2012   23.3382 C   0  0  0  0  0  0  0  0  0  0  0  0
  -24.4358  -30.0808   21.7503 C   0  0  0  0  0  0  0  0  0  0  0  0
  -24.6045  -29.2784   18.9091 C   0  0  0  0  0  0  0  0  0  0  0  0
  -18.4037  -28.5018   21.9220 C   0  0  0  0  0  0  0  0  0  0  0  0
  -25.7150  -24.4100   21.7044 C   0  0  0  0  0  0  0  0  0  0  0  0
  -19.4632  -27.4912   21.4942 C   0  0  0  0  0  0  0  0  0  0  0  0
  -25.9198  -23.7664   12.5170 C   0  0  0  0  0  0  0  0  0  0  0  0
  -24.4733  -24.1708   12.5788 C   0  0  0  0  0  0  0  0  0  0  0  0
  -26.0562  -22.9192   21.6857 C   0  0  0  0  0  0  0  0  0  0  0  0
  -24.4087  -24.7069   20.9715 C   0  0  0  0  0  0  0  0  0  0  0  0
  -24.3734  -24.7658   15.9562 C   0  0  0  0  0  0  0  0  0  0  0  0
  -26.1396  -23.8097   17.2686 C   0  0  0  0  0  0  0  0  0  0  0  0
  -24.6833  -22.6894   19.5832 C   0  0  0  0  0  0  0  0  0  0  0  0
  -20.6934  -27.5619   22.4070 C   0  0  1  0  0  0  0  0  0  0  0  0
  -23.1939  -29.9745   20.8707 C   0  0  1  0  0  0  0  0  0  0  0  0
  -25.4167  -24.5839   13.6743 C   0  0  0  0  0  0  0  0  0  0  0  0
  -25.3031  -23.9729   15.0370 C   0  0  1  0  0  0  0  0  0  0  0  0
  -26.6227  -23.9751   15.8259 C   0  0  2  0  0  0  0  0  0  0  0  0
  -26.0260  -22.3611   20.2505 C   0  0  2  0  0  0  0  0  0  0  0  0
  -31.5695  -20.9835   17.7555 C   0  0  0  0  0  0  0  0  0  0  0  0
  -32.7502  -24.7040   17.5672 C   0  0  0  0  0  0  0  0  0  0  0  0
  -24.3638  -34.0184   14.3683 C   0  0  0  0  0  0  0  0  0  0  0  0
  -29.2613  -20.3362   14.4939 C   0  0  0  0  0  0  0  0  0  0  0  0
  -27.8502  -19.9302   16.5556 C   0  0  0  0  0  0  0  0  0  0  0  0
  -21.2613  -28.7247   16.8628 C   0  0  0  0  0  0  0  0  0  0  0  0
  -21.9851  -30.0407   14.8596 C   0  0  0  0  0  0  0  0  0  0  0  0
  -20.4407  -31.0636   16.5302 C   0  0  0  0  0  0  0  0  0  0  0  0
  -26.4681  -34.1509   17.5354 C   0  0  0  0  0  0  0  0  0  0  0  0
  -27.5903  -22.8793   15.4058 C   0  0  0  0  0  0  0  0  0  0  0  0
  -29.9460  -24.8786   20.1216 C   0  0  0  0  0  0  0  0  0  0  0  0
  -29.4236  -26.1054   20.8427 C   0  0  0  0  0  0  0  0  0  1  0  0
  -31.5695  -24.1338   18.3756 C   0  0  1  0  0  0  0  0  0  0  0  0
  -22.8719  -30.7242   17.1350 C   0  0  1  0  0  0  0  0  0  0  0  0
  -24.6627  -33.8059   15.8442 C   0  0  2  0  0  0  0  0  0  0  0  0
  -29.2008  -20.4102   16.0209 C   0  0  0  0  0  0  0  0  0  0  0  0
  -21.6589  -30.1290   16.3658 C   0  0  0  0  0  0  0  0  0  0  0  0
  -25.1939  -20.1055   20.3321 N   0  0  0  0  0  0  0  0  0  0  0  0
  -29.5407  -21.7287   16.5132 N   0  0  0  0  0  0  0  0  0  0  0  0
  -26.2520  -20.9307   20.2580 N   0  0  0  0  0  0  0  0  0  0  0  0
  -23.5002  -30.0922   19.4437 N   0  0  0  0  0  0  0  0  0  0  0  0
  -24.4190  -24.1317   19.6264 N   0  0  0  0  0  0  0  0  0  0  0  0
  -24.8585  -24.5154   17.3087 N   0  0  0  0  0  0  0  0  0  0  0  0
  -28.6164  -20.9626   20.1179 N   0  0  0  0  0  0  0  0  0  0  0  0
  -27.6392  -16.5551   20.2399 N   0  0  0  0  0  0  0  0  0  0  0  0
  -21.5139  -28.7030   22.0618 N   0  0  0  0  0  0  0  0  0  0  0  0
  -23.2536  -32.0646   16.7038 N   0  0  0  0  0  0  0  0  0  0  0  0
  -26.0493  -34.2796   16.1159 N   0  3  0  0  0  0  0  0  0  0  0  0
  -30.9635  -25.2907   19.1320 N   0  3  0  0  0  0  0  0  0  0  0  0
  -29.3474  -18.0813   20.1338 O   0  0  0  0  0  0  0  0  0  0  0  0
  -22.7333  -27.7208   20.3382 O   0  0  0  0  0  0  0  0  0  0  0  0
  -21.6894  -31.5038   19.0378 O   0  0  0  0  0  0  0  0  0  0  0  0
  -25.4352  -31.5338   16.1242 O   0  0  0  0  0  0  0  0  0  0  0  0
  -23.4715  -25.8994   18.4991 O   0  0  0  0  0  0  0  0  0  0  0  0
  -22.5476  -14.3185   20.5695 O   0  0  0  0  0  0  0  0  0  0  0  0
  -28.8212  -26.9878   19.9052 O   0  0  0  0  0  0  0  0  0  1  0  0
  -23.6913  -10.1874   17.1012 F   0  0  0  0  0  0  0  0  0  0  0  0
  -25.0132  -13.0691   20.6160 F   0  0  0  0  0  0  0  0  0  0  0  0
  1  2  1  0  0  0  0
  1  5  2  0  0  0  0
  2  6  2  0  0  0  0
  3  8  2  0  0  0  0
  3 16  1  0  0  0  0
  4  9  1  0  0  0  0
  4 16  2  0  0  0  0
  5 18  1  0  0  0  0
  6 20  1  0  0  0  0
  7 10  2  0  0  0  0
  7 19  1  0  0  0  0
  8 23  1  0  0  0  0
  9 23  2  0  0  0  0
 10 24  1  0  0  0  0
 11 12  2  0  0  0  0
 11 25  1  0  0  0  0
 12 26  1  0  0  0  0
 13 21  1  0  0  0  0
 13 24  2  0  0  0  0
 14 22  1  0  0  0  0
 14 29  2  0  0  0  0
 15 26  2  0  0  0  0
 15 27  1  0  0  0  0
 16 28  1  0  0  0  0
 17 28  1  0  0  0  0
 17 31  2  0  0  0  0
 17 32  1  0  0  0  0
 18 20  2  0  0  0  0
 18 37  1  0  0  0  0
 19 21  2  0  0  0  0
 19 38  1  0  0  0  0
 20 50  1  0  0  0  0
 21 39  1  0  0  0  0
 22 30  2  0  0  0  0
 22 68  1  0  0  0  0
 23 90  1  0  0  0  0
 24 91  1  0  0  0  0
 25 27  2  0  0  0  0
 25 90  1  0  0  0  0
 26 92  1  0  0  0  0
 27 93  1  0  0  0  0
 28 73  2  0  0  0  0
 29 65  1  0  0  0  0
 29 74  1  0  0  0  0
 30 56  1  0  0  0  0
 30 74  1  0  0  0  0
 31 75  1  0  0  0  0
 31 79  1  0  0  0  0
 32 80  1  0  0  0  0
 32 85  2  0  0  0  0
 33 51  1  0  0  0  0
 33 81  1  0  0  0  0
 33 86  2  0  0  0  0
 34 69  1  0  0  0  0
 34 76  1  0  0  0  0
 34 87  2  0  0  0  0
 35 70  1  0  0  0  0
 35 82  1  0  0  0  0
 35 88  2  0  0  0  0
 36 77  1  0  0  0  0
 36 78  1  0  0  0  0
 36 89  2  0  0  0  0
 37 40  1  0  0  0  0
 38 51  1  0  0  0  0
 39 76  1  0  0  0  0
 40 42  1  0  0  0  0
 41 45  1  0  0  0  0
 41 46  1  0  0  0  0
 42 50  1  0  0  0  0
 43 44  1  0  0  0  0
 43 52  1  0  0  0  0
 44 52  1  0  0  0  0
 45 55  1  0  0  0  0
 46 77  1  0  0  0  0
 47 53  1  0  0  0  0
 47 78  1  0  0  0  0
 48 54  1  0  0  0  0
 48 78  1  0  0  0  0
 49 55  1  0  0  0  0
 49 77  1  0  0  0  0
 50 81  1  0  0  0  0
 51 76  1  0  0  0  0
 52 53  1  0  0  0  0
 53 54  1  0  0  0  0
 54 65  1  0  0  0  0
 55 75  1  0  0  0  0
 57 68  1  0  0  0  0
 58 70  1  0  0  0  0
 59 71  1  0  0  0  0
 60 71  1  0  0  0  0
 61 72  1  0  0  0  0
 62 72  1  0  0  0  0
 63 72  1  0  0  0  0
 64 83  1  0  0  0  0
 66 67  1  0  0  0  0
 66 84  1  0  0  0  0
 67 91  1  0  0  0  0
 68 84  1  0  0  0  0
 69 72  1  0  0  0  0
 69 82  1  0  0  0  0
 70 83  1  0  0  0  0
 71 74  1  0  0  0  0
 73 75  1  0  0  0  0
M  CHG  2  83   1  84   1
M  ISO  4  36 100  67 101  78 100  91 101
M  END
> <Batch ID>
0148

> <Smiles>
CNC(C)C(=O)NC(C(=O)N1Cc2cc([101O:1][101CH2:1]CNC(C)c3cc(CC4C[100N:0]([100C:0](=O)N5CCCC(n6nc(-c7ccc(Oc8ccc(F)cc8F)cc7)c(C(N)=O)c6N)C5)CC4C4CC4)n(C(C)C)c3C)ccc2CC1C(=O)NC1CCCc2ccccc21)C(C)(C)C

> <Shape>
0.187

> <Color>
0.091

> <Negative vol penalty>
0.000

$$$$

  -OEChem-04052321363D

 90 99  0     1  0  0  0  0  0999 V2000
  -29.6595  -36.2097   22.4280 C   0  0  0  0  0  0  0  0  0  0  0  0
  -29.8258  -34.8327   22.3201 C   0  0  0  0  0  0  0  0  0  0  0  0
  -23.7044   -9.6626   20.0111 C   0  0  0  0  0  0  0  0  0  0  0  0
  -24.2356   -9.9668   22.3482 C   0  0  0  0  0  0  0  0  0  0  0  0
  -28.4435  -36.7316   22.8672 C   0  0  0  0  0  0  0  0  0  0  0  0
  -28.7764  -33.9767   22.6524 C   0  0  0  0  0  0  0  0  0  0  0  0
  -28.3053  -20.9439   20.9128 C   0  0  0  0  0  0  0  0  0  0  0  0
  -27.4036  -28.6316   19.9969 C   0  0  0  0  0  0  0  0  0  0  0  0
  -28.2352  -22.2782   20.5124 C   0  0  0  0  0  0  0  0  0  0  0  0
  -23.1988   -8.3931   20.2912 C   0  0  0  0  0  0  0  0  0  0  0  0
  -23.7300   -8.6973   22.6284 C   0  0  0  0  0  0  0  0  0  0  0  0
  -27.6794  -27.3111   20.3491 C   0  0  0  0  0  0  0  0  0  0  0  0
  -20.6994   -7.2609   23.0434 C   0  0  0  0  0  0  0  0  0  0  0  0
  -19.8649   -7.1277   24.1532 C   0  0  0  0  0  0  0  0  0  0  0  0
  -28.6441  -21.6478   23.1990 C   0  0  0  0  0  0  0  0  0  0  0  0
  -25.5106  -27.1426   21.3917 C   0  0  0  0  0  0  0  0  0  0  0  0
  -21.4126   -5.5488   25.1274 C   0  0  0  0  0  0  0  0  0  0  0  0
  -24.2228  -10.4494   21.0396 C   0  0  0  0  0  0  0  0  0  0  0  0
  -24.0381  -12.9776   20.7534 C   0  0  0  0  0  0  0  0  0  0  0  0
  -28.5097  -20.6287   22.2562 C   0  0  0  0  0  0  0  0  0  0  0  0
  -27.3755  -35.8819   23.1958 C   0  0  0  0  0  0  0  0  0  0  0  0
  -26.1815  -29.2219   20.3496 C   0  0  0  0  0  0  0  0  0  0  0  0
  -27.5454  -34.4876   23.0977 C   0  0  0  0  0  0  0  0  0  0  0  0
  -25.2207  -28.4699   21.0406 C   0  0  0  0  0  0  0  0  0  0  0  0
  -28.3696  -23.2973   21.4553 C   0  0  0  0  0  0  0  0  0  0  0  0
  -23.2116   -7.9105   21.5998 C   0  0  0  0  0  0  0  0  0  0  0  0
  -26.7340  -26.5673   21.0491 C   0  0  0  0  0  0  0  0  0  0  0  0
  -21.8904   -6.5380   22.9756 C   0  0  0  0  0  0  0  0  0  0  0  0
  -28.5741  -22.9821   22.7986 C   0  0  0  0  0  0  0  0  0  0  0  0
  -20.2215   -6.2717   25.1952 C   0  0  0  0  0  0  0  0  0  0  0  0
  -22.2470   -5.6820   24.0176 C   0  0  0  0  0  0  0  0  0  0  0  0
  -24.7457  -11.7606   20.7508 C   0  0  0  0  0  0  0  0  0  0  0  0
  -24.9774  -13.9217   20.4179 C   0  0  0  0  0  0  0  0  0  0  0  0
  -22.6552  -13.2318   21.0342 C   0  0  0  0  0  0  0  0  0  0  0  0
  -25.3220  -31.6895   22.1596 C   0  0  0  0  0  0  0  0  0  0  0  0
  -22.3720  -31.0214   20.9876 C   0  0  0  0  0  0  0  0  0  0  0  0
  -20.2480  -28.7241   19.6246 C   0  0  0  0  0  0  0  0  0  0  0  0
  -30.0865  -16.1050   20.9432 C   0  0  0  0  0  0  0  0  0  0  0  0
  -26.0955  -36.4907   23.7111 C   0  0  0  0  0  0  0  0  0  0  0  0
  -25.8887  -30.6390   19.9390 C   0  0  0  0  0  0  0  0  0  0  0  0
  -23.8854  -29.0507   21.4252 C   0  0  0  0  0  0  0  0  0  0  0  0
  -24.9102  -35.5292   23.6857 C   0  0  0  0  0  0  0  0  0  0  0  0
  -29.6936  -13.3963   18.6662 C   0  0  0  0  0  0  0  0  0  0  0  0
  -25.3100  -34.1737   24.2598 C   0  0  0  0  0  0  0  0  0  0  0  0
  -28.3163  -12.8263   19.0100 C   0  0  0  0  0  0  0  0  0  0  0  0
  -30.4318  -13.8789   19.9128 C   0  0  0  0  0  0  0  0  0  0  0  0
  -28.3019  -14.2639   21.0912 C   0  0  0  0  0  0  0  0  0  0  0  0
  -28.5841  -19.2033   22.6839 C   0  0  2  0  0  0  0  0  0  0  0  0
  -26.4224  -33.5275   23.4252 C   0  0  1  0  0  0  0  0  0  0  0  0
  -24.8166  -31.3009   20.7990 C   0  0  1  0  0  0  0  0  0  0  0  0
  -29.8038  -18.7278   23.4366 C   0  0  2  0  0  0  0  0  0  0  0  0
  -27.4963  -13.8154   19.8599 C   0  0  2  0  0  0  0  0  0  0  0  0
  -29.5888  -18.2880   22.0137 C   0  0  1  0  0  0  0  0  0  0  0  0
  -32.9881  -15.5969   24.2467 C   0  0  0  0  0  0  0  0  0  0  0  0
  -17.8894  -28.4627   18.8085 C   0  0  0  0  0  0  0  0  0  0  0  0
  -30.3201  -15.5014   25.6355 C   0  0  0  0  0  0  0  0  0  0  0  0
  -28.1535  -17.3390   24.6981 C   0  0  0  0  0  0  0  0  0  0  0  0
  -29.9756  -18.4878   25.9145 C   0  0  0  0  0  0  0  0  0  0  0  0
  -21.3887  -30.9058   23.8737 C   0  0  0  0  0  0  0  0  0  0  0  0
  -19.3333  -29.7352   23.0532 C   0  0  0  0  0  0  0  0  0  0  0  0
  -19.8344  -32.0557   22.2873 C   0  0  0  0  0  0  0  0  0  0  0  0
  -21.1469  -28.0620   16.8837 C   0  0  0  0  0  0  0  0  0  0  0  0
  -28.9139  -23.5538   25.0819 C   0  0  0  0  0  0  0  0  0  0  0  0
  -28.2927  -24.7269   21.0063 C   0  0  0  0  0  0  0  0  0  1  0  0
  -32.0806  -16.8158   24.3716 C   0  0  0  0  0  0  0  0  0  0  0  0
  -21.2275  -30.1347   21.4150 C   0  0  1  0  0  0  0  0  0  0  0  0
  -19.3224  -28.7961   18.4236 C   0  0  2  0  0  0  0  0  0  0  0  0
  -30.5706  -16.4766   24.4706 C   0  0  2  0  0  0  0  0  0  0  0  0
  -29.6488  -17.7815   24.5786 C   0  0  0  0  0  0  0  0  0  0  0  0
  -20.4718  -30.6972   22.6519 C   0  0  0  0  0  0  0  0  0  0  0  0
  -26.0351  -11.9146   20.4382 N   0  0  0  0  0  0  0  0  0  0  0  0
  -26.1451  -13.2395   20.2412 N   0  0  0  0  0  0  0  0  0  0  0  0
  -23.6487  -30.4422   21.0066 N   0  0  0  0  0  0  0  0  0  0  0  0
  -29.6005  -14.8151   20.6733 N   0  0  0  0  0  0  0  0  0  0  0  0
  -24.9103  -15.2607   20.2596 N   0  0  0  0  0  0  0  0  0  0  0  0
  -21.8298  -12.1477   21.3622 N   0  0  0  0  0  0  0  0  0  0  0  0
  -25.8769  -32.9539   22.2136 N   0  0  0  0  0  0  0  0  0  0  0  0
  -20.3895  -29.9525   20.2348 N   0  0  0  0  0  0  0  0  0  0  0  0
  -29.2327  -16.9309   21.6640 N   0  0  0  0  0  0  0  0  0  0  0  0
  -19.7623  -27.8357   17.3723 N   0  3  0  0  0  0  0  0  0  0  0  0
  -22.1625  -14.3841   20.9793 O   0  0  0  0  0  0  0  0  0  0  0  0
  -25.2151  -30.9012   23.0917 O   0  0  0  0  0  0  0  0  0  0  0  0
  -22.1409  -32.1830   20.6426 O   0  0  0  0  0  0  0  0  0  0  0  0
  -20.7883  -27.6816   19.9877 O   0  0  0  0  0  0  0  0  0  0  0  0
  -31.1968  -16.4937   20.5650 O   0  0  0  0  0  0  0  0  0  0  0  0
  -22.7181   -6.6719   21.8735 O   0  0  0  0  0  0  0  0  0  0  0  0
  -28.7078  -23.9653   23.7320 O   0  0  0  0  0  0  0  0  0  0  0  0
  -27.0009  -25.2784   21.3946 O   0  0  0  0  0  0  0  0  0  1  0  0
  -19.4208   -6.1450   26.2615 F   0  0  0  0  0  0  0  0  0  0  0  0
  -23.3905   -4.9858   23.9586 F   0  0  0  0  0  0  0  0  0  0  0  0
  1  2  1  0  0  0  0
  1  5  2  0  0  0  0
  2  6  2  0  0  0  0
  3 10  2  0  0  0  0
  3 18  1  0  0  0  0
  4 11  1  0  0  0  0
  4 18  2  0  0  0  0
  5 21  1  0  0  0  0
  6 23  1  0  0  0  0
  7  9  2  0  0  0  0
  7 20  1  0  0  0  0
  8 12  2  0  0  0  0
  8 22  1  0  0  0  0
  9 25  1  0  0  0  0
 10 26  1  0  0  0  0
 11 26  2  0  0  0  0
 12 27  1  0  0  0  0
 13 14  2  0  0  0  0
 13 28  1  0  0  0  0
 14 30  1  0  0  0  0
 15 20  2  0  0  0  0
 15 29  1  0  0  0  0
 16 24  1  0  0  0  0
 16 27  2  0  0  0  0
 17 30  2  0  0  0  0
 17 31  1  0  0  0  0
 18 32  1  0  0  0  0
 19 32  1  0  0  0  0
 19 33  2  0  0  0  0
 19 34  1  0  0  0  0
 20 48  1  0  0  0  0
 21 23  2  0  0  0  0
 21 39  1  0  0  0  0
 22 24  2  0  0  0  0
 22 40  1  0  0  0  0
 23 49  1  0  0  0  0
 24 41  1  0  0  0  0
 25 29  2  0  0  0  0
 25 64  1  0  0  0  0
 26 86  1  0  0  0  0
 27 88  1  0  0  0  0
 28 31  2  0  0  0  0
 28 86  1  0  0  0  0
 29 87  1  0  0  0  0
 30 89  1  0  0  0  0
 31 90  1  0  0  0  0
 32 71  2  0  0  0  0
 33 72  1  0  0  0  0
 33 75  1  0  0  0  0
 34 76  1  0  0  0  0
 34 81  2  0  0  0  0
 35 50  1  0  0  0  0
 35 77  1  0  0  0  0
 35 82  2  0  0  0  0
 36 66  1  0  0  0  0
 36 73  1  0  0  0  0
 36 83  2  0  0  0  0
 37 67  1  0  0  0  0
 37 78  1  0  0  0  0
 37 84  2  0  0  0  0
 38 74  1  0  0  0  0
 38 79  1  0  0  0  0
 38 85  2  0  0  0  0
 39 42  1  0  0  0  0
 40 50  1  0  0  0  0
 41 73  1  0  0  0  0
 42 44  1  0  0  0  0
 43 45  1  0  0  0  0
 43 46  1  0  0  0  0
 44 49  1  0  0  0  0
 45 52  1  0  0  0  0
 46 74  1  0  0  0  0
 47 52  1  0  0  0  0
 47 74  1  0  0  0  0
 48 51  1  0  0  0  0
 48 53  1  0  0  0  0
 49 77  1  0  0  0  0
 50 73  1  0  0  0  0
 51 53  1  0  0  0  0
 51 69  1  0  0  0  0
 52 72  1  0  0  0  0
 53 79  1  0  0  0  0
 54 65  1  0  0  0  0
 55 67  1  0  0  0  0
 56 68  1  0  0  0  0
 57 69  1  0  0  0  0
 58 69  1  0  0  0  0
 59 70  1  0  0  0  0
 60 70  1  0  0  0  0
 61 70  1  0  0  0  0
 62 80  1  0  0  0  0
 63 87  1  0  0  0  0
 64 88  1  0  0  0  0
 65 68  1  0  0  0  0
 66 70  1  0  0  0  0
 66 78  1  0  0  0  0
 67 80  1  0  0  0  0
 68 69  1  0  0  0  0
 71 72  1  0  0  0  0
M  CHG  1  80   1
M  ISO  4  38 100  64 101  79 100  88 101
M  END
> <Batch ID>
0148

> <Smiles>
CCC(C)C(C)(C)C1C([100NH:0][100C:0](=O)N2CCCC(n3nc(-c4ccc(Oc5ccc(F)cc5F)cc4)c(C(N)=O)c3N)C2)C1c1ccc([101CH2:1][101O:1]c2ccc3c(c2)CN(C(=O)C(NC(=O)C(C)NC)C(C)(C)C)C(C(=O)NC2CCCc4ccccc42)C3)c(OC)c1

> <Shape>
0.328

> <Color>
0.150

> <Negative vol penalty>
0.000

$$$$

  -OEChem-04052321363D

 82 90  0     1  0  0  0  0  0999 V2000
  -29.4462  -35.6233   18.8205 C   0  0  0  0  0  0  0  0  0  0  0  0
  -29.7624  -34.3613   18.3277 C   0  0  0  0  0  0  0  0  0  0  0  0
  -24.1475   -9.6417   21.7409 C   0  0  0  0  0  0  0  0  0  0  0  0
  -24.5631  -10.9401   23.7356 C   0  0  0  0  0  0  0  0  0  0  0  0
  -28.8573  -35.7520   20.0777 C   0  0  0  0  0  0  0  0  0  0  0  0
  -29.4908  -33.2273   19.0923 C   0  0  0  0  0  0  0  0  0  0  0  0
  -27.5989  -26.3523   18.4050 C   0  0  0  0  0  0  0  0  0  0  0  0
  -29.3045  -21.4189   22.8829 C   0  0  0  0  0  0  0  0  0  0  0  0
  -23.7390   -8.5644   22.5272 C   0  0  0  0  0  0  0  0  0  0  0  0
  -24.1546   -9.8628   24.5219 C   0  0  0  0  0  0  0  0  0  0  0  0
  -27.9989  -25.0795   18.8096 C   0  0  0  0  0  0  0  0  0  0  0  0
  -29.8106  -20.1421   23.1263 C   0  0  0  0  0  0  0  0  0  0  0  0
  -20.9777   -7.6411   24.2464 C   0  0  0  0  0  0  0  0  0  0  0  0
  -19.8151   -6.9683   23.8706 C   0  0  0  0  0  0  0  0  0  0  0  0
  -26.9069  -25.4180   20.9338 C   0  0  0  0  0  0  0  0  0  0  0  0
  -27.6082  -20.4728   21.4461 C   0  0  0  0  0  0  0  0  0  0  0  0
  -21.0779   -4.9233   23.6248 C   0  0  0  0  0  0  0  0  0  0  0  0
  -24.5596  -10.8295   22.3451 C   0  0  0  0  0  0  0  0  0  0  0  0
  -24.1763  -12.9794   21.0265 C   0  0  0  0  0  0  0  0  0  0  0  0
  -28.5695  -34.6183   20.8540 C   0  0  0  0  0  0  0  0  0  0  0  0
  -26.8579  -27.1732   19.2674 C   0  0  0  0  0  0  0  0  0  0  0  0
  -28.8987  -33.3410   20.3616 C   0  0  0  0  0  0  0  0  0  0  0  0
  -26.4964  -26.6999   20.5368 C   0  0  0  0  0  0  0  0  0  0  0  0
  -28.2033  -21.5842   22.0429 C   0  0  0  0  0  0  0  0  0  0  0  0
  -28.1143  -19.1959   21.6894 C   0  0  0  0  0  0  0  0  0  0  0  0
  -23.7425   -8.6750   23.9177 C   0  0  0  0  0  0  0  0  0  0  0  0
  -27.6554  -24.6133   20.0752 C   0  0  0  0  0  0  0  0  0  0  0  0
  -29.2155  -19.0306   22.5295 C   0  0  0  0  0  0  0  0  0  0  0  0
  -22.1905   -6.9550   24.3113 C   0  0  0  0  0  0  0  0  0  0  0  0
  -19.8651   -5.6094   23.5599 C   0  0  0  0  0  0  0  0  0  0  0  0
  -22.2406   -5.5961   24.0006 C   0  0  0  0  0  0  0  0  0  0  0  0
  -24.9823  -11.9424   21.5334 C   0  0  0  0  0  0  0  0  0  0  0  0
  -25.0459  -13.7789   20.3259 C   0  0  0  0  0  0  0  0  0  0  0  0
  -22.7675  -13.2002   21.1758 C   0  0  0  0  0  0  0  0  0  0  0  0
  -27.3370  -30.0033   20.6329 C   0  0  0  0  0  0  0  0  0  0  0  0
  -24.2666  -29.6177   21.6056 C   0  0  0  0  0  0  0  0  0  0  0  0
  -21.6951  -27.4858   22.3053 C   0  0  0  0  0  0  0  0  0  0  0  0
  -30.9459  -14.7173   20.7266 C   0  0  0  0  0  0  0  0  0  0  0  0
  -27.9756  -34.8104   22.2270 C   0  0  0  0  0  0  0  0  0  0  0  0
  -26.4111  -28.5333   18.8059 C   0  0  0  0  0  0  0  0  0  0  0  0
  -25.6847  -27.5340   21.4927 C   0  0  0  0  0  0  0  0  0  0  0  0
  -27.3773  -33.5353   22.8157 C   0  0  0  0  0  0  0  0  0  0  0  0
  -29.1458  -13.5967   17.8665 C   0  0  0  0  0  0  0  0  0  0  0  0
  -28.3368  -32.3632   22.6362 C   0  0  0  0  0  0  0  0  0  0  0  0
  -27.8019  -13.1393   18.4362 C   0  0  0  0  0  0  0  0  0  0  0  0
  -30.2988  -13.2794   18.8161 C   0  0  0  0  0  0  0  0  0  0  0  0
  -28.7840  -13.3311   20.7594 C   0  0  0  0  0  0  0  0  0  0  0  0
  -28.5968  -32.0855   21.1507 C   0  0  1  0  0  0  0  0  0  0  0  0
  -26.0993  -29.4827   19.9586 C   0  0  1  0  0  0  0  0  0  0  0  0
  -27.5841  -13.6799   19.8622 C   0  0  2  0  0  0  0  0  0  0  0  0
  -27.4642  -18.0170   21.0433 C   0  0  0  0  0  0  0  0  0  0  0  0
  -19.3205  -27.4628   23.1164 C   0  0  0  0  0  0  0  0  0  0  0  0
  -25.2372  -30.1227   24.4539 C   0  0  0  0  0  0  0  0  0  0  0  0
  -23.0779  -29.1660   25.2850 C   0  0  0  0  0  0  0  0  0  0  0  0
  -23.0680  -31.2271   23.8798 C   0  0  0  0  0  0  0  0  0  0  0  0
  -20.7264  -26.2592   19.7922 C   0  0  0  0  0  0  0  0  0  0  0  0
  -27.6584  -22.9578   21.7826 C   0  0  0  0  0  0  0  0  0  1  0  0
  -31.4511  -16.1207   22.7102 C   0  0  0  0  0  0  0  0  0  0  0  0
  -31.0818  -17.5617   22.4064 C   0  0  0  0  0  0  0  0  0  0  0  0
  -23.5958  -28.9988   22.8081 C   0  0  1  0  0  0  0  0  0  0  0  0
  -20.2323  -27.5048   21.9001 C   0  0  2  0  0  0  0  0  0  0  0  0
  -23.7617  -29.8634   24.0896 C   0  0  0  0  0  0  0  0  0  0  0  0
  -26.2653  -12.0690   21.1843 N   0  0  0  0  0  0  0  0  0  0  0  0
  -26.2721  -13.1948   20.4505 N   0  0  0  0  0  0  0  0  0  0  0  0
  -25.2771  -28.8593   20.9977 N   0  0  0  0  0  0  0  0  0  0  0  0
  -30.0306  -13.8210   20.1505 N   0  0  0  0  0  0  0  0  0  0  0  0
  -24.8737  -14.9176   19.6214 N   0  0  0  0  0  0  0  0  0  0  0  0
  -22.0232  -12.2813   21.9282 N   0  0  0  0  0  0  0  0  0  0  0  0
  -27.4790  -31.3762   20.5660 N   0  0  0  0  0  0  0  0  0  0  0  0
  -22.2088  -28.7599   22.4239 N   0  0  0  0  0  0  0  0  0  0  0  0
  -30.6126  -15.1879   21.9908 N   0  0  0  0  0  0  0  0  0  0  0  0
  -19.9187  -26.3310   21.0369 N   0  3  0  0  0  0  0  0  0  0  0  0
  -22.1831  -14.1743   20.6437 O   0  0  0  0  0  0  0  0  0  0  0  0
  -28.1055  -29.2177   21.1751 O   0  0  0  0  0  0  0  0  0  0  0  0
  -23.9023  -30.7298   21.2156 O   0  0  0  0  0  0  0  0  0  0  0  0
  -22.3187  -26.4449   22.5010 O   0  0  0  0  0  0  0  0  0  0  0  0
  -31.9807  -15.0760   20.1544 O   0  0  0  0  0  0  0  0  0  0  0  0
  -23.3438   -7.6241   24.6853 O   0  0  0  0  0  0  0  0  0  0  0  0
  -28.0452  -23.3716   20.4728 O   0  0  0  0  0  0  0  0  0  1  0  0
  -29.7239  -17.7908   22.7769 O   0  0  0  0  0  0  0  0  0  0  0  0
  -18.7483   -4.9631   23.2005 F   0  0  0  0  0  0  0  0  0  0  0  0
  -23.4025   -4.9314   24.0623 F   0  0  0  0  0  0  0  0  0  0  0  0
  1  2  1  0  0  0  0
  1  5  2  0  0  0  0
  2  6  2  0  0  0  0
  3  9  2  0  0  0  0
  3 18  1  0  0  0  0
  4 10  1  0  0  0  0
  4 18  2  0  0  0  0
  5 20  1  0  0  0  0
  6 22  1  0  0  0  0
  7 11  2  0  0  0  0
  7 21  1  0  0  0  0
  8 12  2  0  0  0  0
  8 24  1  0  0  0  0
  9 26  1  0  0  0  0
 10 26  2  0  0  0  0
 11 27  1  0  0  0  0
 12 28  1  0  0  0  0
 13 14  2  0  0  0  0
 13 29  1  0  0  0  0
 14 30  1  0  0  0  0
 15 23  1  0  0  0  0
 15 27  2  0  0  0  0
 16 24  2  0  0  0  0
 16 25  1  0  0  0  0
 17 30  2  0  0  0  0
 17 31  1  0  0  0  0
 18 32  1  0  0  0  0
 19 32  1  0  0  0  0
 19 33  2  0  0  0  0
 19 34  1  0  0  0  0
 20 22  2  0  0  0  0
 20 39  1  0  0  0  0
 21 23  2  0  0  0  0
 21 40  1  0  0  0  0
 22 48  1  0  0  0  0
 23 41  1  0  0  0  0
 24 57  1  0  0  0  0
 25 28  2  0  0  0  0
 25 51  1  0  0  0  0
 26 78  1  0  0  0  0
 27 79  1  0  0  0  0
 28 80  1  0  0  0  0
 29 31  2  0  0  0  0
 29 78  1  0  0  0  0
 30 81  1  0  0  0  0
 31 82  1  0  0  0  0
 32 63  2  0  0  0  0
 33 64  1  0  0  0  0
 33 67  1  0  0  0  0
 34 68  1  0  0  0  0
 34 73  2  0  0  0  0
 35 49  1  0  0  0  0
 35 69  1  0  0  0  0
 35 74  2  0  0  0  0
 36 60  1  0  0  0  0
 36 65  1  0  0  0  0
 36 75  2  0  0  0  0
 37 61  1  0  0  0  0
 37 70  1  0  0  0  0
 37 76  2  0  0  0  0
 38 66  1  0  0  0  0
 38 71  1  0  0  0  0
 38 77  2  0  0  0  0
 39 42  1  0  0  0  0
 40 49  1  0  0  0  0
 41 65  1  0  0  0  0
 42 44  1  0  0  0  0
 43 45  1  0  0  0  0
 43 46  1  0  0  0  0
 44 48  1  0  0  0  0
 45 50  1  0  0  0  0
 46 66  1  0  0  0  0
 47 50  1  0  0  0  0
 47 66  1  0  0  0  0
 48 69  1  0  0  0  0
 49 65  1  0  0  0  0
 50 64  1  0  0  0  0
 52 61  1  0  0  0  0
 53 62  1  0  0  0  0
 54 62  1  0  0  0  0
 55 62  1  0  0  0  0
 56 72  1  0  0  0  0
 57 79  1  0  0  0  0
 58 59  1  0  0  0  0
 58 71  1  0  0  0  0
 59 80  1  0  0  0  0
 60 62  1  0  0  0  0
 60 70  1  0  0  0  0
 61 72  1  0  0  0  0
 63 64  1  0  0  0  0
M  CHG  1  72   1
M  ISO  4  38 100  57 101  71 100  79 101
M  END
> <Batch ID>
0148

> <Smiles>
CNC(C)C(=O)NC(C(=O)N1Cc2cc([101O:1][101CH2:1]c3ccc(OCC[100NH:0][100C:0](=O)N4CCCC(n5nc(-c6ccc(Oc7ccc(F)cc7F)cc6)c(C(N)=O)c5N)C4)c(C)c3)ccc2CC1C(=O)NC1CCCc2ccccc21)C(C)(C)C

> <Shape>
0.299

> <Color>
0.139

> <Negative vol penalty>
0.000

$$$$

  -OEChem-04052321363D

 87 96  0     1  0  0  0  0  0999 V2000
  -32.2684  -32.4390   23.0772 C   0  0  0  0  0  0  0  0  0  0  0  0
  -31.6657  -31.2572   22.6583 C   0  0  0  0  0  0  0  0  0  0  0  0
  -22.9152  -10.3203   20.4888 C   0  0  0  0  0  0  0  0  0  0  0  0
  -24.6133   -8.8598   21.3945 C   0  0  0  0  0  0  0  0  0  0  0  0
  -31.6378  -33.2438   24.0252 C   0  0  0  0  0  0  0  0  0  0  0  0
  -30.4324  -30.8790   23.1880 C   0  0  0  0  0  0  0  0  0  0  0  0
  -27.2106  -29.2491   19.6372 C   0  0  0  0  0  0  0  0  0  0  0  0
  -22.0128   -9.8680   21.4513 C   0  0  0  0  0  0  0  0  0  0  0  0
  -23.7109   -8.4075   22.3572 C   0  0  0  0  0  0  0  0  0  0  0  0
  -27.3940  -27.9529   19.1576 C   0  0  0  0  0  0  0  0  0  0  0  0
  -21.1221   -6.2390   22.5212 C   0  0  0  0  0  0  0  0  0  0  0  0
  -21.0573   -4.8653   22.7540 C   0  0  0  0  0  0  0  0  0  0  0  0
  -25.6213  -27.1758   20.5974 C   0  0  0  0  0  0  0  0  0  0  0  0
  -29.6551  -17.6025   20.8286 C   0  0  0  0  0  0  0  0  0  0  0  0
  -27.2080  -18.9118   20.5454 C   0  0  0  0  0  0  0  0  0  0  0  0
  -21.6822   -5.2265   25.0597 C   0  0  0  0  0  0  0  0  0  0  0  0
  -24.2155   -9.8162   20.4603 C   0  0  0  0  0  0  0  0  0  0  0  0
  -25.0167  -10.1896   18.0674 C   0  0  0  0  0  0  0  0  0  0  0  0
  -30.3917  -32.8801   24.5596 C   0  0  0  0  0  0  0  0  0  0  0  0
  -26.2368  -29.5169   20.6101 C   0  0  0  0  0  0  0  0  0  0  0  0
  -29.7853  -31.6790   24.1450 C   0  0  0  0  0  0  0  0  0  0  0  0
  -25.4258  -28.4767   21.0858 C   0  0  0  0  0  0  0  0  0  0  0  0
  -29.4968  -18.8987   21.3189 C   0  0  0  0  0  0  0  0  0  0  0  0
  -28.5898  -16.9609   20.1966 C   0  0  0  0  0  0  0  0  0  0  0  0
  -22.4105   -8.9116   22.3855 C   0  0  0  0  0  0  0  0  0  0  0  0
  -26.6013  -26.9155   19.6398 C   0  0  0  0  0  0  0  0  0  0  0  0
  -21.4671   -7.1066   23.5576 C   0  0  0  0  0  0  0  0  0  0  0  0
  -28.2733  -19.5533   21.1773 C   0  0  0  0  0  0  0  0  0  0  0  0
  -27.3663  -17.6156   20.0551 C   0  0  0  0  0  0  0  0  0  0  0  0
  -21.3373   -4.3590   24.0232 C   0  0  0  0  0  0  0  0  0  0  0  0
  -21.7471   -6.6003   24.8268 C   0  0  0  0  0  0  0  0  0  0  0  0
  -25.1481  -10.2826   19.4659 C   0  0  0  0  0  0  0  0  0  0  0  0
  -26.1585  -10.7737   17.5757 C   0  0  0  0  0  0  0  0  0  0  0  0
  -23.9573   -9.6258   17.2829 C   0  0  0  0  0  0  0  0  0  0  0  0
  -26.2872  -30.6272   23.5881 C   0  0  0  0  0  0  0  0  0  0  0  0
  -23.0614  -30.5600   23.2533 C   0  0  0  0  0  0  0  0  0  0  0  0
  -20.6073  -28.3293   21.8324 C   0  0  0  0  0  0  0  0  0  0  0  0
  -29.9207  -14.8652   19.7689 C   0  0  0  0  0  0  0  0  0  0  0  0
  -29.7710  -33.7585   25.6169 C   0  0  0  0  0  0  0  0  0  0  0  0
  -26.0334  -30.9253   21.0976 C   0  0  0  0  0  0  0  0  0  0  0  0
  -24.3528  -28.7152   22.1155 C   0  0  0  0  0  0  0  0  0  0  0  0
  -28.2895  -33.4748   25.8516 C   0  0  0  0  0  0  0  0  0  0  0  0
  -30.7438  -11.5681   18.7062 C   0  0  0  0  0  0  0  0  0  0  0  0
  -28.0458  -31.9737   25.9706 C   0  0  0  0  0  0  0  0  0  0  0  0
  -29.3896  -10.8576   18.6473 C   0  0  0  0  0  0  0  0  0  0  0  0
  -26.0319  -23.5911   20.1508 C   0  0  0  0  0  0  0  0  0  0  0  0
  -28.4855  -24.0466   19.7595 C   0  0  0  0  0  0  0  0  0  0  0  0
  -26.3934  -22.4283   21.0670 C   0  0  0  0  0  0  0  0  0  0  0  0
  -28.8471  -22.8844   20.6765 C   0  0  0  0  0  0  0  0  0  0  0  0
  -30.8185  -12.5504   19.8738 C   0  0  0  0  0  0  0  0  0  0  0  0
  -28.3693  -12.8165   19.8756 C   0  0  0  0  0  0  0  0  0  0  0  0
  -28.4363  -31.2472   24.6779 C   0  0  1  0  0  0  0  0  0  0  0  0
  -25.3592  -30.9929   22.4644 C   0  0  1  0  0  0  0  0  0  0  0  0
  -28.2231  -11.8645   18.6773 C   0  0  2  0  0  0  0  0  0  0  0  0
  -27.1308  -24.6518   20.1265 C   0  0  0  0  0  0  0  0  0  1  0  0
  -27.7484  -21.8234   20.7006 C   0  0  0  0  0  0  0  0  0  0  0  0
  -30.6476  -19.5703   21.9928 C   0  0  0  0  0  0  0  0  0  0  0  0
  -18.3269  -28.7964   20.8949 C   0  0  0  0  0  0  0  0  0  0  0  0
  -22.0853  -29.8858   26.0645 C   0  0  0  0  0  0  0  0  0  0  0  0
  -20.1178  -28.7340   25.0297 C   0  0  0  0  0  0  0  0  0  0  0  0
  -20.4562  -31.1802   24.6770 C   0  0  0  0  0  0  0  0  0  0  0  0
  -21.2758  -27.0390   19.2542 C   0  0  0  0  0  0  0  0  0  0  0  0
  -25.4322  -16.2478   20.2662 C   0  0  0  0  0  0  0  0  0  0  0  0
  -21.9812  -29.5367   23.5084 C   0  0  1  0  0  0  0  0  0  0  0  0
  -19.7936  -28.5578   20.5714 C   0  0  2  0  0  0  0  0  0  0  0  0
  -21.1866  -29.8264   24.8131 C   0  0  0  0  0  0  0  0  0  0  0  0
  -26.2838  -10.8786   19.8386 N   0  0  0  0  0  0  0  0  0  0  0  0
  -26.8765  -11.1654   18.6671 N   0  0  0  0  0  0  0  0  0  0  0  0
  -24.1967  -30.1083   22.5656 N   0  0  0  0  0  0  0  0  0  0  0  0
  -29.6840  -13.4758   19.8348 N   0  0  0  0  0  0  0  0  0  0  0  0
  -26.6083  -10.9851   16.3205 N   0  0  0  0  0  0  0  0  0  0  0  0
  -22.8577   -9.0668   17.9484 N   0  0  0  0  0  0  0  0  0  0  0  0
  -28.7660  -15.6443   19.7034 N   0  0  0  0  0  0  0  0  0  0  0  0
  -27.4131  -31.4241   23.6698 N   0  0  0  0  0  0  0  0  0  0  0  0
  -21.1593  -29.5017   22.3036 N   0  0  0  0  0  0  0  0  0  0  0  0
  -19.8898  -27.3741   19.6712 N   0  3  0  0  0  0  0  0  0  0  0  0
  -23.9925   -9.6032   16.0292 O   0  0  0  0  0  0  0  0  0  0  0  0
  -26.0021  -29.6923   24.3272 O   0  0  0  0  0  0  0  0  0  0  0  0
  -22.9006  -31.7191   23.6434 O   0  0  0  0  0  0  0  0  0  0  0  0
  -20.7370  -27.2221   22.3499 O   0  0  0  0  0  0  0  0  0  0  0  0
  -31.0639  -15.3282   19.7429 O   0  0  0  0  0  0  0  0  0  0  0  0
  -21.5302   -8.4702   23.3251 O   0  0  0  0  0  0  0  0  0  0  0  0
  -26.7787  -25.6493   19.1739 O   0  0  0  0  0  0  0  0  0  1  0  0
  -28.1007  -20.8260   21.6531 O   0  0  0  0  0  0  0  0  0  0  0  0
  -26.3129  -17.0066   19.4405 O   0  0  0  0  0  0  0  0  0  0  0  0
  -21.2735   -3.0399   24.2471 F   0  0  0  0  0  0  0  0  0  0  0  0
  -22.0778   -7.4289   25.8268 F   0  0  0  0  0  0  0  0  0  0  0  0
  1  2  1  0  0  0  0
  1  5  2  0  0  0  0
  2  6  2  0  0  0  0
  3  8  2  0  0  0  0
  3 17  1  0  0  0  0
  4  9  1  0  0  0  0
  4 17  2  0  0  0  0
  5 19  1  0  0  0  0
  6 21  1  0  0  0  0
  7 10  2  0  0  0  0
  7 20  1  0  0  0  0
  8 25  1  0  0  0  0
  9 25  2  0  0  0  0
 10 26  1  0  0  0  0
 11 12  2  0  0  0  0
 11 27  1  0  0  0  0
 12 30  1  0  0  0  0
 13 22  1  0  0  0  0
 13 26  2  0  0  0  0
 14 23  1  0  0  0  0
 14 24  2  0  0  0  0
 15 28  1  0  0  0  0
 15 29  2  0  0  0  0
 16 30  2  0  0  0  0
 16 31  1  0  0  0  0
 17 32  1  0  0  0  0
 18 32  1  0  0  0  0
 18 33  2  0  0  0  0
 18 34  1  0  0  0  0
 19 21  2  0  0  0  0
 19 39  1  0  0  0  0
 20 22  2  0  0  0  0
 20 40  1  0  0  0  0
 21 52  1  0  0  0  0
 22 41  1  0  0  0  0
 23 28  2  0  0  0  0
 23 57  1  0  0  0  0
 24 29  1  0  0  0  0
 24 73  1  0  0  0  0
 25 82  1  0  0  0  0
 26 83  1  0  0  0  0
 27 31  2  0  0  0  0
 27 82  1  0  0  0  0
 28 84  1  0  0  0  0
 29 85  1  0  0  0  0
 30 86  1  0  0  0  0
 31 87  1  0  0  0  0
 32 67  2  0  0  0  0
 33 68  1  0  0  0  0
 33 71  1  0  0  0  0
 34 72  1  0  0  0  0
 34 77  2  0  0  0  0
 35 53  1  0  0  0  0
 35 74  1  0  0  0  0
 35 78  2  0  0  0  0
 36 64  1  0  0  0  0
 36 69  1  0  0  0  0
 36 79  2  0  0  0  0
 37 65  1  0  0  0  0
 37 75  1  0  0  0  0
 37 80  2  0  0  0  0
 38 70  1  0  0  0  0
 38 73  1  0  0  0  0
 38 81  2  0  0  0  0
 39 42  1  0  0  0  0
 40 53  1  0  0  0  0
 41 69  1  0  0  0  0
 42 44  1  0  0  0  0
 43 45  1  0  0  0  0
 43 50  1  0  0  0  0
 44 52  1  0  0  0  0
 45 54  1  0  0  0  0
 46 48  1  0  0  0  0
 46 55  1  0  0  0  0
 47 49  1  0  0  0  0
 47 55  1  0  0  0  0
 48 56  1  0  0  0  0
 49 56  1  0  0  0  0
 50 70  1  0  0  0  0
 51 54  1  0  0  0  0
 51 70  1  0  0  0  0
 52 74  1  0  0  0  0
 53 69  1  0  0  0  0
 54 68  1  0  0  0  0
 55 83  1  0  0  0  0
 56 84  1  0  0  0  0
 58 65  1  0  0  0  0
 59 66  1  0  0  0  0
 60 66  1  0  0  0  0
 61 66  1  0  0  0  0
 62 76  1  0  0  0  0
 63 85  1  0  0  0  0
 64 66  1  0  0  0  0
 64 75  1  0  0  0  0
 65 76  1  0  0  0  0
 67 68  1  0  0  0  0
M  CHG  1  76   1
M  ISO  4  38 100  55 101  73 100  83 101
M  END
> <Batch ID>
0148

> <Smiles>
CNC(C)C(=O)NC(C(=O)N1Cc2cc([101O:1][101CH:1]3CCC(Oc4cc(OC)c([100NH:0][100C:0](=O)N5CCCC(n6nc(-c7ccc(Oc8ccc(F)cc8F)cc7)c(C(N)=O)c6N)C5)cc4C)CC3)ccc2CC1C(=O)NC1CCCc2ccccc21)C(C)(C)C

> <Shape>
0.314

> <Color>
0.108

> <Negative vol penalty>
0.000

$$$$

  -OEChem-04052321363D

 92101  0     1  0  0  0  0  0999 V2000
  -32.1208  -13.8684   18.3636 C   0  0  0  0  0  0  0  0  0  0  0  0
  -31.3040  -14.9331   17.9967 C   0  0  0  0  0  0  0  0  0  0  0  0
  -26.8064  -23.7757   18.9151 C   0  0  0  0  0  0  0  0  0  0  0  0
  -28.4428  -25.5220   18.5841 C   0  0  0  0  0  0  0  0  0  0  0  0
  -31.5950  -12.8113   19.1054 C   0  0  0  0  0  0  0  0  0  0  0  0
  -29.9606  -14.9409   18.3705 C   0  0  0  0  0  0  0  0  0  0  0  0
  -27.2513  -20.2946   22.3566 C   0  0  0  0  0  0  0  0  0  0  0  0
  -27.8296  -22.8307   18.9890 C   0  0  0  0  0  0  0  0  0  0  0  0
  -29.4662  -24.5770   18.6581 C   0  0  0  0  0  0  0  0  0  0  0  0
  -26.6099  -21.3878   22.9393 C   0  0  0  0  0  0  0  0  0  0  0  0
  -29.8370  -21.1606   16.8429 C   0  0  0  0  0  0  0  0  0  0  0  0
  -29.6730  -19.9719   16.1319 C   0  0  0  0  0  0  0  0  0  0  0  0
  -24.5172  -20.1759   22.9352 C   0  0  0  0  0  0  0  0  0  0  0  0
  -29.8275  -18.7186   18.1917 C   0  0  0  0  0  0  0  0  0  0  0  0
  -27.1129  -25.1213   18.7126 C   0  0  0  0  0  0  0  0  0  0  0  0
  -25.0001  -26.1360   17.7056 C   0  0  0  0  0  0  0  0  0  0  0  0
  -30.2469  -12.8108   19.4966 C   0  0  0  0  0  0  0  0  0  0  0  0
  -26.5304  -19.1308   22.0748 C   0  0  0  0  0  0  0  0  0  0  0  0
  -29.4160  -13.8822   19.1170 C   0  0  0  0  0  0  0  0  0  0  0  0
  -25.1570  -19.0731   22.3631 C   0  0  0  0  0  0  0  0  0  0  0  0
  -29.1595  -23.2313   18.8605 C   0  0  0  0  0  0  0  0  0  0  0  0
  -25.2462  -21.3287   23.2277 C   0  0  0  0  0  0  0  0  0  0  0  0
  -29.9964  -21.1284   18.2283 C   0  0  0  0  0  0  0  0  0  0  0  0
  -29.6682  -18.7509   16.8063 C   0  0  0  0  0  0  0  0  0  0  0  0
  -29.9916  -19.9074   18.9027 C   0  0  0  0  0  0  0  0  0  0  0  0
  -26.0563  -26.0979   18.6355 C   0  0  0  0  0  0  0  0  0  0  0  0
  -24.2747  -27.2487   18.0552 C   0  0  0  0  0  0  0  0  0  0  0  0
  -24.7013  -25.2451   16.6226 C   0  0  0  0  0  0  0  0  0  0  0  0
  -26.5854  -15.6311   20.7237 C   0  0  0  0  0  0  0  0  0  0  0  0
  -24.7824  -15.6000   23.2054 C   0  0  0  0  0  0  0  0  0  0  0  0
  -23.2163  -15.9009   26.2211 C   0  0  0  0  0  0  0  0  0  0  0  0
  -23.6263  -30.2425   23.1999 C   0  0  0  0  0  0  0  0  0  0  0  0
  -29.7123  -11.6233   20.2574 C   0  0  0  0  0  0  0  0  0  0  0  0
  -27.1669  -17.9513   21.3909 C   0  0  0  0  0  0  0  0  0  0  0  0
  -24.4144  -17.8132   22.0108 C   0  0  0  0  0  0  0  0  0  0  0  0
  -28.3696  -11.8876   20.9340 C   0  0  0  0  0  0  0  0  0  0  0  0
  -24.7651  -31.5508   20.0905 C   0  0  0  0  0  0  0  0  0  0  0  0
  -27.4115  -12.5769   19.9678 C   0  0  0  0  0  0  0  0  0  0  0  0
  -21.4176  -24.3026   23.3667 C   0  0  0  0  0  0  0  0  0  0  0  0
  -22.9774  -24.8356   21.4487 C   0  0  0  0  0  0  0  0  0  0  0  0
  -25.1299  -30.3051   19.2811 C   0  0  0  0  0  0  0  0  0  0  0  0
  -22.5449  -23.5530   24.0703 C   0  0  0  0  0  0  0  0  0  0  0  0
  -24.1003  -24.0839   22.1573 C   0  0  0  0  0  0  0  0  0  0  0  0
  -25.1035  -31.3816   21.5700 C   0  0  0  0  0  0  0  0  0  0  0  0
  -24.8969  -28.9322   21.3929 C   0  0  0  0  0  0  0  0  0  0  0  0
  -19.2554  -29.0123   23.3557 C   0  0  0  0  0  0  0  0  0  0  0  0
  -27.9597  -13.9387   19.5247 C   0  0  1  0  0  0  0  0  0  0  0  0
  -26.6040  -16.6007   21.8687 C   0  0  1  0  0  0  0  0  0  0  0  0
  -21.9601  -25.4054   22.4470 C   0  0  0  0  0  0  0  0  0  0  0  0
  -18.0031  -28.1870   23.0869 C   0  0  2  0  0  0  0  0  0  0  0  0
  -18.4983  -27.1388   22.0880 C   0  0  1  0  0  0  0  0  0  0  0  0
  -24.5226  -29.0338   19.9043 C   0  0  2  0  0  0  0  0  0  0  0  0
  -23.5561  -22.9909   23.0747 C   0  0  0  0  0  0  0  0  0  1  0  0
  -19.8332  -26.7136   22.7086 C   0  0  1  0  0  0  0  0  0  0  0  0
  -16.8525  -29.0407   22.5758 C   0  0  0  0  0  0  0  0  0  0  0  0
  -21.9300  -14.5683   27.9143 C   0  0  0  0  0  0  0  0  0  0  0  0
  -21.3628  -27.1782   20.7726 C   0  0  0  0  0  0  0  0  0  0  0  0
  -16.7333  -24.0718   20.4066 C   0  0  0  0  0  0  0  0  0  0  0  0
  -17.5285  -26.2239   19.4068 C   0  0  0  0  0  0  0  0  0  0  0  0
  -22.9380  -28.8533   26.0673 C   0  0  0  0  0  0  0  0  0  0  0  0
  -22.3276  -15.6780   21.3965 C   0  0  0  0  0  0  0  0  0  0  0  0
  -20.9138  -15.2377   23.4153 C   0  0  0  0  0  0  0  0  0  0  0  0
  -22.6051  -13.5545   22.6881 C   0  0  0  0  0  0  0  0  0  0  0  0
  -25.2314  -16.4140   28.3270 C   0  0  0  0  0  0  0  0  0  0  0  0
  -17.5373  -25.9713   21.9047 C   0  0  0  0  0  0  0  0  0  0  0  0
  -21.1489  -27.8458   24.5509 C   0  0  0  0  0  0  0  0  0  0  0  0
  -23.3820  -15.7119   23.7530 C   0  0  1  0  0  0  0  0  0  0  0  0
  -23.3013  -15.0689   27.4879 C   0  0  2  0  0  0  0  0  0  0  0  0
  -20.8181  -26.1055   21.7128 C   0  0  1  0  0  0  0  0  0  0  0  0
  -17.7099  -25.2382   20.5635 C   0  0  0  0  0  0  0  0  0  0  0  0
  -22.1732  -28.9620   24.7517 C   0  0  2  0  0  0  0  0  0  0  0  0
  -22.3246  -15.0680   22.8124 C   0  0  0  0  0  0  0  0  0  0  0  0
  -26.0099  -27.1063   19.5101 N   0  0  0  0  0  0  0  0  0  0  0  0
  -24.9158  -27.7886   19.1312 N   0  0  0  0  0  0  0  0  0  0  0  0
  -25.2207  -16.6369   22.3728 N   0  0  0  0  0  0  0  0  0  0  0  0
  -24.4964  -30.1585   22.1004 N   0  0  0  0  0  0  0  0  0  0  0  0
  -23.1576  -27.8082   17.5441 N   0  0  0  0  0  0  0  0  0  0  0  0
  -25.5501  -24.1516   16.4034 N   0  0  0  0  0  0  0  0  0  0  0  0
  -27.7628  -14.9256   20.5648 N   0  0  0  0  0  0  0  0  0  0  0  0
  -23.4203  -15.1353   25.0926 N   0  0  0  0  0  0  0  0  0  0  0  0
  -23.0894  -29.0372   23.6356 N   0  0  0  0  0  0  0  0  0  0  0  0
  -20.4006  -28.0176   23.2636 N   0  3  2  0  0  0  0  0  0  0  0  0
  -23.8735  -15.8775   28.6013 N   0  3  0  0  0  0  0  0  0  0  0  0
  -23.7202  -25.4231   15.8615 O   0  0  0  0  0  0  0  0  0  0  0  0
  -25.5768  -15.5285   20.0352 O   0  0  0  0  0  0  0  0  0  0  0  0
  -25.4691  -14.6182   23.5015 O   0  0  0  0  0  0  0  0  0  0  0  0
  -22.9879  -17.1085   26.2313 O   0  0  0  0  0  0  0  0  0  0  0  0
  -23.3442  -31.3130   23.7490 O   0  0  0  0  0  0  0  0  0  0  0  0
  -30.1583  -22.3095   18.9329 O   0  0  0  0  0  0  0  0  0  0  0  0
  -24.6273  -22.3980   23.8007 O   0  0  0  0  0  0  0  0  0  1  0  0
  -29.5091  -17.6095   16.1236 F   0  0  0  0  0  0  0  0  0  0  0  0
  -30.1430  -19.8702   20.2337 F   0  0  0  0  0  0  0  0  0  0  0  0
  1  2  1  0  0  0  0
  1  5  2  0  0  0  0
  2  6  2  0  0  0  0
  3  8  2  0  0  0  0
  3 15  1  0  0  0  0
  4  9  1  0  0  0  0
  4 15  2  0  0  0  0
  5 17  1  0  0  0  0
  6 19  1  0  0  0  0
  7 10  2  0  0  0  0
  7 18  1  0  0  0  0
  8 21  1  0  0  0  0
  9 21  2  0  0  0  0
 10 22  1  0  0  0  0
 11 12  2  0  0  0  0
 11 23  1  0  0  0  0
 12 24  1  0  0  0  0
 13 20  1  0  0  0  0
 13 22  2  0  0  0  0
 14 24  2  0  0  0  0
 14 25  1  0  0  0  0
 15 26  1  0  0  0  0
 16 26  1  0  0  0  0
 16 27  2  0  0  0  0
 16 28  1  0  0  0  0
 17 19  2  0  0  0  0
 17 33  1  0  0  0  0
 18 20  2  0  0  0  0
 18 34  1  0  0  0  0
 19 47  1  0  0  0  0
 20 35  1  0  0  0  0
 21 89  1  0  0  0  0
 22 90  1  0  0  0  0
 23 25  2  0  0  0  0
 23 89  1  0  0  0  0
 24 91  1  0  0  0  0
 25 92  1  0  0  0  0
 26 73  2  0  0  0  0
 27 74  1  0  0  0  0
 27 77  1  0  0  0  0
 28 78  1  0  0  0  0
 28 84  2  0  0  0  0
 29 48  1  0  0  0  0
 29 79  1  0  0  0  0
 29 85  2  0  0  0  0
 30 67  1  0  0  0  0
 30 75  1  0  0  0  0
 30 86  2  0  0  0  0
 31 68  1  0  0  0  0
 31 80  1  0  0  0  0
 31 87  2  0  0  0  0
 32 76  1  0  0  0  0
 32 81  1  0  0  0  0
 32 88  2  0  0  0  0
 33 36  1  0  0  0  0
 34 48  1  0  0  0  0
 35 75  1  0  0  0  0
 36 38  1  0  0  0  0
 37 41  1  0  0  0  0
 37 44  1  0  0  0  0
 38 47  1  0  0  0  0
 39 42  1  0  0  0  0
 39 49  1  0  0  0  0
 40 43  1  0  0  0  0
 40 49  1  0  0  0  0
 41 52  1  0  0  0  0
 42 53  1  0  0  0  0
 43 53  1  0  0  0  0
 44 76  1  0  0  0  0
 45 52  1  0  0  0  0
 45 76  1  0  0  0  0
 46 50  1  0  0  0  0
 46 82  1  0  0  0  0
 47 79  1  0  0  0  0
 48 75  1  0  0  0  0
 49 69  1  0  0  0  0
 50 51  1  0  0  0  0
 50 55  1  0  0  0  0
 51 54  1  0  0  0  0
 51 65  1  0  0  0  0
 52 74  1  0  0  0  0
 53 90  1  0  0  0  0
 54 69  1  0  0  0  0
 54 82  1  0  0  0  0
 56 68  1  0  0  0  0
 57 69  1  0  0  0  0
 58 70  1  0  0  0  0
 59 70  1  0  0  0  0
 60 71  1  0  0  0  0
 61 72  1  0  0  0  0
 62 72  1  0  0  0  0
 63 72  1  0  0  0  0
 64 83  1  0  0  0  0
 65 70  1  0  0  0  0
 66 71  1  0  0  0  0
 66 82  1  0  0  0  0
 67 72  1  0  0  0  0
 67 80  1  0  0  0  0
 68 83  1  0  0  0  0
 71 81  1  0  0  0  0
 73 74  1  0  0  0  0
M  CHG  2  82   1  83   1
M  ISO  4  32 100  53 101  81 100  90 101
M  END
> <Batch ID>
0148

> <Smiles>
CNC(C)C(=O)NC(C(=O)N1Cc2cc([101O:1][101CH:1]3CCC(C(C)C4C(CC(C)C)C(C)CN4CC(C)[100NH:0][100C:0](=O)N4CCCC(n5nc(-c6ccc(Oc7ccc(F)cc7F)cc6)c(C(N)=O)c5N)C4)CC3)ccc2CC1C(=O)NC1CCCc2ccccc21)C(C)(C)C

> <Shape>
0.220

> <Color>
0.075

> <Negative vol penalty>
0.000

$$$$

  -OEChem-04052321363D

 91100  0     1  0  0  0  0  0999 V2000
  -20.4221  -27.6060   12.7914 C   0  0  0  0  0  0  0  0  0  0  0  0
  -19.4480  -27.5909   13.7844 C   0  0  0  0  0  0  0  0  0  0  0  0
  -23.8567   -9.8237   22.1367 C   0  0  0  0  0  0  0  0  0  0  0  0
  -22.3436  -10.2067   20.2925 C   0  0  0  0  0  0  0  0  0  0  0  0
  -21.7607  -27.4064   13.1264 C   0  0  0  0  0  0  0  0  0  0  0  0
  -19.8118  -27.3751   15.1132 C   0  0  0  0  0  0  0  0  0  0  0  0
  -17.9415  -29.2062   21.7814 C   0  0  0  0  0  0  0  0  0  0  0  0
  -23.5174   -8.4708   22.1342 C   0  0  0  0  0  0  0  0  0  0  0  0
  -22.0043   -8.8537   20.2899 C   0  0  0  0  0  0  0  0  0  0  0  0
  -17.6290  -28.6262   23.0101 C   0  0  0  0  0  0  0  0  0  0  0  0
  -20.9719   -6.5397   23.2366 C   0  0  0  0  0  0  0  0  0  0  0  0
  -15.2489  -24.2674   25.1167 C   0  0  0  0  0  0  0  0  0  0  0  0
  -20.7135   -5.9348   24.4666 C   0  0  0  0  0  0  0  0  0  0  0  0
  -15.7189  -23.4928   24.0620 C   0  0  0  0  0  0  0  0  0  0  0  0
  -19.9812  -28.3721   23.4815 C   0  0  0  0  0  0  0  0  0  0  0  0
  -22.5200   -4.3777   24.0804 C   0  0  0  0  0  0  0  0  0  0  0  0
  -23.2698  -10.6917   21.2158 C   0  0  0  0  0  0  0  0  0  0  0  0
  -24.6571  -12.7075   20.4950 C   0  0  0  0  0  0  0  0  0  0  0  0
  -22.1422  -27.1977   14.4612 C   0  0  0  0  0  0  0  0  0  0  0  0
  -19.2783  -29.3638   21.3882 C   0  0  0  0  0  0  0  0  0  0  0  0
  -21.1566  -27.1712   15.4663 C   0  0  0  0  0  0  0  0  0  0  0  0
  -20.3080  -28.9567   22.2484 C   0  0  0  0  0  0  0  0  0  0  0  0
  -22.5912   -7.9858   21.2108 C   0  0  0  0  0  0  0  0  0  0  0  0
  -18.6489  -28.2064   23.8591 C   0  0  0  0  0  0  0  0  0  0  0  0
  -22.0043   -6.0635   22.4284 C   0  0  0  0  0  0  0  0  0  0  0  0
  -16.1476  -24.9783   25.9042 C   0  0  0  0  0  0  0  0  0  0  0  0
  -21.4875   -4.8539   24.8885 C   0  0  0  0  0  0  0  0  0  0  0  0
  -22.7783   -4.9826   22.8504 C   0  0  0  0  0  0  0  0  0  0  0  0
  -23.6194  -12.0895   21.2183 C   0  0  0  0  0  0  0  0  0  0  0  0
  -17.4955  -24.8820   25.5981 C   0  0  0  0  0  0  0  0  0  0  0  0
  -17.0860  -23.4631   23.8382 C   0  0  0  0  0  0  0  0  0  0  0  0
  -24.5723  -14.0345   20.8390 C   0  0  0  0  0  0  0  0  0  0  0  0
  -25.6121  -12.1334   19.5928 C   0  0  0  0  0  0  0  0  0  0  0  0
  -21.0571  -28.2631   18.9948 C   0  0  0  0  0  0  0  0  0  0  0  0
  -23.2757  -30.2808   20.2315 C   0  0  0  0  0  0  0  0  0  0  0  0
  -24.4375  -32.0007   22.9405 C   0  0  0  0  0  0  0  0  0  0  0  0
  -21.8436  -18.5740   21.7401 C   0  0  0  0  0  0  0  0  0  0  0  0
  -23.5960  -26.9396   14.7688 C   0  0  0  0  0  0  0  0  0  0  0  0
  -19.5991  -30.0158   20.0712 C   0  0  0  0  0  0  0  0  0  0  0  0
  -21.7594  -29.1221   21.8819 C   0  0  0  0  0  0  0  0  0  0  0  0
  -23.9418  -27.0907   16.2479 C   0  0  0  0  0  0  0  0  0  0  0  0
  -21.9093  -16.3448   24.4564 C   0  0  0  0  0  0  0  0  0  0  0  0
  -22.9141  -26.3679   17.1129 C   0  0  0  0  0  0  0  0  0  0  0  0
  -22.4471  -15.0761   23.7953 C   0  0  0  0  0  0  0  0  0  0  0  0
  -18.8187  -20.3682   21.6548 C   0  0  0  0  0  0  0  0  0  0  0  0
  -20.9091  -17.0777   23.5607 C   0  0  0  0  0  0  0  0  0  0  0  0
  -19.7109  -19.6049   22.6367 C   0  0  0  0  0  0  0  0  0  0  0  0
  -21.6404  -21.0267   22.0173 C   0  0  0  0  0  0  0  0  0  0  0  0
  -21.9627  -16.1075   21.5436 C   0  0  0  0  0  0  0  0  0  0  0  0
  -21.5146  -26.9650   16.9221 C   0  0  1  0  0  0  0  0  0  0  0  0
  -20.9873  -29.6577   19.5497 C   0  0  1  0  0  0  0  0  0  0  0  0
  -19.2941  -21.8107   21.4044 C   0  0  2  0  0  0  0  0  0  0  0  0
  -20.7900  -21.8032   21.0028 C   0  0  1  0  0  0  0  0  0  0  0  0
  -23.0132  -15.3795   22.3966 C   0  0  2  0  0  0  0  0  0  0  0  0
  -21.3595  -23.2056   20.7881 C   0  0  0  0  0  0  0  0  0  0  0  0
  -18.8713  -23.7285   28.0967 C   0  0  0  0  0  0  0  0  0  0  0  0
  -26.2919  -33.5338   23.6534 C   0  0  0  0  0  0  0  0  0  0  0  0
  -25.1939  -27.9101   20.3309 C   0  0  0  0  0  0  0  0  0  0  0  0
  -26.6408  -29.2353   21.8861 C   0  0  0  0  0  0  0  0  0  0  0  0
  -26.2263  -30.0561   19.5672 C   0  0  0  0  0  0  0  0  0  0  0  0
  -22.5413  -34.1719   23.6110 C   0  0  0  0  0  0  0  0  0  0  0  0
  -14.2888  -25.7644   27.1623 C   0  0  0  0  0  0  0  0  0  0  0  0
  -18.9753  -22.7032   22.6099 C   0  0  0  0  0  0  0  0  0  0  0  0
  -19.5292  -24.7023   27.1262 C   0  0  0  0  0  0  0  0  0  0  0  0
  -19.2675  -26.6767   25.5719 C   0  0  0  0  0  0  0  0  0  1  0  0
  -18.5021  -25.6258   26.4132 C   0  0  1  0  0  0  0  0  0  0  0  0
  -24.3630  -30.1660   21.2724 C   0  0  1  0  0  0  0  0  0  0  0  0
  -24.8765  -33.4446   23.1044 C   0  0  2  0  0  0  0  0  0  0  0  0
  -25.5787  -29.3368   20.7705 C   0  0  0  0  0  0  0  0  0  0  0  0
  -22.9265  -12.9529   21.9655 N   0  0  0  0  0  0  0  0  0  0  0  0
  -17.9896  -24.1400   24.5818 N   0  0  0  0  0  0  0  0  0  0  0  0
  -23.5299  -14.1270   21.7136 N   0  0  0  0  0  0  0  0  0  0  0  0
  -22.0220  -29.7592   20.5809 N   0  0  0  0  0  0  0  0  0  0  0  0
  -21.4782  -17.3095   22.2257 N   0  0  0  0  0  0  0  0  0  0  0  0
  -21.1179  -19.6747   22.2212 N   0  0  0  0  0  0  0  0  0  0  0  0
  -25.2886  -15.1196   20.4757 N   0  0  0  0  0  0  0  0  0  0  0  0
  -25.5581  -10.7538   19.3517 N   0  0  0  0  0  0  0  0  0  0  0  0
  -21.3907  -28.2067   17.6551 N   0  0  0  0  0  0  0  0  0  0  0  0
  -24.6933  -31.5303   21.6699 N   0  0  0  0  0  0  0  0  0  0  0  0
  -23.9636  -34.1606   24.0398 N   0  3  0  0  0  0  0  0  0  0  0  0
  -26.4979  -12.8207   19.0302 O   0  0  0  0  0  0  0  0  0  0  0  0
  -20.8268  -27.3088   19.7283 O   0  0  0  0  0  0  0  0  0  0  0  0
  -23.5274  -30.8199   19.1509 O   0  0  0  0  0  0  0  0  0  0  0  0
  -23.9228  -31.3537   23.8498 O   0  0  0  0  0  0  0  0  0  0  0  0
  -22.7640  -18.7119   20.9246 O   0  0  0  0  0  0  0  0  0  0  0  0
  -22.2601   -6.6656   21.2079 O   0  0  0  0  0  0  0  0  0  0  0  0
  -15.6990  -25.7373   26.9364 O   0  0  0  0  0  0  0  0  0  0  0  0
  -18.3447  -27.6356   25.0665 O   0  0  0  0  0  0  0  0  0  1  0  0
  -17.5750  -22.7046   22.8020 O   0  0  0  0  0  0  0  0  0  0  0  0
  -21.2402   -4.2741   26.0704 F   0  0  0  0  0  0  0  0  0  0  0  0
  -23.7723   -4.5214   22.0789 F   0  0  0  0  0  0  0  0  0  0  0  0
  1  2  1  0  0  0  0
  1  5  2  0  0  0  0
  2  6  2  0  0  0  0
  3  8  2  0  0  0  0
  3 17  1  0  0  0  0
  4  9  1  0  0  0  0
  4 17  2  0  0  0  0
  5 19  1  0  0  0  0
  6 21  1  0  0  0  0
  7 10  2  0  0  0  0
  7 20  1  0  0  0  0
  8 23  1  0  0  0  0
  9 23  2  0  0  0  0
 10 24  1  0  0  0  0
 11 13  2  0  0  0  0
 11 25  1  0  0  0  0
 12 14  2  0  0  0  0
 12 26  1  0  0  0  0
 13 27  1  0  0  0  0
 14 31  1  0  0  0  0
 15 22  1  0  0  0  0
 15 24  2  0  0  0  0
 16 27  2  0  0  0  0
 16 28  1  0  0  0  0
 17 29  1  0  0  0  0
 18 29  1  0  0  0  0
 18 32  2  0  0  0  0
 18 33  1  0  0  0  0
 19 21  2  0  0  0  0
 19 38  1  0  0  0  0
 20 22  2  0  0  0  0
 20 39  1  0  0  0  0
 21 50  1  0  0  0  0
 22 40  1  0  0  0  0
 23 86  1  0  0  0  0
 24 88  1  0  0  0  0
 25 28  2  0  0  0  0
 25 86  1  0  0  0  0
 26 30  2  0  0  0  0
 26 87  1  0  0  0  0
 27 90  1  0  0  0  0
 28 91  1  0  0  0  0
 29 70  2  0  0  0  0
 30 66  1  0  0  0  0
 30 71  1  0  0  0  0
 31 71  2  0  0  0  0
 31 89  1  0  0  0  0
 32 72  1  0  0  0  0
 32 76  1  0  0  0  0
 33 77  1  0  0  0  0
 33 81  2  0  0  0  0
 34 51  1  0  0  0  0
 34 78  1  0  0  0  0
 34 82  2  0  0  0  0
 35 67  1  0  0  0  0
 35 73  1  0  0  0  0
 35 83  2  0  0  0  0
 36 68  1  0  0  0  0
 36 79  1  0  0  0  0
 36 84  2  0  0  0  0
 37 74  1  0  0  0  0
 37 75  1  0  0  0  0
 37 85  2  0  0  0  0
 38 41  1  0  0  0  0
 39 51  1  0  0  0  0
 40 73  1  0  0  0  0
 41 43  1  0  0  0  0
 42 44  1  0  0  0  0
 42 46  1  0  0  0  0
 43 50  1  0  0  0  0
 44 54  1  0  0  0  0
 45 47  1  0  0  0  0
 45 52  1  0  0  0  0
 46 74  1  0  0  0  0
 47 75  1  0  0  0  0
 48 53  1  0  0  0  0
 48 75  1  0  0  0  0
 49 54  1  0  0  0  0
 49 74  1  0  0  0  0
 50 78  1  0  0  0  0
 51 73  1  0  0  0  0
 52 53  1  0  0  0  0
 52 63  1  0  0  0  0
 53 55  1  0  0  0  0
 54 72  1  0  0  0  0
 56 64  1  0  0  0  0
 57 68  1  0  0  0  0
 58 69  1  0  0  0  0
 59 69  1  0  0  0  0
 60 69  1  0  0  0  0
 61 80  1  0  0  0  0
 62 87  1  0  0  0  0
 63 89  1  0  0  0  0
 64 66  1  0  0  0  0
 65 66  1  0  0  0  0
 65 88  1  0  0  0  0
 67 69  1  0  0  0  0
 67 79  1  0  0  0  0
 68 80  1  0  0  0  0
 70 72  1  0  0  0  0
M  CHG  1  80   1
M  ISO  4  37 100  65 101  75 100  88 101
M  END
> <Batch ID>
0148

> <Smiles>
CCC(c1nc(OCC2CC[100N:0]([100C:0](=O)N3CCCC(n4nc(-c5ccc(Oc6ccc(F)cc6F)cc5)c(C(N)=O)c4N)C3)CC2C)ccc1OC)[101CH2:1][101O:1]c1ccc2c(c1)CN(C(=O)C(NC(=O)C(C)NC)C(C)(C)C)C(C(=O)NC1CCCc3ccccc31)C2

> <Shape>
0.215

> <Color>
0.102

> <Negative vol penalty>
0.000

$$$$

  -OEChem-04052321363D

 85 94  0     1  0  0  0  0  0999 V2000
  -23.9768  -35.9404   27.9670 C   0  0  0  0  0  0  0  0  0  0  0  0
  -23.4608  -34.6570   28.1152 C   0  0  0  0  0  0  0  0  0  0  0  0
  -23.0614   -9.7533   20.3252 C   0  0  0  0  0  0  0  0  0  0  0  0
  -23.7195  -10.1810   22.6101 C   0  0  0  0  0  0  0  0  0  0  0  0
  -24.3826  -36.3865   26.7099 C   0  0  0  0  0  0  0  0  0  0  0  0
  -23.3492  -33.8193   27.0061 C   0  0  0  0  0  0  0  0  0  0  0  0
  -26.6792  -27.4339   26.8320 C   0  0  0  0  0  0  0  0  0  0  0  0
  -22.3095   -8.6569   20.7470 C   0  0  0  0  0  0  0  0  0  0  0  0
  -22.9675   -9.0845   23.0320 C   0  0  0  0  0  0  0  0  0  0  0  0
  -27.1130  -26.1083   26.8089 C   0  0  0  0  0  0  0  0  0  0  0  0
  -23.2892   -5.7195   23.0964 C   0  0  0  0  0  0  0  0  0  0  0  0
  -23.8744   -4.8465   24.0134 C   0  0  0  0  0  0  0  0  0  0  0  0
  -26.2687  -25.8601   24.5564 C   0  0  0  0  0  0  0  0  0  0  0  0
  -22.0991   -5.3081   25.5858 C   0  0  0  0  0  0  0  0  0  0  0  0
  -23.7665  -10.5154   21.2568 C   0  0  0  0  0  0  0  0  0  0  0  0
  -24.1084  -12.9808   20.6978 C   0  0  0  0  0  0  0  0  0  0  0  0
  -24.2849  -35.5504   25.5866 C   0  0  0  0  0  0  0  0  0  0  0  0
  -26.0515  -27.9830   25.7104 C   0  0  0  0  0  0  0  0  0  0  0  0
  -23.7528  -34.2550   25.7326 C   0  0  0  0  0  0  0  0  0  0  0  0
  -25.8432  -27.1911   24.5692 C   0  0  0  0  0  0  0  0  0  0  0  0
  -22.2625   -8.3225   22.1003 C   0  0  0  0  0  0  0  0  0  0  0  0
  -26.9080  -25.3233   25.6740 C   0  0  0  0  0  0  0  0  0  0  0  0
  -22.1089   -6.3869   23.4241 C   0  0  0  0  0  0  0  0  0  0  0  0
  -23.2794   -4.6408   25.2581 C   0  0  0  0  0  0  0  0  0  0  0  0
  -21.5139   -6.1812   24.6688 C   0  0  0  0  0  0  0  0  0  0  0  0
  -24.5438  -11.6479   20.8216 C   0  0  0  0  0  0  0  0  0  0  0  0
  -25.2140  -13.6633   20.2525 C   0  0  0  0  0  0  0  0  0  0  0  0
  -22.8196  -13.5512   20.9617 C   0  0  0  0  0  0  0  0  0  0  0  0
  -24.4569  -30.9951   24.1419 C   0  0  0  0  0  0  0  0  0  0  0  0
  -26.1519  -29.6502   21.9674 C   0  0  0  0  0  0  0  0  0  0  0  0
  -28.4604  -28.1089   19.9843 C   0  0  0  0  0  0  0  0  0  0  0  0
  -30.6821  -14.7536   20.4894 C   0  0  0  0  0  0  0  0  0  0  0  0
  -24.6924  -36.0934   24.2398 C   0  0  0  0  0  0  0  0  0  0  0  0
  -25.5129  -29.3879   25.7130 C   0  0  0  0  0  0  0  0  0  0  0  0
  -25.1326  -27.8137   23.3986 C   0  0  0  0  0  0  0  0  0  0  0  0
  -24.8896  -35.0115   23.1811 C   0  0  0  0  0  0  0  0  0  0  0  0
  -29.6554  -11.9669   18.5255 C   0  0  0  0  0  0  0  0  0  0  0  0
  -23.7277  -34.0236   23.2044 C   0  0  0  0  0  0  0  0  0  0  0  0
  -31.0968  -19.3783   20.3199 C   0  0  0  0  0  0  0  0  0  0  0  0
  -30.8338  -19.1213   22.8204 C   0  0  0  0  0  0  0  0  0  0  0  0
  -29.6432  -22.4136   23.1690 C   0  0  0  0  0  0  0  0  0  0  0  0
  -27.2807  -21.5994   22.7791 C   0  0  0  0  0  0  0  0  0  0  0  0
  -28.2009  -11.7418   18.9422 C   0  0  0  0  0  0  0  0  0  0  0  0
  -30.4645  -18.0021   20.1097 C   0  0  0  0  0  0  0  0  0  0  0  0
  -30.2017  -17.7443   22.6146 C   0  0  0  0  0  0  0  0  0  0  0  0
  -29.1903  -23.1011   24.4535 C   0  0  0  0  0  0  0  0  0  0  0  0
  -26.8342  -22.2898   24.0644 C   0  0  0  0  0  0  0  0  0  0  0  0
  -30.5183  -12.4096   19.7051 C   0  0  0  0  0  0  0  0  0  0  0  0
  -28.5559  -13.3598   20.8539 C   0  0  0  0  0  0  0  0  0  0  0  0
  -23.6391  -33.3079   24.5578 C   0  0  1  0  0  0  0  0  0  0  0  0
  -25.6299  -30.0816   24.3440 C   0  0  1  0  0  0  0  0  0  0  0  0
  -30.6422  -20.0583   21.6193 C   0  0  0  0  0  0  0  0  0  0  0  0
  -28.7622  -21.2014   22.8360 C   0  0  0  0  0  0  0  0  0  0  0  0
  -27.6349  -12.9662   19.6864 C   0  0  2  0  0  0  0  0  0  0  0  0
  -30.6892  -17.0924   21.3194 C   0  0  0  0  0  0  0  0  0  0  0  0
  -27.7161  -23.4923   24.3945 C   0  0  0  0  0  0  0  0  0  1  0  0
  -29.4658  -28.2104   17.6873 C   0  0  0  0  0  0  0  0  0  0  0  0
  -29.0556  -21.5539   20.3675 C   0  0  0  0  0  0  0  0  0  0  0  0
  -23.6277  -28.3877   20.8108 C   0  0  0  0  0  0  0  0  0  0  0  0
  -24.9830  -27.6573   18.8365 C   0  0  0  0  0  0  0  0  0  0  0  0
  -24.7156  -30.0871   19.3334 C   0  0  0  0  0  0  0  0  0  0  0  0
  -31.1705  -28.6028   21.0661 C   0  0  0  0  0  0  0  0  0  0  0  0
  -26.1937  -28.6734   20.8196 C   0  0  1  0  0  0  0  0  0  0  0  0
  -29.5889  -28.6634   19.1338 C   0  0  2  0  0  0  0  0  0  0  0  0
  -29.1997  -20.5622   21.5195 C   0  0  1  0  0  0  0  0  0  0  0  0
  -24.8875  -28.6937   19.9764 C   0  0  0  0  0  0  0  0  0  0  0  0
  -25.8261  -11.4907   20.4823 N   0  0  0  0  0  0  0  0  0  0  0  0
  -26.2058  -12.7338   20.1407 N   0  0  0  0  0  0  0  0  0  0  0  0
  -25.6293  -29.1810   23.1786 N   0  0  0  0  0  0  0  0  0  0  0  0
  -29.9273  -13.5754   20.3664 N   0  0  0  0  0  0  0  0  0  0  0  0
  -25.4248  -14.9618   19.9494 N   0  0  0  0  0  0  0  0  0  0  0  0
  -21.7956  -12.7077   21.4137 N   0  0  0  0  0  0  0  0  0  0  0  0
  -24.6419  -32.2682   24.6463 N   0  0  0  0  0  0  0  0  0  0  0  0
  -27.3997  -28.9866   20.0607 N   0  0  0  0  0  0  0  0  0  0  0  0
  -30.0447  -15.8130   21.1234 N   0  0  0  0  0  0  0  0  0  0  0  0
  -30.9064  -28.2058   19.6591 N   0  3  0  0  0  0  0  0  0  0  0  0
  -22.5787  -14.7696   20.7858 O   0  0  0  0  0  0  0  0  0  0  0  0
  -23.4573  -30.5773   23.5692 O   0  0  0  0  0  0  0  0  0  0  0  0
  -26.5656  -30.8004   21.7959 O   0  0  0  0  0  0  0  0  0  0  0  0
  -28.5129  -27.0058   20.5237 O   0  0  0  0  0  0  0  0  0  0  0  0
  -31.8366  -14.8556   20.0608 O   0  0  0  0  0  0  0  0  0  0  0  0
  -21.5287   -7.2527   22.5123 O   0  0  0  0  0  0  0  0  0  0  0  0
  -27.3380  -24.0312   25.6565 O   0  0  0  0  0  0  0  0  0  1  0  0
  -23.8407   -3.8012   26.1380 F   0  0  0  0  0  0  0  0  0  0  0  0
  -20.3794   -6.8185   24.9888 F   0  0  0  0  0  0  0  0  0  0  0  0
  1  2  1  0  0  0  0
  1  5  2  0  0  0  0
  2  6  2  0  0  0  0
  3  8  2  0  0  0  0
  3 15  1  0  0  0  0
  4  9  1  0  0  0  0
  4 15  2  0  0  0  0
  5 17  1  0  0  0  0
  6 19  1  0  0  0  0
  7 10  2  0  0  0  0
  7 18  1  0  0  0  0
  8 21  1  0  0  0  0
  9 21  2  0  0  0  0
 10 22  1  0  0  0  0
 11 12  2  0  0  0  0
 11 23  1  0  0  0  0
 12 24  1  0  0  0  0
 13 20  1  0  0  0  0
 13 22  2  0  0  0  0
 14 24  2  0  0  0  0
 14 25  1  0  0  0  0
 15 26  1  0  0  0  0
 16 26  1  0  0  0  0
 16 27  2  0  0  0  0
 16 28  1  0  0  0  0
 17 19  2  0  0  0  0
 17 33  1  0  0  0  0
 18 20  2  0  0  0  0
 18 34  1  0  0  0  0
 19 50  1  0  0  0  0
 20 35  1  0  0  0  0
 21 82  1  0  0  0  0
 22 83  1  0  0  0  0
 23 25  2  0  0  0  0
 23 82  1  0  0  0  0
 24 84  1  0  0  0  0
 25 85  1  0  0  0  0
 26 67  2  0  0  0  0
 27 68  1  0  0  0  0
 27 71  1  0  0  0  0
 28 72  1  0  0  0  0
 28 77  2  0  0  0  0
 29 51  1  0  0  0  0
 29 73  1  0  0  0  0
 29 78  2  0  0  0  0
 30 63  1  0  0  0  0
 30 69  1  0  0  0  0
 30 79  2  0  0  0  0
 31 64  1  0  0  0  0
 31 74  1  0  0  0  0
 31 80  2  0  0  0  0
 32 70  1  0  0  0  0
 32 75  1  0  0  0  0
 32 81  2  0  0  0  0
 33 36  1  0  0  0  0
 34 51  1  0  0  0  0
 35 69  1  0  0  0  0
 36 38  1  0  0  0  0
 37 43  1  0  0  0  0
 37 48  1  0  0  0  0
 38 50  1  0  0  0  0
 39 44  1  0  0  0  0
 39 52  1  0  0  0  0
 40 45  1  0  0  0  0
 40 52  1  0  0  0  0
 41 46  1  0  0  0  0
 41 53  1  0  0  0  0
 42 47  1  0  0  0  0
 42 53  1  0  0  0  0
 43 54  1  0  0  0  0
 44 55  1  0  0  0  0
 45 55  1  0  0  0  0
 46 56  1  0  0  0  0
 47 56  1  0  0  0  0
 48 70  1  0  0  0  0
 49 54  1  0  0  0  0
 49 70  1  0  0  0  0
 50 73  1  0  0  0  0
 51 69  1  0  0  0  0
 52 65  1  0  0  0  0
 53 65  1  0  0  0  0
 54 68  1  0  0  0  0
 55 75  1  0  0  0  0
 56 83  1  0  0  0  0
 57 64  1  0  0  0  0
 58 65  1  0  0  0  0
 59 66  1  0  0  0  0
 60 66  1  0  0  0  0
 61 66  1  0  0  0  0
 62 76  1  0  0  0  0
 63 66  1  0  0  0  0
 63 74  1  0  0  0  0
 64 76  1  0  0  0  0
 67 68  1  0  0  0  0
M  CHG  1  76   1
M  ISO  4  32 100  56 101  75 100  83 101
M  END
> <Batch ID>
0148

> <Smiles>
CNC(C)C(=O)NC(C(=O)N1Cc2cc([101O:1][101CH:1]3CCC(C(C)C4CCC([100NH:0][100C:0](=O)N5CCCC(n6nc(-c7ccc(Oc8ccc(F)cc8F)cc7)c(C(N)=O)c6N)C5)CC4)CC3)ccc2CC1C(=O)NC1CCCc2ccccc21)C(C)(C)C

> <Shape>
0.317

> <Color>
0.191

> <Negative vol penalty>
0.000

$$$$

  -OEChem-04052321363D

 83 91  0     1  0  0  0  0  0999 V2000
  -28.0859  -37.1520   19.9392 C   0  0  0  0  0  0  0  0  0  0  0  0
  -28.4455  -35.8335   19.6792 C   0  0  0  0  0  0  0  0  0  0  0  0
  -24.6067   -9.0323   21.1919 C   0  0  0  0  0  0  0  0  0  0  0  0
  -22.8374  -10.6416   20.8504 C   0  0  0  0  0  0  0  0  0  0  0  0
  -27.2652  -37.4481   21.0268 C   0  0  0  0  0  0  0  0  0  0  0  0
  -27.9855  -34.8103   20.5074 C   0  0  0  0  0  0  0  0  0  0  0  0
  -26.5011  -29.1084   18.8367 C   0  0  0  0  0  0  0  0  0  0  0  0
  -23.6578   -8.0222   21.3489 C   0  0  0  0  0  0  0  0  0  0  0  0
  -21.8884   -9.6314   21.0074 C   0  0  0  0  0  0  0  0  0  0  0  0
  -27.1994  -27.9030   18.8920 C   0  0  0  0  0  0  0  0  0  0  0  0
  -21.5749   -6.9164   23.7704 C   0  0  0  0  0  0  0  0  0  0  0  0
  -21.7498   -6.0224   24.8266 C   0  0  0  0  0  0  0  0  0  0  0  0
  -26.1157  -27.3781   20.9823 C   0  0  0  0  0  0  0  0  0  0  0  0
  -27.3727  -20.2088   21.8729 C   0  0  0  0  0  0  0  0  0  0  0  0
  -27.1406  -19.2936   19.6491 C   0  0  0  0  0  0  0  0  0  0  0  0
  -21.8655   -4.1899   23.2563 C   0  0  0  0  0  0  0  0  0  0  0  0
  -24.1966  -10.3420   20.9427 C   0  0  0  0  0  0  0  0  0  0  0  0
  -25.7857  -11.8017   19.5820 C   0  0  0  0  0  0  0  0  0  0  0  0
  -26.7870  -36.4269   21.8630 C   0  0  0  0  0  0  0  0  0  0  0  0
  -25.6115  -29.4633   19.8610 C   0  0  0  0  0  0  0  0  0  0  0  0
  -27.1587  -35.0931   21.6079 C   0  0  0  0  0  0  0  0  0  0  0  0
  -25.4055  -28.5874   20.9364 C   0  0  0  0  0  0  0  0  0  0  0  0
  -27.2129  -21.4960   21.3599 C   0  0  0  0  0  0  0  0  0  0  0  0
  -26.9808  -20.5808   19.1360 C   0  0  0  0  0  0  0  0  0  0  0  0
  -27.0170  -21.6820   19.9915 C   0  0  0  0  0  0  0  0  0  0  0  0
  -27.3365  -19.1076   21.0175 C   0  0  0  0  0  0  0  0  0  0  0  0
  -22.2986   -8.3217   21.2566 C   0  0  0  0  0  0  0  0  0  0  0  0
  -27.0089  -27.0389   19.9663 C   0  0  0  0  0  0  0  0  0  0  0  0
  -21.5452   -6.4472   22.4571 C   0  0  0  0  0  0  0  0  0  0  0  0
  -21.8952   -4.6591   24.5696 C   0  0  0  0  0  0  0  0  0  0  0  0
  -21.6906   -5.0840   22.2000 C   0  0  0  0  0  0  0  0  0  0  0  0
  -25.1764  -11.3860   20.7810 C   0  0  0  0  0  0  0  0  0  0  0  0
  -26.6327  -12.8146   19.9604 C   0  0  0  0  0  0  0  0  0  0  0  0
  -25.6023  -11.3159   18.2456 C   0  0  0  0  0  0  0  0  0  0  0  0
  -25.4496  -31.8371   21.9688 C   0  0  0  0  0  0  0  0  0  0  0  0
  -22.5826  -30.4942   22.6754 C   0  0  0  0  0  0  0  0  0  0  0  0
  -20.6030  -27.7143   22.6603 C   0  0  0  0  0  0  0  0  0  0  0  0
  -27.6998  -17.4401   22.8706 C   0  0  0  0  0  0  0  0  0  0  0  0
  -25.9410  -36.8008   23.0543 C   0  0  0  0  0  0  0  0  0  0  0  0
  -24.8459  -30.7550   19.7732 C   0  0  0  0  0  0  0  0  0  0  0  0
  -24.4465  -28.9125   22.0514 C   0  0  0  0  0  0  0  0  0  0  0  0
  -25.1904  -35.6191   23.6631 C   0  0  0  0  0  0  0  0  0  0  0  0
  -28.1047  -14.3320   24.5596 C   0  0  0  0  0  0  0  0  0  0  0  0
  -26.1216  -34.4219   23.8260 C   0  0  0  0  0  0  0  0  0  0  0  0
  -27.4291  -13.3227   23.6285 C   0  0  0  0  0  0  0  0  0  0  0  0
  -27.3646  -15.6682   24.5803 C   0  0  0  0  0  0  0  0  0  0  0  0
  -26.4513  -15.2575   22.3295 C   0  0  0  0  0  0  0  0  0  0  0  0
  -26.6596  -33.9529   22.4687 C   0  0  1  0  0  0  0  0  0  0  0  0
  -24.3509  -31.2496   21.1288 C   0  0  1  0  0  0  0  0  0  0  0  0
  -27.1976  -13.9174   22.2255 C   0  0  2  0  0  0  0  0  0  0  0  0
  -27.2563  -22.6584   22.2970 C   0  0  0  0  0  0  0  0  0  0  0  0
  -26.7723  -20.7527   17.6670 C   0  0  0  0  0  0  0  0  0  0  0  0
  -18.3227  -26.9161   23.3388 C   0  0  0  0  0  0  0  0  0  0  0  0
  -23.4836  -30.4049   25.5892 C   0  0  0  0  0  0  0  0  0  0  0  0
  -21.6323  -28.7806   26.0392 C   0  0  0  0  0  0  0  0  0  0  0  0
  -21.1013  -31.0881   25.2544 C   0  0  0  0  0  0  0  0  0  0  0  0
  -19.8821  -27.0385   19.8705 C   0  0  0  0  0  0  0  0  0  0  0  0
  -28.1515  -23.7186   18.9572 C   0  0  0  0  0  0  0  0  0  0  0  0
  -28.0502  -25.2268   18.7619 C   0  0  0  0  0  0  0  0  0  1  0  0
  -26.8434  -23.0763   19.4360 C   0  0  1  0  0  0  0  0  0  0  0  0
  -22.1083  -29.4289   23.6342 C   0  0  1  0  0  0  0  0  0  0  0  0
  -19.1663  -27.5032   22.2179 C   0  0  2  0  0  0  0  0  0  0  0  0
  -22.1009  -29.9201   25.1094 C   0  0  0  0  0  0  0  0  0  0  0  0
  -25.6004  -12.0781   21.8418 N   0  0  0  0  0  0  0  0  0  0  0  0
  -26.4852  -12.9389   21.3106 N   0  0  0  0  0  0  0  0  0  0  0  0
  -23.7262  -30.1900   21.9233 N   0  0  0  0  0  0  0  0  0  0  0  0
  -27.1854  -16.1728   23.2172 N   0  0  0  0  0  0  0  0  0  0  0  0
  -27.4818  -13.6020   19.2667 N   0  0  0  0  0  0  0  0  0  0  0  0
  -24.6933  -10.2704   18.0336 N   0  0  0  0  0  0  0  0  0  0  0  0
  -27.4977  -17.7998   21.5385 N   0  0  0  0  0  0  0  0  0  0  0  0
  -25.6537  -33.1882   21.7632 N   0  0  0  0  0  0  0  0  0  0  0  0
  -20.8063  -28.9893   23.1443 N   0  0  0  0  0  0  0  0  0  0  0  0
  -19.1138  -26.5739   21.0540 N   0  3  0  0  0  0  0  0  0  0  0  0
  -26.2382  -11.7836   17.2707 O   0  0  0  0  0  0  0  0  0  0  0  0
  -26.0654  -31.1181   22.7469 O   0  0  0  0  0  0  0  0  0  0  0  0
  -21.9572  -31.5541   22.5915 O   0  0  0  0  0  0  0  0  0  0  0  0
  -21.4584  -26.8348   22.5874 O   0  0  0  0  0  0  0  0  0  0  0  0
  -28.3011  -18.1420   23.6877 O   0  0  0  0  0  0  0  0  0  0  0  0
  -25.9302  -23.0043   18.3396 O   0  0  0  0  0  0  0  0  0  0  0  0
  -21.3723   -7.3362   21.4095 O   0  0  0  0  0  0  0  0  0  0  0  0
  -27.6897  -25.8620   20.0230 O   0  0  0  0  0  0  0  0  0  1  0  0
  -22.0647   -3.8008   25.5839 F   0  0  0  0  0  0  0  0  0  0  0  0
  -21.6641   -4.6275   20.9404 F   0  0  0  0  0  0  0  0  0  0  0  0
  1  2  1  0  0  0  0
  1  5  2  0  0  0  0
  2  6  2  0  0  0  0
  3  8  2  0  0  0  0
  3 17  1  0  0  0  0
  4  9  1  0  0  0  0
  4 17  2  0  0  0  0
  5 19  1  0  0  0  0
  6 21  1  0  0  0  0
  7 10  2  0  0  0  0
  7 20  1  0  0  0  0
  8 27  1  0  0  0  0
  9 27  2  0  0  0  0
 10 28  1  0  0  0  0
 11 12  2  0  0  0  0
 11 29  1  0  0  0  0
 12 30  1  0  0  0  0
 13 22  1  0  0  0  0
 13 28  2  0  0  0  0
 14 23  2  0  0  0  0
 14 26  1  0  0  0  0
 15 24  1  0  0  0  0
 15 26  2  0  0  0  0
 16 30  2  0  0  0  0
 16 31  1  0  0  0  0
 17 32  1  0  0  0  0
 18 32  1  0  0  0  0
 18 33  2  0  0  0  0
 18 34  1  0  0  0  0
 19 21  2  0  0  0  0
 19 39  1  0  0  0  0
 20 22  2  0  0  0  0
 20 40  1  0  0  0  0
 21 48  1  0  0  0  0
 22 41  1  0  0  0  0
 23 25  1  0  0  0  0
 23 51  1  0  0  0  0
 24 25  2  0  0  0  0
 24 52  1  0  0  0  0
 25 60  1  0  0  0  0
 26 70  1  0  0  0  0
 27 80  1  0  0  0  0
 28 81  1  0  0  0  0
 29 31  2  0  0  0  0
 29 80  1  0  0  0  0
 30 82  1  0  0  0  0
 31 83  1  0  0  0  0
 32 64  2  0  0  0  0
 33 65  1  0  0  0  0
 33 68  1  0  0  0  0
 34 69  1  0  0  0  0
 34 74  2  0  0  0  0
 35 49  1  0  0  0  0
 35 71  1  0  0  0  0
 35 75  2  0  0  0  0
 36 61  1  0  0  0  0
 36 66  1  0  0  0  0
 36 76  2  0  0  0  0
 37 62  1  0  0  0  0
 37 72  1  0  0  0  0
 37 77  2  0  0  0  0
 38 67  1  0  0  0  0
 38 70  1  0  0  0  0
 38 78  2  0  0  0  0
 39 42  1  0  0  0  0
 40 49  1  0  0  0  0
 41 66  1  0  0  0  0
 42 44  1  0  0  0  0
 43 45  1  0  0  0  0
 43 46  1  0  0  0  0
 44 48  1  0  0  0  0
 45 50  1  0  0  0  0
 46 67  1  0  0  0  0
 47 50  1  0  0  0  0
 47 67  1  0  0  0  0
 48 71  1  0  0  0  0
 49 66  1  0  0  0  0
 50 65  1  0  0  0  0
 53 62  1  0  0  0  0
 54 63  1  0  0  0  0
 55 63  1  0  0  0  0
 56 63  1  0  0  0  0
 57 73  1  0  0  0  0
 58 59  1  0  0  0  0
 58 60  1  0  0  0  0
 59 81  1  0  0  0  0
 60 79  1  0  0  0  0
 61 63  1  0  0  0  0
 61 72  1  0  0  0  0
 62 73  1  0  0  0  0
 64 65  1  0  0  0  0
M  CHG  1  73   1
M  ISO  4  38 100  59 101  70 100  81 101
M  END
> <Batch ID>
0148

> <Smiles>
CNC(C)C(=O)NC(C(=O)N1Cc2cc([101O:1][101CH2:1]CC(O)c3c(C)cc([100NH:0][100C:0](=O)N4CCCC(n5nc(-c6ccc(Oc7ccc(F)cc7F)cc6)c(C(N)=O)c5N)C4)cc3C)ccc2CC1C(=O)NC1CCCc2ccccc21)C(C)(C)C

> <Shape>
0.297

> <Color>
0.114

> <Negative vol penalty>
0.000

$$$$

  -OEChem-04052321363D

 85 94  0     1  0  0  0  0  0999 V2000
  -16.7049  -29.8053   23.1293 C   0  0  0  0  0  0  0  0  0  0  0  0
  -17.6640  -29.7795   22.1219 C   0  0  0  0  0  0  0  0  0  0  0  0
  -26.4366  -14.9547   22.1446 C   0  0  0  0  0  0  0  0  0  0  0  0
  -26.1612  -14.4664   19.7945 C   0  0  0  0  0  0  0  0  0  0  0  0
  -17.0609  -29.4799   24.4375 C   0  0  0  0  0  0  0  0  0  0  0  0
  -18.9799  -29.4293   22.4222 C   0  0  0  0  0  0  0  0  0  0  0  0
  -24.6729  -26.1461   19.5716 C   0  0  0  0  0  0  0  0  0  0  0  0
  -25.5501  -13.9257   22.4623 C   0  0  0  0  0  0  0  0  0  0  0  0
  -25.2747  -13.4374   20.1122 C   0  0  0  0  0  0  0  0  0  0  0  0
  -26.0313  -26.3549   19.3374 C   0  0  0  0  0  0  0  0  0  0  0  0
  -22.0307  -13.1338   21.0153 C   0  0  0  0  0  0  0  0  0  0  0  0
  -20.8515  -13.0429   20.2758 C   0  0  0  0  0  0  0  0  0  0  0  0
  -26.5137  -25.7351   21.6183 C   0  0  0  0  0  0  0  0  0  0  0  0
  -21.4796  -10.8267   19.5469 C   0  0  0  0  0  0  0  0  0  0  0  0
  -26.7421  -15.2250   20.8107 C   0  0  0  0  0  0  0  0  0  0  0  0
  -29.0545  -16.1929   20.3376 C   0  0  0  0  0  0  0  0  0  0  0  0
  -18.3797  -29.1162   24.7523 C   0  0  0  0  0  0  0  0  0  0  0  0
  -24.2228  -25.7400   20.8361 C   0  0  0  0  0  0  0  0  0  0  0  0
  -19.3541  -29.1001   23.7361 C   0  0  0  0  0  0  0  0  0  0  0  0
  -25.1493  -25.5193   21.8652 C   0  0  0  0  0  0  0  0  0  0  0  0
  -31.0547  -25.8623   18.3429 C   0  0  0  0  0  0  0  0  0  0  0  0
  -31.4015  -25.0087   17.3132 C   0  0  0  0  0  0  0  0  0  0  0  0
  -30.9906  -25.4146   19.6454 C   0  0  0  0  0  0  0  0  0  0  0  0
  -24.9691  -13.1671   21.4462 C   0  0  0  0  0  0  0  0  0  0  0  0
  -26.9517  -26.1522   20.3616 C   0  0  0  0  0  0  0  0  0  0  0  0
  -22.9344  -12.0713   21.0205 C   0  0  0  0  0  0  0  0  0  0  0  0
  -20.5759  -11.8893   19.5416 C   0  0  0  0  0  0  0  0  0  0  0  0
  -22.6588  -10.9177   20.2864 C   0  0  0  0  0  0  0  0  0  0  0  0
  -27.6574  -16.2882   20.4818 C   0  0  0  0  0  0  0  0  0  0  0  0
  -31.6850  -23.6952   17.5982 C   0  0  0  0  0  0  0  0  0  0  0  0
  -31.2973  -24.0766   19.8463 C   0  0  0  0  0  0  0  0  0  0  0  0
  -29.4551  -17.4689   20.0246 C   0  0  0  0  0  0  0  0  0  0  0  0
  -29.9133  -15.0530   20.4742 C   0  0  0  0  0  0  0  0  0  0  0  0
  -22.3072  -26.9901   23.0432 C   0  0  0  0  0  0  0  0  0  0  0  0
  -22.7445  -24.1196   24.4894 C   0  0  0  0  0  0  0  0  0  0  0  0
  -24.6889  -21.3438   24.8903 C   0  0  0  0  0  0  0  0  0  0  0  0
  -28.8095  -22.2159   17.1733 C   0  0  0  0  0  0  0  0  0  0  0  0
  -18.7272  -28.8185   26.1894 C   0  0  0  0  0  0  0  0  0  0  0  0
  -22.7568  -25.4933   21.0650 C   0  0  0  0  0  0  0  0  0  0  0  0
  -24.7194  -25.0638   23.2349 C   0  0  0  0  0  0  0  0  0  0  0  0
  -30.7746  -27.2073   17.7896 C   0  0  0  0  0  0  0  0  0  0  0  0
  -31.3715  -25.7337   16.0267 C   0  0  0  0  0  0  0  0  0  0  0  0
  -20.0610  -28.0950   26.3562 C   0  0  0  0  0  0  0  0  0  0  0  0
  -26.9159  -21.8428   20.1544 C   0  0  0  0  0  0  0  0  0  0  0  0
  -21.1398  -28.7621   25.5089 C   0  0  0  0  0  0  0  0  0  0  0  0
  -27.0525  -20.3574   20.4933 C   0  0  0  0  0  0  0  0  0  0  0  0
  -26.8262  -22.0717   18.6471 C   0  0  0  0  0  0  0  0  0  0  0  0
  -28.0540  -19.9838   18.2003 C   0  0  0  0  0  0  0  0  0  0  0  0
  -20.7865  -28.7013   24.0179 C   0  0  1  0  0  0  0  0  0  0  0  0
  -22.3594  -25.5769   22.5355 C   0  0  1  0  0  0  0  0  0  0  0  0
  -28.2052  -19.7056   19.7057 C   0  0  2  0  0  0  0  0  0  0  0  0
  -31.2595  -23.5006   21.2246 C   0  0  0  0  0  0  0  0  0  0  0  0
  -25.3518  -19.0619   25.6972 C   0  0  0  0  0  0  0  0  0  0  0  0
  -23.6009  -25.6492   26.9868 C   0  0  0  0  0  0  0  0  0  0  0  0
  -24.5874  -23.5227   27.8661 C   0  0  0  0  0  0  0  0  0  0  0  0
  -22.1363  -23.6702   27.4265 C   0  0  0  0  0  0  0  0  0  0  0  0
  -23.3774  -20.0221   22.5898 C   0  0  0  0  0  0  0  0  0  0  0  0
  -30.6064  -26.3369   20.7767 C   0  0  0  0  0  0  0  0  0  0  0  0
  -32.0522  -22.7406   16.5147 C   0  0  0  0  0  0  0  0  0  0  0  0
  -30.8502  -22.2318   15.7091 C   0  0  0  0  0  0  0  0  0  0  0  0
  -29.1655  -26.1293   21.2302 C   0  0  0  0  0  0  0  0  0  1  0  0
  -23.7410  -23.5603   25.4759 C   0  0  1  0  0  0  0  0  0  0  0  0
  -24.3464  -19.8649   24.8866 C   0  0  2  0  0  0  0  0  0  0  0  0
  -23.5246  -24.1110   26.9137 C   0  0  0  0  0  0  0  0  0  0  0  0
  -27.2011  -17.5268   20.2774 N   0  0  0  0  0  0  0  0  0  0  0  0
  -31.6426  -23.2063   18.8589 N   0  0  0  0  0  0  0  0  0  0  0  0
  -28.3180  -18.2215   20.0016 N   0  0  0  0  0  0  0  0  0  0  0  0
  -23.2747  -24.8422   23.4111 N   0  0  0  0  0  0  0  0  0  0  0  0
  -27.9527  -21.4324   17.9624 N   0  0  0  0  0  0  0  0  0  0  0  0
  -30.6657  -18.0092   19.7697 N   0  0  0  0  0  0  0  0  0  0  0  0
  -29.3370  -13.8174   20.7993 N   0  0  0  0  0  0  0  0  0  0  0  0
  -21.0590  -27.3827   23.4873 N   0  0  0  0  0  0  0  0  0  0  0  0
  -23.6473  -22.1081   25.3719 N   0  0  0  0  0  0  0  0  0  0  0  0
  -29.8611  -21.5411   16.5620 N   0  0  0  0  0  0  0  0  0  0  0  0
  -24.3391  -19.3384   23.4924 N   0  3  0  0  0  0  0  0  0  0  0  0
  -31.1568  -15.1312   20.3290 O   0  0  0  0  0  0  0  0  0  0  0  0
  -23.3245  -27.6733   23.0342 O   0  0  0  0  0  0  0  0  0  0  0  0
  -21.5405  -23.9167   24.6651 O   0  0  0  0  0  0  0  0  0  0  0  0
  -25.7736  -21.7772   24.5079 O   0  0  0  0  0  0  0  0  0  0  0  0
  -28.6589  -23.4336   17.0257 O   0  0  0  0  0  0  0  0  0  0  0  0
  -31.1691  -27.1195   16.3980 O   0  0  0  0  0  0  0  0  0  0  0  0
  -24.1042  -12.1628   21.7559 O   0  0  0  0  0  0  0  0  0  0  0  0
  -28.2781  -26.3559   20.1359 O   0  0  0  0  0  0  0  0  0  1  0  0
  -19.4428  -11.8015   18.8327 F   0  0  0  0  0  0  0  0  0  0  0  0
  -23.5225   -9.8931   20.2885 F   0  0  0  0  0  0  0  0  0  0  0  0
  1  2  1  0  0  0  0
  1  5  2  0  0  0  0
  2  6  2  0  0  0  0
  3  8  2  0  0  0  0
  3 15  1  0  0  0  0
  4  9  1  0  0  0  0
  4 15  2  0  0  0  0
  5 17  1  0  0  0  0
  6 19  1  0  0  0  0
  7 10  2  0  0  0  0
  7 18  1  0  0  0  0
  8 24  1  0  0  0  0
  9 24  2  0  0  0  0
 10 25  1  0  0  0  0
 11 12  2  0  0  0  0
 11 26  1  0  0  0  0
 12 27  1  0  0  0  0
 13 20  1  0  0  0  0
 13 25  2  0  0  0  0
 14 27  2  0  0  0  0
 14 28  1  0  0  0  0
 15 29  1  0  0  0  0
 16 29  1  0  0  0  0
 16 32  2  0  0  0  0
 16 33  1  0  0  0  0
 17 19  2  0  0  0  0
 17 38  1  0  0  0  0
 18 20  2  0  0  0  0
 18 39  1  0  0  0  0
 19 49  1  0  0  0  0
 20 40  1  0  0  0  0
 21 22  1  0  0  0  0
 21 23  2  0  0  0  0
 21 41  1  0  0  0  0
 22 30  2  0  0  0  0
 22 42  1  0  0  0  0
 23 31  1  0  0  0  0
 23 58  1  0  0  0  0
 24 82  1  0  0  0  0
 25 83  1  0  0  0  0
 26 28  2  0  0  0  0
 26 82  1  0  0  0  0
 27 84  1  0  0  0  0
 28 85  1  0  0  0  0
 29 65  2  0  0  0  0
 30 59  1  0  0  0  0
 30 66  1  0  0  0  0
 31 52  1  0  0  0  0
 31 66  2  0  0  0  0
 32 67  1  0  0  0  0
 32 70  1  0  0  0  0
 33 71  1  0  0  0  0
 33 76  2  0  0  0  0
 34 50  1  0  0  0  0
 34 72  1  0  0  0  0
 34 77  2  0  0  0  0
 35 62  1  0  0  0  0
 35 68  1  0  0  0  0
 35 78  2  0  0  0  0
 36 63  1  0  0  0  0
 36 73  1  0  0  0  0
 36 79  2  0  0  0  0
 37 69  1  0  0  0  0
 37 74  1  0  0  0  0
 37 80  2  0  0  0  0
 38 43  1  0  0  0  0
 39 50  1  0  0  0  0
 40 68  1  0  0  0  0
 41 81  1  0  0  0  0
 42 81  1  0  0  0  0
 43 45  1  0  0  0  0
 44 46  1  0  0  0  0
 44 47  1  0  0  0  0
 45 49  1  0  0  0  0
 46 51  1  0  0  0  0
 47 69  1  0  0  0  0
 48 51  1  0  0  0  0
 48 69  1  0  0  0  0
 49 72  1  0  0  0  0
 50 68  1  0  0  0  0
 51 67  1  0  0  0  0
 53 63  1  0  0  0  0
 54 64  1  0  0  0  0
 55 64  1  0  0  0  0
 56 64  1  0  0  0  0
 57 75  1  0  0  0  0
 58 61  1  0  0  0  0
 59 60  1  0  0  0  0
 60 74  1  0  0  0  0
 61 83  1  0  0  0  0
 62 64  1  0  0  0  0
 62 73  1  0  0  0  0
 63 75  1  0  0  0  0
 65 67  1  0  0  0  0
M  CHG  1  75   1
M  ISO  4  37 100  61 101  74 100  83 101
M  END
> <Batch ID>
0148

> <Smiles>
CNC(C)C(=O)NC(C(=O)N1Cc2cc([101O:1][101CH2:1]Cc3c(C)nc(CC[100NH:0][100C:0](=O)N4CCCC(n5nc(-c6ccc(Oc7ccc(F)cc7F)cc6)c(C(N)=O)c5N)C4)c4c3COC4)ccc2CC1C(=O)NC1CCCc2ccccc21)C(C)(C)C

> <Shape>
0.213

> <Color>
0.064

> <Negative vol penalty>
0.000

$$$$

  -OEChem-04052321363D

 85 95  0     1  0  0  0  0  0999 V2000
  -26.4719  -30.5960   23.1352 C   0  0  0  0  0  0  0  0  0  0  0  0
  -26.1962  -29.3524   23.6945 C   0  0  0  0  0  0  0  0  0  0  0  0
  -26.3199  -11.6782   20.7813 C   0  0  0  0  0  0  0  0  0  0  0  0
  -19.6730  -22.9435   21.0202 C   0  0  0  0  0  0  0  0  0  0  0  0
  -19.9863  -21.9163   23.1844 C   0  0  0  0  0  0  0  0  0  0  0  0
  -26.7151  -30.7051   21.7667 C   0  0  0  0  0  0  0  0  0  0  0  0
  -26.1624  -28.2173   22.8854 C   0  0  0  0  0  0  0  0  0  0  0  0
  -25.0091  -11.2013   20.7857 C   0  0  0  0  0  0  0  0  0  0  0  0
  -26.5629  -13.0496   20.7043 C   0  0  0  0  0  0  0  0  0  0  0  0
  -27.6037  -21.2020   23.0458 C   0  0  0  0  0  0  0  0  0  0  0  0
  -18.9195  -23.9580   21.6108 C   0  0  0  0  0  0  0  0  0  0  0  0
  -19.2328  -22.9307   23.7750 C   0  0  0  0  0  0  0  0  0  0  0  0
  -27.0087  -19.9735   22.7623 C   0  0  0  0  0  0  0  0  0  0  0  0
  -17.2168  -27.0144   22.5978 C   0  0  0  0  0  0  0  0  0  0  0  0
  -17.4783  -28.3276   22.2073 C   0  0  0  0  0  0  0  0  0  0  0  0
  -27.5227  -20.2709   20.4242 C   0  0  0  0  0  0  0  0  0  0  0  0
  -19.7571  -28.1030   22.9776 C   0  0  0  0  0  0  0  0  0  0  0  0
  -20.2063  -21.9226   21.8070 C   0  0  0  0  0  0  0  0  0  0  0  0
  -22.3764  -20.8598   20.9893 C   0  0  0  0  0  0  0  0  0  0  0  0
  -26.6939  -29.5693   20.9419 C   0  0  0  0  0  0  0  0  0  0  0  0
  -28.1539  -21.9806   22.0174 C   0  0  0  0  0  0  0  0  0  0  0  0
  -26.4042  -28.3115   21.5043 C   0  0  0  0  0  0  0  0  0  0  0  0
  -23.9413  -12.0958   20.7129 C   0  0  0  0  0  0  0  0  0  0  0  0
  -25.4951  -13.9441   20.6315 C   0  0  0  0  0  0  0  0  0  0  0  0
  -28.1263  -21.5078   20.6977 C   0  0  0  0  0  0  0  0  0  0  0  0
  -24.1843  -13.4672   20.6358 C   0  0  0  0  0  0  0  0  0  0  0  0
  -18.6994  -23.9516   22.9882 C   0  0  0  0  0  0  0  0  0  0  0  0
  -26.9655  -19.5091   21.4510 C   0  0  0  0  0  0  0  0  0  0  0  0
  -18.2255  -26.2454   23.1783 C   0  0  0  0  0  0  0  0  0  0  0  0
  -18.7484  -28.8719   22.3971 C   0  0  0  0  0  0  0  0  0  0  0  0
  -19.4956  -26.7897   23.3682 C   0  0  0  0  0  0  0  0  0  0  0  0
  -20.9842  -20.8741   21.1974 C   0  0  0  0  0  0  0  0  0  0  0  0
  -22.6204  -19.6524   20.3818 C   0  0  0  0  0  0  0  0  0  0  0  0
  -23.3611  -21.8495   21.3160 C   0  0  0  0  0  0  0  0  0  0  0  0
  -27.5617  -24.8682   20.8280 C   0  0  0  0  0  0  0  0  0  0  0  0
  -30.2228  -24.2642   19.0742 C   0  0  0  0  0  0  0  0  0  0  0  0
  -32.3349  -21.9529   17.7164 C   0  0  0  0  0  0  0  0  0  0  0  0
  -21.8474  -14.1522   19.9907 C   0  0  0  0  0  0  0  0  0  0  0  0
  -26.9163  -29.7437   19.4604 C   0  0  0  0  0  0  0  0  0  0  0  0
  -28.8159  -23.2913   22.3434 C   0  0  0  0  0  0  0  0  0  0  0  0
  -28.7208  -22.2961   19.5603 C   0  0  0  0  0  0  0  0  0  0  0  0
  -27.2316  -28.4387   18.7341 C   0  0  0  0  0  0  0  0  0  0  0  0
  -19.4293  -16.2449   18.4254 C   0  0  0  0  0  0  0  0  0  0  0  0
  -21.5785  -12.0534   21.7567 C   0  0  0  0  0  0  0  0  0  0  0  0
  -22.1173  -10.6600   21.8487 C   0  0  0  0  0  0  0  0  0  0  0  0
  -27.1206  -15.7719   19.8462 C   0  0  0  0  0  0  0  0  0  0  0  0
  -26.2620  -27.3417   19.1623 C   0  0  0  0  0  0  0  0  0  0  0  0
  -19.7328  -17.6347   18.9899 C   0  0  0  0  0  0  0  0  0  0  0  0
  -27.9653  -16.5033   20.8879 C   0  0  0  0  0  0  0  0  0  0  0  0
  -25.8641  -16.0916   21.9374 C   0  0  0  0  0  0  0  0  0  0  0  0
  -19.6318  -15.1509   19.4722 C   0  0  0  0  0  0  0  0  0  0  0  0
  -21.2458  -16.5504   20.6994 C   0  0  0  0  0  0  0  0  0  0  0  0
  -22.5481  -11.5560   20.7189 C   0  0  0  0  0  0  0  0  0  0  0  0
  -25.7915  -15.4248   20.5486 C   0  0  2  0  0  0  0  0  0  0  0  0
  -26.3832  -27.0534   20.6635 C   0  0  1  0  0  0  0  0  0  0  0  0
  -28.8873  -24.2379   21.1491 C   0  0  1  0  0  0  0  0  0  0  0  0
  -21.1185  -17.6791   19.6633 C   0  0  2  0  0  0  0  0  0  0  0  0
  -26.9394  -17.1606   21.7982 C   0  0  2  0  0  0  0  0  0  1  0  0
  -34.3997  -21.7613   16.3032 C   0  0  0  0  0  0  0  0  0  0  0  0
  -28.5766  -24.9048   16.5863 C   0  0  0  0  0  0  0  0  0  0  0  0
  -30.3533  -23.7999   15.2113 C   0  0  0  0  0  0  0  0  0  0  0  0
  -30.9026  -25.8232   16.5631 C   0  0  0  0  0  0  0  0  0  0  0  0
  -33.8319  -20.6004   19.8817 C   0  0  0  0  0  0  0  0  0  0  0  0
  -30.4984  -23.6206   17.7367 C   0  0  1  0  0  0  0  0  0  0  0  0
  -33.8493  -21.8484   17.7182 C   0  0  2  0  0  0  0  0  0  0  0  0
  -30.0697  -24.5229   16.5453 C   0  0  0  0  0  0  0  0  0  0  0  0
  -20.3857  -19.7640   20.7577 N   0  0  0  0  0  0  0  0  0  0  0  0
  -21.4067  -19.0408   20.2671 N   0  0  0  0  0  0  0  0  0  0  0  0
  -29.3513  -23.5745   19.9290 N   0  0  0  0  0  0  0  0  0  0  0  0
  -20.9676  -15.2528   20.0640 N   0  0  0  0  0  0  0  0  0  0  0  0
  -23.7526  -19.0648   19.9398 N   0  0  0  0  0  0  0  0  0  0  0  0
  -22.9388  -23.0324   21.9378 N   0  0  0  0  0  0  0  0  0  0  0  0
  -23.1008  -14.3771   20.5590 N   0  0  0  0  0  0  0  0  0  0  0  0
  -27.5545  -26.2463   20.9302 N   0  0  0  0  0  0  0  0  0  0  0  0
  -31.9134  -23.2656   17.7384 N   0  0  0  0  0  0  0  0  0  0  0  0
  -34.2840  -20.6355   18.4670 N   0  3  0  0  0  0  0  0  0  0  0  0
  -24.5772  -21.6966   21.0492 O   0  0  0  0  0  0  0  0  0  0  0  0
  -26.6158  -24.1571   20.5097 O   0  0  0  0  0  0  0  0  0  0  0  0
  -30.7664  -25.3358   19.3532 O   0  0  0  0  0  0  0  0  0  0  0  0
  -31.5993  -20.9685   17.6936 O   0  0  0  0  0  0  0  0  0  0  0  0
  -21.5230  -13.0977   19.4386 O   0  0  0  0  0  0  0  0  0  0  0  0
  -17.9645  -24.9415   23.5648 O   0  0  0  0  0  0  0  0  0  0  0  0
  -26.3848  -18.3105   21.1714 O   0  0  0  0  0  0  0  0  0  1  0  0
  -18.9998  -30.1326   22.0206 F   0  0  0  0  0  0  0  0  0  0  0  0
  -20.4690  -26.0554   23.9242 F   0  0  0  0  0  0  0  0  0  0  0  0
  1  2  1  0  0  0  0
  1  6  2  0  0  0  0
  2  7  2  0  0  0  0
  3  8  1  0  0  0  0
  3  9  2  0  0  0  0
  4 11  2  0  0  0  0
  4 18  1  0  0  0  0
  5 12  1  0  0  0  0
  5 18  2  0  0  0  0
  6 20  1  0  0  0  0
  7 22  1  0  0  0  0
  8 23  2  0  0  0  0
  9 24  1  0  0  0  0
 10 13  2  0  0  0  0
 10 21  1  0  0  0  0
 11 27  1  0  0  0  0
 12 27  2  0  0  0  0
 13 28  1  0  0  0  0
 14 15  2  0  0  0  0
 14 29  1  0  0  0  0
 15 30  1  0  0  0  0
 16 25  1  0  0  0  0
 16 28  2  0  0  0  0
 17 30  2  0  0  0  0
 17 31  1  0  0  0  0
 18 32  1  0  0  0  0
 19 32  1  0  0  0  0
 19 33  2  0  0  0  0
 19 34  1  0  0  0  0
 20 22  2  0  0  0  0
 20 39  1  0  0  0  0
 21 25  2  0  0  0  0
 21 40  1  0  0  0  0
 22 55  1  0  0  0  0
 23 26  1  0  0  0  0
 23 53  1  0  0  0  0
 24 26  2  0  0  0  0
 24 54  1  0  0  0  0
 25 41  1  0  0  0  0
 26 73  1  0  0  0  0
 27 82  1  0  0  0  0
 28 83  1  0  0  0  0
 29 31  2  0  0  0  0
 29 82  1  0  0  0  0
 30 84  1  0  0  0  0
 31 85  1  0  0  0  0
 32 67  2  0  0  0  0
 33 68  1  0  0  0  0
 33 71  1  0  0  0  0
 34 72  1  0  0  0  0
 34 77  2  0  0  0  0
 35 56  1  0  0  0  0
 35 74  1  0  0  0  0
 35 78  2  0  0  0  0
 36 64  1  0  0  0  0
 36 69  1  0  0  0  0
 36 79  2  0  0  0  0
 37 65  1  0  0  0  0
 37 75  1  0  0  0  0
 37 80  2  0  0  0  0
 38 70  1  0  0  0  0
 38 73  1  0  0  0  0
 38 81  2  0  0  0  0
 39 42  1  0  0  0  0
 40 56  1  0  0  0  0
 41 69  1  0  0  0  0
 42 47  1  0  0  0  0
 43 48  1  0  0  0  0
 43 51  1  0  0  0  0
 44 45  1  0  0  0  0
 44 53  1  0  0  0  0
 45 53  1  0  0  0  0
 46 49  1  0  0  0  0
 46 54  1  0  0  0  0
 47 55  1  0  0  0  0
 48 57  1  0  0  0  0
 49 58  1  0  0  0  0
 50 54  1  0  0  0  0
 50 58  1  0  0  0  0
 51 70  1  0  0  0  0
 52 57  1  0  0  0  0
 52 70  1  0  0  0  0
 55 74  1  0  0  0  0
 56 69  1  0  0  0  0
 57 68  1  0  0  0  0
 58 83  1  0  0  0  0
 59 65  1  0  0  0  0
 60 66  1  0  0  0  0
 61 66  1  0  0  0  0
 62 66  1  0  0  0  0
 63 76  1  0  0  0  0
 64 66  1  0  0  0  0
 64 75  1  0  0  0  0
 65 76  1  0  0  0  0
 67 68  1  0  0  0  0
M  CHG  1  76   1
M  ISO  4  38 100  58 101  73 100  83 101
M  END
> <Batch ID>
0148

> <Smiles>
CNC(C)C(=O)NC(C(=O)N1Cc2cc([101O:1][101CH:1]3CCC(c4cccc(C5CC5)c4[100NH:0][100C:0](=O)N4CCCC(n5nc(-c6ccc(Oc7ccc(F)cc7F)cc6)c(C(N)=O)c5N)C4)C3)ccc2CC1C(=O)NC1CCCc2ccccc21)C(C)(C)C

> <Shape>
0.209

> <Color>
0.061

> <Negative vol penalty>
0.000

$$$$

  -OEChem-04052321363D

 85 94  0     1  0  0  0  0  0999 V2000
  -37.3325  -32.0474   24.0734 C   0  0  0  0  0  0  0  0  0  0  0  0
  -36.7692  -30.9219   23.4807 C   0  0  0  0  0  0  0  0  0  0  0  0
  -23.0433   -9.9349   19.9438 C   0  0  0  0  0  0  0  0  0  0  0  0
  -23.9294   -9.8571   22.1901 C   0  0  0  0  0  0  0  0  0  0  0  0
  -36.5855  -32.8088   24.9713 C   0  0  0  0  0  0  0  0  0  0  0  0
  -35.4587  -30.5565   23.7864 C   0  0  0  0  0  0  0  0  0  0  0  0
  -31.3729  -28.0000   20.0080 C   0  0  0  0  0  0  0  0  0  0  0  0
  -22.3084   -8.7760   20.1935 C   0  0  0  0  0  0  0  0  0  0  0  0
  -23.1945   -8.6982   22.4398 C   0  0  0  0  0  0  0  0  0  0  0  0
  -30.9664  -26.6796   19.8206 C   0  0  0  0  0  0  0  0  0  0  0  0
  -19.4412   -7.9375   21.7773 C   0  0  0  0  0  0  0  0  0  0  0  0
  -18.1091   -7.9129   21.3642 C   0  0  0  0  0  0  0  0  0  0  0  0
  -29.0959  -27.0522   21.2976 C   0  0  0  0  0  0  0  0  0  0  0  0
  -18.5843   -6.0167   19.9445 C   0  0  0  0  0  0  0  0  0  0  0  0
  -23.8539  -10.4755   20.9420 C   0  0  0  0  0  0  0  0  0  0  0  0
  -24.2018  -13.0022   20.8933 C   0  0  0  0  0  0  0  0  0  0  0  0
  -35.2619  -32.4579   25.2808 C   0  0  0  0  0  0  0  0  0  0  0  0
  -30.6489  -28.8547   20.8516 C   0  0  0  0  0  0  0  0  0  0  0  0
  -34.6937  -31.3130   24.6903 C   0  0  0  0  0  0  0  0  0  0  0  0
  -29.4938  -28.3837   21.4920 C   0  0  0  0  0  0  0  0  0  0  0  0
  -22.3840   -8.1576   21.4415 C   0  0  0  0  0  0  0  0  0  0  0  0
  -29.8294  -26.2047   20.4677 C   0  0  0  0  0  0  0  0  0  0  0  0
  -20.3448   -7.0017   21.2739 C   0  0  0  0  0  0  0  0  0  0  0  0
  -17.6807   -6.9526   20.4478 C   0  0  0  0  0  0  0  0  0  0  0  0
  -19.9164   -6.0413   20.3575 C   0  0  0  0  0  0  0  0  0  0  0  0
  -24.6137  -11.6723   20.6845 C   0  0  0  0  0  0  0  0  0  0  0  0
  -25.2760  -13.7606   20.4967 C   0  0  0  0  0  0  0  0  0  0  0  0
  -22.9593  -13.5068   21.4004 C   0  0  0  0  0  0  0  0  0  0  0  0
  -31.2961  -30.4399   23.5296 C   0  0  0  0  0  0  0  0  0  0  0  0
  -28.3371  -31.6795   23.0502 C   0  0  0  0  0  0  0  0  0  0  0  0
  -25.2472  -31.3404   21.6415 C   0  0  0  0  0  0  0  0  0  0  0  0
  -30.9165  -14.4121   20.8432 C   0  0  0  0  0  0  0  0  0  0  0  0
  -34.5097  -33.2847   26.2934 C   0  0  0  0  0  0  0  0  0  0  0  0
  -31.0854  -30.2840   21.0222 C   0  0  0  0  0  0  0  0  0  0  0  0
  -28.6701  -29.2668   22.3921 C   0  0  0  0  0  0  0  0  0  0  0  0
  -33.0024  -33.0436   26.2776 C   0  0  0  0  0  0  0  0  0  0  0  0
  -29.4837  -12.4979   18.0107 C   0  0  0  0  0  0  0  0  0  0  0  0
  -32.7012  -31.5486   26.2460 C   0  0  0  0  0  0  0  0  0  0  0  0
  -28.0814  -12.1623   18.5150 C   0  0  0  0  0  0  0  0  0  0  0  0
  -31.7987  -17.7561   21.1191 C   0  0  0  0  0  0  0  0  0  0  0  0
  -29.5962  -17.5396   19.9008 C   0  0  0  0  0  0  0  0  0  0  0  0
  -30.4743  -12.6632   19.1589 C   0  0  0  0  0  0  0  0  0  0  0  0
  -31.4032  -16.5588   21.9792 C   0  0  0  0  0  0  0  0  0  0  0  0
  -29.2548  -16.3258   20.7702 C   0  0  0  0  0  0  0  0  0  0  0  0
  -28.6436  -13.3225   20.6874 C   0  0  0  0  0  0  0  0  0  0  0  0
  -33.2669  -30.8985   24.9776 C   0  0  1  0  0  0  0  0  0  0  0  0
  -30.5640  -30.9185   22.3079 C   0  0  1  0  0  0  0  0  0  0  0  0
  -30.3473  -21.6819   18.4536 C   0  0  1  0  0  0  0  0  0  0  0  0
  -29.6195  -22.7120   19.3682 C   0  0  1  0  0  0  0  0  0  0  0  0
  -27.6127  -13.1933   19.5560 C   0  0  2  0  0  0  0  0  0  0  0  0
  -30.5505  -18.4856   20.6266 C   0  0  0  0  0  0  0  0  0  0  0  0
  -29.9260  -20.5918   19.4718 C   0  0  2  0  0  0  0  0  0  0  0  0
  -29.8389  -21.7101   20.5655 C   0  0  1  0  0  0  0  0  0  0  0  0
  -29.8003  -21.5294   17.0470 C   0  0  0  0  0  0  0  0  0  0  0  0
  -31.0690  -21.9602   21.4348 C   0  0  0  0  0  0  0  0  0  0  0  0
  -23.0286  -32.4984   21.4567 C   0  0  0  0  0  0  0  0  0  0  0  0
  -27.6483  -30.8083   25.8921 C   0  0  0  0  0  0  0  0  0  0  0  0
  -25.2288  -31.1111   25.3240 C   0  0  0  0  0  0  0  0  0  0  0  0
  -26.7788  -33.0644   25.2530 C   0  0  0  0  0  0  0  0  0  0  0  0
  -25.4800  -31.5673   18.6999 C   0  0  0  0  0  0  0  0  0  0  0  0
  -30.2206  -24.1044   19.4229 C   0  0  0  0  0  0  0  0  0  1  0  0
  -26.9364  -31.2911   23.4577 C   0  0  1  0  0  0  0  0  0  0  0  0
  -24.3997  -32.3023   20.8286 C   0  0  2  0  0  0  0  0  0  0  0  0
  -26.6645  -31.5513   24.9663 C   0  0  0  0  0  0  0  0  0  0  0  0
  -25.8529  -11.5874   20.1933 N   0  0  0  0  0  0  0  0  0  0  0  0
  -26.2288  -12.8735   20.0900 N   0  0  0  0  0  0  0  0  0  0  0  0
  -29.1412  -30.6546   22.5319 N   0  0  0  0  0  0  0  0  0  0  0  0
  -29.9857  -13.6122   20.1595 N   0  0  0  0  0  0  0  0  0  0  0  0
  -30.4787  -15.6772   21.2637 N   0  0  0  0  0  0  0  0  0  0  0  0
  -25.4891  -15.0931   20.4596 N   0  0  0  0  0  0  0  0  0  0  0  0
  -21.9629  -12.5894   21.7608 N   0  0  0  0  0  0  0  0  0  0  0  0
  -32.4177  -31.1846   23.8412 N   0  0  0  0  0  0  0  0  0  0  0  0
  -26.0368  -32.0036   22.5569 N   0  0  0  0  0  0  0  0  0  0  0  0
  -30.9578  -19.5714   19.6978 N   0  3  0  0  0  0  0  0  0  0  0  0
  -24.2125  -31.7845   19.4437 N   0  3  0  0  0  0  0  0  0  0  0  0
  -22.7330  -14.7353   21.5146 O   0  0  0  0  0  0  0  0  0  0  0  0
  -30.8738  -29.4680   24.1450 O   0  0  0  0  0  0  0  0  0  0  0  0
  -28.7019  -32.8507   23.1800 O   0  0  0  0  0  0  0  0  0  0  0  0
  -25.2096  -30.1222   21.4831 O   0  0  0  0  0  0  0  0  0  0  0  0
  -32.0693  -14.0192   21.0621 O   0  0  0  0  0  0  0  0  0  0  0  0
  -28.6865  -21.5915   21.4328 O   0  0  0  0  0  0  0  0  0  0  0  0
  -21.6668   -7.0268   21.6856 O   0  0  0  0  0  0  0  0  0  0  0  0
  -29.4277  -24.9062   20.2857 O   0  0  0  0  0  0  0  0  0  1  0  0
  -16.4012   -6.9282   20.0524 F   0  0  0  0  0  0  0  0  0  0  0  0
  -20.7797   -5.1390   19.8713 F   0  0  0  0  0  0  0  0  0  0  0  0
  1  2  1  0  0  0  0
  1  5  2  0  0  0  0
  2  6  2  0  0  0  0
  3  8  2  0  0  0  0
  3 15  1  0  0  0  0
  4  9  1  0  0  0  0
  4 15  2  0  0  0  0
  5 17  1  0  0  0  0
  6 19  1  0  0  0  0
  7 10  2  0  0  0  0
  7 18  1  0  0  0  0
  8 21  1  0  0  0  0
  9 21  2  0  0  0  0
 10 22  1  0  0  0  0
 11 12  2  0  0  0  0
 11 23  1  0  0  0  0
 12 24  1  0  0  0  0
 13 20  1  0  0  0  0
 13 22  2  0  0  0  0
 14 24  2  0  0  0  0
 14 25  1  0  0  0  0
 15 26  1  0  0  0  0
 16 26  1  0  0  0  0
 16 27  2  0  0  0  0
 16 28  1  0  0  0  0
 17 19  2  0  0  0  0
 17 33  1  0  0  0  0
 18 20  2  0  0  0  0
 18 34  1  0  0  0  0
 19 46  1  0  0  0  0
 20 35  1  0  0  0  0
 21 82  1  0  0  0  0
 22 83  1  0  0  0  0
 23 25  2  0  0  0  0
 23 82  1  0  0  0  0
 24 84  1  0  0  0  0
 25 85  1  0  0  0  0
 26 65  2  0  0  0  0
 27 66  1  0  0  0  0
 27 70  1  0  0  0  0
 28 71  1  0  0  0  0
 28 76  2  0  0  0  0
 29 47  1  0  0  0  0
 29 72  1  0  0  0  0
 29 77  2  0  0  0  0
 30 62  1  0  0  0  0
 30 67  1  0  0  0  0
 30 78  2  0  0  0  0
 31 63  1  0  0  0  0
 31 73  1  0  0  0  0
 31 79  2  0  0  0  0
 32 68  1  0  0  0  0
 32 69  1  0  0  0  0
 32 80  2  0  0  0  0
 33 36  1  0  0  0  0
 34 47  1  0  0  0  0
 35 67  1  0  0  0  0
 36 38  1  0  0  0  0
 37 39  1  0  0  0  0
 37 42  1  0  0  0  0
 38 46  1  0  0  0  0
 39 50  1  0  0  0  0
 40 43  1  0  0  0  0
 40 51  1  0  0  0  0
 41 44  1  0  0  0  0
 41 51  1  0  0  0  0
 42 68  1  0  0  0  0
 43 69  1  0  0  0  0
 44 69  1  0  0  0  0
 45 50  1  0  0  0  0
 45 68  1  0  0  0  0
 46 72  1  0  0  0  0
 47 67  1  0  0  0  0
 48 49  1  0  0  0  0
 48 52  1  0  0  0  0
 48 54  1  0  0  0  0
 49 53  1  0  0  0  0
 49 61  1  0  0  0  0
 50 66  1  0  0  0  0
 51 74  1  0  0  0  0
 52 53  1  0  0  0  0
 52 74  1  0  0  0  0
 53 55  1  0  0  0  0
 53 81  1  0  0  0  0
 56 63  1  0  0  0  0
 57 64  1  0  0  0  0
 58 64  1  0  0  0  0
 59 64  1  0  0  0  0
 60 75  1  0  0  0  0
 61 83  1  0  0  0  0
 62 64  1  0  0  0  0
 62 73  1  0  0  0  0
 63 75  1  0  0  0  0
 65 66  1  0  0  0  0
M  CHG  2  74   1  75   1
M  ISO  4  32 100  61 101  69 100  83 101
M  END
> <Batch ID>
0148

> <Smiles>
CNC(C)C(=O)NC(C(=O)N1Cc2cc([101O:1][101CH2:1]C3C(C)C(NC4CC[100N:0]([100C:0](=O)N5CCCC(n6nc(-c7ccc(Oc8ccc(F)cc8F)cc7)c(C(N)=O)c6N)C5)CC4)C3(C)O)ccc2CC1C(=O)NC1CCCc2ccccc21)C(C)(C)C

> <Shape>
0.315

> <Color>
0.188

> <Negative vol penalty>
0.000

$$$$

  -OEChem-04052321363D

 92101  0     1  0  0  0  0  0999 V2000
  -18.7751  -31.5324   25.9477 C   0  0  0  0  0  0  0  0  0  0  0  0
  -20.1468  -31.6245   25.7345 C   0  0  0  0  0  0  0  0  0  0  0  0
  -25.2595  -15.3421   20.7958 C   0  0  0  0  0  0  0  0  0  0  0  0
  -27.2969  -14.8832   19.5811 C   0  0  0  0  0  0  0  0  0  0  0  0
  -18.0660  -30.4381   25.4543 C   0  0  0  0  0  0  0  0  0  0  0  0
  -20.8104  -30.6215   25.0288 C   0  0  0  0  0  0  0  0  0  0  0  0
  -26.3146  -29.6554   20.5469 C   0  0  0  0  0  0  0  0  0  0  0  0
  -31.4279  -21.7952   20.3955 C   0  0  0  0  0  0  0  0  0  0  0  0
  -25.0669  -13.9742   20.9895 C   0  0  0  0  0  0  0  0  0  0  0  0
  -27.1043  -13.5154   19.7747 C   0  0  0  0  0  0  0  0  0  0  0  0
  -27.4622  -28.8770   20.4026 C   0  0  0  0  0  0  0  0  0  0  0  0
  -31.2615  -23.1712   20.5599 C   0  0  0  0  0  0  0  0  0  0  0  0
  -23.9355  -11.3405   19.1985 C   0  0  0  0  0  0  0  0  0  0  0  0
  -22.6558  -10.8299   18.9812 C   0  0  0  0  0  0  0  0  0  0  0  0
  -26.1211  -27.0724   19.5286 C   0  0  0  0  0  0  0  0  0  0  0  0
  -30.9358  -23.4602   18.1665 C   0  0  0  0  0  0  0  0  0  0  0  0
  -22.5681  -10.0741   21.2743 C   0  0  0  0  0  0  0  0  0  0  0  0
  -26.3745  -15.7966   20.0916 C   0  0  0  0  0  0  0  0  0  0  0  0
  -27.2740  -18.0969   20.7297 C   0  0  0  0  0  0  0  0  0  0  0  0
  -18.7196  -29.4260   24.7338 C   0  0  0  0  0  0  0  0  0  0  0  0
  -25.0581  -29.1433   20.1927 C   0  0  0  0  0  0  0  0  0  0  0  0
  -31.3382  -21.2680   19.1164 C   0  0  0  0  0  0  0  0  0  0  0  0
  -20.1096  -29.5119   24.5264 C   0  0  0  0  0  0  0  0  0  0  0  0
  -24.9594  -27.8472   19.6669 C   0  0  0  0  0  0  0  0  0  0  0  0
  -31.0885  -22.0911   18.0092 C   0  0  0  0  0  0  0  0  0  0  0  0
  -25.9893  -13.0609   20.4790 C   0  0  0  0  0  0  0  0  0  0  0  0
  -27.3653  -27.5843   19.8961 C   0  0  0  0  0  0  0  0  0  0  0  0
  -31.0178  -23.9979   19.4531 C   0  0  0  0  0  0  0  0  0  0  0  0
  -24.5315  -11.2179   20.4536 C   0  0  0  0  0  0  0  0  0  0  0  0
  -21.9721  -10.1967   20.0191 C   0  0  0  0  0  0  0  0  0  0  0  0
  -23.8478  -10.5847   21.4915 C   0  0  0  0  0  0  0  0  0  0  0  0
  -26.5737  -17.2094   19.8908 C   0  0  0  0  0  0  0  0  0  0  0  0
  -27.1745  -19.3141   20.1013 C   0  0  0  0  0  0  0  0  0  0  0  0
  -27.9538  -17.8436   21.9664 C   0  0  0  0  0  0  0  0  0  0  0  0
  -29.9880  -21.6661   15.8038 C   0  0  0  0  0  0  0  0  0  0  0  0
  -22.3578  -28.5434   21.7586 C   0  0  0  0  0  0  0  0  0  0  0  0
  -21.2376  -27.8848   18.7865 C   0  0  0  0  0  0  0  0  0  0  0  0
  -21.9179  -26.9553   15.5740 C   0  0  0  0  0  0  0  0  0  0  0  0
  -26.3197  -20.8966   14.3902 C   0  0  0  0  0  0  0  0  0  0  0  0
  -17.9189  -28.2387   24.2608 C   0  0  0  0  0  0  0  0  0  0  0  0
  -23.8330  -30.0052   20.3294 C   0  0  0  0  0  0  0  0  0  0  0  0
  -23.6365  -27.2580   19.2529 C   0  0  0  0  0  0  0  0  0  0  0  0
  -18.6336  -27.4056   23.1999 C   0  0  0  0  0  0  0  0  0  0  0  0
  -24.3086  -21.7998   17.1860 C   0  0  0  0  0  0  0  0  0  0  0  0
  -20.0790  -27.1440   23.6110 C   0  0  0  0  0  0  0  0  0  0  0  0
  -24.7242  -20.8058   18.2719 C   0  0  0  0  0  0  0  0  0  0  0  0
  -30.8813  -19.8564   17.2943 C   0  0  0  0  0  0  0  0  0  0  0  0
  -24.3008  -21.1535   15.8024 C   0  0  0  0  0  0  0  0  0  0  0  0
  -25.9748  -19.4893   16.5108 C   0  0  0  0  0  0  0  0  0  0  0  0
  -31.0860  -21.2854   16.7399 C   0  0  2  0  0  0  0  0  0  0  0  0
  -31.4970  -19.8357   18.7047 C   0  0  1  0  0  0  0  0  0  0  0  0
  -20.8608  -28.4565   23.7442 C   0  0  1  0  0  0  0  0  0  0  0  0
  -22.5415  -29.1981   20.4188 C   0  0  1  0  0  0  0  0  0  0  0  0
  -26.0517  -20.1095   17.9163 C   0  0  2  0  0  0  0  0  0  0  0  0
  -20.7931  -26.4639   13.3853 C   0  0  0  0  0  0  0  0  0  0  0  0
  -33.0988  -17.8900   18.7250 C   0  0  0  0  0  0  0  0  0  0  0  0
  -29.1451  -19.2775   12.6502 C   0  0  0  0  0  0  0  0  0  0  0  0
  -20.3225  -25.1818   19.8664 C   0  0  0  0  0  0  0  0  0  0  0  0
  -20.0917  -24.3933   17.5014 C   0  0  0  0  0  0  0  0  0  0  0  0
  -18.6983  -26.2925   18.3227 C   0  0  0  0  0  0  0  0  0  0  0  0
  -23.3667  -29.1433   14.2057 C   0  0  0  0  0  0  0  0  0  0  0  0
  -29.3421  -21.6990   13.4029 C   0  0  0  0  0  0  0  0  0  0  0  0
  -29.5505  -27.0579   20.6729 C   0  0  0  0  0  0  0  0  0  1  0  0
  -30.3198  -25.7676   20.8802 C   0  0  0  0  0  0  0  0  0  0  0  0
  -21.1683  -26.6511   17.9192 C   0  0  1  0  0  0  0  0  0  0  0  0
  -21.4638  -27.5259   14.2426 C   0  0  2  0  0  0  0  0  0  0  0  0
  -32.9589  -19.4031   18.6955 C   0  0  1  0  0  0  0  0  0  0  0  0
  -28.4005  -20.5350   13.0869 C   0  0  2  0  0  0  0  0  0  0  0  0
  -20.0950  -25.6398   18.4120 C   0  0  0  0  0  0  0  0  0  0  0  0
  -26.0666  -17.8116   18.8118 N   0  0  0  0  0  0  0  0  0  0  0  0
  -26.4486  -19.0905   18.9684 N   0  0  0  0  0  0  0  0  0  0  0  0
  -22.4668  -28.1378   19.4116 N   0  0  0  0  0  0  0  0  0  0  0  0
  -25.5887  -20.5124   15.5264 N   0  0  0  0  0  0  0  0  0  0  0  0
  -27.6378  -20.5432   20.4127 N   0  0  0  0  0  0  0  0  0  0  0  0
  -27.9589  -16.5358   22.4703 N   0  0  0  0  0  0  0  0  0  0  0  0
  -21.2292  -28.9601   22.4384 N   0  0  0  0  0  0  0  0  0  0  0  0
  -30.2671  -21.4092   14.4751 N   0  0  0  0  0  0  0  0  0  0  0  0
  -20.9626  -27.1228   16.5541 N   0  0  0  0  0  0  0  0  0  0  0  0
  -27.5326  -20.2441   14.2062 N   0  0  0  0  0  0  0  0  0  0  0  0
  -22.6277  -28.0722   13.4891 N   0  3  0  0  0  0  0  0  0  0  0  0
  -28.5254  -18.7533   22.6139 O   0  0  0  0  0  0  0  0  0  0  0  0
  -28.9573  -22.1571   16.2493 O   0  0  0  0  0  0  0  0  0  0  0  0
  -23.1783  -27.7200   22.1464 O   0  0  0  0  0  0  0  0  0  0  0  0
  -20.2400  -28.6015   18.8993 O   0  0  0  0  0  0  0  0  0  0  0  0
  -23.0094  -26.4117   15.7282 O   0  0  0  0  0  0  0  0  0  0  0  0
  -25.9235  -21.7613   13.6013 O   0  0  0  0  0  0  0  0  0  0  0  0
  -33.5875  -19.9122   17.5246 O   0  0  0  0  0  0  0  0  0  0  0  0
  -25.8018  -11.7261   20.6679 O   0  0  0  0  0  0  0  0  0  0  0  0
  -28.4838  -26.8222   19.7548 O   0  0  0  0  0  0  0  0  0  1  0  0
  -30.8657  -25.3471   19.6358 O   0  0  0  0  0  0  0  0  0  0  0  0
  -20.7426   -9.7077   19.8108 F   0  0  0  0  0  0  0  0  0  0  0  0
  -24.4148  -10.4650   22.6998 F   0  0  0  0  0  0  0  0  0  0  0  0
  1  2  1  0  0  0  0
  1  5  2  0  0  0  0
  2  6  2  0  0  0  0
  3  9  2  0  0  0  0
  3 18  1  0  0  0  0
  4 10  1  0  0  0  0
  4 18  2  0  0  0  0
  5 20  1  0  0  0  0
  6 23  1  0  0  0  0
  7 11  2  0  0  0  0
  7 21  1  0  0  0  0
  8 12  2  0  0  0  0
  8 22  1  0  0  0  0
  9 26  1  0  0  0  0
 10 26  2  0  0  0  0
 11 27  1  0  0  0  0
 12 28  1  0  0  0  0
 13 14  2  0  0  0  0
 13 29  1  0  0  0  0
 14 30  1  0  0  0  0
 15 24  1  0  0  0  0
 15 27  2  0  0  0  0
 16 25  1  0  0  0  0
 16 28  2  0  0  0  0
 17 30  2  0  0  0  0
 17 31  1  0  0  0  0
 18 32  1  0  0  0  0
 19 32  1  0  0  0  0
 19 33  2  0  0  0  0
 19 34  1  0  0  0  0
 20 23  2  0  0  0  0
 20 40  1  0  0  0  0
 21 24  2  0  0  0  0
 21 41  1  0  0  0  0
 22 25  2  0  0  0  0
 22 51  1  0  0  0  0
 23 52  1  0  0  0  0
 24 42  1  0  0  0  0
 25 50  1  0  0  0  0
 26 88  1  0  0  0  0
 27 89  1  0  0  0  0
 28 90  1  0  0  0  0
 29 31  2  0  0  0  0
 29 88  1  0  0  0  0
 30 91  1  0  0  0  0
 31 92  1  0  0  0  0
 32 70  2  0  0  0  0
 33 71  1  0  0  0  0
 33 74  1  0  0  0  0
 34 75  1  0  0  0  0
 34 81  2  0  0  0  0
 35 50  1  0  0  0  0
 35 77  1  0  0  0  0
 35 82  2  0  0  0  0
 36 53  1  0  0  0  0
 36 76  1  0  0  0  0
 36 83  2  0  0  0  0
 37 65  1  0  0  0  0
 37 72  1  0  0  0  0
 37 84  2  0  0  0  0
 38 66  1  0  0  0  0
 38 78  1  0  0  0  0
 38 85  2  0  0  0  0
 39 73  1  0  0  0  0
 39 79  1  0  0  0  0
 39 86  2  0  0  0  0
 40 43  1  0  0  0  0
 41 53  1  0  0  0  0
 42 72  1  0  0  0  0
 43 45  1  0  0  0  0
 44 46  1  0  0  0  0
 44 48  1  0  0  0  0
 45 52  1  0  0  0  0
 46 54  1  0  0  0  0
 47 50  1  0  0  0  0
 47 51  1  0  0  0  0
 48 73  1  0  0  0  0
 49 54  1  0  0  0  0
 49 73  1  0  0  0  0
 51 67  1  0  0  0  0
 52 76  1  0  0  0  0
 53 72  1  0  0  0  0
 54 71  1  0  0  0  0
 55 66  1  0  0  0  0
 56 67  1  0  0  0  0
 57 68  1  0  0  0  0
 58 69  1  0  0  0  0
 59 69  1  0  0  0  0
 60 69  1  0  0  0  0
 61 80  1  0  0  0  0
 62 68  1  0  0  0  0
 62 77  1  0  0  0  0
 63 64  1  0  0  0  0
 63 89  1  0  0  0  0
 64 90  1  0  0  0  0
 65 69  1  0  0  0  0
 65 78  1  0  0  0  0
 66 80  1  0  0  0  0
 67 87  1  0  0  0  0
 68 79  1  0  0  0  0
 70 71  1  0  0  0  0
M  CHG  1  80   1
M  ISO  4  39 100  63 101  79 100  89 101
M  END
> <Batch ID>
0148

> <Smiles>
CNC(C)C(=O)NC(C(=O)N1Cc2cc([101O:1][101CH2:1]COc3ccc4c(c3)C(C(=O)NCC(C)[100NH:0][100C:0](=O)N3CCCC(n5nc(-c6ccc(Oc7ccc(F)cc7F)cc6)c(C(N)=O)c5N)C3)CC4C(C)O)ccc2CC1C(=O)NC1CCCc2ccccc21)C(C)(C)C

> <Shape>
0.222

> <Color>
0.089

> <Negative vol penalty>
0.000

$$$$

  -OEChem-04052321363D

 88 98  0     1  0  0  0  0  0999 V2000
  -29.5974  -33.6583   25.3551 C   0  0  0  0  0  0  0  0  0  0  0  0
  -29.2733  -32.3688   24.9457 C   0  0  0  0  0  0  0  0  0  0  0  0
  -23.7409  -10.5756   22.5981 C   0  0  0  0  0  0  0  0  0  0  0  0
  -24.4035   -8.7626   21.1451 C   0  0  0  0  0  0  0  0  0  0  0  0
  -28.5896  -34.6037   25.5400 C   0  0  0  0  0  0  0  0  0  0  0  0
  -27.9409  -32.0237   24.7221 C   0  0  0  0  0  0  0  0  0  0  0  0
  -27.3085  -29.3873   20.4449 C   0  0  0  0  0  0  0  0  0  0  0  0
  -28.9422  -21.8935   19.4022 C   0  0  0  0  0  0  0  0  0  0  0  0
  -22.6159   -9.8502   22.9903 C   0  0  0  0  0  0  0  0  0  0  0  0
  -23.2785   -8.0371   21.5373 C   0  0  0  0  0  0  0  0  0  0  0  0
  -27.6462  -28.0350   20.4747 C   0  0  0  0  0  0  0  0  0  0  0  0
  -20.7719   -5.5589   22.4282 C   0  0  0  0  0  0  0  0  0  0  0  0
  -20.9446   -4.2098   22.7374 C   0  0  0  0  0  0  0  0  0  0  0  0
  -28.7956  -23.2754   19.3556 C   0  0  0  0  0  0  0  0  0  0  0  0
  -25.3166  -27.4651   20.7341 C   0  0  0  0  0  0  0  0  0  0  0  0
  -22.4942   -4.8103   24.4911 C   0  0  0  0  0  0  0  0  0  0  0  0
  -24.6347  -10.0318   21.6755 C   0  0  0  0  0  0  0  0  0  0  0  0
  -27.0702  -10.7654   21.8692 C   0  0  0  0  0  0  0  0  0  0  0  0
  -27.2450  -34.2728   25.3092 C   0  0  0  0  0  0  0  0  0  0  0  0
  -25.9712  -29.7899   20.5706 C   0  0  0  0  0  0  0  0  0  0  0  0
  -26.9140  -32.9653   24.9053 C   0  0  0  0  0  0  0  0  0  0  0  0
  -28.8150  -21.2271   20.6159 C   0  0  0  0  0  0  0  0  0  0  0  0
  -24.9643  -28.8231   20.7030 C   0  0  0  0  0  0  0  0  0  0  0  0
  -22.3847   -8.5810   22.4599 C   0  0  0  0  0  0  0  0  0  0  0  0
  -26.6505  -27.0738   20.6222 C   0  0  0  0  0  0  0  0  0  0  0  0
  -21.4604   -6.5337   23.1503 C   0  0  0  0  0  0  0  0  0  0  0  0
  -21.8057   -3.8355   23.7689 C   0  0  0  0  0  0  0  0  0  0  0  0
  -22.3215   -6.1594   24.1818 C   0  0  0  0  0  0  0  0  0  0  0  0
  -25.7967  -10.7809   21.2695 C   0  0  0  0  0  0  0  0  0  0  0  0
  -28.5245  -23.9392   20.5411 C   0  0  0  0  0  0  0  0  0  0  0  0
  -28.5432  -21.9826   21.7451 C   0  0  0  0  0  0  0  0  0  0  0  0
  -27.8149  -11.6400   21.1161 C   0  0  0  0  0  0  0  0  0  0  0  0
  -27.5383  -10.0266   23.0053 C   0  0  0  0  0  0  0  0  0  0  0  0
  -24.3438  -31.5430   22.6639 C   0  0  0  0  0  0  0  0  0  0  0  0
  -21.9325  -31.1483   20.5302 C   0  0  0  0  0  0  0  0  0  0  0  0
  -20.5706  -29.2975   18.0070 C   0  0  0  0  0  0  0  0  0  0  0  0
  -28.5027  -16.3437   18.3916 C   0  0  0  0  0  0  0  0  0  0  0  0
  -26.1861  -35.3152   25.5680 C   0  0  0  0  0  0  0  0  0  0  0  0
  -25.6206  -31.2513   20.5097 C   0  0  0  0  0  0  0  0  0  0  0  0
  -23.5115  -29.2022   20.8215 C   0  0  0  0  0  0  0  0  0  0  0  0
  -24.8331  -34.9759   24.9480 C   0  0  0  0  0  0  0  0  0  0  0  0
  -26.8274  -13.8494   16.6828 C   0  0  0  0  0  0  0  0  0  0  0  0
  -24.4605  -33.5259   25.2401 C   0  0  0  0  0  0  0  0  0  0  0  0
  -25.9146  -21.7571   23.8700 C   0  0  0  0  0  0  0  0  0  0  0  0
  -26.6798  -21.3035   25.0818 C   0  0  0  0  0  0  0  0  0  0  0  0
  -26.5095  -12.8180   17.7650 C   0  0  0  0  0  0  0  0  0  0  0  0
  -27.6279  -18.9901   20.5245 C   0  0  0  0  0  0  0  0  0  0  0  0
  -29.9878  -19.2066   19.6335 C   0  0  0  0  0  0  0  0  0  0  0  0
  -26.6171  -15.2672   17.2016 C   0  0  0  0  0  0  0  0  0  0  0  0
  -27.8010  -17.4688   20.5509 C   0  0  0  0  0  0  0  0  0  0  0  0
  -30.1140  -17.6876   19.7055 C   0  0  0  0  0  0  0  0  0  0  0  0
  -27.0988  -14.5602   19.5224 C   0  0  0  0  0  0  0  0  0  0  0  0
  -28.9752  -19.7196   20.6734 C   0  0  0  0  0  0  0  0  0  0  0  0
  -25.4825  -32.5598   24.6286 C   0  0  1  0  0  0  0  0  0  0  0  0
  -24.2798  -31.5719   21.1630 C   0  0  1  0  0  0  0  0  0  0  0  0
  -27.3853  -22.0490   23.9831 C   0  0  0  0  0  0  0  0  0  0  0  0
  -27.3019  -13.1053   19.0527 C   0  0  1  0  0  0  0  0  0  0  0  0
  -29.7382  -21.1614   23.8071 C   0  0  0  0  0  0  0  0  0  0  0  0
  -18.5750  -29.2040   16.4884 C   0  0  0  0  0  0  0  0  0  0  0  0
  -20.2281  -30.1096   22.8381 C   0  0  0  0  0  0  0  0  0  0  0  0
  -18.6399  -29.1656   21.1485 C   0  0  0  0  0  0  0  0  0  0  0  0
  -19.0267  -31.6276   21.2547 C   0  0  0  0  0  0  0  0  0  0  0  0
  -22.2552  -29.5488   15.5867 C   0  0  0  0  0  0  0  0  0  0  0  0
  -28.3593  -25.4223   20.5274 C   0  0  0  0  0  0  0  0  0  1  0  0
  -28.3929  -21.3203   23.0753 C   0  0  2  0  0  0  0  0  0  0  0  0
  -20.8390  -30.1271   20.3296 C   0  0  1  0  0  0  0  0  0  0  0  0
  -20.0034  -29.6980   16.6571 C   0  0  2  0  0  0  0  0  0  0  0  0
  -19.7109  -30.2501   21.3924 C   0  0  0  0  0  0  0  0  0  0  0  0
  -25.7323  -11.6004   20.2168 N   0  0  0  0  0  0  0  0  0  0  0  0
  -28.3940  -23.3263   21.7390 N   0  0  0  0  0  0  0  0  0  0  0  0
  -26.9748  -12.1081   20.1491 N   0  0  0  0  0  0  0  0  0  0  0  0
  -23.2199  -30.6441   20.7628 N   0  0  0  0  0  0  0  0  0  0  0  0
  -27.3827  -15.4994   18.4261 N   0  0  0  0  0  0  0  0  0  0  0  0
  -28.8079  -17.0437   19.5686 N   0  0  0  0  0  0  0  0  0  0  0  0
  -29.0999  -12.0466   21.1935 N   0  0  0  0  0  0  0  0  0  0  0  0
  -26.6418   -9.1731   23.6627 N   0  0  0  0  0  0  0  0  0  0  0  0
  -25.2606  -32.4239   23.2050 N   0  0  0  0  0  0  0  0  0  0  0  0
  -20.3824  -30.2831   18.9528 N   0  0  0  0  0  0  0  0  0  0  0  0
  -20.8312  -29.1267   15.5573 N   0  3  0  0  0  0  0  0  0  0  0  0
  -28.7120  -10.1329   23.4350 O   0  0  0  0  0  0  0  0  0  0  0  0
  -23.6142  -30.7792   23.2851 O   0  0  0  0  0  0  0  0  0  0  0  0
  -21.6559  -32.3492   20.4753 O   0  0  0  0  0  0  0  0  0  0  0  0
  -21.1220  -28.2169   18.2038 O   0  0  0  0  0  0  0  0  0  0  0  0
  -29.1904  -16.4650   17.3701 O   0  0  0  0  0  0  0  0  0  0  0  0
  -21.2872   -7.8728   22.8426 O   0  0  0  0  0  0  0  0  0  0  0  0
  -26.9798  -25.7439   20.6524 O   0  0  0  0  0  0  0  0  0  1  0  0
  -21.9703   -2.5400   24.0668 F   0  0  0  0  0  0  0  0  0  0  0  0
  -22.9847   -7.0914   24.8799 F   0  0  0  0  0  0  0  0  0  0  0  0
  1  2  1  0  0  0  0
  1  5  2  0  0  0  0
  2  6  2  0  0  0  0
  3  9  2  0  0  0  0
  3 17  1  0  0  0  0
  4 10  1  0  0  0  0
  4 17  2  0  0  0  0
  5 19  1  0  0  0  0
  6 21  1  0  0  0  0
  7 11  2  0  0  0  0
  7 20  1  0  0  0  0
  8 14  2  0  0  0  0
  8 22  1  0  0  0  0
  9 24  1  0  0  0  0
 10 24  2  0  0  0  0
 11 25  1  0  0  0  0
 12 13  2  0  0  0  0
 12 26  1  0  0  0  0
 13 27  1  0  0  0  0
 14 30  1  0  0  0  0
 15 23  1  0  0  0  0
 15 25  2  0  0  0  0
 16 27  2  0  0  0  0
 16 28  1  0  0  0  0
 17 29  1  0  0  0  0
 18 29  1  0  0  0  0
 18 32  2  0  0  0  0
 18 33  1  0  0  0  0
 19 21  2  0  0  0  0
 19 38  1  0  0  0  0
 20 23  2  0  0  0  0
 20 39  1  0  0  0  0
 21 54  1  0  0  0  0
 22 31  2  0  0  0  0
 22 53  1  0  0  0  0
 23 40  1  0  0  0  0
 24 85  1  0  0  0  0
 25 86  1  0  0  0  0
 26 28  2  0  0  0  0
 26 85  1  0  0  0  0
 27 87  1  0  0  0  0
 28 88  1  0  0  0  0
 29 69  2  0  0  0  0
 30 64  1  0  0  0  0
 30 70  2  0  0  0  0
 31 65  1  0  0  0  0
 31 70  1  0  0  0  0
 32 71  1  0  0  0  0
 32 75  1  0  0  0  0
 33 76  1  0  0  0  0
 33 80  2  0  0  0  0
 34 55  1  0  0  0  0
 34 77  1  0  0  0  0
 34 81  2  0  0  0  0
 35 66  1  0  0  0  0
 35 72  1  0  0  0  0
 35 82  2  0  0  0  0
 36 67  1  0  0  0  0
 36 78  1  0  0  0  0
 36 83  2  0  0  0  0
 37 73  1  0  0  0  0
 37 74  1  0  0  0  0
 37 84  2  0  0  0  0
 38 41  1  0  0  0  0
 39 55  1  0  0  0  0
 40 72  1  0  0  0  0
 41 43  1  0  0  0  0
 42 46  1  0  0  0  0
 42 49  1  0  0  0  0
 43 54  1  0  0  0  0
 44 45  1  0  0  0  0
 44 56  1  0  0  0  0
 45 56  1  0  0  0  0
 46 57  1  0  0  0  0
 47 50  1  0  0  0  0
 47 53  1  0  0  0  0
 48 51  1  0  0  0  0
 48 53  1  0  0  0  0
 49 73  1  0  0  0  0
 50 74  1  0  0  0  0
 51 74  1  0  0  0  0
 52 57  1  0  0  0  0
 52 73  1  0  0  0  0
 54 77  1  0  0  0  0
 55 72  1  0  0  0  0
 56 65  1  0  0  0  0
 57 71  1  0  0  0  0
 58 65  1  0  0  0  0
 59 67  1  0  0  0  0
 60 68  1  0  0  0  0
 61 68  1  0  0  0  0
 62 68  1  0  0  0  0
 63 79  1  0  0  0  0
 64 86  1  0  0  0  0
 66 68  1  0  0  0  0
 66 78  1  0  0  0  0
 67 79  1  0  0  0  0
 69 71  1  0  0  0  0
M  CHG  1  79   1
M  ISO  4  37 100  64 101  74 100  86 101
M  END
> <Batch ID>
0148

> <Smiles>
CNC(C)C(=O)NC(C(=O)N1Cc2cc([101O:1][101CH2:1]c3ccc(C4CC[100N:0]([100C:0](=O)N5CCCC(n6nc(-c7ccc(Oc8ccc(F)cc8F)cc7)c(C(N)=O)c6N)C5)CC4)c(C(C)C4CC4)n3)ccc2CC1C(=O)NC1CCCc2ccccc21)C(C)(C)C

> <Shape>
0.300

> <Color>
0.080

> <Negative vol penalty>
0.000

$$$$
