
  -OEChem-04052321383D

 87 95  0     1  0  0  0  0  0999 V2000
  -32.3463  -13.6442   20.0195 C   0  0  0  0  0  0  0  0  0  0  0  0
  -31.7699  -14.9104   20.0275 C   0  0  0  0  0  0  0  0  0  0  0  0
  -30.2940  -27.3659   19.1111 C   0  0  0  0  0  0  0  0  0  0  0  0
  -30.0179  -26.6314   21.3962 C   0  0  0  0  0  0  0  0  0  0  0  0
  -31.5385  -12.5125   19.9166 C   0  0  0  0  0  0  0  0  0  0  0  0
  -30.3854  -15.0456   19.9314 C   0  0  0  0  0  0  0  0  0  0  0  0
  -26.9065  -19.3041   22.6274 C   0  0  0  0  0  0  0  0  0  0  0  0
  -31.6789  -27.2730   19.2485 C   0  0  0  0  0  0  0  0  0  0  0  0
  -31.4029  -26.5384   21.5335 C   0  0  0  0  0  0  0  0  0  0  0  0
  -26.3637  -20.5022   22.1652 C   0  0  0  0  0  0  0  0  0  0  0  0
  -33.8511  -24.3774   20.6633 C   0  0  0  0  0  0  0  0  0  0  0  0
  -34.3643  -23.2376   21.2822 C   0  0  0  0  0  0  0  0  0  0  0  0
  -24.2880  -19.3701   21.6865 C   0  0  0  0  0  0  0  0  0  0  0  0
  -20.4479  -23.0630   22.4143 C   0  0  0  0  0  0  0  0  0  0  0  0
  -21.3910  -25.1320   21.5975 C   0  0  0  0  0  0  0  0  0  0  0  0
  -35.3666  -24.6180   22.9931 C   0  0  0  0  0  0  0  0  0  0  0  0
  -29.4635  -27.0452   20.1850 C   0  0  0  0  0  0  0  0  0  0  0  0
  -27.1511  -26.1322   19.6131 C   0  0  0  0  0  0  0  0  0  0  0  0
  -30.1427  -12.6335   19.8290 C   0  0  0  0  0  0  0  0  0  0  0  0
  -26.1465  -18.1257   22.6125 C   0  0  0  0  0  0  0  0  0  0  0  0
  -29.5583  -13.9145   19.8259 C   0  0  0  0  0  0  0  0  0  0  0  0
  -24.8227  -18.1589   22.1515 C   0  0  0  0  0  0  0  0  0  0  0  0
  -19.1773  -23.4899   22.0287 C   0  0  0  0  0  0  0  0  0  0  0  0
  -20.1203  -25.5589   21.2118 C   0  0  0  0  0  0  0  0  0  0  0  0
  -19.0134  -24.7378   21.4274 C   0  0  0  0  0  0  0  0  0  0  0  0
  -32.2334  -26.8592   20.4597 C   0  0  0  0  0  0  0  0  0  0  0  0
  -25.0552  -20.5347   21.6919 C   0  0  0  0  0  0  0  0  0  0  0  0
  -34.0957  -25.6375   21.2092 C   0  0  0  0  0  0  0  0  0  0  0  0
  -21.5548  -23.8841   22.1988 C   0  0  0  0  0  0  0  0  0  0  0  0
  -35.1221  -23.3579   22.4472 C   0  0  0  0  0  0  0  0  0  0  0  0
  -34.8534  -25.7578   22.3742 C   0  0  0  0  0  0  0  0  0  0  0  0
  -28.0328  -27.1416   20.0439 C   0  0  0  0  0  0  0  0  0  0  0  0
  -25.9104  -26.7199   19.6531 C   0  0  0  0  0  0  0  0  0  0  0  0
  -27.4288  -24.7838   19.2127 C   0  0  0  0  0  0  0  0  0  0  0  0
  -26.4106  -15.3043   21.1725 C   0  0  0  0  0  0  0  0  0  0  0  0
  -23.8429  -14.5631   23.0110 C   0  0  0  0  0  0  0  0  0  0  0  0
  -21.1244  -15.6502   24.7644 C   0  0  0  0  0  0  0  0  0  0  0  0
  -22.1078  -29.8904   22.2288 C   0  0  0  0  0  0  0  0  0  0  0  0
  -29.3140  -11.3832   19.6718 C   0  0  0  0  0  0  0  0  0  0  0  0
  -26.7378  -16.8470   23.1395 C   0  0  0  0  0  0  0  0  0  0  0  0
  -23.9582  -16.9257   22.1334 C   0  0  0  0  0  0  0  0  0  0  0  0
  -27.8287  -11.5976   19.9514 C   0  0  0  0  0  0  0  0  0  0  0  0
  -24.5786  -31.5590   20.2825 C   0  0  0  0  0  0  0  0  0  0  0  0
  -27.3277  -12.8517   19.2422 C   0  0  0  0  0  0  0  0  0  0  0  0
  -25.6271  -30.4773   20.0170 C   0  0  0  0  0  0  0  0  0  0  0  0
  -23.9716  -31.4263   21.6775 C   0  0  0  0  0  0  0  0  0  0  0  0
  -24.4680  -29.0128   21.7230 C   0  0  0  0  0  0  0  0  0  0  0  0
  -28.0585  -14.1011   19.7486 C   0  0  1  0  0  0  0  0  0  0  0  0
  -26.0437  -15.6005   22.5991 C   0  0  1  0  0  0  0  0  0  0  0  0
  -25.0684  -29.0714   20.3080 C   0  0  2  0  0  0  0  0  0  0  0  0
  -18.0092  -22.5907   22.2699 C   0  0  0  0  0  0  0  0  0  0  0  0
  -19.1940  -14.8072   26.1283 C   0  0  0  0  0  0  0  0  0  0  0  0
  -22.4248  -13.6843   20.4563 C   0  0  0  0  0  0  0  0  0  0  0  0
  -20.2608  -13.7645   21.7128 C   0  0  0  0  0  0  0  0  0  0  0  0
  -22.0556  -12.1844   22.4231 C   0  0  0  0  0  0  0  0  0  0  0  0
  -22.0309  -17.1194   27.1682 C   0  0  0  0  0  0  0  0  0  0  0  0
  -15.4956  -25.6757   21.8195 C   0  0  0  0  0  0  0  0  0  0  0  0
  -19.9708  -26.9002   20.5718 C   0  0  0  0  0  0  0  0  0  0  0  0
  -17.6506  -25.1955   21.0144 C   0  0  0  0  0  0  0  0  0  0  0  0
  -19.4652  -28.0042   21.5198 C   0  0  0  0  0  0  0  0  0  0  0  0
  -20.3416  -28.2268   22.7505 C   0  0  0  0  0  0  0  0  0  0  0  0
  -25.0069  -22.9084   21.8298 C   0  0  0  0  0  0  0  0  0  1  0  0
  -23.9009  -23.9458   21.8144 C   0  0  0  0  0  0  0  0  0  0  0  0
  -22.3456  -14.6602   22.8453 C   0  0  1  0  0  0  0  0  0  0  0  0
  -20.6263  -15.3173   26.1592 C   0  0  2  0  0  0  0  0  0  0  0  0
  -21.7884  -13.5964   21.8578 C   0  0  0  0  0  0  0  0  0  0  0  0
  -27.4054  -28.2840   20.3359 N   0  0  0  0  0  0  0  0  0  0  0  0
  -26.1163  -27.9961   20.0881 N   0  0  0  0  0  0  0  0  0  0  0  0
  -24.5837  -15.6984   22.6531 N   0  0  0  0  0  0  0  0  0  0  0  0
  -23.4588  -30.0705   21.8890 N   0  0  0  0  0  0  0  0  0  0  0  0
  -24.6743  -26.2645   19.3581 N   0  0  0  0  0  0  0  0  0  0  0  0
  -28.7588  -24.3420   19.2305 N   0  0  0  0  0  0  0  0  0  0  0  0
  -27.5318  -14.5088   21.0335 N   0  0  0  0  0  0  0  0  0  0  0  0
  -21.7804  -14.5831   24.1880 N   0  0  0  0  0  0  0  0  0  0  0  0
  -21.7023  -28.5731   22.4050 N   0  0  0  0  0  0  0  0  0  0  0  0
  -20.6760  -16.5262   27.0292 N   0  3  0  0  0  0  0  0  0  0  0  0
  -26.5263  -23.9991   18.8342 O   0  0  0  0  0  0  0  0  0  0  0  0
  -25.7261  -15.7623   20.2651 O   0  0  0  0  0  0  0  0  0  0  0  0
  -24.3365  -13.5208   23.4489 O   0  0  0  0  0  0  0  0  0  0  0  0
  -20.9458  -16.7460   24.2372 O   0  0  0  0  0  0  0  0  0  0  0  0
  -21.3200  -30.8334   22.3597 O   0  0  0  0  0  0  0  0  0  0  0  0
  -33.5848  -26.7681   20.5940 O   0  0  0  0  0  0  0  0  0  0  0  0
  -24.5231  -21.7027   21.2396 O   0  0  0  0  0  0  0  0  0  1  0  0
  -22.8024  -23.4652   22.5797 O   0  0  0  0  0  0  0  0  0  0  0  0
  -16.8074  -25.2452   22.1570 O   0  0  0  0  0  0  0  0  0  0  0  0
  -35.6136  -22.2632   23.0423 F   0  0  0  0  0  0  0  0  0  0  0  0
  -35.0907  -26.9656   22.9040 F   0  0  0  0  0  0  0  0  0  0  0  0
  1  2  1  0  0  0  0
  1  5  2  0  0  0  0
  2  6  2  0  0  0  0
  3  8  2  0  0  0  0
  3 17  1  0  0  0  0
  4  9  1  0  0  0  0
  4 17  2  0  0  0  0
  5 19  1  0  0  0  0
  6 21  1  0  0  0  0
  7 10  2  0  0  0  0
  7 20  1  0  0  0  0
  8 26  1  0  0  0  0
  9 26  2  0  0  0  0
 10 27  1  0  0  0  0
 11 12  2  0  0  0  0
 11 28  1  0  0  0  0
 12 30  1  0  0  0  0
 13 22  1  0  0  0  0
 13 27  2  0  0  0  0
 14 23  2  0  0  0  0
 14 29  1  0  0  0  0
 15 24  1  0  0  0  0
 15 29  2  0  0  0  0
 16 30  2  0  0  0  0
 16 31  1  0  0  0  0
 17 32  1  0  0  0  0
 18 32  1  0  0  0  0
 18 33  2  0  0  0  0
 18 34  1  0  0  0  0
 19 21  2  0  0  0  0
 19 39  1  0  0  0  0
 20 22  2  0  0  0  0
 20 40  1  0  0  0  0
 21 48  1  0  0  0  0
 22 41  1  0  0  0  0
 23 25  1  0  0  0  0
 23 51  1  0  0  0  0
 24 25  2  0  0  0  0
 24 58  1  0  0  0  0
 25 59  1  0  0  0  0
 26 82  1  0  0  0  0
 27 83  1  0  0  0  0
 28 31  2  0  0  0  0
 28 82  1  0  0  0  0
 29 84  1  0  0  0  0
 30 86  1  0  0  0  0
 31 87  1  0  0  0  0
 32 67  2  0  0  0  0
 33 68  1  0  0  0  0
 33 71  1  0  0  0  0
 34 72  1  0  0  0  0
 34 77  2  0  0  0  0
 35 49  1  0  0  0  0
 35 73  1  0  0  0  0
 35 78  2  0  0  0  0
 36 64  1  0  0  0  0
 36 69  1  0  0  0  0
 36 79  2  0  0  0  0
 37 65  1  0  0  0  0
 37 74  1  0  0  0  0
 37 80  2  0  0  0  0
 38 70  1  0  0  0  0
 38 75  1  0  0  0  0
 38 81  2  0  0  0  0
 39 42  1  0  0  0  0
 40 49  1  0  0  0  0
 41 69  1  0  0  0  0
 42 44  1  0  0  0  0
 43 45  1  0  0  0  0
 43 46  1  0  0  0  0
 44 48  1  0  0  0  0
 45 50  1  0  0  0  0
 46 70  1  0  0  0  0
 47 50  1  0  0  0  0
 47 70  1  0  0  0  0
 48 73  1  0  0  0  0
 49 69  1  0  0  0  0
 50 68  1  0  0  0  0
 52 65  1  0  0  0  0
 53 66  1  0  0  0  0
 54 66  1  0  0  0  0
 55 66  1  0  0  0  0
 56 76  1  0  0  0  0
 57 85  1  0  0  0  0
 58 60  1  0  0  0  0
 59 85  1  0  0  0  0
 60 61  1  0  0  0  0
 61 75  1  0  0  0  0
 62 63  1  0  0  0  0
 62 83  1  0  0  0  0
 63 84  1  0  0  0  0
 64 66  1  0  0  0  0
 64 74  1  0  0  0  0
 65 76  1  0  0  0  0
 67 68  1  0  0  0  0
M  CHG  1  76   1
M  ISO  4  38 100  62 101  75 100  83 101
M  END
> <Batch ID>
0149

> <Smiles>
CNC(C)C(=O)NC(C(=O)N1Cc2cc([101O:1][101CH2:1]COc3cc(C)c(COC)c(CCC[100NH:0][100C:0](=O)N4CCCC(n5nc(-c6ccc(Oc7ccc(F)cc7F)cc6)c(C(N)=O)c5N)C4)c3)ccc2CC1C(=O)NC1CCCc2ccccc21)C(C)(C)C

> <Shape>
0.217

> <Color>
0.060

> <Negative vol penalty>
0.000

$$$$

  -OEChem-04052321383D

 84 92  0     1  0  0  0  0  0999 V2000
  -17.2570  -27.6855   22.4182 C   0  0  0  0  0  0  0  0  0  0  0  0
  -18.2541  -26.9056   22.9952 C   0  0  0  0  0  0  0  0  0  0  0  0
  -24.0816  -13.2800   20.8838 C   0  0  0  0  0  0  0  0  0  0  0  0
  -26.4711  -13.1538   20.5501 C   0  0  0  0  0  0  0  0  0  0  0  0
  -17.5997  -28.7368   21.5689 C   0  0  0  0  0  0  0  0  0  0  0  0
  -19.5946  -27.1759   22.7224 C   0  0  0  0  0  0  0  0  0  0  0  0
  -26.0733  -26.9209   25.7685 C   0  0  0  0  0  0  0  0  0  0  0  0
  -23.9679  -11.9226   20.5837 C   0  0  0  0  0  0  0  0  0  0  0  0
  -26.3574  -11.7963   20.2500 C   0  0  0  0  0  0  0  0  0  0  0  0
  -27.3535  -26.4201   25.5365 C   0  0  0  0  0  0  0  0  0  0  0  0
  -23.0935   -8.4092   20.2579 C   0  0  0  0  0  0  0  0  0  0  0  0
  -22.2834   -7.6284   21.0823 C   0  0  0  0  0  0  0  0  0  0  0  0
  -27.8297  -28.3115   24.1170 C   0  0  0  0  0  0  0  0  0  0  0  0
  -29.5553  -22.3468   22.1717 C   0  0  0  0  0  0  0  0  0  0  0  0
  -23.6710   -8.1906   22.9785 C   0  0  0  0  0  0  0  0  0  0  0  0
  -25.3332  -13.8957   20.8669 C   0  0  0  0  0  0  0  0  0  0  0  0
  -25.6588  -15.8743   22.4438 C   0  0  0  0  0  0  0  0  0  0  0  0
  -18.9454  -29.0262   21.2932 C   0  0  0  0  0  0  0  0  0  0  0  0
  -25.6572  -28.1173   25.1667 C   0  0  0  0  0  0  0  0  0  0  0  0
  -19.9556  -28.2313   21.8676 C   0  0  0  0  0  0  0  0  0  0  0  0
  -26.5446  -28.8267   24.3449 C   0  0  0  0  0  0  0  0  0  0  0  0
  -30.2611  -23.3848   22.7698 C   0  0  0  0  0  0  0  0  0  0  0  0
  -30.2702  -24.6432   22.1785 C   0  0  0  0  0  0  0  0  0  0  0  0
  -25.1058  -11.1807   20.2668 C   0  0  0  0  0  0  0  0  0  0  0  0
  -28.2310  -27.1138   24.7084 C   0  0  0  0  0  0  0  0  0  0  0  0
  -24.1924   -9.0807   20.7938 C   0  0  0  0  0  0  0  0  0  0  0  0
  -22.5721   -7.5191   22.4425 C   0  0  0  0  0  0  0  0  0  0  0  0
  -24.4811   -8.9714   22.1540 C   0  0  0  0  0  0  0  0  0  0  0  0
  -25.4511  -15.2980   21.1763 C   0  0  0  0  0  0  0  0  0  0  0  0
  -29.5633  -24.8105   20.9987 C   0  0  0  0  0  0  0  0  0  0  0  0
  -28.8802  -22.6170   20.9922 C   0  0  0  0  0  0  0  0  0  0  0  0
  -25.6976  -17.2262   22.2040 C   0  0  0  0  0  0  0  0  0  0  0  0
  -25.8038  -15.2441   23.7234 C   0  0  0  0  0  0  0  0  0  0  0  0
  -23.3658  -28.9171   23.1140 C   0  0  0  0  0  0  0  0  0  0  0  0
  -24.3900  -31.9294   23.7456 C   0  0  0  0  0  0  0  0  0  0  0  0
  -26.9157  -33.9703   24.7954 C   0  0  0  0  0  0  0  0  0  0  0  0
  -27.4196  -21.5950   19.2122 C   0  0  0  0  0  0  0  0  0  0  0  0
  -19.2655  -30.1431   20.3316 C   0  0  0  0  0  0  0  0  0  0  0  0
  -24.2821  -28.6580   25.4483 C   0  0  0  0  0  0  0  0  0  0  0  0
  -26.1535  -30.1260   23.6912 C   0  0  0  0  0  0  0  0  0  0  0  0
  -20.7211  -30.5990   20.3902 C   0  0  0  0  0  0  0  0  0  0  0  0
  -24.5313  -19.8692   18.0476 C   0  0  0  0  0  0  0  0  0  0  0  0
  -21.6581  -29.3952   20.3869 C   0  0  0  0  0  0  0  0  0  0  0  0
  -24.5302  -18.5735   18.8620 C   0  0  0  0  0  0  0  0  0  0  0  0
  -25.9480  -20.3065   17.6795 C   0  0  0  0  0  0  0  0  0  0  0  0
  -26.8781  -19.1147   19.6246 C   0  0  0  0  0  0  0  0  0  0  0  0
  -21.4218  -28.5088   21.6157 C   0  0  1  0  0  0  0  0  0  0  0  0
  -23.7868  -29.6204   24.3733 C   0  0  1  0  0  0  0  0  0  0  0  0
  -25.4770  -18.6691   20.0744 C   0  0  2  0  0  0  0  0  0  0  0  0
  -30.9990  -23.1243   24.0413 C   0  0  0  0  0  0  0  0  0  0  0  0
  -28.1193  -26.6727   20.1422 C   0  0  0  0  0  0  0  0  0  0  0  0
  -33.1822  -25.2971   21.5127 C   0  0  0  0  0  0  0  0  0  0  0  0
  -27.4671  -36.3898   25.1690 C   0  0  0  0  0  0  0  0  0  0  0  0
  -24.6992  -32.3212   20.7355 C   0  0  0  0  0  0  0  0  0  0  0  0
  -26.1116  -34.3326   21.2127 C   0  0  0  0  0  0  0  0  0  0  0  0
  -23.7285  -34.2811   21.9484 C   0  0  0  0  0  0  0  0  0  0  0  0
  -27.3917  -33.5358   27.6840 C   0  0  0  0  0  0  0  0  0  0  0  0
  -29.5380  -26.1399   20.3173 C   0  0  0  0  0  0  0  0  0  0  0  0
  -32.1453  -26.3477   21.8922 C   0  0  0  0  0  0  0  0  0  0  0  0
  -30.0766  -26.9324   23.2195 C   0  0  0  0  0  0  0  0  0  1  0  0
  -31.0329  -25.7994   22.8104 C   0  0  1  0  0  0  0  0  0  0  0  0
  -25.4292  -32.8512   23.1546 C   0  0  1  0  0  0  0  0  0  0  0  0
  -26.9392  -35.1099   25.7982 C   0  0  2  0  0  0  0  0  0  0  0  0
  -24.9991  -33.4211   21.7734 C   0  0  0  0  0  0  0  0  0  0  0  0
  -25.3639  -16.2091   20.2035 N   0  0  0  0  0  0  0  0  0  0  0  0
  -28.8661  -23.8263   20.3881 N   0  0  0  0  0  0  0  0  0  0  0  0
  -25.5175  -17.3717   20.8599 N   0  0  0  0  0  0  0  0  0  0  0  0
  -24.7962  -30.6104   23.9923 N   0  0  0  0  0  0  0  0  0  0  0  0
  -26.7866  -20.3792   18.8780 N   0  0  0  0  0  0  0  0  0  0  0  0
  -25.8678  -18.2927   23.0139 N   0  0  0  0  0  0  0  0  0  0  0  0
  -25.7386  -13.8457   23.7907 N   0  0  0  0  0  0  0  0  0  0  0  0
  -28.1642  -21.5526   20.3904 N   0  0  0  0  0  0  0  0  0  0  0  0
  -22.0349  -29.0958   22.7878 N   0  0  0  0  0  0  0  0  0  0  0  0
  -25.6934  -33.8697   24.1652 N   0  0  0  0  0  0  0  0  0  0  0  0
  -27.8093  -34.7622   26.9570 N   0  3  0  0  0  0  0  0  0  0  0  0
  -25.9694  -15.9024   24.7782 O   0  0  0  0  0  0  0  0  0  0  0  0
  -24.1879  -28.2620   22.4841 O   0  0  0  0  0  0  0  0  0  0  0  0
  -23.2615  -32.3656   23.9864 O   0  0  0  0  0  0  0  0  0  0  0  0
  -27.8859  -33.2446   24.5890 O   0  0  0  0  0  0  0  0  0  0  0  0
  -27.2871  -22.6074   18.5197 O   0  0  0  0  0  0  0  0  0  0  0  0
  -24.9953   -9.8561   19.9742 O   0  0  0  0  0  0  0  0  0  0  0  0
  -29.4810  -26.6268   24.4797 O   0  0  0  0  0  0  0  0  0  1  0  0
  -21.7931   -6.7705   23.2344 F   0  0  0  0  0  0  0  0  0  0  0  0
  -25.5348   -9.6151   22.6748 F   0  0  0  0  0  0  0  0  0  0  0  0
  1  2  1  0  0  0  0
  1  5  2  0  0  0  0
  2  6  2  0  0  0  0
  3  8  2  0  0  0  0
  3 16  1  0  0  0  0
  4  9  1  0  0  0  0
  4 16  2  0  0  0  0
  5 18  1  0  0  0  0
  6 20  1  0  0  0  0
  7 10  2  0  0  0  0
  7 19  1  0  0  0  0
  8 24  1  0  0  0  0
  9 24  2  0  0  0  0
 10 25  1  0  0  0  0
 11 12  2  0  0  0  0
 11 26  1  0  0  0  0
 12 27  1  0  0  0  0
 13 21  1  0  0  0  0
 13 25  2  0  0  0  0
 14 22  2  0  0  0  0
 14 31  1  0  0  0  0
 15 27  2  0  0  0  0
 15 28  1  0  0  0  0
 16 29  1  0  0  0  0
 17 29  1  0  0  0  0
 17 32  2  0  0  0  0
 17 33  1  0  0  0  0
 18 20  2  0  0  0  0
 18 38  1  0  0  0  0
 19 21  2  0  0  0  0
 19 39  1  0  0  0  0
 20 47  1  0  0  0  0
 21 40  1  0  0  0  0
 22 23  1  0  0  0  0
 22 50  1  0  0  0  0
 23 30  2  0  0  0  0
 23 61  1  0  0  0  0
 24 81  1  0  0  0  0
 25 82  1  0  0  0  0
 26 28  2  0  0  0  0
 26 81  1  0  0  0  0
 27 83  1  0  0  0  0
 28 84  1  0  0  0  0
 29 65  2  0  0  0  0
 30 58  1  0  0  0  0
 30 66  1  0  0  0  0
 31 66  2  0  0  0  0
 31 72  1  0  0  0  0
 32 67  1  0  0  0  0
 32 70  1  0  0  0  0
 33 71  1  0  0  0  0
 33 76  2  0  0  0  0
 34 48  1  0  0  0  0
 34 73  1  0  0  0  0
 34 77  2  0  0  0  0
 35 62  1  0  0  0  0
 35 68  1  0  0  0  0
 35 78  2  0  0  0  0
 36 63  1  0  0  0  0
 36 74  1  0  0  0  0
 36 79  2  0  0  0  0
 37 69  1  0  0  0  0
 37 72  1  0  0  0  0
 37 80  2  0  0  0  0
 38 41  1  0  0  0  0
 39 48  1  0  0  0  0
 40 68  1  0  0  0  0
 41 43  1  0  0  0  0
 42 44  1  0  0  0  0
 42 45  1  0  0  0  0
 43 47  1  0  0  0  0
 44 49  1  0  0  0  0
 45 69  1  0  0  0  0
 46 49  1  0  0  0  0
 46 69  1  0  0  0  0
 47 73  1  0  0  0  0
 48 68  1  0  0  0  0
 49 67  1  0  0  0  0
 51 58  1  0  0  0  0
 52 59  1  0  0  0  0
 53 63  1  0  0  0  0
 54 64  1  0  0  0  0
 55 64  1  0  0  0  0
 56 64  1  0  0  0  0
 57 75  1  0  0  0  0
 59 61  1  0  0  0  0
 60 61  1  0  0  0  0
 60 82  1  0  0  0  0
 62 64  1  0  0  0  0
 62 74  1  0  0  0  0
 63 75  1  0  0  0  0
 65 67  1  0  0  0  0
M  CHG  1  75   1
M  ISO  4  37 100  60 101  72 100  82 101
M  END
> <Batch ID>
0149

> <Smiles>
CCc1nc([100NH:0][100C:0](=O)N2CCCC(n3nc(-c4ccc(Oc5ccc(F)cc5F)cc4)c(C(N)=O)c3N)C2)cc(C)c1C(CC)[101CH2:1][101O:1]c1ccc2c(c1)CN(C(=O)C(NC(=O)C(C)NC)C(C)(C)C)C(C(=O)NC1CCCc3ccccc31)C2

> <Shape>
0.249

> <Color>
0.091

> <Negative vol penalty>
0.000

$$$$

  -OEChem-04052321383D

 86 95  0     1  0  0  0  0  0999 V2000
  -30.6167  -30.0269   13.2420 C   0  0  0  0  0  0  0  0  0  0  0  0
  -30.2211  -28.8659   13.8985 C   0  0  0  0  0  0  0  0  0  0  0  0
  -22.6431  -10.2664   20.1962 C   0  0  0  0  0  0  0  0  0  0  0  0
  -24.3416   -9.3012   21.6178 C   0  0  0  0  0  0  0  0  0  0  0  0
  -30.7612  -31.2155   13.9563 C   0  0  0  0  0  0  0  0  0  0  0  0
  -29.9708  -28.8927   15.2701 C   0  0  0  0  0  0  0  0  0  0  0  0
  -25.7484  -25.6581   18.3055 C   0  0  0  0  0  0  0  0  0  0  0  0
  -21.8768   -9.1081   20.3254 C   0  0  0  0  0  0  0  0  0  0  0  0
  -23.5752   -8.1430   21.7470 C   0  0  0  0  0  0  0  0  0  0  0  0
  -25.8221  -24.4757   19.0405 C   0  0  0  0  0  0  0  0  0  0  0  0
  -20.8818   -7.1249   23.5162 C   0  0  0  0  0  0  0  0  0  0  0  0
  -20.7456   -6.5789   24.7925 C   0  0  0  0  0  0  0  0  0  0  0  0
  -26.0367  -25.7588   21.0719 C   0  0  0  0  0  0  0  0  0  0  0  0
  -21.7652   -4.5279   24.0239 C   0  0  0  0  0  0  0  0  0  0  0  0
  -28.4380  -19.4777   23.3229 C   0  0  0  0  0  0  0  0  0  0  0  0
  -23.8756  -10.3629   20.8423 C   0  0  0  0  0  0  0  0  0  0  0  0
  -24.3025  -12.8667   21.0801 C   0  0  0  0  0  0  0  0  0  0  0  0
  -30.5032  -31.2591   15.3355 C   0  0  0  0  0  0  0  0  0  0  0  0
  -25.8294  -26.9018   18.9481 C   0  0  0  0  0  0  0  0  0  0  0  0
  -30.1133  -30.0827   16.0037 C   0  0  0  0  0  0  0  0  0  0  0  0
  -25.9612  -26.9556   20.3431 C   0  0  0  0  0  0  0  0  0  0  0  0
  -30.2020  -17.5097   22.5979 C   0  0  0  0  0  0  0  0  0  0  0  0
  -28.6489  -19.2577   21.9752 C   0  0  0  0  0  0  0  0  0  0  0  0
  -29.5435  -18.2580   21.6147 C   0  0  0  0  0  0  0  0  0  0  0  0
  -22.3427   -8.0464   21.1008 C   0  0  0  0  0  0  0  0  0  0  0  0
  -25.9692  -24.5259   20.4236 C   0  0  0  0  0  0  0  0  0  0  0  0
  -21.4598   -6.3724   22.4937 C   0  0  0  0  0  0  0  0  0  0  0  0
  -21.1873   -5.2804   25.0463 C   0  0  0  0  0  0  0  0  0  0  0  0
  -21.9015   -5.0739   22.7476 C   0  0  0  0  0  0  0  0  0  0  0  0
  -24.6680  -11.5589   20.7087 C   0  0  0  0  0  0  0  0  0  0  0  0
  -29.9154  -17.8051   23.9353 C   0  0  0  0  0  0  0  0  0  0  0  0
  -25.3925  -13.6346   20.7504 C   0  0  0  0  0  0  0  0  0  0  0  0
  -23.0865  -13.3446   21.6705 C   0  0  0  0  0  0  0  0  0  0  0  0
  -27.8339  -29.3655   18.8220 C   0  0  0  0  0  0  0  0  0  0  0  0
  -25.6504  -30.7417   20.7869 C   0  0  0  0  0  0  0  0  0  0  0  0
  -23.1424  -30.3377   23.0658 C   0  0  0  0  0  0  0  0  0  0  0  0
  -30.9098  -14.4697   20.6615 C   0  0  0  0  0  0  0  0  0  0  0  0
  -30.7187  -32.5564   16.0737 C   0  0  0  0  0  0  0  0  0  0  0  0
  -25.7214  -28.1683   18.1439 C   0  0  0  0  0  0  0  0  0  0  0  0
  -26.0326  -28.2655   21.0830 C   0  0  0  0  0  0  0  0  0  0  0  0
  -30.6158  -17.0925   25.0619 C   0  0  0  0  0  0  0  0  0  0  0  0
  -30.0717  -32.5855   17.4560 C   0  0  0  0  0  0  0  0  0  0  0  0
  -31.2589  -15.7731   24.6437 C   0  0  0  0  0  0  0  0  0  0  0  0
  -29.5113  -12.5116   18.0372 C   0  0  0  0  0  0  0  0  0  0  0  0
  -30.3787  -31.2992   18.2163 C   0  0  0  0  0  0  0  0  0  0  0  0
  -32.0543  -15.9581   23.3555 C   0  0  0  0  0  0  0  0  0  0  0  0
  -28.0994  -12.1921   18.5317 C   0  0  0  0  0  0  0  0  0  0  0  0
  -30.5217  -12.5209   19.1823 C   0  0  0  0  0  0  0  0  0  0  0  0
  -28.7556  -13.0788   20.8081 C   0  0  0  0  0  0  0  0  0  0  0  0
  -29.8086  -30.0772   17.4860 C   0  0  1  0  0  0  0  0  0  0  0  0
  -31.1470  -16.4016   22.2012 C   0  0  1  0  0  0  0  0  0  0  0  0
  -26.3316  -29.3767   18.8473 C   0  0  1  0  0  0  0  0  0  0  0  0
  -27.6918  -13.1131   19.6975 C   0  0  2  0  0  0  0  0  0  0  0  0
  -28.7000  -17.2547   19.4784 C   0  0  0  0  0  0  0  0  0  0  0  0
  -21.5763  -31.6480   24.5245 C   0  0  0  0  0  0  0  0  0  0  0  0
  -27.9402  -31.3251   22.7172 C   0  0  0  0  0  0  0  0  0  0  0  0
  -26.2359  -31.7449   24.5025 C   0  0  0  0  0  0  0  0  0  0  0  0
  -26.2876  -33.1853   22.4665 C   0  0  0  0  0  0  0  0  0  0  0  0
  -20.7602  -29.2163   21.7144 C   0  0  0  0  0  0  0  0  0  0  0  0
  -27.9254  -20.0997   20.9551 C   0  0  0  0  0  0  0  0  0  0  0  0
  -29.8093  -18.0500   20.1558 C   0  0  0  0  0  0  0  0  0  0  0  0
  -27.2637  -21.3475   21.5439 C   0  0  0  0  0  0  0  0  0  0  0  0
  -26.6083  -22.2362   20.4931 C   0  0  0  0  0  0  0  0  0  1  0  0
  -25.4486  -30.8075   22.2815 C   0  0  1  0  0  0  0  0  0  0  0  0
  -21.7684  -30.9738   23.1750 C   0  0  2  0  0  0  0  0  0  0  0  0
  -26.4787  -31.7408   22.9781 C   0  0  0  0  0  0  0  0  0  0  0  0
  -29.0489  -18.7822   24.3066 N   0  0  0  0  0  0  0  0  0  0  0  0
  -25.8943  -11.4958   20.1831 N   0  0  0  0  0  0  0  0  0  0  0  0
  -26.3088  -12.7736   20.2218 N   0  0  0  0  0  0  0  0  0  0  0  0
  -25.9288  -29.4761   20.2516 N   0  0  0  0  0  0  0  0  0  0  0  0
  -30.0766  -13.4146   20.2542 N   0  0  0  0  0  0  0  0  0  0  0  0
  -25.6470  -14.9555   20.8639 N   0  0  0  0  0  0  0  0  0  0  0  0
  -22.9914  -13.3803   23.0684 N   0  0  0  0  0  0  0  0  0  0  0  0
  -28.3824  -29.9748   17.7096 N   0  0  0  0  0  0  0  0  0  0  0  0
  -24.0570  -31.1933   22.4889 N   0  0  0  0  0  0  0  0  0  0  0  0
  -30.4094  -15.2729   21.6789 N   0  0  0  0  0  0  0  0  0  0  0  0
  -20.7054  -29.9425   23.0092 N   0  3  0  0  0  0  0  0  0  0  0  0
  -22.1070  -13.7133   20.9789 O   0  0  0  0  0  0  0  0  0  0  0  0
  -28.4498  -28.8441   19.7442 O   0  0  0  0  0  0  0  0  0  0  0  0
  -25.5570  -31.7740   20.1180 O   0  0  0  0  0  0  0  0  0  0  0  0
  -23.3814  -29.1973   23.4569 O   0  0  0  0  0  0  0  0  0  0  0  0
  -32.0152  -14.6833   20.1523 O   0  0  0  0  0  0  0  0  0  0  0  0
  -21.5951   -6.9162   21.2274 O   0  0  0  0  0  0  0  0  0  0  0  0
  -26.0421  -23.3732   21.1433 O   0  0  0  0  0  0  0  0  0  1  0  0
  -21.0577   -4.7567   26.2724 F   0  0  0  0  0  0  0  0  0  0  0  0
  -22.4586   -4.3465   21.7696 F   0  0  0  0  0  0  0  0  0  0  0  0
  1  2  1  0  0  0  0
  1  5  2  0  0  0  0
  2  6  2  0  0  0  0
  3  8  2  0  0  0  0
  3 16  1  0  0  0  0
  4  9  1  0  0  0  0
  4 16  2  0  0  0  0
  5 18  1  0  0  0  0
  6 20  1  0  0  0  0
  7 10  2  0  0  0  0
  7 19  1  0  0  0  0
  8 25  1  0  0  0  0
  9 25  2  0  0  0  0
 10 26  1  0  0  0  0
 11 12  2  0  0  0  0
 11 27  1  0  0  0  0
 12 28  1  0  0  0  0
 13 21  1  0  0  0  0
 13 26  2  0  0  0  0
 14 28  2  0  0  0  0
 14 29  1  0  0  0  0
 15 23  2  0  0  0  0
 15 67  1  0  0  0  0
 16 30  1  0  0  0  0
 17 30  1  0  0  0  0
 17 32  2  0  0  0  0
 17 33  1  0  0  0  0
 18 20  2  0  0  0  0
 18 38  1  0  0  0  0
 19 21  2  0  0  0  0
 19 39  1  0  0  0  0
 20 50  1  0  0  0  0
 21 40  1  0  0  0  0
 22 24  2  0  0  0  0
 22 31  1  0  0  0  0
 22 51  1  0  0  0  0
 23 24  1  0  0  0  0
 23 60  1  0  0  0  0
 24 61  1  0  0  0  0
 25 83  1  0  0  0  0
 26 84  1  0  0  0  0
 27 29  2  0  0  0  0
 27 83  1  0  0  0  0
 28 85  1  0  0  0  0
 29 86  1  0  0  0  0
 30 68  2  0  0  0  0
 31 41  1  0  0  0  0
 31 67  2  0  0  0  0
 32 69  1  0  0  0  0
 32 72  1  0  0  0  0
 33 73  1  0  0  0  0
 33 78  2  0  0  0  0
 34 52  1  0  0  0  0
 34 74  1  0  0  0  0
 34 79  2  0  0  0  0
 35 64  1  0  0  0  0
 35 70  1  0  0  0  0
 35 80  2  0  0  0  0
 36 65  1  0  0  0  0
 36 75  1  0  0  0  0
 36 81  2  0  0  0  0
 37 71  1  0  0  0  0
 37 76  1  0  0  0  0
 37 82  2  0  0  0  0
 38 42  1  0  0  0  0
 39 52  1  0  0  0  0
 40 70  1  0  0  0  0
 41 43  1  0  0  0  0
 42 45  1  0  0  0  0
 43 46  1  0  0  0  0
 44 47  1  0  0  0  0
 44 48  1  0  0  0  0
 45 50  1  0  0  0  0
 46 51  1  0  0  0  0
 47 53  1  0  0  0  0
 48 71  1  0  0  0  0
 49 53  1  0  0  0  0
 49 71  1  0  0  0  0
 50 74  1  0  0  0  0
 51 76  1  0  0  0  0
 52 70  1  0  0  0  0
 53 69  1  0  0  0  0
 54 61  1  0  0  0  0
 55 65  1  0  0  0  0
 56 66  1  0  0  0  0
 57 66  1  0  0  0  0
 58 66  1  0  0  0  0
 59 77  1  0  0  0  0
 60 62  1  0  0  0  0
 62 63  1  0  0  0  0
 63 84  1  0  0  0  0
 64 66  1  0  0  0  0
 64 75  1  0  0  0  0
 65 77  1  0  0  0  0
 68 69  1  0  0  0  0
M  CHG  1  77   1
M  ISO  4  37 100  63 101  76 100  84 101
M  END
> <Batch ID>
0149

> <Smiles>
CCc1c(CC[101CH2:1][101O:1]c2ccc3c(c2)CN(C(=O)C(NC(=O)C(C)NC)C(C)(C)C)C(C(=O)NC2CCCc4ccccc42)C3)cnc2c1C([100NH:0][100C:0](=O)N1CCCC(n3nc(-c4ccc(Oc5ccc(F)cc5F)cc4)c(C(N)=O)c3N)C1)CCC2

> <Shape>
0.344

> <Color>
0.214

> <Negative vol penalty>
0.000

$$$$

  -OEChem-04052321383D

 87 96  0     1  0  0  0  0  0999 V2000
  -28.5598  -25.8702   22.2063 C   0  0  0  0  0  0  0  0  0  0  0  0
  -27.4366  -25.0501   22.2421 C   0  0  0  0  0  0  0  0  0  0  0  0
  -24.5231  -28.5836   22.1359 C   0  0  0  0  0  0  0  0  0  0  0  0
  -23.7875  -29.4310   19.9963 C   0  0  0  0  0  0  0  0  0  0  0  0
  -29.5920  -25.5979   21.3094 C   0  0  0  0  0  0  0  0  0  0  0  0
  -27.3444  -23.9578   21.3801 C   0  0  0  0  0  0  0  0  0  0  0  0
  -24.7269  -18.5482   22.5594 C   0  0  0  0  0  0  0  0  0  0  0  0
  -25.4964  -29.5809   22.1963 C   0  0  0  0  0  0  0  0  0  0  0  0
  -24.7608  -30.4283   20.0567 C   0  0  0  0  0  0  0  0  0  0  0  0
  -23.4735  -18.0244   22.2457 C   0  0  0  0  0  0  0  0  0  0  0  0
  -25.6444  -32.8751   22.9442 C   0  0  0  0  0  0  0  0  0  0  0  0
  -25.7949  -33.5619   24.1488 C   0  0  0  0  0  0  0  0  0  0  0  0
  -16.3862  -18.4502   20.2815 C   0  0  0  0  0  0  0  0  0  0  0  0
  -24.4180  -16.9401   20.3088 C   0  0  0  0  0  0  0  0  0  0  0  0
  -16.8252  -19.1517   18.0117 C   0  0  0  0  0  0  0  0  0  0  0  0
  -28.0878  -32.8135   24.2890 C   0  0  0  0  0  0  0  0  0  0  0  0
  -23.6686  -28.5086   21.0359 C   0  0  0  0  0  0  0  0  0  0  0  0
  -21.3425  -27.5486   21.4545 C   0  0  0  0  0  0  0  0  0  0  0  0
  -29.5168  -24.4961   20.4428 C   0  0  0  0  0  0  0  0  0  0  0  0
  -25.8349  -18.2804   21.7427 C   0  0  0  0  0  0  0  0  0  0  0  0
  -28.3760  -23.6713   20.4699 C   0  0  0  0  0  0  0  0  0  0  0  0
  -17.7322  -18.1205   20.4400 C   0  0  0  0  0  0  0  0  0  0  0  0
  -25.6849  -17.4596   20.6158 C   0  0  0  0  0  0  0  0  0  0  0  0
  -15.9327  -18.9658   19.0673 C   0  0  0  0  0  0  0  0  0  0  0  0
  -25.6152  -30.5033   21.1567 C   0  0  0  0  0  0  0  0  0  0  0  0
  -23.3183  -17.2226   21.1187 C   0  0  0  0  0  0  0  0  0  0  0  0
  -26.7155  -32.1574   22.4119 C   0  0  0  0  0  0  0  0  0  0  0  0
  -18.1713  -18.8220   18.1702 C   0  0  0  0  0  0  0  0  0  0  0  0
  -18.6247  -18.3063   19.3844 C   0  0  0  0  0  0  0  0  0  0  0  0
  -27.0166  -33.5311   24.8212 C   0  0  0  0  0  0  0  0  0  0  0  0
  -27.9372  -32.1266   23.0843 C   0  0  0  0  0  0  0  0  0  0  0  0
  -22.6634  -27.4783   20.9727 C   0  0  0  0  0  0  0  0  0  0  0  0
  -20.8016  -26.3224   21.1539 C   0  0  0  0  0  0  0  0  0  0  0  0
  -20.6650  -28.6261   22.1146 C   0  0  0  0  0  0  0  0  0  0  0  0
  -27.8130  -20.0506   19.9942 C   0  0  0  0  0  0  0  0  0  0  0  0
  -29.3651  -17.2297   19.5998 C   0  0  0  0  0  0  0  0  0  0  0  0
  -29.2214  -13.8200   19.5940 C   0  0  0  0  0  0  0  0  0  0  0  0
  -20.9245  -22.4189   17.0115 C   0  0  0  0  0  0  0  0  0  0  0  0
  -30.6363  -24.2695   19.4579 C   0  0  0  0  0  0  0  0  0  0  0  0
  -27.1857  -18.8310   22.1096 C   0  0  0  0  0  0  0  0  0  0  0  0
  -26.8470  -17.1254   19.7178 C   0  0  0  0  0  0  0  0  0  0  0  0
  -30.6292  -22.8745   18.8381 C   0  0  0  0  0  0  0  0  0  0  0  0
  -22.6525  -21.8503   20.1401 C   0  0  0  0  0  0  0  0  0  0  0  0
  -17.9367  -18.3535   23.0047 C   0  0  0  0  0  0  0  0  0  0  0  0
  -19.3300  -18.2562   22.4666 C   0  0  0  0  0  0  0  0  0  0  0  0
  -29.2225  -22.4998   18.3827 C   0  0  0  0  0  0  0  0  0  0  0  0
  -22.7007  -23.2642   20.7223 C   0  0  0  0  0  0  0  0  0  0  0  0
  -22.8435  -21.8690   18.6264 C   0  0  0  0  0  0  0  0  0  0  0  0
  -21.9253  -24.1510   18.4746 C   0  0  0  0  0  0  0  0  0  0  0  0
  -18.1998  -17.5701   21.7461 C   0  0  0  0  0  0  0  0  0  0  0  0
  -28.2503  -22.4627   19.5680 C   0  0  1  0  0  0  0  0  0  0  0  0
  -28.1395  -18.9147   20.9220 C   0  0  1  0  0  0  0  0  0  0  0  0
  -21.7159  -24.2018   19.9989 C   0  0  2  0  0  0  0  0  0  0  0  0
  -14.4936  -19.3186   18.8978 C   0  0  0  0  0  0  0  0  0  0  0  0
  -30.6417  -11.7892   19.1991 C   0  0  0  0  0  0  0  0  0  0  0  0
  -29.2034  -17.7048   16.5901 C   0  0  0  0  0  0  0  0  0  0  0  0
  -29.7492  -15.2853   16.2492 C   0  0  0  0  0  0  0  0  0  0  0  0
  -31.3885  -16.7839   17.3850 C   0  0  0  0  0  0  0  0  0  0  0  0
  -28.8090  -12.8508   22.3598 C   0  0  0  0  0  0  0  0  0  0  0  0
  -20.0246  -20.5810   15.6080 C   0  0  0  0  0  0  0  0  0  0  0  0
  -18.7355  -20.0697   16.2258 C   0  0  0  0  0  0  0  0  0  0  0  0
  -21.8148  -16.4887   19.4285 C   0  0  0  0  0  0  0  0  0  1  0  0
  -20.3261  -16.6557   19.1930 C   0  0  0  0  0  0  0  0  0  0  0  0
  -29.2851  -16.0951   18.6071 C   0  0  1  0  0  0  0  0  0  0  0  0
  -30.1160  -12.7730   20.2327 C   0  0  2  0  0  0  0  0  0  0  0  0
  -29.8841  -16.4750   17.2235 C   0  0  0  0  0  0  0  0  0  0  0  0
  -22.9446  -26.3005   20.4090 N   0  0  0  0  0  0  0  0  0  0  0  0
  -21.7929  -25.6194   20.5347 N   0  0  0  0  0  0  0  0  0  0  0  0
  -28.1461  -17.6928   20.1151 N   0  0  0  0  0  0  0  0  0  0  0  0
  -21.8636  -22.7656   17.9970 N   0  0  0  0  0  0  0  0  0  0  0  0
  -19.5795  -25.7878   21.3614 N   0  0  0  0  0  0  0  0  0  0  0  0
  -21.3683  -29.8163   22.3450 N   0  0  0  0  0  0  0  0  0  0  0  0
  -28.4259  -21.2434   20.3276 N   0  0  0  0  0  0  0  0  0  0  0  0
  -29.9285  -14.9504   19.2428 N   0  0  0  0  0  0  0  0  0  0  0  0
  -20.9360  -21.0889   16.6093 N   0  0  0  0  0  0  0  0  0  0  0  0
  -29.3628  -12.0097   21.2676 N   0  3  0  0  0  0  0  0  0  0  0  0
  -19.4763  -28.5302   22.5038 O   0  0  0  0  0  0  0  0  0  0  0  0
  -27.0618  -19.8588   19.0452 O   0  0  0  0  0  0  0  0  0  0  0  0
  -30.4688  -17.6833   19.9120 O   0  0  0  0  0  0  0  0  0  0  0  0
  -28.0166  -13.6503   19.4203 O   0  0  0  0  0  0  0  0  0  0  0  0
  -20.1302  -23.2334   16.5292 O   0  0  0  0  0  0  0  0  0  0  0  0
  -26.5647  -31.4767   21.2154 O   0  0  0  0  0  0  0  0  0  0  0  0
  -22.0959  -16.7106   20.8099 O   0  0  0  0  0  0  0  0  0  1  0  0
  -19.0324  -19.0085   17.1313 O   0  0  0  0  0  0  0  0  0  0  0  0
  -19.9479  -17.9839   19.5338 O   0  0  0  0  0  0  0  0  0  0  0  0
  -27.1615  -34.1919   25.9773 F   0  0  0  0  0  0  0  0  0  0  0  0
  -28.9702  -31.4399   22.5773 F   0  0  0  0  0  0  0  0  0  0  0  0
  1  2  1  0  0  0  0
  1  5  2  0  0  0  0
  2  6  2  0  0  0  0
  3  8  2  0  0  0  0
  3 17  1  0  0  0  0
  4  9  1  0  0  0  0
  4 17  2  0  0  0  0
  5 19  1  0  0  0  0
  6 21  1  0  0  0  0
  7 10  2  0  0  0  0
  7 20  1  0  0  0  0
  8 25  1  0  0  0  0
  9 25  2  0  0  0  0
 10 26  1  0  0  0  0
 11 12  2  0  0  0  0
 11 27  1  0  0  0  0
 12 30  1  0  0  0  0
 13 22  1  0  0  0  0
 13 24  2  0  0  0  0
 14 23  1  0  0  0  0
 14 26  2  0  0  0  0
 15 24  1  0  0  0  0
 15 28  2  0  0  0  0
 16 30  2  0  0  0  0
 16 31  1  0  0  0  0
 17 32  1  0  0  0  0
 18 32  1  0  0  0  0
 18 33  2  0  0  0  0
 18 34  1  0  0  0  0
 19 21  2  0  0  0  0
 19 39  1  0  0  0  0
 20 23  2  0  0  0  0
 20 40  1  0  0  0  0
 21 51  1  0  0  0  0
 22 29  2  0  0  0  0
 22 50  1  0  0  0  0
 23 41  1  0  0  0  0
 24 54  1  0  0  0  0
 25 82  1  0  0  0  0
 26 83  1  0  0  0  0
 27 31  2  0  0  0  0
 27 82  1  0  0  0  0
 28 29  1  0  0  0  0
 28 84  1  0  0  0  0
 29 85  1  0  0  0  0
 30 86  1  0  0  0  0
 31 87  1  0  0  0  0
 32 67  2  0  0  0  0
 33 68  1  0  0  0  0
 33 71  1  0  0  0  0
 34 72  1  0  0  0  0
 34 77  2  0  0  0  0
 35 52  1  0  0  0  0
 35 73  1  0  0  0  0
 35 78  2  0  0  0  0
 36 64  1  0  0  0  0
 36 69  1  0  0  0  0
 36 79  2  0  0  0  0
 37 65  1  0  0  0  0
 37 74  1  0  0  0  0
 37 80  2  0  0  0  0
 38 70  1  0  0  0  0
 38 75  1  0  0  0  0
 38 81  2  0  0  0  0
 39 42  1  0  0  0  0
 40 52  1  0  0  0  0
 41 69  1  0  0  0  0
 42 46  1  0  0  0  0
 43 47  1  0  0  0  0
 43 48  1  0  0  0  0
 44 45  1  0  0  0  0
 44 50  1  0  0  0  0
 45 50  1  0  0  0  0
 46 51  1  0  0  0  0
 47 53  1  0  0  0  0
 48 70  1  0  0  0  0
 49 53  1  0  0  0  0
 49 70  1  0  0  0  0
 51 73  1  0  0  0  0
 52 69  1  0  0  0  0
 53 68  1  0  0  0  0
 55 65  1  0  0  0  0
 56 66  1  0  0  0  0
 57 66  1  0  0  0  0
 58 66  1  0  0  0  0
 59 76  1  0  0  0  0
 60 61  1  0  0  0  0
 60 75  1  0  0  0  0
 61 84  1  0  0  0  0
 62 63  1  0  0  0  0
 62 83  1  0  0  0  0
 63 85  1  0  0  0  0
 64 66  1  0  0  0  0
 64 74  1  0  0  0  0
 65 76  1  0  0  0  0
 67 68  1  0  0  0  0
M  CHG  1  76   1
M  ISO  4  38 100  62 101  75 100  83 101
M  END
> <Batch ID>
0149

> <Smiles>
CNC(C)C(=O)NC(C(=O)N1Cc2cc([101O:1][101CH2:1]COc3c(OCC[100NH:0][100C:0](=O)N4CCCC(n5nc(-c6ccc(Oc7ccc(F)cc7F)cc6)c(C(N)=O)c5N)C4)cc(C)cc3C3CC3)ccc2CC1C(=O)NC1CCCc2ccccc21)C(C)(C)C

> <Shape>
0.213

> <Color>
0.046

> <Negative vol penalty>
0.000

$$$$

  -OEChem-04052321383D

 86 95  0     1  0  0  0  0  0999 V2000
  -23.3894   -8.4712   21.8924 C   0  0  0  0  0  0  0  0  0  0  0  0
  -24.3063   -9.3562   22.4504 C   0  0  0  0  0  0  0  0  0  0  0  0
  -25.0938  -30.8368   21.1477 C   0  0  0  0  0  0  0  0  0  0  0  0
  -24.7042  -29.1996   22.8811 C   0  0  0  0  0  0  0  0  0  0  0  0
  -22.7140   -8.8148   20.7220 C   0  0  0  0  0  0  0  0  0  0  0  0
  -24.5492  -10.5850   21.8377 C   0  0  0  0  0  0  0  0  0  0  0  0
  -25.8282  -15.8930   24.6118 C   0  0  0  0  0  0  0  0  0  0  0  0
  -24.3860  -31.7860   21.8850 C   0  0  0  0  0  0  0  0  0  0  0  0
  -23.9963  -30.1488   23.6185 C   0  0  0  0  0  0  0  0  0  0  0  0
  -27.0290  -16.5576   24.8573 C   0  0  0  0  0  0  0  0  0  0  0  0
  -22.9903  -34.7416   23.4760 C   0  0  0  0  0  0  0  0  0  0  0  0
  -23.5404  -36.0185   23.5871 C   0  0  0  0  0  0  0  0  0  0  0  0
  -26.6931  -17.8853   22.8715 C   0  0  0  0  0  0  0  0  0  0  0  0
  -25.4978  -35.0828   24.6501 C   0  0  0  0  0  0  0  0  0  0  0  0
  -27.0726  -19.7780   18.5635 C   0  0  0  0  0  0  0  0  0  0  0  0
  -25.2529  -29.5436   21.6457 C   0  0  0  0  0  0  0  0  0  0  0  0
  -27.3646  -28.2964   20.9437 C   0  0  0  0  0  0  0  0  0  0  0  0
  -22.9417  -10.0525   20.0999 C   0  0  0  0  0  0  0  0  0  0  0  0
  -25.0550  -16.2126   23.4865 C   0  0  0  0  0  0  0  0  0  0  0  0
  -23.8773  -10.9450   20.6572 C   0  0  0  0  0  0  0  0  0  0  0  0
  -25.4816  -17.2251   22.6154 C   0  0  0  0  0  0  0  0  0  0  0  0
  -28.7763  -20.8512   19.8293 C   0  0  0  0  0  0  0  0  0  0  0  0
  -29.2440  -19.5971   20.2061 C   0  0  0  0  0  0  0  0  0  0  0  0
  -27.6705  -20.9520   18.9925 C   0  0  0  0  0  0  0  0  0  0  0  0
  -23.8373  -31.4420   23.1204 C   0  0  0  0  0  0  0  0  0  0  0  0
  -27.4630  -17.5519   23.9855 C   0  0  0  0  0  0  0  0  0  0  0  0
  -23.6939  -33.6352   23.9520 C   0  0  0  0  0  0  0  0  0  0  0  0
  -24.7942  -36.1891   24.1741 C   0  0  0  0  0  0  0  0  0  0  0  0
  -24.9477  -33.8058   24.5390 C   0  0  0  0  0  0  0  0  0  0  0  0
  -25.9835  -28.5625   20.8843 C   0  0  0  0  0  0  0  0  0  0  0  0
  -28.5755  -18.4838   19.7229 C   0  0  0  0  0  0  0  0  0  0  0  0
  -27.5590  -27.2858   20.0341 C   0  0  0  0  0  0  0  0  0  0  0  0
  -28.3809  -28.9080   21.7491 C   0  0  0  0  0  0  0  0  0  0  0  0
  -24.0796  -14.6257   20.9108 C   0  0  0  0  0  0  0  0  0  0  0  0
  -22.4027  -17.3451   20.3495 C   0  0  0  0  0  0  0  0  0  0  0  0
  -22.0791  -20.7051   20.8517 C   0  0  0  0  0  0  0  0  0  0  0  0
  -26.0594  -22.4355   17.7475 C   0  0  0  0  0  0  0  0  0  0  0  0
  -22.2228  -10.3598   18.8102 C   0  0  0  0  0  0  0  0  0  0  0  0
  -23.7489  -15.5049   23.2503 C   0  0  0  0  0  0  0  0  0  0  0  0
  -24.6781  -17.6198   21.4041 C   0  0  0  0  0  0  0  0  0  0  0  0
  -22.2607  -11.8375   18.4290 C   0  0  0  0  0  0  0  0  0  0  0  0
  -24.4538  -25.3693   16.5259 C   0  0  0  0  0  0  0  0  0  0  0  0
  -23.6735  -12.3920   18.5810 C   0  0  0  0  0  0  0  0  0  0  0  0
  -24.8223  -26.4397   17.5558 C   0  0  0  0  0  0  0  0  0  0  0  0
  -30.9941  -18.7479   23.5568 C   0  0  0  0  0  0  0  0  0  0  0  0
  -24.2213  -24.0087   17.1805 C   0  0  0  0  0  0  0  0  0  0  0  0
  -25.6832  -24.6089   19.0704 C   0  0  0  0  0  0  0  0  0  0  0  0
  -24.1497  -12.2976   20.0356 C   0  0  1  0  0  0  0  0  0  0  0  0
  -23.2967  -15.5554   21.7942 C   0  0  1  0  0  0  0  0  0  0  0  0
  -30.0823  -19.4110   22.5617 C   0  0  2  0  0  0  0  0  0  0  0  0
  -25.9905  -25.9820   18.4510 C   0  0  2  0  0  0  0  0  0  0  0  0
  -29.6758  -18.1128   23.2063 C   0  0  2  0  0  0  0  0  0  1  0  0
  -29.4623  -22.0854   20.3233 C   0  0  0  0  0  0  0  0  0  0  0  0
  -20.6306  -22.6588   20.2335 C   0  0  0  0  0  0  0  0  0  0  0  0
  -28.8591  -15.7451   18.1902 C   0  0  0  0  0  0  0  0  0  0  0  0
  -28.3125  -14.9766   20.5274 C   0  0  0  0  0  0  0  0  0  0  0  0
  -23.6797  -17.4121   17.5792 C   0  0  0  0  0  0  0  0  0  0  0  0
  -22.9694  -19.8051   17.3860 C   0  0  0  0  0  0  0  0  0  0  0  0
  -21.2521  -18.0114   17.6236 C   0  0  0  0  0  0  0  0  0  0  0  0
  -21.3534  -21.2094   23.6763 C   0  0  0  0  0  0  0  0  0  0  0  0
  -30.4483  -19.4475   21.1183 C   0  0  0  0  0  0  0  0  0  0  0  0
  -22.6748  -18.6371   19.6177 C   0  0  1  0  0  0  0  0  0  0  0  0
  -20.8844  -21.5540   21.2473 C   0  0  2  0  0  0  0  0  0  0  0  0
  -28.2721  -16.1322   19.5391 C   0  0  0  0  0  0  0  0  0  0  0  0
  -22.6603  -18.4579   18.0733 C   0  0  0  0  0  0  0  0  0  0  0  0
  -27.4982  -18.5421   18.9083 N   0  0  0  0  0  0  0  0  0  0  0  0
  -25.3457  -27.7839   20.0062 N   0  0  0  0  0  0  0  0  0  0  0  0
  -26.3304  -27.0187   19.5054 N   0  0  0  0  0  0  0  0  0  0  0  0
  -23.4113  -16.8944   21.2128 N   0  0  0  0  0  0  0  0  0  0  0  0
  -25.3706  -23.6387   18.0094 N   0  0  0  0  0  0  0  0  0  0  0  0
  -28.6593  -26.6086   19.6428 N   0  0  0  0  0  0  0  0  0  0  0  0
  -28.0085  -29.9316   22.6311 N   0  0  0  0  0  0  0  0  0  0  0  0
  -27.1548  -22.2054   18.5791 N   0  0  0  0  0  0  0  0  0  0  0  0
  -23.5548  -13.3498   20.8314 N   0  0  0  0  0  0  0  0  0  0  0  0
  -21.7006  -19.6018   20.1165 N   0  0  0  0  0  0  0  0  0  0  0  0
  -21.1134  -22.1820   22.5793 N   0  3  0  0  0  0  0  0  0  0  0  0
  -29.5863  -28.5684   21.6766 O   0  0  0  0  0  0  0  0  0  0  0  0
  -25.0846  -15.0359   20.3420 O   0  0  0  0  0  0  0  0  0  0  0  0
  -21.3315  -16.7610   20.1675 O   0  0  0  0  0  0  0  0  0  0  0  0
  -23.2331  -20.9940   21.1607 O   0  0  0  0  0  0  0  0  0  0  0  0
  -25.7201  -21.6791   16.8338 O   0  0  0  0  0  0  0  0  0  0  0  0
  -23.1467  -32.3680   23.8402 O   0  0  0  0  0  0  0  0  0  0  0  0
  -28.6350  -18.2017   24.2224 O   0  0  0  0  0  0  0  0  0  1  0  0
  -29.0046  -17.2293   20.0710 O   0  0  0  0  0  0  0  0  0  0  0  0
  -25.3230  -37.4153   24.2793 F   0  0  0  0  0  0  0  0  0  0  0  0
  -25.6289  -32.7466   24.9970 F   0  0  0  0  0  0  0  0  0  0  0  0
  1  2  1  0  0  0  0
  1  5  2  0  0  0  0
  2  6  2  0  0  0  0
  3  8  2  0  0  0  0
  3 16  1  0  0  0  0
  4  9  1  0  0  0  0
  4 16  2  0  0  0  0
  5 18  1  0  0  0  0
  6 20  1  0  0  0  0
  7 10  2  0  0  0  0
  7 19  1  0  0  0  0
  8 25  1  0  0  0  0
  9 25  2  0  0  0  0
 10 26  1  0  0  0  0
 11 12  2  0  0  0  0
 11 27  1  0  0  0  0
 12 28  1  0  0  0  0
 13 21  1  0  0  0  0
 13 26  2  0  0  0  0
 14 28  2  0  0  0  0
 14 29  1  0  0  0  0
 15 24  2  0  0  0  0
 15 66  1  0  0  0  0
 16 30  1  0  0  0  0
 17 30  1  0  0  0  0
 17 32  2  0  0  0  0
 17 33  1  0  0  0  0
 18 20  2  0  0  0  0
 18 38  1  0  0  0  0
 19 21  2  0  0  0  0
 19 39  1  0  0  0  0
 20 48  1  0  0  0  0
 21 40  1  0  0  0  0
 22 23  2  0  0  0  0
 22 24  1  0  0  0  0
 22 53  1  0  0  0  0
 23 31  1  0  0  0  0
 23 61  1  0  0  0  0
 24 73  1  0  0  0  0
 25 82  1  0  0  0  0
 26 83  1  0  0  0  0
 27 29  2  0  0  0  0
 27 82  1  0  0  0  0
 28 85  1  0  0  0  0
 29 86  1  0  0  0  0
 30 67  2  0  0  0  0
 31 66  2  0  0  0  0
 31 84  1  0  0  0  0
 32 68  1  0  0  0  0
 32 71  1  0  0  0  0
 33 72  1  0  0  0  0
 33 77  2  0  0  0  0
 34 49  1  0  0  0  0
 34 74  1  0  0  0  0
 34 78  2  0  0  0  0
 35 62  1  0  0  0  0
 35 69  1  0  0  0  0
 35 79  2  0  0  0  0
 36 63  1  0  0  0  0
 36 75  1  0  0  0  0
 36 80  2  0  0  0  0
 37 70  1  0  0  0  0
 37 73  1  0  0  0  0
 37 81  2  0  0  0  0
 38 41  1  0  0  0  0
 39 49  1  0  0  0  0
 40 69  1  0  0  0  0
 41 43  1  0  0  0  0
 42 44  1  0  0  0  0
 42 46  1  0  0  0  0
 43 48  1  0  0  0  0
 44 51  1  0  0  0  0
 45 50  1  0  0  0  0
 45 52  1  0  0  0  0
 46 70  1  0  0  0  0
 47 51  1  0  0  0  0
 47 70  1  0  0  0  0
 48 74  1  0  0  0  0
 49 69  1  0  0  0  0
 50 52  1  0  0  0  0
 50 61  1  0  0  0  0
 51 68  1  0  0  0  0
 52 83  1  0  0  0  0
 54 63  1  0  0  0  0
 55 64  1  0  0  0  0
 56 64  1  0  0  0  0
 57 65  1  0  0  0  0
 58 65  1  0  0  0  0
 59 65  1  0  0  0  0
 60 76  1  0  0  0  0
 62 65  1  0  0  0  0
 62 75  1  0  0  0  0
 63 76  1  0  0  0  0
 64 84  1  0  0  0  0
 67 68  1  0  0  0  0
M  CHG  1  76   1
M  ISO  4  37 100  52 101  73 100  83 101
M  END
> <Batch ID>
0149

> <Smiles>
CNC(C)C(=O)NC(C(=O)N1Cc2cc([101O:1][101CH:1]3CC3Cc3c(OC(C)C)ncc([100NH:0][100C:0](=O)N4CCCC(n5nc(-c6ccc(Oc7ccc(F)cc7F)cc6)c(C(N)=O)c5N)C4)c3C)ccc2CC1C(=O)NC1CCCc2ccccc21)C(C)(C)C

> <Shape>
0.233

> <Color>
0.077

> <Negative vol penalty>
0.000

$$$$

  -OEChem-04052321383D

 86 95  0     1  0  0  0  0  0999 V2000
  -28.1327  -21.6766   16.5848 C   0  0  0  0  0  0  0  0  0  0  0  0
  -27.2024  -21.4202   17.5869 C   0  0  0  0  0  0  0  0  0  0  0  0
  -27.7173  -17.0040   19.0480 C   0  0  0  0  0  0  0  0  0  0  0  0
  -27.3582  -17.2881   21.4202 C   0  0  0  0  0  0  0  0  0  0  0  0
  -28.7972  -22.9018   16.5489 C   0  0  0  0  0  0  0  0  0  0  0  0
  -26.9368  -22.3886   18.5544 C   0  0  0  0  0  0  0  0  0  0  0  0
  -21.9816  -22.9422   19.4402 C   0  0  0  0  0  0  0  0  0  0  0  0
  -28.3020  -18.2688   18.9850 C   0  0  0  0  0  0  0  0  0  0  0  0
  -27.9430  -18.5529   21.3572 C   0  0  0  0  0  0  0  0  0  0  0  0
  -21.3671  -21.9820   20.2428 C   0  0  0  0  0  0  0  0  0  0  0  0
  -31.0606  -19.8499   21.2198 C   0  0  0  0  0  0  0  0  0  0  0  0
  -31.9852  -20.1848   22.2091 C   0  0  0  0  0  0  0  0  0  0  0  0
  -21.4950  -23.4836   22.1265 C   0  0  0  0  0  0  0  0  0  0  0  0
  -18.3314  -19.6458   23.3809 C   0  0  0  0  0  0  0  0  0  0  0  0
  -18.2206  -17.5999   24.6611 C   0  0  0  0  0  0  0  0  0  0  0  0
  -30.5944  -22.0430   22.8799 C   0  0  0  0  0  0  0  0  0  0  0  0
  -27.2454  -16.5137   20.2656 C   0  0  0  0  0  0  0  0  0  0  0  0
  -27.2889  -13.9820   20.5763 C   0  0  0  0  0  0  0  0  0  0  0  0
  -28.5326  -23.8893   17.5109 C   0  0  0  0  0  0  0  0  0  0  0  0
  -22.3680  -24.1782   19.9782 C   0  0  0  0  0  0  0  0  0  0  0  0
  -27.5994  -23.6276   18.5322 C   0  0  0  0  0  0  0  0  0  0  0  0
  -22.1120  -24.4587   21.3280 C   0  0  0  0  0  0  0  0  0  0  0  0
  -20.0333  -17.9537   23.1036 C   0  0  0  0  0  0  0  0  0  0  0  0
  -19.5029  -19.1997   22.7693 C   0  0  0  0  0  0  0  0  0  0  0  0
  -28.4149  -19.0433   20.1396 C   0  0  0  0  0  0  0  0  0  0  0  0
  -21.1263  -22.2515   21.5869 C   0  0  0  0  0  0  0  0  0  0  0  0
  -29.9029  -20.6116   21.0606 C   0  0  0  0  0  0  0  0  0  0  0  0
  -17.6902  -18.8460   24.3268 C   0  0  0  0  0  0  0  0  0  0  0  0
  -19.3921  -17.1538   24.0495 C   0  0  0  0  0  0  0  0  0  0  0  0
  -31.7521  -21.2813   23.0391 C   0  0  0  0  0  0  0  0  0  0  0  0
  -29.6698  -21.7081   21.8906 C   0  0  0  0  0  0  0  0  0  0  0  0
  -26.6407  -15.2074   20.3313 C   0  0  0  0  0  0  0  0  0  0  0  0
  -26.2830  -13.0476   20.5369 C   0  0  0  0  0  0  0  0  0  0  0  0
  -28.6762  -13.7125   20.8181 C   0  0  0  0  0  0  0  0  0  0  0  0
  -25.1361  -25.6953   20.3516 C   0  0  0  0  0  0  0  0  0  0  0  0
  -23.2273  -28.1170   21.3584 C   0  0  0  0  0  0  0  0  0  0  0  0
  -20.2362  -29.0893   22.6832 C   0  0  0  0  0  0  0  0  0  0  0  0
  -20.3804  -13.3682   21.4893 C   0  0  0  0  0  0  0  0  0  0  0  0
  -29.3104  -25.1804   17.4588 C   0  0  0  0  0  0  0  0  0  0  0  0
  -23.0056  -25.2134   19.0927 C   0  0  0  0  0  0  0  0  0  0  0  0
  -22.4890  -25.7779   21.9491 C   0  0  0  0  0  0  0  0  0  0  0  0
  -28.6974  -26.2952   18.3024 C   0  0  0  0  0  0  0  0  0  0  0  0
  -22.0140  -12.2237   18.5401 C   0  0  0  0  0  0  0  0  0  0  0  0
  -22.4484  -17.0619   23.3179 C   0  0  0  0  0  0  0  0  0  0  0  0
  -22.5233  -18.3266   22.5209 C   0  0  0  0  0  0  0  0  0  0  0  0
  -28.3191  -25.7723   19.6845 C   0  0  0  0  0  0  0  0  0  0  0  0
  -23.4435  -12.7480   18.6868 C   0  0  0  0  0  0  0  0  0  0  0  0
  -20.9905  -13.2127   19.0935 C   0  0  0  0  0  0  0  0  0  0  0  0
  -22.6642  -14.1688   20.6292 C   0  0  0  0  0  0  0  0  0  0  0  0
  -21.2885  -17.4699   22.4511 C   0  0  0  0  0  0  0  0  0  0  0  0
  -27.2659  -24.6622   19.5851 C   0  0  1  0  0  0  0  0  0  0  0  0
  -23.8226  -26.2420   19.8686 C   0  0  1  0  0  0  0  0  0  0  0  0
  -23.7357  -13.1815   20.1359 C   0  0  2  0  0  0  0  0  0  0  0  0
  -18.9822  -31.1315   23.4277 C   0  0  0  0  0  0  0  0  0  0  0  0
  -24.9151  -28.2247   23.8980 C   0  0  0  0  0  0  0  0  0  0  0  0
  -23.0931  -29.5671   24.9686 C   0  0  0  0  0  0  0  0  0  0  0  0
  -24.2862  -30.4594   22.9679 C   0  0  0  0  0  0  0  0  0  0  0  0
  -18.0901  -28.6380   20.6959 C   0  0  0  0  0  0  0  0  0  0  0  0
  -15.9427  -18.4135   25.8808 C   0  0  0  0  0  0  0  0  0  0  0  0
  -20.1718  -20.0798   21.7547 C   0  0  0  0  0  0  0  0  0  1  0  0
  -19.9211  -13.5763   23.9193 C   0  0  0  0  0  0  0  0  0  0  0  0
  -19.0575  -14.8018   24.1587 C   0  0  0  0  0  0  0  0  0  0  0  0
  -22.6569  -28.5464   22.6885 C   0  0  1  0  0  0  0  0  0  0  0  0
  -19.2605  -30.1785   22.2757 C   0  0  2  0  0  0  0  0  0  0  0  0
  -23.7324  -29.1737   23.6198 C   0  0  0  0  0  0  0  0  0  0  0  0
  -25.3249  -15.0674   20.1494 N   0  0  0  0  0  0  0  0  0  0  0  0
  -25.1381  -13.7430   20.2802 N   0  0  0  0  0  0  0  0  0  0  0  0
  -23.1157  -26.7553   21.0438 N   0  0  0  0  0  0  0  0  0  0  0  0
  -21.3242  -13.5820   20.4712 N   0  0  0  0  0  0  0  0  0  0  0  0
  -26.2750  -11.7072   20.6969 N   0  0  0  0  0  0  0  0  0  0  0  0
  -29.5746  -14.7882   20.8245 N   0  0  0  0  0  0  0  0  0  0  0  0
  -25.9563  -25.2282   19.3423 N   0  0  0  0  0  0  0  0  0  0  0  0
  -21.5382  -29.4326   22.3860 N   0  0  0  0  0  0  0  0  0  0  0  0
  -20.7794  -13.7402   22.7673 N   0  0  0  0  0  0  0  0  0  0  0  0
  -17.9679  -29.5791   21.8389 N   0  3  0  0  0  0  0  0  0  0  0  0
  -29.1088  -12.5502   21.0062 O   0  0  0  0  0  0  0  0  0  0  0  0
  -25.3876  -25.6984   21.5509 O   0  0  0  0  0  0  0  0  0  0  0  0
  -23.7461  -28.9601   20.6224 O   0  0  0  0  0  0  0  0  0  0  0  0
  -19.8795  -28.0406   23.2155 O   0  0  0  0  0  0  0  0  0  0  0  0
  -19.2668  -12.8769   21.2761 O   0  0  0  0  0  0  0  0  0  0  0  0
  -28.9856  -20.2774   20.0785 O   0  0  0  0  0  0  0  0  0  0  0  0
  -16.5466  -19.2813   24.9228 O   0  0  0  0  0  0  0  0  0  0  0  0
  -20.5273  -21.3159   22.3727 O   0  0  0  0  0  0  0  0  0  1  0  0
  -19.8942  -15.9332   24.3892 O   0  0  0  0  0  0  0  0  0  0  0  0
  -32.6393  -21.6018   23.9901 F   0  0  0  0  0  0  0  0  0  0  0  0
  -28.5589  -22.4429   21.7432 F   0  0  0  0  0  0  0  0  0  0  0  0
  1  2  1  0  0  0  0
  1  5  2  0  0  0  0
  2  6  2  0  0  0  0
  3  8  2  0  0  0  0
  3 17  1  0  0  0  0
  4  9  1  0  0  0  0
  4 17  2  0  0  0  0
  5 19  1  0  0  0  0
  6 21  1  0  0  0  0
  7 10  2  0  0  0  0
  7 20  1  0  0  0  0
  8 25  1  0  0  0  0
  9 25  2  0  0  0  0
 10 26  1  0  0  0  0
 11 12  2  0  0  0  0
 11 27  1  0  0  0  0
 12 30  1  0  0  0  0
 13 22  1  0  0  0  0
 13 26  2  0  0  0  0
 14 24  1  0  0  0  0
 14 28  2  0  0  0  0
 15 28  1  0  0  0  0
 15 29  2  0  0  0  0
 16 30  2  0  0  0  0
 16 31  1  0  0  0  0
 17 32  1  0  0  0  0
 18 32  1  0  0  0  0
 18 33  2  0  0  0  0
 18 34  1  0  0  0  0
 19 21  2  0  0  0  0
 19 39  1  0  0  0  0
 20 22  2  0  0  0  0
 20 40  1  0  0  0  0
 21 51  1  0  0  0  0
 22 41  1  0  0  0  0
 23 24  2  0  0  0  0
 23 29  1  0  0  0  0
 23 50  1  0  0  0  0
 24 60  1  0  0  0  0
 25 81  1  0  0  0  0
 26 83  1  0  0  0  0
 27 31  2  0  0  0  0
 27 81  1  0  0  0  0
 28 82  1  0  0  0  0
 29 84  1  0  0  0  0
 30 85  1  0  0  0  0
 31 86  1  0  0  0  0
 32 66  2  0  0  0  0
 33 67  1  0  0  0  0
 33 70  1  0  0  0  0
 34 71  1  0  0  0  0
 34 76  2  0  0  0  0
 35 52  1  0  0  0  0
 35 72  1  0  0  0  0
 35 77  2  0  0  0  0
 36 63  1  0  0  0  0
 36 68  1  0  0  0  0
 36 78  2  0  0  0  0
 37 64  1  0  0  0  0
 37 73  1  0  0  0  0
 37 79  2  0  0  0  0
 38 69  1  0  0  0  0
 38 74  1  0  0  0  0
 38 80  2  0  0  0  0
 39 42  1  0  0  0  0
 40 52  1  0  0  0  0
 41 68  1  0  0  0  0
 42 46  1  0  0  0  0
 43 47  1  0  0  0  0
 43 48  1  0  0  0  0
 44 45  1  0  0  0  0
 44 50  1  0  0  0  0
 45 50  1  0  0  0  0
 46 51  1  0  0  0  0
 47 53  1  0  0  0  0
 48 69  1  0  0  0  0
 49 53  1  0  0  0  0
 49 69  1  0  0  0  0
 51 72  1  0  0  0  0
 52 68  1  0  0  0  0
 53 67  1  0  0  0  0
 54 64  1  0  0  0  0
 55 65  1  0  0  0  0
 56 65  1  0  0  0  0
 57 65  1  0  0  0  0
 58 75  1  0  0  0  0
 59 82  1  0  0  0  0
 60 83  1  0  0  0  0
 61 62  1  0  0  0  0
 61 74  1  0  0  0  0
 62 84  1  0  0  0  0
 63 65  1  0  0  0  0
 63 73  1  0  0  0  0
 64 75  1  0  0  0  0
 66 67  1  0  0  0  0
M  CHG  1  75   1
M  ISO  4  38 100  60 101  74 100  83 101
M  END
> <Batch ID>
0149

> <Smiles>
CNC(C)C(=O)NC(C(=O)N1Cc2cc([101O:1][101CH2:1]c3cc(OC)cc(OCC[100NH:0][100C:0](=O)N4CCCC(n5nc(-c6ccc(Oc7ccc(F)cc7F)cc6)c(C(N)=O)c5N)C4)c3C3CC3)ccc2CC1C(=O)NC1CCCc2ccccc21)C(C)(C)C

> <Shape>
0.184

> <Color>
0.070

> <Negative vol penalty>
0.000

$$$$

  -OEChem-04052321383D

 86 95  0     1  0  0  0  0  0999 V2000
  -24.4009  -30.7208   24.7407 C   0  0  0  0  0  0  0  0  0  0  0  0
  -24.8710  -29.4122   24.6958 C   0  0  0  0  0  0  0  0  0  0  0  0
  -22.5186  -10.6224   20.2870 C   0  0  0  0  0  0  0  0  0  0  0  0
  -24.0525   -9.7379   21.9307 C   0  0  0  0  0  0  0  0  0  0  0  0
  -24.0594  -31.3786   23.5598 C   0  0  0  0  0  0  0  0  0  0  0  0
  -24.9987  -28.7602   23.4698 C   0  0  0  0  0  0  0  0  0  0  0  0
  -29.3800  -26.2558   23.0485 C   0  0  0  0  0  0  0  0  0  0  0  0
  -21.6600   -9.5458   20.5088 C   0  0  0  0  0  0  0  0  0  0  0  0
  -23.1938   -8.6612   22.1526 C   0  0  0  0  0  0  0  0  0  0  0  0
  -29.4774  -25.0287   23.7031 C   0  0  0  0  0  0  0  0  0  0  0  0
  -22.4230   -5.7369   20.6410 C   0  0  0  0  0  0  0  0  0  0  0  0
  -22.9861   -4.4628   20.7117 C   0  0  0  0  0  0  0  0  0  0  0  0
  -29.0521  -23.8902   21.6193 C   0  0  0  0  0  0  0  0  0  0  0  0
  -22.1413   -4.2142   22.9615 C   0  0  0  0  0  0  0  0  0  0  0  0
  -23.7149  -10.7185   20.9979 C   0  0  0  0  0  0  0  0  0  0  0  0
  -24.3166  -13.1970   20.9469 C   0  0  0  0  0  0  0  0  0  0  0  0
  -24.1922  -30.7376   22.3180 C   0  0  0  0  0  0  0  0  0  0  0  0
  -29.1066  -26.3096   21.6742 C   0  0  0  0  0  0  0  0  0  0  0  0
  -24.6573  -29.4095   22.2713 C   0  0  0  0  0  0  0  0  0  0  0  0
  -28.9542  -25.1191   20.9492 C   0  0  0  0  0  0  0  0  0  0  0  0
  -21.9976   -8.5652   21.4416 C   0  0  0  0  0  0  0  0  0  0  0  0
  -29.3106  -23.8457   22.9891 C   0  0  0  0  0  0  0  0  0  0  0  0
  -21.7190   -6.2498   21.7306 C   0  0  0  0  0  0  0  0  0  0  0  0
  -22.8453   -3.7014   21.8719 C   0  0  0  0  0  0  0  0  0  0  0  0
  -21.5782   -5.4884   22.8908 C   0  0  0  0  0  0  0  0  0  0  0  0
  -24.6025  -11.8301   20.7688 C   0  0  0  0  0  0  0  0  0  0  0  0
  -25.4793  -13.8393   20.5977 C   0  0  0  0  0  0  0  0  0  0  0  0
  -23.1080  -13.8295   21.3885 C   0  0  0  0  0  0  0  0  0  0  0  0
  -26.7560  -27.5056   19.8999 C   0  0  0  0  0  0  0  0  0  0  0  0
  -28.6882  -26.6303   17.4457 C   0  0  0  0  0  0  0  0  0  0  0  0
  -31.2055  -24.6230   16.3141 C   0  0  0  0  0  0  0  0  0  0  0  0
  -30.9275  -14.3754   20.6178 C   0  0  0  0  0  0  0  0  0  0  0  0
  -23.7656  -31.4730   21.0722 C   0  0  0  0  0  0  0  0  0  0  0  0
  -29.0311  -27.6406   20.9777 C   0  0  0  0  0  0  0  0  0  0  0  0
  -28.6794  -25.1222   19.4683 C   0  0  0  0  0  0  0  0  0  0  0  0
  -24.2848  -30.8405   19.7836 C   0  0  0  0  0  0  0  0  0  0  0  0
  -29.6523  -12.1195   18.3289 C   0  0  0  0  0  0  0  0  0  0  0  0
  -24.0652  -29.3311   19.8037 C   0  0  0  0  0  0  0  0  0  0  0  0
  -28.1967  -11.9465   18.7624 C   0  0  0  0  0  0  0  0  0  0  0  0
  -29.6306  -17.6474   21.7747 C   0  0  0  0  0  0  0  0  0  0  0  0
  -28.9887  -15.8757   23.4475 C   0  0  0  0  0  0  0  0  0  0  0  0
  -30.5792  -12.1740   19.5380 C   0  0  0  0  0  0  0  0  0  0  0  0
  -30.7589  -16.7461   21.2810 C   0  0  0  0  0  0  0  0  0  0  0  0
  -30.1317  -15.0108   22.9265 C   0  0  0  0  0  0  0  0  0  0  0  0
  -28.7741  -13.0834   20.9630 C   0  0  0  0  0  0  0  0  0  0  0  0
  -30.4346  -18.1442   26.0830 C   0  0  0  0  0  0  0  0  0  0  0  0
  -29.1939  -19.1752   27.3687 C   0  0  0  0  0  0  0  0  0  0  0  0
  -24.8332  -28.6772   20.9587 C   0  0  1  0  0  0  0  0  0  0  0  0
  -28.2392  -27.5891   19.6747 C   0  0  1  0  0  0  0  0  0  0  0  0
  -29.2820  -17.3681   23.2424 C   0  0  0  0  0  0  0  0  0  0  0  0
  -27.7899  -13.0297   19.7772 C   0  0  2  0  0  0  0  0  0  0  0  0
  -29.2223  -19.0559   25.8370 C   0  0  0  0  0  0  0  0  0  0  0  0
  -32.9376  -23.7266   14.7349 C   0  0  0  0  0  0  0  0  0  0  0  0
  -26.7941  -17.6245   23.1561 C   0  0  0  0  0  0  0  0  0  0  0  0
  -26.3175  -25.0947   16.2916 C   0  0  0  0  0  0  0  0  0  0  0  0
  -27.9215  -23.8696   14.8103 C   0  0  0  0  0  0  0  0  0  0  0  0
  -27.6742  -26.3430   14.6018 C   0  0  0  0  0  0  0  0  0  0  0  0
  -33.2448  -26.5379   17.2801 C   0  0  0  0  0  0  0  0  0  0  0  0
  -28.0181  -18.3553   25.2240 C   0  0  0  0  0  0  0  0  0  0  0  0
  -29.0223  -22.6087   24.9997 C   0  0  0  0  0  0  0  0  0  1  0  0
  -28.4860  -21.2302   25.3342 C   0  0  0  0  0  0  0  0  0  0  0  0
  -28.8629  -25.3816   16.6155 C   0  0  1  0  0  0  0  0  0  0  0  0
  -32.4672  -24.9348   15.5297 C   0  0  2  0  0  0  0  0  0  0  0  0
  -28.0985  -18.2212   23.6924 C   0  0  1  0  0  0  0  0  0  0  0  0
  -27.6973  -25.1719   15.6081 C   0  0  0  0  0  0  0  0  0  0  0  0
  -25.8491  -11.6157   20.3397 N   0  0  0  0  0  0  0  0  0  0  0  0
  -26.3567  -12.8564   20.2451 N   0  0  0  0  0  0  0  0  0  0  0  0
  -28.6084  -26.4487   18.8337 N   0  0  0  0  0  0  0  0  0  0  0  0
  -30.1570  -13.2111   20.4793 N   0  0  0  0  0  0  0  0  0  0  0  0
  -30.4669  -15.3358   21.5336 N   0  0  0  0  0  0  0  0  0  0  0  0
  -25.8266  -15.1433   20.5609 N   0  0  0  0  0  0  0  0  0  0  0  0
  -22.9343  -14.0537   22.7610 N   0  0  0  0  0  0  0  0  0  0  0  0
  -26.2374  -28.5586   20.6289 N   0  0  0  0  0  0  0  0  0  0  0  0
  -30.1786  -25.4855   15.9938 N   0  0  0  0  0  0  0  0  0  0  0  0
  -33.5627  -25.3458   16.4526 N   0  3  0  0  0  0  0  0  0  0  0  0
  -22.2016  -14.1704   20.5911 O   0  0  0  0  0  0  0  0  0  0  0  0
  -26.1283  -26.5567   19.4445 O   0  0  0  0  0  0  0  0  0  0  0  0
  -28.6320  -27.7271   16.8839 O   0  0  0  0  0  0  0  0  0  0  0  0
  -31.1367  -23.7036   17.1269 O   0  0  0  0  0  0  0  0  0  0  0  0
  -31.9617  -14.5509   19.9614 O   0  0  0  0  0  0  0  0  0  0  0  0
  -30.2115  -18.1576   27.5119 O   0  0  0  0  0  0  0  0  0  0  0  0
  -21.1599   -7.5146   21.6585 O   0  0  0  0  0  0  0  0  0  0  0  0
  -29.4052  -22.6384   23.6300 O   0  0  0  0  0  0  0  0  0  1  0  0
  -29.5057  -20.2738   25.1215 O   0  0  0  0  0  0  0  0  0  0  0  0
  -23.3848   -2.4773   21.9391 F   0  0  0  0  0  0  0  0  0  0  0  0
  -20.9020   -5.9753   23.9403 F   0  0  0  0  0  0  0  0  0  0  0  0
  1  2  1  0  0  0  0
  1  5  2  0  0  0  0
  2  6  2  0  0  0  0
  3  8  2  0  0  0  0
  3 15  1  0  0  0  0
  4  9  1  0  0  0  0
  4 15  2  0  0  0  0
  5 17  1  0  0  0  0
  6 19  1  0  0  0  0
  7 10  2  0  0  0  0
  7 18  1  0  0  0  0
  8 21  1  0  0  0  0
  9 21  2  0  0  0  0
 10 22  1  0  0  0  0
 11 12  2  0  0  0  0
 11 23  1  0  0  0  0
 12 24  1  0  0  0  0
 13 20  1  0  0  0  0
 13 22  2  0  0  0  0
 14 24  2  0  0  0  0
 14 25  1  0  0  0  0
 15 26  1  0  0  0  0
 16 26  1  0  0  0  0
 16 27  2  0  0  0  0
 16 28  1  0  0  0  0
 17 19  2  0  0  0  0
 17 33  1  0  0  0  0
 18 20  2  0  0  0  0
 18 34  1  0  0  0  0
 19 48  1  0  0  0  0
 20 35  1  0  0  0  0
 21 82  1  0  0  0  0
 22 83  1  0  0  0  0
 23 25  2  0  0  0  0
 23 82  1  0  0  0  0
 24 85  1  0  0  0  0
 25 86  1  0  0  0  0
 26 66  2  0  0  0  0
 27 67  1  0  0  0  0
 27 71  1  0  0  0  0
 28 72  1  0  0  0  0
 28 76  2  0  0  0  0
 29 49  1  0  0  0  0
 29 73  1  0  0  0  0
 29 77  2  0  0  0  0
 30 62  1  0  0  0  0
 30 68  1  0  0  0  0
 30 78  2  0  0  0  0
 31 63  1  0  0  0  0
 31 74  1  0  0  0  0
 31 79  2  0  0  0  0
 32 69  1  0  0  0  0
 32 70  1  0  0  0  0
 32 80  2  0  0  0  0
 33 36  1  0  0  0  0
 34 49  1  0  0  0  0
 35 68  1  0  0  0  0
 36 38  1  0  0  0  0
 37 39  1  0  0  0  0
 37 42  1  0  0  0  0
 38 48  1  0  0  0  0
 39 51  1  0  0  0  0
 40 43  1  0  0  0  0
 40 50  1  0  0  0  0
 41 44  1  0  0  0  0
 41 50  1  0  0  0  0
 42 69  1  0  0  0  0
 43 70  1  0  0  0  0
 44 70  1  0  0  0  0
 45 51  1  0  0  0  0
 45 69  1  0  0  0  0
 46 52  1  0  0  0  0
 46 81  1  0  0  0  0
 47 52  1  0  0  0  0
 47 81  1  0  0  0  0
 48 73  1  0  0  0  0
 49 68  1  0  0  0  0
 50 64  1  0  0  0  0
 51 67  1  0  0  0  0
 52 59  1  0  0  0  0
 52 84  1  0  0  0  0
 53 63  1  0  0  0  0
 54 64  1  0  0  0  0
 55 65  1  0  0  0  0
 56 65  1  0  0  0  0
 57 65  1  0  0  0  0
 58 75  1  0  0  0  0
 59 64  1  0  0  0  0
 60 61  1  0  0  0  0
 60 83  1  0  0  0  0
 61 84  1  0  0  0  0
 62 65  1  0  0  0  0
 62 74  1  0  0  0  0
 63 75  1  0  0  0  0
 66 67  1  0  0  0  0
M  CHG  1  75   1
M  ISO  4  32 100  60 101  70 100  83 101
M  END
> <Batch ID>
0149

> <Smiles>
CNC(C)C(=O)NC(C(=O)N1Cc2cc([101O:1][101CH2:1]COC3(CC(C)C4CC[100N:0]([100C:0](=O)N5CCCC(n6nc(-c7ccc(Oc8ccc(F)cc8F)cc7)c(C(N)=O)c6N)C5)CC4)COC3)ccc2CC1C(=O)NC1CCCc2ccccc21)C(C)(C)C

> <Shape>
0.297

> <Color>
0.174

> <Negative vol penalty>
0.000

$$$$

  -OEChem-04052321383D

 93103  0     1  0  0  0  0  0999 V2000
  -23.3175  -30.7879   30.2904 C   0  0  0  0  0  0  0  0  0  0  0  0
  -23.5504  -29.5387   29.7241 C   0  0  0  0  0  0  0  0  0  0  0  0
  -23.0905  -10.0925   21.7809 C   0  0  0  0  0  0  0  0  0  0  0  0
  -23.7613  -11.2798   23.7753 C   0  0  0  0  0  0  0  0  0  0  0  0
  -22.9030  -31.8497   29.4873 C   0  0  0  0  0  0  0  0  0  0  0  0
  -23.3680  -29.3503   28.3546 C   0  0  0  0  0  0  0  0  0  0  0  0
  -27.1465  -26.7289   26.2340 C   0  0  0  0  0  0  0  0  0  0  0  0
  -22.3302   -9.2179   22.5572 C   0  0  0  0  0  0  0  0  0  0  0  0
  -23.0009  -10.4053   24.5516 C   0  0  0  0  0  0  0  0  0  0  0  0
  -27.1438  -25.3468   26.4172 C   0  0  0  0  0  0  0  0  0  0  0  0
  -19.3231   -9.2318   24.1031 C   0  0  0  0  0  0  0  0  0  0  0  0
  -18.0356   -8.9258   23.6622 C   0  0  0  0  0  0  0  0  0  0  0  0
  -26.2038  -25.0626   24.2138 C   0  0  0  0  0  0  0  0  0  0  0  0
  -29.8408  -21.1517   24.3301 C   0  0  0  0  0  0  0  0  0  0  0  0
  -27.5688  -20.9178   23.5426 C   0  0  0  0  0  0  0  0  0  0  0  0
  -18.6336   -6.5882   23.5387 C   0  0  0  0  0  0  0  0  0  0  0  0
  -23.8062  -11.1234   22.3900 C   0  0  0  0  0  0  0  0  0  0  0  0
  -24.1685  -13.2382   21.0101 C   0  0  0  0  0  0  0  0  0  0  0  0
  -22.7248  -31.6766   28.1057 C   0  0  0  0  0  0  0  0  0  0  0  0
  -26.6669  -27.2898   25.0416 C   0  0  0  0  0  0  0  0  0  0  0  0
  -22.9495  -30.4104   27.5325 C   0  0  0  0  0  0  0  0  0  0  0  0
  -26.2039  -26.4520   24.0170 C   0  0  0  0  0  0  0  0  0  0  0  0
  -28.4727  -21.0800   24.5925 C   0  0  0  0  0  0  0  0  0  0  0  0
  -29.4011  -20.8992   21.9679 C   0  0  0  0  0  0  0  0  0  0  0  0
  -22.2854   -9.3743   23.9426 C   0  0  0  0  0  0  0  0  0  0  0  0
  -26.6697  -24.5136   25.4082 C   0  0  0  0  0  0  0  0  0  0  0  0
  -20.2658   -8.2160   24.2618 C   0  0  0  0  0  0  0  0  0  0  0  0
  -30.3050  -21.0614   23.0178 C   0  0  0  0  0  0  0  0  0  0  0  0
  -28.0330  -20.8274   22.2303 C   0  0  0  0  0  0  0  0  0  0  0  0
  -17.6909   -7.6040   23.3800 C   0  0  0  0  0  0  0  0  0  0  0  0
  -19.9210   -6.8942   23.9796 C   0  0  0  0  0  0  0  0  0  0  0  0
  -24.5922  -12.0267   21.5886 C   0  0  0  0  0  0  0  0  0  0  0  0
  -25.2787  -13.7127   20.3553 C   0  0  0  0  0  0  0  0  0  0  0  0
  -22.8861  -13.8774   21.0603 C   0  0  0  0  0  0  0  0  0  0  0  0
  -24.2913  -29.2622   24.2869 C   0  0  0  0  0  0  0  0  0  0  0  0
  -25.6283  -29.1173   21.3350 C   0  0  0  0  0  0  0  0  0  0  0  0
  -27.5610  -27.3950   19.1112 C   0  0  0  0  0  0  0  0  0  0  0  0
  -30.7575  -14.7631   20.1969 C   0  0  0  0  0  0  0  0  0  0  0  0
  -22.2301  -32.8419   27.2860 C   0  0  0  0  0  0  0  0  0  0  0  0
  -26.7014  -28.7811   24.8490 C   0  0  0  0  0  0  0  0  0  0  0  0
  -25.6972  -27.0032   22.7101 C   0  0  0  0  0  0  0  0  0  0  0  0
  -22.4216  -32.6544   25.7832 C   0  0  0  0  0  0  0  0  0  0  0  0
  -30.6514  -23.8520   19.0365 C   0  0  0  0  0  0  0  0  0  0  0  0
  -29.6977  -11.4785   19.3224 C   0  0  0  0  0  0  0  0  0  0  0  0
  -21.9609  -31.2645   25.3557 C   0  0  0  0  0  0  0  0  0  0  0  0
  -30.0431  -23.3997   20.3802 C   0  0  0  0  0  0  0  0  0  0  0  0
  -30.6411  -22.3685   18.6135 C   0  0  0  0  0  0  0  0  0  0  0  0
  -28.2427  -11.4264   19.7918 C   0  0  0  0  0  0  0  0  0  0  0  0
  -30.5144  -17.7636   18.7683 C   0  0  0  0  0  0  0  0  0  0  0  0
  -30.5691  -12.2943   20.2747 C   0  0  0  0  0  0  0  0  0  0  0  0
  -28.6199  -13.6035   21.0233 C   0  0  0  0  0  0  0  0  0  0  0  0
  -30.9108  -19.2293   18.8536 C   0  0  0  0  0  0  0  0  0  0  0  0
  -30.2785  -18.3572   21.0498 C   0  0  0  0  0  0  0  0  0  0  0  0
  -22.7866  -30.1728   26.0469 C   0  0  1  0  0  0  0  0  0  0  0  0
  -25.7115  -29.2708   23.7965 C   0  0  1  0  0  0  0  0  0  0  0  0
  -30.6915  -22.0146   20.1225 C   0  0  0  0  0  0  0  0  0  0  0  0
  -27.6909  -12.8385   20.0652 C   0  0  2  0  0  0  0  0  0  0  0  0
  -30.7837  -17.2337   20.1662 C   0  0  1  0  0  0  0  0  0  0  0  0
  -28.8415  -26.9428   17.0009 C   0  0  0  0  0  0  0  0  0  0  0  0
  -22.8806  -28.3314   20.2660 C   0  0  0  0  0  0  0  0  0  0  0  0
  -23.9979  -27.5515   18.1656 C   0  0  0  0  0  0  0  0  0  0  0  0
  -24.1338  -29.9517   18.8313 C   0  0  0  0  0  0  0  0  0  0  0  0
  -30.0187  -28.6335   20.1996 C   0  0  0  0  0  0  0  0  0  0  0  0
  -32.4958  -21.2994   23.9119 C   0  0  0  0  0  0  0  0  0  0  0  0
  -25.7567  -20.6059   21.5782 C   0  0  0  0  0  0  0  0  0  0  0  0
  -27.9705  -21.1778   26.0125 C   0  0  0  0  0  0  0  0  0  0  0  0
  -27.6788  -22.6161   26.4265 C   0  0  0  0  0  0  0  0  0  1  0  0
  -29.8981  -20.8015   20.5614 C   0  0  1  0  0  0  0  0  0  0  0  0
  -25.4567  -28.2297   20.1260 C   0  0  1  0  0  0  0  0  0  0  0  0
  -28.7129  -27.8350   18.2258 C   0  0  2  0  0  0  0  0  0  0  0  0
  -24.1249  -28.5055   19.3725 C   0  0  0  0  0  0  0  0  0  0  0  0
  -25.8717  -11.7488   21.3244 N   0  0  0  0  0  0  0  0  0  0  0  0
  -26.2615  -12.7923   20.5726 N   0  0  0  0  0  0  0  0  0  0  0  0
  -25.7453  -28.4682   22.5722 N   0  0  0  0  0  0  0  0  0  0  0  0
  -29.9913  -13.6230   20.4907 N   0  0  0  0  0  0  0  0  0  0  0  0
  -25.5003  -14.8233   19.6205 N   0  0  0  0  0  0  0  0  0  0  0  0
  -21.8561  -13.2534   21.7773 N   0  0  0  0  0  0  0  0  0  0  0  0
  -24.0795  -30.0379   25.4107 N   0  0  0  0  0  0  0  0  0  0  0  0
  -26.6531  -28.4133   19.3116 N   0  0  0  0  0  0  0  0  0  0  0  0
  -30.1322  -15.9829   20.4243 N   0  0  0  0  0  0  0  0  0  0  0  0
  -30.7498  -19.5972   20.3182 N   0  3  2  0  0  0  0  0  0  0  0  0
  -29.9962  -27.7832   18.9817 N   0  3  0  0  0  0  0  0  0  0  0  0
  -22.6557  -14.9615   20.4727 O   0  0  0  0  0  0  0  0  0  0  0  0
  -23.4496  -28.6021   23.6890 O   0  0  0  0  0  0  0  0  0  0  0  0
  -25.6645  -30.3414   21.1862 O   0  0  0  0  0  0  0  0  0  0  0  0
  -27.4732  -26.2604   19.5752 O   0  0  0  0  0  0  0  0  0  0  0  0
  -31.9112  -14.6986   19.7591 O   0  0  0  0  0  0  0  0  0  0  0  0
  -21.5433   -8.5213   24.7004 O   0  0  0  0  0  0  0  0  0  0  0  0
  -31.6447  -21.1331   22.7798 O   0  0  0  0  0  0  0  0  0  0  0  0
  -27.1350  -20.6691   21.2177 O   0  0  0  0  0  0  0  0  0  0  0  0
  -26.6654  -23.1643   25.5847 O   0  0  0  0  0  0  0  0  0  1  0  0
  -16.4540   -7.3101   22.9580 F   0  0  0  0  0  0  0  0  0  0  0  0
  -20.8221   -5.9139   24.1313 F   0  0  0  0  0  0  0  0  0  0  0  0
  1  2  1  0  0  0  0
  1  5  2  0  0  0  0
  2  6  2  0  0  0  0
  3  8  2  0  0  0  0
  3 17  1  0  0  0  0
  4  9  1  0  0  0  0
  4 17  2  0  0  0  0
  5 19  1  0  0  0  0
  6 21  1  0  0  0  0
  7 10  2  0  0  0  0
  7 20  1  0  0  0  0
  8 25  1  0  0  0  0
  9 25  2  0  0  0  0
 10 26  1  0  0  0  0
 11 12  2  0  0  0  0
 11 27  1  0  0  0  0
 12 30  1  0  0  0  0
 13 22  1  0  0  0  0
 13 26  2  0  0  0  0
 14 23  1  0  0  0  0
 14 28  2  0  0  0  0
 15 23  2  0  0  0  0
 15 29  1  0  0  0  0
 16 30  2  0  0  0  0
 16 31  1  0  0  0  0
 17 32  1  0  0  0  0
 18 32  1  0  0  0  0
 18 33  2  0  0  0  0
 18 34  1  0  0  0  0
 19 21  2  0  0  0  0
 19 39  1  0  0  0  0
 20 22  2  0  0  0  0
 20 40  1  0  0  0  0
 21 54  1  0  0  0  0
 22 41  1  0  0  0  0
 23 66  1  0  0  0  0
 24 28  1  0  0  0  0
 24 29  2  0  0  0  0
 24 68  1  0  0  0  0
 25 88  1  0  0  0  0
 26 91  1  0  0  0  0
 27 31  2  0  0  0  0
 27 88  1  0  0  0  0
 28 89  1  0  0  0  0
 29 90  1  0  0  0  0
 30 92  1  0  0  0  0
 31 93  1  0  0  0  0
 32 72  2  0  0  0  0
 33 73  1  0  0  0  0
 33 76  1  0  0  0  0
 34 77  1  0  0  0  0
 34 83  2  0  0  0  0
 35 55  1  0  0  0  0
 35 78  1  0  0  0  0
 35 84  2  0  0  0  0
 36 69  1  0  0  0  0
 36 74  1  0  0  0  0
 36 85  2  0  0  0  0
 37 70  1  0  0  0  0
 37 79  1  0  0  0  0
 37 86  2  0  0  0  0
 38 75  1  0  0  0  0
 38 80  1  0  0  0  0
 38 87  2  0  0  0  0
 39 42  1  0  0  0  0
 40 55  1  0  0  0  0
 41 74  1  0  0  0  0
 42 45  1  0  0  0  0
 43 46  1  0  0  0  0
 43 47  1  0  0  0  0
 44 48  1  0  0  0  0
 44 50  1  0  0  0  0
 45 54  1  0  0  0  0
 46 56  1  0  0  0  0
 47 56  1  0  0  0  0
 48 57  1  0  0  0  0
 49 52  1  0  0  0  0
 49 58  1  0  0  0  0
 50 75  1  0  0  0  0
 51 57  1  0  0  0  0
 51 75  1  0  0  0  0
 52 81  1  0  0  0  0
 53 58  1  0  0  0  0
 53 81  1  0  0  0  0
 54 78  1  0  0  0  0
 55 74  1  0  0  0  0
 56 68  1  0  0  0  0
 57 73  1  0  0  0  0
 58 80  1  0  0  0  0
 59 70  1  0  0  0  0
 60 71  1  0  0  0  0
 61 71  1  0  0  0  0
 62 71  1  0  0  0  0
 63 82  1  0  0  0  0
 64 89  1  0  0  0  0
 65 90  1  0  0  0  0
 66 67  1  0  0  0  0
 67 91  1  0  0  0  0
 68 81  1  0  0  0  0
 69 71  1  0  0  0  0
 69 79  1  0  0  0  0
 70 82  1  0  0  0  0
 72 73  1  0  0  0  0
M  CHG  2  81   1  82   1
M  ISO  4  38 100  67 101  80 100  91 101
M  END
> <Batch ID>
0149

> <Smiles>
CNC(C)C(=O)NC(C(=O)N1Cc2cc([101O:1][101CH2:1]Cc3cc(OC)c(C(C4CCC4)N4CCC([100NH:0][100C:0](=O)N5CCCC(n6nc(-c7ccc(Oc8ccc(F)cc8F)cc7)c(C(N)=O)c6N)C5)C4)c(OC)c3)ccc2CC1C(=O)NC1CCCc2ccccc21)C(C)(C)C

> <Shape>
0.232

> <Color>
0.124

> <Negative vol penalty>
0.000

$$$$

  -OEChem-04052321383D

 87 96  0     1  0  0  0  0  0999 V2000
  -24.6464  -19.5468   18.1354 C   0  0  0  0  0  0  0  0  0  0  0  0
  -24.1462  -20.7911   18.5056 C   0  0  0  0  0  0  0  0  0  0  0  0
  -22.7409  -17.1526   20.8629 C   0  0  0  0  0  0  0  0  0  0  0  0
  -24.6510  -18.3132   21.7802 C   0  0  0  0  0  0  0  0  0  0  0  0
  -25.9063  -19.1440   18.5762 C   0  0  0  0  0  0  0  0  0  0  0  0
  -24.9053  -21.6328   19.3179 C   0  0  0  0  0  0  0  0  0  0  0  0
  -25.1238  -27.7491   19.0957 C   0  0  0  0  0  0  0  0  0  0  0  0
  -23.5722  -16.1122   20.4481 C   0  0  0  0  0  0  0  0  0  0  0  0
  -25.4824  -17.2727   21.3656 C   0  0  0  0  0  0  0  0  0  0  0  0
  -24.4877  -28.7382   19.8446 C   0  0  0  0  0  0  0  0  0  0  0  0
  -25.1401  -12.9825   19.4673 C   0  0  0  0  0  0  0  0  0  0  0  0
  -24.7129  -11.6764   19.7065 C   0  0  0  0  0  0  0  0  0  0  0  0
  -26.4294  -28.9018   21.2666 C   0  0  0  0  0  0  0  0  0  0  0  0
  -22.9800  -27.5252   24.8622 C   0  0  0  0  0  0  0  0  0  0  0  0
  -24.6672  -12.1260   22.0799 C   0  0  0  0  0  0  0  0  0  0  0  0
  -23.2803  -18.2531   21.5289 C   0  0  0  0  0  0  0  0  0  0  0  0
  -21.7579  -19.4455   23.1926 C   0  0  0  0  0  0  0  0  0  0  0  0
  -26.6852  -19.9852   19.3864 C   0  0  0  0  0  0  0  0  0  0  0  0
  -26.4155  -27.3204   19.4340 C   0  0  0  0  0  0  0  0  0  0  0  0
  -26.1762  -21.2403   19.7711 C   0  0  0  0  0  0  0  0  0  0  0  0
  -27.0807  -27.9089   20.5190 C   0  0  0  0  0  0  0  0  0  0  0  0
  -22.9009  -30.1655   24.1138 C   0  0  0  0  0  0  0  0  0  0  0  0
  -24.0741  -28.3867   25.1182 C   0  0  0  0  0  0  0  0  0  0  0  0
  -21.8310  -27.9942   24.2221 C   0  0  0  0  0  0  0  0  0  0  0  0
  -24.0384  -29.7352   24.7388 C   0  0  0  0  0  0  0  0  0  0  0  0
  -21.8577  -29.3114   23.8799 C   0  0  0  0  0  0  0  0  0  0  0  0
  -24.9429  -16.1722   20.6995 C   0  0  0  0  0  0  0  0  0  0  0  0
  -25.1393  -29.3127   20.9319 C   0  0  0  0  0  0  0  0  0  0  0  0
  -25.3310  -13.8604   20.5344 C   0  0  0  0  0  0  0  0  0  0  0  0
  -24.4765  -11.2482   21.0128 C   0  0  0  0  0  0  0  0  0  0  0  0
  -25.0945  -13.4321   21.8407 C   0  0  0  0  0  0  0  0  0  0  0  0
  -22.4222  -19.3285   21.9570 C   0  0  0  0  0  0  0  0  0  0  0  0
  -21.0777  -20.6356   23.1055 C   0  0  0  0  0  0  0  0  0  0  0  0
  -21.7559  -18.5578   24.3186 C   0  0  0  0  0  0  0  0  0  0  0  0
  -27.6941  -24.5587   20.3514 C   0  0  0  0  0  0  0  0  0  0  0  0
  -30.4765  -26.2043   20.0820 C   0  0  0  0  0  0  0  0  0  0  0  0
  -32.0679  -29.2232   20.0740 C   0  0  0  0  0  0  0  0  0  0  0  0
  -20.8774  -26.0358   21.7118 C   0  0  0  0  0  0  0  0  0  0  0  0
  -28.0214  -19.4867   19.8771 C   0  0  0  0  0  0  0  0  0  0  0  0
  -27.0983  -26.2714   18.5999 C   0  0  0  0  0  0  0  0  0  0  0  0
  -28.4757  -27.4985   20.9111 C   0  0  0  0  0  0  0  0  0  0  0  0
  -28.9192  -20.5920   20.4271 C   0  0  0  0  0  0  0  0  0  0  0  0
  -20.2289  -23.6598   19.1406 C   0  0  0  0  0  0  0  0  0  0  0  0
  -28.1331  -21.4999   21.3676 C   0  0  0  0  0  0  0  0  0  0  0  0
  -20.6926  -22.3326   19.7437 C   0  0  0  0  0  0  0  0  0  0  0  0
  -21.1268  -24.8185   19.5688 C   0  0  0  0  0  0  0  0  0  0  0  0
  -21.7708  -23.6293   21.6291 C   0  0  0  0  0  0  0  0  0  0  0  0
  -26.9799  -22.1917   20.6307 C   0  0  1  0  0  0  0  0  0  0  0  0
  -22.1206  -31.2551   23.4802 C   0  0  1  0  0  0  0  0  0  0  0  0
  -28.2143  -25.5474   19.3467 C   0  0  1  0  0  0  0  0  0  0  0  0
  -20.8633  -22.4399   21.2709 C   0  0  2  0  0  0  0  0  0  0  0  0
  -25.1656  -30.6692   24.9934 C   0  0  0  0  0  0  0  0  0  0  0  0
  -25.9543  -26.7129   24.9883 C   0  0  0  0  0  0  0  0  0  0  0  0
  -24.9564  -27.3167   27.2232 C   0  0  0  0  0  0  0  0  0  0  0  0
  -34.3502  -30.2465   19.8698 C   0  0  0  0  0  0  0  0  0  0  0  0
  -21.5574  -32.5423   21.4163 C   0  0  0  0  0  0  0  0  0  0  0  0
  -31.1110  -25.3542   22.9429 C   0  0  0  0  0  0  0  0  0  0  0  0
  -32.8703  -27.1343   23.0076 C   0  0  0  0  0  0  0  0  0  0  0  0
  -33.0542  -25.2603   21.3714 C   0  0  0  0  0  0  0  0  0  0  0  0
  -31.3024  -30.7293   17.6440 C   0  0  0  0  0  0  0  0  0  0  0  0
  -20.6709  -27.1179   23.9356 C   0  0  0  0  0  0  0  0  0  0  0  0
  -23.2036  -30.6539   21.2638 C   0  0  0  0  0  0  0  0  0  1  0  0
  -25.2772  -27.8265   25.8069 C   0  0  0  0  0  0  0  0  0  0  0  0
  -31.3099  -27.0545   21.0101 C   0  0  1  0  0  0  0  0  0  0  0  0
  -33.0941  -29.8185   19.1268 C   0  0  2  0  0  0  0  0  0  0  0  0
  -22.6615  -31.7778   22.1510 C   0  0  2  0  0  0  0  0  0  0  0  0
  -32.0593  -26.2074   22.0770 C   0  0  0  0  0  0  0  0  0  0  0  0
  -22.1853  -20.3617   21.1444 N   0  0  0  0  0  0  0  0  0  0  0  0
  -21.3645  -21.1393   21.8709 N   0  0  0  0  0  0  0  0  0  0  0  0
  -29.0988  -26.4644   20.0685 N   0  0  0  0  0  0  0  0  0  0  0  0
  -21.2459  -24.8654   21.0281 N   0  0  0  0  0  0  0  0  0  0  0  0
  -20.2682  -21.2898   23.9652 N   0  0  0  0  0  0  0  0  0  0  0  0
  -22.5089  -17.3783   24.2408 N   0  0  0  0  0  0  0  0  0  0  0  0
  -27.4771  -23.2948   19.8367 N   0  0  0  0  0  0  0  0  0  0  0  0
  -32.1851  -27.8519   20.1578 N   0  0  0  0  0  0  0  0  0  0  0  0
  -21.0151  -25.9938   23.0938 N   0  0  0  0  0  0  0  0  0  0  0  0
  -32.5290  -31.0104   18.4335 N   0  3  0  0  0  0  0  0  0  0  0  0
  -21.0925  -18.7954   25.3564 O   0  0  0  0  0  0  0  0  0  0  0  0
  -27.5050  -24.9157   21.5084 O   0  0  0  0  0  0  0  0  0  0  0  0
  -31.0285  -25.3460   19.3890 O   0  0  0  0  0  0  0  0  0  0  0  0
  -31.2470  -29.9068   20.6818 O   0  0  0  0  0  0  0  0  0  0  0  0
  -20.4517  -27.0417   21.1339 O   0  0  0  0  0  0  0  0  0  0  0  0
  -21.0915  -30.2266   23.2778 O   0  0  0  0  0  0  0  0  0  0  0  0
  -25.7544  -15.1570   20.2952 O   0  0  0  0  0  0  0  0  0  0  0  0
  -24.5204  -30.2779   21.6649 O   0  0  0  0  0  0  0  0  0  1  0  0
  -24.0647   -9.9944   21.2422 F   0  0  0  0  0  0  0  0  0  0  0  0
  -25.2749  -14.2713   22.8698 F   0  0  0  0  0  0  0  0  0  0  0  0
  1  2  1  0  0  0  0
  1  5  2  0  0  0  0
  2  6  2  0  0  0  0
  3  8  2  0  0  0  0
  3 16  1  0  0  0  0
  4  9  1  0  0  0  0
  4 16  2  0  0  0  0
  5 18  1  0  0  0  0
  6 20  1  0  0  0  0
  7 10  2  0  0  0  0
  7 19  1  0  0  0  0
  8 27  1  0  0  0  0
  9 27  2  0  0  0  0
 10 28  1  0  0  0  0
 11 12  2  0  0  0  0
 11 29  1  0  0  0  0
 12 30  1  0  0  0  0
 13 21  1  0  0  0  0
 13 28  2  0  0  0  0
 14 23  1  0  0  0  0
 14 24  2  0  0  0  0
 15 30  2  0  0  0  0
 15 31  1  0  0  0  0
 16 32  1  0  0  0  0
 17 32  1  0  0  0  0
 17 33  2  0  0  0  0
 17 34  1  0  0  0  0
 18 20  2  0  0  0  0
 18 39  1  0  0  0  0
 19 21  2  0  0  0  0
 19 40  1  0  0  0  0
 20 48  1  0  0  0  0
 21 41  1  0  0  0  0
 22 25  1  0  0  0  0
 22 26  2  0  0  0  0
 22 49  1  0  0  0  0
 23 25  2  0  0  0  0
 23 63  1  0  0  0  0
 24 26  1  0  0  0  0
 24 61  1  0  0  0  0
 25 52  1  0  0  0  0
 26 83  1  0  0  0  0
 27 84  1  0  0  0  0
 28 85  1  0  0  0  0
 29 31  2  0  0  0  0
 29 84  1  0  0  0  0
 30 86  1  0  0  0  0
 31 87  1  0  0  0  0
 32 68  2  0  0  0  0
 33 69  1  0  0  0  0
 33 72  1  0  0  0  0
 34 73  1  0  0  0  0
 34 78  2  0  0  0  0
 35 50  1  0  0  0  0
 35 74  1  0  0  0  0
 35 79  2  0  0  0  0
 36 64  1  0  0  0  0
 36 70  1  0  0  0  0
 36 80  2  0  0  0  0
 37 65  1  0  0  0  0
 37 75  1  0  0  0  0
 37 81  2  0  0  0  0
 38 71  1  0  0  0  0
 38 76  1  0  0  0  0
 38 82  2  0  0  0  0
 39 42  1  0  0  0  0
 40 50  1  0  0  0  0
 41 70  1  0  0  0  0
 42 44  1  0  0  0  0
 43 45  1  0  0  0  0
 43 46  1  0  0  0  0
 44 48  1  0  0  0  0
 45 51  1  0  0  0  0
 46 71  1  0  0  0  0
 47 51  1  0  0  0  0
 47 71  1  0  0  0  0
 48 74  1  0  0  0  0
 49 66  1  0  0  0  0
 49 83  1  0  0  0  0
 50 70  1  0  0  0  0
 51 69  1  0  0  0  0
 53 63  1  0  0  0  0
 54 63  1  0  0  0  0
 55 65  1  0  0  0  0
 56 66  1  0  0  0  0
 57 67  1  0  0  0  0
 58 67  1  0  0  0  0
 59 67  1  0  0  0  0
 60 77  1  0  0  0  0
 61 76  1  0  0  0  0
 62 66  1  0  0  0  0
 62 85  1  0  0  0  0
 64 67  1  0  0  0  0
 64 75  1  0  0  0  0
 65 77  1  0  0  0  0
 68 69  1  0  0  0  0
M  CHG  1  77   1
M  ISO  4  38 100  62 101  76 100  85 101
M  END
> <Batch ID>
0149

> <Smiles>
CNC(C)C(=O)NC(C(=O)N1Cc2cc([101O:1][101CH2:1]C(C)C3Oc4c(C[100NH:0][100C:0](=O)N5CCCC(n6nc(-c7ccc(Oc8ccc(F)cc8F)cc7)c(C(N)=O)c6N)C5)cc(C(C)C)c(C)c43)ccc2CC1C(=O)NC1CCCc2ccccc21)C(C)(C)C

> <Shape>
0.201

> <Color>
0.066

> <Negative vol penalty>
0.000

$$$$

  -OEChem-04052321383D

 87 96  0     1  0  0  0  0  0999 V2000
  -19.8808  -24.5378   32.3890 C   0  0  0  0  0  0  0  0  0  0  0  0
  -20.9920  -24.3089   31.5838 C   0  0  0  0  0  0  0  0  0  0  0  0
  -23.0714   -9.8718   19.9431 C   0  0  0  0  0  0  0  0  0  0  0  0
  -23.8338   -9.8798   22.2356 C   0  0  0  0  0  0  0  0  0  0  0  0
  -18.6012  -24.4984   31.8368 C   0  0  0  0  0  0  0  0  0  0  0  0
  -20.8240  -24.0392   30.2260 C   0  0  0  0  0  0  0  0  0  0  0  0
  -24.0677  -26.6203   27.3171 C   0  0  0  0  0  0  0  0  0  0  0  0
  -28.7774  -19.9175   23.9865 C   0  0  0  0  0  0  0  0  0  0  0  0
  -22.3276   -8.7189   20.1944 C   0  0  0  0  0  0  0  0  0  0  0  0
  -23.0900   -8.7269   22.4870 C   0  0  0  0  0  0  0  0  0  0  0  0
  -25.3754  -26.1425   27.2429 C   0  0  0  0  0  0  0  0  0  0  0  0
  -28.0615  -20.7791   24.8175 C   0  0  0  0  0  0  0  0  0  0  0  0
  -19.3808   -7.9236   21.6494 C   0  0  0  0  0  0  0  0  0  0  0  0
  -18.0734   -7.8773   21.1656 C   0  0  0  0  0  0  0  0  0  0  0  0
  -24.8710  -25.1092   25.1222 C   0  0  0  0  0  0  0  0  0  0  0  0
  -30.1095  -21.3990   25.9392 C   0  0  0  0  0  0  0  0  0  0  0  0
  -18.6313   -5.9335   19.8437 C   0  0  0  0  0  0  0  0  0  0  0  0
  -23.8246  -10.4522   20.9637 C   0  0  0  0  0  0  0  0  0  0  0  0
  -24.1667  -12.9773   20.8421 C   0  0  0  0  0  0  0  0  0  0  0  0
  -18.4181  -24.2377   30.4696 C   0  0  0  0  0  0  0  0  0  0  0  0
  -23.1473  -26.3364   26.2980 C   0  0  0  0  0  0  0  0  0  0  0  0
  -19.5407  -23.9950   29.6553 C   0  0  0  0  0  0  0  0  0  0  0  0
  -30.1594  -19.7966   24.1318 C   0  0  0  0  0  0  0  0  0  0  0  0
  -23.5530  -25.5867   25.1847 C   0  0  0  0  0  0  0  0  0  0  0  0
  -30.8255  -20.5374   25.1082 C   0  0  0  0  0  0  0  0  0  0  0  0
  -22.3369   -8.1465   21.4664 C   0  0  0  0  0  0  0  0  0  0  0  0
  -25.7764  -25.3844   26.1467 C   0  0  0  0  0  0  0  0  0  0  0  0
  -28.7275  -21.5198   25.7939 C   0  0  0  0  0  0  0  0  0  0  0  0
  -20.3136   -6.9748   21.2303 C   0  0  0  0  0  0  0  0  0  0  0  0
  -17.6986   -6.8823   20.2628 C   0  0  0  0  0  0  0  0  0  0  0  0
  -19.9388   -5.9798   20.3274 C   0  0  0  0  0  0  0  0  0  0  0  0
  -24.5936  -11.6429   20.7045 C   0  0  0  0  0  0  0  0  0  0  0  0
  -25.2586  -13.7264   20.4772 C   0  0  0  0  0  0  0  0  0  0  0  0
  -22.8968  -13.4935   21.2622 C   0  0  0  0  0  0  0  0  0  0  0  0
  -20.3826  -24.7756   26.1432 C   0  0  0  0  0  0  0  0  0  0  0  0
  -20.3603  -25.9072   23.1033 C   0  0  0  0  0  0  0  0  0  0  0  0
  -22.1373  -27.0674   20.4306 C   0  0  0  0  0  0  0  0  0  0  0  0
  -30.7427  -14.7445   20.6589 C   0  0  0  0  0  0  0  0  0  0  0  0
  -17.0128  -24.1585   29.9276 C   0  0  0  0  0  0  0  0  0  0  0  0
  -21.7479  -26.8817   26.3802 C   0  0  0  0  0  0  0  0  0  0  0  0
  -22.6090  -25.2713   24.0543 C   0  0  0  0  0  0  0  0  0  0  0  0
  -16.9421  -24.2365   28.4047 C   0  0  0  0  0  0  0  0  0  0  0  0
  -29.6020  -12.3591   18.2746 C   0  0  0  0  0  0  0  0  0  0  0  0
  -17.9785  -23.3118   27.7741 C   0  0  0  0  0  0  0  0  0  0  0  0
  -28.1650  -12.0658   18.7093 C   0  0  0  0  0  0  0  0  0  0  0  0
  -30.5205  -12.5803   19.4743 C   0  0  0  0  0  0  0  0  0  0  0  0
  -28.6205  -13.3124   20.8627 C   0  0  0  0  0  0  0  0  0  0  0  0
  -30.5070  -18.0454   20.9518 C   0  0  0  0  0  0  0  0  0  0  0  0
  -19.4007  -23.7237   28.1731 C   0  0  1  0  0  0  0  0  0  0  0  0
  -30.9043  -18.8678   23.2303 C   0  0  1  0  0  0  0  0  0  0  0  0
  -20.7505  -26.0982   25.5324 C   0  0  1  0  0  0  0  0  0  0  0  0
  -30.3501  -17.4330   23.2506 C   0  0  1  0  0  0  0  0  0  0  0  0
  -27.6450  -13.1374   19.6863 C   0  0  2  0  0  0  0  0  0  0  0  0
  -30.8103  -16.8957   21.8947 C   0  0  1  0  0  0  0  0  0  0  0  0
  -32.3043  -20.4234   25.2829 C   0  0  0  0  0  0  0  0  0  0  0  0
  -30.8658  -16.6138   24.4273 C   0  0  0  0  0  0  0  0  0  0  0  0
  -21.8463  -27.8775   18.0734 C   0  0  0  0  0  0  0  0  0  0  0  0
  -19.9435  -23.0325   22.1693 C   0  0  0  0  0  0  0  0  0  0  0  0
  -20.6057  -23.7584   19.8665 C   0  0  0  0  0  0  0  0  0  0  0  0
  -18.5799  -24.7350   20.9459 C   0  0  0  0  0  0  0  0  0  0  0  0
  -23.2653  -29.7249   21.0816 C   0  0  0  0  0  0  0  0  0  0  0  0
  -27.7142  -24.6361   27.3047 C   0  0  0  0  0  0  0  0  0  1  0  0
  -28.7128  -23.5158   27.0868 C   0  0  0  0  0  0  0  0  0  0  0  0
  -20.8719  -25.4089   21.7732 C   0  0  1  0  0  0  0  0  0  0  0  0
  -21.9378  -28.2786   19.5375 C   0  0  2  0  0  0  0  0  0  0  0  0
  -20.0177  -24.2378   21.2108 C   0  0  0  0  0  0  0  0  0  0  0  0
  -25.8579  -11.5466   20.2849 N   0  0  0  0  0  0  0  0  0  0  0  0
  -26.2349  -12.8300   20.1555 N   0  0  0  0  0  0  0  0  0  0  0  0
  -21.2496  -25.8216   24.1838 N   0  0  0  0  0  0  0  0  0  0  0  0
  -29.9712  -13.6094   20.3604 N   0  0  0  0  0  0  0  0  0  0  0  0
  -25.4691  -15.0578   20.4033 N   0  0  0  0  0  0  0  0  0  0  0  0
  -21.8851  -12.5847   21.6010 N   0  0  0  0  0  0  0  0  0  0  0  0
  -19.8281  -24.8735   27.4051 N   0  0  0  0  0  0  0  0  0  0  0  0
  -20.9375  -26.5746   20.8984 N   0  0  0  0  0  0  0  0  0  0  0  0
  -30.1447  -15.6739   21.5012 N   0  0  0  0  0  0  0  0  0  0  0  0
  -30.8080  -19.2705   21.7692 N   0  3  0  0  0  0  0  0  0  0  0  0
  -23.0739  -29.2303   19.6940 N   0  3  0  0  0  0  0  0  0  0  0  0
  -22.6608  -14.7242   21.3192 O   0  0  0  0  0  0  0  0  0  0  0  0
  -20.5853  -23.7429   25.5155 O   0  0  0  0  0  0  0  0  0  0  0  0
  -19.2163  -26.3624   23.1791 O   0  0  0  0  0  0  0  0  0  0  0  0
  -23.2463  -26.6025   20.6846 O   0  0  0  0  0  0  0  0  0  0  0  0
  -31.8782  -14.9196   20.2040 O   0  0  0  0  0  0  0  0  0  0  0  0
  -21.6110   -7.0216   21.7121 O   0  0  0  0  0  0  0  0  0  0  0  0
  -27.0520  -24.9162   26.0720 O   0  0  0  0  0  0  0  0  0  1  0  0
  -28.0243  -22.3658   26.6106 O   0  0  0  0  0  0  0  0  0  0  0  0
  -16.4426   -6.8371   19.7995 F   0  0  0  0  0  0  0  0  0  0  0  0
  -20.8301   -5.0649   19.9221 F   0  0  0  0  0  0  0  0  0  0  0  0
  1  2  1  0  0  0  0
  1  5  2  0  0  0  0
  2  6  2  0  0  0  0
  3  9  2  0  0  0  0
  3 18  1  0  0  0  0
  4 10  1  0  0  0  0
  4 18  2  0  0  0  0
  5 20  1  0  0  0  0
  6 22  1  0  0  0  0
  7 11  2  0  0  0  0
  7 21  1  0  0  0  0
  8 12  2  0  0  0  0
  8 23  1  0  0  0  0
  9 26  1  0  0  0  0
 10 26  2  0  0  0  0
 11 27  1  0  0  0  0
 12 28  1  0  0  0  0
 13 14  2  0  0  0  0
 13 29  1  0  0  0  0
 14 30  1  0  0  0  0
 15 24  1  0  0  0  0
 15 27  2  0  0  0  0
 16 25  1  0  0  0  0
 16 28  2  0  0  0  0
 17 30  2  0  0  0  0
 17 31  1  0  0  0  0
 18 32  1  0  0  0  0
 19 32  1  0  0  0  0
 19 33  2  0  0  0  0
 19 34  1  0  0  0  0
 20 22  2  0  0  0  0
 20 39  1  0  0  0  0
 21 24  2  0  0  0  0
 21 40  1  0  0  0  0
 22 49  1  0  0  0  0
 23 25  2  0  0  0  0
 23 50  1  0  0  0  0
 24 41  1  0  0  0  0
 25 55  1  0  0  0  0
 26 83  1  0  0  0  0
 27 84  1  0  0  0  0
 28 85  1  0  0  0  0
 29 31  2  0  0  0  0
 29 83  1  0  0  0  0
 30 86  1  0  0  0  0
 31 87  1  0  0  0  0
 32 67  2  0  0  0  0
 33 68  1  0  0  0  0
 33 71  1  0  0  0  0
 34 72  1  0  0  0  0
 34 78  2  0  0  0  0
 35 51  1  0  0  0  0
 35 73  1  0  0  0  0
 35 79  2  0  0  0  0
 36 64  1  0  0  0  0
 36 69  1  0  0  0  0
 36 80  2  0  0  0  0
 37 65  1  0  0  0  0
 37 74  1  0  0  0  0
 37 81  2  0  0  0  0
 38 70  1  0  0  0  0
 38 75  1  0  0  0  0
 38 82  2  0  0  0  0
 39 42  1  0  0  0  0
 40 51  1  0  0  0  0
 41 69  1  0  0  0  0
 42 44  1  0  0  0  0
 43 45  1  0  0  0  0
 43 46  1  0  0  0  0
 44 49  1  0  0  0  0
 45 53  1  0  0  0  0
 46 70  1  0  0  0  0
 47 53  1  0  0  0  0
 47 70  1  0  0  0  0
 48 54  1  0  0  0  0
 48 76  1  0  0  0  0
 49 73  1  0  0  0  0
 50 52  1  0  0  0  0
 50 76  1  0  0  0  0
 51 69  1  0  0  0  0
 52 54  1  0  0  0  0
 52 56  1  0  0  0  0
 53 68  1  0  0  0  0
 54 75  1  0  0  0  0
 57 65  1  0  0  0  0
 58 66  1  0  0  0  0
 59 66  1  0  0  0  0
 60 66  1  0  0  0  0
 61 77  1  0  0  0  0
 62 63  1  0  0  0  0
 62 84  1  0  0  0  0
 63 85  1  0  0  0  0
 64 66  1  0  0  0  0
 64 74  1  0  0  0  0
 65 77  1  0  0  0  0
 67 68  1  0  0  0  0
M  CHG  2  76   1  77   1
M  ISO  4  38 100  62 101  75 100  84 101
M  END
> <Batch ID>
0149

> <Smiles>
CNC(C)C(=O)NC(C(=O)N1Cc2cc([101O:1][101CH2:1]COc3ccc(C4NCC([100NH:0][100C:0](=O)N5CCCC(n6nc(-c7ccc(Oc8ccc(F)cc8F)cc7)c(C(N)=O)c6N)C5)C4C)c(C)c3)ccc2CC1C(=O)NC1CCCc2ccccc21)C(C)(C)C

> <Shape>
0.195

> <Color>
0.184

> <Negative vol penalty>
0.000

$$$$

  -OEChem-04052321383D

 84 93  0     1  0  0  0  0  0999 V2000
  -20.4800  -34.0373   20.1000 C   0  0  0  0  0  0  0  0  0  0  0  0
  -21.7736  -33.5313   20.1774 C   0  0  0  0  0  0  0  0  0  0  0  0
  -26.7071  -12.6354   20.5386 C   0  0  0  0  0  0  0  0  0  0  0  0
  -25.2348  -14.4797   21.0562 C   0  0  0  0  0  0  0  0  0  0  0  0
  -19.4863  -33.5389   20.9415 C   0  0  0  0  0  0  0  0  0  0  0  0
  -22.0746  -32.5275   21.0973 C   0  0  0  0  0  0  0  0  0  0  0  0
  -24.8885  -28.8290   19.0855 C   0  0  0  0  0  0  0  0  0  0  0  0
  -25.8096  -11.7510   21.1369 C   0  0  0  0  0  0  0  0  0  0  0  0
  -24.3373  -13.5953   21.6545 C   0  0  0  0  0  0  0  0  0  0  0  0
  -26.2505  -29.0805   18.9253 C   0  0  0  0  0  0  0  0  0  0  0  0
  -22.8951  -10.2367   20.3338 C   0  0  0  0  0  0  0  0  0  0  0  0
  -22.6040   -9.0521   19.6574 C   0  0  0  0  0  0  0  0  0  0  0  0
  -26.7114  -27.8322   20.9374 C   0  0  0  0  0  0  0  0  0  0  0  0
  -29.5021  -23.9264   17.5250 C   0  0  0  0  0  0  0  0  0  0  0  0
  -23.4443   -7.7766   21.5294 C   0  0  0  0  0  0  0  0  0  0  0  0
  -31.0265  -23.2915   19.6973 C   0  0  0  0  0  0  0  0  0  0  0  0
  -26.4197  -13.9998   20.4983 C   0  0  0  0  0  0  0  0  0  0  0  0
  -27.3741  -15.3147   18.5316 C   0  0  0  0  0  0  0  0  0  0  0  0
  -19.7729  -32.5217   21.8655 C   0  0  0  0  0  0  0  0  0  0  0  0
  -24.4261  -28.0852   20.1806 C   0  0  0  0  0  0  0  0  0  0  0  0
  -21.0841  -32.0160   21.9529 C   0  0  0  0  0  0  0  0  0  0  0  0
  -25.3434  -27.5705   21.1078 C   0  0  0  0  0  0  0  0  0  0  0  0
  -29.6672  -22.5911   17.8757 C   0  0  0  0  0  0  0  0  0  0  0  0
  -30.4424  -22.2591   18.9812 C   0  0  0  0  0  0  0  0  0  0  0  0
  -24.6247  -12.2310   21.6949 C   0  0  0  0  0  0  0  0  0  0  0  0
  -27.1619  -28.5846   19.8529 C   0  0  0  0  0  0  0  0  0  0  0  0
  -23.4609  -10.1913   21.6080 C   0  0  0  0  0  0  0  0  0  0  0  0
  -22.8786   -7.8221   20.2552 C   0  0  0  0  0  0  0  0  0  0  0  0
  -23.7355   -8.9613   22.2058 C   0  0  0  0  0  0  0  0  0  0  0  0
  -27.3466  -14.9139   19.8808 C   0  0  0  0  0  0  0  0  0  0  0  0
  -30.1282  -24.8841   18.3064 C   0  0  0  0  0  0  0  0  0  0  0  0
  -28.4344  -16.1843   18.4532 C   0  0  0  0  0  0  0  0  0  0  0  0
  -26.5176  -14.9351   17.4462 C   0  0  0  0  0  0  0  0  0  0  0  0
  -22.5079  -28.6774   22.6451 C   0  0  0  0  0  0  0  0  0  0  0  0
  -22.9076  -25.5094   23.2166 C   0  0  0  0  0  0  0  0  0  0  0  0
  -24.8222  -22.7126   22.8185 C   0  0  0  0  0  0  0  0  0  0  0  0
  -31.3907  -20.4542   20.4609 C   0  0  0  0  0  0  0  0  0  0  0  0
  -18.6769  -32.0480   22.7868 C   0  0  0  0  0  0  0  0  0  0  0  0
  -22.9562  -27.8000   20.3245 C   0  0  0  0  0  0  0  0  0  0  0  0
  -24.9000  -26.7491   22.2898 C   0  0  0  0  0  0  0  0  0  0  0  0
  -18.9905  -30.7220   23.4751 C   0  0  0  0  0  0  0  0  0  0  0  0
  -32.0925  -17.2276   21.7925 C   0  0  0  0  0  0  0  0  0  0  0  0
  -20.4082  -30.7348   24.0379 C   0  0  0  0  0  0  0  0  0  0  0  0
  -30.9227  -16.3710   21.3029 C   0  0  0  0  0  0  0  0  0  0  0  0
  -31.2315  -29.0197   17.1332 C   0  0  0  0  0  0  0  0  0  0  0  0
  -31.4721  -29.5768   18.5071 C   0  0  0  0  0  0  0  0  0  0  0  0
  -31.6482  -18.6459   22.1457 C   0  0  0  0  0  0  0  0  0  0  0  0
  -29.7371  -18.4890   20.5990 C   0  0  0  0  0  0  0  0  0  0  0  0
  -21.4438  -30.9096   22.9206 C   0  0  1  0  0  0  0  0  0  0  0  0
  -22.5497  -27.4664   21.7566 C   0  0  1  0  0  0  0  0  0  0  0  0
  -30.1473  -17.0709   20.1695 C   0  0  2  0  0  0  0  0  0  0  0  0
  -30.3954  -28.5382   18.2958 C   0  0  0  0  0  0  0  0  0  0  0  0
  -29.0035  -21.5374   17.0511 C   0  0  0  0  0  0  0  0  0  0  0  0
  -24.9082  -20.2806   23.4313 C   0  0  0  0  0  0  0  0  0  0  0  0
  -23.7620  -26.2559   26.0491 C   0  0  0  0  0  0  0  0  0  0  0  0
  -24.7218  -23.9562   26.2908 C   0  0  0  0  0  0  0  0  0  0  0  0
  -22.2753  -24.2502   25.9023 C   0  0  0  0  0  0  0  0  0  0  0  0
  -24.7582  -21.8759   19.9804 C   0  0  0  0  0  0  0  0  0  0  0  0
  -28.9744  -28.9810   18.3651 C   0  0  0  0  0  0  0  0  0  1  0  0
  -30.6439  -27.1491   18.8159 C   0  0  0  0  0  0  0  0  0  0  0  0
  -23.8919  -24.6815   24.0069 C   0  0  1  0  0  0  0  0  0  0  0  0
  -24.4653  -21.2997   22.3931 C   0  0  2  0  0  0  0  0  0  0  0  0
  -23.6713  -24.8030   25.5412 C   0  0  0  0  0  0  0  0  0  0  0  0
  -30.8889  -24.6001   19.3873 N   0  0  0  0  0  0  0  0  0  0  0  0
  -28.3129  -15.4820   20.6072 N   0  0  0  0  0  0  0  0  0  0  0  0
  -28.9574  -16.2486   19.7112 N   0  0  0  0  0  0  0  0  0  0  0  0
  -23.4519  -26.5028   22.3904 N   0  0  0  0  0  0  0  0  0  0  0  0
  -30.9242  -19.2474   21.0237 N   0  0  0  0  0  0  0  0  0  0  0  0
  -28.9611  -16.8923   17.4316 N   0  0  0  0  0  0  0  0  0  0  0  0
  -25.4768  -14.0317   17.7010 N   0  0  0  0  0  0  0  0  0  0  0  0
  -30.6406  -20.9136   19.3788 N   0  0  0  0  0  0  0  0  0  0  0  0
  -21.6398  -29.6621   22.2136 N   0  0  0  0  0  0  0  0  0  0  0  0
  -23.7848  -23.3200   23.4938 N   0  0  0  0  0  0  0  0  0  0  0  0
  -25.1228  -20.9671   21.0977 N   0  3  0  0  0  0  0  0  0  0  0  0
  -26.6809  -15.3709   16.2814 O   0  0  0  0  0  0  0  0  0  0  0  0
  -23.2102  -28.7150   23.6487 O   0  0  0  0  0  0  0  0  0  0  0  0
  -21.7005  -25.2785   23.3229 O   0  0  0  0  0  0  0  0  0  0  0  0
  -25.9135  -23.2246   22.5792 O   0  0  0  0  0  0  0  0  0  0  0  0
  -32.3984  -21.0229   20.8887 O   0  0  0  0  0  0  0  0  0  0  0  0
  -23.7486  -11.3682   22.2786 O   0  0  0  0  0  0  0  0  0  0  0  0
  -28.4917  -28.8292   19.6994 O   0  0  0  0  0  0  0  0  0  1  0  0
  -29.9806  -26.2067   17.9814 O   0  0  0  0  0  0  0  0  0  0  0  0
  -22.5975   -6.6846   19.6061 F   0  0  0  0  0  0  0  0  0  0  0  0
  -24.2779   -8.9113   23.4301 F   0  0  0  0  0  0  0  0  0  0  0  0
  1  2  1  0  0  0  0
  1  5  2  0  0  0  0
  2  6  2  0  0  0  0
  3  8  2  0  0  0  0
  3 17  1  0  0  0  0
  4  9  1  0  0  0  0
  4 17  2  0  0  0  0
  5 19  1  0  0  0  0
  6 21  1  0  0  0  0
  7 10  2  0  0  0  0
  7 20  1  0  0  0  0
  8 25  1  0  0  0  0
  9 25  2  0  0  0  0
 10 26  1  0  0  0  0
 11 12  2  0  0  0  0
 11 27  1  0  0  0  0
 12 28  1  0  0  0  0
 13 22  1  0  0  0  0
 13 26  2  0  0  0  0
 14 23  2  0  0  0  0
 14 31  1  0  0  0  0
 15 28  2  0  0  0  0
 15 29  1  0  0  0  0
 16 24  2  0  0  0  0
 16 64  1  0  0  0  0
 17 30  1  0  0  0  0
 18 30  1  0  0  0  0
 18 32  2  0  0  0  0
 18 33  1  0  0  0  0
 19 21  2  0  0  0  0
 19 38  1  0  0  0  0
 20 22  2  0  0  0  0
 20 39  1  0  0  0  0
 21 49  1  0  0  0  0
 22 40  1  0  0  0  0
 23 24  1  0  0  0  0
 23 53  1  0  0  0  0
 24 71  1  0  0  0  0
 25 80  1  0  0  0  0
 26 81  1  0  0  0  0
 27 29  2  0  0  0  0
 27 80  1  0  0  0  0
 28 83  1  0  0  0  0
 29 84  1  0  0  0  0
 30 65  2  0  0  0  0
 31 64  2  0  0  0  0
 31 82  1  0  0  0  0
 32 66  1  0  0  0  0
 32 69  1  0  0  0  0
 33 70  1  0  0  0  0
 33 75  2  0  0  0  0
 34 50  1  0  0  0  0
 34 72  1  0  0  0  0
 34 76  2  0  0  0  0
 35 61  1  0  0  0  0
 35 67  1  0  0  0  0
 35 77  2  0  0  0  0
 36 62  1  0  0  0  0
 36 73  1  0  0  0  0
 36 78  2  0  0  0  0
 37 68  1  0  0  0  0
 37 71  1  0  0  0  0
 37 79  2  0  0  0  0
 38 41  1  0  0  0  0
 39 50  1  0  0  0  0
 40 67  1  0  0  0  0
 41 43  1  0  0  0  0
 42 44  1  0  0  0  0
 42 47  1  0  0  0  0
 43 49  1  0  0  0  0
 44 51  1  0  0  0  0
 45 46  1  0  0  0  0
 45 52  1  0  0  0  0
 46 52  1  0  0  0  0
 47 68  1  0  0  0  0
 48 51  1  0  0  0  0
 48 68  1  0  0  0  0
 49 72  1  0  0  0  0
 50 67  1  0  0  0  0
 51 66  1  0  0  0  0
 52 59  1  0  0  0  0
 52 60  1  0  0  0  0
 54 62  1  0  0  0  0
 55 63  1  0  0  0  0
 56 63  1  0  0  0  0
 57 63  1  0  0  0  0
 58 74  1  0  0  0  0
 59 81  1  0  0  0  0
 60 82  1  0  0  0  0
 61 63  1  0  0  0  0
 61 73  1  0  0  0  0
 62 74  1  0  0  0  0
 65 66  1  0  0  0  0
M  CHG  1  74   1
M  ISO  4  37 100  59 101  71 100  81 101
M  END
> <Batch ID>
0149

> <Smiles>
CNC(C)C(=O)NC(C(=O)N1Cc2cc([101O:1][101CH2:1]C3(COc4cc(C)c([100NH:0][100C:0](=O)N5CCCC(n6nc(-c7ccc(Oc8ccc(F)cc8F)cc7)c(C(N)=O)c6N)C5)cn4)CC3)ccc2CC1C(=O)NC1CCCc2ccccc21)C(C)(C)C

> <Shape>
0.217

> <Color>
0.092

> <Negative vol penalty>
0.000

$$$$

  -OEChem-04052321383D

 88 97  0     1  0  0  0  0  0999 V2000
  -29.7088  -11.6556   19.7763 C   0  0  0  0  0  0  0  0  0  0  0  0
  -29.8083  -12.9353   20.3128 C   0  0  0  0  0  0  0  0  0  0  0  0
  -29.8391  -24.6751   18.8431 C   0  0  0  0  0  0  0  0  0  0  0  0
  -29.0494  -24.0703   21.0449 C   0  0  0  0  0  0  0  0  0  0  0  0
  -28.6495  -11.3372   18.9275 C   0  0  0  0  0  0  0  0  0  0  0  0
  -28.8491  -13.8977   20.0000 C   0  0  0  0  0  0  0  0  0  0  0  0
  -25.4793  -19.5486   22.8335 C   0  0  0  0  0  0  0  0  0  0  0  0
  -30.8157  -23.6823   18.9207 C   0  0  0  0  0  0  0  0  0  0  0  0
  -30.0260  -23.0775   21.1225 C   0  0  0  0  0  0  0  0  0  0  0  0
  -25.1974  -20.8854   22.5553 C   0  0  0  0  0  0  0  0  0  0  0  0
  -32.0801  -20.1444   21.7521 C   0  0  0  0  0  0  0  0  0  0  0  0
  -31.6955  -18.8913   22.2287 C   0  0  0  0  0  0  0  0  0  0  0  0
  -23.3677  -20.1989   21.1410 C   0  0  0  0  0  0  0  0  0  0  0  0
  -19.5545  -24.6307   22.6885 C   0  0  0  0  0  0  0  0  0  0  0  0
  -30.1080  -18.6899   20.4187 C   0  0  0  0  0  0  0  0  0  0  0  0
  -28.9559  -24.8692   19.9052 C   0  0  0  0  0  0  0  0  0  0  0  0
  -26.6395  -25.7641   19.3212 C   0  0  0  0  0  0  0  0  0  0  0  0
  -27.6715  -12.2934   18.6118 C   0  0  0  0  0  0  0  0  0  0  0  0
  -24.7131  -18.5249   22.2579 C   0  0  0  0  0  0  0  0  0  0  0  0
  -27.7764  -13.5923   19.1451 C   0  0  0  0  0  0  0  0  0  0  0  0
  -23.6403  -18.8500   21.4155 C   0  0  0  0  0  0  0  0  0  0  0  0
  -18.8593  -26.8804   22.3715 C   0  0  0  0  0  0  0  0  0  0  0  0
  -18.5237  -25.5652   22.6198 C   0  0  0  0  0  0  0  0  0  0  0  0
  -30.9092  -22.8834   20.0603 C   0  0  0  0  0  0  0  0  0  0  0  0
  -24.1433  -21.2106   21.7067 C   0  0  0  0  0  0  0  0  0  0  0  0
  -31.4785  -20.6704   20.6087 C   0  0  0  0  0  0  0  0  0  0  0  0
  -30.7095  -18.1640   21.5620 C   0  0  0  0  0  0  0  0  0  0  0  0
  -30.4925  -19.9431   19.9420 C   0  0  0  0  0  0  0  0  0  0  0  0
  -27.9471  -25.8949   19.8259 C   0  0  0  0  0  0  0  0  0  0  0  0
  -20.1980  -27.2150   22.1891 C   0  0  0  0  0  0  0  0  0  0  0  0
  -20.8658  -25.0647   22.4915 C   0  0  0  0  0  0  0  0  0  0  0  0
  -26.0883  -27.0136   19.4676 C   0  0  0  0  0  0  0  0  0  0  0  0
  -25.9818  -24.6157   18.7694 C   0  0  0  0  0  0  0  0  0  0  0  0
  -25.3204  -16.1050   20.2884 C   0  0  0  0  0  0  0  0  0  0  0  0
  -22.2347  -15.3279   20.9182 C   0  0  0  0  0  0  0  0  0  0  0  0
  -19.1332  -16.3518   21.9076 C   0  0  0  0  0  0  0  0  0  0  0  0
  -25.1897  -31.6115   22.5002 C   0  0  0  0  0  0  0  0  0  0  0  0
  -26.5708  -11.9165   17.6521 C   0  0  0  0  0  0  0  0  0  0  0  0
  -25.0133  -17.0887   22.5892 C   0  0  0  0  0  0  0  0  0  0  0  0
  -17.9723  -28.0707   22.2093 C   0  0  0  0  0  0  0  0  0  0  0  0
  -22.7747  -17.7890   20.7883 C   0  0  0  0  0  0  0  0  0  0  0  0
  -25.3903  -12.8841   17.6687 C   0  0  0  0  0  0  0  0  0  0  0  0
  -18.9853  -29.2162   22.3867 C   0  0  0  0  0  0  0  0  0  0  0  0
  -28.2312  -31.4384   20.6573 C   0  0  0  0  0  0  0  0  0  0  0  0
  -25.8823  -14.3273   17.6226 C   0  0  0  0  0  0  0  0  0  0  0  0
  -28.3234  -29.9694   20.2408 C   0  0  0  0  0  0  0  0  0  0  0  0
  -27.6257  -31.5930   22.0507 C   0  0  0  0  0  0  0  0  0  0  0  0
  -26.4148  -29.4589   21.8205 C   0  0  0  0  0  0  0  0  0  0  0  0
  -26.7420  -14.6564   18.8491 C   0  0  1  0  0  0  0  0  0  0  0  0
  -20.3285  -28.6763   21.8658 C   0  0  1  0  0  0  0  0  0  0  0  0
  -24.4903  -16.1117   21.5407 C   0  0  1  0  0  0  0  0  0  0  0  0
  -26.9675  -29.2555   20.3994 C   0  0  2  0  0  0  0  0  0  0  0  0
  -17.1092  -25.1423   22.8066 C   0  0  0  0  0  0  0  0  0  0  0  0
  -16.8048  -15.4967   22.2885 C   0  0  0  0  0  0  0  0  0  0  0  0
  -22.5570  -31.4754   24.4175 C   0  0  0  0  0  0  0  0  0  0  0  0
  -21.7643  -15.2731   17.9039 C   0  0  0  0  0  0  0  0  0  0  0  0
  -19.3036  -15.3645   18.3565 C   0  0  0  0  0  0  0  0  0  0  0  0
  -20.6480  -13.4262   19.1677 C   0  0  0  0  0  0  0  0  0  0  0  0
  -19.2094  -17.0820   24.7746 C   0  0  0  0  0  0  0  0  0  0  0  0
  -21.5918  -30.8123   22.1493 C   0  0  0  0  0  0  0  0  0  0  0  0
  -24.1731  -23.4704   22.4471 C   0  0  0  0  0  0  0  0  0  1  0  0
  -23.1992  -24.6284   22.3471 C   0  0  0  0  0  0  0  0  0  0  0  0
  -20.8991  -15.6708   20.3038 C   0  0  1  0  0  0  0  0  0  0  0  0
  -18.1588  -15.7787   22.9208 C   0  0  2  0  0  0  0  0  0  0  0  0
  -22.7448  -31.4737   22.9034 C   0  0  2  0  0  0  0  0  0  0  0  0
  -20.6711  -14.9538   18.9431 C   0  0  0  0  0  0  0  0  0  0  0  0
  -28.2110  -27.1301   20.2604 N   0  0  0  0  0  0  0  0  0  0  0  0
  -21.2216  -26.3460   22.2329 N   0  0  0  0  0  0  0  0  0  0  0  0
  -27.0615  -27.7869   20.0289 N   0  0  0  0  0  0  0  0  0  0  0  0
  -23.1121  -16.3992   21.1379 N   0  0  0  0  0  0  0  0  0  0  0  0
  -26.3408  -30.8946   22.1341 N   0  0  0  0  0  0  0  0  0  0  0  0
  -24.8710  -27.5153   19.1696 N   0  0  0  0  0  0  0  0  0  0  0  0
  -26.6935  -23.4107   18.6929 N   0  0  0  0  0  0  0  0  0  0  0  0
  -25.9043  -14.8847   20.0069 N   0  0  0  0  0  0  0  0  0  0  0  0
  -19.8937  -15.3655   21.3159 N   0  0  0  0  0  0  0  0  0  0  0  0
  -24.0124  -30.8751   22.5490 N   0  0  0  0  0  0  0  0  0  0  0  0
  -21.4478  -29.3779   22.5288 N   0  3  0  0  0  0  0  0  0  0  0  0
  -17.9615  -16.7340   24.0475 N   0  3  0  0  0  0  0  0  0  0  0  0
  -24.8036  -24.6611   18.3414 O   0  0  0  0  0  0  0  0  0  0  0  0
  -25.4224  -17.1307   19.6256 O   0  0  0  0  0  0  0  0  0  0  0  0
  -22.4873  -14.1538   21.1996 O   0  0  0  0  0  0  0  0  0  0  0  0
  -19.2091  -17.5537   21.6625 O   0  0  0  0  0  0  0  0  0  0  0  0
  -25.2088  -32.8197   22.7590 O   0  0  0  0  0  0  0  0  0  0  0  0
  -31.8620  -21.9144   20.1363 O   0  0  0  0  0  0  0  0  0  0  0  0
  -23.8663  -22.5145   21.4329 O   0  0  0  0  0  0  0  0  0  1  0  0
  -21.8780  -24.1435   22.5538 O   0  0  0  0  0  0  0  0  0  0  0  0
  -30.3414  -16.9599   22.0190 F   0  0  0  0  0  0  0  0  0  0  0  0
  -29.9119  -20.4427   18.8424 F   0  0  0  0  0  0  0  0  0  0  0  0
  1  2  1  0  0  0  0
  1  5  2  0  0  0  0
  2  6  2  0  0  0  0
  3  8  2  0  0  0  0
  3 16  1  0  0  0  0
  4  9  1  0  0  0  0
  4 16  2  0  0  0  0
  5 18  1  0  0  0  0
  6 20  1  0  0  0  0
  7 10  2  0  0  0  0
  7 19  1  0  0  0  0
  8 24  1  0  0  0  0
  9 24  2  0  0  0  0
 10 25  1  0  0  0  0
 11 12  2  0  0  0  0
 11 26  1  0  0  0  0
 12 27  1  0  0  0  0
 13 21  1  0  0  0  0
 13 25  2  0  0  0  0
 14 23  2  0  0  0  0
 14 31  1  0  0  0  0
 15 27  2  0  0  0  0
 15 28  1  0  0  0  0
 16 29  1  0  0  0  0
 17 29  1  0  0  0  0
 17 32  2  0  0  0  0
 17 33  1  0  0  0  0
 18 20  2  0  0  0  0
 18 38  1  0  0  0  0
 19 21  2  0  0  0  0
 19 39  1  0  0  0  0
 20 49  1  0  0  0  0
 21 41  1  0  0  0  0
 22 23  1  0  0  0  0
 22 30  2  0  0  0  0
 22 40  1  0  0  0  0
 23 53  1  0  0  0  0
 24 84  1  0  0  0  0
 25 85  1  0  0  0  0
 26 28  2  0  0  0  0
 26 84  1  0  0  0  0
 27 87  1  0  0  0  0
 28 88  1  0  0  0  0
 29 67  2  0  0  0  0
 30 50  1  0  0  0  0
 30 68  1  0  0  0  0
 31 68  2  0  0  0  0
 31 86  1  0  0  0  0
 32 69  1  0  0  0  0
 32 72  1  0  0  0  0
 33 73  1  0  0  0  0
 33 79  2  0  0  0  0
 34 51  1  0  0  0  0
 34 74  1  0  0  0  0
 34 80  2  0  0  0  0
 35 63  1  0  0  0  0
 35 70  1  0  0  0  0
 35 81  2  0  0  0  0
 36 64  1  0  0  0  0
 36 75  1  0  0  0  0
 36 82  2  0  0  0  0
 37 71  1  0  0  0  0
 37 76  1  0  0  0  0
 37 83  2  0  0  0  0
 38 42  1  0  0  0  0
 39 51  1  0  0  0  0
 40 43  1  0  0  0  0
 41 70  1  0  0  0  0
 42 45  1  0  0  0  0
 43 50  1  0  0  0  0
 44 46  1  0  0  0  0
 44 47  1  0  0  0  0
 45 49  1  0  0  0  0
 46 52  1  0  0  0  0
 47 71  1  0  0  0  0
 48 52  1  0  0  0  0
 48 71  1  0  0  0  0
 49 74  1  0  0  0  0
 50 77  1  0  0  0  0
 51 70  1  0  0  0  0
 52 69  1  0  0  0  0
 54 64  1  0  0  0  0
 55 65  1  0  0  0  0
 56 66  1  0  0  0  0
 57 66  1  0  0  0  0
 58 66  1  0  0  0  0
 59 78  1  0  0  0  0
 60 65  1  0  0  0  0
 60 77  1  0  0  0  0
 61 62  1  0  0  0  0
 61 85  1  0  0  0  0
 62 86  1  0  0  0  0
 63 66  1  0  0  0  0
 63 75  1  0  0  0  0
 64 78  1  0  0  0  0
 65 76  1  0  0  0  0
 67 69  1  0  0  0  0
M  CHG  2  77   1  78   1
M  ISO  4  37 100  61 101  76 100  85 101
M  END
> <Batch ID>
0149

> <Smiles>
CNC(C)C(=O)NC(C(=O)N1Cc2cc([101O:1][101CH2:1]COc3cc(C)c4c(n3)C(NCC(C)[100NH:0][100C:0](=O)N3CCCC(n5nc(-c6ccc(Oc7ccc(F)cc7F)cc6)c(C(N)=O)c5N)C3)CC4)ccc2CC1C(=O)NC1CCCc2ccccc21)C(C)(C)C

> <Shape>
0.249

> <Color>
0.087

> <Negative vol penalty>
0.000

$$$$

  -OEChem-04052321383D

 86 95  0     1  0  0  0  0  0999 V2000
  -17.8371  -25.1124   21.9041 C   0  0  0  0  0  0  0  0  0  0  0  0
  -19.1682  -25.0653   21.5023 C   0  0  0  0  0  0  0  0  0  0  0  0
  -24.8709  -13.9857   20.0534 C   0  0  0  0  0  0  0  0  0  0  0  0
  -26.6647  -13.9618   21.6716 C   0  0  0  0  0  0  0  0  0  0  0  0
  -17.2162  -26.3433   22.1124 C   0  0  0  0  0  0  0  0  0  0  0  0
  -19.8788  -26.2491   21.3074 C   0  0  0  0  0  0  0  0  0  0  0  0
  -24.5120  -26.0918   23.3454 C   0  0  0  0  0  0  0  0  0  0  0  0
  -24.2149  -12.9817   20.7657 C   0  0  0  0  0  0  0  0  0  0  0  0
  -26.0088  -12.9579   22.3839 C   0  0  0  0  0  0  0  0  0  0  0  0
  -25.4937  -25.3952   22.6420 C   0  0  0  0  0  0  0  0  0  0  0  0
  -24.4447   -9.6291   21.1283 C   0  0  0  0  0  0  0  0  0  0  0  0
  -23.9093   -8.5649   20.4028 C   0  0  0  0  0  0  0  0  0  0  0  0
  -29.6628  -22.9787   21.1352 C   0  0  0  0  0  0  0  0  0  0  0  0
  -26.3467  -27.4802   21.7794 C   0  0  0  0  0  0  0  0  0  0  0  0
  -21.7065   -9.1057   21.2351 C   0  0  0  0  0  0  0  0  0  0  0  0
  -26.0958  -14.4758   20.5063 C   0  0  0  0  0  0  0  0  0  0  0  0
  -26.6390  -16.9033   19.9412 C   0  0  0  0  0  0  0  0  0  0  0  0
  -17.9224  -27.5426   21.9292 C   0  0  0  0  0  0  0  0  0  0  0  0
  -24.4334  -27.4894   23.2623 C   0  0  0  0  0  0  0  0  0  0  0  0
  -19.2664  -27.4972   21.5121 C   0  0  0  0  0  0  0  0  0  0  0  0
  -30.7147  -22.4643   20.3854 C   0  0  0  0  0  0  0  0  0  0  0  0
  -25.3647  -28.1924   22.4847 C   0  0  0  0  0  0  0  0  0  0  0  0
  -28.5165  -23.4341   20.4934 C   0  0  0  0  0  0  0  0  0  0  0  0
  -24.7839  -12.4678   21.9309 C   0  0  0  0  0  0  0  0  0  0  0  0
  -26.4094  -26.0891   21.8566 C   0  0  0  0  0  0  0  0  0  0  0  0
  -23.6110  -10.4316   21.9073 C   0  0  0  0  0  0  0  0  0  0  0  0
  -22.5402   -8.3032   20.4562 C   0  0  0  0  0  0  0  0  0  0  0  0
  -22.2420  -10.1699   21.9607 C   0  0  0  0  0  0  0  0  0  0  0  0
  -26.7741  -15.5125   19.7707 C   0  0  0  0  0  0  0  0  0  0  0  0
  -28.4720  -23.3539   19.1109 C   0  0  0  0  0  0  0  0  0  0  0  0
  -30.5717  -22.4273   19.0077 C   0  0  0  0  0  0  0  0  0  0  0  0
  -27.4883  -17.4476   19.0090 C   0  0  0  0  0  0  0  0  0  0  0  0
  -25.8193  -17.6377   20.8601 C   0  0  0  0  0  0  0  0  0  0  0  0
  -22.2494  -29.5558   22.2309 C   0  0  0  0  0  0  0  0  0  0  0  0
  -24.3167  -31.7454   23.4368 C   0  0  0  0  0  0  0  0  0  0  0  0
  -27.5161  -32.5219   24.3354 C   0  0  0  0  0  0  0  0  0  0  0  0
  -32.4170  -17.5586   16.3934 C   0  0  0  0  0  0  0  0  0  0  0  0
  -17.1950  -28.8499   22.1207 C   0  0  0  0  0  0  0  0  0  0  0  0
  -23.3852  -28.2281   24.0484 C   0  0  0  0  0  0  0  0  0  0  0  0
  -25.3357  -29.6945   22.3781 C   0  0  0  0  0  0  0  0  0  0  0  0
  -18.1268  -30.0515   22.2549 C   0  0  0  0  0  0  0  0  0  0  0  0
  -29.9610  -15.2975   15.1555 C   0  0  0  0  0  0  0  0  0  0  0  0
  -32.4134  -20.5677   20.8227 C   0  0  0  0  0  0  0  0  0  0  0  0
  -31.8144  -20.9259   22.1468 C   0  0  0  0  0  0  0  0  0  0  0  0
  -19.2059  -30.0132   21.1774 C   0  0  0  0  0  0  0  0  0  0  0  0
  -28.9056  -15.2620   16.2623 C   0  0  0  0  0  0  0  0  0  0  0  0
  -31.3729  -15.4138   15.7257 C   0  0  0  0  0  0  0  0  0  0  0  0
  -30.5185  -16.5037   17.7642 C   0  0  0  0  0  0  0  0  0  0  0  0
  -31.9438  -21.9763   21.0751 C   0  0  0  0  0  0  0  0  0  0  0  0
  -20.0778  -28.7592   21.3142 C   0  0  1  0  0  0  0  0  0  0  0  0
  -23.0785  -29.6114   23.4828 C   0  0  1  0  0  0  0  0  0  0  0  0
  -29.0748  -16.4433   17.2365 C   0  0  2  0  0  0  0  0  0  0  0  0
  -27.2658  -23.8282   18.3683 C   0  0  0  0  0  0  0  0  0  0  0  0
  -28.9035  -34.4005   25.2537 C   0  0  0  0  0  0  0  0  0  0  0  0
  -24.2546  -33.1193   20.7131 C   0  0  0  0  0  0  0  0  0  0  0  0
  -26.3197  -34.3706   21.3749 C   0  0  0  0  0  0  0  0  0  0  0  0
  -24.2091  -34.6775   22.6687 C   0  0  0  0  0  0  0  0  0  0  0  0
  -28.2728  -30.9492   26.7256 C   0  0  0  0  0  0  0  0  0  0  0  0
  -27.3779  -23.9904   21.2968 C   0  0  0  0  0  0  0  0  0  1  0  0
  -32.7739  -20.8614   16.3509 C   0  0  0  0  0  0  0  0  0  0  0  0
  -31.4682  -21.4333   16.9020 C   0  0  0  0  0  0  0  0  0  0  0  0
  -33.3520  -19.7181   17.1820 C   0  0  0  0  0  0  0  0  0  0  0  0
  -25.4973  -32.5137   22.8936 C   0  0  1  0  0  0  0  0  0  0  0  0
  -28.0826  -33.1649   25.5884 C   0  0  2  0  0  0  0  0  0  0  0  0
  -25.0698  -33.6418   21.9128 C   0  0  0  0  0  0  0  0  0  0  0  0
  -27.6408  -15.1930   18.8059 N   0  0  0  0  0  0  0  0  0  0  0  0
  -29.4736  -22.8604   18.3488 N   0  0  0  0  0  0  0  0  0  0  0  0
  -28.0580  -16.3909   18.3618 N   0  0  0  0  0  0  0  0  0  0  0  0
  -24.2881  -30.3711   23.1605 N   0  0  0  0  0  0  0  0  0  0  0  0
  -31.4666  -16.5542   16.6402 N   0  0  0  0  0  0  0  0  0  0  0  0
  -27.7959  -18.7223   18.6880 N   0  0  0  0  0  0  0  0  0  0  0  0
  -25.0064  -16.9217   21.7495 N   0  0  0  0  0  0  0  0  0  0  0  0
  -31.6403  -21.9039   18.2375 N   0  0  0  0  0  0  0  0  0  0  0  0
  -21.0319  -28.9219   22.3901 N   0  0  0  0  0  0  0  0  0  0  0  0
  -26.2476  -32.9828   24.0536 N   0  0  0  0  0  0  0  0  0  0  0  0
  -32.4348  -18.6070   17.3052 N   0  0  0  0  0  0  0  0  0  0  0  0
  -28.9577  -32.2018   26.3146 N   0  3  0  0  0  0  0  0  0  0  0  0
  -25.7956  -18.8917   20.8805 O   0  0  0  0  0  0  0  0  0  0  0  0
  -22.6816  -30.0526   21.1975 O   0  0  0  0  0  0  0  0  0  0  0  0
  -23.4554  -32.3414   24.0884 O   0  0  0  0  0  0  0  0  0  0  0  0
  -28.1384  -31.6962   23.6709 O   0  0  0  0  0  0  0  0  0  0  0  0
  -33.1887  -17.5263   15.4289 O   0  0  0  0  0  0  0  0  0  0  0  0
  -24.1440  -11.4883   22.6264 O   0  0  0  0  0  0  0  0  0  0  0  0
  -27.3682  -25.4116   21.1684 O   0  0  0  0  0  0  0  0  0  1  0  0
  -22.0260   -7.2821   19.7582 F   0  0  0  0  0  0  0  0  0  0  0  0
  -21.4359  -10.9381   22.7063 F   0  0  0  0  0  0  0  0  0  0  0  0
  1  2  1  0  0  0  0
  1  5  2  0  0  0  0
  2  6  2  0  0  0  0
  3  8  2  0  0  0  0
  3 16  1  0  0  0  0
  4  9  1  0  0  0  0
  4 16  2  0  0  0  0
  5 18  1  0  0  0  0
  6 20  1  0  0  0  0
  7 10  2  0  0  0  0
  7 19  1  0  0  0  0
  8 24  1  0  0  0  0
  9 24  2  0  0  0  0
 10 25  1  0  0  0  0
 11 12  2  0  0  0  0
 11 26  1  0  0  0  0
 12 27  1  0  0  0  0
 13 21  2  0  0  0  0
 13 23  1  0  0  0  0
 14 22  1  0  0  0  0
 14 25  2  0  0  0  0
 15 27  2  0  0  0  0
 15 28  1  0  0  0  0
 16 29  1  0  0  0  0
 17 29  1  0  0  0  0
 17 32  2  0  0  0  0
 17 33  1  0  0  0  0
 18 20  2  0  0  0  0
 18 38  1  0  0  0  0
 19 22  2  0  0  0  0
 19 39  1  0  0  0  0
 20 50  1  0  0  0  0
 21 31  1  0  0  0  0
 21 49  1  0  0  0  0
 22 40  1  0  0  0  0
 23 30  2  0  0  0  0
 23 59  1  0  0  0  0
 24 83  1  0  0  0  0
 25 84  1  0  0  0  0
 26 28  2  0  0  0  0
 26 83  1  0  0  0  0
 27 85  1  0  0  0  0
 28 86  1  0  0  0  0
 29 66  2  0  0  0  0
 30 53  1  0  0  0  0
 30 67  1  0  0  0  0
 31 67  2  0  0  0  0
 31 73  1  0  0  0  0
 32 68  1  0  0  0  0
 32 71  1  0  0  0  0
 33 72  1  0  0  0  0
 33 78  2  0  0  0  0
 34 51  1  0  0  0  0
 34 74  1  0  0  0  0
 34 79  2  0  0  0  0
 35 63  1  0  0  0  0
 35 69  1  0  0  0  0
 35 80  2  0  0  0  0
 36 64  1  0  0  0  0
 36 75  1  0  0  0  0
 36 81  2  0  0  0  0
 37 70  1  0  0  0  0
 37 76  1  0  0  0  0
 37 82  2  0  0  0  0
 38 41  1  0  0  0  0
 39 51  1  0  0  0  0
 40 69  1  0  0  0  0
 41 45  1  0  0  0  0
 42 46  1  0  0  0  0
 42 47  1  0  0  0  0
 43 44  1  0  0  0  0
 43 49  1  0  0  0  0
 44 49  1  0  0  0  0
 45 50  1  0  0  0  0
 46 52  1  0  0  0  0
 47 70  1  0  0  0  0
 48 52  1  0  0  0  0
 48 70  1  0  0  0  0
 50 74  1  0  0  0  0
 51 69  1  0  0  0  0
 52 68  1  0  0  0  0
 54 64  1  0  0  0  0
 55 65  1  0  0  0  0
 56 65  1  0  0  0  0
 57 65  1  0  0  0  0
 58 77  1  0  0  0  0
 59 84  1  0  0  0  0
 60 61  1  0  0  0  0
 60 62  1  0  0  0  0
 61 73  1  0  0  0  0
 62 76  1  0  0  0  0
 63 65  1  0  0  0  0
 63 75  1  0  0  0  0
 64 77  1  0  0  0  0
 66 68  1  0  0  0  0
M  CHG  1  77   1
M  ISO  4  37 100  59 101  76 100  84 101
M  END
> <Batch ID>
0149

> <Smiles>
CNC(C)C(=O)NC(C(=O)N1Cc2cc([101O:1][101CH2:1]c3cc(C4CC4)c(NCCC[100NH:0][100C:0](=O)N4CCCC(n5nc(-c6ccc(Oc7ccc(F)cc7F)cc6)c(C(N)=O)c5N)C4)nc3C)ccc2CC1C(=O)NC1CCCc2ccccc21)C(C)(C)C

> <Shape>
0.241

> <Color>
0.076

> <Negative vol penalty>
0.000

$$$$

  -OEChem-04052321383D

 89 99  0     1  0  0  0  0  0999 V2000
  -29.6567  -29.4156   26.9109 C   0  0  0  0  0  0  0  0  0  0  0  0
  -29.4417  -28.6766   25.7520 C   0  0  0  0  0  0  0  0  0  0  0  0
  -24.3728   -9.8183   21.4861 C   0  0  0  0  0  0  0  0  0  0  0  0
  -24.7666  -10.9058   23.6073 C   0  0  0  0  0  0  0  0  0  0  0  0
  -28.6096  -29.6239   27.8077 C   0  0  0  0  0  0  0  0  0  0  0  0
  -28.1798  -28.1444   25.4898 C   0  0  0  0  0  0  0  0  0  0  0  0
  -30.1502  -21.2662   20.1372 C   0  0  0  0  0  0  0  0  0  0  0  0
  -26.7341  -28.8483   20.6877 C   0  0  0  0  0  0  0  0  0  0  0  0
  -30.1211  -19.8727   20.1886 C   0  0  0  0  0  0  0  0  0  0  0  0
  -23.9924   -8.6541   22.1535 C   0  0  0  0  0  0  0  0  0  0  0  0
  -24.3862   -9.7415   24.2748 C   0  0  0  0  0  0  0  0  0  0  0  0
  -27.2833  -28.0007   19.7267 C   0  0  0  0  0  0  0  0  0  0  0  0
  -22.5723   -5.5115   23.3036 C   0  0  0  0  0  0  0  0  0  0  0  0
  -21.4260   -4.8535   22.8579 C   0  0  0  0  0  0  0  0  0  0  0  0
  -25.2671  -26.6766   19.7510 C   0  0  0  0  0  0  0  0  0  0  0  0
  -27.8888  -19.9532   21.1090 C   0  0  0  0  0  0  0  0  0  0  0  0
  -20.1127   -6.8278   23.3209 C   0  0  0  0  0  0  0  0  0  0  0  0
  -24.7599  -10.9442   22.2130 C   0  0  0  0  0  0  0  0  0  0  0  0
  -24.3217  -13.2130   21.1322 C   0  0  0  0  0  0  0  0  0  0  0  0
  -27.3318  -29.1022   27.5516 C   0  0  0  0  0  0  0  0  0  0  0  0
  -25.4494  -28.6098   21.1965 C   0  0  0  0  0  0  0  0  0  0  0  0
  -27.1150  -28.3448   26.3846 C   0  0  0  0  0  0  0  0  0  0  0  0
  -29.0486  -22.0034   20.5718 C   0  0  0  0  0  0  0  0  0  0  0  0
  -24.7028  -27.5242   20.7166 C   0  0  0  0  0  0  0  0  0  0  0  0
  -28.9904  -19.2162   20.6744 C   0  0  0  0  0  0  0  0  0  0  0  0
  -27.9179  -21.3469   21.0576 C   0  0  0  0  0  0  0  0  0  0  0  0
  -23.9991   -8.6157   23.5479 C   0  0  0  0  0  0  0  0  0  0  0  0
  -26.5509  -26.9130   19.2603 C   0  0  0  0  0  0  0  0  0  0  0  0
  -22.4888   -6.8277   23.7580 C   0  0  0  0  0  0  0  0  0  0  0  0
  -20.1962   -5.5116   22.8665 C   0  0  0  0  0  0  0  0  0  0  0  0
  -21.2590   -7.4858   23.7666 C   0  0  0  0  0  0  0  0  0  0  0  0
  -25.1534  -12.1469   21.5241 C   0  0  0  0  0  0  0  0  0  0  0  0
  -25.1698  -14.1028   20.5195 C   0  0  0  0  0  0  0  0  0  0  0  0
  -22.9088  -13.3837   21.3065 C   0  0  0  0  0  0  0  0  0  0  0  0
  -24.2611  -27.9530   24.0706 C   0  0  0  0  0  0  0  0  0  0  0  0
  -21.4195  -28.2577   22.5361 C   0  0  0  0  0  0  0  0  0  0  0  0
  -19.6866  -28.1443   19.5982 C   0  0  0  0  0  0  0  0  0  0  0  0
  -29.9691  -16.9198   20.3349 C   0  0  0  0  0  0  0  0  0  0  0  0
  -26.2431  -29.3137   28.5737 C   0  0  0  0  0  0  0  0  0  0  0  0
  -24.8607  -29.5489   22.2133 C   0  0  0  0  0  0  0  0  0  0  0  0
  -23.3113  -27.2362   21.2157 C   0  0  0  0  0  0  0  0  0  0  0  0
  -24.8416  -29.0329   28.0378 C   0  0  0  0  0  0  0  0  0  0  0  0
  -30.0443  -25.3431   21.4348 C   0  0  0  0  0  0  0  0  0  0  0  0
  -29.9923  -13.5921   19.0689 C   0  0  0  0  0  0  0  0  0  0  0  0
  -24.8186  -27.7169   27.2668 C   0  0  0  0  0  0  0  0  0  0  0  0
  -28.6671  -13.0071   19.5625 C   0  0  0  0  0  0  0  0  0  0  0  0
  -28.9466  -24.3646   21.8841 C   0  0  0  0  0  0  0  0  0  0  0  0
  -30.5585  -24.2441   20.4902 C   0  0  0  0  0  0  0  0  0  0  0  0
  -28.5719  -24.0990   17.9271 C   0  0  0  0  0  0  0  0  0  0  0  0
  -30.6160  -14.5322   20.0989 C   0  0  0  0  0  0  0  0  0  0  0  0
  -28.4059  -15.0157   21.0740 C   0  0  0  0  0  0  0  0  0  0  0  0
  -25.7540  -27.7723   26.0529 C   0  0  1  0  0  0  0  0  0  0  0  0
  -23.7449  -28.9142   23.0375 C   0  0  1  0  0  0  0  0  0  0  0  0
  -28.1672  -24.0740   19.3739 C   0  0  2  0  0  0  0  0  0  0  0  0
  -27.7075  -14.1131   20.0439 C   0  0  2  0  0  0  0  0  0  0  0  0
  -28.3207  -25.3883   18.6589 C   0  0  2  0  0  0  0  0  0  1  0  0
  -29.1083  -23.6178   20.5015 C   0  0  0  0  0  0  0  0  0  0  0  0
  -17.3707  -28.3998   18.6661 C   0  0  0  0  0  0  0  0  0  0  0  0
  -24.1059  -23.3563   21.2021 C   0  0  0  0  0  0  0  0  0  0  0  0
  -20.6839  -25.4997   23.6141 C   0  0  0  0  0  0  0  0  0  0  0  0
  -18.8397  -25.4075   21.9234 C   0  0  0  0  0  0  0  0  0  0  0  0
  -18.8289  -27.1755   23.6831 C   0  0  0  0  0  0  0  0  0  0  0  0
  -20.4996  -30.4211   17.8912 C   0  0  0  0  0  0  0  0  0  0  0  0
  -25.6131  -21.4550   22.0072 C   0  0  0  0  0  0  0  0  0  0  0  0
  -20.5005  -27.3194   21.7918 C   0  0  1  0  0  0  0  0  0  0  0  0
  -18.6817  -29.1020   18.9839 C   0  0  2  0  0  0  0  0  0  0  0  0
  -24.5368  -22.4775   22.3687 C   0  0  1  0  0  0  0  0  0  0  0  0
  -19.7402  -26.3546   22.7449 C   0  0  0  0  0  0  0  0  0  0  0  0
  -26.4317  -12.3399   21.1884 N   0  0  0  0  0  0  0  0  0  0  0  0
  -26.4096  -13.5375   20.5790 N   0  0  0  0  0  0  0  0  0  0  0  0
  -22.7820  -28.1797   22.2143 N   0  0  0  0  0  0  0  0  0  0  0  0
  -29.6506  -15.5559   20.5051 N   0  0  0  0  0  0  0  0  0  0  0  0
  -24.9685  -15.3058   19.9410 N   0  0  0  0  0  0  0  0  0  0  0  0
  -22.1890  -12.3726   21.9576 N   0  0  0  0  0  0  0  0  0  0  0  0
  -28.9613  -17.8005   20.7265 N   0  0  0  0  0  0  0  0  0  0  0  0
  -26.7952  -22.0791   21.5010 N   0  0  0  0  0  0  0  0  0  0  0  0
  -25.1398  -28.5179   24.9752 N   0  0  0  0  0  0  0  0  0  0  0  0
  -19.6317  -28.1609   20.9759 N   0  0  0  0  0  0  0  0  0  0  0  0
  -25.0363  -23.3556   23.4635 N   0  3  0  0  0  0  0  0  0  0  0  0
  -19.2227  -29.6810   17.7217 N   0  3  0  0  0  0  0  0  0  0  0  0
  -22.3000  -14.3951   20.8824 O   0  0  0  0  0  0  0  0  0  0  0  0
  -23.8886  -26.7858   24.0495 O   0  0  0  0  0  0  0  0  0  0  0  0
  -20.9451  -29.0363   23.3669 O   0  0  0  0  0  0  0  0  0  0  0  0
  -20.4419  -27.4481   18.9234 O   0  0  0  0  0  0  0  0  0  0  0  0
  -31.0451  -17.2794   19.8503 O   0  0  0  0  0  0  0  0  0  0  0  0
  -23.6278   -7.4798   24.1995 O   0  0  0  0  0  0  0  0  0  0  0  0
  -27.0849  -26.0836   18.3227 O   0  0  0  0  0  0  0  0  0  1  0  0
  -19.0958   -4.8801   22.4370 F   0  0  0  0  0  0  0  0  0  0  0  0
  -21.1727   -8.7506   24.2010 F   0  0  0  0  0  0  0  0  0  0  0  0
  1  2  1  0  0  0  0
  1  5  2  0  0  0  0
  2  6  2  0  0  0  0
  3 10  2  0  0  0  0
  3 18  1  0  0  0  0
  4 11  1  0  0  0  0
  4 18  2  0  0  0  0
  5 20  1  0  0  0  0
  6 22  1  0  0  0  0
  7  9  2  0  0  0  0
  7 23  1  0  0  0  0
  8 12  2  0  0  0  0
  8 21  1  0  0  0  0
  9 25  1  0  0  0  0
 10 27  1  0  0  0  0
 11 27  2  0  0  0  0
 12 28  1  0  0  0  0
 13 14  2  0  0  0  0
 13 29  1  0  0  0  0
 14 30  1  0  0  0  0
 15 24  1  0  0  0  0
 15 28  2  0  0  0  0
 16 25  2  0  0  0  0
 16 26  1  0  0  0  0
 17 30  2  0  0  0  0
 17 31  1  0  0  0  0
 18 32  1  0  0  0  0
 19 32  1  0  0  0  0
 19 33  2  0  0  0  0
 19 34  1  0  0  0  0
 20 22  2  0  0  0  0
 20 39  1  0  0  0  0
 21 24  2  0  0  0  0
 21 40  1  0  0  0  0
 22 52  1  0  0  0  0
 23 26  2  0  0  0  0
 23 57  1  0  0  0  0
 24 41  1  0  0  0  0
 25 75  1  0  0  0  0
 26 76  1  0  0  0  0
 27 86  1  0  0  0  0
 28 87  1  0  0  0  0
 29 31  2  0  0  0  0
 29 86  1  0  0  0  0
 30 88  1  0  0  0  0
 31 89  1  0  0  0  0
 32 69  2  0  0  0  0
 33 70  1  0  0  0  0
 33 73  1  0  0  0  0
 34 74  1  0  0  0  0
 34 81  2  0  0  0  0
 35 53  1  0  0  0  0
 35 77  1  0  0  0  0
 35 82  2  0  0  0  0
 36 65  1  0  0  0  0
 36 71  1  0  0  0  0
 36 83  2  0  0  0  0
 37 66  1  0  0  0  0
 37 78  1  0  0  0  0
 37 84  2  0  0  0  0
 38 72  1  0  0  0  0
 38 75  1  0  0  0  0
 38 85  2  0  0  0  0
 39 42  1  0  0  0  0
 40 53  1  0  0  0  0
 41 71  1  0  0  0  0
 42 45  1  0  0  0  0
 43 47  1  0  0  0  0
 43 48  1  0  0  0  0
 44 46  1  0  0  0  0
 44 50  1  0  0  0  0
 45 52  1  0  0  0  0
 46 55  1  0  0  0  0
 47 57  1  0  0  0  0
 48 57  1  0  0  0  0
 49 54  1  0  0  0  0
 49 56  1  0  0  0  0
 50 72  1  0  0  0  0
 51 55  1  0  0  0  0
 51 72  1  0  0  0  0
 52 77  1  0  0  0  0
 53 71  1  0  0  0  0
 54 56  1  0  0  0  0
 54 57  1  0  0  0  0
 55 70  1  0  0  0  0
 56 87  1  0  0  0  0
 58 66  1  0  0  0  0
 59 67  1  0  0  0  0
 60 68  1  0  0  0  0
 61 68  1  0  0  0  0
 62 68  1  0  0  0  0
 63 80  1  0  0  0  0
 64 67  1  0  0  0  0
 64 76  1  0  0  0  0
 65 68  1  0  0  0  0
 65 78  1  0  0  0  0
 66 80  1  0  0  0  0
 67 79  1  0  0  0  0
 69 70  1  0  0  0  0
M  CHG  2  79   1  80   1
M  ISO  4  38 100  56 101  75 100  87 101
M  END
> <Batch ID>
0149

> <Smiles>
CNC(C)C(=O)NC(C(=O)N1Cc2cc([101O:1][101CH:1]3CC3C3(c4ccc([100NH:0][100C:0](=O)N5CCCC(n6nc(-c7ccc(Oc8ccc(F)cc8F)cc7)c(C(N)=O)c6N)C5)cc4NCC(C)N)CCC3)ccc2CC1C(=O)NC1CCCc2ccccc21)C(C)(C)C

> <Shape>
0.293

> <Color>
0.112

> <Negative vol penalty>
0.000

$$$$

  -OEChem-04052321383D

 91101  0     1  0  0  0  0  0999 V2000
  -28.1578  -35.2951   24.5866 C   0  0  0  0  0  0  0  0  0  0  0  0
  -28.8248  -34.1079   24.3015 C   0  0  0  0  0  0  0  0  0  0  0  0
  -28.3438  -11.7237   18.7435 C   0  0  0  0  0  0  0  0  0  0  0  0
  -28.8018  -12.6723   20.9178 C   0  0  0  0  0  0  0  0  0  0  0  0
  -26.7645  -35.3165   24.6341 C   0  0  0  0  0  0  0  0  0  0  0  0
  -28.0988  -32.9412   24.0648 C   0  0  0  0  0  0  0  0  0  0  0  0
  -28.3301  -26.9070   20.2111 C   0  0  0  0  0  0  0  0  0  0  0  0
  -29.1471  -12.6972   18.1496 C   0  0  0  0  0  0  0  0  0  0  0  0
  -29.6051  -13.6458   20.3240 C   0  0  0  0  0  0  0  0  0  0  0  0
  -28.2358  -25.5248   20.3675 C   0  0  0  0  0  0  0  0  0  0  0  0
  -31.3668  -14.7141   16.0953 C   0  0  0  0  0  0  0  0  0  0  0  0
  -32.2681  -14.3010   15.1142 C   0  0  0  0  0  0  0  0  0  0  0  0
  -27.9738  -20.5473   19.6940 C   0  0  0  0  0  0  0  0  0  0  0  0
  -25.8300  -25.6984   20.3978 C   0  0  0  0  0  0  0  0  0  0  0  0
  -27.1063  -19.4823   22.1222 C   0  0  0  0  0  0  0  0  0  0  0  0
  -33.3514  -12.8550   16.7181 C   0  0  0  0  0  0  0  0  0  0  0  0
  -28.1711  -11.7113   20.1276 C   0  0  0  0  0  0  0  0  0  0  0  0
  -27.7433   -9.4408   21.2092 C   0  0  0  0  0  0  0  0  0  0  0  0
  -26.0208  -34.1516   24.3883 C   0  0  0  0  0  0  0  0  0  0  0  0
  -27.1733  -27.6978   20.1577 C   0  0  0  0  0  0  0  0  0  0  0  0
  -26.6943  -32.9467   24.1103 C   0  0  0  0  0  0  0  0  0  0  0  0
  -27.7003  -19.1837   19.7994 C   0  0  0  0  0  0  0  0  0  0  0  0
  -25.9122  -27.0901   20.2381 C   0  0  0  0  0  0  0  0  0  0  0  0
  -27.8136  -21.3785   20.8027 C   0  0  0  0  0  0  0  0  0  0  0  0
  -27.2665  -18.6511   21.0135 C   0  0  0  0  0  0  0  0  0  0  0  0
  -29.7777  -13.6582   18.9398 C   0  0  0  0  0  0  0  0  0  0  0  0
  -26.9857  -24.9206   20.4638 C   0  0  0  0  0  0  0  0  0  0  0  0
  -31.4579  -14.1976   17.3879 C   0  0  0  0  0  0  0  0  0  0  0  0
  -27.3799  -20.8460   22.0167 C   0  0  0  0  0  0  0  0  0  0  0  0
  -33.2604  -13.3715   15.4255 C   0  0  0  0  0  0  0  0  0  0  0  0
  -32.4501  -13.2681   17.6993 C   0  0  0  0  0  0  0  0  0  0  0  0
  -27.3410  -10.7063   20.7416 C   0  0  0  0  0  0  0  0  0  0  0  0
  -26.5924   -8.8742   21.6997 C   0  0  0  0  0  0  0  0  0  0  0  0
  -29.0414   -8.8321   21.2009 C   0  0  0  0  0  0  0  0  0  0  0  0
  -25.9789  -30.0481   21.9334 C   0  0  0  0  0  0  0  0  0  0  0  0
  -23.7605  -30.1809   19.5705 C   0  0  0  0  0  0  0  0  0  0  0  0
  -22.1282  -28.5816   17.0358 C   0  0  0  0  0  0  0  0  0  0  0  0
  -23.1767  -13.1473   20.9690 C   0  0  0  0  0  0  0  0  0  0  0  0
  -24.5178  -34.2133   24.4973 C   0  0  0  0  0  0  0  0  0  0  0  0
  -27.2914  -29.1844   19.9618 C   0  0  0  0  0  0  0  0  0  0  0  0
  -24.6394  -27.8921   20.1659 C   0  0  0  0  0  0  0  0  0  0  0  0
  -23.8116  -33.0167   23.8653 C   0  0  0  0  0  0  0  0  0  0  0  0
  -22.9288   -9.8417   19.6352 C   0  0  0  0  0  0  0  0  0  0  0  0
  -22.2530  -15.1328   23.8594 C   0  0  0  0  0  0  0  0  0  0  0  0
  -27.7756  -18.9269   17.2299 C   0  0  0  0  0  0  0  0  0  0  0  0
  -26.6887  -18.0238   17.7234 C   0  0  0  0  0  0  0  0  0  0  0  0
  -24.4819  -31.7146   24.2922 C   0  0  0  0  0  0  0  0  0  0  0  0
  -23.3480   -8.9260   20.7799 C   0  0  0  0  0  0  0  0  0  0  0  0
  -23.4124  -15.9779   23.3507 C   0  0  0  0  0  0  0  0  0  0  0  0
  -22.1636  -11.0449   20.1641 C   0  0  0  0  0  0  0  0  0  0  0  0
  -22.6250  -13.7373   23.3829 C   0  0  0  0  0  0  0  0  0  0  0  0
  -23.4467  -10.9874   22.2940 C   0  0  0  0  0  0  0  0  0  0  0  0
  -27.8779  -18.3123   18.6004 C   0  0  0  0  0  0  0  0  0  0  0  0
  -25.9412  -31.6659   23.8234 C   0  0  1  0  0  0  0  0  0  0  0  0
  -26.0597  -29.9494   20.4363 C   0  0  1  0  0  0  0  0  0  0  0  0
  -24.1352   -9.6692   21.8711 C   0  0  2  0  0  0  0  0  0  0  0  0
  -23.7279  -15.3573   21.9870 C   0  0  1  0  0  0  0  0  0  0  0  0
  -25.7210  -23.0624   24.3247 C   0  0  0  0  0  0  0  0  0  0  0  0
  -20.3413  -28.9369   15.3101 C   0  0  0  0  0  0  0  0  0  0  0  0
  -21.6237  -29.9219   21.7331 C   0  0  0  0  0  0  0  0  0  0  0  0
  -19.9794  -29.3318   19.9398 C   0  0  0  0  0  0  0  0  0  0  0  0
  -21.0867  -31.5670   19.9277 C   0  0  0  0  0  0  0  0  0  0  0  0
  -24.0163  -28.0874   14.8110 C   0  0  0  0  0  0  0  0  0  0  0  0
  -26.9656  -17.1879   21.1529 C   0  0  0  0  0  0  0  0  0  0  0  0
  -28.1112  -22.8360   20.6719 C   0  0  0  0  0  0  0  0  0  1  0  0
  -25.2039  -15.4834   21.6322 C   0  0  0  0  0  0  0  0  0  0  0  0
  -25.9122  -21.7070   23.6782 C   0  0  0  0  0  0  0  0  0  0  0  0
  -22.4301  -29.5149   19.3144 C   0  0  1  0  0  0  0  0  0  0  0  0
  -21.8315  -28.9996   15.6069 C   0  0  2  0  0  0  0  0  0  0  0  0
  -21.3038  -30.0688   20.2321 C   0  0  0  0  0  0  0  0  0  0  0  0
  -26.0363  -10.9307   20.9191 N   0  0  0  0  0  0  0  0  0  0  0  0
  -25.6088   -9.7985   21.5035 N   0  0  0  0  0  0  0  0  0  0  0  0
  -24.8074  -29.3429   19.9802 N   0  0  0  0  0  0  0  0  0  0  0  0
  -22.9291  -11.7812   21.1702 N   0  0  0  0  0  0  0  0  0  0  0  0
  -23.2918  -13.9601   22.0990 N   0  0  0  0  0  0  0  0  0  0  0  0
  -26.3357   -7.6804   22.2753 N   0  0  0  0  0  0  0  0  0  0  0  0
  -30.1142   -9.5534   20.6594 N   0  0  0  0  0  0  0  0  0  0  0  0
  -26.0089  -31.3432   22.4143 N   0  0  0  0  0  0  0  0  0  0  0  0
  -22.1663  -29.6653   17.8875 N   0  0  0  0  0  0  0  0  0  0  0  0
  -22.5398  -28.1053   14.6480 N   0  3  0  0  0  0  0  0  0  0  0  0
  -25.5550  -16.9171   21.5509 N   0  3  0  0  0  0  0  0  0  0  0  0
  -29.2408   -7.6760   21.6450 O   0  0  0  0  0  0  0  0  0  0  0  0
  -25.8942  -29.0251   22.6027 O   0  0  0  0  0  0  0  0  0  0  0  0
  -23.8689  -31.3986   19.4060 O   0  0  0  0  0  0  0  0  0  0  0  0
  -22.3045  -27.4105   17.3643 O   0  0  0  0  0  0  0  0  0  0  0  0
  -23.2803  -13.6220   19.8302 O   0  0  0  0  0  0  0  0  0  0  0  0
  -30.5618  -14.6081   18.3607 O   0  0  0  0  0  0  0  0  0  0  0  0
  -26.8902  -23.5623   20.6183 O   0  0  0  0  0  0  0  0  0  1  0  0
  -27.2185  -21.6439   23.1091 O   0  0  0  0  0  0  0  0  0  0  0  0
  -34.1248  -12.9738   14.4828 F   0  0  0  0  0  0  0  0  0  0  0  0
  -32.5418  -12.7675   18.9390 F   0  0  0  0  0  0  0  0  0  0  0  0
  1  2  1  0  0  0  0
  1  5  2  0  0  0  0
  2  6  2  0  0  0  0
  3  8  2  0  0  0  0
  3 17  1  0  0  0  0
  4  9  1  0  0  0  0
  4 17  2  0  0  0  0
  5 19  1  0  0  0  0
  6 21  1  0  0  0  0
  7 10  2  0  0  0  0
  7 20  1  0  0  0  0
  8 26  1  0  0  0  0
  9 26  2  0  0  0  0
 10 27  1  0  0  0  0
 11 12  2  0  0  0  0
 11 28  1  0  0  0  0
 12 30  1  0  0  0  0
 13 22  2  0  0  0  0
 13 24  1  0  0  0  0
 14 23  1  0  0  0  0
 14 27  2  0  0  0  0
 15 25  2  0  0  0  0
 15 29  1  0  0  0  0
 16 30  2  0  0  0  0
 16 31  1  0  0  0  0
 17 32  1  0  0  0  0
 18 32  1  0  0  0  0
 18 33  2  0  0  0  0
 18 34  1  0  0  0  0
 19 21  2  0  0  0  0
 19 39  1  0  0  0  0
 20 23  2  0  0  0  0
 20 40  1  0  0  0  0
 21 54  1  0  0  0  0
 22 25  1  0  0  0  0
 22 53  1  0  0  0  0
 23 41  1  0  0  0  0
 24 29  2  0  0  0  0
 24 65  1  0  0  0  0
 25 64  1  0  0  0  0
 26 87  1  0  0  0  0
 27 88  1  0  0  0  0
 28 31  2  0  0  0  0
 28 87  1  0  0  0  0
 29 89  1  0  0  0  0
 30 90  1  0  0  0  0
 31 91  1  0  0  0  0
 32 71  2  0  0  0  0
 33 72  1  0  0  0  0
 33 76  1  0  0  0  0
 34 77  1  0  0  0  0
 34 82  2  0  0  0  0
 35 55  1  0  0  0  0
 35 78  1  0  0  0  0
 35 83  2  0  0  0  0
 36 68  1  0  0  0  0
 36 73  1  0  0  0  0
 36 84  2  0  0  0  0
 37 69  1  0  0  0  0
 37 79  1  0  0  0  0
 37 85  2  0  0  0  0
 38 74  1  0  0  0  0
 38 75  1  0  0  0  0
 38 86  2  0  0  0  0
 39 42  1  0  0  0  0
 40 55  1  0  0  0  0
 41 73  1  0  0  0  0
 42 47  1  0  0  0  0
 43 48  1  0  0  0  0
 43 50  1  0  0  0  0
 44 49  1  0  0  0  0
 44 51  1  0  0  0  0
 45 46  1  0  0  0  0
 45 53  1  0  0  0  0
 46 53  1  0  0  0  0
 47 54  1  0  0  0  0
 48 56  1  0  0  0  0
 49 57  1  0  0  0  0
 50 74  1  0  0  0  0
 51 75  1  0  0  0  0
 52 56  1  0  0  0  0
 52 74  1  0  0  0  0
 54 78  1  0  0  0  0
 55 73  1  0  0  0  0
 56 72  1  0  0  0  0
 57 66  1  0  0  0  0
 57 75  1  0  0  0  0
 58 67  1  0  0  0  0
 59 69  1  0  0  0  0
 60 70  1  0  0  0  0
 61 70  1  0  0  0  0
 62 70  1  0  0  0  0
 63 80  1  0  0  0  0
 64 81  1  0  0  0  0
 65 88  1  0  0  0  0
 66 81  1  0  0  0  0
 67 89  1  0  0  0  0
 68 70  1  0  0  0  0
 68 79  1  0  0  0  0
 69 80  1  0  0  0  0
 71 72  1  0  0  0  0
M  CHG  2  80   1  81   1
M  ISO  4  38 100  65 101  75 100  88 101
M  END
> <Batch ID>
0149

> <Smiles>
CCOc1cc(CNCC2CCC[100N:0]2[100C:0](=O)N2CCCC(n3nc(-c4ccc(Oc5ccc(F)cc5F)cc4)c(C(N)=O)c3N)C2)c(C2CC2)cc1[101CH2:1][101O:1]c1ccc2c(c1)CN(C(=O)C(NC(=O)C(C)NC)C(C)(C)C)C(C(=O)NC1CCCc3ccccc31)C2

> <Shape>
0.262

> <Color>
0.052

> <Negative vol penalty>
0.000

$$$$

  -OEChem-04052321383D

 89 99  0     1  0  0  0  0  0999 V2000
  -23.7681   -7.9206   21.7663 C   0  0  0  0  0  0  0  0  0  0  0  0
  -24.5666   -9.0239   21.4825 C   0  0  0  0  0  0  0  0  0  0  0  0
  -23.3352  -31.1402   22.6856 C   0  0  0  0  0  0  0  0  0  0  0  0
  -23.6466  -31.6966   25.0159 C   0  0  0  0  0  0  0  0  0  0  0  0
  -22.3797   -8.0322   21.7047 C   0  0  0  0  0  0  0  0  0  0  0  0
  -23.9772  -10.2391   21.1358 C   0  0  0  0  0  0  0  0  0  0  0  0
  -26.0132  -15.8462   22.5217 C   0  0  0  0  0  0  0  0  0  0  0  0
  -21.9643  -31.0012   22.9019 C   0  0  0  0  0  0  0  0  0  0  0  0
  -22.2756  -31.5577   25.2322 C   0  0  0  0  0  0  0  0  0  0  0  0
  -26.7472  -16.7835   21.7961 C   0  0  0  0  0  0  0  0  0  0  0  0
  -19.8696  -28.6864   24.1975 C   0  0  0  0  0  0  0  0  0  0  0  0
  -19.2362  -27.5745   23.6426 C   0  0  0  0  0  0  0  0  0  0  0  0
  -24.6981  -17.8837   21.1559 C   0  0  0  0  0  0  0  0  0  0  0  0
  -30.3038  -22.1360   19.8622 C   0  0  0  0  0  0  0  0  0  0  0  0
  -17.7962  -29.0331   22.3635 C   0  0  0  0  0  0  0  0  0  0  0  0
  -24.1764  -31.4879   23.7426 C   0  0  0  0  0  0  0  0  0  0  0  0
  -26.2808  -32.8017   23.1486 C   0  0  0  0  0  0  0  0  0  0  0  0
  -21.7727   -9.2520   21.3665 C   0  0  0  0  0  0  0  0  0  0  0  0
  -24.6131  -15.9143   22.5609 C   0  0  0  0  0  0  0  0  0  0  0  0
  -22.5794  -10.3667   21.0683 C   0  0  0  0  0  0  0  0  0  0  0  0
  -23.9488  -16.9475   21.8848 C   0  0  0  0  0  0  0  0  0  0  0  0
  -29.1017  -22.7571   19.4885 C   0  0  0  0  0  0  0  0  0  0  0  0
  -28.2351  -20.6477   18.7756 C   0  0  0  0  0  0  0  0  0  0  0  0
  -29.4375  -20.0304   19.1422 C   0  0  0  0  0  0  0  0  0  0  0  0
  -28.0543  -22.0114   18.9437 C   0  0  0  0  0  0  0  0  0  0  0  0
  -21.4345  -31.2100   24.1752 C   0  0  0  0  0  0  0  0  0  0  0  0
  -26.0895  -17.8007   21.1107 C   0  0  0  0  0  0  0  0  0  0  0  0
  -19.4663  -29.9717   23.8354 C   0  0  0  0  0  0  0  0  0  0  0  0
  -30.4765  -20.7604   19.6945 C   0  0  0  0  0  0  0  0  0  0  0  0
  -18.1995  -27.7478   22.7256 C   0  0  0  0  0  0  0  0  0  0  0  0
  -18.4296  -30.1451   22.9185 C   0  0  0  0  0  0  0  0  0  0  0  0
  -25.5927  -31.6310   23.5199 C   0  0  0  0  0  0  0  0  0  0  0  0
  -27.5962  -32.4152   23.0660 C   0  0  0  0  0  0  0  0  0  0  0  0
  -25.7761  -34.1206   22.9006 C   0  0  0  0  0  0  0  0  0  0  0  0
  -22.2476  -14.0025   21.6373 C   0  0  0  0  0  0  0  0  0  0  0  0
  -20.3989  -16.2238   23.1106 C   0  0  0  0  0  0  0  0  0  0  0  0
  -20.0437  -19.4403   24.1943 C   0  0  0  0  0  0  0  0  0  0  0  0
  -30.3387  -27.3318   22.0251 C   0  0  0  0  0  0  0  0  0  0  0  0
  -20.2690   -9.3116   21.2667 C   0  0  0  0  0  0  0  0  0  0  0  0
  -23.8374  -14.9113   23.3701 C   0  0  0  0  0  0  0  0  0  0  0  0
  -29.3781  -18.5554   18.9019 C   0  0  0  0  0  0  0  0  0  0  0  0
  -22.4484  -17.0767   21.9118 C   0  0  0  0  0  0  0  0  0  0  0  0
  -19.7151  -10.7340   21.2567 C   0  0  0  0  0  0  0  0  0  0  0  0
  -28.1949  -18.4593   17.9258 C   0  0  0  0  0  0  0  0  0  0  0  0
  -30.7032  -29.2653   24.8671 C   0  0  0  0  0  0  0  0  0  0  0  0
  -20.5064  -11.6082   20.2891 C   0  0  0  0  0  0  0  0  0  0  0  0
  -29.5051  -30.2131   24.8179 C   0  0  0  0  0  0  0  0  0  0  0  0
  -28.3487  -24.6140   21.0399 C   0  0  0  0  0  0  0  0  0  0  0  0
  -30.3191  -24.9799   19.4929 C   0  0  0  0  0  0  0  0  0  0  0  0
  -30.3023  -27.8567   24.4446 C   0  0  0  0  0  0  0  0  0  0  0  0
  -28.2516  -26.1293   21.2387 C   0  0  0  0  0  0  0  0  0  0  0  0
  -30.1597  -26.4824   19.7067 C   0  0  0  0  0  0  0  0  0  0  0  0
  -28.4753  -28.7313   23.0250 C   0  0  0  0  0  0  0  0  0  0  0  0
  -28.9729  -24.2567   19.6789 C   0  0  0  0  0  0  0  0  0  0  0  0
  -27.2555  -19.6448   18.2352 C   0  0  1  0  0  0  0  0  0  0  0  0
  -21.9768  -11.7086   20.7125 C   0  0  1  0  0  0  0  0  0  0  0  0
  -22.3865  -14.7738   22.9193 C   0  0  1  0  0  0  0  0  0  0  0  0
  -28.8265  -30.1753   23.4371 C   0  0  1  0  0  0  0  0  0  0  0  0
  -26.7975  -22.6968   18.5291 C   0  0  0  0  0  0  0  0  0  0  0  0
  -18.4069  -20.9676   25.3282 C   0  0  0  0  0  0  0  0  0  0  0  0
  -18.7996  -16.4288   20.5202 C   0  0  0  0  0  0  0  0  0  0  0  0
  -17.8341  -18.5776   21.3682 C   0  0  0  0  0  0  0  0  0  0  0  0
  -17.4173  -16.4513   22.6043 C   0  0  0  0  0  0  0  0  0  0  0  0
  -21.8849  -19.9207   26.4611 C   0  0  0  0  0  0  0  0  0  0  0  0
  -32.6514  -21.0022   20.6252 C   0  0  0  0  0  0  0  0  0  0  0  0
  -26.1822  -19.2865   19.2560 C   0  0  0  0  0  0  0  0  0  1  0  0
  -19.7162  -17.5005   22.6830 C   0  0  1  0  0  0  0  0  0  0  0  0
  -19.5729  -20.0104   25.5202 C   0  0  2  0  0  0  0  0  0  0  0  0
  -18.4699  -17.2362   21.7916 C   0  0  0  0  0  0  0  0  0  0  0  0
  -26.4039  -30.5796   23.6631 N   0  0  0  0  0  0  0  0  0  0  0  0
  -27.6153  -31.0882   23.3802 N   0  0  0  0  0  0  0  0  0  0  0  0
  -21.7340  -16.0682   22.7117 N   0  0  0  0  0  0  0  0  0  0  0  0
  -29.6586  -27.8635   23.1311 N   0  0  0  0  0  0  0  0  0  0  0  0
  -29.5547  -26.7678   21.0074 N   0  0  0  0  0  0  0  0  0  0  0  0
  -28.7269  -33.0844   22.7559 N   0  0  0  0  0  0  0  0  0  0  0  0
  -24.3986  -34.3442   23.0305 N   0  0  0  0  0  0  0  0  0  0  0  0
  -22.1238  -12.6375   21.8125 N   0  0  0  0  0  0  0  0  0  0  0  0
  -19.4291  -18.2398   23.9075 N   0  0  0  0  0  0  0  0  0  0  0  0
  -20.6812  -20.7481   26.1896 N   0  3  0  0  0  0  0  0  0  0  0  0
  -26.5223  -35.0687   22.5576 O   0  0  0  0  0  0  0  0  0  0  0  0
  -22.2510  -14.6017   20.5683 O   0  0  0  0  0  0  0  0  0  0  0  0
  -19.7729  -15.3983   23.7802 O   0  0  0  0  0  0  0  0  0  0  0  0
  -20.8709  -20.0055   23.4824 O   0  0  0  0  0  0  0  0  0  0  0  0
  -31.5736  -27.3598   21.9501 O   0  0  0  0  0  0  0  0  0  0  0  0
  -20.0967  -31.0747   24.3866 O   0  0  0  0  0  0  0  0  0  0  0  0
  -31.6389  -20.1649   20.0649 O   0  0  0  0  0  0  0  0  0  0  0  0
  -26.8098  -18.7246   20.3949 O   0  0  0  0  0  0  0  0  0  1  0  0
  -17.5923  -26.6799   22.1917 F   0  0  0  0  0  0  0  0  0  0  0  0
  -18.0386  -31.3774   22.5659 F   0  0  0  0  0  0  0  0  0  0  0  0
  1  2  1  0  0  0  0
  1  5  2  0  0  0  0
  2  6  2  0  0  0  0
  3  8  2  0  0  0  0
  3 16  1  0  0  0  0
  4  9  1  0  0  0  0
  4 16  2  0  0  0  0
  5 18  1  0  0  0  0
  6 20  1  0  0  0  0
  7 10  2  0  0  0  0
  7 19  1  0  0  0  0
  8 26  1  0  0  0  0
  9 26  2  0  0  0  0
 10 27  1  0  0  0  0
 11 12  2  0  0  0  0
 11 28  1  0  0  0  0
 12 30  1  0  0  0  0
 13 21  1  0  0  0  0
 13 27  2  0  0  0  0
 14 22  1  0  0  0  0
 14 29  2  0  0  0  0
 15 30  2  0  0  0  0
 15 31  1  0  0  0  0
 16 32  1  0  0  0  0
 17 32  1  0  0  0  0
 17 33  2  0  0  0  0
 17 34  1  0  0  0  0
 18 20  2  0  0  0  0
 18 39  1  0  0  0  0
 19 21  2  0  0  0  0
 19 40  1  0  0  0  0
 20 56  1  0  0  0  0
 21 42  1  0  0  0  0
 22 25  2  0  0  0  0
 22 54  1  0  0  0  0
 23 24  2  0  0  0  0
 23 25  1  0  0  0  0
 23 55  1  0  0  0  0
 24 29  1  0  0  0  0
 24 41  1  0  0  0  0
 25 59  1  0  0  0  0
 26 85  1  0  0  0  0
 27 87  1  0  0  0  0
 28 31  2  0  0  0  0
 28 85  1  0  0  0  0
 29 86  1  0  0  0  0
 30 88  1  0  0  0  0
 31 89  1  0  0  0  0
 32 70  2  0  0  0  0
 33 71  1  0  0  0  0
 33 75  1  0  0  0  0
 34 76  1  0  0  0  0
 34 80  2  0  0  0  0
 35 57  1  0  0  0  0
 35 77  1  0  0  0  0
 35 81  2  0  0  0  0
 36 67  1  0  0  0  0
 36 72  1  0  0  0  0
 36 82  2  0  0  0  0
 37 68  1  0  0  0  0
 37 78  1  0  0  0  0
 37 83  2  0  0  0  0
 38 73  1  0  0  0  0
 38 74  1  0  0  0  0
 38 84  2  0  0  0  0
 39 43  1  0  0  0  0
 40 57  1  0  0  0  0
 41 44  1  0  0  0  0
 42 72  1  0  0  0  0
 43 46  1  0  0  0  0
 44 55  1  0  0  0  0
 45 47  1  0  0  0  0
 45 50  1  0  0  0  0
 46 56  1  0  0  0  0
 47 58  1  0  0  0  0
 48 51  1  0  0  0  0
 48 54  1  0  0  0  0
 49 52  1  0  0  0  0
 49 54  1  0  0  0  0
 50 73  1  0  0  0  0
 51 74  1  0  0  0  0
 52 74  1  0  0  0  0
 53 58  1  0  0  0  0
 53 73  1  0  0  0  0
 55 66  1  0  0  0  0
 56 77  1  0  0  0  0
 57 72  1  0  0  0  0
 58 71  1  0  0  0  0
 60 68  1  0  0  0  0
 61 69  1  0  0  0  0
 62 69  1  0  0  0  0
 63 69  1  0  0  0  0
 64 79  1  0  0  0  0
 65 86  1  0  0  0  0
 66 87  1  0  0  0  0
 67 69  1  0  0  0  0
 67 78  1  0  0  0  0
 68 79  1  0  0  0  0
 70 71  1  0  0  0  0
M  CHG  1  79   1
M  ISO  4  38 100  66 101  74 100  87 101
M  END
> <Batch ID>
0149

> <Smiles>
CNC(C)C(=O)NC(C(=O)N1Cc2cc([101O:1][101CH2:1]C3CCc4c(OC)cc(C5CC[100N:0]([100C:0](=O)N6CCCC(n7nc(-c8ccc(Oc9ccc(F)cc9F)cc8)c(C(N)=O)c7N)C6)CC5)c(C)c43)ccc2CC1C(=O)NC1CCCc2ccccc21)C(C)(C)C

> <Shape>
0.232

> <Color>
0.082

> <Negative vol penalty>
0.000

$$$$

  -OEChem-04052321383D

 83 92  0     1  0  0  0  0  0999 V2000
  -28.0860  -27.7674   12.2049 C   0  0  0  0  0  0  0  0  0  0  0  0
  -27.9176  -26.7897   13.1802 C   0  0  0  0  0  0  0  0  0  0  0  0
  -22.4001  -10.5901   20.6606 C   0  0  0  0  0  0  0  0  0  0  0  0
  -23.8179  -10.1392   22.5642 C   0  0  0  0  0  0  0  0  0  0  0  0
  -28.3288  -29.0886   12.5785 C   0  0  0  0  0  0  0  0  0  0  0  0
  -27.9930  -27.1325   14.5298 C   0  0  0  0  0  0  0  0  0  0  0  0
  -24.7756  -24.6910   19.1334 C   0  0  0  0  0  0  0  0  0  0  0  0
  -21.5278   -9.5823   21.0716 C   0  0  0  0  0  0  0  0  0  0  0  0
  -22.9455   -9.1314   22.9752 C   0  0  0  0  0  0  0  0  0  0  0  0
  -25.0824  -23.7099   20.0753 C   0  0  0  0  0  0  0  0  0  0  0  0
  -21.2804   -6.1985   24.3300 C   0  0  0  0  0  0  0  0  0  0  0  0
  -21.8365   -4.9864   24.7387 C   0  0  0  0  0  0  0  0  0  0  0  0
  -25.6953  -25.4268   21.6551 C   0  0  0  0  0  0  0  0  0  0  0  0
  -22.8352   -4.7087   22.5563 C   0  0  0  0  0  0  0  0  0  0  0  0
  -23.5453  -10.8685   21.4069 C   0  0  0  0  0  0  0  0  0  0  0  0
  -24.1505  -13.2750   20.8153 C   0  0  0  0  0  0  0  0  0  0  0  0
  -28.3976  -29.4494   13.9334 C   0  0  0  0  0  0  0  0  0  0  0  0
  -24.9371  -26.0494   19.4421 C   0  0  0  0  0  0  0  0  0  0  0  0
  -28.2383  -28.4594   14.9218 C   0  0  0  0  0  0  0  0  0  0  0  0
  -25.3875  -26.4232   20.7163 C   0  0  0  0  0  0  0  0  0  0  0  0
  -21.8004   -8.8530   22.2289 C   0  0  0  0  0  0  0  0  0  0  0  0
  -25.5450  -24.0776   21.3353 C   0  0  0  0  0  0  0  0  0  0  0  0
  -21.5015   -6.6657   23.0344 C   0  0  0  0  0  0  0  0  0  0  0  0
  -22.6140   -4.2415   23.8519 C   0  0  0  0  0  0  0  0  0  0  0  0
  -22.2789   -5.9208   22.1476 C   0  0  0  0  0  0  0  0  0  0  0  0
  -24.4471  -11.9091   20.9826 C   0  0  0  0  0  0  0  0  0  0  0  0
  -25.3347  -13.8355   20.4030 C   0  0  0  0  0  0  0  0  0  0  0  0
  -22.9151  -13.9747   21.0148 C   0  0  0  0  0  0  0  0  0  0  0  0
  -26.7210  -28.4148   18.2906 C   0  0  0  0  0  0  0  0  0  0  0  0
  -24.9850  -30.2101   20.3608 C   0  0  0  0  0  0  0  0  0  0  0  0
  -23.1032  -30.3460   23.2046 C   0  0  0  0  0  0  0  0  0  0  0  0
  -30.7692  -14.4454   20.6582 C   0  0  0  0  0  0  0  0  0  0  0  0
  -28.7091  -30.8818   14.2883 C   0  0  0  0  0  0  0  0  0  0  0  0
  -24.5763  -27.0963   18.4242 C   0  0  0  0  0  0  0  0  0  0  0  0
  -25.5588  -27.8684   21.1043 C   0  0  0  0  0  0  0  0  0  0  0  0
  -28.4016  -31.2298   15.7424 C   0  0  0  0  0  0  0  0  0  0  0  0
  -29.6516  -11.6966   18.8837 C   0  0  0  0  0  0  0  0  0  0  0  0
  -28.9464  -30.1531   16.6756 C   0  0  0  0  0  0  0  0  0  0  0  0
  -28.1698  -11.6075   19.2481 C   0  0  0  0  0  0  0  0  0  0  0  0
  -29.3984  -17.8770   20.9256 C   0  0  0  0  0  0  0  0  0  0  0  0
  -28.6430  -16.5370   22.9213 C   0  0  0  0  0  0  0  0  0  0  0  0
  -28.5293  -22.0657   23.1073 C   0  0  0  0  0  0  0  0  0  0  0  0
  -30.4940  -12.0472   20.1049 C   0  0  0  0  0  0  0  0  0  0  0  0
  -30.5572  -16.9026   20.7334 C   0  0  0  0  0  0  0  0  0  0  0  0
  -29.8183  -15.5918   22.6950 C   0  0  0  0  0  0  0  0  0  0  0  0
  -28.5966  -13.2372   21.1535 C   0  0  0  0  0  0  0  0  0  0  0  0
  -29.2642  -20.7200   23.0094 C   0  0  0  0  0  0  0  0  0  0  0  0
  -28.2884  -28.7964   16.3963 C   0  0  1  0  0  0  0  0  0  0  0  0
  -25.2677  -28.4335   18.6716 C   0  0  1  0  0  0  0  0  0  0  0  0
  -28.9505  -17.9441   22.3914 C   0  0  0  0  0  0  0  0  0  0  0  0
  -27.6954  -12.8919   19.9508 C   0  0  2  0  0  0  0  0  0  0  0  0
  -27.2566  -21.2585   22.7757 C   0  0  1  0  0  0  0  0  0  0  0  0
  -21.8522  -31.9596   24.6636 C   0  0  0  0  0  0  0  0  0  0  0  0
  -26.5844  -18.4356   21.6608 C   0  0  0  0  0  0  0  0  0  0  0  0
  -27.6270  -31.2198   21.5054 C   0  0  0  0  0  0  0  0  0  0  0  0
  -26.3659  -32.0424   23.5056 C   0  0  0  0  0  0  0  0  0  0  0  0
  -25.8637  -32.9743   21.2469 C   0  0  0  0  0  0  0  0  0  0  0  0
  -20.5355  -28.9464   22.7496 C   0  0  0  0  0  0  0  0  0  0  0  0
  -26.3049  -21.8654   21.7650 C   0  0  0  0  0  0  0  0  0  1  0  0
  -25.1341  -30.6191   21.8063 C   0  0  1  0  0  0  0  0  0  0  0  0
  -21.7603  -30.9921   23.4939 C   0  0  2  0  0  0  0  0  0  0  0  0
  -27.7395  -18.8605   22.5489 C   0  0  2  0  0  0  0  0  0  0  0  0
  -26.2464  -31.6865   22.0084 C   0  0  0  0  0  0  0  0  0  0  0  0
  -25.7199  -11.6194   20.6995 N   0  0  0  0  0  0  0  0  0  0  0  0
  -26.2335  -12.8111   20.3501 N   0  0  0  0  0  0  0  0  0  0  0  0
  -25.1988  -28.8547   20.0723 N   0  0  0  0  0  0  0  0  0  0  0  0
  -30.0092  -13.2693   20.7461 N   0  0  0  0  0  0  0  0  0  0  0  0
  -30.2478  -15.5864   21.2902 N   0  0  0  0  0  0  0  0  0  0  0  0
  -25.6845  -15.0998   20.0841 N   0  0  0  0  0  0  0  0  0  0  0  0
  -22.6483  -14.5116   22.2816 N   0  0  0  0  0  0  0  0  0  0  0  0
  -26.9614  -28.7503   16.9719 N   0  0  0  0  0  0  0  0  0  0  0  0
  -23.8105  -31.0442   22.2488 N   0  0  0  0  0  0  0  0  0  0  0  0
  -28.1461  -20.2336   22.1754 N   0  3  2  0  0  0  0  0  0  0  0  0
  -20.7452  -29.9518   23.8230 N   0  3  0  0  0  0  0  0  0  0  0  0
  -22.0653  -14.1053   20.1013 O   0  0  0  0  0  0  0  0  0  0  0  0
  -27.5622  -28.1193   19.1313 O   0  0  0  0  0  0  0  0  0  0  0  0
  -24.6828  -31.0603   19.5198 O   0  0  0  0  0  0  0  0  0  0  0  0
  -23.4880  -29.3263   23.7725 O   0  0  0  0  0  0  0  0  0  0  0  0
  -31.8458  -14.4782   20.0491 O   0  0  0  0  0  0  0  0  0  0  0  0
  -20.9493   -7.8697   22.6303 O   0  0  0  0  0  0  0  0  0  0  0  0
  -25.8480  -23.1149   22.2632 O   0  0  0  0  0  0  0  0  0  1  0  0
  -23.1493   -3.0783   24.2450 F   0  0  0  0  0  0  0  0  0  0  0  0
  -22.4959   -6.3651   20.9020 F   0  0  0  0  0  0  0  0  0  0  0  0
  1  2  1  0  0  0  0
  1  5  2  0  0  0  0
  2  6  2  0  0  0  0
  3  8  2  0  0  0  0
  3 15  1  0  0  0  0
  4  9  1  0  0  0  0
  4 15  2  0  0  0  0
  5 17  1  0  0  0  0
  6 19  1  0  0  0  0
  7 10  2  0  0  0  0
  7 18  1  0  0  0  0
  8 21  1  0  0  0  0
  9 21  2  0  0  0  0
 10 22  1  0  0  0  0
 11 12  2  0  0  0  0
 11 23  1  0  0  0  0
 12 24  1  0  0  0  0
 13 20  1  0  0  0  0
 13 22  2  0  0  0  0
 14 24  2  0  0  0  0
 14 25  1  0  0  0  0
 15 26  1  0  0  0  0
 16 26  1  0  0  0  0
 16 27  2  0  0  0  0
 16 28  1  0  0  0  0
 17 19  2  0  0  0  0
 17 33  1  0  0  0  0
 18 20  2  0  0  0  0
 18 34  1  0  0  0  0
 19 48  1  0  0  0  0
 20 35  1  0  0  0  0
 21 80  1  0  0  0  0
 22 81  1  0  0  0  0
 23 25  2  0  0  0  0
 23 80  1  0  0  0  0
 24 82  1  0  0  0  0
 25 83  1  0  0  0  0
 26 64  2  0  0  0  0
 27 65  1  0  0  0  0
 27 69  1  0  0  0  0
 28 70  1  0  0  0  0
 28 75  2  0  0  0  0
 29 49  1  0  0  0  0
 29 71  1  0  0  0  0
 29 76  2  0  0  0  0
 30 60  1  0  0  0  0
 30 66  1  0  0  0  0
 30 77  2  0  0  0  0
 31 61  1  0  0  0  0
 31 72  1  0  0  0  0
 31 78  2  0  0  0  0
 32 67  1  0  0  0  0
 32 68  1  0  0  0  0
 32 79  2  0  0  0  0
 33 36  1  0  0  0  0
 34 49  1  0  0  0  0
 35 66  1  0  0  0  0
 36 38  1  0  0  0  0
 37 39  1  0  0  0  0
 37 43  1  0  0  0  0
 38 48  1  0  0  0  0
 39 51  1  0  0  0  0
 40 44  1  0  0  0  0
 40 50  1  0  0  0  0
 41 45  1  0  0  0  0
 41 50  1  0  0  0  0
 42 47  1  0  0  0  0
 42 52  1  0  0  0  0
 43 67  1  0  0  0  0
 44 68  1  0  0  0  0
 45 68  1  0  0  0  0
 46 51  1  0  0  0  0
 46 67  1  0  0  0  0
 47 73  1  0  0  0  0
 48 71  1  0  0  0  0
 49 66  1  0  0  0  0
 50 62  1  0  0  0  0
 51 65  1  0  0  0  0
 52 59  1  0  0  0  0
 52 73  1  0  0  0  0
 53 61  1  0  0  0  0
 54 62  1  0  0  0  0
 55 63  1  0  0  0  0
 56 63  1  0  0  0  0
 57 63  1  0  0  0  0
 58 74  1  0  0  0  0
 59 81  1  0  0  0  0
 60 63  1  0  0  0  0
 60 72  1  0  0  0  0
 61 74  1  0  0  0  0
 62 73  1  0  0  0  0
 64 65  1  0  0  0  0
M  CHG  2  73   1  74   1
M  ISO  4  32 100  59 101  68 100  81 101
M  END
> <Batch ID>
0149

> <Smiles>
CNC(C)C(=O)NC(C(=O)N1Cc2cc([101O:1][101CH2:1]C3CCN3C(C)C3CC[100N:0]([100C:0](=O)N4CCCC(n5nc(-c6ccc(Oc7ccc(F)cc7F)cc6)c(C(N)=O)c5N)C4)CC3)ccc2CC1C(=O)NC1CCCc2ccccc21)C(C)(C)C

> <Shape>
0.289

> <Color>
0.166

> <Negative vol penalty>
0.000

$$$$

  -OEChem-04052321383D

 87 97  0     1  0  0  0  0  0999 V2000
  -17.0160  -30.3475   23.2440 C   0  0  0  0  0  0  0  0  0  0  0  0
  -18.0416  -30.6051   24.1480 C   0  0  0  0  0  0  0  0  0  0  0  0
  -27.7256  -19.4225   19.3035 C   0  0  0  0  0  0  0  0  0  0  0  0
  -29.5917  -18.4690   20.5058 C   0  0  0  0  0  0  0  0  0  0  0  0
  -17.0983  -29.2457   22.3936 C   0  0  0  0  0  0  0  0  0  0  0  0
  -19.1496  -29.7603   24.2029 C   0  0  0  0  0  0  0  0  0  0  0  0
  -26.1962  -29.8709   25.4872 C   0  0  0  0  0  0  0  0  0  0  0  0
  -27.5185  -18.2035   18.6581 C   0  0  0  0  0  0  0  0  0  0  0  0
  -29.3845  -17.2499   19.8604 C   0  0  0  0  0  0  0  0  0  0  0  0
  -27.1579  -29.2372   26.2729 C   0  0  0  0  0  0  0  0  0  0  0  0
  -27.2862  -14.6148   20.1318 C   0  0  0  0  0  0  0  0  0  0  0  0
  -27.3245  -13.4571   20.9089 C   0  0  0  0  0  0  0  0  0  0  0  0
  -27.2289  -27.4090   24.7007 C   0  0  0  0  0  0  0  0  0  0  0  0
  -33.9427  -27.8131   27.0526 C   0  0  0  0  0  0  0  0  0  0  0  0
  -32.8908  -25.9191   26.0083 C   0  0  0  0  0  0  0  0  0  0  0  0
  -29.1602  -12.6240   19.5772 C   0  0  0  0  0  0  0  0  0  0  0  0
  -28.7623  -19.5554   20.2273 C   0  0  0  0  0  0  0  0  0  0  0  0
  -28.4108  -21.2399   22.1105 C   0  0  0  0  0  0  0  0  0  0  0  0
  -18.2124  -28.3925   22.4314 C   0  0  0  0  0  0  0  0  0  0  0  0
  -25.7349  -29.2723   24.3060 C   0  0  0  0  0  0  0  0  0  0  0  0
  -19.2462  -28.6453   23.3531 C   0  0  0  0  0  0  0  0  0  0  0  0
  -26.2632  -28.0384   23.9005 C   0  0  0  0  0  0  0  0  0  0  0  0
  -33.2344  -26.6213   27.1582 C   0  0  0  0  0  0  0  0  0  0  0  0
  -28.3479  -17.1171   18.9366 C   0  0  0  0  0  0  0  0  0  0  0  0
  -27.6723  -28.0047   25.8812 C   0  0  0  0  0  0  0  0  0  0  0  0
  -28.1848  -14.7771   19.0773 C   0  0  0  0  0  0  0  0  0  0  0  0
  -28.2616  -12.4618   20.6317 C   0  0  0  0  0  0  0  0  0  0  0  0
  -29.1218  -13.7817   18.8001 C   0  0  0  0  0  0  0  0  0  0  0  0
  -28.9771  -20.8146   20.8939 C   0  0  0  0  0  0  0  0  0  0  0  0
  -34.2809  -28.2564   25.7842 C   0  0  0  0  0  0  0  0  0  0  0  0
  -33.2759  -26.4473   24.7866 C   0  0  0  0  0  0  0  0  0  0  0  0
  -28.9269  -22.4973   22.3084 C   0  0  0  0  0  0  0  0  0  0  0  0
  -27.4998  -20.5592   22.9837 C   0  0  0  0  0  0  0  0  0  0  0  0
  -22.9165  -28.2258   23.2741 C   0  0  0  0  0  0  0  0  0  0  0  0
  -24.5351  -27.7833   20.4980 C   0  0  0  0  0  0  0  0  0  0  0  0
  -27.5294  -27.2873   18.9376 C   0  0  0  0  0  0  0  0  0  0  0  0
  -33.2015  -26.0652   22.2977 C   0  0  0  0  0  0  0  0  0  0  0  0
  -18.2346  -27.1870   21.5253 C   0  0  0  0  0  0  0  0  0  0  0  0
  -24.7167  -29.9814   23.4558 C   0  0  0  0  0  0  0  0  0  0  0  0
  -25.8162  -27.3632   22.6306 C   0  0  0  0  0  0  0  0  0  0  0  0
  -19.6169  -26.5543   21.3871 C   0  0  0  0  0  0  0  0  0  0  0  0
  -31.5437  -25.5114   19.1957 C   0  0  0  0  0  0  0  0  0  0  0  0
  -20.2734  -26.4017   22.7555 C   0  0  0  0  0  0  0  0  0  0  0  0
  -30.6816  -24.2751   19.4611 C   0  0  0  0  0  0  0  0  0  0  0  0
  -33.9533  -25.7889   29.4890 C   0  0  0  0  0  0  0  0  0  0  0  0
  -33.2126  -24.6647   28.8352 C   0  0  0  0  0  0  0  0  0  0  0  0
  -28.7065  -26.2661   30.2379 C   0  0  0  0  0  0  0  0  0  0  0  0
  -28.0737  -25.3748   29.2068 C   0  0  0  0  0  0  0  0  0  0  0  0
  -32.8886  -25.4302   19.9157 C   0  0  0  0  0  0  0  0  0  0  0  0
  -31.9439  -23.9256   21.6225 C   0  0  0  0  0  0  0  0  0  0  0  0
  -20.4759  -27.7661   23.4255 C   0  0  1  0  0  0  0  0  0  0  0  0
  -23.9438  -29.0389   22.5384 C   0  0  1  0  0  0  0  0  0  0  0  0
  -30.5531  -23.9911   20.9705 C   0  0  2  0  0  0  0  0  0  0  0  0
  -32.8455  -26.0987   28.4982 C   0  0  0  0  0  0  0  0  0  0  0  0
  -29.0675  -26.4282   28.7813 C   0  0  0  0  0  0  0  0  0  0  0  0
  -35.0416  -29.5314   25.6331 C   0  0  0  0  0  0  0  0  0  0  0  0
  -28.5302  -26.9238   16.6652 C   0  0  0  0  0  0  0  0  0  0  0  0
  -23.5442  -24.8975   20.5260 C   0  0  0  0  0  0  0  0  0  0  0  0
  -25.2955  -24.3531   18.8216 C   0  0  0  0  0  0  0  0  0  0  0  0
  -23.4975  -25.9949   18.2792 C   0  0  0  0  0  0  0  0  0  0  0  0
  -29.1571  -29.7514   19.1325 C   0  0  0  0  0  0  0  0  0  0  0  0
  -31.5423  -26.6408   29.0433 C   0  0  0  0  0  0  0  0  0  0  0  0
  -28.5676  -27.6275   28.0520 C   0  0  0  0  0  0  0  0  0  1  0  0
  -25.3299  -26.6515   19.8926 C   0  0  1  0  0  0  0  0  0  0  0  0
  -28.1542  -27.9497   17.7229 C   0  0  2  0  0  0  0  0  0  0  0  0
  -24.4240  -25.4858   19.4048 C   0  0  0  0  0  0  0  0  0  0  0  0
  -29.7905  -21.7277   20.3566 N   0  0  0  0  0  0  0  0  0  0  0  0
  -33.9646  -27.6019   24.6444 N   0  0  0  0  0  0  0  0  0  0  0  0
  -29.7390  -22.7394   21.2398 N   0  0  0  0  0  0  0  0  0  0  0  0
  -24.8142  -28.0933   21.8366 N   0  0  0  0  0  0  0  0  0  0  0  0
  -32.6881  -25.1634   21.3417 N   0  0  0  0  0  0  0  0  0  0  0  0
  -28.7606  -23.4084   23.2906 N   0  0  0  0  0  0  0  0  0  0  0  0
  -27.0698  -19.2731   22.6296 N   0  0  0  0  0  0  0  0  0  0  0  0
  -32.9209  -25.7248   23.6205 N   0  0  0  0  0  0  0  0  0  0  0  0
  -21.6186  -28.4454   22.8536 N   0  0  0  0  0  0  0  0  0  0  0  0
  -26.1542  -27.2458   18.8459 N   0  0  0  0  0  0  0  0  0  0  0  0
  -30.4046  -25.9399   28.3828 N   0  3  0  0  0  0  0  0  0  0  0  0
  -29.3847  -28.6938   18.1143 N   0  3  0  0  0  0  0  0  0  0  0  0
  -27.0668  -21.0827   24.0382 O   0  0  0  0  0  0  0  0  0  0  0  0
  -23.2749  -27.4551   24.1568 O   0  0  0  0  0  0  0  0  0  0  0  0
  -23.7026  -28.3752   19.8065 O   0  0  0  0  0  0  0  0  0  0  0  0
  -28.1950  -26.8471   19.8723 O   0  0  0  0  0  0  0  0  0  0  0  0
  -33.8195  -27.0802   21.9661 O   0  0  0  0  0  0  0  0  0  0  0  0
  -28.1459  -15.9273   18.3072 O   0  0  0  0  0  0  0  0  0  0  0  0
  -28.6106  -27.3837   26.6466 O   0  0  0  0  0  0  0  0  0  1  0  0
  -28.2993  -11.3508   21.3790 F   0  0  0  0  0  0  0  0  0  0  0  0
  -29.9884  -13.9325   17.7891 F   0  0  0  0  0  0  0  0  0  0  0  0
  1  2  1  0  0  0  0
  1  5  2  0  0  0  0
  2  6  2  0  0  0  0
  3  8  2  0  0  0  0
  3 17  1  0  0  0  0
  4  9  1  0  0  0  0
  4 17  2  0  0  0  0
  5 19  1  0  0  0  0
  6 21  1  0  0  0  0
  7 10  2  0  0  0  0
  7 20  1  0  0  0  0
  8 24  1  0  0  0  0
  9 24  2  0  0  0  0
 10 25  1  0  0  0  0
 11 12  2  0  0  0  0
 11 26  1  0  0  0  0
 12 27  1  0  0  0  0
 13 22  1  0  0  0  0
 13 25  2  0  0  0  0
 14 23  1  0  0  0  0
 14 30  2  0  0  0  0
 15 23  2  0  0  0  0
 15 31  1  0  0  0  0
 16 27  2  0  0  0  0
 16 28  1  0  0  0  0
 17 29  1  0  0  0  0
 18 29  1  0  0  0  0
 18 32  2  0  0  0  0
 18 33  1  0  0  0  0
 19 21  2  0  0  0  0
 19 38  1  0  0  0  0
 20 22  2  0  0  0  0
 20 39  1  0  0  0  0
 21 51  1  0  0  0  0
 22 40  1  0  0  0  0
 23 54  1  0  0  0  0
 24 84  1  0  0  0  0
 25 85  1  0  0  0  0
 26 28  2  0  0  0  0
 26 84  1  0  0  0  0
 27 86  1  0  0  0  0
 28 87  1  0  0  0  0
 29 67  2  0  0  0  0
 30 56  1  0  0  0  0
 30 68  1  0  0  0  0
 31 68  2  0  0  0  0
 31 74  1  0  0  0  0
 32 69  1  0  0  0  0
 32 72  1  0  0  0  0
 33 73  1  0  0  0  0
 33 79  2  0  0  0  0
 34 52  1  0  0  0  0
 34 75  1  0  0  0  0
 34 80  2  0  0  0  0
 35 64  1  0  0  0  0
 35 70  1  0  0  0  0
 35 81  2  0  0  0  0
 36 65  1  0  0  0  0
 36 76  1  0  0  0  0
 36 82  2  0  0  0  0
 37 71  1  0  0  0  0
 37 74  1  0  0  0  0
 37 83  2  0  0  0  0
 38 41  1  0  0  0  0
 39 52  1  0  0  0  0
 40 70  1  0  0  0  0
 41 43  1  0  0  0  0
 42 44  1  0  0  0  0
 42 49  1  0  0  0  0
 43 51  1  0  0  0  0
 44 53  1  0  0  0  0
 45 46  1  0  0  0  0
 45 54  1  0  0  0  0
 46 54  1  0  0  0  0
 47 48  1  0  0  0  0
 47 55  1  0  0  0  0
 48 55  1  0  0  0  0
 49 71  1  0  0  0  0
 50 53  1  0  0  0  0
 50 71  1  0  0  0  0
 51 75  1  0  0  0  0
 52 70  1  0  0  0  0
 53 69  1  0  0  0  0
 54 62  1  0  0  0  0
 55 63  1  0  0  0  0
 55 77  1  0  0  0  0
 57 65  1  0  0  0  0
 58 66  1  0  0  0  0
 59 66  1  0  0  0  0
 60 66  1  0  0  0  0
 61 78  1  0  0  0  0
 62 77  1  0  0  0  0
 63 85  1  0  0  0  0
 64 66  1  0  0  0  0
 64 76  1  0  0  0  0
 65 78  1  0  0  0  0
 67 69  1  0  0  0  0
M  CHG  2  77   1  78   1
M  ISO  4  37 100  63 101  74 100  85 101
M  END
> <Batch ID>
0149

> <Smiles>
CNC(C)C(=O)NC(C(=O)N1Cc2cc([101O:1][101CH2:1]C3(NCC4(c5cc(C)nc([100NH:0][100C:0](=O)N6CCCC(n7nc(-c8ccc(Oc9ccc(F)cc9F)cc8)c(C(N)=O)c7N)C6)c5)CC4)CC3)ccc2CC1C(=O)NC1CCCc2ccccc21)C(C)(C)C

> <Shape>
0.229

> <Color>
0.067

> <Negative vol penalty>
0.000

$$$$

  -OEChem-04052321383D

 87 97  0     1  0  0  0  0  0999 V2000
  -27.0719  -37.6666   24.1883 C   0  0  0  0  0  0  0  0  0  0  0  0
  -27.7704  -36.6691   23.5155 C   0  0  0  0  0  0  0  0  0  0  0  0
  -23.6445  -10.4796   22.4190 C   0  0  0  0  0  0  0  0  0  0  0  0
  -24.4810   -8.6116   21.1353 C   0  0  0  0  0  0  0  0  0  0  0  0
  -25.9422  -37.3408   24.9377 C   0  0  0  0  0  0  0  0  0  0  0  0
  -27.3402  -35.3450   23.5928 C   0  0  0  0  0  0  0  0  0  0  0  0
  -27.0624  -29.3298   19.7124 C   0  0  0  0  0  0  0  0  0  0  0  0
  -22.5035   -9.7458   22.7434 C   0  0  0  0  0  0  0  0  0  0  0  0
  -23.3401   -7.8777   21.4597 C   0  0  0  0  0  0  0  0  0  0  0  0
  -27.4065  -27.9810   19.7903 C   0  0  0  0  0  0  0  0  0  0  0  0
  -20.8150   -5.3830   22.2464 C   0  0  0  0  0  0  0  0  0  0  0  0
  -20.9871   -4.0570   22.6435 C   0  0  0  0  0  0  0  0  0  0  0  0
  -28.0856  -23.0553   18.9735 C   0  0  0  0  0  0  0  0  0  0  0  0
  -25.3957  -27.5471   21.0503 C   0  0  0  0  0  0  0  0  0  0  0  0
  -28.7004  -23.3673   21.2890 C   0  0  0  0  0  0  0  0  0  0  0  0
  -22.3503   -4.7896   24.4989 C   0  0  0  0  0  0  0  0  0  0  0  0
  -24.6332   -9.9126   21.6149 C   0  0  0  0  0  0  0  0  0  0  0  0
  -27.0229  -10.7205   21.9948 C   0  0  0  0  0  0  0  0  0  0  0  0
  -25.4924  -36.0134   25.0163 C   0  0  0  0  0  0  0  0  0  0  0  0
  -25.8859  -29.8001   20.3133 C   0  0  0  0  0  0  0  0  0  0  0  0
  -26.2042  -35.0009   24.3451 C   0  0  0  0  0  0  0  0  0  0  0  0
  -28.2568  -21.6781   19.1135 C   0  0  0  0  0  0  0  0  0  0  0  0
  -25.0377  -28.9019   20.9764 C   0  0  0  0  0  0  0  0  0  0  0  0
  -28.6498  -21.1455   20.3414 C   0  0  0  0  0  0  0  0  0  0  0  0
  -28.3075  -23.8999   20.0612 C   0  0  0  0  0  0  0  0  0  0  0  0
  -28.8716  -21.9900   21.4291 C   0  0  0  0  0  0  0  0  0  0  0  0
  -22.3513   -8.4448   22.2638 C   0  0  0  0  0  0  0  0  0  0  0  0
  -26.5746  -27.0899   20.4618 C   0  0  0  0  0  0  0  0  0  0  0  0
  -21.4106   -6.4124   22.9754 C   0  0  0  0  0  0  0  0  0  0  0  0
  -21.7547   -3.7603   23.7698 C   0  0  0  0  0  0  0  0  0  0  0  0
  -22.1782   -6.1156   24.1017 C   0  0  0  0  0  0  0  0  0  0  0  0
  -25.8118  -10.6703   21.2789 C   0  0  0  0  0  0  0  0  0  0  0  0
  -27.8163  -11.5742   21.2680 C   0  0  0  0  0  0  0  0  0  0  0  0
  -27.3973  -10.0548   23.2083 C   0  0  0  0  0  0  0  0  0  0  0  0
  -25.2237  -31.8834   22.6209 C   0  0  0  0  0  0  0  0  0  0  0  0
  -22.1591  -31.3053   21.7285 C   0  0  0  0  0  0  0  0  0  0  0  0
  -19.9189  -29.1902   20.2607 C   0  0  0  0  0  0  0  0  0  0  0  0
  -28.6561  -16.1460   18.3672 C   0  0  0  0  0  0  0  0  0  0  0  0
  -24.2936  -35.7029   25.8773 C   0  0  0  0  0  0  0  0  0  0  0  0
  -25.5155  -31.2533   20.1973 C   0  0  0  0  0  0  0  0  0  0  0  0
  -23.7533  -29.3527   21.6209 C   0  0  0  0  0  0  0  0  0  0  0  0
  -23.6859  -34.3297   25.6029 C   0  0  0  0  0  0  0  0  0  0  0  0
  -27.2049  -13.5217   16.6480 C   0  0  0  0  0  0  0  0  0  0  0  0
  -28.3621  -21.2996   16.5602 C   0  0  0  0  0  0  0  0  0  0  0  0
  -26.9263  -21.1606   16.9594 C   0  0  0  0  0  0  0  0  0  0  0  0
  -24.7780  -33.2673   25.5310 C   0  0  0  0  0  0  0  0  0  0  0  0
  -26.8085  -12.5400   17.7505 C   0  0  0  0  0  0  0  0  0  0  0  0
  -27.5258  -18.8757   20.2616 C   0  0  0  0  0  0  0  0  0  0  0  0
  -29.9541  -19.1086   19.5844 C   0  0  0  0  0  0  0  0  0  0  0  0
  -26.9155  -14.9585   17.0668 C   0  0  0  0  0  0  0  0  0  0  0  0
  -27.7287  -17.3630   20.3870 C   0  0  0  0  0  0  0  0  0  0  0  0
  -30.1060  -17.5994   19.7506 C   0  0  0  0  0  0  0  0  0  0  0  0
  -27.1907  -14.3868   19.4575 C   0  0  0  0  0  0  0  0  0  0  0  0
  -28.0131  -20.7947   17.9347 C   0  0  0  0  0  0  0  0  0  0  0  0
  -28.8366  -19.6479   20.4957 C   0  0  0  0  0  0  0  0  0  0  0  0
  -25.7544  -33.5565   24.3844 C   0  0  1  0  0  0  0  0  0  0  0  0
  -24.5525  -31.7133   21.2874 C   0  0  1  0  0  0  0  0  0  0  0  0
  -27.4690  -12.9154   19.0889 C   0  0  1  0  0  0  0  0  0  0  0  0
  -29.2932  -21.4451   22.7543 C   0  0  0  0  0  0  0  0  0  0  0  0
  -17.4793  -28.9756   19.7130 C   0  0  0  0  0  0  0  0  0  0  0  0
  -21.5628  -30.6562   24.6497 C   0  0  0  0  0  0  0  0  0  0  0  0
  -19.4404  -29.5600   23.9004 C   0  0  0  0  0  0  0  0  0  0  0  0
  -19.7938  -31.9961   23.4967 C   0  0  0  0  0  0  0  0  0  0  0  0
  -20.4649  -29.0453   17.3555 C   0  0  0  0  0  0  0  0  0  0  0  0
  -28.1248  -25.3724   19.9115 C   0  0  0  0  0  0  0  0  0  1  0  0
  -21.0969  -30.3120   22.1337 C   0  0  1  0  0  0  0  0  0  0  0  0
  -18.8434  -29.4288   19.2163 C   0  0  2  0  0  0  0  0  0  0  0  0
  -20.4986  -30.6226   23.5348 C   0  0  0  0  0  0  0  0  0  0  0  0
  -25.8295  -11.4317   20.1817 N   0  0  0  0  0  0  0  0  0  0  0  0
  -27.0614  -11.9684   20.2027 N   0  0  0  0  0  0  0  0  0  0  0  0
  -23.4380  -30.7845   21.4857 N   0  0  0  0  0  0  0  0  0  0  0  0
  -27.5565  -15.2748   18.3430 N   0  0  0  0  0  0  0  0  0  0  0  0
  -28.8331  -16.9144   19.5277 N   0  0  0  0  0  0  0  0  0  0  0  0
  -29.0790  -12.0186   21.4427 N   0  0  0  0  0  0  0  0  0  0  0  0
  -26.4615   -9.2131   23.8247 N   0  0  0  0  0  0  0  0  0  0  0  0
  -25.1726  -33.1724   23.1161 N   0  0  0  0  0  0  0  0  0  0  0  0
  -20.1157  -30.3006   21.0541 N   0  0  0  0  0  0  0  0  0  0  0  0
  -19.1603  -28.6818   17.9663 N   0  3  0  0  0  0  0  0  0  0  0  0
  -28.5224  -10.2149   23.7392 O   0  0  0  0  0  0  0  0  0  0  0  0
  -25.7478  -30.9164   23.1612 O   0  0  0  0  0  0  0  0  0  0  0  0
  -21.8632  -32.4982   21.6242 O   0  0  0  0  0  0  0  0  0  0  0  0
  -20.5214  -28.1240   20.3648 O   0  0  0  0  0  0  0  0  0  0  0  0
  -29.4346  -16.2321   17.4093 O   0  0  0  0  0  0  0  0  0  0  0  0
  -21.2382   -7.7283   22.5803 O   0  0  0  0  0  0  0  0  0  0  0  0
  -26.9106  -25.7639   20.5404 O   0  0  0  0  0  0  0  0  0  1  0  0
  -21.9186   -2.4870   24.1520 F   0  0  0  0  0  0  0  0  0  0  0  0
  -22.7519   -7.1003   24.8068 F   0  0  0  0  0  0  0  0  0  0  0  0
  1  2  1  0  0  0  0
  1  5  2  0  0  0  0
  2  6  2  0  0  0  0
  3  8  2  0  0  0  0
  3 17  1  0  0  0  0
  4  9  1  0  0  0  0
  4 17  2  0  0  0  0
  5 19  1  0  0  0  0
  6 21  1  0  0  0  0
  7 10  2  0  0  0  0
  7 20  1  0  0  0  0
  8 27  1  0  0  0  0
  9 27  2  0  0  0  0
 10 28  1  0  0  0  0
 11 12  2  0  0  0  0
 11 29  1  0  0  0  0
 12 30  1  0  0  0  0
 13 22  1  0  0  0  0
 13 25  2  0  0  0  0
 14 23  1  0  0  0  0
 14 28  2  0  0  0  0
 15 25  1  0  0  0  0
 15 26  2  0  0  0  0
 16 30  2  0  0  0  0
 16 31  1  0  0  0  0
 17 32  1  0  0  0  0
 18 32  1  0  0  0  0
 18 33  2  0  0  0  0
 18 34  1  0  0  0  0
 19 21  2  0  0  0  0
 19 39  1  0  0  0  0
 20 23  2  0  0  0  0
 20 40  1  0  0  0  0
 21 56  1  0  0  0  0
 22 24  2  0  0  0  0
 22 54  1  0  0  0  0
 23 41  1  0  0  0  0
 24 26  1  0  0  0  0
 24 55  1  0  0  0  0
 25 65  1  0  0  0  0
 26 59  1  0  0  0  0
 27 84  1  0  0  0  0
 28 85  1  0  0  0  0
 29 31  2  0  0  0  0
 29 84  1  0  0  0  0
 30 86  1  0  0  0  0
 31 87  1  0  0  0  0
 32 69  2  0  0  0  0
 33 70  1  0  0  0  0
 33 74  1  0  0  0  0
 34 75  1  0  0  0  0
 34 79  2  0  0  0  0
 35 57  1  0  0  0  0
 35 76  1  0  0  0  0
 35 80  2  0  0  0  0
 36 66  1  0  0  0  0
 36 71  1  0  0  0  0
 36 81  2  0  0  0  0
 37 67  1  0  0  0  0
 37 77  1  0  0  0  0
 37 82  2  0  0  0  0
 38 72  1  0  0  0  0
 38 73  1  0  0  0  0
 38 83  2  0  0  0  0
 39 42  1  0  0  0  0
 40 57  1  0  0  0  0
 41 71  1  0  0  0  0
 42 46  1  0  0  0  0
 43 47  1  0  0  0  0
 43 50  1  0  0  0  0
 44 45  1  0  0  0  0
 44 54  1  0  0  0  0
 45 54  1  0  0  0  0
 46 56  1  0  0  0  0
 47 58  1  0  0  0  0
 48 51  1  0  0  0  0
 48 55  1  0  0  0  0
 49 52  1  0  0  0  0
 49 55  1  0  0  0  0
 50 72  1  0  0  0  0
 51 73  1  0  0  0  0
 52 73  1  0  0  0  0
 53 58  1  0  0  0  0
 53 72  1  0  0  0  0
 56 76  1  0  0  0  0
 57 71  1  0  0  0  0
 58 70  1  0  0  0  0
 60 67  1  0  0  0  0
 61 68  1  0  0  0  0
 62 68  1  0  0  0  0
 63 68  1  0  0  0  0
 64 78  1  0  0  0  0
 65 85  1  0  0  0  0
 66 68  1  0  0  0  0
 66 77  1  0  0  0  0
 67 78  1  0  0  0  0
 69 70  1  0  0  0  0
M  CHG  1  78   1
M  ISO  4  38 100  65 101  73 100  85 101
M  END
> <Batch ID>
0149

> <Smiles>
CNC(C)C(=O)NC(C(=O)N1Cc2cc([101O:1][101CH2:1]c3cc(C)c(C4CC[100N:0]([100C:0](=O)N5CCCC(n6nc(-c7ccc(Oc8ccc(F)cc8F)cc7)c(C(N)=O)c6N)C5)CC4)c(C4CC4)c3)ccc2CC1C(=O)NC1CCCc2ccccc21)C(C)(C)C

> <Shape>
0.326

> <Color>
0.089

> <Negative vol penalty>
0.000

$$$$

  -OEChem-04052321383D

 86 95  0     1  0  0  0  0  0999 V2000
  -28.0372  -34.2950   23.5511 C   0  0  0  0  0  0  0  0  0  0  0  0
  -28.2235  -32.9290   23.3649 C   0  0  0  0  0  0  0  0  0  0  0  0
  -23.1741  -10.9350   21.9129 C   0  0  0  0  0  0  0  0  0  0  0  0
  -22.8755  -13.3275   21.7585 C   0  0  0  0  0  0  0  0  0  0  0  0
  -26.7751  -34.7864   23.8823 C   0  0  0  0  0  0  0  0  0  0  0  0
  -27.1481  -32.0534   23.5109 C   0  0  0  0  0  0  0  0  0  0  0  0
  -26.9310  -28.6083   19.8056 C   0  0  0  0  0  0  0  0  0  0  0  0
  -22.2137  -10.8803   22.9229 C   0  0  0  0  0  0  0  0  0  0  0  0
  -21.9150  -13.2728   22.7685 C   0  0  0  0  0  0  0  0  0  0  0  0
  -27.8108  -27.5298   19.8867 C   0  0  0  0  0  0  0  0  0  0  0  0
  -18.6542  -12.4346   23.0597 C   0  0  0  0  0  0  0  0  0  0  0  0
  -17.4761  -13.1572   22.8714 C   0  0  0  0  0  0  0  0  0  0  0  0
  -29.2425  -18.3579   19.8544 C   0  0  0  0  0  0  0  0  0  0  0  0
  -26.0344  -26.1547   20.7657 C   0  0  0  0  0  0  0  0  0  0  0  0
  -17.9436  -14.4389   24.8654 C   0  0  0  0  0  0  0  0  0  0  0  0
  -31.0432  -19.8930   19.6141 C   0  0  0  0  0  0  0  0  0  0  0  0
  -31.5148  -17.6559   19.8401 C   0  0  0  0  0  0  0  0  0  0  0  0
  -23.5051  -12.1587   21.3307 C   0  0  0  0  0  0  0  0  0  0  0  0
  -24.2817  -12.0997   18.9015 C   0  0  0  0  0  0  0  0  0  0  0  0
  -25.6816  -33.9175   24.0229 C   0  0  0  0  0  0  0  0  0  0  0  0
  -25.5969  -28.4709   20.2150 C   0  0  0  0  0  0  0  0  0  0  0  0
  -25.8706  -32.5336   23.8456 C   0  0  0  0  0  0  0  0  0  0  0  0
  -29.6782  -19.6684   19.6934 C   0  0  0  0  0  0  0  0  0  0  0  0
  -25.1391  -27.2323   20.6865 C   0  0  0  0  0  0  0  0  0  0  0  0
  -30.1720  -17.3265   19.9301 C   0  0  0  0  0  0  0  0  0  0  0  0
  -21.5841  -12.0492   23.3507 C   0  0  0  0  0  0  0  0  0  0  0  0
  -27.3633  -26.3035   20.3695 C   0  0  0  0  0  0  0  0  0  0  0  0
  -19.4769  -12.7140   24.1509 C   0  0  0  0  0  0  0  0  0  0  0  0
  -17.1208  -14.1594   23.7742 C   0  0  0  0  0  0  0  0  0  0  0  0
  -19.1217  -13.7161   25.0537 C   0  0  0  0  0  0  0  0  0  0  0  0
  -24.4976  -12.2159   20.2878 C   0  0  0  0  0  0  0  0  0  0  0  0
  -25.5328  -12.2209   18.3478 C   0  0  0  0  0  0  0  0  0  0  0  0
  -23.0596  -11.9001   18.1789 C   0  0  0  0  0  0  0  0  0  0  0  0
  -23.7889  -29.8146   22.4576 C   0  0  0  0  0  0  0  0  0  0  0  0
  -21.4309  -28.1031   21.0317 C   0  0  0  0  0  0  0  0  0  0  0  0
  -20.5516  -25.4175   19.1182 C   0  0  0  0  0  0  0  0  0  0  0  0
  -30.5728  -14.8526   20.1859 C   0  0  0  0  0  0  0  0  0  0  0  0
  -24.3466  -34.4903   24.4283 C   0  0  0  0  0  0  0  0  0  0  0  0
  -24.6537  -29.6365   20.0962 C   0  0  0  0  0  0  0  0  0  0  0  0
  -23.7112  -27.0271   21.1195 C   0  0  0  0  0  0  0  0  0  0  0  0
  -23.1784  -33.5354   24.1966 C   0  0  0  0  0  0  0  0  0  0  0  0
  -30.1531  -11.4237   19.3236 C   0  0  0  0  0  0  0  0  0  0  0  0
  -23.5175  -32.1414   24.7147 C   0  0  0  0  0  0  0  0  0  0  0  0
  -28.6352  -11.2287   19.3409 C   0  0  0  0  0  0  0  0  0  0  0  0
  -30.6146  -12.3793   20.4224 C   0  0  0  0  0  0  0  0  0  0  0  0
  -28.4127  -13.4835   20.4603 C   0  0  0  0  0  0  0  0  0  0  0  0
  -28.7123  -20.7906   19.6080 C   0  0  2  0  0  0  0  0  0  0  0  0
  -24.7233  -31.5546   23.9708 C   0  0  1  0  0  0  0  0  0  0  0  0
  -23.4472  -29.5258   21.0232 C   0  0  1  0  0  0  0  0  0  0  0  0
  -27.6253  -20.7495   18.5539 C   0  0  2  0  0  0  0  0  0  0  0  0
  -27.8933  -12.5796   19.3304 C   0  0  2  0  0  0  0  0  0  0  0  0
  -28.7635  -21.7209   18.4122 C   0  0  1  0  0  0  0  0  0  0  0  0
  -18.5459  -24.2585   18.1532 C   0  0  0  0  0  0  0  0  0  0  0  0
  -25.4504  -21.5891   17.6219 C   0  0  0  0  0  0  0  0  0  0  0  0
  -25.4619  -20.1407   19.6727 C   0  0  0  0  0  0  0  0  0  0  0  0
  -20.7804  -26.9465   23.7793 C   0  0  0  0  0  0  0  0  0  0  0  0
  -19.4665  -25.1489   22.6345 C   0  0  0  0  0  0  0  0  0  0  0  0
  -18.7821  -27.5358   22.3958 C   0  0  0  0  0  0  0  0  0  0  0  0
  -21.4988  -25.8363   16.3458 C   0  0  0  0  0  0  0  0  0  0  0  0
  -29.2796  -25.1989   19.4956 C   0  0  0  0  0  0  0  0  0  1  0  0
  -29.6310  -23.7493   19.2220 C   0  0  0  0  0  0  0  0  0  0  0  0
  -20.8590  -26.7173   21.2088 C   0  0  1  0  0  0  0  0  0  0  0  0
  -19.6331  -25.2950   17.9158 C   0  0  2  0  0  0  0  0  0  0  0  0
  -26.2454  -21.2068   18.8844 C   0  0  0  0  0  0  0  0  0  0  0  0
  -19.9995  -26.5912   22.4983 C   0  0  0  0  0  0  0  0  0  0  0  0
  -31.9760  -18.9170   19.6836 N   0  0  0  0  0  0  0  0  0  0  0  0
  -25.7846  -12.3969   20.5958 N   0  0  0  0  0  0  0  0  0  0  0  0
  -26.3887  -12.3953   19.3953 N   0  0  0  0  0  0  0  0  0  0  0  0
  -22.8291  -28.1987   20.9903 N   0  0  0  0  0  0  0  0  0  0  0  0
  -29.8715  -13.6390   20.3477 N   0  0  0  0  0  0  0  0  0  0  0  0
  -25.9733  -12.1943   17.0720 N   0  0  0  0  0  0  0  0  0  0  0  0
  -21.8642  -11.7969   18.9034 N   0  0  0  0  0  0  0  0  0  0  0  0
  -29.7588  -15.9812   20.0948 N   0  0  0  0  0  0  0  0  0  0  0  0
  -24.3257  -31.0707   22.6661 N   0  0  0  0  0  0  0  0  0  0  0  0
  -20.1376  -26.4130   19.9778 N   0  0  0  0  0  0  0  0  0  0  0  0
  -20.4102  -24.8931   16.7093 N   0  3  0  0  0  0  0  0  0  0  0  0
  -23.0304  -11.7993   16.9289 O   0  0  0  0  0  0  0  0  0  0  0  0
  -23.5795  -28.9615   23.3121 O   0  0  0  0  0  0  0  0  0  0  0  0
  -20.6651  -29.0644   20.9266 O   0  0  0  0  0  0  0  0  0  0  0  0
  -21.5357  -24.6994   19.2807 O   0  0  0  0  0  0  0  0  0  0  0  0
  -31.8034  -14.8851   20.1047 O   0  0  0  0  0  0  0  0  0  0  0  0
  -20.6466  -11.9961   24.3360 O   0  0  0  0  0  0  0  0  0  0  0  0
  -28.2201  -25.2493   20.4502 O   0  0  0  0  0  0  0  0  0  1  0  0
  -28.4921  -23.0889   18.6835 O   0  0  0  0  0  0  0  0  0  0  0  0
  -15.9902  -14.8543   23.5924 F   0  0  0  0  0  0  0  0  0  0  0  0
  -19.9087  -13.9899   26.1032 F   0  0  0  0  0  0  0  0  0  0  0  0
  1  2  1  0  0  0  0
  1  5  2  0  0  0  0
  2  6  2  0  0  0  0
  3  8  2  0  0  0  0
  3 18  1  0  0  0  0
  4  9  1  0  0  0  0
  4 18  2  0  0  0  0
  5 20  1  0  0  0  0
  6 22  1  0  0  0  0
  7 10  2  0  0  0  0
  7 21  1  0  0  0  0
  8 26  1  0  0  0  0
  9 26  2  0  0  0  0
 10 27  1  0  0  0  0
 11 12  2  0  0  0  0
 11 28  1  0  0  0  0
 12 29  1  0  0  0  0
 13 23  2  0  0  0  0
 13 25  1  0  0  0  0
 14 24  1  0  0  0  0
 14 27  2  0  0  0  0
 15 29  2  0  0  0  0
 15 30  1  0  0  0  0
 16 23  1  0  0  0  0
 16 66  2  0  0  0  0
 17 25  2  0  0  0  0
 17 66  1  0  0  0  0
 18 31  1  0  0  0  0
 19 31  1  0  0  0  0
 19 32  2  0  0  0  0
 19 33  1  0  0  0  0
 20 22  2  0  0  0  0
 20 38  1  0  0  0  0
 21 24  2  0  0  0  0
 21 39  1  0  0  0  0
 22 48  1  0  0  0  0
 23 47  1  0  0  0  0
 24 40  1  0  0  0  0
 25 73  1  0  0  0  0
 26 82  1  0  0  0  0
 27 83  1  0  0  0  0
 28 30  2  0  0  0  0
 28 82  1  0  0  0  0
 29 85  1  0  0  0  0
 30 86  1  0  0  0  0
 31 67  2  0  0  0  0
 32 68  1  0  0  0  0
 32 71  1  0  0  0  0
 33 72  1  0  0  0  0
 33 77  2  0  0  0  0
 34 49  1  0  0  0  0
 34 74  1  0  0  0  0
 34 78  2  0  0  0  0
 35 62  1  0  0  0  0
 35 69  1  0  0  0  0
 35 79  2  0  0  0  0
 36 63  1  0  0  0  0
 36 75  1  0  0  0  0
 36 80  2  0  0  0  0
 37 70  1  0  0  0  0
 37 73  1  0  0  0  0
 37 81  2  0  0  0  0
 38 41  1  0  0  0  0
 39 49  1  0  0  0  0
 40 69  1  0  0  0  0
 41 43  1  0  0  0  0
 42 44  1  0  0  0  0
 42 45  1  0  0  0  0
 43 48  1  0  0  0  0
 44 51  1  0  0  0  0
 45 70  1  0  0  0  0
 46 51  1  0  0  0  0
 46 70  1  0  0  0  0
 47 50  1  0  0  0  0
 47 52  1  0  0  0  0
 48 74  1  0  0  0  0
 49 69  1  0  0  0  0
 50 52  1  0  0  0  0
 50 64  1  0  0  0  0
 51 68  1  0  0  0  0
 52 84  1  0  0  0  0
 53 63  1  0  0  0  0
 54 64  1  0  0  0  0
 55 64  1  0  0  0  0
 56 65  1  0  0  0  0
 57 65  1  0  0  0  0
 58 65  1  0  0  0  0
 59 76  1  0  0  0  0
 60 61  1  0  0  0  0
 60 83  1  0  0  0  0
 61 84  1  0  0  0  0
 62 65  1  0  0  0  0
 62 75  1  0  0  0  0
 63 76  1  0  0  0  0
 67 68  1  0  0  0  0
M  CHG  1  76   1
M  ISO  4  37 100  60 101  73 100  83 101
M  END
> <Batch ID>
0149

> <Smiles>
CNC(C)C(=O)NC(C(=O)N1Cc2cc([101O:1][101CH2:1]COC3C(c4cncc([100NH:0][100C:0](=O)N5CCCC(n6nc(-c7ccc(Oc8ccc(F)cc8F)cc7)c(C(N)=O)c6N)C5)c4)C3C(C)C)ccc2CC1C(=O)NC1CCCc2ccccc21)C(C)(C)C

> <Shape>
0.292

> <Color>
0.092

> <Negative vol penalty>
0.000

$$$$

  -OEChem-04052321383D

 90100  0     1  0  0  0  0  0999 V2000
  -28.7141  -16.8927   26.1189 C   0  0  0  0  0  0  0  0  0  0  0  0
  -28.1313  -18.1541   26.0728 C   0  0  0  0  0  0  0  0  0  0  0  0
  -23.1971   -9.8535   19.9571 C   0  0  0  0  0  0  0  0  0  0  0  0
  -23.9041   -9.9378   22.2658 C   0  0  0  0  0  0  0  0  0  0  0  0
  -27.9250  -15.7577   25.9449 C   0  0  0  0  0  0  0  0  0  0  0  0
  -26.7574  -18.2805   25.8645 C   0  0  0  0  0  0  0  0  0  0  0  0
  -29.5309  -20.1758   20.7946 C   0  0  0  0  0  0  0  0  0  0  0  0
  -27.3553  -19.1479   21.0119 C   0  0  0  0  0  0  0  0  0  0  0  0
  -24.8426  -22.7948   26.2625 C   0  0  0  0  0  0  0  0  0  0  0  0
  -22.5032   -8.6708   20.2128 C   0  0  0  0  0  0  0  0  0  0  0  0
  -23.2102   -8.7552   22.5216 C   0  0  0  0  0  0  0  0  0  0  0  0
  -30.0797  -19.1871   21.6112 C   0  0  0  0  0  0  0  0  0  0  0  0
  -27.9041  -18.1591   21.8284 C   0  0  0  0  0  0  0  0  0  0  0  0
  -25.0578  -23.7913   25.3115 C   0  0  0  0  0  0  0  0  0  0  0  0
  -20.8419   -5.4362   20.1752 C   0  0  0  0  0  0  0  0  0  0  0  0
  -20.9749   -4.3933   19.2586 C   0  0  0  0  0  0  0  0  0  0  0  0
  -22.8362  -23.4333   24.4424 C   0  0  0  0  0  0  0  0  0  0  0  0
  -23.3567   -4.3435   19.6608 C   0  0  0  0  0  0  0  0  0  0  0  0
  -23.8976  -10.4870   20.9836 C   0  0  0  0  0  0  0  0  0  0  0  0
  -24.1222  -13.0230   20.8231 C   0  0  0  0  0  0  0  0  0  0  0  0
  -28.1687  -20.1563   20.4950 C   0  0  0  0  0  0  0  0  0  0  0  0
  -26.5428  -15.8717   25.7220 C   0  0  0  0  0  0  0  0  0  0  0  0
  -23.6245  -22.1013   26.3036 C   0  0  0  0  0  0  0  0  0  0  0  0
  -25.9402  -17.1460   25.7105 C   0  0  0  0  0  0  0  0  0  0  0  0
  -22.6071  -22.4302   25.3965 C   0  0  0  0  0  0  0  0  0  0  0  0
  -22.5097   -8.1217   21.4950 C   0  0  0  0  0  0  0  0  0  0  0  0
  -29.2663  -18.1787   22.1281 C   0  0  0  0  0  0  0  0  0  0  0  0
  -24.0556  -24.1087   24.3994 C   0  0  0  0  0  0  0  0  0  0  0  0
  -21.9663   -5.9329   20.8346 C   0  0  0  0  0  0  0  0  0  0  0  0
  -22.2323   -3.8469   19.0014 C   0  0  0  0  0  0  0  0  0  0  0  0
  -23.2237   -5.3865   20.5775 C   0  0  0  0  0  0  0  0  0  0  0  0
  -24.6151  -11.7084   20.7200 C   0  0  0  0  0  0  0  0  0  0  0  0
  -25.1855  -13.8171   20.4693 C   0  0  0  0  0  0  0  0  0  0  0  0
  -22.8196  -13.4850   21.2046 C   0  0  0  0  0  0  0  0  0  0  0  0
  -22.7577  -19.0658   25.9319 C   0  0  0  0  0  0  0  0  0  0  0  0
  -19.8486  -20.1946   26.8182 C   0  0  0  0  0  0  0  0  0  0  0  0
  -17.7206  -22.8523   27.0523 C   0  0  0  0  0  0  0  0  0  0  0  0
  -30.9487  -14.0512   20.9651 C   0  0  0  0  0  0  0  0  0  0  0  0
  -25.7349  -14.6099   25.5478 C   0  0  0  0  0  0  0  0  0  0  0  0
  -23.3983  -21.0475   27.3527 C   0  0  0  0  0  0  0  0  0  0  0  0
  -21.2740  -21.7294   25.4118 C   0  0  0  0  0  0  0  0  0  0  0  0
  -24.3789  -14.8576   24.8949 C   0  0  0  0  0  0  0  0  0  0  0  0
  -29.3620  -13.1145   17.9185 C   0  0  0  0  0  0  0  0  0  0  0  0
  -26.7164  -20.8245   18.3259 C   0  0  0  0  0  0  0  0  0  0  0  0
  -23.6642  -16.0014   25.5988 C   0  0  0  0  0  0  0  0  0  0  0  0
  -25.8416  -22.0751   18.5235 C   0  0  0  0  0  0  0  0  0  0  0  0
  -27.9303  -12.7787   18.3399 C   0  0  0  0  0  0  0  0  0  0  0  0
  -23.9760  -26.0874   21.3054 C   0  0  0  0  0  0  0  0  0  0  0  0
  -30.3766  -12.6883   18.9772 C   0  0  0  0  0  0  0  0  0  0  0  0
  -28.6788  -12.8680   20.7546 C   0  0  0  0  0  0  0  0  0  0  0  0
  -25.3279  -25.6484   20.7799 C   0  0  0  0  0  0  0  0  0  0  0  0
  -24.0482  -23.6901   21.5059 C   0  0  0  0  0  0  0  0  0  0  0  0
  -27.5439  -21.2815   19.5659 C   0  0  1  0  0  0  0  0  0  0  0  0
  -24.4528  -17.3092   25.4547 C   0  0  1  0  0  0  0  0  0  0  0  0
  -22.3072  -20.0510   26.9731 C   0  0  1  0  0  0  0  0  0  0  0  0
  -26.2450  -22.0338   20.0181 C   0  0  1  0  0  0  0  0  0  0  0  0
  -27.6152  -13.3295   19.7437 C   0  0  2  0  0  0  0  0  0  0  0  0
  -23.5791  -24.9453   22.2248 C   0  0  1  0  0  0  0  0  0  1  0  0
  -15.3976  -23.4574   27.7839 C   0  0  0  0  0  0  0  0  0  0  0  0
  -18.7217  -18.9212   24.2847 C   0  0  0  0  0  0  0  0  0  0  0  0
  -16.6722  -20.3302   24.5717 C   0  0  0  0  0  0  0  0  0  0  0  0
  -17.2852  -18.6539   26.3143 C   0  0  0  0  0  0  0  0  0  0  0  0
  -18.7308  -24.7408   29.0949 C   0  0  0  0  0  0  0  0  0  0  0  0
  -26.4261  -23.3849   20.6824 C   0  0  0  0  0  0  0  0  0  0  0  0
  -31.3694  -15.3923   23.0105 C   0  0  0  0  0  0  0  0  0  0  0  0
  -31.1652  -16.8625   22.6914 C   0  0  0  0  0  0  0  0  0  0  0  0
  -18.6563  -20.7662   26.0896 C   0  0  1  0  0  0  0  0  0  0  0  0
  -16.8578  -23.3542   28.1961 C   0  0  2  0  0  0  0  0  0  0  0  0
  -17.8596  -19.6799   25.3133 C   0  0  0  0  0  0  0  0  0  0  0  0
  -25.8921  -11.6655   20.3309 N   0  0  0  0  0  0  0  0  0  0  0  0
  -26.2107  -12.9631   20.1864 N   0  0  0  0  0  0  0  0  0  0  0  0
  -21.1034  -20.7021   26.4525 N   0  0  0  0  0  0  0  0  0  0  0  0
  -30.0211  -13.2451   20.2847 N   0  0  0  0  0  0  0  0  0  0  0  0
  -25.3343  -15.1556   20.3755 N   0  0  0  0  0  0  0  0  0  0  0  0
  -21.8446  -12.5348   21.5372 N   0  0  0  0  0  0  0  0  0  0  0  0
  -23.8567  -18.3159   26.3050 N   0  0  0  0  0  0  0  0  0  0  0  0
  -17.8717  -21.4823   27.0896 N   0  0  0  0  0  0  0  0  0  0  0  0
  -30.5295  -14.5436   22.1950 N   0  0  0  0  0  0  0  0  0  0  0  0
  -25.1537  -24.1620   20.5725 N   0  3  2  0  0  0  0  0  0  0  0  0
  -17.3174  -24.7007   28.6394 N   0  3  0  0  0  0  0  0  0  0  0  0
  -22.5242  -14.7038   21.2335 O   0  0  0  0  0  0  0  0  0  0  0  0
  -22.1520  -18.9905   24.8693 O   0  0  0  0  0  0  0  0  0  0  0  0
  -19.6724  -19.3348   27.6849 O   0  0  0  0  0  0  0  0  0  0  0  0
  -18.2084  -23.6004   26.2080 O   0  0  0  0  0  0  0  0  0  0  0  0
  -32.0655  -14.3169   20.5079 O   0  0  0  0  0  0  0  0  0  0  0  0
  -21.8325   -6.9678   21.7450 O   0  0  0  0  0  0  0  0  0  0  0  0
  -24.2633  -25.0806   23.4697 O   0  0  0  0  0  0  0  0  0  1  0  0
  -29.8017  -17.2129   22.9235 O   0  0  0  0  0  0  0  0  0  0  0  0
  -22.3596   -2.8444   18.1223 F   0  0  0  0  0  0  0  0  0  0  0  0
  -24.3074   -5.8586   21.2088 F   0  0  0  0  0  0  0  0  0  0  0  0
  1  2  1  0  0  0  0
  1  5  2  0  0  0  0
  2  6  2  0  0  0  0
  3 10  2  0  0  0  0
  3 19  1  0  0  0  0
  4 11  1  0  0  0  0
  4 19  2  0  0  0  0
  5 22  1  0  0  0  0
  6 24  1  0  0  0  0
  7 12  2  0  0  0  0
  7 21  1  0  0  0  0
  8 13  1  0  0  0  0
  8 21  2  0  0  0  0
  9 14  2  0  0  0  0
  9 23  1  0  0  0  0
 10 26  1  0  0  0  0
 11 26  2  0  0  0  0
 12 27  1  0  0  0  0
 13 27  2  0  0  0  0
 14 28  1  0  0  0  0
 15 16  2  0  0  0  0
 15 29  1  0  0  0  0
 16 30  1  0  0  0  0
 17 25  1  0  0  0  0
 17 28  2  0  0  0  0
 18 30  2  0  0  0  0
 18 31  1  0  0  0  0
 19 32  1  0  0  0  0
 20 32  1  0  0  0  0
 20 33  2  0  0  0  0
 20 34  1  0  0  0  0
 21 53  1  0  0  0  0
 22 24  2  0  0  0  0
 22 39  1  0  0  0  0
 23 25  2  0  0  0  0
 23 40  1  0  0  0  0
 24 54  1  0  0  0  0
 25 41  1  0  0  0  0
 26 86  1  0  0  0  0
 27 88  1  0  0  0  0
 28 87  1  0  0  0  0
 29 31  2  0  0  0  0
 29 86  1  0  0  0  0
 30 89  1  0  0  0  0
 31 90  1  0  0  0  0
 32 70  2  0  0  0  0
 33 71  1  0  0  0  0
 33 74  1  0  0  0  0
 34 75  1  0  0  0  0
 34 81  2  0  0  0  0
 35 55  1  0  0  0  0
 35 76  1  0  0  0  0
 35 82  2  0  0  0  0
 36 67  1  0  0  0  0
 36 72  1  0  0  0  0
 36 83  2  0  0  0  0
 37 68  1  0  0  0  0
 37 77  1  0  0  0  0
 37 84  2  0  0  0  0
 38 73  1  0  0  0  0
 38 78  1  0  0  0  0
 38 85  2  0  0  0  0
 39 42  1  0  0  0  0
 40 55  1  0  0  0  0
 41 72  1  0  0  0  0
 42 45  1  0  0  0  0
 43 47  1  0  0  0  0
 43 49  1  0  0  0  0
 44 46  1  0  0  0  0
 44 53  1  0  0  0  0
 45 54  1  0  0  0  0
 46 56  1  0  0  0  0
 47 57  1  0  0  0  0
 48 51  1  0  0  0  0
 48 58  1  0  0  0  0
 49 73  1  0  0  0  0
 50 57  1  0  0  0  0
 50 73  1  0  0  0  0
 51 79  1  0  0  0  0
 52 58  1  0  0  0  0
 52 79  1  0  0  0  0
 53 56  1  0  0  0  0
 54 76  1  0  0  0  0
 55 72  1  0  0  0  0
 56 64  1  0  0  0  0
 57 71  1  0  0  0  0
 58 87  1  0  0  0  0
 59 68  1  0  0  0  0
 60 69  1  0  0  0  0
 61 69  1  0  0  0  0
 62 69  1  0  0  0  0
 63 80  1  0  0  0  0
 64 79  1  0  0  0  0
 65 66  1  0  0  0  0
 65 78  1  0  0  0  0
 66 88  1  0  0  0  0
 67 69  1  0  0  0  0
 67 77  1  0  0  0  0
 68 80  1  0  0  0  0
 70 71  1  0  0  0  0
M  CHG  2  79   1  80   1
M  ISO  4  38 100  58 101  78 100  87 101
M  END
> <Batch ID>
0149

> <Smiles>
CNC(C)C(=O)NC(C(=O)N1Cc2cc([101O:1][101CH:1]3CCN(CC4CCC4c4ccc(OCC[100NH:0][100C:0](=O)N5CCCC(n6nc(-c7ccc(Oc8ccc(F)cc8F)cc7)c(C(N)=O)c6N)C5)cc4)C3)ccc2CC1C(=O)NC1CCCc2ccccc21)C(C)(C)C

> <Shape>
0.175

> <Color>
0.173

> <Negative vol penalty>
0.000

$$$$

  -OEChem-04052321383D

 84 93  0     1  0  0  0  0  0999 V2000
  -21.7987  -11.8260   20.4717 C   0  0  0  0  0  0  0  0  0  0  0  0
  -21.6117  -13.1797   20.7322 C   0  0  0  0  0  0  0  0  0  0  0  0
  -30.5987  -29.0623   20.3775 C   0  0  0  0  0  0  0  0  0  0  0  0
  -29.5217  -26.9353   19.9867 C   0  0  0  0  0  0  0  0  0  0  0  0
  -23.0867  -11.2925   20.4519 C   0  0  0  0  0  0  0  0  0  0  0  0
  -22.7126  -14.0006   20.9743 C   0  0  0  0  0  0  0  0  0  0  0  0
  -22.4417  -18.3994   18.4799 C   0  0  0  0  0  0  0  0  0  0  0  0
  -31.8473  -28.4513   20.2624 C   0  0  0  0  0  0  0  0  0  0  0  0
  -30.7704  -26.3242   19.8716 C   0  0  0  0  0  0  0  0  0  0  0  0
  -21.6033  -19.3803   19.0080 C   0  0  0  0  0  0  0  0  0  0  0  0
  -33.6732  -24.1374   19.8321 C   0  0  0  0  0  0  0  0  0  0  0  0
  -33.8652  -22.9250   20.4944 C   0  0  0  0  0  0  0  0  0  0  0  0
  -23.5148  -20.4779   19.9881 C   0  0  0  0  0  0  0  0  0  0  0  0
  -18.8800  -25.1086   22.4809 C   0  0  0  0  0  0  0  0  0  0  0  0
  -20.9053  -24.6968   21.1993 C   0  0  0  0  0  0  0  0  0  0  0  0
  -33.3956  -24.0036   22.6047 C   0  0  0  0  0  0  0  0  0  0  0  0
  -29.4359  -28.3043   20.2397 C   0  0  0  0  0  0  0  0  0  0  0  0
  -27.3824  -29.5110   19.3261 C   0  0  0  0  0  0  0  0  0  0  0  0
  -24.2046  -12.1092   20.6843 C   0  0  0  0  0  0  0  0  0  0  0  0
  -23.8240  -18.4445   18.7115 C   0  0  0  0  0  0  0  0  0  0  0  0
  -24.0167  -13.4773   20.9590 C   0  0  0  0  0  0  0  0  0  0  0  0
  -24.3689  -19.4978   19.4597 C   0  0  0  0  0  0  0  0  0  0  0  0
  -18.8729  -23.7687   22.8248 C   0  0  0  0  0  0  0  0  0  0  0  0
  -19.8553  -22.9027   22.3679 C   0  0  0  0  0  0  0  0  0  0  0  0
  -20.8799  -23.3456   21.5508 C   0  0  0  0  0  0  0  0  0  0  0  0
  -31.9332  -27.0823   20.0094 C   0  0  0  0  0  0  0  0  0  0  0  0
  -22.1395  -20.4181   19.7647 C   0  0  0  0  0  0  0  0  0  0  0  0
  -33.3424  -25.2830   20.5560 C   0  0  0  0  0  0  0  0  0  0  0  0
  -19.9110  -25.5734   21.6616 C   0  0  0  0  0  0  0  0  0  0  0  0
  -33.7264  -22.8581   21.8808 C   0  0  0  0  0  0  0  0  0  0  0  0
  -33.2036  -25.2161   21.9423 C   0  0  0  0  0  0  0  0  0  0  0  0
  -28.1458  -28.9348   20.3591 C   0  0  0  0  0  0  0  0  0  0  0  0
  -26.2487  -29.9691   19.9516 C   0  0  0  0  0  0  0  0  0  0  0  0
  -27.6721  -29.6220   17.9263 C   0  0  0  0  0  0  0  0  0  0  0  0
  -25.9192  -16.5421   20.1589 C   0  0  0  0  0  0  0  0  0  0  0  0
  -28.0709  -18.6647   18.9812 C   0  0  0  0  0  0  0  0  0  0  0  0
  -29.1879  -21.9991   18.1740 C   0  0  0  0  0  0  0  0  0  0  0  0
  -22.0636  -29.2570   23.5742 C   0  0  0  0  0  0  0  0  0  0  0  0
  -25.5743  -11.4779   20.6994 C   0  0  0  0  0  0  0  0  0  0  0  0
  -24.7179  -17.3936   18.1124 C   0  0  0  0  0  0  0  0  0  0  0  0
  -25.8486  -19.6030   19.7201 C   0  0  0  0  0  0  0  0  0  0  0  0
  -17.9012  -23.0171   23.6532 C   0  0  0  0  0  0  0  0  0  0  0  0
  -19.5805  -21.5368   22.8722 C   0  0  0  0  0  0  0  0  0  0  0  0
  -26.7125  -12.4898   20.5956 C   0  0  0  0  0  0  0  0  0  0  0  0
  -25.1628  -30.4374   24.8697 C   0  0  0  0  0  0  0  0  0  0  0  0
  -26.4791  -13.6558   21.5509 C   0  0  0  0  0  0  0  0  0  0  0  0
  -26.1527  -30.1935   23.7293 C   0  0  0  0  0  0  0  0  0  0  0  0
  -24.1177  -29.3274   24.9570 C   0  0  0  0  0  0  0  0  0  0  0  0
  -24.3819  -28.8158   22.5607 C   0  0  0  0  0  0  0  0  0  0  0  0
  -25.1874  -14.4049   21.2018 C   0  0  1  0  0  0  0  0  0  0  0  0
  -26.0501  -17.2552   18.8428 C   0  0  1  0  0  0  0  0  0  0  0  0
  -25.4217  -29.9377   22.3975 C   0  0  2  0  0  0  0  0  0  0  0  0
  -31.2855  -22.7885   17.0452 C   0  0  0  0  0  0  0  0  0  0  0  0
  -29.1416  -18.9653   21.8225 C   0  0  0  0  0  0  0  0  0  0  0  0
  -30.3041  -21.0577   21.0886 C   0  0  0  0  0  0  0  0  0  0  0  0
  -30.9022  -18.8705   20.0489 C   0  0  0  0  0  0  0  0  0  0  0  0
  -27.6614  -23.4826   16.1179 C   0  0  0  0  0  0  0  0  0  0  0  0
  -21.9401  -22.4108   21.0474 C   0  0  0  0  0  0  0  0  0  1  0  0
  -20.1011  -29.1651   22.0579 C   0  0  0  0  0  0  0  0  0  0  0  0
  -19.4043  -27.8270   22.2276 C   0  0  0  0  0  0  0  0  0  0  0  0
  -28.6879  -19.9494   19.4791 C   0  0  1  0  0  0  0  0  0  0  0  0
  -29.8118  -22.4573   16.8682 C   0  0  2  0  0  0  0  0  0  0  0  0
  -29.7308  -19.7080   20.6067 C   0  0  0  0  0  0  0  0  0  0  0  0
  -27.5477  -29.0182   21.5504 N   0  0  0  0  0  0  0  0  0  0  0  0
  -26.3964  -29.6522   21.2699 N   0  0  0  0  0  0  0  0  0  0  0  0
  -26.6805  -18.5478   19.1184 N   0  0  0  0  0  0  0  0  0  0  0  0
  -23.4603  -29.1362   23.6620 N   0  0  0  0  0  0  0  0  0  0  0  0
  -25.1499  -30.6082   19.4970 N   0  0  0  0  0  0  0  0  0  0  0  0
  -28.8818  -29.0977   17.4507 N   0  0  0  0  0  0  0  0  0  0  0  0
  -25.3964  -15.2670   20.0583 N   0  0  0  0  0  0  0  0  0  0  0  0
  -29.2246  -20.6268   18.3037 N   0  0  0  0  0  0  0  0  0  0  0  0
  -21.5217  -29.0670   22.3089 N   0  0  0  0  0  0  0  0  0  0  0  0
  -29.1149  -23.6723   16.3594 N   0  3  0  0  0  0  0  0  0  0  0  0
  -26.8891  -30.1844   17.1238 O   0  0  0  0  0  0  0  0  0  0  0  0
  -26.2680  -17.1065   21.1892 O   0  0  0  0  0  0  0  0  0  0  0  0
  -28.7951  -17.7997   18.4821 O   0  0  0  0  0  0  0  0  0  0  0  0
  -28.7186  -22.7806   18.9984 O   0  0  0  0  0  0  0  0  0  0  0  0
  -21.3528  -29.5203   24.5501 O   0  0  0  0  0  0  0  0  0  0  0  0
  -18.4978  -21.7082   23.8180 O   0  0  0  0  0  0  0  0  0  0  0  0
  -33.1514  -26.4858   19.8968 O   0  0  0  0  0  0  0  0  0  0  0  0
  -21.3234  -21.3764   20.2818 O   0  0  0  0  0  0  0  0  0  1  0  0
  -19.9517  -26.8874   21.3047 O   0  0  0  0  0  0  0  0  0  0  0  0
  -33.9093  -21.6934   22.5166 F   0  0  0  0  0  0  0  0  0  0  0  0
  -32.8849  -26.3129   22.6431 F   0  0  0  0  0  0  0  0  0  0  0  0
  1  2  1  0  0  0  0
  1  5  2  0  0  0  0
  2  6  2  0  0  0  0
  3  8  2  0  0  0  0
  3 17  1  0  0  0  0
  4  9  1  0  0  0  0
  4 17  2  0  0  0  0
  5 19  1  0  0  0  0
  6 21  1  0  0  0  0
  7 10  2  0  0  0  0
  7 20  1  0  0  0  0
  8 26  1  0  0  0  0
  9 26  2  0  0  0  0
 10 27  1  0  0  0  0
 11 12  2  0  0  0  0
 11 28  1  0  0  0  0
 12 30  1  0  0  0  0
 13 22  1  0  0  0  0
 13 27  2  0  0  0  0
 14 23  2  0  0  0  0
 14 29  1  0  0  0  0
 15 25  1  0  0  0  0
 15 29  2  0  0  0  0
 16 30  2  0  0  0  0
 16 31  1  0  0  0  0
 17 32  1  0  0  0  0
 18 32  1  0  0  0  0
 18 33  2  0  0  0  0
 18 34  1  0  0  0  0
 19 21  2  0  0  0  0
 19 39  1  0  0  0  0
 20 22  2  0  0  0  0
 20 40  1  0  0  0  0
 21 50  1  0  0  0  0
 22 41  1  0  0  0  0
 23 24  1  0  0  0  0
 23 42  1  0  0  0  0
 24 25  2  0  0  0  0
 24 43  1  0  0  0  0
 25 58  1  0  0  0  0
 26 80  1  0  0  0  0
 27 81  1  0  0  0  0
 28 31  2  0  0  0  0
 28 80  1  0  0  0  0
 29 82  1  0  0  0  0
 30 83  1  0  0  0  0
 31 84  1  0  0  0  0
 32 64  2  0  0  0  0
 33 65  1  0  0  0  0
 33 68  1  0  0  0  0
 34 69  1  0  0  0  0
 34 74  2  0  0  0  0
 35 51  1  0  0  0  0
 35 70  1  0  0  0  0
 35 75  2  0  0  0  0
 36 61  1  0  0  0  0
 36 66  1  0  0  0  0
 36 76  2  0  0  0  0
 37 62  1  0  0  0  0
 37 71  1  0  0  0  0
 37 77  2  0  0  0  0
 38 67  1  0  0  0  0
 38 72  1  0  0  0  0
 38 78  2  0  0  0  0
 39 44  1  0  0  0  0
 40 51  1  0  0  0  0
 41 66  1  0  0  0  0
 42 79  1  0  0  0  0
 43 79  1  0  0  0  0
 44 46  1  0  0  0  0
 45 47  1  0  0  0  0
 45 48  1  0  0  0  0
 46 50  1  0  0  0  0
 47 52  1  0  0  0  0
 48 67  1  0  0  0  0
 49 52  1  0  0  0  0
 49 67  1  0  0  0  0
 50 70  1  0  0  0  0
 51 66  1  0  0  0  0
 52 65  1  0  0  0  0
 53 62  1  0  0  0  0
 54 63  1  0  0  0  0
 55 63  1  0  0  0  0
 56 63  1  0  0  0  0
 57 73  1  0  0  0  0
 58 81  1  0  0  0  0
 59 60  1  0  0  0  0
 59 72  1  0  0  0  0
 60 82  1  0  0  0  0
 61 63  1  0  0  0  0
 61 71  1  0  0  0  0
 62 73  1  0  0  0  0
 64 65  1  0  0  0  0
M  CHG  1  73   1
M  ISO  4  38 100  58 101  72 100  81 101
M  END
> <Batch ID>
0149

> <Smiles>
CNC(C)C(=O)NC(C(=O)N1Cc2cc([101O:1][101CH2:1]c3cc(OCC[100NH:0][100C:0](=O)N4CCCC(n5nc(-c6ccc(Oc7ccc(F)cc7F)cc6)c(C(N)=O)c5N)C4)cc4c3COC4)ccc2CC1C(=O)NC1CCCc2ccccc21)C(C)(C)C

> <Shape>
0.225

> <Color>
0.067

> <Negative vol penalty>
0.000

$$$$

  -OEChem-04052321383D

 84 93  0     1  0  0  0  0  0999 V2000
  -27.1916  -32.2508   27.6007 C   0  0  0  0  0  0  0  0  0  0  0  0
  -27.0659  -31.1221   26.7973 C   0  0  0  0  0  0  0  0  0  0  0  0
  -24.2482   -9.4843   20.6726 C   0  0  0  0  0  0  0  0  0  0  0  0
  -24.8467  -10.1522   22.9159 C   0  0  0  0  0  0  0  0  0  0  0  0
  -26.2364  -33.2641   27.5315 C   0  0  0  0  0  0  0  0  0  0  0  0
  -25.9843  -31.0055   25.9249 C   0  0  0  0  0  0  0  0  0  0  0  0
  -27.3602  -29.3774   21.3313 C   0  0  0  0  0  0  0  0  0  0  0  0
  -23.9238   -8.2102   21.1384 C   0  0  0  0  0  0  0  0  0  0  0  0
  -24.5222   -8.8781   23.3818 C   0  0  0  0  0  0  0  0  0  0  0  0
  -27.6131  -28.0138   21.1884 C   0  0  0  0  0  0  0  0  0  0  0  0
  -21.3466   -6.7286   22.7497 C   0  0  0  0  0  0  0  0  0  0  0  0
  -20.1571   -6.1568   22.2984 C   0  0  0  0  0  0  0  0  0  0  0  0
  -25.4191  -27.7132   20.2317 C   0  0  0  0  0  0  0  0  0  0  0  0
  -28.1203  -23.4310   19.3789 C   0  0  0  0  0  0  0  0  0  0  0  0
  -21.4022   -4.3188   21.3452 C   0  0  0  0  0  0  0  0  0  0  0  0
  -24.7097  -10.4553   21.5613 C   0  0  0  0  0  0  0  0  0  0  0  0
  -24.1885  -12.8835   20.9784 C   0  0  0  0  0  0  0  0  0  0  0  0
  -25.1477  -33.1643   26.6509 C   0  0  0  0  0  0  0  0  0  0  0  0
  -26.1286  -29.9182   20.9348 C   0  0  0  0  0  0  0  0  0  0  0  0
  -25.0130  -32.0178   25.8449 C   0  0  0  0  0  0  0  0  0  0  0  0
  -25.1540  -29.0844   20.3682 C   0  0  0  0  0  0  0  0  0  0  0  0
  -28.4207  -21.1988   20.2551 C   0  0  0  0  0  0  0  0  0  0  0  0
  -24.0607   -7.9071   22.4931 C   0  0  0  0  0  0  0  0  0  0  0  0
  -26.6415  -27.1810   20.6412 C   0  0  0  0  0  0  0  0  0  0  0  0
  -22.5640   -6.0955   22.4987 C   0  0  0  0  0  0  0  0  0  0  0  0
  -28.2063  -22.0597   19.1743 C   0  0  0  0  0  0  0  0  0  0  0  0
  -20.1849   -4.9519   21.5962 C   0  0  0  0  0  0  0  0  0  0  0  0
  -22.5918   -4.8906   21.7965 C   0  0  0  0  0  0  0  0  0  0  0  0
  -25.0456  -11.7714   21.0806 C   0  0  0  0  0  0  0  0  0  0  0  0
  -28.5187  -21.7669   21.5288 C   0  0  0  0  0  0  0  0  0  0  0  0
  -28.2452  -23.8986   20.6735 C   0  0  0  0  0  0  0  0  0  0  0  0
  -24.9818  -13.8829   20.4701 C   0  0  0  0  0  0  0  0  0  0  0  0
  -22.7994  -13.0025   21.3130 C   0  0  0  0  0  0  0  0  0  0  0  0
  -23.7538  -31.4177   22.4233 C   0  0  0  0  0  0  0  0  0  0  0  0
  -22.6089  -31.7735   19.4091 C   0  0  0  0  0  0  0  0  0  0  0  0
  -22.5394  -30.6552   16.1856 C   0  0  0  0  0  0  0  0  0  0  0  0
  -29.7874  -16.7193   20.3966 C   0  0  0  0  0  0  0  0  0  0  0  0
  -24.1152  -34.2636   26.6455 C   0  0  0  0  0  0  0  0  0  0  0  0
  -25.8814  -31.3956   21.0709 C   0  0  0  0  0  0  0  0  0  0  0  0
  -28.4686  -19.7102   20.0323 C   0  0  0  0  0  0  0  0  0  0  0  0
  -23.8232  -29.6190   19.9081 C   0  0  0  0  0  0  0  0  0  0  0  0
  -28.7803  -20.9155   22.7427 C   0  0  0  0  0  0  0  0  0  0  0  0
  -23.2005  -34.2342   25.4238 C   0  0  0  0  0  0  0  0  0  0  0  0
  -28.4516  -19.4383   22.5302 C   0  0  0  0  0  0  0  0  0  0  0  0
  -29.6374  -13.7099   18.4999 C   0  0  0  0  0  0  0  0  0  0  0  0
  -22.7009  -32.8164   25.1650 C   0  0  0  0  0  0  0  0  0  0  0  0
  -28.3627  -13.0267   18.9982 C   0  0  0  0  0  0  0  0  0  0  0  0
  -30.3662  -14.4366   19.6282 C   0  0  0  0  0  0  0  0  0  0  0  0
  -28.2630  -14.7104   20.8833 C   0  0  0  0  0  0  0  0  0  0  0  0
  -23.8671  -31.8660   24.8681 C   0  0  1  0  0  0  0  0  0  0  0  0
  -24.3986  -31.7524   21.1080 C   0  0  1  0  0  0  0  0  0  0  0  0
  -27.4639  -14.0112   19.7703 C   0  0  2  0  0  0  0  0  0  0  0  0
  -29.0652  -18.9464   21.2197 C   0  0  1  0  0  0  0  0  0  0  0  0
  -21.4819  -31.1269   13.9592 C   0  0  0  0  0  0  0  0  0  0  0  0
  -20.0005  -30.5287   20.3871 C   0  0  0  0  0  0  0  0  0  0  0  0
  -19.3631  -30.1550   17.9950 C   0  0  0  0  0  0  0  0  0  0  0  0
  -19.7131  -32.4748   18.8429 C   0  0  0  0  0  0  0  0  0  0  0  0
  -25.1644  -31.1601   14.9154 C   0  0  0  0  0  0  0  0  0  0  0  0
  -26.7526  -21.2487   17.4758 C   0  0  0  0  0  0  0  0  0  0  0  0
  -28.1586  -25.3734   20.9359 C   0  0  0  0  0  0  0  0  0  1  0  0
  -21.7120  -30.9643   18.5038 C   0  0  1  0  0  0  0  0  0  0  0  0
  -22.6775  -31.3866   14.8625 C   0  0  2  0  0  0  0  0  0  0  0  0
  -20.2214  -31.0200   18.9426 C   0  0  0  0  0  0  0  0  0  0  0  0
  -26.2882  -12.0387   20.6700 N   0  0  0  0  0  0  0  0  0  0  0  0
  -28.4438  -23.1042   21.7481 N   0  0  0  0  0  0  0  0  0  0  0  0
  -26.2176  -13.3301   20.3048 N   0  0  0  0  0  0  0  0  0  0  0  0
  -23.6267  -31.0692   20.0680 N   0  0  0  0  0  0  0  0  0  0  0  0
  -29.4587  -15.3559   20.3190 N   0  0  0  0  0  0  0  0  0  0  0  0
  -24.7358  -15.1718   20.1527 N   0  0  0  0  0  0  0  0  0  0  0  0
  -22.1365  -11.8782   21.8238 N   0  0  0  0  0  0  0  0  0  0  0  0
  -24.3324  -32.0460   23.5095 N   0  0  0  0  0  0  0  0  0  0  0  0
  -21.9546  -31.4492   17.1494 N   0  0  0  0  0  0  0  0  0  0  0  0
  -28.8699  -17.5223   21.0631 N   0  0  0  0  0  0  0  0  0  0  0  0
  -23.9093  -30.9421   14.1511 N   0  3  0  0  0  0  0  0  0  0  0  0
  -22.1607  -14.0695   21.1482 O   0  0  0  0  0  0  0  0  0  0  0  0
  -22.8009  -30.6476   22.4504 O   0  0  0  0  0  0  0  0  0  0  0  0
  -22.4182  -32.9869   19.5219 O   0  0  0  0  0  0  0  0  0  0  0  0
  -22.9097  -29.4944   16.3468 O   0  0  0  0  0  0  0  0  0  0  0  0
  -30.8194  -17.1873   19.9036 O   0  0  0  0  0  0  0  0  0  0  0  0
  -23.7440   -6.6641   22.9481 O   0  0  0  0  0  0  0  0  0  0  0  0
  -28.0716  -21.5762   17.9066 O   0  0  0  0  0  0  0  0  0  0  0  0
  -26.8855  -25.8496   20.5012 O   0  0  0  0  0  0  0  0  0  1  0  0
  -19.0424   -4.4021   21.1642 F   0  0  0  0  0  0  0  0  0  0  0  0
  -23.7581   -4.2771   21.5534 F   0  0  0  0  0  0  0  0  0  0  0  0
  1  2  1  0  0  0  0
  1  5  2  0  0  0  0
  2  6  2  0  0  0  0
  3  8  2  0  0  0  0
  3 16  1  0  0  0  0
  4  9  1  0  0  0  0
  4 16  2  0  0  0  0
  5 18  1  0  0  0  0
  6 20  1  0  0  0  0
  7 10  2  0  0  0  0
  7 19  1  0  0  0  0
  8 23  1  0  0  0  0
  9 23  2  0  0  0  0
 10 24  1  0  0  0  0
 11 12  2  0  0  0  0
 11 25  1  0  0  0  0
 12 27  1  0  0  0  0
 13 21  1  0  0  0  0
 13 24  2  0  0  0  0
 14 26  2  0  0  0  0
 14 31  1  0  0  0  0
 15 27  2  0  0  0  0
 15 28  1  0  0  0  0
 16 29  1  0  0  0  0
 17 29  1  0  0  0  0
 17 32  2  0  0  0  0
 17 33  1  0  0  0  0
 18 20  2  0  0  0  0
 18 38  1  0  0  0  0
 19 21  2  0  0  0  0
 19 39  1  0  0  0  0
 20 50  1  0  0  0  0
 21 41  1  0  0  0  0
 22 26  1  0  0  0  0
 22 30  2  0  0  0  0
 22 40  1  0  0  0  0
 23 80  1  0  0  0  0
 24 82  1  0  0  0  0
 25 28  2  0  0  0  0
 25 80  1  0  0  0  0
 26 81  1  0  0  0  0
 27 83  1  0  0  0  0
 28 84  1  0  0  0  0
 29 64  2  0  0  0  0
 30 42  1  0  0  0  0
 30 65  1  0  0  0  0
 31 60  1  0  0  0  0
 31 65  2  0  0  0  0
 32 66  1  0  0  0  0
 32 69  1  0  0  0  0
 33 70  1  0  0  0  0
 33 75  2  0  0  0  0
 34 51  1  0  0  0  0
 34 71  1  0  0  0  0
 34 76  2  0  0  0  0
 35 61  1  0  0  0  0
 35 67  1  0  0  0  0
 35 77  2  0  0  0  0
 36 62  1  0  0  0  0
 36 72  1  0  0  0  0
 36 78  2  0  0  0  0
 37 68  1  0  0  0  0
 37 73  1  0  0  0  0
 37 79  2  0  0  0  0
 38 43  1  0  0  0  0
 39 51  1  0  0  0  0
 40 53  1  0  0  0  0
 41 67  1  0  0  0  0
 42 44  1  0  0  0  0
 43 46  1  0  0  0  0
 44 53  1  0  0  0  0
 45 47  1  0  0  0  0
 45 48  1  0  0  0  0
 46 50  1  0  0  0  0
 47 52  1  0  0  0  0
 48 68  1  0  0  0  0
 49 52  1  0  0  0  0
 49 68  1  0  0  0  0
 50 71  1  0  0  0  0
 51 67  1  0  0  0  0
 52 66  1  0  0  0  0
 53 73  1  0  0  0  0
 54 62  1  0  0  0  0
 55 63  1  0  0  0  0
 56 63  1  0  0  0  0
 57 63  1  0  0  0  0
 58 74  1  0  0  0  0
 59 81  1  0  0  0  0
 60 82  1  0  0  0  0
 61 63  1  0  0  0  0
 61 72  1  0  0  0  0
 62 74  1  0  0  0  0
 64 66  1  0  0  0  0
M  CHG  1  74   1
M  ISO  4  37 100  60 101  73 100  82 101
M  END
> <Batch ID>
0149

> <Smiles>
CNC(C)C(=O)NC(C(=O)N1Cc2cc([101O:1][101CH2:1]c3cc(OC)c4c(n3)CCC([100NH:0][100C:0](=O)N3CCCC(n5nc(-c6ccc(Oc7ccc(F)cc7F)cc6)c(C(N)=O)c5N)C3)C4)ccc2CC1C(=O)NC1CCCc2ccccc21)C(C)(C)C

> <Shape>
0.311

> <Color>
0.122

> <Negative vol penalty>
0.000

$$$$

  -OEChem-04052321383D

 89 99  0     1  0  0  0  0  0999 V2000
  -16.9917  -25.5775   24.6900 C   0  0  0  0  0  0  0  0  0  0  0  0
  -17.7876  -24.6188   24.0712 C   0  0  0  0  0  0  0  0  0  0  0  0
  -22.1942  -14.8271   21.4407 C   0  0  0  0  0  0  0  0  0  0  0  0
  -24.4513  -14.0021   21.1916 C   0  0  0  0  0  0  0  0  0  0  0  0
  -17.1845  -26.9293   24.4083 C   0  0  0  0  0  0  0  0  0  0  0  0
  -18.7761  -25.0113   23.1695 C   0  0  0  0  0  0  0  0  0  0  0  0
  -26.4447  -23.5219   23.1932 C   0  0  0  0  0  0  0  0  0  0  0  0
  -21.7940  -13.5842   21.9311 C   0  0  0  0  0  0  0  0  0  0  0  0
  -24.0511  -12.7592   21.6821 C   0  0  0  0  0  0  0  0  0  0  0  0
  -27.8382  -23.4584   23.1744 C   0  0  0  0  0  0  0  0  0  0  0  0
  -23.5485   -9.2608   22.5297 C   0  0  0  0  0  0  0  0  0  0  0  0
  -23.9948   -8.1238   21.8563 C   0  0  0  0  0  0  0  0  0  0  0  0
  -27.9266  -25.5328   21.9347 C   0  0  0  0  0  0  0  0  0  0  0  0
  -22.8923   -8.8824   19.8448 C   0  0  0  0  0  0  0  0  0  0  0  0
  -23.5229  -15.0361   21.0709 C   0  0  0  0  0  0  0  0  0  0  0  0
  -24.4187  -17.4128   21.3084 C   0  0  0  0  0  0  0  0  0  0  0  0
  -18.1823  -27.3392   23.5099 C   0  0  0  0  0  0  0  0  0  0  0  0
  -25.7867  -24.6003   22.5955 C   0  0  0  0  0  0  0  0  0  0  0  0
  -18.9816  -26.3698   22.8744 C   0  0  0  0  0  0  0  0  0  0  0  0
  -26.5315  -25.6082   21.9613 C   0  0  0  0  0  0  0  0  0  0  0  0
  -30.3041  -22.7499   17.3675 C   0  0  0  0  0  0  0  0  0  0  0  0
  -29.3797  -21.7031   17.4745 C   0  0  0  0  0  0  0  0  0  0  0  0
  -30.4183  -23.4396   16.1589 C   0  0  0  0  0  0  0  0  0  0  0  0
  -22.7224  -12.5502   22.0518 C   0  0  0  0  0  0  0  0  0  0  0  0
  -28.5773  -24.4612   22.5465 C   0  0  0  0  0  0  0  0  0  0  0  0
  -22.7740  -10.2086   21.8608 C   0  0  0  0  0  0  0  0  0  0  0  0
  -23.6668   -7.9346   20.5138 C   0  0  0  0  0  0  0  0  0  0  0  0
  -22.4459  -10.0194   20.5183 C   0  0  0  0  0  0  0  0  0  0  0  0
  -23.9368  -16.3196   20.5637 C   0  0  0  0  0  0  0  0  0  0  0  0
  -29.5873  -23.0728   15.1128 C   0  0  0  0  0  0  0  0  0  0  0  0
  -28.5882  -21.4271   16.3639 C   0  0  0  0  0  0  0  0  0  0  0  0
  -24.6708  -18.3833   20.3698 C   0  0  0  0  0  0  0  0  0  0  0  0
  -24.6206  -17.5395   22.7222 C   0  0  0  0  0  0  0  0  0  0  0  0
  -22.5155  -26.2570   21.8014 C   0  0  0  0  0  0  0  0  0  0  0  0
  -24.4709  -28.4822   22.5985 C   0  0  0  0  0  0  0  0  0  0  0  0
  -26.8026  -30.5814   23.9380 C   0  0  0  0  0  0  0  0  0  0  0  0
  -26.7346  -19.9850   15.4526 C   0  0  0  0  0  0  0  0  0  0  0  0
  -18.3219  -28.8089   23.2012 C   0  0  0  0  0  0  0  0  0  0  0  0
  -24.2852  -24.6784   22.5381 C   0  0  0  0  0  0  0  0  0  0  0  0
  -29.1957  -20.9462   18.7596 C   0  0  0  0  0  0  0  0  0  0  0  0
  -25.7797  -26.7317   21.3012 C   0  0  0  0  0  0  0  0  0  0  0  0
  -31.2063  -23.0994   18.5183 C   0  0  0  0  0  0  0  0  0  0  0  0
  -19.6397  -29.1653   22.5180 C   0  0  0  0  0  0  0  0  0  0  0  0
  -23.4471  -18.6178   15.4637 C   0  0  0  0  0  0  0  0  0  0  0  0
  -19.9330  -28.1902   21.3822 C   0  0  0  0  0  0  0  0  0  0  0  0
  -34.0231  -21.7047   21.7801 C   0  0  0  0  0  0  0  0  0  0  0  0
  -33.3152  -20.6227   21.0133 C   0  0  0  0  0  0  0  0  0  0  0  0
  -23.3210  -17.9879   16.8528 C   0  0  0  0  0  0  0  0  0  0  0  0
  -24.8555  -18.4578   14.8941 C   0  0  0  0  0  0  0  0  0  0  0  0
  -25.8105  -18.2972   17.1594 C   0  0  0  0  0  0  0  0  0  0  0  0
  -30.3980  -21.0526   19.6924 C   0  0  0  0  0  0  0  0  0  0  0  0
  -20.0806  -26.7577   21.9092 C   0  0  1  0  0  0  0  0  0  0  0  0
  -23.7515  -26.1185   22.6408 C   0  0  1  0  0  0  0  0  0  0  0  0
  -33.1030  -22.0655   20.6470 C   0  0  0  0  0  0  0  0  0  0  0  0
  -24.4270  -18.4900   17.8016 C   0  0  2  0  0  0  0  0  0  0  0  0
  -31.4117  -24.5409   15.9834 C   0  0  0  0  0  0  0  0  0  0  0  0
  -29.6683  -23.7813   13.7997 C   0  0  0  0  0  0  0  0  0  0  0  0
  -27.1749  -32.9916   24.5292 C   0  0  0  0  0  0  0  0  0  0  0  0
  -24.8954  -29.1361   19.6496 C   0  0  0  0  0  0  0  0  0  0  0  0
  -26.1479  -31.1851   20.3574 C   0  0  0  0  0  0  0  0  0  0  0  0
  -23.7411  -30.9264   20.9599 C   0  0  0  0  0  0  0  0  0  0  0  0
  -27.1679  -29.9422   26.8045 C   0  0  0  0  0  0  0  0  0  0  0  0
  -31.9186  -24.2349   21.1942 C   0  0  0  0  0  0  0  0  0  0  0  0
  -30.6063  -24.9807   21.4193 C   0  0  0  0  0  0  0  0  0  1  0  0
  -25.4729  -29.5105   22.1381 C   0  0  1  0  0  0  0  0  0  0  0  0
  -26.7031  -31.6343   25.0270 C   0  0  2  0  0  0  0  0  0  0  0  0
  -31.7854  -22.7295   20.9245 C   0  0  1  0  0  0  0  0  0  0  0  0
  -25.0725  -30.1638   20.7852 C   0  0  0  0  0  0  0  0  0  0  0  0
  -23.8847  -16.5715   19.2530 N   0  0  0  0  0  0  0  0  0  0  0  0
  -28.6708  -22.0839   15.1852 N   0  0  0  0  0  0  0  0  0  0  0  0
  -24.3371  -17.8340   19.1668 N   0  0  0  0  0  0  0  0  0  0  0  0
  -24.6687  -27.1666   22.1621 N   0  0  0  0  0  0  0  0  0  0  0  0
  -25.8500  -18.9584   15.8456 N   0  0  0  0  0  0  0  0  0  0  0  0
  -25.1429  -19.6444   20.4643 N   0  0  0  0  0  0  0  0  0  0  0  0
  -24.3106  -16.4459   23.5421 N   0  0  0  0  0  0  0  0  0  0  0  0
  -27.6138  -20.4022   16.4514 N   0  0  0  0  0  0  0  0  0  0  0  0
  -21.3796  -26.5756   22.5208 N   0  0  0  0  0  0  0  0  0  0  0  0
  -25.6210  -30.4573   23.2381 N   0  0  0  0  0  0  0  0  0  0  0  0
  -30.7664  -22.5079   19.8434 N   0  3  1  0  0  0  0  0  0  0  0  0
  -27.5380  -31.2474   26.1993 N   0  3  0  0  0  0  0  0  0  0  0  0
  -25.0474  -18.5971   23.2447 O   0  0  0  0  0  0  0  0  0  0  0  0
  -22.5862  -26.0891   20.5896 O   0  0  0  0  0  0  0  0  0  0  0  0
  -23.5341  -28.8341   23.3209 O   0  0  0  0  0  0  0  0  0  0  0  0
  -27.8272  -29.9363   23.7266 O   0  0  0  0  0  0  0  0  0  0  0  0
  -26.6955  -20.4779   14.3224 O   0  0  0  0  0  0  0  0  0  0  0  0
  -22.3323  -11.3373   22.5306 O   0  0  0  0  0  0  0  0  0  0  0  0
  -29.9375  -24.3954   22.5357 O   0  0  0  0  0  0  0  0  0  1  0  0
  -24.0967   -6.8434   19.8667 F   0  0  0  0  0  0  0  0  0  0  0  0
  -21.7032  -10.9271   19.8700 F   0  0  0  0  0  0  0  0  0  0  0  0
  1  2  1  0  0  0  0
  1  5  2  0  0  0  0
  2  6  2  0  0  0  0
  3  8  2  0  0  0  0
  3 15  1  0  0  0  0
  4  9  1  0  0  0  0
  4 15  2  0  0  0  0
  5 17  1  0  0  0  0
  6 19  1  0  0  0  0
  7 10  2  0  0  0  0
  7 18  1  0  0  0  0
  8 24  1  0  0  0  0
  9 24  2  0  0  0  0
 10 25  1  0  0  0  0
 11 12  2  0  0  0  0
 11 26  1  0  0  0  0
 12 27  1  0  0  0  0
 13 20  1  0  0  0  0
 13 25  2  0  0  0  0
 14 27  2  0  0  0  0
 14 28  1  0  0  0  0
 15 29  1  0  0  0  0
 16 29  1  0  0  0  0
 16 32  2  0  0  0  0
 16 33  1  0  0  0  0
 17 19  2  0  0  0  0
 17 38  1  0  0  0  0
 18 20  2  0  0  0  0
 18 39  1  0  0  0  0
 19 52  1  0  0  0  0
 20 41  1  0  0  0  0
 21 22  2  0  0  0  0
 21 23  1  0  0  0  0
 21 42  1  0  0  0  0
 22 31  1  0  0  0  0
 22 40  1  0  0  0  0
 23 30  2  0  0  0  0
 23 56  1  0  0  0  0
 24 86  1  0  0  0  0
 25 87  1  0  0  0  0
 26 28  2  0  0  0  0
 26 86  1  0  0  0  0
 27 88  1  0  0  0  0
 28 89  1  0  0  0  0
 29 69  2  0  0  0  0
 30 57  1  0  0  0  0
 30 70  1  0  0  0  0
 31 70  2  0  0  0  0
 31 76  1  0  0  0  0
 32 71  1  0  0  0  0
 32 74  1  0  0  0  0
 33 75  1  0  0  0  0
 33 81  2  0  0  0  0
 34 53  1  0  0  0  0
 34 77  1  0  0  0  0
 34 82  2  0  0  0  0
 35 65  1  0  0  0  0
 35 72  1  0  0  0  0
 35 83  2  0  0  0  0
 36 66  1  0  0  0  0
 36 78  1  0  0  0  0
 36 84  2  0  0  0  0
 37 73  1  0  0  0  0
 37 76  1  0  0  0  0
 37 85  2  0  0  0  0
 38 43  1  0  0  0  0
 39 53  1  0  0  0  0
 40 51  1  0  0  0  0
 41 72  1  0  0  0  0
 42 79  1  0  0  0  0
 43 45  1  0  0  0  0
 44 48  1  0  0  0  0
 44 49  1  0  0  0  0
 45 52  1  0  0  0  0
 46 47  1  0  0  0  0
 46 54  1  0  0  0  0
 47 54  1  0  0  0  0
 48 55  1  0  0  0  0
 49 73  1  0  0  0  0
 50 55  1  0  0  0  0
 50 73  1  0  0  0  0
 51 79  1  0  0  0  0
 52 77  1  0  0  0  0
 53 72  1  0  0  0  0
 54 67  1  0  0  0  0
 55 71  1  0  0  0  0
 58 66  1  0  0  0  0
 59 68  1  0  0  0  0
 60 68  1  0  0  0  0
 61 68  1  0  0  0  0
 62 80  1  0  0  0  0
 63 64  1  0  0  0  0
 63 67  1  0  0  0  0
 64 87  1  0  0  0  0
 65 68  1  0  0  0  0
 65 78  1  0  0  0  0
 66 80  1  0  0  0  0
 67 79  1  0  0  0  0
 69 71  1  0  0  0  0
M  CHG  2  79   1  80   1
M  ISO  4  37 100  64 101  76 100  87 101
M  END
> <Batch ID>
0149

> <Smiles>
CNC(C)C(=O)NC(C(=O)N1Cc2cc([101O:1][101CH2:1]CC(C3CC3)N3CCc4c([100NH:0][100C:0](=O)N5CCCC(n6nc(-c7ccc(Oc8ccc(F)cc8F)cc7)c(C(N)=O)c6N)C5)nc(C)c(C)c4C3)ccc2CC1C(=O)NC1CCCc2ccccc21)C(C)(C)C

> <Shape>
0.209

> <Color>
0.053

> <Negative vol penalty>
0.000

$$$$

  -OEChem-04052321383D

 89 98  0     1  0  0  0  0  0999 V2000
  -16.4840  -29.0251   23.8680 C   0  0  0  0  0  0  0  0  0  0  0  0
  -17.3692  -27.9561   23.9634 C   0  0  0  0  0  0  0  0  0  0  0  0
  -23.9354  -13.8668   19.7859 C   0  0  0  0  0  0  0  0  0  0  0  0
  -26.1189  -14.1302   20.7859 C   0  0  0  0  0  0  0  0  0  0  0  0
  -16.9263  -30.2534   23.3784 C   0  0  0  0  0  0  0  0  0  0  0  0
  -18.6970  -28.1145   23.5682 C   0  0  0  0  0  0  0  0  0  0  0  0
  -23.6236  -25.4780   26.0749 C   0  0  0  0  0  0  0  0  0  0  0  0
  -24.0584  -12.4808   19.8823 C   0  0  0  0  0  0  0  0  0  0  0  0
  -26.2419  -12.7441   20.8823 C   0  0  0  0  0  0  0  0  0  0  0  0
  -24.3721  -24.3576   25.7170 C   0  0  0  0  0  0  0  0  0  0  0  0
  -23.7439  -10.1126   22.2752 C   0  0  0  0  0  0  0  0  0  0  0  0
  -22.6468   -9.3962   22.7533 C   0  0  0  0  0  0  0  0  0  0  0  0
  -28.0218  -20.5459   21.3856 C   0  0  0  0  0  0  0  0  0  0  0  0
  -25.9440  -25.7822   24.5685 C   0  0  0  0  0  0  0  0  0  0  0  0
  -27.9369  -22.8048   20.5497 C   0  0  0  0  0  0  0  0  0  0  0  0
  -22.5459   -8.1651   20.6769 C   0  0  0  0  0  0  0  0  0  0  0  0
  -24.9657  -14.6916   20.2376 C   0  0  0  0  0  0  0  0  0  0  0  0
  -24.2949  -16.9978   21.0973 C   0  0  0  0  0  0  0  0  0  0  0  0
  -18.2625  -30.4296   22.9861 C   0  0  0  0  0  0  0  0  0  0  0  0
  -24.0244  -26.7601   25.6725 C   0  0  0  0  0  0  0  0  0  0  0  0
  -19.1573  -29.3459   23.0717 C   0  0  0  0  0  0  0  0  0  0  0  0
  -29.1257  -20.2622   20.5645 C   0  0  0  0  0  0  0  0  0  0  0  0
  -25.2002  -26.9175   24.9249 C   0  0  0  0  0  0  0  0  0  0  0  0
  -29.6436  -21.2713   19.7305 C   0  0  0  0  0  0  0  0  0  0  0  0
  -25.2116  -11.9194   20.4306 C   0  0  0  0  0  0  0  0  0  0  0  0
  -25.5310  -24.5093   24.9612 C   0  0  0  0  0  0  0  0  0  0  0  0
  -24.2421   -9.8553   20.9980 C   0  0  0  0  0  0  0  0  0  0  0  0
  -27.4284  -21.8073   21.3742 C   0  0  0  0  0  0  0  0  0  0  0  0
  -29.0369  -22.5397   19.7349 C   0  0  0  0  0  0  0  0  0  0  0  0
  -22.0478   -8.4224   21.9542 C   0  0  0  0  0  0  0  0  0  0  0  0
  -23.6431   -8.8815   20.1988 C   0  0  0  0  0  0  0  0  0  0  0  0
  -24.8395  -16.1234   20.1378 C   0  0  0  0  0  0  0  0  0  0  0  0
  -24.4058  -18.2433   20.5290 C   0  0  0  0  0  0  0  0  0  0  0  0
  -23.7385  -16.7099   22.3869 C   0  0  0  0  0  0  0  0  0  0  0  0
  -22.7544  -29.0416   23.8599 C   0  0  0  0  0  0  0  0  0  0  0  0
  -25.3236  -30.7399   24.8781 C   0  0  0  0  0  0  0  0  0  0  0  0
  -28.5090  -30.7204   26.1028 C   0  0  0  0  0  0  0  0  0  0  0  0
  -28.0767  -20.5213   16.3834 C   0  0  0  0  0  0  0  0  0  0  0  0
  -18.6828  -31.7624   22.4187 C   0  0  0  0  0  0  0  0  0  0  0  0
  -23.2204  -27.9610   26.0894 C   0  0  0  0  0  0  0  0  0  0  0  0
  -29.7613  -18.8987   20.6648 C   0  0  0  0  0  0  0  0  0  0  0  0
  -25.6846  -28.2740   24.4849 C   0  0  0  0  0  0  0  0  0  0  0  0
  -20.1964  -31.9548   22.3726 C   0  0  0  0  0  0  0  0  0  0  0  0
  -30.7449  -18.5871   19.5385 C   0  0  0  0  0  0  0  0  0  0  0  0
  -24.5195  -20.4189   16.2694 C   0  0  0  0  0  0  0  0  0  0  0  0
  -20.8749  -30.7151   21.7985 C   0  0  0  0  0  0  0  0  0  0  0  0
  -24.1490  -19.3853   17.3345 C   0  0  0  0  0  0  0  0  0  0  0  0
  -25.8012  -20.0358   15.5329 C   0  0  0  0  0  0  0  0  0  0  0  0
  -26.5890  -18.7318   17.4701 C   0  0  0  0  0  0  0  0  0  0  0  0
  -30.8248  -21.0224   18.8064 C   0  0  1  0  0  0  0  0  0  0  0  0
  -20.6113  -29.4856   22.6762 C   0  0  1  0  0  0  0  0  0  0  0  0
  -23.4438  -29.1717   25.1886 C   0  0  1  0  0  0  0  0  0  0  0  0
  -25.3337  -19.1031   18.2780 C   0  0  2  0  0  0  0  0  0  0  0  0
  -31.6404  -19.7750   19.1956 C   0  0  1  0  0  0  0  0  0  0  0  0
  -30.3608  -32.2637   26.8003 C   0  0  0  0  0  0  0  0  0  0  0  0
  -31.3471  -20.1792   16.4980 C   0  0  0  0  0  0  0  0  0  0  0  0
  -25.9584  -31.2992   21.9465 C   0  0  0  0  0  0  0  0  0  0  0  0
  -28.2583  -31.9953   22.6495 C   0  0  0  0  0  0  0  0  0  0  0  0
  -26.2693  -33.2557   23.4729 C   0  0  0  0  0  0  0  0  0  0  0  0
  -28.4882  -29.6811   28.8738 C   0  0  0  0  0  0  0  0  0  0  0  0
  -30.5074  -24.3974   19.5291 C   0  0  0  0  0  0  0  0  0  0  0  0
  -25.5561  -22.1902   24.4348 C   0  0  0  0  0  0  0  0  0  1  0  0
  -26.2790  -21.3449   23.4041 C   0  0  0  0  0  0  0  0  0  0  0  0
  -26.7352  -30.9434   24.3829 C   0  0  1  0  0  0  0  0  0  0  0  0
  -29.1483  -31.4684   27.2588 C   0  0  2  0  0  0  0  0  0  0  0  0
  -30.3271  -20.9031   17.3575 C   0  0  1  0  0  0  0  0  0  0  0  0
  -26.7954  -31.8475   23.1194 C   0  0  0  0  0  0  0  0  0  0  0  0
  -25.2647  -16.7595   19.0429 N   0  0  0  0  0  0  0  0  0  0  0  0
  -24.9872  -18.0468   19.3110 N   0  0  0  0  0  0  0  0  0  0  0  0
  -24.8607  -29.4169   24.9122 N   0  0  0  0  0  0  0  0  0  0  0  0
  -26.8859  -19.7831   16.4845 N   0  0  0  0  0  0  0  0  0  0  0  0
  -24.0617  -19.4764   20.9574 N   0  0  0  0  0  0  0  0  0  0  0  0
  -23.7019  -15.3762   22.8162 N   0  0  0  0  0  0  0  0  0  0  0  0
  -21.4555  -29.5131   23.8514 N   0  0  0  0  0  0  0  0  0  0  0  0
  -27.4968  -31.4520   25.5185 N   0  0  0  0  0  0  0  0  0  0  0  0
  -29.0510  -20.2238   17.3283 N   0  0  0  0  0  0  0  0  0  0  0  0
  -32.5019  -20.1008   20.3731 N   0  3  0  0  0  0  0  0  0  0  0  0
  -29.5852  -30.5129   28.3157 N   0  3  0  0  0  0  0  0  0  0  0  0
  -23.2722  -17.6069   23.1296 O   0  0  0  0  0  0  0  0  0  0  0  0
  -23.3568  -28.5511   22.9121 O   0  0  0  0  0  0  0  0  0  0  0  0
  -24.6589  -31.7181   25.2287 O   0  0  0  0  0  0  0  0  0  0  0  0
  -28.8737  -29.6007   25.7509 O   0  0  0  0  0  0  0  0  0  0  0  0
  -28.2560  -21.3854   15.5185 O   0  0  0  0  0  0  0  0  0  0  0  0
  -25.3319  -10.5669   20.5251 O   0  0  0  0  0  0  0  0  0  0  0  0
  -29.5133  -23.5538   18.9545 O   0  0  0  0  0  0  0  0  0  0  0  0
  -26.2631  -23.4173   24.6099 O   0  0  0  0  0  0  0  0  0  1  0  0
  -26.3508  -22.0655   22.1799 O   0  0  0  0  0  0  0  0  0  0  0  0
  -20.9952   -7.7334   22.4140 F   0  0  0  0  0  0  0  0  0  0  0  0
  -24.1179   -8.6291   18.9714 F   0  0  0  0  0  0  0  0  0  0  0  0
  1  2  1  0  0  0  0
  1  5  2  0  0  0  0
  2  6  2  0  0  0  0
  3  8  2  0  0  0  0
  3 17  1  0  0  0  0
  4  9  1  0  0  0  0
  4 17  2  0  0  0  0
  5 19  1  0  0  0  0
  6 21  1  0  0  0  0
  7 10  2  0  0  0  0
  7 20  1  0  0  0  0
  8 25  1  0  0  0  0
  9 25  2  0  0  0  0
 10 26  1  0  0  0  0
 11 12  2  0  0  0  0
 11 27  1  0  0  0  0
 12 30  1  0  0  0  0
 13 22  2  0  0  0  0
 13 28  1  0  0  0  0
 14 23  1  0  0  0  0
 14 26  2  0  0  0  0
 15 28  2  0  0  0  0
 15 29  1  0  0  0  0
 16 30  2  0  0  0  0
 16 31  1  0  0  0  0
 17 32  1  0  0  0  0
 18 32  1  0  0  0  0
 18 33  2  0  0  0  0
 18 34  1  0  0  0  0
 19 21  2  0  0  0  0
 19 39  1  0  0  0  0
 20 23  2  0  0  0  0
 20 40  1  0  0  0  0
 21 51  1  0  0  0  0
 22 24  1  0  0  0  0
 22 41  1  0  0  0  0
 23 42  1  0  0  0  0
 24 29  2  0  0  0  0
 24 50  1  0  0  0  0
 25 84  1  0  0  0  0
 26 86  1  0  0  0  0
 27 31  2  0  0  0  0
 27 84  1  0  0  0  0
 28 87  1  0  0  0  0
 29 85  1  0  0  0  0
 30 88  1  0  0  0  0
 31 89  1  0  0  0  0
 32 68  2  0  0  0  0
 33 69  1  0  0  0  0
 33 72  1  0  0  0  0
 34 73  1  0  0  0  0
 34 79  2  0  0  0  0
 35 52  1  0  0  0  0
 35 74  1  0  0  0  0
 35 80  2  0  0  0  0
 36 64  1  0  0  0  0
 36 70  1  0  0  0  0
 36 81  2  0  0  0  0
 37 65  1  0  0  0  0
 37 75  1  0  0  0  0
 37 82  2  0  0  0  0
 38 71  1  0  0  0  0
 38 76  1  0  0  0  0
 38 83  2  0  0  0  0
 39 43  1  0  0  0  0
 40 52  1  0  0  0  0
 41 44  1  0  0  0  0
 42 70  1  0  0  0  0
 43 46  1  0  0  0  0
 44 54  1  0  0  0  0
 45 47  1  0  0  0  0
 45 48  1  0  0  0  0
 46 51  1  0  0  0  0
 47 53  1  0  0  0  0
 48 71  1  0  0  0  0
 49 53  1  0  0  0  0
 49 71  1  0  0  0  0
 50 54  1  0  0  0  0
 50 66  1  0  0  0  0
 51 74  1  0  0  0  0
 52 70  1  0  0  0  0
 53 69  1  0  0  0  0
 54 77  1  0  0  0  0
 55 65  1  0  0  0  0
 56 66  1  0  0  0  0
 57 67  1  0  0  0  0
 58 67  1  0  0  0  0
 59 67  1  0  0  0  0
 60 78  1  0  0  0  0
 61 85  1  0  0  0  0
 62 63  1  0  0  0  0
 62 86  1  0  0  0  0
 63 87  1  0  0  0  0
 64 67  1  0  0  0  0
 64 75  1  0  0  0  0
 65 78  1  0  0  0  0
 66 76  1  0  0  0  0
 68 69  1  0  0  0  0
M  CHG  2  77   1  78   1
M  ISO  4  38 100  62 101  76 100  86 101
M  END
> <Batch ID>
0149

> <Smiles>
CNC(C)C(=O)NC(C(=O)N1Cc2cc([101O:1][101CH2:1]COc3cc4c(c(OC)c3)C(C(C)[100NH:0][100C:0](=O)N3CCCC(n5nc(-c6ccc(Oc7ccc(F)cc7F)cc6)c(C(N)=O)c5N)C3)C(N)CC4)ccc2CC1C(=O)NC1CCCc2ccccc21)C(C)(C)C

> <Shape>
0.229

> <Color>
0.076

> <Negative vol penalty>
0.000

$$$$

  -OEChem-04052321383D

 89 98  0     1  0  0  0  0  0999 V2000
  -25.0873  -19.4940   26.1839 C   0  0  0  0  0  0  0  0  0  0  0  0
  -25.1369  -20.7754   25.6445 C   0  0  0  0  0  0  0  0  0  0  0  0
  -25.4809  -15.4808   21.6660 C   0  0  0  0  0  0  0  0  0  0  0  0
  -24.7509  -16.5616   19.6323 C   0  0  0  0  0  0  0  0  0  0  0  0
  -24.3359  -18.5025   25.5545 C   0  0  0  0  0  0  0  0  0  0  0  0
  -24.4359  -21.0657   24.4745 C   0  0  0  0  0  0  0  0  0  0  0  0
  -21.9309  -25.4582   24.7499 C   0  0  0  0  0  0  0  0  0  0  0  0
  -24.2673  -14.7972   21.7383 C   0  0  0  0  0  0  0  0  0  0  0  0
  -23.5373  -15.8779   19.7046 C   0  0  0  0  0  0  0  0  0  0  0  0
  -22.6740  -26.6264   24.5859 C   0  0  0  0  0  0  0  0  0  0  0  0
  -22.8377  -12.0993   20.2856 C   0  0  0  0  0  0  0  0  0  0  0  0
  -22.8778  -10.7371   20.5830 C   0  0  0  0  0  0  0  0  0  0  0  0
  -21.9305  -26.7707   22.2956 C   0  0  0  0  0  0  0  0  0  0  0  0
  -21.5438  -11.1293   22.5588 C   0  0  0  0  0  0  0  0  0  0  0  0
  -28.7181  -26.5292   18.4213 C   0  0  0  0  0  0  0  0  0  0  0  0
  -25.7228  -16.3631   20.6130 C   0  0  0  0  0  0  0  0  0  0  0  0
  -28.1528  -16.6479   19.8910 C   0  0  0  0  0  0  0  0  0  0  0  0
  -23.6175  -18.7834   24.3816 C   0  0  0  0  0  0  0  0  0  0  0  0
  -21.1894  -24.9307   23.6829 C   0  0  0  0  0  0  0  0  0  0  0  0
  -23.6753  -20.0767   23.8280 C   0  0  0  0  0  0  0  0  0  0  0  0
  -21.1768  -25.5971   22.4493 C   0  0  0  0  0  0  0  0  0  0  0  0
  -27.5748  -28.3512   20.1186 C   0  0  0  0  0  0  0  0  0  0  0  0
  -29.1456  -26.5512   19.7347 C   0  0  0  0  0  0  0  0  0  0  0  0
  -28.5604  -27.4760   20.5899 C   0  0  0  0  0  0  0  0  0  0  0  0
  -23.2955  -14.9956   20.7576 C   0  0  0  0  0  0  0  0  0  0  0  0
  -22.6763  -27.2812   23.3578 C   0  0  0  0  0  0  0  0  0  0  0  0
  -22.1507  -12.9765   21.1248 C   0  0  0  0  0  0  0  0  0  0  0  0
  -22.2308  -10.2521   21.7196 C   0  0  0  0  0  0  0  0  0  0  0  0
  -21.5037  -12.4915   22.2614 C   0  0  0  0  0  0  0  0  0  0  0  0
  -26.9760  -17.0701   20.5380 C   0  0  0  0  0  0  0  0  0  0  0  0
  -27.2056  -28.2460   18.7736 C   0  0  0  0  0  0  0  0  0  0  0  0
  -29.0488  -17.6658   20.1094 C   0  0  0  0  0  0  0  0  0  0  0  0
  -28.4128  -15.4433   19.1581 C   0  0  0  0  0  0  0  0  0  0  0  0
  -21.2516  -22.2132   22.0352 C   0  0  0  0  0  0  0  0  0  0  0  0
  -18.5720  -23.4321   20.6727 C   0  0  0  0  0  0  0  0  0  0  0  0
  -16.7166  -26.1870   19.8887 C   0  0  0  0  0  0  0  0  0  0  0  0
  -29.1789  -23.3502   20.3964 C   0  0  0  0  0  0  0  0  0  0  0  0
  -22.8574  -17.6666   23.7109 C   0  0  0  0  0  0  0  0  0  0  0  0
  -20.3717  -23.6843   23.8838 C   0  0  0  0  0  0  0  0  0  0  0  0
  -20.3812  -25.0830   21.2783 C   0  0  0  0  0  0  0  0  0  0  0  0
  -26.1979  -29.1795   18.1579 C   0  0  0  0  0  0  0  0  0  0  0  0
  -21.8416  -18.1540   22.6809 C   0  0  0  0  0  0  0  0  0  0  0  0
  -25.3451  -29.9335   19.1762 C   0  0  0  0  0  0  0  0  0  0  0  0
  -29.4152  -21.3412   23.3973 C   0  0  0  0  0  0  0  0  0  0  0  0
  -22.4667  -19.2071   21.7716 C   0  0  0  0  0  0  0  0  0  0  0  0
  -28.9205  -19.9838   22.8943 C   0  0  0  0  0  0  0  0  0  0  0  0
  -28.6388  -22.4859   22.7531 C   0  0  0  0  0  0  0  0  0  0  0  0
  -28.1573  -21.1213   20.7581 C   0  0  0  0  0  0  0  0  0  0  0  0
  -22.9085  -20.4369   22.5740 C   0  0  1  0  0  0  0  0  0  0  0  0
  -26.9154  -29.3246   21.0649 C   0  0  1  0  0  0  0  0  0  0  0  0
  -20.0638  -22.9550   22.5797 C   0  0  1  0  0  0  0  0  0  0  0  0
  -26.1788  -30.4758   20.3457 C   0  0  1  0  0  0  0  0  0  0  0  0
  -28.9180  -19.9235   21.3553 C   0  0  2  0  0  0  0  0  0  0  0  0
  -29.0104  -27.5178   22.0181 C   0  0  0  0  0  0  0  0  0  0  0  0
  -14.5924  -26.8698   18.7402 C   0  0  0  0  0  0  0  0  0  0  0  0
  -26.5194  -32.4432   18.8235 C   0  0  0  0  0  0  0  0  0  0  0  0
  -27.6364  -32.3868   21.0714 C   0  0  0  0  0  0  0  0  0  0  0  0
  -19.8952  -22.9783   17.9611 C   0  0  0  0  0  0  0  0  0  0  0  0
  -18.1921  -24.5108   16.9516 C   0  0  0  0  0  0  0  0  0  0  0  0
  -17.4658  -22.3909   18.0477 C   0  0  0  0  0  0  0  0  0  0  0  0
  -15.6181  -27.3684   22.3700 C   0  0  0  0  0  0  0  0  0  0  0  0
  -30.1995  -25.6026   20.1908 C   0  0  0  0  0  0  0  0  0  0  0  0
  -25.6230  -29.3414   23.2022 C   0  0  0  0  0  0  0  0  0  0  0  0
  -24.5856  -28.5555   23.9796 C   0  0  0  0  0  0  0  0  0  1  0  0
  -18.2841  -24.3086   19.4778 C   0  0  1  0  0  0  0  0  0  0  0  0
  -15.2392  -26.4893   20.0630 C   0  0  2  0  0  0  0  0  0  0  0  0
  -27.1650  -31.5574   19.8827 C   0  0  0  0  0  0  0  0  0  0  0  0
  -18.4760  -23.5560   18.1308 C   0  0  0  0  0  0  0  0  0  0  0  0
  -27.7703  -27.3518   17.9219 N   0  0  0  0  0  0  0  0  0  0  0  0
  -27.1092  -18.2631   21.1236 N   0  0  0  0  0  0  0  0  0  0  0  0
  -28.3803  -18.5993   20.8455 N   0  0  0  0  0  0  0  0  0  0  0  0
  -19.6028  -23.8575   21.5226 N   0  0  0  0  0  0  0  0  0  0  0  0
  -28.6913  -22.3804   21.2881 N   0  0  0  0  0  0  0  0  0  0  0  0
  -30.3354  -17.8444   19.7416 N   0  0  0  0  0  0  0  0  0  0  0  0
  -27.3811  -14.5034   19.0299 N   0  0  0  0  0  0  0  0  0  0  0  0
  -21.7672  -21.2654   22.8986 N   0  0  0  0  0  0  0  0  0  0  0  0
  -16.9414  -24.8430   19.6777 N   0  0  0  0  0  0  0  0  0  0  0  0
  -29.6602  -24.5165   20.9785 N   0  0  0  0  0  0  0  0  0  0  0  0
  -25.9259  -28.6319   21.9337 N   0  3  0  0  0  0  0  0  0  0  0  0
  -15.0504  -27.6162   21.0197 N   0  3  0  0  0  0  0  0  0  0  0  0
  -29.5321  -15.2001   18.6465 O   0  0  0  0  0  0  0  0  0  0  0  0
  -21.6686  -22.4798   20.9141 O   0  0  0  0  0  0  0  0  0  0  0  0
  -17.9021  -22.4115   20.8495 O   0  0  0  0  0  0  0  0  0  0  0  0
  -17.5840  -27.0566   19.9316 O   0  0  0  0  0  0  0  0  0  0  0  0
  -29.1896  -23.1867   19.1716 O   0  0  0  0  0  0  0  0  0  0  0  0
  -22.1112  -14.3285   20.8277 O   0  0  0  0  0  0  0  0  0  0  0  0
  -23.4013  -28.4213   23.1949 O   0  0  0  0  0  0  0  0  0  1  0  0
  -22.2681   -8.9437   22.0042 F   0  0  0  0  0  0  0  0  0  0  0  0
  -20.8412  -13.3292   23.0707 F   0  0  0  0  0  0  0  0  0  0  0  0
  1  2  1  0  0  0  0
  1  5  2  0  0  0  0
  2  6  2  0  0  0  0
  3  8  2  0  0  0  0
  3 16  1  0  0  0  0
  4  9  1  0  0  0  0
  4 16  2  0  0  0  0
  5 18  1  0  0  0  0
  6 20  1  0  0  0  0
  7 10  2  0  0  0  0
  7 19  1  0  0  0  0
  8 25  1  0  0  0  0
  9 25  2  0  0  0  0
 10 26  1  0  0  0  0
 11 12  2  0  0  0  0
 11 27  1  0  0  0  0
 12 28  1  0  0  0  0
 13 21  1  0  0  0  0
 13 26  2  0  0  0  0
 14 28  2  0  0  0  0
 14 29  1  0  0  0  0
 15 23  2  0  0  0  0
 15 69  1  0  0  0  0
 16 30  1  0  0  0  0
 17 30  1  0  0  0  0
 17 32  2  0  0  0  0
 17 33  1  0  0  0  0
 18 20  2  0  0  0  0
 18 38  1  0  0  0  0
 19 21  2  0  0  0  0
 19 39  1  0  0  0  0
 20 49  1  0  0  0  0
 21 40  1  0  0  0  0
 22 24  2  0  0  0  0
 22 31  1  0  0  0  0
 22 50  1  0  0  0  0
 23 24  1  0  0  0  0
 23 62  1  0  0  0  0
 24 54  1  0  0  0  0
 25 86  1  0  0  0  0
 26 87  1  0  0  0  0
 27 29  2  0  0  0  0
 27 86  1  0  0  0  0
 28 88  1  0  0  0  0
 29 89  1  0  0  0  0
 30 70  2  0  0  0  0
 31 41  1  0  0  0  0
 31 69  2  0  0  0  0
 32 71  1  0  0  0  0
 32 74  1  0  0  0  0
 33 75  1  0  0  0  0
 33 81  2  0  0  0  0
 34 51  1  0  0  0  0
 34 76  1  0  0  0  0
 34 82  2  0  0  0  0
 35 65  1  0  0  0  0
 35 72  1  0  0  0  0
 35 83  2  0  0  0  0
 36 66  1  0  0  0  0
 36 77  1  0  0  0  0
 36 84  2  0  0  0  0
 37 73  1  0  0  0  0
 37 78  1  0  0  0  0
 37 85  2  0  0  0  0
 38 42  1  0  0  0  0
 39 51  1  0  0  0  0
 40 72  1  0  0  0  0
 41 43  1  0  0  0  0
 42 45  1  0  0  0  0
 43 52  1  0  0  0  0
 44 46  1  0  0  0  0
 44 47  1  0  0  0  0
 45 49  1  0  0  0  0
 46 53  1  0  0  0  0
 47 73  1  0  0  0  0
 48 53  1  0  0  0  0
 48 73  1  0  0  0  0
 49 76  1  0  0  0  0
 50 52  1  0  0  0  0
 50 79  1  0  0  0  0
 51 72  1  0  0  0  0
 52 67  1  0  0  0  0
 53 71  1  0  0  0  0
 55 66  1  0  0  0  0
 56 67  1  0  0  0  0
 57 67  1  0  0  0  0
 58 68  1  0  0  0  0
 59 68  1  0  0  0  0
 60 68  1  0  0  0  0
 61 80  1  0  0  0  0
 62 78  1  0  0  0  0
 63 64  1  0  0  0  0
 63 79  1  0  0  0  0
 64 87  1  0  0  0  0
 65 68  1  0  0  0  0
 65 77  1  0  0  0  0
 66 80  1  0  0  0  0
 70 71  1  0  0  0  0
M  CHG  2  79   1  80   1
M  ISO  4  37 100  64 101  78 100  87 101
M  END
> <Batch ID>
0149

> <Smiles>
CNC(C)C(=O)NC(C(=O)N1Cc2cc([101O:1][101CH2:1]CNC3c4c(ncc(C[100NH:0][100C:0](=O)N5CCCC(n6nc(-c7ccc(Oc8ccc(F)cc8F)cc7)c(C(N)=O)c6N)C5)c4C)CCC3C(C)C)ccc2CC1C(=O)NC1CCCc2ccccc21)C(C)(C)C

> <Shape>
0.192

> <Color>
0.067

> <Negative vol penalty>
0.000

$$$$

  -OEChem-04052321383D

 92102  0     1  0  0  0  0  0999 V2000
  -32.5970  -31.4416   22.6625 C   0  0  0  0  0  0  0  0  0  0  0  0
  -31.7529  -30.3660   22.4054 C   0  0  0  0  0  0  0  0  0  0  0  0
  -23.3123  -10.2082   22.2760 C   0  0  0  0  0  0  0  0  0  0  0  0
  -23.6608   -9.4108   20.0222 C   0  0  0  0  0  0  0  0  0  0  0  0
  -32.1684  -32.4811   23.4868 C   0  0  0  0  0  0  0  0  0  0  0  0
  -30.4800  -30.3289   22.9735 C   0  0  0  0  0  0  0  0  0  0  0  0
  -26.9125  -28.9419   19.6577 C   0  0  0  0  0  0  0  0  0  0  0  0
  -22.5841   -9.0558   22.5712 C   0  0  0  0  0  0  0  0  0  0  0  0
  -22.9325   -8.2583   20.3173 C   0  0  0  0  0  0  0  0  0  0  0  0
  -26.8121  -27.5832   19.3617 C   0  0  0  0  0  0  0  0  0  0  0  0
  -19.4643   -7.8740   22.0283 C   0  0  0  0  0  0  0  0  0  0  0  0
  -18.2654   -8.0265   22.7247 C   0  0  0  0  0  0  0  0  0  0  0  0
  -24.9487  -27.3957   20.8822 C   0  0  0  0  0  0  0  0  0  0  0  0
  -27.5779  -21.1464   21.5965 C   0  0  0  0  0  0  0  0  0  0  0  0
  -19.1257   -6.6427   24.5086 C   0  0  0  0  0  0  0  0  0  0  0  0
  -23.8506  -10.3857   21.0015 C   0  0  0  0  0  0  0  0  0  0  0  0
  -24.1483  -12.9073   20.7554 C   0  0  0  0  0  0  0  0  0  0  0  0
  -30.8860  -32.4614   24.0575 C   0  0  0  0  0  0  0  0  0  0  0  0
  -26.0373  -29.5364   20.5780 C   0  0  0  0  0  0  0  0  0  0  0  0
  -30.0343  -31.3686   23.8073 C   0  0  0  0  0  0  0  0  0  0  0  0
  -25.0385  -28.7627   21.1863 C   0  0  0  0  0  0  0  0  0  0  0  0
  -25.2918  -20.4100   22.9265 C   0  0  0  0  0  0  0  0  0  0  0  0
  -26.3434  -19.5325   22.8100 C   0  0  0  0  0  0  0  0  0  0  0  0
  -25.3358  -21.6774   22.3936 C   0  0  0  0  0  0  0  0  0  0  0  0
  -27.5031  -19.8659   22.1508 C   0  0  0  0  0  0  0  0  0  0  0  0
  -22.3942   -8.0808   21.5919 C   0  0  0  0  0  0  0  0  0  0  0  0
  -25.8320  -26.8093   19.9761 C   0  0  0  0  0  0  0  0  0  0  0  0
  -20.4939   -7.1058   22.5719 C   0  0  0  0  0  0  0  0  0  0  0  0
  -26.5012  -22.0463   21.7171 C   0  0  0  0  0  0  0  0  0  0  0  0
  -18.0961   -7.4109   23.9649 C   0  0  0  0  0  0  0  0  0  0  0  0
  -20.3246   -6.4902   23.8121 C   0  0  0  0  0  0  0  0  0  0  0  0
  -24.6026  -11.5762   20.6958 C   0  0  0  0  0  0  0  0  0  0  0  0
  -25.2333  -13.6579   20.3735 C   0  0  0  0  0  0  0  0  0  0  0  0
  -22.8606  -13.4196   21.1233 C   0  0  0  0  0  0  0  0  0  0  0  0
  -26.3827  -31.0048   23.3759 C   0  0  0  0  0  0  0  0  0  0  0  0
  -23.2067  -31.5677   23.0314 C   0  0  0  0  0  0  0  0  0  0  0  0
  -20.3122  -29.7271   21.9130 C   0  0  0  0  0  0  0  0  0  0  0  0
  -30.6927  -14.7914   20.6089 C   0  0  0  0  0  0  0  0  0  0  0  0
  -30.4847  -33.5850   24.9800 C   0  0  0  0  0  0  0  0  0  0  0  0
  -26.1416  -31.0089   20.8664 C   0  0  0  0  0  0  0  0  0  0  0  0
  -25.6450  -18.4392   23.5651 C   0  0  0  0  0  0  0  0  0  0  0  0
  -24.0613  -29.3573   22.1661 C   0  0  0  0  0  0  0  0  0  0  0  0
  -28.9822  -33.6514   25.2413 C   0  0  0  0  0  0  0  0  0  0  0  0
  -29.6456  -12.2641   18.3300 C   0  0  0  0  0  0  0  0  0  0  0  0
  -28.4345  -32.2646   25.5633 C   0  0  0  0  0  0  0  0  0  0  0  0
  -28.2057  -11.9656   18.7513 C   0  0  0  0  0  0  0  0  0  0  0  0
  -30.4259  -18.0753   20.6756 C   0  0  0  0  0  0  0  0  0  0  0  0
  -30.2372  -17.4949   23.1043 C   0  0  0  0  0  0  0  0  0  0  0  0
  -30.5351  -12.5650   19.5343 C   0  0  0  0  0  0  0  0  0  0  0  0
  -28.9801  -18.5723   20.6822 C   0  0  0  0  0  0  0  0  0  0  0  0
  -28.7872  -17.9795   23.1065 C   0  0  0  0  0  0  0  0  0  0  0  0
  -28.5937  -13.3303   20.8454 C   0  0  0  0  0  0  0  0  0  0  0  0
  -24.4432  -19.4432   23.7103 C   0  0  2  0  0  0  0  0  0  0  0  0
  -28.6371  -31.3042   24.3851 C   0  0  1  0  0  0  0  0  0  0  0  0
  -25.5264  -31.4004   22.2064 C   0  0  1  0  0  0  0  0  0  0  0  0
  -27.6459  -13.0758   19.6609 C   0  0  2  0  0  0  0  0  0  0  0  0
  -30.6950  -17.0044   21.7322 C   0  0  0  0  0  0  0  0  0  0  0  0
  -23.1500  -19.0406   23.0234 C   0  0  0  0  0  0  0  0  0  0  0  0
  -23.2625  -24.6395   23.7472 C   0  0  0  0  0  0  0  0  0  0  0  0
  -18.1585  -30.5286   20.9047 C   0  0  0  0  0  0  0  0  0  0  0  0
  -22.1739  -31.4995   25.9017 C   0  0  0  0  0  0  0  0  0  0  0  0
  -19.9878  -30.6546   25.0212 C   0  0  0  0  0  0  0  0  0  0  0  0
  -20.8192  -32.9053   24.3387 C   0  0  0  0  0  0  0  0  0  0  0  0
  -20.6411  -27.9885   19.5407 C   0  0  0  0  0  0  0  0  0  0  0  0
  -24.1821  -22.6035   22.5427 C   0  0  0  0  0  0  0  0  0  0  0  0
  -24.4287  -23.6721   23.6209 C   0  0  0  0  0  0  0  0  0  0  0  0
  -26.9349  -24.8034   19.3312 C   0  0  0  0  0  0  0  0  0  1  0  0
  -26.8291  -23.3516   19.7564 C   0  0  0  0  0  0  0  0  0  0  0  0
  -21.9434  -30.8368   23.4170 C   0  0  1  0  0  0  0  0  0  0  0  0
  -19.5362  -29.9475   20.6271 C   0  0  2  0  0  0  0  0  0  0  0  0
  -21.2552  -31.4601   24.6642 C   0  0  0  0  0  0  0  0  0  0  0  0
  -25.8768  -11.4832   20.3064 N   0  0  0  0  0  0  0  0  0  0  0  0
  -26.2325  -12.7654   20.1179 N   0  0  0  0  0  0  0  0  0  0  0  0
  -28.5647  -18.9586   22.0374 N   0  0  0  0  0  0  0  0  0  0  0  0
  -24.2080  -30.8000   22.4200 N   0  0  0  0  0  0  0  0  0  0  0  0
  -29.9486  -13.6274   20.3548 N   0  0  0  0  0  0  0  0  0  0  0  0
  -25.4206  -14.9875   20.2346 N   0  0  0  0  0  0  0  0  0  0  0  0
  -21.8593  -12.5098   21.4891 N   0  0  0  0  0  0  0  0  0  0  0  0
  -27.6511  -31.5526   23.3553 N   0  0  0  0  0  0  0  0  0  0  0  0
  -21.1059  -30.8112   22.2227 N   0  0  0  0  0  0  0  0  0  0  0  0
  -30.0604  -15.7510   21.3899 N   0  0  0  0  0  0  0  0  0  0  0  0
  -19.3646  -28.6589   19.8983 N   0  3  0  0  0  0  0  0  0  0  0  0
  -22.6007  -14.6467   21.1116 O   0  0  0  0  0  0  0  0  0  0  0  0
  -25.9259  -30.2589   24.2343 O   0  0  0  0  0  0  0  0  0  0  0  0
  -23.2988  -32.7768   23.2578 O   0  0  0  0  0  0  0  0  0  0  0  0
  -20.2204  -28.6978   22.5783 O   0  0  0  0  0  0  0  0  0  0  0  0
  -31.8338  -14.9649   20.1677 O   0  0  0  0  0  0  0  0  0  0  0  0
  -21.6838   -6.9560   21.8796 O   0  0  0  0  0  0  0  0  0  0  0  0
  -25.7322  -25.4827   19.6894 O   0  0  0  0  0  0  0  0  0  1  0  0
  -26.6155  -23.2934   21.1615 O   0  0  0  0  0  0  0  0  0  0  0  0
  -16.9454   -7.5587   24.6343 F   0  0  0  0  0  0  0  0  0  0  0  0
  -21.3105   -5.7520   24.3400 F   0  0  0  0  0  0  0  0  0  0  0  0
  1  2  1  0  0  0  0
  1  5  2  0  0  0  0
  2  6  2  0  0  0  0
  3  8  2  0  0  0  0
  3 16  1  0  0  0  0
  4  9  1  0  0  0  0
  4 16  2  0  0  0  0
  5 18  1  0  0  0  0
  6 20  1  0  0  0  0
  7 10  2  0  0  0  0
  7 19  1  0  0  0  0
  8 26  1  0  0  0  0
  9 26  2  0  0  0  0
 10 27  1  0  0  0  0
 11 12  2  0  0  0  0
 11 28  1  0  0  0  0
 12 30  1  0  0  0  0
 13 21  1  0  0  0  0
 13 27  2  0  0  0  0
 14 25  1  0  0  0  0
 14 29  2  0  0  0  0
 15 30  2  0  0  0  0
 15 31  1  0  0  0  0
 16 32  1  0  0  0  0
 17 32  1  0  0  0  0
 17 33  2  0  0  0  0
 17 34  1  0  0  0  0
 18 20  2  0  0  0  0
 18 39  1  0  0  0  0
 19 21  2  0  0  0  0
 19 40  1  0  0  0  0
 20 54  1  0  0  0  0
 21 42  1  0  0  0  0
 22 23  1  0  0  0  0
 22 24  2  0  0  0  0
 22 53  1  0  0  0  0
 23 25  2  0  0  0  0
 23 41  1  0  0  0  0
 24 29  1  0  0  0  0
 24 65  1  0  0  0  0
 25 74  1  0  0  0  0
 26 88  1  0  0  0  0
 27 89  1  0  0  0  0
 28 31  2  0  0  0  0
 28 88  1  0  0  0  0
 29 90  1  0  0  0  0
 30 91  1  0  0  0  0
 31 92  1  0  0  0  0
 32 72  2  0  0  0  0
 33 73  1  0  0  0  0
 33 77  1  0  0  0  0
 34 78  1  0  0  0  0
 34 83  2  0  0  0  0
 35 55  1  0  0  0  0
 35 79  1  0  0  0  0
 35 84  2  0  0  0  0
 36 69  1  0  0  0  0
 36 75  1  0  0  0  0
 36 85  2  0  0  0  0
 37 70  1  0  0  0  0
 37 80  1  0  0  0  0
 37 86  2  0  0  0  0
 38 76  1  0  0  0  0
 38 81  1  0  0  0  0
 38 87  2  0  0  0  0
 39 43  1  0  0  0  0
 40 55  1  0  0  0  0
 41 53  1  0  0  0  0
 42 75  1  0  0  0  0
 43 45  1  0  0  0  0
 44 46  1  0  0  0  0
 44 49  1  0  0  0  0
 45 54  1  0  0  0  0
 46 56  1  0  0  0  0
 47 50  1  0  0  0  0
 47 57  1  0  0  0  0
 48 51  1  0  0  0  0
 48 57  1  0  0  0  0
 49 76  1  0  0  0  0
 50 74  1  0  0  0  0
 51 74  1  0  0  0  0
 52 56  1  0  0  0  0
 52 76  1  0  0  0  0
 53 58  1  0  0  0  0
 54 79  1  0  0  0  0
 55 75  1  0  0  0  0
 56 73  1  0  0  0  0
 57 81  1  0  0  0  0
 59 66  1  0  0  0  0
 60 70  1  0  0  0  0
 61 71  1  0  0  0  0
 62 71  1  0  0  0  0
 63 71  1  0  0  0  0
 64 82  1  0  0  0  0
 65 66  1  0  0  0  0
 67 68  1  0  0  0  0
 67 89  1  0  0  0  0
 68 90  1  0  0  0  0
 69 71  1  0  0  0  0
 69 80  1  0  0  0  0
 70 82  1  0  0  0  0
 72 73  1  0  0  0  0
M  CHG  1  82   1
M  ISO  4  38 100  67 101  81 100  89 101
M  END
> <Batch ID>
0149

> <Smiles>
CCCc1c(OC[101CH2:1][101O:1]c2ccc3c(c2)CN(C(=O)C(NC(=O)C(C)NC)C(C)(C)C)C(C(=O)NC2CCCc4ccccc42)C3)cc(N2CCC([100NH:0][100C:0](=O)N3CCCC(n4nc(-c5ccc(Oc6ccc(F)cc6F)cc5)c(C(N)=O)c4N)C3)CC2)c2c1C(C)C2

> <Shape>
0.304

> <Color>
0.234

> <Negative vol penalty>
0.000

$$$$

  -OEChem-04052321383D

 83 92  0     1  0  0  0  0  0999 V2000
  -17.6861  -23.5100   32.1945 C   0  0  0  0  0  0  0  0  0  0  0  0
  -18.7509  -23.1480   31.3757 C   0  0  0  0  0  0  0  0  0  0  0  0
  -23.1145   -9.8221   19.9708 C   0  0  0  0  0  0  0  0  0  0  0  0
  -23.7653   -9.9888   22.2916 C   0  0  0  0  0  0  0  0  0  0  0  0
  -16.6225  -24.2432   31.6698 C   0  0  0  0  0  0  0  0  0  0  0  0
  -18.7522  -23.5180   30.0312 C   0  0  0  0  0  0  0  0  0  0  0  0
  -29.8734  -19.2647   24.3213 C   0  0  0  0  0  0  0  0  0  0  0  0
  -28.0925  -17.7902   25.0222 C   0  0  0  0  0  0  0  0  0  0  0  0
  -23.2337  -25.3273   28.5186 C   0  0  0  0  0  0  0  0  0  0  0  0
  -22.3953   -8.6615   20.2559 C   0  0  0  0  0  0  0  0  0  0  0  0
  -23.0460   -8.8282   22.5766 C   0  0  0  0  0  0  0  0  0  0  0  0
  -29.2631  -20.3223   24.9954 C   0  0  0  0  0  0  0  0  0  0  0  0
  -27.4822  -18.8479   25.6964 C   0  0  0  0  0  0  0  0  0  0  0  0
  -24.2397  -24.3983   28.2565 C   0  0  0  0  0  0  0  0  0  0  0  0
  -23.4641   -5.4908   22.2336 C   0  0  0  0  0  0  0  0  0  0  0  0
  -24.0762   -4.5303   23.0389 C   0  0  0  0  0  0  0  0  0  0  0  0
  -23.7850  -24.5813   25.8945 C   0  0  0  0  0  0  0  0  0  0  0  0
  -22.2920   -4.7470   24.6535 C   0  0  0  0  0  0  0  0  0  0  0  0
  -23.7996  -10.4857   20.9887 C   0  0  0  0  0  0  0  0  0  0  0  0
  -24.0694  -13.0095   20.7326 C   0  0  0  0  0  0  0  0  0  0  0  0
  -29.2881  -17.9986   24.3346 C   0  0  0  0  0  0  0  0  0  0  0  0
  -16.6154  -24.6306   30.3206 C   0  0  0  0  0  0  0  0  0  0  0  0
  -22.4871  -25.8830   27.4697 C   0  0  0  0  0  0  0  0  0  0  0  0
  -17.6869  -24.2559   29.4877 C   0  0  0  0  0  0  0  0  0  0  0  0
  -22.7717  -25.5190   26.1458 C   0  0  0  0  0  0  0  0  0  0  0  0
  -22.3610   -8.1645   21.5588 C   0  0  0  0  0  0  0  0  0  0  0  0
  -28.0675  -20.1139   25.6830 C   0  0  0  0  0  0  0  0  0  0  0  0
  -24.5136  -24.0230   26.9445 C   0  0  0  0  0  0  0  0  0  0  0  0
  -22.2659   -6.0794   22.6383 C   0  0  0  0  0  0  0  0  0  0  0  0
  -23.4902   -4.1585   24.2488 C   0  0  0  0  0  0  0  0  0  0  0  0
  -21.6799   -5.7075   23.8482 C   0  0  0  0  0  0  0  0  0  0  0  0
  -24.5432  -11.6844   20.6947 C   0  0  0  0  0  0  0  0  0  0  0  0
  -25.1541  -13.7723   20.3745 C   0  0  0  0  0  0  0  0  0  0  0  0
  -22.7655  -13.5064   21.0621 C   0  0  0  0  0  0  0  0  0  0  0  0
  -19.4167  -25.8664   26.6474 C   0  0  0  0  0  0  0  0  0  0  0  0
  -20.4151  -27.9584   24.3782 C   0  0  0  0  0  0  0  0  0  0  0  0
  -22.9761  -29.1534   22.4651 C   0  0  0  0  0  0  0  0  0  0  0  0
  -30.6653  -14.8564   20.9300 C   0  0  0  0  0  0  0  0  0  0  0  0
  -15.4213  -25.3819   29.7874 C   0  0  0  0  0  0  0  0  0  0  0  0
  -21.4232  -26.9038   27.7671 C   0  0  0  0  0  0  0  0  0  0  0  0
  -22.0128  -26.1016   24.9826 C   0  0  0  0  0  0  0  0  0  0  0  0
  -15.6771  -26.0565   28.4421 C   0  0  0  0  0  0  0  0  0  0  0  0
  -29.6219  -12.4753   18.4453 C   0  0  0  0  0  0  0  0  0  0  0  0
  -16.3701  -25.0923   27.4846 C   0  0  0  0  0  0  0  0  0  0  0  0
  -28.1915  -12.1216   18.8389 C   0  0  0  0  0  0  0  0  0  0  0  0
  -30.4760  -12.7386   19.6782 C   0  0  0  0  0  0  0  0  0  0  0  0
  -29.0968  -15.7722   22.8171 C   0  0  0  0  0  0  0  0  0  0  0  0
  -30.6591  -17.0678   22.2055 C   0  0  0  0  0  0  0  0  0  0  0  0
  -28.4916  -13.5155   20.9480 C   0  0  0  0  0  0  0  0  0  0  0  0
  -29.9814  -16.7965   23.5684 C   0  0  0  0  0  0  0  0  0  0  0  0
  -17.7365  -24.6599   28.0301 C   0  0  1  0  0  0  0  0  0  0  0  0
  -20.3800  -27.0195   26.6601 C   0  0  1  0  0  0  0  0  0  0  0  0
  -27.5932  -13.2187   19.7309 C   0  0  2  0  0  0  0  0  0  0  0  0
  -23.4773  -30.8393   20.6751 C   0  0  0  0  0  0  0  0  0  0  0  0
  -19.0959  -26.1476   22.3068 C   0  0  0  0  0  0  0  0  0  0  0  0
  -20.4128  -27.3306   20.5363 C   0  0  0  0  0  0  0  0  0  0  0  0
  -18.7633  -28.5953   21.9156 C   0  0  0  0  0  0  0  0  0  0  0  0
  -24.9052  -30.5862   24.1927 C   0  0  0  0  0  0  0  0  0  0  0  0
  -26.2519  -20.8620   27.0246 C   0  0  0  0  0  0  0  0  0  0  0  0
  -25.7484  -22.1304   27.6857 C   0  0  0  0  0  0  0  0  0  1  0  0
  -20.9343  -27.8364   22.9659 C   0  0  1  0  0  0  0  0  0  0  0  0
  -23.4382  -30.5692   22.1712 C   0  0  2  0  0  0  0  0  0  0  0  0
  -19.8147  -27.4648   21.9530 C   0  0  0  0  0  0  0  0  0  0  0  0
  -25.8286  -11.6063   20.3404 N   0  0  0  0  0  0  0  0  0  0  0  0
  -26.1718  -12.8920   20.1522 N   0  0  0  0  0  0  0  0  0  0  0  0
  -20.9779  -27.0911   25.3253 N   0  0  0  0  0  0  0  0  0  0  0  0
  -29.8857  -13.7578   20.5512 N   0  0  0  0  0  0  0  0  0  0  0  0
  -30.1103  -15.7874   21.7760 N   0  0  0  0  0  0  0  0  0  0  0  0
  -25.3269  -15.1034   20.2312 N   0  0  0  0  0  0  0  0  0  0  0  0
  -21.7671  -12.5854   21.4075 N   0  0  0  0  0  0  0  0  0  0  0  0
  -18.7157  -25.7060   27.8274 N   0  0  0  0  0  0  0  0  0  0  0  0
  -21.6140  -29.0931   22.6709 N   0  0  0  0  0  0  0  0  0  0  0  0
  -24.8033  -30.7940   22.7253 N   0  3  0  0  0  0  0  0  0  0  0  0
  -22.4894  -14.7298   21.0347 O   0  0  0  0  0  0  0  0  0  0  0  0
  -19.3159  -25.1744   25.6411 O   0  0  0  0  0  0  0  0  0  0  0  0
  -19.5475  -28.7973   24.6332 O   0  0  0  0  0  0  0  0  0  0  0  0
  -23.7459  -28.1961   22.5042 O   0  0  0  0  0  0  0  0  0  0  0  0
  -31.8358  -14.9893   20.5486 O   0  0  0  0  0  0  0  0  0  0  0  0
  -21.6591   -7.0322   21.8373 O   0  0  0  0  0  0  0  0  0  0  0  0
  -27.4726  -21.1453   26.3422 O   0  0  0  0  0  0  0  0  0  0  0  0
  -25.5013  -23.1098   26.6842 O   0  0  0  0  0  0  0  0  0  1  0  0
  -24.0773   -3.2350   25.0213 F   0  0  0  0  0  0  0  0  0  0  0  0
  -20.5284   -6.2686   24.2418 F   0  0  0  0  0  0  0  0  0  0  0  0
  1  2  1  0  0  0  0
  1  5  2  0  0  0  0
  2  6  2  0  0  0  0
  3 10  2  0  0  0  0
  3 19  1  0  0  0  0
  4 11  1  0  0  0  0
  4 19  2  0  0  0  0
  5 22  1  0  0  0  0
  6 24  1  0  0  0  0
  7 12  2  0  0  0  0
  7 21  1  0  0  0  0
  8 13  1  0  0  0  0
  8 21  2  0  0  0  0
  9 14  2  0  0  0  0
  9 23  1  0  0  0  0
 10 26  1  0  0  0  0
 11 26  2  0  0  0  0
 12 27  1  0  0  0  0
 13 27  2  0  0  0  0
 14 28  1  0  0  0  0
 15 16  2  0  0  0  0
 15 29  1  0  0  0  0
 16 30  1  0  0  0  0
 17 25  1  0  0  0  0
 17 28  2  0  0  0  0
 18 30  2  0  0  0  0
 18 31  1  0  0  0  0
 19 32  1  0  0  0  0
 20 32  1  0  0  0  0
 20 33  2  0  0  0  0
 20 34  1  0  0  0  0
 21 50  1  0  0  0  0
 22 24  2  0  0  0  0
 22 39  1  0  0  0  0
 23 25  2  0  0  0  0
 23 40  1  0  0  0  0
 24 51  1  0  0  0  0
 25 41  1  0  0  0  0
 26 79  1  0  0  0  0
 27 80  1  0  0  0  0
 28 81  1  0  0  0  0
 29 31  2  0  0  0  0
 29 79  1  0  0  0  0
 30 82  1  0  0  0  0
 31 83  1  0  0  0  0
 32 64  2  0  0  0  0
 33 65  1  0  0  0  0
 33 69  1  0  0  0  0
 34 70  1  0  0  0  0
 34 74  2  0  0  0  0
 35 52  1  0  0  0  0
 35 71  1  0  0  0  0
 35 75  2  0  0  0  0
 36 61  1  0  0  0  0
 36 66  1  0  0  0  0
 36 76  2  0  0  0  0
 37 62  1  0  0  0  0
 37 72  1  0  0  0  0
 37 77  2  0  0  0  0
 38 67  1  0  0  0  0
 38 68  1  0  0  0  0
 38 78  2  0  0  0  0
 39 42  1  0  0  0  0
 40 52  1  0  0  0  0
 41 66  1  0  0  0  0
 42 44  1  0  0  0  0
 43 45  1  0  0  0  0
 43 46  1  0  0  0  0
 44 51  1  0  0  0  0
 45 53  1  0  0  0  0
 46 67  1  0  0  0  0
 47 50  1  0  0  0  0
 47 68  1  0  0  0  0
 48 50  1  0  0  0  0
 48 68  1  0  0  0  0
 49 53  1  0  0  0  0
 49 67  1  0  0  0  0
 51 71  1  0  0  0  0
 52 66  1  0  0  0  0
 53 65  1  0  0  0  0
 54 62  1  0  0  0  0
 55 63  1  0  0  0  0
 56 63  1  0  0  0  0
 57 63  1  0  0  0  0
 58 73  1  0  0  0  0
 59 60  1  0  0  0  0
 59 80  1  0  0  0  0
 60 81  1  0  0  0  0
 61 63  1  0  0  0  0
 61 72  1  0  0  0  0
 62 73  1  0  0  0  0
 64 65  1  0  0  0  0
M  CHG  1  73   1
M  ISO  4  38 100  60 101  68 100  81 101
M  END
> <Batch ID>
0149

> <Smiles>
CNC(C)C(=O)NC(C(=O)N1Cc2cc([101O:1][101CH2:1]COc3ccc(C4C[100N:0]([100C:0](=O)N5CCCC(n6nc(-c7ccc(Oc8ccc(F)cc8F)cc7)c(C(N)=O)c6N)C5)C4)cc3)ccc2CC1C(=O)NC1CCCc2ccccc21)C(C)(C)C

> <Shape>
0.253

> <Color>
0.224

> <Negative vol penalty>
0.000

$$$$

  -OEChem-04052321383D

 89 98  0     1  0  0  0  0  0999 V2000
  -17.8381  -29.3582   24.6256 C   0  0  0  0  0  0  0  0  0  0  0  0
  -19.2253  -29.2978   24.5395 C   0  0  0  0  0  0  0  0  0  0  0  0
  -25.4194  -15.0262   22.2344 C   0  0  0  0  0  0  0  0  0  0  0  0
  -25.4023  -14.1546   19.9812 C   0  0  0  0  0  0  0  0  0  0  0  0
  -17.0530  -28.6360   23.7278 C   0  0  0  0  0  0  0  0  0  0  0  0
  -19.8282  -28.5144   23.5561 C   0  0  0  0  0  0  0  0  0  0  0  0
  -23.6491  -30.9010   21.2429 C   0  0  0  0  0  0  0  0  0  0  0  0
  -24.4370  -14.1054   22.5982 C   0  0  0  0  0  0  0  0  0  0  0  0
  -24.4198  -13.2336   20.3450 C   0  0  0  0  0  0  0  0  0  0  0  0
  -24.8637  -30.9678   21.9242 C   0  0  0  0  0  0  0  0  0  0  0  0
  -24.2612  -10.2742   21.9690 C   0  0  0  0  0  0  0  0  0  0  0  0
  -24.4204   -8.9562   21.5414 C   0  0  0  0  0  0  0  0  0  0  0  0
  -25.6992  -29.1309   20.6025 C   0  0  0  0  0  0  0  0  0  0  0  0
  -29.2184  -26.5560   23.7665 C   0  0  0  0  0  0  0  0  0  0  0  0
  -30.2632  -28.2681   25.1134 C   0  0  0  0  0  0  0  0  0  0  0  0
  -22.3273   -9.0923   20.3424 C   0  0  0  0  0  0  0  0  0  0  0  0
  -25.9020  -15.0509   20.9259 C   0  0  0  0  0  0  0  0  0  0  0  0
  -28.3118  -15.8248   20.6072 C   0  0  0  0  0  0  0  0  0  0  0  0
  -17.6466  -27.8510   22.7268 C   0  0  0  0  0  0  0  0  0  0  0  0
  -23.4463  -29.9398   20.2421 C   0  0  0  0  0  0  0  0  0  0  0  0
  -19.0504  -27.7801   22.6449 C   0  0  0  0  0  0  0  0  0  0  0  0
  -24.4820  -29.0556   19.9083 C   0  0  0  0  0  0  0  0  0  0  0  0
  -30.3844  -25.7933   23.8316 C   0  0  0  0  0  0  0  0  0  0  0  0
  -31.4292  -27.5054   25.1785 C   0  0  0  0  0  0  0  0  0  0  0  0
  -23.9372  -13.2090   21.6535 C   0  0  0  0  0  0  0  0  0  0  0  0
  -25.8879  -30.0808   21.6060 C   0  0  0  0  0  0  0  0  0  0  0  0
  -23.1349  -11.0014   21.5834 C   0  0  0  0  0  0  0  0  0  0  0  0
  -29.1578  -27.7935   24.4074 C   0  0  0  0  0  0  0  0  0  0  0  0
  -31.4898  -26.2679   24.5376 C   0  0  0  0  0  0  0  0  0  0  0  0
  -23.4535   -8.3652   20.7280 C   0  0  0  0  0  0  0  0  0  0  0  0
  -22.1681  -10.4104   20.7701 C   0  0  0  0  0  0  0  0  0  0  0  0
  -26.9165  -16.0023   20.5494 C   0  0  0  0  0  0  0  0  0  0  0  0
  -28.8282  -17.0102   20.1438 C   0  0  0  0  0  0  0  0  0  0  0  0
  -29.0731  -14.6899   21.0410 C   0  0  0  0  0  0  0  0  0  0  0  0
  -21.4486  -27.4990   19.8480 C   0  0  0  0  0  0  0  0  0  0  0  0
  -22.8200  -27.3563   16.9118 C   0  0  0  0  0  0  0  0  0  0  0  0
  -25.5110  -28.0586   14.9338 C   0  0  0  0  0  0  0  0  0  0  0  0
  -28.9410  -22.4804   19.8524 C   0  0  0  0  0  0  0  0  0  0  0  0
  -16.7569  -27.0507   21.8088 C   0  0  0  0  0  0  0  0  0  0  0  0
  -22.1397  -29.8982   19.4982 C   0  0  0  0  0  0  0  0  0  0  0  0
  -24.3219  -28.0185   18.8279 C   0  0  0  0  0  0  0  0  0  0  0  0
  -17.4716  -26.5406   20.5601 C   0  0  0  0  0  0  0  0  0  0  0  0
  -26.5890  -20.9183   17.8583 C   0  0  0  0  0  0  0  0  0  0  0  0
  -18.8165  -25.9229   20.9297 C   0  0  0  0  0  0  0  0  0  0  0  0
  -26.5709  -19.4804   18.3762 C   0  0  0  0  0  0  0  0  0  0  0  0
  -29.0566  -23.7554   23.1202 C   0  0  0  0  0  0  0  0  0  0  0  0
  -30.9873  -24.5665   21.6975 C   0  0  0  0  0  0  0  0  0  0  0  0
  -26.6829  -21.9120   19.0103 C   0  0  0  0  0  0  0  0  0  0  0  0
  -29.1030  -22.4155   22.3803 C   0  0  0  0  0  0  0  0  0  0  0  0
  -31.0054  -23.2034   21.0117 C   0  0  0  0  0  0  0  0  0  0  0  0
  -27.8590  -20.2600   20.4265 C   0  0  0  0  0  0  0  0  0  0  0  0
  -30.4303  -24.4500   23.1279 C   0  0  0  0  0  0  0  0  0  0  0  0
  -19.7414  -26.9611   21.5763 C   0  0  1  0  0  0  0  0  0  0  0  0
  -21.8632  -28.5444   18.8515 C   0  0  1  0  0  0  0  0  0  0  0  0
  -27.7717  -19.2102   19.3000 C   0  0  1  0  0  0  0  0  0  0  0  0
  -32.2936  -28.2194   27.4360 C   0  0  0  0  0  0  0  0  0  0  0  0
  -33.1460  -29.3434   25.3467 C   0  0  0  0  0  0  0  0  0  0  0  0
  -26.3548  -27.7860   12.5863 C   0  0  0  0  0  0  0  0  0  0  0  0
  -23.4093  -24.4146   17.4677 C   0  0  0  0  0  0  0  0  0  0  0  0
  -25.0404  -24.4545   15.5687 C   0  0  0  0  0  0  0  0  0  0  0  0
  -22.6231  -24.9000   15.1438 C   0  0  0  0  0  0  0  0  0  0  0  0
  -25.7008  -30.9855   14.5387 C   0  0  0  0  0  0  0  0  0  0  0  0
  -27.0397  -30.6029   23.6201 C   0  0  0  0  0  0  0  0  0  1  0  0
  -28.1678  -29.9558   24.4000 C   0  0  0  0  0  0  0  0  0  0  0  0
  -32.6019  -28.0306   25.9393 C   0  0  0  0  0  0  0  0  0  0  0  0
  -24.0168  -26.6483   16.3241 C   0  0  1  0  0  0  0  0  0  0  0  0
  -25.6117  -28.6904   13.5572 C   0  0  2  0  0  0  0  0  0  0  0  0
  -23.7751  -25.1225   16.1478 C   0  0  0  0  0  0  0  0  0  0  0  0
  -26.5685  -17.2057   20.0860 N   0  0  0  0  0  0  0  0  0  0  0  0
  -27.7527  -17.7952   19.8484 N   0  0  0  0  0  0  0  0  0  0  0  0
  -23.0237  -28.0134   18.1335 N   0  0  0  0  0  0  0  0  0  0  0  0
  -27.8329  -21.6199   19.8659 N   0  0  0  0  0  0  0  0  0  0  0  0
  -29.6814  -22.5825   21.0397 N   0  0  0  0  0  0  0  0  0  0  0  0
  -30.0928  -17.4472   19.9644 N   0  0  0  0  0  0  0  0  0  0  0  0
  -28.3839  -13.5538   21.4866 N   0  0  0  0  0  0  0  0  0  0  0  0
  -20.3146  -27.8255   20.5670 N   0  0  0  0  0  0  0  0  0  0  0  0
  -24.3383  -27.3493   15.0857 N   0  0  0  0  0  0  0  0  0  0  0  0
  -26.3352  -29.9909   13.6358 N   0  3  0  0  0  0  0  0  0  0  0  0
  -30.3275  -14.6895   21.0491 O   0  0  0  0  0  0  0  0  0  0  0  0
  -22.1078  -26.4716   19.9554 O   0  0  0  0  0  0  0  0  0  0  0  0
  -21.7460  -27.3335   16.3056 O   0  0  0  0  0  0  0  0  0  0  0  0
  -26.3868  -28.1788   15.7876 O   0  0  0  0  0  0  0  0  0  0  0  0
  -29.2516  -23.1196   18.8394 O   0  0  0  0  0  0  0  0  0  0  0  0
  -32.6300  -25.5219   24.6016 O   0  0  0  0  0  0  0  0  0  0  0  0
  -22.9787  -12.3101   22.0082 O   0  0  0  0  0  0  0  0  0  0  0  0
  -27.0823  -30.1439   22.2744 O   0  0  0  0  0  0  0  0  0  1  0  0
  -28.0199  -28.5379   24.3435 O   0  0  0  0  0  0  0  0  0  0  0  0
  -23.6073   -7.0999   20.3162 F   0  0  0  0  0  0  0  0  0  0  0  0
  -21.0846  -11.1043   20.3954 F   0  0  0  0  0  0  0  0  0  0  0  0
  1  2  1  0  0  0  0
  1  5  2  0  0  0  0
  2  6  2  0  0  0  0
  3  8  2  0  0  0  0
  3 17  1  0  0  0  0
  4  9  1  0  0  0  0
  4 17  2  0  0  0  0
  5 19  1  0  0  0  0
  6 21  1  0  0  0  0
  7 10  2  0  0  0  0
  7 20  1  0  0  0  0
  8 25  1  0  0  0  0
  9 25  2  0  0  0  0
 10 26  1  0  0  0  0
 11 12  2  0  0  0  0
 11 27  1  0  0  0  0
 12 30  1  0  0  0  0
 13 22  1  0  0  0  0
 13 26  2  0  0  0  0
 14 23  1  0  0  0  0
 14 28  2  0  0  0  0
 15 24  2  0  0  0  0
 15 28  1  0  0  0  0
 16 30  2  0  0  0  0
 16 31  1  0  0  0  0
 17 32  1  0  0  0  0
 18 32  1  0  0  0  0
 18 33  2  0  0  0  0
 18 34  1  0  0  0  0
 19 21  2  0  0  0  0
 19 39  1  0  0  0  0
 20 22  2  0  0  0  0
 20 40  1  0  0  0  0
 21 53  1  0  0  0  0
 22 41  1  0  0  0  0
 23 29  2  0  0  0  0
 23 52  1  0  0  0  0
 24 29  1  0  0  0  0
 24 65  1  0  0  0  0
 25 85  1  0  0  0  0
 26 86  1  0  0  0  0
 27 31  2  0  0  0  0
 27 85  1  0  0  0  0
 28 87  1  0  0  0  0
 29 84  1  0  0  0  0
 30 88  1  0  0  0  0
 31 89  1  0  0  0  0
 32 69  2  0  0  0  0
 33 70  1  0  0  0  0
 33 74  1  0  0  0  0
 34 75  1  0  0  0  0
 34 79  2  0  0  0  0
 35 54  1  0  0  0  0
 35 76  1  0  0  0  0
 35 80  2  0  0  0  0
 36 66  1  0  0  0  0
 36 71  1  0  0  0  0
 36 81  2  0  0  0  0
 37 67  1  0  0  0  0
 37 77  1  0  0  0  0
 37 82  2  0  0  0  0
 38 72  1  0  0  0  0
 38 73  1  0  0  0  0
 38 83  2  0  0  0  0
 39 42  1  0  0  0  0
 40 54  1  0  0  0  0
 41 71  1  0  0  0  0
 42 44  1  0  0  0  0
 43 45  1  0  0  0  0
 43 48  1  0  0  0  0
 44 53  1  0  0  0  0
 45 55  1  0  0  0  0
 46 49  1  0  0  0  0
 46 52  1  0  0  0  0
 47 50  1  0  0  0  0
 47 52  1  0  0  0  0
 48 72  1  0  0  0  0
 49 73  1  0  0  0  0
 50 73  1  0  0  0  0
 51 55  1  0  0  0  0
 51 72  1  0  0  0  0
 53 76  1  0  0  0  0
 54 71  1  0  0  0  0
 55 70  1  0  0  0  0
 56 65  1  0  0  0  0
 57 65  1  0  0  0  0
 58 67  1  0  0  0  0
 59 68  1  0  0  0  0
 60 68  1  0  0  0  0
 61 68  1  0  0  0  0
 62 78  1  0  0  0  0
 63 64  1  0  0  0  0
 63 86  1  0  0  0  0
 64 87  1  0  0  0  0
 66 68  1  0  0  0  0
 66 77  1  0  0  0  0
 67 78  1  0  0  0  0
 69 70  1  0  0  0  0
M  CHG  1  78   1
M  ISO  4  38 100  63 101  73 100  86 101
M  END
> <Batch ID>
0149

> <Smiles>
CNC(C)C(=O)NC(C(=O)N1Cc2cc([101O:1][101CH2:1]COc3cc(C(C)C)c(O)c(C4CC[100N:0]([100C:0](=O)N5CCCC(n6nc(-c7ccc(Oc8ccc(F)cc8F)cc7)c(C(N)=O)c6N)C5)CC4)c3)ccc2CC1C(=O)NC1CCCc2ccccc21)C(C)(C)C

> <Shape>
0.265

> <Color>
0.078

> <Negative vol penalty>
0.000

$$$$

  -OEChem-04052321383D

 87 96  0     1  0  0  0  0  0999 V2000
  -31.8732   -7.6888   31.4188 C   0  0  0  0  0  0  0  0  0  0  0  0
  -31.7327   -9.0706   31.3399 C   0  0  0  0  0  0  0  0  0  0  0  0
  -22.7172  -10.2161   20.1301 C   0  0  0  0  0  0  0  0  0  0  0  0
  -24.2834   -9.4385   21.7972 C   0  0  0  0  0  0  0  0  0  0  0  0
  -31.0290   -6.8602   30.6808 C   0  0  0  0  0  0  0  0  0  0  0  0
  -30.7485   -9.6247   30.5221 C   0  0  0  0  0  0  0  0  0  0  0  0
  -27.5283  -14.7261   31.5762 C   0  0  0  0  0  0  0  0  0  0  0  0
  -21.9584   -9.0586   20.3031 C   0  0  0  0  0  0  0  0  0  0  0  0
  -23.5246   -8.2810   21.9702 C   0  0  0  0  0  0  0  0  0  0  0  0
  -27.6707  -16.0361   31.1209 C   0  0  0  0  0  0  0  0  0  0  0  0
  -20.6872   -7.3806   23.5700 C   0  0  0  0  0  0  0  0  0  0  0  0
  -20.4357   -6.9616   24.8764 C   0  0  0  0  0  0  0  0  0  0  0  0
  -26.0624  -15.5986   29.3771 C   0  0  0  0  0  0  0  0  0  0  0  0
  -27.5945  -18.7747   26.3324 C   0  0  0  0  0  0  0  0  0  0  0  0
  -21.5540   -4.8691   24.4206 C   0  0  0  0  0  0  0  0  0  0  0  0
  -23.8797  -10.4061   20.8771 C   0  0  0  0  0  0  0  0  0  0  0  0
  -24.2461  -12.9306   20.8987 C   0  0  0  0  0  0  0  0  0  0  0  0
  -30.0277   -7.4041   29.8610 C   0  0  0  0  0  0  0  0  0  0  0  0
  -26.6584  -13.8378   30.9275 C   0  0  0  0  0  0  0  0  0  0  0  0
  -29.8910   -8.8026   29.7714 C   0  0  0  0  0  0  0  0  0  0  0  0
  -25.9087  -14.2786   29.8276 C   0  0  0  0  0  0  0  0  0  0  0  0
  -28.6359  -18.7274   27.2918 C   0  0  0  0  0  0  0  0  0  0  0  0
  -22.3620   -8.0911   21.2231 C   0  0  0  0  0  0  0  0  0  0  0  0
  -26.9399  -16.4717   30.0195 C   0  0  0  0  0  0  0  0  0  0  0  0
  -21.3721   -6.5438   22.6888 C   0  0  0  0  0  0  0  0  0  0  0  0
  -20.8691   -5.7059   25.3018 C   0  0  0  0  0  0  0  0  0  0  0  0
  -21.8055   -5.2880   23.1141 C   0  0  0  0  0  0  0  0  0  0  0  0
  -24.6643  -11.6013   20.6985 C   0  0  0  0  0  0  0  0  0  0  0  0
  -28.0138  -18.0564   25.2345 C   0  0  0  0  0  0  0  0  0  0  0  0
  -29.6600  -17.9818   26.7508 C   0  0  0  0  0  0  0  0  0  0  0  0
  -25.3519  -13.6875   20.5975 C   0  0  0  0  0  0  0  0  0  0  0  0
  -22.9719  -13.4359   21.3192 C   0  0  0  0  0  0  0  0  0  0  0  0
  -27.0085  -11.0815   29.3835 C   0  0  0  0  0  0  0  0  0  0  0  0
  -23.7660  -11.1508   29.3240 C   0  0  0  0  0  0  0  0  0  0  0  0
  -20.9050  -13.0072   29.4482 C   0  0  0  0  0  0  0  0  0  0  0  0
  -30.7156  -14.7391   20.7889 C   0  0  0  0  0  0  0  0  0  0  0  0
  -29.1699   -6.4693   29.0455 C   0  0  0  0  0  0  0  0  0  0  0  0
  -26.4961  -12.4357   31.4474 C   0  0  0  0  0  0  0  0  0  0  0  0
  -24.9463  -13.3702   29.1086 C   0  0  0  0  0  0  0  0  0  0  0  0
  -27.9084   -7.1271   28.4920 C   0  0  0  0  0  0  0  0  0  0  0  0
  -29.7293  -12.4276   18.4138 C   0  0  0  0  0  0  0  0  0  0  0  0
  -28.2407   -8.4794   27.8693 C   0  0  0  0  0  0  0  0  0  0  0  0
  -28.2862  -12.1041   18.8008 C   0  0  0  0  0  0  0  0  0  0  0  0
  -30.4376  -17.4856   23.2527 C   0  0  0  0  0  0  0  0  0  0  0  0
  -29.4310  -15.3861   24.2424 C   0  0  0  0  0  0  0  0  0  0  0  0
  -30.6140  -12.5420   19.6501 C   0  0  0  0  0  0  0  0  0  0  0  0
  -31.2532  -16.6170   22.2980 C   0  0  0  0  0  0  0  0  0  0  0  0
  -30.2704  -14.5653   23.2676 C   0  0  0  0  0  0  0  0  0  0  0  0
  -28.6910  -13.2355   21.0414 C   0  0  0  0  0  0  0  0  0  0  0  0
  -28.8193   -9.4408   28.9145 C   0  0  1  0  0  0  0  0  0  0  0  0
  -25.9665  -11.4660   30.3954 C   0  0  1  0  0  0  0  0  0  0  0  0
  -27.7495  -13.1186   19.8262 C   0  0  2  0  0  0  0  0  0  0  0  0
  -30.1034  -16.7350   24.5534 C   0  0  0  0  0  0  0  0  0  0  0  0
  -30.9761  -17.6181   27.3179 C   0  0  0  0  0  0  0  0  0  0  0  0
  -27.0159  -19.0719   23.1544 C   0  0  0  0  0  0  0  0  0  0  0  0
  -26.0145  -16.9792   24.1406 C   0  0  0  0  0  0  0  0  0  0  0  0
  -18.4077  -12.7874   29.3360 C   0  0  0  0  0  0  0  0  0  0  0  0
  -23.9380  -10.7672   26.3018 C   0  0  0  0  0  0  0  0  0  0  0  0
  -21.5488  -11.4986   26.1431 C   0  0  0  0  0  0  0  0  0  0  0  0
  -22.1386   -9.4392   27.4213 C   0  0  0  0  0  0  0  0  0  0  0  0
  -20.5693  -14.1107   32.1737 C   0  0  0  0  0  0  0  0  0  0  0  0
  -28.6185  -19.3627   28.6245 C   0  0  0  0  0  0  0  0  0  0  0  0
  -28.3440  -18.3750   29.7706 C   0  0  0  0  0  0  0  0  0  1  0  0
  -27.3198  -17.7870   23.9583 C   0  0  0  0  0  0  0  0  0  0  0  0
  -22.7256  -11.7037   28.3801 C   0  0  1  0  0  0  0  0  0  0  0  0
  -19.6253  -12.8333   30.2460 C   0  0  2  0  0  0  0  0  0  0  0  0
  -22.6072  -10.8689   27.0737 C   0  0  0  0  0  0  0  0  0  0  0  0
  -25.9365  -11.5154   20.3008 N   0  0  0  0  0  0  0  0  0  0  0  0
  -29.2709  -17.5793   25.4999 N   0  0  0  0  0  0  0  0  0  0  0  0
  -26.3272  -12.8002   20.2486 N   0  0  0  0  0  0  0  0  0  0  0  0
  -24.8273  -12.0066   29.6509 N   0  0  0  0  0  0  0  0  0  0  0  0
  -30.0674  -13.5088   20.6021 N   0  0  0  0  0  0  0  0  0  0  0  0
  -30.6001  -15.3308   22.0576 N   0  0  0  0  0  0  0  0  0  0  0  0
  -25.5755  -15.0188   20.5998 N   0  0  0  0  0  0  0  0  0  0  0  0
  -22.7414  -13.6086   22.6909 N   0  0  0  0  0  0  0  0  0  0  0  0
  -27.7633   -9.9813   29.7434 N   0  0  0  0  0  0  0  0  0  0  0  0
  -21.4870  -11.7943   29.1456 N   0  0  0  0  0  0  0  0  0  0  0  0
  -19.4542  -13.9626   31.2033 N   0  3  0  0  0  0  0  0  0  0  0  0
  -22.0590  -13.7102   20.5039 O   0  0  0  0  0  0  0  0  0  0  0  0
  -27.1186  -11.7337   28.3519 O   0  0  0  0  0  0  0  0  0  0  0  0
  -23.6378  -10.0043   29.7609 O   0  0  0  0  0  0  0  0  0  0  0  0
  -21.3425  -14.1086   29.1225 O   0  0  0  0  0  0  0  0  0  0  0  0
  -31.3542  -15.2808   19.8781 O   0  0  0  0  0  0  0  0  0  0  0  0
  -21.6217   -6.9615   21.3923 O   0  0  0  0  0  0  0  0  0  0  0  0
  -27.0785  -17.7587   29.5695 O   0  0  0  0  0  0  0  0  0  1  0  0
  -20.6289   -5.3043   26.5568 F   0  0  0  0  0  0  0  0  0  0  0  0
  -22.4649   -4.4802   22.2725 F   0  0  0  0  0  0  0  0  0  0  0  0
  1  2  1  0  0  0  0
  1  5  2  0  0  0  0
  2  6  2  0  0  0  0
  3  8  2  0  0  0  0
  3 16  1  0  0  0  0
  4  9  1  0  0  0  0
  4 16  2  0  0  0  0
  5 18  1  0  0  0  0
  6 20  1  0  0  0  0
  7 10  2  0  0  0  0
  7 19  1  0  0  0  0
  8 23  1  0  0  0  0
  9 23  2  0  0  0  0
 10 24  1  0  0  0  0
 11 12  2  0  0  0  0
 11 25  1  0  0  0  0
 12 26  1  0  0  0  0
 13 21  1  0  0  0  0
 13 24  2  0  0  0  0
 14 22  1  0  0  0  0
 14 29  2  0  0  0  0
 15 26  2  0  0  0  0
 15 27  1  0  0  0  0
 16 28  1  0  0  0  0
 17 28  1  0  0  0  0
 17 31  2  0  0  0  0
 17 32  1  0  0  0  0
 18 20  2  0  0  0  0
 18 37  1  0  0  0  0
 19 21  2  0  0  0  0
 19 38  1  0  0  0  0
 20 50  1  0  0  0  0
 21 39  1  0  0  0  0
 22 30  2  0  0  0  0
 22 62  1  0  0  0  0
 23 84  1  0  0  0  0
 24 85  1  0  0  0  0
 25 27  2  0  0  0  0
 25 84  1  0  0  0  0
 26 86  1  0  0  0  0
 27 87  1  0  0  0  0
 28 68  2  0  0  0  0
 29 64  1  0  0  0  0
 29 69  1  0  0  0  0
 30 54  1  0  0  0  0
 30 69  1  0  0  0  0
 31 70  1  0  0  0  0
 31 74  1  0  0  0  0
 32 75  1  0  0  0  0
 32 79  2  0  0  0  0
 33 51  1  0  0  0  0
 33 76  1  0  0  0  0
 33 80  2  0  0  0  0
 34 65  1  0  0  0  0
 34 71  1  0  0  0  0
 34 81  2  0  0  0  0
 35 66  1  0  0  0  0
 35 77  1  0  0  0  0
 35 82  2  0  0  0  0
 36 72  1  0  0  0  0
 36 73  1  0  0  0  0
 36 83  2  0  0  0  0
 37 40  1  0  0  0  0
 38 51  1  0  0  0  0
 39 71  1  0  0  0  0
 40 42  1  0  0  0  0
 41 43  1  0  0  0  0
 41 46  1  0  0  0  0
 42 50  1  0  0  0  0
 43 52  1  0  0  0  0
 44 47  1  0  0  0  0
 44 53  1  0  0  0  0
 45 48  1  0  0  0  0
 45 53  1  0  0  0  0
 46 72  1  0  0  0  0
 47 73  1  0  0  0  0
 48 73  1  0  0  0  0
 49 52  1  0  0  0  0
 49 72  1  0  0  0  0
 50 76  1  0  0  0  0
 51 71  1  0  0  0  0
 52 70  1  0  0  0  0
 53 69  1  0  0  0  0
 55 64  1  0  0  0  0
 56 64  1  0  0  0  0
 57 66  1  0  0  0  0
 58 67  1  0  0  0  0
 59 67  1  0  0  0  0
 60 67  1  0  0  0  0
 61 78  1  0  0  0  0
 62 63  1  0  0  0  0
 63 85  1  0  0  0  0
 65 67  1  0  0  0  0
 65 77  1  0  0  0  0
 66 78  1  0  0  0  0
 68 70  1  0  0  0  0
M  CHG  1  78   1
M  ISO  4  36 100  63 101  73 100  85 101
M  END
> <Batch ID>
0149

> <Smiles>
CNC(C)C(=O)NC(C(=O)N1Cc2cc([101O:1][101CH2:1]Cc3cc(C(C)C)n(C4CC[100N:0]([100C:0](=O)N5CCCC(n6nc(-c7ccc(Oc8ccc(F)cc8F)cc7)c(C(N)=O)c6N)C5)CC4)c3C)ccc2CC1C(=O)NC1CCCc2ccccc21)C(C)(C)C

> <Shape>
0.176

> <Color>
0.172

> <Negative vol penalty>
0.000

$$$$

  -OEChem-04052321383D

 89 98  0     1  0  0  0  0  0999 V2000
  -32.3094  -14.2403   21.7256 C   0  0  0  0  0  0  0  0  0  0  0  0
  -31.5019  -15.3591   21.9038 C   0  0  0  0  0  0  0  0  0  0  0  0
  -28.5925  -26.0498   19.0474 C   0  0  0  0  0  0  0  0  0  0  0  0
  -26.4318  -25.0479   19.4529 C   0  0  0  0  0  0  0  0  0  0  0  0
  -31.8309  -13.1436   21.0099 C   0  0  0  0  0  0  0  0  0  0  0  0
  -30.2158  -15.3822   21.3654 C   0  0  0  0  0  0  0  0  0  0  0  0
  -25.2615  -18.0529   23.7795 C   0  0  0  0  0  0  0  0  0  0  0  0
  -16.9433  -23.6005   20.5696 C   0  0  0  0  0  0  0  0  0  0  0  0
  -29.1423  -24.7834   18.8481 C   0  0  0  0  0  0  0  0  0  0  0  0
  -26.9815  -23.7816   19.2535 C   0  0  0  0  0  0  0  0  0  0  0  0
  -24.6419  -19.2773   23.5329 C   0  0  0  0  0  0  0  0  0  0  0  0
  -17.9225  -22.6304   20.3561 C   0  0  0  0  0  0  0  0  0  0  0  0
  -28.8377  -21.5669   21.0088 C   0  0  0  0  0  0  0  0  0  0  0  0
  -28.4982  -20.5630   21.9156 C   0  0  0  0  0  0  0  0  0  0  0  0
  -23.0993  -18.1875   22.0323 C   0  0  0  0  0  0  0  0  0  0  0  0
  -19.6002  -24.1304   21.2350 C   0  0  0  0  0  0  0  0  0  0  0  0
  -27.5524  -19.2574   20.1161 C   0  0  0  0  0  0  0  0  0  0  0  0
  -27.2373  -26.1820   19.3499 C   0  0  0  0  0  0  0  0  0  0  0  0
  -26.6296  -28.5547   18.6364 C   0  0  0  0  0  0  0  0  0  0  0  0
  -30.5348  -13.1494   20.4707 C   0  0  0  0  0  0  0  0  0  0  0  0
  -24.8108  -16.8865   23.1449 C   0  0  0  0  0  0  0  0  0  0  0  0
  -29.7201  -14.2850   20.6406 C   0  0  0  0  0  0  0  0  0  0  0  0
  -23.7133  -16.9491   22.2745 C   0  0  0  0  0  0  0  0  0  0  0  0
  -17.2925  -24.8357   21.1156 C   0  0  0  0  0  0  0  0  0  0  0  0
  -18.6210  -25.1006   21.4484 C   0  0  0  0  0  0  0  0  0  0  0  0
  -28.3368  -23.6493   18.9511 C   0  0  0  0  0  0  0  0  0  0  0  0
  -23.5624  -19.3452   22.6570 C   0  0  0  0  0  0  0  0  0  0  0  0
  -19.2509  -22.8953   20.6889 C   0  0  0  0  0  0  0  0  0  0  0  0
  -28.5345  -21.4162   19.6556 C   0  0  0  0  0  0  0  0  0  0  0  0
  -27.8555  -19.4082   21.4693 C   0  0  0  0  0  0  0  0  0  0  0  0
  -27.8918  -20.2614   19.2093 C   0  0  0  0  0  0  0  0  0  0  0  0
  -26.6689  -27.4899   19.5564 C   0  0  0  0  0  0  0  0  0  0  0  0
  -25.9899  -29.5666   19.3096 C   0  0  0  0  0  0  0  0  0  0  0  0
  -27.1269  -28.6229   17.2934 C   0  0  0  0  0  0  0  0  0  0  0  0
  -26.0924  -14.7938   21.1245 C   0  0  0  0  0  0  0  0  0  0  0  0
  -23.3086  -13.2031   21.6171 C   0  0  0  0  0  0  0  0  0  0  0  0
  -20.0211  -13.3293   22.5243 C   0  0  0  0  0  0  0  0  0  0  0  0
  -22.1010  -29.6139   23.8621 C   0  0  0  0  0  0  0  0  0  0  0  0
  -30.0787  -11.9593   19.6642 C   0  0  0  0  0  0  0  0  0  0  0  0
  -25.4731  -15.5691   23.4421 C   0  0  0  0  0  0  0  0  0  0  0  0
  -23.1781  -15.7225   21.5836 C   0  0  0  0  0  0  0  0  0  0  0  0
  -28.5686  -11.9140   19.4462 C   0  0  0  0  0  0  0  0  0  0  0  0
  -25.2613  -31.2482   23.7292 C   0  0  0  0  0  0  0  0  0  0  0  0
  -28.0505  -13.2815   19.0124 C   0  0  0  0  0  0  0  0  0  0  0  0
  -25.9769  -30.5664   22.5617 C   0  0  0  0  0  0  0  0  0  0  0  0
  -19.1956  -28.7788   21.7035 C   0  0  0  0  0  0  0  0  0  0  0  0
  -19.4002  -27.7479   23.9764 C   0  0  0  0  0  0  0  0  0  0  0  0
  -24.4004  -30.2628   24.5164 C   0  0  0  0  0  0  0  0  0  0  0  0
  -19.3735  -27.4020   21.0631 C   0  0  0  0  0  0  0  0  0  0  0  0
  -19.5917  -26.3735   23.3347 C   0  0  0  0  0  0  0  0  0  0  0  0
  -24.1513  -28.8156   22.5372 C   0  0  0  0  0  0  0  0  0  0  0  0
  -28.3103  -14.3381   20.0930 C   0  0  1  0  0  0  0  0  0  0  0  0
  -25.2570  -14.5309   22.3455 C   0  0  1  0  0  0  0  0  0  0  0  0
  -24.9880  -29.7806   21.6798 C   0  0  2  0  0  0  0  0  0  0  0  0
  -19.8611  -28.8913   23.0747 C   0  0  0  0  0  0  0  0  0  0  0  0
  -15.1546  -25.3811   22.3343 C   0  0  0  0  0  0  0  0  0  0  0  0
  -15.5530  -26.2929   20.0181 C   0  0  0  0  0  0  0  0  0  0  0  0
  -17.9946  -11.8739   22.7934 C   0  0  0  0  0  0  0  0  0  0  0  0
  -22.9509  -13.1452   18.5875 C   0  0  0  0  0  0  0  0  0  0  0  0
  -20.5432  -12.5639   18.9528 C   0  0  0  0  0  0  0  0  0  0  0  0
  -22.3323  -11.0201   19.7519 C   0  0  0  0  0  0  0  0  0  0  0  0
  -19.8235  -13.9394   25.4135 C   0  0  0  0  0  0  0  0  0  0  0  0
  -21.8558  -20.5357   21.5055 C   0  0  0  0  0  0  0  0  0  1  0  0
  -21.3257  -21.9494   21.3646 C   0  0  0  0  0  0  0  0  0  0  0  0
  -16.2232  -25.8563   21.3334 C   0  0  0  0  0  0  0  0  0  0  0  0
  -21.9469  -13.2043   20.9655 C   0  0  1  0  0  0  0  0  0  0  0  0
  -19.2074  -12.4790   23.4831 C   0  0  2  0  0  0  0  0  0  0  0  0
  -21.9544  -12.5070   19.5758 C   0  0  0  0  0  0  0  0  0  0  0  0
  -26.0996  -27.7968   20.7251 N   0  0  0  0  0  0  0  0  0  0  0  0
  -25.6966  -29.0660   20.5439 N   0  0  0  0  0  0  0  0  0  0  0  0
  -18.9898  -26.3356   21.9978 N   0  0  0  0  0  0  0  0  0  0  0  0
  -23.8634  -14.4589   21.9019 N   0  0  0  0  0  0  0  0  0  0  0  0
  -23.4836  -29.5516   23.6221 N   0  0  0  0  0  0  0  0  0  0  0  0
  -25.6554  -30.8270   18.9602 N   0  0  0  0  0  0  0  0  0  0  0  0
  -26.2742  -28.2501   16.2455 N   0  0  0  0  0  0  0  0  0  0  0  0
  -27.3456  -14.2130   21.1645 N   0  0  0  0  0  0  0  0  0  0  0  0
  -21.0321  -12.6038   21.9303 N   0  0  0  0  0  0  0  0  0  0  0  0
  -21.3025  -28.9169   22.9635 N   0  0  0  0  0  0  0  0  0  0  0  0
  -18.7330  -13.3026   24.6310 N   0  3  0  0  0  0  0  0  0  0  0  0
  -28.2982  -28.9876   17.0316 O   0  0  0  0  0  0  0  0  0  0  0  0
  -25.6334  -15.4722   20.2130 O   0  0  0  0  0  0  0  0  0  0  0  0
  -23.8567  -12.1276   21.8709 O   0  0  0  0  0  0  0  0  0  0  0  0
  -19.7813  -14.5172   22.3196 O   0  0  0  0  0  0  0  0  0  0  0  0
  -21.6138  -30.2482   24.8040 O   0  0  0  0  0  0  0  0  0  0  0  0
  -28.8729  -22.4135   18.7564 O   0  0  0  0  0  0  0  0  0  0  0  0
  -22.9562  -20.5390   22.4140 O   0  0  0  0  0  0  0  0  0  1  0  0
  -20.2125  -21.9421   20.4791 O   0  0  0  0  0  0  0  0  0  0  0  0
  -27.5310  -18.4435   22.3400 F   0  0  0  0  0  0  0  0  0  0  0  0
  -27.5990  -20.1104   17.9103 F   0  0  0  0  0  0  0  0  0  0  0  0
  1  2  1  0  0  0  0
  1  5  2  0  0  0  0
  2  6  2  0  0  0  0
  3  9  2  0  0  0  0
  3 18  1  0  0  0  0
  4 10  1  0  0  0  0
  4 18  2  0  0  0  0
  5 20  1  0  0  0  0
  6 22  1  0  0  0  0
  7 11  2  0  0  0  0
  7 21  1  0  0  0  0
  8 12  2  0  0  0  0
  8 24  1  0  0  0  0
  9 26  1  0  0  0  0
 10 26  2  0  0  0  0
 11 27  1  0  0  0  0
 12 28  1  0  0  0  0
 13 14  2  0  0  0  0
 13 29  1  0  0  0  0
 14 30  1  0  0  0  0
 15 23  1  0  0  0  0
 15 27  2  0  0  0  0
 16 25  1  0  0  0  0
 16 28  2  0  0  0  0
 17 30  2  0  0  0  0
 17 31  1  0  0  0  0
 18 32  1  0  0  0  0
 19 32  1  0  0  0  0
 19 33  2  0  0  0  0
 19 34  1  0  0  0  0
 20 22  2  0  0  0  0
 20 39  1  0  0  0  0
 21 23  2  0  0  0  0
 21 40  1  0  0  0  0
 22 52  1  0  0  0  0
 23 41  1  0  0  0  0
 24 25  2  0  0  0  0
 24 65  1  0  0  0  0
 25 71  1  0  0  0  0
 26 85  1  0  0  0  0
 27 86  1  0  0  0  0
 28 87  1  0  0  0  0
 29 31  2  0  0  0  0
 29 85  1  0  0  0  0
 30 88  1  0  0  0  0
 31 89  1  0  0  0  0
 32 69  2  0  0  0  0
 33 70  1  0  0  0  0
 33 74  1  0  0  0  0
 34 75  1  0  0  0  0
 34 80  2  0  0  0  0
 35 53  1  0  0  0  0
 35 76  1  0  0  0  0
 35 81  2  0  0  0  0
 36 66  1  0  0  0  0
 36 72  1  0  0  0  0
 36 82  2  0  0  0  0
 37 67  1  0  0  0  0
 37 77  1  0  0  0  0
 37 83  2  0  0  0  0
 38 73  1  0  0  0  0
 38 78  1  0  0  0  0
 38 84  2  0  0  0  0
 39 42  1  0  0  0  0
 40 53  1  0  0  0  0
 41 72  1  0  0  0  0
 42 44  1  0  0  0  0
 43 45  1  0  0  0  0
 43 48  1  0  0  0  0
 44 52  1  0  0  0  0
 45 54  1  0  0  0  0
 46 49  1  0  0  0  0
 46 55  1  0  0  0  0
 47 50  1  0  0  0  0
 47 55  1  0  0  0  0
 48 73  1  0  0  0  0
 49 71  1  0  0  0  0
 50 71  1  0  0  0  0
 51 54  1  0  0  0  0
 51 73  1  0  0  0  0
 52 76  1  0  0  0  0
 53 72  1  0  0  0  0
 54 70  1  0  0  0  0
 55 78  1  0  0  0  0
 56 65  1  0  0  0  0
 57 65  1  0  0  0  0
 58 67  1  0  0  0  0
 59 68  1  0  0  0  0
 60 68  1  0  0  0  0
 61 68  1  0  0  0  0
 62 79  1  0  0  0  0
 63 64  1  0  0  0  0
 63 86  1  0  0  0  0
 64 87  1  0  0  0  0
 66 68  1  0  0  0  0
 66 77  1  0  0  0  0
 67 79  1  0  0  0  0
 69 70  1  0  0  0  0
M  CHG  1  79   1
M  ISO  4  38 100  63 101  78 100  86 101
M  END
> <Batch ID>
0149

> <Smiles>
CNC(C)C(=O)NC(C(=O)N1Cc2cc([101O:1][101CH2:1]COc3ccc(C(C)C)c(N4CCC([100NH:0][100C:0](=O)N5CCCC(n6nc(-c7ccc(Oc8ccc(F)cc8F)cc7)c(C(N)=O)c6N)C5)CC4)c3)ccc2CC1C(=O)NC1CCCc2ccccc21)C(C)(C)C

> <Shape>
0.253

> <Color>
0.097

> <Negative vol penalty>
0.000

$$$$

  -OEChem-04052321383D

 89 99  0     1  0  0  0  0  0999 V2000
  -29.7146  -32.5297   25.9707 C   0  0  0  0  0  0  0  0  0  0  0  0
  -29.3187  -31.3458   25.3567 C   0  0  0  0  0  0  0  0  0  0  0  0
  -24.1852  -10.3383   23.0665 C   0  0  0  0  0  0  0  0  0  0  0  0
  -23.6679   -9.0710   21.0756 C   0  0  0  0  0  0  0  0  0  0  0  0
  -28.7664  -33.5034   26.2817 C   0  0  0  0  0  0  0  0  0  0  0  0
  -27.9739  -31.1345   25.0543 C   0  0  0  0  0  0  0  0  0  0  0  0
  -27.3020  -29.2478   20.4031 C   0  0  0  0  0  0  0  0  0  0  0  0
  -23.2735   -9.5712   23.7917 C   0  0  0  0  0  0  0  0  0  0  0  0
  -22.7562   -8.3038   21.8008 C   0  0  0  0  0  0  0  0  0  0  0  0
  -27.5482  -27.8869   20.2263 C   0  0  0  0  0  0  0  0  0  0  0  0
  -22.8522   -5.7116   23.9668 C   0  0  0  0  0  0  0  0  0  0  0  0
  -22.8775   -4.3295   23.7802 C   0  0  0  0  0  0  0  0  0  0  0  0
  -25.1790  -27.4491   20.3450 C   0  0  0  0  0  0  0  0  0  0  0  0
  -29.9090  -23.5125   22.2855 C   0  0  0  0  0  0  0  0  0  0  0  0
  -28.5666  -21.6499   21.5334 C   0  0  0  0  0  0  0  0  0  0  0  0
  -20.5842   -4.3899   23.0222 C   0  0  0  0  0  0  0  0  0  0  0  0
  -24.3824  -10.0883   21.7084 C   0  0  0  0  0  0  0  0  0  0  0  0
  -26.6937  -10.6194   20.7687 C   0  0  0  0  0  0  0  0  0  0  0  0
  -27.4107  -33.3080   25.9742 C   0  0  0  0  0  0  0  0  0  0  0  0
  -25.9910  -29.7190   20.5633 C   0  0  0  0  0  0  0  0  0  0  0  0
  -27.0065  -32.1059   25.3626 C   0  0  0  0  0  0  0  0  0  0  0  0
  -24.9186  -28.8166   20.5211 C   0  0  0  0  0  0  0  0  0  0  0  0
  -31.0443  -22.7025   22.2654 C   0  0  0  0  0  0  0  0  0  0  0  0
  -29.7020  -20.8398   21.5132 C   0  0  0  0  0  0  0  0  0  0  0  0
  -30.9409  -21.3661   21.8792 C   0  0  0  0  0  0  0  0  0  0  0  0
  -22.5590   -8.5539   23.1589 C   0  0  0  0  0  0  0  0  0  0  0  0
  -26.4869  -26.9870   20.2001 C   0  0  0  0  0  0  0  0  0  0  0  0
  -21.6928   -6.4328   23.6812 C   0  0  0  0  0  0  0  0  0  0  0  0
  -28.6701  -22.9862   21.9196 C   0  0  0  0  0  0  0  0  0  0  0  0
  -21.7435   -3.6687   23.3079 C   0  0  0  0  0  0  0  0  0  0  0  0
  -20.5589   -5.7719   23.2089 C   0  0  0  0  0  0  0  0  0  0  0  0
  -25.3236  -10.8807   20.9586 C   0  0  0  0  0  0  0  0  0  0  0  0
  -27.1371  -11.6602   19.9899 C   0  0  0  0  0  0  0  0  0  0  0  0
  -27.4941   -9.5328   21.2529 C   0  0  0  0  0  0  0  0  0  0  0  0
  -24.4189  -31.2347   22.8730 C   0  0  0  0  0  0  0  0  0  0  0  0
  -22.0546  -31.3480   20.6550 C   0  0  0  0  0  0  0  0  0  0  0  0
  -20.6524  -30.0134   17.8444 C   0  0  0  0  0  0  0  0  0  0  0  0
  -27.3534  -16.9623   18.6251 C   0  0  0  0  0  0  0  0  0  0  0  0
  -26.4157  -34.3692   26.3724 C   0  0  0  0  0  0  0  0  0  0  0  0
  -25.7402  -31.1931   20.7263 C   0  0  0  0  0  0  0  0  0  0  0  0
  -23.4912  -29.2740   20.6682 C   0  0  0  0  0  0  0  0  0  0  0  0
  -25.0632  -34.2268   25.6791 C   0  0  0  0  0  0  0  0  0  0  0  0
  -24.5880  -15.2297   17.4854 C   0  0  0  0  0  0  0  0  0  0  0  0
  -33.1485  -22.6380   23.7629 C   0  0  0  0  0  0  0  0  0  0  0  0
  -32.4843  -23.9570   24.0064 C   0  0  0  0  0  0  0  0  0  0  0  0
  -24.5864  -32.7788   25.7313 C   0  0  0  0  0  0  0  0  0  0  0  0
  -24.6352  -13.9161   18.2656 C   0  0  0  0  0  0  0  0  0  0  0  0
  -28.1926  -18.8044   21.4922 C   0  0  0  0  0  0  0  0  0  0  0  0
  -29.8049  -19.2027   19.5813 C   0  0  0  0  0  0  0  0  0  0  0  0
  -24.9524  -16.4089   18.3798 C   0  0  0  0  0  0  0  0  0  0  0  0
  -28.0413  -17.3514   21.0326 C   0  0  0  0  0  0  0  0  0  0  0  0
  -29.6366  -17.7391   19.1839 C   0  0  0  0  0  0  0  0  0  0  0  0
  -26.3489  -14.9666   19.8246 C   0  0  0  0  0  0  0  0  0  0  0  0
  -32.3582  -23.2925   22.6620 C   0  0  0  0  0  0  0  0  0  0  0  0
  -29.5578  -19.3903   21.0891 C   0  0  0  0  0  0  0  0  0  0  0  0
  -25.5606  -31.8503   24.9963 C   0  0  1  0  0  0  0  0  0  0  0  0
  -24.4039  -31.5015   21.3944 C   0  0  1  0  0  0  0  0  0  0  0  0
  -25.9946  -13.7366   18.9644 C   0  0  1  0  0  0  0  0  0  0  0  0
  -18.7034  -30.2983   16.2896 C   0  0  0  0  0  0  0  0  0  0  0  0
  -20.2138  -30.0850   22.7350 C   0  0  0  0  0  0  0  0  0  0  0  0
  -18.6201  -29.5298   20.8857 C   0  0  0  0  0  0  0  0  0  0  0  0
  -19.1658  -31.9119   21.3865 C   0  0  0  0  0  0  0  0  0  0  0  0
  -22.4247  -30.5195   15.5288 C   0  0  0  0  0  0  0  0  0  0  0  0
  -25.8041  -24.7502   20.6319 C   0  0  0  0  0  0  0  0  0  1  0  0
  -26.5300  -23.4715   21.0029 C   0  0  0  0  0  0  0  0  0  0  0  0
  -20.9026  -30.4500   20.2736 C   0  0  1  0  0  0  0  0  0  0  0  0
  -20.1554  -30.6582   16.5631 C   0  0  2  0  0  0  0  0  0  0  0  0
  -19.7525  -30.4850   21.3193 C   0  0  0  0  0  0  0  0  0  0  0  0
  -24.9229  -12.0000   20.3496 N   0  0  0  0  0  0  0  0  0  0  0  0
  -26.0481  -12.4512   19.7696 N   0  0  0  0  0  0  0  0  0  0  0  0
  -23.2978  -30.7243   20.8315 N   0  0  0  0  0  0  0  0  0  0  0  0
  -26.2471  -16.1989   19.0275 N   0  0  0  0  0  0  0  0  0  0  0  0
  -28.3297  -17.2284   19.5969 N   0  0  0  0  0  0  0  0  0  0  0  0
  -32.0911  -20.5433   21.8581 N   0  0  0  0  0  0  0  0  0  0  0  0
  -28.3485  -11.9670   19.4791 N   0  0  0  0  0  0  0  0  0  0  0  0
  -26.8796   -8.5491   22.0396 N   0  0  0  0  0  0  0  0  0  0  0  0
  -25.3748  -31.9538   23.5648 N   0  0  0  0  0  0  0  0  0  0  0  0
  -20.5005  -30.8504   18.9296 N   0  0  0  0  0  0  0  0  0  0  0  0
  -20.9774  -30.2085   15.4042 N   0  3  0  0  0  0  0  0  0  0  0  0
  -28.7216   -9.4458   21.0092 O   0  0  0  0  0  0  0  0  0  0  0  0
  -23.6212  -30.4367   23.3511 O   0  0  0  0  0  0  0  0  0  0  0  0
  -21.8601  -32.5592   20.7844 O   0  0  0  0  0  0  0  0  0  0  0  0
  -21.1245  -28.8792   17.8797 O   0  0  0  0  0  0  0  0  0  0  0  0
  -27.4634  -17.3811   17.4660 O   0  0  0  0  0  0  0  0  0  0  0  0
  -21.6695   -7.8050   23.8663 O   0  0  0  0  0  0  0  0  0  0  0  0
  -26.7260  -25.6491   20.0272 O   0  0  0  0  0  0  0  0  0  1  0  0
  -27.5621  -23.7765   21.9396 O   0  0  0  0  0  0  0  0  0  0  0  0
  -21.7685   -2.3417   23.1272 F   0  0  0  0  0  0  0  0  0  0  0  0
  -19.4426   -6.4596   22.9317 F   0  0  0  0  0  0  0  0  0  0  0  0
  1  2  1  0  0  0  0
  1  5  2  0  0  0  0
  2  6  2  0  0  0  0
  3  8  2  0  0  0  0
  3 17  1  0  0  0  0
  4  9  1  0  0  0  0
  4 17  2  0  0  0  0
  5 19  1  0  0  0  0
  6 21  1  0  0  0  0
  7 10  2  0  0  0  0
  7 20  1  0  0  0  0
  8 26  1  0  0  0  0
  9 26  2  0  0  0  0
 10 27  1  0  0  0  0
 11 12  2  0  0  0  0
 11 28  1  0  0  0  0
 12 30  1  0  0  0  0
 13 22  1  0  0  0  0
 13 27  2  0  0  0  0
 14 23  2  0  0  0  0
 14 29  1  0  0  0  0
 15 24  1  0  0  0  0
 15 29  2  0  0  0  0
 16 30  2  0  0  0  0
 16 31  1  0  0  0  0
 17 32  1  0  0  0  0
 18 32  1  0  0  0  0
 18 33  2  0  0  0  0
 18 34  1  0  0  0  0
 19 21  2  0  0  0  0
 19 39  1  0  0  0  0
 20 22  2  0  0  0  0
 20 40  1  0  0  0  0
 21 56  1  0  0  0  0
 22 41  1  0  0  0  0
 23 25  1  0  0  0  0
 23 54  1  0  0  0  0
 24 25  2  0  0  0  0
 24 55  1  0  0  0  0
 25 74  1  0  0  0  0
 26 85  1  0  0  0  0
 27 86  1  0  0  0  0
 28 31  2  0  0  0  0
 28 85  1  0  0  0  0
 29 87  1  0  0  0  0
 30 88  1  0  0  0  0
 31 89  1  0  0  0  0
 32 69  2  0  0  0  0
 33 70  1  0  0  0  0
 33 75  1  0  0  0  0
 34 76  1  0  0  0  0
 34 80  2  0  0  0  0
 35 57  1  0  0  0  0
 35 77  1  0  0  0  0
 35 81  2  0  0  0  0
 36 66  1  0  0  0  0
 36 71  1  0  0  0  0
 36 82  2  0  0  0  0
 37 67  1  0  0  0  0
 37 78  1  0  0  0  0
 37 83  2  0  0  0  0
 38 72  1  0  0  0  0
 38 73  1  0  0  0  0
 38 84  2  0  0  0  0
 39 42  1  0  0  0  0
 40 57  1  0  0  0  0
 41 71  1  0  0  0  0
 42 46  1  0  0  0  0
 43 47  1  0  0  0  0
 43 50  1  0  0  0  0
 44 45  1  0  0  0  0
 44 54  1  0  0  0  0
 45 54  1  0  0  0  0
 46 56  1  0  0  0  0
 47 58  1  0  0  0  0
 48 51  1  0  0  0  0
 48 55  1  0  0  0  0
 49 52  1  0  0  0  0
 49 55  1  0  0  0  0
 50 72  1  0  0  0  0
 51 73  1  0  0  0  0
 52 73  1  0  0  0  0
 53 58  1  0  0  0  0
 53 72  1  0  0  0  0
 56 77  1  0  0  0  0
 57 71  1  0  0  0  0
 58 70  1  0  0  0  0
 59 67  1  0  0  0  0
 60 68  1  0  0  0  0
 61 68  1  0  0  0  0
 62 68  1  0  0  0  0
 63 79  1  0  0  0  0
 64 65  1  0  0  0  0
 64 86  1  0  0  0  0
 65 87  1  0  0  0  0
 66 68  1  0  0  0  0
 66 78  1  0  0  0  0
 67 79  1  0  0  0  0
 69 70  1  0  0  0  0
M  CHG  1  79   1
M  ISO  4  38 100  64 101  73 100  86 101
M  END
> <Batch ID>
0149

> <Smiles>
CNC(C)C(=O)NC(C(=O)N1Cc2cc([101O:1][101CH2:1]COc3cc(C4CC4)c(N)c(C4CC[100N:0]([100C:0](=O)N5CCCC(n6nc(-c7ccc(Oc8ccc(F)cc8F)cc7)c(C(N)=O)c6N)C5)CC4)c3)ccc2CC1C(=O)NC1CCCc2ccccc21)C(C)(C)C

> <Shape>
0.276

> <Color>
0.067

> <Negative vol penalty>
0.000

$$$$

  -OEChem-04052321383D

 90101  0     1  0  0  0  0  0999 V2000
  -26.4060  -30.0952   32.9106 C   0  0  0  0  0  0  0  0  0  0  0  0
  -26.5863  -29.0414   32.0205 C   0  0  0  0  0  0  0  0  0  0  0  0
  -22.6748  -10.2321   20.2405 C   0  0  0  0  0  0  0  0  0  0  0  0
  -24.2336   -9.6364   21.9876 C   0  0  0  0  0  0  0  0  0  0  0  0
  -25.3962  -31.0302   32.6868 C   0  0  0  0  0  0  0  0  0  0  0  0
  -25.7561  -28.9212   30.9066 C   0  0  0  0  0  0  0  0  0  0  0  0
  -28.3251  -27.8526   26.6753 C   0  0  0  0  0  0  0  0  0  0  0  0
  -21.9282   -9.0866   20.5160 C   0  0  0  0  0  0  0  0  0  0  0  0
  -23.4869   -8.4909   22.2632 C   0  0  0  0  0  0  0  0  0  0  0  0
  -28.7408  -26.5336   26.4987 C   0  0  0  0  0  0  0  0  0  0  0  0
  -20.6447   -7.7101   23.9163 C   0  0  0  0  0  0  0  0  0  0  0  0
  -20.3852   -7.4139   25.2544 C   0  0  0  0  0  0  0  0  0  0  0  0
  -26.8732  -26.1492   25.0210 C   0  0  0  0  0  0  0  0  0  0  0  0
  -21.5329   -5.3020   25.0094 C   0  0  0  0  0  0  0  0  0  0  0  0
  -23.8276  -10.5070   20.9763 C   0  0  0  0  0  0  0  0  0  0  0  0
  -24.1636  -13.0266   20.7610 C   0  0  0  0  0  0  0  0  0  0  0  0
  -24.5594  -30.9269   31.5644 C   0  0  0  0  0  0  0  0  0  0  0  0
  -27.1722  -28.3275   26.0335 C   0  0  0  0  0  0  0  0  0  0  0  0
  -24.7333  -29.8549   30.6683 C   0  0  0  0  0  0  0  0  0  0  0  0
  -26.4464  -27.4753   25.1891 C   0  0  0  0  0  0  0  0  0  0  0  0
  -22.3342   -8.2160   21.5274 C   0  0  0  0  0  0  0  0  0  0  0  0
  -28.0132  -25.6808   25.6738 C   0  0  0  0  0  0  0  0  0  0  0  0
  -21.3482   -6.8023   23.1247 C   0  0  0  0  0  0  0  0  0  0  0  0
  -20.8293   -6.2098   25.8009 C   0  0  0  0  0  0  0  0  0  0  0  0
  -21.7923   -5.5983   23.6713 C   0  0  0  0  0  0  0  0  0  0  0  0
  -24.5996  -11.6899   20.6917 C   0  0  0  0  0  0  0  0  0  0  0  0
  -25.2632  -13.7656   20.3990 C   0  0  0  0  0  0  0  0  0  0  0  0
  -22.8793  -13.5532   21.1204 C   0  0  0  0  0  0  0  0  0  0  0  0
  -24.3763  -29.4825   27.0095 C   0  0  0  0  0  0  0  0  0  0  0  0
  -23.9380  -30.0292   23.8422 C   0  0  0  0  0  0  0  0  0  0  0  0
  -24.5799  -28.2774   20.7541 C   0  0  0  0  0  0  0  0  0  0  0  0
  -30.7352  -14.8185   20.7059 C   0  0  0  0  0  0  0  0  0  0  0  0
  -23.4512  -31.9349   31.3899 C   0  0  0  0  0  0  0  0  0  0  0  0
  -26.7522  -29.7606   26.2132 C   0  0  0  0  0  0  0  0  0  0  0  0
  -25.2131  -27.9421   24.4613 C   0  0  0  0  0  0  0  0  0  0  0  0
  -22.8553  -31.9478   29.9845 C   0  0  0  0  0  0  0  0  0  0  0  0
  -29.6775  -12.3311   18.3884 C   0  0  0  0  0  0  0  0  0  0  0  0
  -22.5758  -30.5253   29.5101 C   0  0  0  0  0  0  0  0  0  0  0  0
  -28.2290  -12.0486   18.7907 C   0  0  0  0  0  0  0  0  0  0  0  0
  -28.3895  -22.5086   24.0138 C   0  0  0  0  0  0  0  0  0  0  0  0
  -28.7370  -22.0173   22.6148 C   0  0  0  0  0  0  0  0  0  0  0  0
  -30.5099  -18.0882   20.7902 C   0  0  0  0  0  0  0  0  0  0  0  0
  -30.2846  -17.4863   23.2288 C   0  0  0  0  0  0  0  0  0  0  0  0
  -30.2075  -24.2481   23.8905 C   0  0  0  0  0  0  0  0  0  0  0  0
  -30.3695  -22.1589   20.6878 C   0  0  0  0  0  0  0  0  0  0  0  0
  -30.5579  -12.6062   19.6055 C   0  0  0  0  0  0  0  0  0  0  0  0
  -28.6133  -13.3851   20.9038 C   0  0  0  0  0  0  0  0  0  0  0  0
  -31.1381  -19.4189   21.1833 C   0  0  0  0  0  0  0  0  0  0  0  0
  -30.9127  -18.8206   23.6095 C   0  0  0  0  0  0  0  0  0  0  0  0
  -23.8690  -29.7046   29.4352 C   0  0  1  0  0  0  0  0  0  0  0  0
  -25.2735  -29.9914   25.9169 C   0  0  1  0  0  0  0  0  0  0  0  0
  -30.6969  -23.6955   22.5518 C   0  0  2  0  0  0  0  0  0  0  0  0
  -30.0535  -23.5480   20.2006 C   0  0  1  0  0  0  0  0  0  0  0  0
  -30.2403  -24.5001   21.3531 C   0  0  2  0  0  0  0  0  0  0  0  0
  -31.0579  -24.6677   20.0938 C   0  0  1  0  0  0  0  0  0  0  0  0
  -27.6750  -13.1568   19.7063 C   0  0  2  0  0  0  0  0  0  0  0  0
  -30.7550  -17.0160   21.8524 C   0  0  0  0  0  0  0  0  0  0  0  0
  -28.7299  -23.9857   24.1676 C   0  0  2  0  0  0  0  0  0  1  0  0
  -30.2213  -22.2470   22.2322 C   0  0  1  0  0  0  0  0  0  0  0  0
  -32.5269  -24.4310   20.0380 C   0  0  0  0  0  0  0  0  0  0  0  0
  -24.9861  -29.1510   18.4369 C   0  0  0  0  0  0  0  0  0  0  0  0
  -32.5636  -21.3420   22.4947 C   0  0  0  0  0  0  0  0  0  0  0  0
  -20.9355  -29.6271   23.4769 C   0  0  0  0  0  0  0  0  0  0  0  0
  -21.3943  -28.8499   21.1416 C   0  0  0  0  0  0  0  0  0  0  0  0
  -21.9900  -31.1754   21.8199 C   0  0  0  0  0  0  0  0  0  0  0  0
  -27.1445  -26.8176   20.5281 C   0  0  0  0  0  0  0  0  0  0  0  0
  -23.3640  -29.2399   22.6905 C   0  0  1  0  0  0  0  0  0  0  0  0
  -25.6274  -28.6263   19.7122 C   0  0  2  0  0  0  0  0  0  0  0  0
  -31.1154  -21.2076   22.9196 C   0  0  2  0  0  0  0  0  0  0  0  0
  -21.9332  -29.7102   22.3044 C   0  0  0  0  0  0  0  0  0  0  0  0
  -25.8766  -11.5829   20.3152 N   0  0  0  0  0  0  0  0  0  0  0  0
  -26.2525  -12.8618   20.1445 N   0  0  0  0  0  0  0  0  0  0  0  0
  -24.8393  -29.3500   24.6743 N   0  0  0  0  0  0  0  0  0  0  0  0
  -29.9776  -13.6680   20.4311 N   0  0  0  0  0  0  0  0  0  0  0  0
  -25.4708  -15.0939   20.2766 N   0  0  0  0  0  0  0  0  0  0  0  0
  -22.6331  -13.8524   22.4673 N   0  0  0  0  0  0  0  0  0  0  0  0
  -24.6184  -30.0495   28.2461 N   0  0  0  0  0  0  0  0  0  0  0  0
  -24.3364  -29.3332   21.6069 N   0  0  0  0  0  0  0  0  0  0  0  0
  -30.1080  -15.7786   21.4904 N   0  0  0  0  0  0  0  0  0  0  0  0
  -30.6180  -19.8409   22.5364 N   0  3  0  0  0  0  0  0  0  0  0  0
  -26.4384  -27.4237   19.3701 N   0  3  0  0  0  0  0  0  0  0  0  0
  -21.9713  -13.7371   20.2747 O   0  0  0  0  0  0  0  0  0  0  0  0
  -23.5262  -28.6390   26.7494 O   0  0  0  0  0  0  0  0  0  0  0  0
  -23.6047  -31.2071   23.9937 O   0  0  0  0  0  0  0  0  0  0  0  0
  -24.0299  -27.1795   20.8040 O   0  0  0  0  0  0  0  0  0  0  0  0
  -31.8835  -14.9804   20.2790 O   0  0  0  0  0  0  0  0  0  0  0  0
  -21.6058   -7.0982   21.7967 O   0  0  0  0  0  0  0  0  0  0  0  0
  -28.4189  -24.3848   25.4992 O   0  0  0  0  0  0  0  0  0  1  0  0
  -20.5813   -5.9261   27.0863 F   0  0  0  0  0  0  0  0  0  0  0  0
  -22.4697   -4.7227   22.9160 F   0  0  0  0  0  0  0  0  0  0  0  0
  1  2  1  0  0  0  0
  1  5  2  0  0  0  0
  2  6  2  0  0  0  0
  3  8  2  0  0  0  0
  3 15  1  0  0  0  0
  4  9  1  0  0  0  0
  4 15  2  0  0  0  0
  5 17  1  0  0  0  0
  6 19  1  0  0  0  0
  7 10  2  0  0  0  0
  7 18  1  0  0  0  0
  8 21  1  0  0  0  0
  9 21  2  0  0  0  0
 10 22  1  0  0  0  0
 11 12  2  0  0  0  0
 11 23  1  0  0  0  0
 12 24  1  0  0  0  0
 13 20  1  0  0  0  0
 13 22  2  0  0  0  0
 14 24  2  0  0  0  0
 14 25  1  0  0  0  0
 15 26  1  0  0  0  0
 16 26  1  0  0  0  0
 16 27  2  0  0  0  0
 16 28  1  0  0  0  0
 17 19  2  0  0  0  0
 17 33  1  0  0  0  0
 18 20  2  0  0  0  0
 18 34  1  0  0  0  0
 19 50  1  0  0  0  0
 20 35  1  0  0  0  0
 21 87  1  0  0  0  0
 22 88  1  0  0  0  0
 23 25  2  0  0  0  0
 23 87  1  0  0  0  0
 24 89  1  0  0  0  0
 25 90  1  0  0  0  0
 26 71  2  0  0  0  0
 27 72  1  0  0  0  0
 27 75  1  0  0  0  0
 28 76  1  0  0  0  0
 28 82  2  0  0  0  0
 29 51  1  0  0  0  0
 29 77  1  0  0  0  0
 29 83  2  0  0  0  0
 30 67  1  0  0  0  0
 30 73  1  0  0  0  0
 30 84  2  0  0  0  0
 31 68  1  0  0  0  0
 31 78  1  0  0  0  0
 31 85  2  0  0  0  0
 32 74  1  0  0  0  0
 32 79  1  0  0  0  0
 32 86  2  0  0  0  0
 33 36  1  0  0  0  0
 34 51  1  0  0  0  0
 35 73  1  0  0  0  0
 36 38  1  0  0  0  0
 37 39  1  0  0  0  0
 37 46  1  0  0  0  0
 38 50  1  0  0  0  0
 39 56  1  0  0  0  0
 40 41  1  0  0  0  0
 40 58  1  0  0  0  0
 41 59  1  0  0  0  0
 42 48  1  0  0  0  0
 42 57  1  0  0  0  0
 43 49  1  0  0  0  0
 43 57  1  0  0  0  0
 44 52  1  0  0  0  0
 44 58  1  0  0  0  0
 45 53  1  0  0  0  0
 45 59  1  0  0  0  0
 46 74  1  0  0  0  0
 47 56  1  0  0  0  0
 47 74  1  0  0  0  0
 48 80  1  0  0  0  0
 49 80  1  0  0  0  0
 50 77  1  0  0  0  0
 51 73  1  0  0  0  0
 52 54  1  0  0  0  0
 52 59  1  0  0  0  0
 53 54  1  0  0  0  0
 53 55  1  0  0  0  0
 54 55  1  0  0  0  0
 55 60  1  0  0  0  0
 56 72  1  0  0  0  0
 57 79  1  0  0  0  0
 58 88  1  0  0  0  0
 59 69  1  0  0  0  0
 61 68  1  0  0  0  0
 62 69  1  0  0  0  0
 63 70  1  0  0  0  0
 64 70  1  0  0  0  0
 65 70  1  0  0  0  0
 66 81  1  0  0  0  0
 67 70  1  0  0  0  0
 67 78  1  0  0  0  0
 68 81  1  0  0  0  0
 69 80  1  0  0  0  0
 71 72  1  0  0  0  0
M  CHG  2  80   1  81   1
M  ISO  4  32 100  58 101  79 100  88 101
M  END
> <Batch ID>
0149

> <Smiles>
CNC(C)C(=O)NC(C(=O)N1Cc2cc([101O:1][101CH:1]3CCC4(C(C)N5CCC([100NH:0][100C:0](=O)N6CCCC(n7nc(-c8ccc(Oc9ccc(F)cc9F)cc8)c(C(N)=O)c7N)C6)CC5)CC5C(C)C5C4C3)ccc2CC1C(=O)NC1CCCc2ccccc21)C(C)(C)C

> <Shape>
0.294

> <Color>
0.163

> <Negative vol penalty>
0.000

$$$$

  -OEChem-04052321383D

 86 95  0     1  0  0  0  0  0999 V2000
  -17.8285  -11.1574   21.9345 C   0  0  0  0  0  0  0  0  0  0  0  0
  -18.1406  -12.5021   21.7619 C   0  0  0  0  0  0  0  0  0  0  0  0
  -22.2084  -30.1763   20.0266 C   0  0  0  0  0  0  0  0  0  0  0  0
  -22.4344  -28.8200   22.0131 C   0  0  0  0  0  0  0  0  0  0  0  0
  -18.7404  -10.3055   22.5563 C   0  0  0  0  0  0  0  0  0  0  0  0
  -19.3644  -12.9960   22.2120 C   0  0  0  0  0  0  0  0  0  0  0  0
  -24.3388  -17.8943   20.6065 C   0  0  0  0  0  0  0  0  0  0  0  0
  -20.8383  -29.9156   20.0044 C   0  0  0  0  0  0  0  0  0  0  0  0
  -21.0643  -28.5593   21.9910 C   0  0  0  0  0  0  0  0  0  0  0  0
  -25.0426  -18.9464   21.1910 C   0  0  0  0  0  0  0  0  0  0  0  0
  -18.2132  -30.1515   22.8606 C   0  0  0  0  0  0  0  0  0  0  0  0
  -17.5176  -30.2455   24.0659 C   0  0  0  0  0  0  0  0  0  0  0  0
  -28.1824  -22.7609   22.2463 C   0  0  0  0  0  0  0  0  0  0  0  0
  -26.5728  -17.3652   22.1799 C   0  0  0  0  0  0  0  0  0  0  0  0
  -27.1959  -22.1817   24.3673 C   0  0  0  0  0  0  0  0  0  0  0  0
  -16.8712  -27.9255   23.8737 C   0  0  0  0  0  0  0  0  0  0  0  0
  -23.0065  -29.6285   21.0309 C   0  0  0  0  0  0  0  0  0  0  0  0
  -25.0750  -30.9602   21.7058 C   0  0  0  0  0  0  0  0  0  0  0  0
  -19.9801  -10.7872   23.0056 C   0  0  0  0  0  0  0  0  0  0  0  0
  -24.7410  -16.5670   20.8135 C   0  0  0  0  0  0  0  0  0  0  0  0
  -20.2933  -12.1501   22.8416 C   0  0  0  0  0  0  0  0  0  0  0  0
  -29.0351  -23.6885   22.8712 C   0  0  0  0  0  0  0  0  0  0  0  0
  -25.8739  -16.2983   21.5947 C   0  0  0  0  0  0  0  0  0  0  0  0
  -28.9635  -23.8563   24.2685 C   0  0  0  0  0  0  0  0  0  0  0  0
  -27.2717  -22.0116   22.9896 C   0  0  0  0  0  0  0  0  0  0  0  0
  -28.0348  -23.0967   25.0021 C   0  0  0  0  0  0  0  0  0  0  0  0
  -20.2663  -29.1071   20.9867 C   0  0  0  0  0  0  0  0  0  0  0  0
  -26.1581  -18.6817   21.9802 C   0  0  0  0  0  0  0  0  0  0  0  0
  -18.2377  -28.9446   22.1617 C   0  0  0  0  0  0  0  0  0  0  0  0
  -16.8466  -29.1325   24.5725 C   0  0  0  0  0  0  0  0  0  0  0  0
  -17.5667  -27.8316   22.6683 C   0  0  0  0  0  0  0  0  0  0  0  0
  -24.4219  -29.8970   21.0540 C   0  0  0  0  0  0  0  0  0  0  0  0
  -26.4059  -30.7694   21.4251 C   0  0  0  0  0  0  0  0  0  0  0  0
  -24.5275  -32.0250   22.4946 C   0  0  0  0  0  0  0  0  0  0  0  0
  -23.4129  -14.0017   22.1399 C   0  0  0  0  0  0  0  0  0  0  0  0
  -26.0707  -12.5235   21.0117 C   0  0  0  0  0  0  0  0  0  0  0  0
  -29.3213  -12.7793   20.0040 C   0  0  0  0  0  0  0  0  0  0  0  0
  -29.6183  -25.9218   19.9999 C   0  0  0  0  0  0  0  0  0  0  0  0
  -20.9139   -9.8384   23.7144 C   0  0  0  0  0  0  0  0  0  0  0  0
  -23.9869  -15.4450   20.1540 C   0  0  0  0  0  0  0  0  0  0  0  0
  -26.3588  -14.8921   21.8313 C   0  0  0  0  0  0  0  0  0  0  0  0
  -22.3438  -10.3611   23.8265 C   0  0  0  0  0  0  0  0  0  0  0  0
  -29.3030  -28.9159   18.0992 C   0  0  0  0  0  0  0  0  0  0  0  0
  -30.5331  -25.8441   24.0778 C   0  0  0  0  0  0  0  0  0  0  0  0
  -22.3463  -11.8123   24.2965 C   0  0  0  0  0  0  0  0  0  0  0  0
  -31.0844  -25.1884   22.8159 C   0  0  0  0  0  0  0  0  0  0  0  0
  -28.0752  -29.6028   18.6998 C   0  0  0  0  0  0  0  0  0  0  0  0
  -29.1416  -27.3976   18.0683 C   0  0  0  0  0  0  0  0  0  0  0  0
  -27.5706  -27.4717   19.9657 C   0  0  0  0  0  0  0  0  0  0  0  0
  -29.8805  -24.8118   25.0108 C   0  0  2  0  0  0  0  0  0  0  0  0
  -21.6210  -12.7181   23.2941 C   0  0  1  0  0  0  0  0  0  0  0  0
  -29.9697  -24.5125   22.0123 C   0  0  2  0  0  0  0  0  0  0  0  0
  -24.1813  -14.1028   20.8526 C   0  0  1  0  0  0  0  0  0  0  0  0
  -27.7095  -29.0002   20.0696 C   0  0  2  0  0  0  0  0  0  0  0  0
  -27.8767  -23.2499   26.4828 C   0  0  0  0  0  0  0  0  0  0  0  0
  -31.2411  -11.3931   19.1735 C   0  0  0  0  0  0  0  0  0  0  0  0
  -31.4170  -22.8301   24.9921 C   0  0  0  0  0  0  0  0  0  0  0  0
  -32.1077  -24.9454   26.1550 C   0  0  0  0  0  0  0  0  0  0  0  0
  -26.5439  -11.4874   23.8424 C   0  0  0  0  0  0  0  0  0  0  0  0
  -28.8944  -10.9418   23.1749 C   0  0  0  0  0  0  0  0  0  0  0  0
  -26.9826   -9.8173   22.0333 C   0  0  0  0  0  0  0  0  0  0  0  0
  -29.4418  -14.2677   17.4488 C   0  0  0  0  0  0  0  0  0  0  0  0
  -26.3703  -21.0285   22.3024 C   0  0  0  0  0  0  0  0  0  1  0  0
  -27.4546  -12.2539   21.5513 C   0  0  1  0  0  0  0  0  0  0  0  0
  -30.0419  -12.2418   18.7808 C   0  0  2  0  0  0  0  0  0  0  0  0
  -30.9423  -24.0321   25.7982 C   0  0  0  0  0  0  0  0  0  0  0  0
  -27.4589  -11.1516   22.6478 C   0  0  0  0  0  0  0  0  0  0  0  0
  -25.2682  -29.0907   20.4077 N   0  0  0  0  0  0  0  0  0  0  0  0
  -26.4667  -29.6475   20.6521 N   0  0  0  0  0  0  0  0  0  0  0  0
  -25.5843  -13.8288   21.1702 N   0  0  0  0  0  0  0  0  0  0  0  0
  -28.7969  -26.8894   19.3983 N   0  0  0  0  0  0  0  0  0  0  0  0
  -27.5184  -31.4537   21.7666 N   0  0  0  0  0  0  0  0  0  0  0  0
  -23.1395  -32.0713   22.6832 N   0  0  0  0  0  0  0  0  0  0  0  0
  -22.4696  -12.9920   22.1543 N   0  0  0  0  0  0  0  0  0  0  0  0
  -28.2914  -11.9502   20.3954 N   0  0  0  0  0  0  0  0  0  0  0  0
  -29.2234  -25.4988   21.2632 N   0  0  0  0  0  0  0  0  0  0  0  0
  -30.5208  -13.3651   17.9265 N   0  3  0  0  0  0  0  0  0  0  0  0
  -25.2463  -32.9185   23.0030 O   0  0  0  0  0  0  0  0  0  0  0  0
  -23.6586  -14.7812   23.0530 O   0  0  0  0  0  0  0  0  0  0  0  0
  -25.4473  -11.6113   20.4632 O   0  0  0  0  0  0  0  0  0  0  0  0
  -29.6423  -13.8278   20.5591 O   0  0  0  0  0  0  0  0  0  0  0  0
  -30.6317  -25.4722   19.4540 O   0  0  0  0  0  0  0  0  0  0  0  0
  -18.9293  -28.8527   20.9655 O   0  0  0  0  0  0  0  0  0  0  0  0
  -26.8464  -19.7067   22.5525 O   0  0  0  0  0  0  0  0  0  1  0  0
  -16.1800  -29.2224   25.7309 F   0  0  0  0  0  0  0  0  0  0  0  0
  -17.5877  -26.6690   22.0020 F   0  0  0  0  0  0  0  0  0  0  0  0
  1  2  1  0  0  0  0
  1  5  2  0  0  0  0
  2  6  2  0  0  0  0
  3  8  2  0  0  0  0
  3 17  1  0  0  0  0
  4  9  1  0  0  0  0
  4 17  2  0  0  0  0
  5 19  1  0  0  0  0
  6 21  1  0  0  0  0
  7 10  2  0  0  0  0
  7 20  1  0  0  0  0
  8 27  1  0  0  0  0
  9 27  2  0  0  0  0
 10 28  1  0  0  0  0
 11 12  2  0  0  0  0
 11 29  1  0  0  0  0
 12 30  1  0  0  0  0
 13 22  1  0  0  0  0
 13 25  2  0  0  0  0
 14 23  1  0  0  0  0
 14 28  2  0  0  0  0
 15 25  1  0  0  0  0
 15 26  2  0  0  0  0
 16 30  2  0  0  0  0
 16 31  1  0  0  0  0
 17 32  1  0  0  0  0
 18 32  1  0  0  0  0
 18 33  2  0  0  0  0
 18 34  1  0  0  0  0
 19 21  2  0  0  0  0
 19 39  1  0  0  0  0
 20 23  2  0  0  0  0
 20 40  1  0  0  0  0
 21 51  1  0  0  0  0
 22 24  2  0  0  0  0
 22 52  1  0  0  0  0
 23 41  1  0  0  0  0
 24 26  1  0  0  0  0
 24 50  1  0  0  0  0
 25 63  1  0  0  0  0
 26 55  1  0  0  0  0
 27 83  1  0  0  0  0
 28 84  1  0  0  0  0
 29 31  2  0  0  0  0
 29 83  1  0  0  0  0
 30 85  1  0  0  0  0
 31 86  1  0  0  0  0
 32 68  2  0  0  0  0
 33 69  1  0  0  0  0
 33 72  1  0  0  0  0
 34 73  1  0  0  0  0
 34 78  2  0  0  0  0
 35 53  1  0  0  0  0
 35 74  1  0  0  0  0
 35 79  2  0  0  0  0
 36 64  1  0  0  0  0
 36 70  1  0  0  0  0
 36 80  2  0  0  0  0
 37 65  1  0  0  0  0
 37 75  1  0  0  0  0
 37 81  2  0  0  0  0
 38 71  1  0  0  0  0
 38 76  1  0  0  0  0
 38 82  2  0  0  0  0
 39 42  1  0  0  0  0
 40 53  1  0  0  0  0
 41 70  1  0  0  0  0
 42 45  1  0  0  0  0
 43 47  1  0  0  0  0
 43 48  1  0  0  0  0
 44 46  1  0  0  0  0
 44 50  1  0  0  0  0
 45 51  1  0  0  0  0
 46 52  1  0  0  0  0
 47 54  1  0  0  0  0
 48 71  1  0  0  0  0
 49 54  1  0  0  0  0
 49 71  1  0  0  0  0
 50 66  1  0  0  0  0
 51 74  1  0  0  0  0
 52 76  1  0  0  0  0
 53 70  1  0  0  0  0
 54 69  1  0  0  0  0
 56 65  1  0  0  0  0
 57 66  1  0  0  0  0
 58 66  1  0  0  0  0
 59 67  1  0  0  0  0
 60 67  1  0  0  0  0
 61 67  1  0  0  0  0
 62 77  1  0  0  0  0
 63 84  1  0  0  0  0
 64 67  1  0  0  0  0
 64 75  1  0  0  0  0
 65 77  1  0  0  0  0
 68 69  1  0  0  0  0
M  CHG  1  77   1
M  ISO  4  38 100  63 101  76 100  84 101
M  END
> <Batch ID>
0149

> <Smiles>
CNC(C)C(=O)NC(C(=O)N1Cc2cc([101O:1][101CH2:1]c3cc(C)c4c(c3)C([100NH:0][100C:0](=O)N3CCCC(n5nc(-c6ccc(Oc7ccc(F)cc7F)cc6)c(C(N)=O)c5N)C3)CCC4C(C)C)ccc2CC1C(=O)NC1CCCc2ccccc21)C(C)(C)C

> <Shape>
0.241

> <Color>
0.075

> <Negative vol penalty>
0.000

$$$$

  -OEChem-04052321383D

 89 99  0     1  0  0  0  0  0999 V2000
  -26.5594  -38.3058   23.3687 C   0  0  0  0  0  0  0  0  0  0  0  0
  -26.9938  -37.4879   22.3306 C   0  0  0  0  0  0  0  0  0  0  0  0
  -23.1397  -10.4511   21.8344 C   0  0  0  0  0  0  0  0  0  0  0  0
  -24.7767   -8.6845   21.6443 C   0  0  0  0  0  0  0  0  0  0  0  0
  -26.2434  -37.7494   24.6075 C   0  0  0  0  0  0  0  0  0  0  0  0
  -27.1137  -36.1132   22.5310 C   0  0  0  0  0  0  0  0  0  0  0  0
  -26.4518  -29.8858   19.0527 C   0  0  0  0  0  0  0  0  0  0  0  0
  -22.1142   -9.5158   21.6962 C   0  0  0  0  0  0  0  0  0  0  0  0
  -23.7512   -7.7491   21.5061 C   0  0  0  0  0  0  0  0  0  0  0  0
  -27.1631  -28.7145   18.7962 C   0  0  0  0  0  0  0  0  0  0  0  0
  -21.5575   -4.8502   21.4646 C   0  0  0  0  0  0  0  0  0  0  0  0
  -21.6550   -3.6669   22.1966 C   0  0  0  0  0  0  0  0  0  0  0  0
  -26.5136  -27.8545   20.9544 C   0  0  0  0  0  0  0  0  0  0  0  0
  -30.6173  -25.0880   17.9657 C   0  0  0  0  0  0  0  0  0  0  0  0
  -30.5378  -22.6736   17.9246 C   0  0  0  0  0  0  0  0  0  0  0  0
  -21.6719   -4.9389   24.2506 C   0  0  0  0  0  0  0  0  0  0  0  0
  -24.4710  -10.0355   21.8084 C   0  0  0  0  0  0  0  0  0  0  0  0
  -26.1341  -11.4313   23.1476 C   0  0  0  0  0  0  0  0  0  0  0  0
  -26.3502  -36.3659   24.8202 C   0  0  0  0  0  0  0  0  0  0  0  0
  -25.7739  -30.0550   20.2686 C   0  0  0  0  0  0  0  0  0  0  0  0
  -26.8001  -35.5379   23.7741 C   0  0  0  0  0  0  0  0  0  0  0  0
  -25.7922  -29.0278   21.2228 C   0  0  0  0  0  0  0  0  0  0  0  0
  -28.5019  -23.9448   18.2006 C   0  0  0  0  0  0  0  0  0  0  0  0
  -29.2335  -25.1307   18.1360 C   0  0  0  0  0  0  0  0  0  0  0  0
  -29.1540  -22.7163   18.0949 C   0  0  0  0  0  0  0  0  0  0  0  0
  -22.4200   -8.1648   21.5321 C   0  0  0  0  0  0  0  0  0  0  0  0
  -27.1965  -27.6998   19.7482 C   0  0  0  0  0  0  0  0  0  0  0  0
  -21.5172   -6.0779   22.1256 C   0  0  0  0  0  0  0  0  0  0  0  0
  -31.2694  -23.8595   17.8600 C   0  0  0  0  0  0  0  0  0  0  0  0
  -21.7122   -3.7112   23.5896 C   0  0  0  0  0  0  0  0  0  0  0  0
  -21.5744   -6.1222   23.5185 C   0  0  0  0  0  0  0  0  0  0  0  0
  -25.5307  -11.0013   21.9506 C   0  0  0  0  0  0  0  0  0  0  0  0
  -27.0767  -12.3467   22.7474 C   0  0  0  0  0  0  0  0  0  0  0  0
  -25.8664  -11.0384   24.5002 C   0  0  0  0  0  0  0  0  0  0  0  0
  -25.9939  -32.0975   22.6942 C   0  0  0  0  0  0  0  0  0  0  0  0
  -23.3368  -30.5509   23.7287 C   0  0  0  0  0  0  0  0  0  0  0  0
  -21.4284  -27.7220   23.6825 C   0  0  0  0  0  0  0  0  0  0  0  0
  -28.7266  -16.5515   19.8487 C   0  0  0  0  0  0  0  0  0  0  0  0
  -26.0427  -35.8163   26.1906 C   0  0  0  0  0  0  0  0  0  0  0  0
  -24.9890  -31.3134   20.5190 C   0  0  0  0  0  0  0  0  0  0  0  0
  -25.0643  -29.1518   22.5355 C   0  0  0  0  0  0  0  0  0  0  0  0
  -25.8382  -34.3036   26.2085 C   0  0  0  0  0  0  0  0  0  0  0  0
  -28.8397  -13.4800   18.1511 C   0  0  0  0  0  0  0  0  0  0  0  0
  -26.1389  -23.2936   17.3846 C   0  0  0  0  0  0  0  0  0  0  0  0
  -26.1910  -24.7893   17.4101 C   0  0  0  0  0  0  0  0  0  0  0  0
  -26.9397  -33.6067   25.4163 C   0  0  0  0  0  0  0  0  0  0  0  0
  -28.0308  -12.5848   19.0894 C   0  0  0  0  0  0  0  0  0  0  0  0
  -28.0148  -19.1923   17.6333 C   0  0  0  0  0  0  0  0  0  0  0  0
  -29.7028  -19.8445   19.3919 C   0  0  0  0  0  0  0  0  0  0  0  0
  -28.2240  -14.8740   18.0167 C   0  0  0  0  0  0  0  0  0  0  0  0
  -28.5906  -17.7731   17.6315 C   0  0  0  0  0  0  0  0  0  0  0  0
  -30.2615  -18.4254   19.3350 C   0  0  0  0  0  0  0  0  0  0  0  0
  -27.1804  -14.6583   20.2489 C   0  0  0  0  0  0  0  0  0  0  0  0
  -27.0173  -23.9949   18.3833 C   0  0  0  0  0  0  0  0  0  0  0  0
  -26.9193  -34.0390   23.9452 C   0  0  1  0  0  0  0  0  0  0  0  0
  -24.7607  -31.5901   22.0018 C   0  0  1  0  0  0  0  0  0  0  0  0
  -27.8069  -13.2696   20.4494 C   0  0  1  0  0  0  0  0  0  0  0  0
  -29.0639  -20.2243   18.0536 C   0  0  0  0  0  0  0  0  0  0  0  0
  -19.3342  -26.7424   24.6581 C   0  0  0  0  0  0  0  0  0  0  0  0
  -24.7882  -30.0869   26.3722 C   0  0  0  0  0  0  0  0  0  0  0  0
  -23.0811  -28.3403   26.9228 C   0  0  0  0  0  0  0  0  0  0  0  0
  -22.3776  -30.7119   26.6014 C   0  0  0  0  0  0  0  0  0  0  0  0
  -20.1877  -27.4192   21.0126 C   0  0  0  0  0  0  0  0  0  0  0  0
  -33.2221  -22.5285   17.5930 C   0  0  0  0  0  0  0  0  0  0  0  0
  -28.5617  -26.4605   18.2461 C   0  0  0  0  0  0  0  0  0  1  0  0
  -23.0719  -29.3419   24.5931 C   0  0  1  0  0  0  0  0  0  0  0  0
  -19.9360  -27.5167   23.4957 C   0  0  2  0  0  0  0  0  0  0  0  0
  -23.3451  -29.6184   26.0985 C   0  0  0  0  0  0  0  0  0  0  0  0
  -26.0466  -11.5948   20.8709 N   0  0  0  0  0  0  0  0  0  0  0  0
  -26.9840  -12.4072   21.3881 N   0  0  0  0  0  0  0  0  0  0  0  0
  -24.3162  -30.4038   22.7362 N   0  0  0  0  0  0  0  0  0  0  0  0
  -27.9921  -15.4701   19.3397 N   0  0  0  0  0  0  0  0  0  0  0  0
  -29.2338  -17.4707   18.9182 N   0  0  0  0  0  0  0  0  0  0  0  0
  -27.9674  -13.0977   23.4293 N   0  0  0  0  0  0  0  0  0  0  0  0
  -24.8649  -10.0862   24.7337 N   0  0  0  0  0  0  0  0  0  0  0  0
  -28.4472  -21.5285   18.1565 N   0  0  0  0  0  0  0  0  0  0  0  0
  -25.8560  -33.3619   23.2341 N   0  0  0  0  0  0  0  0  0  0  0  0
  -21.7053  -28.9228   24.3010 N   0  0  0  0  0  0  0  0  0  0  0  0
  -19.6703  -26.7603   22.2395 N   0  3  0  0  0  0  0  0  0  0  0  0
  -26.4856  -11.5297   25.4744 O   0  0  0  0  0  0  0  0  0  0  0  0
  -26.9959  -31.3932   22.7367 O   0  0  0  0  0  0  0  0  0  0  0  0
  -22.6933  -31.5854   23.9221 O   0  0  0  0  0  0  0  0  0  0  0  0
  -22.2647  -26.8977   23.3195 O   0  0  0  0  0  0  0  0  0  0  0  0
  -28.9180  -16.6882   21.0635 O   0  0  0  0  0  0  0  0  0  0  0  0
  -21.4196   -7.2517   21.3974 O   0  0  0  0  0  0  0  0  0  0  0  0
  -32.6198  -23.8179   17.6939 O   0  0  0  0  0  0  0  0  0  0  0  0
  -27.8956  -26.5476   19.4989 O   0  0  0  0  0  0  0  0  0  1  0  0
  -21.8043   -2.5747   24.2925 F   0  0  0  0  0  0  0  0  0  0  0  0
  -21.5349   -7.2986   24.1591 F   0  0  0  0  0  0  0  0  0  0  0  0
  1  2  1  0  0  0  0
  1  5  2  0  0  0  0
  2  6  2  0  0  0  0
  3  8  2  0  0  0  0
  3 17  1  0  0  0  0
  4  9  1  0  0  0  0
  4 17  2  0  0  0  0
  5 19  1  0  0  0  0
  6 21  1  0  0  0  0
  7 10  2  0  0  0  0
  7 20  1  0  0  0  0
  8 26  1  0  0  0  0
  9 26  2  0  0  0  0
 10 27  1  0  0  0  0
 11 12  2  0  0  0  0
 11 28  1  0  0  0  0
 12 30  1  0  0  0  0
 13 22  1  0  0  0  0
 13 27  2  0  0  0  0
 14 24  1  0  0  0  0
 14 29  2  0  0  0  0
 15 25  2  0  0  0  0
 15 29  1  0  0  0  0
 16 30  2  0  0  0  0
 16 31  1  0  0  0  0
 17 32  1  0  0  0  0
 18 32  1  0  0  0  0
 18 33  2  0  0  0  0
 18 34  1  0  0  0  0
 19 21  2  0  0  0  0
 19 39  1  0  0  0  0
 20 22  2  0  0  0  0
 20 40  1  0  0  0  0
 21 55  1  0  0  0  0
 22 41  1  0  0  0  0
 23 24  2  0  0  0  0
 23 25  1  0  0  0  0
 23 54  1  0  0  0  0
 24 65  1  0  0  0  0
 25 76  1  0  0  0  0
 26 85  1  0  0  0  0
 27 87  1  0  0  0  0
 28 31  2  0  0  0  0
 28 85  1  0  0  0  0
 29 86  1  0  0  0  0
 30 88  1  0  0  0  0
 31 89  1  0  0  0  0
 32 69  2  0  0  0  0
 33 70  1  0  0  0  0
 33 74  1  0  0  0  0
 34 75  1  0  0  0  0
 34 80  2  0  0  0  0
 35 56  1  0  0  0  0
 35 77  1  0  0  0  0
 35 81  2  0  0  0  0
 36 66  1  0  0  0  0
 36 71  1  0  0  0  0
 36 82  2  0  0  0  0
 37 67  1  0  0  0  0
 37 78  1  0  0  0  0
 37 83  2  0  0  0  0
 38 72  1  0  0  0  0
 38 73  1  0  0  0  0
 38 84  2  0  0  0  0
 39 42  1  0  0  0  0
 40 56  1  0  0  0  0
 41 71  1  0  0  0  0
 42 46  1  0  0  0  0
 43 47  1  0  0  0  0
 43 50  1  0  0  0  0
 44 45  1  0  0  0  0
 44 54  1  0  0  0  0
 45 54  1  0  0  0  0
 46 55  1  0  0  0  0
 47 57  1  0  0  0  0
 48 51  1  0  0  0  0
 48 58  1  0  0  0  0
 49 52  1  0  0  0  0
 49 58  1  0  0  0  0
 50 72  1  0  0  0  0
 51 73  1  0  0  0  0
 52 73  1  0  0  0  0
 53 57  1  0  0  0  0
 53 72  1  0  0  0  0
 55 77  1  0  0  0  0
 56 71  1  0  0  0  0
 57 70  1  0  0  0  0
 58 76  1  0  0  0  0
 59 67  1  0  0  0  0
 60 68  1  0  0  0  0
 61 68  1  0  0  0  0
 62 68  1  0  0  0  0
 63 79  1  0  0  0  0
 64 86  1  0  0  0  0
 65 87  1  0  0  0  0
 66 68  1  0  0  0  0
 66 78  1  0  0  0  0
 67 79  1  0  0  0  0
 69 70  1  0  0  0  0
M  CHG  1  79   1
M  ISO  4  38 100  65 101  73 100  87 101
M  END
> <Batch ID>
0149

> <Smiles>
CNC(C)C(=O)NC(C(=O)N1Cc2cc([101O:1][101CH2:1]c3cc(OC)cc(NC4CC[100N:0]([100C:0](=O)N5CCCC(n6nc(-c7ccc(Oc8ccc(F)cc8F)cc7)c(C(N)=O)c6N)C5)CC4)c3C3CC3)ccc2CC1C(=O)NC1CCCc2ccccc21)C(C)(C)C

> <Shape>
0.354

> <Color>
0.108

> <Negative vol penalty>
0.000

$$$$

  -OEChem-04052321383D

 90100  0     1  0  0  0  0  0999 V2000
  -27.1065  -37.6815   23.7145 C   0  0  0  0  0  0  0  0  0  0  0  0
  -27.8143  -36.6370   23.1284 C   0  0  0  0  0  0  0  0  0  0  0  0
  -27.4528   -7.3818   23.5530 C   0  0  0  0  0  0  0  0  0  0  0  0
  -26.4039   -6.7505   21.4701 C   0  0  0  0  0  0  0  0  0  0  0  0
  -25.9417  -37.4158   24.4331 C   0  0  0  0  0  0  0  0  0  0  0  0
  -27.3582  -35.3260   23.2615 C   0  0  0  0  0  0  0  0  0  0  0  0
  -27.1339  -29.1059   19.7153 C   0  0  0  0  0  0  0  0  0  0  0  0
  -26.5410   -6.5908   24.2519 C   0  0  0  0  0  0  0  0  0  0  0  0
  -25.4921   -5.9595   22.1690 C   0  0  0  0  0  0  0  0  0  0  0  0
  -27.4507  -27.7586   19.8827 C   0  0  0  0  0  0  0  0  0  0  0  0
  -22.6683   -6.4144   23.9718 C   0  0  0  0  0  0  0  0  0  0  0  0
  -21.3239   -6.5022   23.6105 C   0  0  0  0  0  0  0  0  0  0  0  0
  -25.3828  -27.4273   21.0799 C   0  0  0  0  0  0  0  0  0  0  0  0
  -29.3591  -23.2274   21.1610 C   0  0  0  0  0  0  0  0  0  0  0  0
  -27.4932  -21.4099   20.1620 C   0  0  0  0  0  0  0  0  0  0  0  0
  -21.3155   -4.1475   23.0695 C   0  0  0  0  0  0  0  0  0  0  0  0
  -27.3842   -7.4617   22.1621 C   0  0  0  0  0  0  0  0  0  0  0  0
  -29.5767   -7.8851   20.9287 C   0  0  0  0  0  0  0  0  0  0  0  0
  -25.4658  -36.1019   24.5670 C   0  0  0  0  0  0  0  0  0  0  0  0
  -25.9422  -29.6273   20.2392 C   0  0  0  0  0  0  0  0  0  0  0  0
  -26.1866  -35.0424   23.9837 C   0  0  0  0  0  0  0  0  0  0  0  0
  -25.0520  -28.7810   20.9155 C   0  0  0  0  0  0  0  0  0  0  0  0
  -28.2666  -23.6838   20.4236 C   0  0  0  0  0  0  0  0  0  0  0  0
  -29.5187  -21.8622   21.3989 C   0  0  0  0  0  0  0  0  0  0  0  0
  -27.3337  -22.7751   19.9241 C   0  0  0  0  0  0  0  0  0  0  0  0
  -25.5606   -5.8796   23.5599 C   0  0  0  0  0  0  0  0  0  0  0  0
  -26.5766  -26.9197   20.5677 C   0  0  0  0  0  0  0  0  0  0  0  0
  -23.3363   -5.1932   23.8818 C   0  0  0  0  0  0  0  0  0  0  0  0
  -28.5857  -20.9535   20.8994 C   0  0  0  0  0  0  0  0  0  0  0  0
  -20.6475   -5.3687   23.1595 C   0  0  0  0  0  0  0  0  0  0  0  0
  -22.6599   -4.0598   23.4308 C   0  0  0  0  0  0  0  0  0  0  0  0
  -28.3255   -8.2790   21.4396 C   0  0  0  0  0  0  0  0  0  0  0  0
  -30.0763   -9.0173   20.3330 C   0  0  0  0  0  0  0  0  0  0  0  0
  -30.2291   -6.6096   20.9872 C   0  0  0  0  0  0  0  0  0  0  0  0
  -25.2228  -31.8476   22.3971 C   0  0  0  0  0  0  0  0  0  0  0  0
  -22.1876  -31.2666   21.4111 C   0  0  0  0  0  0  0  0  0  0  0  0
  -19.9725  -29.1061   19.9714 C   0  0  0  0  0  0  0  0  0  0  0  0
  -29.3337  -14.6789   21.2178 C   0  0  0  0  0  0  0  0  0  0  0  0
  -24.2276  -35.8590   25.3931 C   0  0  0  0  0  0  0  0  0  0  0  0
  -25.6024  -31.0771   20.0268 C   0  0  0  0  0  0  0  0  0  0  0  0
  -23.7503  -29.2871   21.4796 C   0  0  0  0  0  0  0  0  0  0  0  0
  -23.6075  -34.4818   25.1708 C   0  0  0  0  0  0  0  0  0  0  0  0
  -28.6853  -13.0491   18.1772 C   0  0  0  0  0  0  0  0  0  0  0  0
  -24.6830  -33.4005   25.2040 C   0  0  0  0  0  0  0  0  0  0  0  0
  -29.9063  -21.2339   24.7051 C   0  0  0  0  0  0  0  0  0  0  0  0
  -31.4090  -21.1982   24.7234 C   0  0  0  0  0  0  0  0  0  0  0  0
  -28.6405  -11.5869   18.6203 C   0  0  0  0  0  0  0  0  0  0  0  0
  -30.2016  -18.0640   19.9785 C   0  0  0  0  0  0  0  0  0  0  0  0
  -27.6862  -17.7836   19.9178 C   0  0  0  0  0  0  0  0  0  0  0  0
  -27.9982  -13.9740   19.1834 C   0  0  0  0  0  0  0  0  0  0  0  0
  -30.2758  -16.9501   21.0218 C   0  0  0  0  0  0  0  0  0  0  0  0
  -27.8175  -16.6796   20.9644 C   0  0  0  0  0  0  0  0  0  0  0  0
  -28.4553  -12.3720   21.0113 C   0  0  0  0  0  0  0  0  0  0  0  0
  -25.7102  -33.6096   24.0849 C   0  0  1  0  0  0  0  0  0  0  0  0
  -24.6038  -31.6126   21.0483 C   0  0  1  0  0  0  0  0  0  0  0  0
  -30.6880  -21.9376   23.6306 C   0  0  0  0  0  0  0  0  0  0  0  0
  -29.1894  -11.4254   20.0490 C   0  0  1  0  0  0  0  0  0  0  0  0
  -28.8486  -18.7764   19.9715 C   0  0  0  0  0  0  0  0  0  0  0  0
  -26.1559  -23.2397   19.1320 C   0  0  0  0  0  0  0  0  0  0  0  0
  -32.0332  -21.7250   21.5093 C   0  0  0  0  0  0  0  0  0  0  0  0
  -17.5540  -28.8981   19.3351 C   0  0  0  0  0  0  0  0  0  0  0  0
  -21.4612  -30.7930   24.3365 C   0  0  0  0  0  0  0  0  0  0  0  0
  -19.3522  -29.6885   23.5617 C   0  0  0  0  0  0  0  0  0  0  0  0
  -19.7644  -32.0922   23.0374 C   0  0  0  0  0  0  0  0  0  0  0  0
  -20.6342  -28.7888   17.1043 C   0  0  0  0  0  0  0  0  0  0  0  0
  -28.1170  -25.1497   20.1801 C   0  0  0  0  0  0  0  0  0  1  0  0
  -30.6935  -21.3913   22.1910 C   0  0  2  0  0  0  0  0  0  0  0  0
  -21.0925  -30.3141   21.8264 C   0  0  1  0  0  0  0  0  0  0  0  0
  -18.9449  -29.3016   18.8713 C   0  0  2  0  0  0  0  0  0  0  0  0
  -20.4429  -30.7126   23.1817 C   0  0  0  0  0  0  0  0  0  0  0  0
  -28.0474   -9.5615   21.1904 N   0  0  0  0  0  0  0  0  0  0  0  0
  -29.1310   -9.9832   20.5164 N   0  0  0  0  0  0  0  0  0  0  0  0
  -23.4660  -30.7135   21.2515 N   0  0  0  0  0  0  0  0  0  0  0  0
  -28.5268  -13.7554   20.5365 N   0  0  0  0  0  0  0  0  0  0  0  0
  -29.1379  -16.0373   20.9162 N   0  0  0  0  0  0  0  0  0  0  0  0
  -31.2277   -9.2711   19.6754 N   0  0  0  0  0  0  0  0  0  0  0  0
  -29.5752   -5.5540   21.6373 N   0  0  0  0  0  0  0  0  0  0  0  0
  -25.1741  -33.1632   22.8169 N   0  0  0  0  0  0  0  0  0  0  0  0
  -20.1561  -30.2565   20.7091 N   0  0  0  0  0  0  0  0  0  0  0  0
  -19.2996  -28.4804   17.6794 N   0  3  0  0  0  0  0  0  0  0  0  0
  -31.3655   -6.4163   20.4925 O   0  0  0  0  0  0  0  0  0  0  0  0
  -25.7073  -30.9049   23.0120 O   0  0  0  0  0  0  0  0  0  0  0  0
  -21.9172  -32.4561   21.2280 O   0  0  0  0  0  0  0  0  0  0  0  0
  -20.5514  -28.0385   20.1601 O   0  0  0  0  0  0  0  0  0  0  0  0
  -30.1806  -14.3147   22.0431 O   0  0  0  0  0  0  0  0  0  0  0  0
  -24.6708   -5.1075   24.2416 O   0  0  0  0  0  0  0  0  0  0  0  0
  -28.7282  -19.6093   21.1226 O   0  0  0  0  0  0  0  0  0  0  0  0
  -26.8859  -25.5949   20.7343 O   0  0  0  0  0  0  0  0  0  1  0  0
  -19.3561   -5.4528   22.8141 F   0  0  0  0  0  0  0  0  0  0  0  0
  -23.2961   -2.8836   23.3433 F   0  0  0  0  0  0  0  0  0  0  0  0
  1  2  1  0  0  0  0
  1  5  2  0  0  0  0
  2  6  2  0  0  0  0
  3  8  2  0  0  0  0
  3 17  1  0  0  0  0
  4  9  1  0  0  0  0
  4 17  2  0  0  0  0
  5 19  1  0  0  0  0
  6 21  1  0  0  0  0
  7 10  2  0  0  0  0
  7 20  1  0  0  0  0
  8 26  1  0  0  0  0
  9 26  2  0  0  0  0
 10 27  1  0  0  0  0
 11 12  2  0  0  0  0
 11 28  1  0  0  0  0
 12 30  1  0  0  0  0
 13 22  1  0  0  0  0
 13 27  2  0  0  0  0
 14 23  1  0  0  0  0
 14 24  2  0  0  0  0
 15 25  1  0  0  0  0
 15 29  2  0  0  0  0
 16 30  2  0  0  0  0
 16 31  1  0  0  0  0
 17 32  1  0  0  0  0
 18 32  1  0  0  0  0
 18 33  2  0  0  0  0
 18 34  1  0  0  0  0
 19 21  2  0  0  0  0
 19 39  1  0  0  0  0
 20 22  2  0  0  0  0
 20 40  1  0  0  0  0
 21 54  1  0  0  0  0
 22 41  1  0  0  0  0
 23 25  2  0  0  0  0
 23 66  1  0  0  0  0
 24 29  1  0  0  0  0
 24 67  1  0  0  0  0
 25 59  1  0  0  0  0
 26 86  1  0  0  0  0
 27 88  1  0  0  0  0
 28 31  2  0  0  0  0
 28 86  1  0  0  0  0
 29 87  1  0  0  0  0
 30 89  1  0  0  0  0
 31 90  1  0  0  0  0
 32 71  2  0  0  0  0
 33 72  1  0  0  0  0
 33 76  1  0  0  0  0
 34 77  1  0  0  0  0
 34 81  2  0  0  0  0
 35 55  1  0  0  0  0
 35 78  1  0  0  0  0
 35 82  2  0  0  0  0
 36 68  1  0  0  0  0
 36 73  1  0  0  0  0
 36 83  2  0  0  0  0
 37 69  1  0  0  0  0
 37 79  1  0  0  0  0
 37 84  2  0  0  0  0
 38 74  1  0  0  0  0
 38 75  1  0  0  0  0
 38 85  2  0  0  0  0
 39 42  1  0  0  0  0
 40 55  1  0  0  0  0
 41 73  1  0  0  0  0
 42 44  1  0  0  0  0
 43 47  1  0  0  0  0
 43 50  1  0  0  0  0
 44 54  1  0  0  0  0
 45 46  1  0  0  0  0
 45 56  1  0  0  0  0
 46 56  1  0  0  0  0
 47 57  1  0  0  0  0
 48 51  1  0  0  0  0
 48 58  1  0  0  0  0
 49 52  1  0  0  0  0
 49 58  1  0  0  0  0
 50 74  1  0  0  0  0
 51 75  1  0  0  0  0
 52 75  1  0  0  0  0
 53 57  1  0  0  0  0
 53 74  1  0  0  0  0
 54 78  1  0  0  0  0
 55 73  1  0  0  0  0
 56 67  1  0  0  0  0
 57 72  1  0  0  0  0
 58 87  1  0  0  0  0
 60 67  1  0  0  0  0
 61 69  1  0  0  0  0
 62 70  1  0  0  0  0
 63 70  1  0  0  0  0
 64 70  1  0  0  0  0
 65 80  1  0  0  0  0
 66 88  1  0  0  0  0
 68 70  1  0  0  0  0
 68 79  1  0  0  0  0
 69 80  1  0  0  0  0
 71 72  1  0  0  0  0
M  CHG  1  80   1
M  ISO  4  38 100  66 101  75 100  88 101
M  END
> <Batch ID>
0149

> <Smiles>
CNC(C)C(=O)NC(C(=O)N1Cc2cc([101O:1][101CH2:1]c3cc(C(C)C4CC4)c(OC4CC[100N:0]([100C:0](=O)N5CCCC(n6nc(-c7ccc(Oc8ccc(F)cc8F)cc7)c(C(N)=O)c6N)C5)CC4)cc3C)ccc2CC1C(=O)NC1CCCc2ccccc21)C(C)(C)C

> <Shape>
0.280

> <Color>
0.071

> <Negative vol penalty>
0.000

$$$$

  -OEChem-04052321383D

 87 96  0     1  0  0  0  0  0999 V2000
  -21.7405  -18.4036   22.2737 C   0  0  0  0  0  0  0  0  0  0  0  0
  -22.8153  -19.2869   22.2592 C   0  0  0  0  0  0  0  0  0  0  0  0
  -23.0562   -9.7907   19.9668 C   0  0  0  0  0  0  0  0  0  0  0  0
  -23.7286   -9.9094   22.2844 C   0  0  0  0  0  0  0  0  0  0  0  0
  -20.5069  -18.8001   21.7591 C   0  0  0  0  0  0  0  0  0  0  0  0
  -22.6572  -20.5669   21.7290 C   0  0  0  0  0  0  0  0  0  0  0  0
  -24.7368  -24.1477   24.6441 C   0  0  0  0  0  0  0  0  0  0  0  0
  -22.3024   -8.6504   20.2439 C   0  0  0  0  0  0  0  0  0  0  0  0
  -22.9746   -8.7691   22.5615 C   0  0  0  0  0  0  0  0  0  0  0  0
  -26.1212  -24.2987   24.5771 C   0  0  0  0  0  0  0  0  0  0  0  0
  -23.2834   -5.4243   22.1771 C   0  0  0  0  0  0  0  0  0  0  0  0
  -23.8702   -4.4355   22.9667 C   0  0  0  0  0  0  0  0  0  0  0  0
  -25.8378  -26.1858   23.1013 C   0  0  0  0  0  0  0  0  0  0  0  0
  -31.1076  -17.6511   20.5496 C   0  0  0  0  0  0  0  0  0  0  0  0
  -29.4113  -17.9228   22.2484 C   0  0  0  0  0  0  0  0  0  0  0  0
  -22.1054   -4.6900   24.5970 C   0  0  0  0  0  0  0  0  0  0  0  0
  -23.7694  -10.4203   20.9870 C   0  0  0  0  0  0  0  0  0  0  0  0
  -24.1179  -12.9369   20.7579 C   0  0  0  0  0  0  0  0  0  0  0  0
  -20.3310  -20.0888   21.2311 C   0  0  0  0  0  0  0  0  0  0  0  0
  -23.8914  -25.0092   23.9304 C   0  0  0  0  0  0  0  0  0  0  0  0
  -21.4204  -20.9805   21.2056 C   0  0  0  0  0  0  0  0  0  0  0  0
  -24.4430  -26.0451   23.1630 C   0  0  0  0  0  0  0  0  0  0  0  0
  -30.5135  -19.8623   21.3207 C   0  0  0  0  0  0  0  0  0  0  0  0
  -31.2769  -19.0346   20.4974 C   0  0  0  0  0  0  0  0  0  0  0  0
  -29.5807  -19.3064   22.1962 C   0  0  0  0  0  0  0  0  0  0  0  0
  -30.1748  -17.0952   21.4251 C   0  0  0  0  0  0  0  0  0  0  0  0
  -22.2615   -8.1396   21.5412 C   0  0  0  0  0  0  0  0  0  0  0  0
  -26.6720  -25.3160   23.8033 C   0  0  0  0  0  0  0  0  0  0  0  0
  -22.1076   -6.0460   22.5975 C   0  0  0  0  0  0  0  0  0  0  0  0
  -23.2812   -4.0683   24.1766 C   0  0  0  0  0  0  0  0  0  0  0  0
  -21.5186   -5.6788   23.8074 C   0  0  0  0  0  0  0  0  0  0  0  0
  -24.5488  -11.5979   20.7013 C   0  0  0  0  0  0  0  0  0  0  0  0
  -25.2238  -13.6689   20.4005 C   0  0  0  0  0  0  0  0  0  0  0  0
  -22.8330  -13.4713   21.1029 C   0  0  0  0  0  0  0  0  0  0  0  0
  -21.7548  -24.6384   21.6063 C   0  0  0  0  0  0  0  0  0  0  0  0
  -21.1896  -27.7851   22.1550 C   0  0  0  0  0  0  0  0  0  0  0  0
  -22.3421  -30.7733   23.3337 C   0  0  0  0  0  0  0  0  0  0  0  0
  -30.6804  -14.7267   20.7317 C   0  0  0  0  0  0  0  0  0  0  0  0
  -18.9915  -20.4559   20.6431 C   0  0  0  0  0  0  0  0  0  0  0  0
  -22.3994  -24.8497   24.0345 C   0  0  0  0  0  0  0  0  0  0  0  0
  -23.5783  -27.0092   22.3940 C   0  0  0  0  0  0  0  0  0  0  0  0
  -18.8059  -21.9575   20.4410 C   0  0  0  0  0  0  0  0  0  0  0  0
  -29.6544  -12.2000   18.4425 C   0  0  0  0  0  0  0  0  0  0  0  0
  -20.0397  -22.5637   19.7799 C   0  0  0  0  0  0  0  0  0  0  0  0
  -28.1992  -11.9283   18.8307 C   0  0  0  0  0  0  0  0  0  0  0  0
  -29.3856  -22.0257   20.8364 C   0  0  0  0  0  0  0  0  0  0  0  0
  -31.1581  -21.8756   22.6315 C   0  0  0  0  0  0  0  0  0  0  0  0
  -30.5234  -12.4876   19.6655 C   0  0  0  0  0  0  0  0  0  0  0  0
  -28.5661  -13.2763   20.9367 C   0  0  0  0  0  0  0  0  0  0  0  0
  -29.5143  -23.5436   20.8499 C   0  0  0  0  0  0  0  0  0  0  0  0
  -31.2735  -23.3946   22.6310 C   0  0  0  0  0  0  0  0  0  0  0  0
  -30.6955  -21.3449   21.2650 C   0  0  0  0  0  0  0  0  0  0  0  0
  -21.2816  -22.3858   20.6616 C   0  0  1  0  0  0  0  0  0  0  0  0
  -21.6492  -25.4645   22.8570 C   0  0  1  0  0  0  0  0  0  0  0  0
  -27.6385  -13.0454   19.7326 C   0  0  2  0  0  0  0  0  0  0  0  0
  -32.2820  -19.6049   19.5508 C   0  0  0  0  0  0  0  0  0  0  0  0
  -28.7508  -20.1704   23.0883 C   0  0  0  0  0  0  0  0  0  0  0  0
  -21.6657  -33.1736   23.6135 C   0  0  0  0  0  0  0  0  0  0  0  0
  -21.6422  -28.2576   19.1747 C   0  0  0  0  0  0  0  0  0  0  0  0
  -21.8985  -30.6980   19.6716 C   0  0  0  0  0  0  0  0  0  0  0  0
  -19.7391  -29.5479   20.1583 C   0  0  0  0  0  0  0  0  0  0  0  0
  -22.6139  -30.6276   26.2771 C   0  0  0  0  0  0  0  0  0  0  0  0
  -29.9717  -25.4988   22.3272 C   0  0  0  0  0  0  0  0  0  0  0  0
  -28.5570  -26.0053   22.5275 C   0  0  0  0  0  0  0  0  0  1  0  0
  -21.7488  -29.0810   21.6194 C   0  0  1  0  0  0  0  0  0  0  0  0
  -21.7166  -31.7989   24.2618 C   0  0  2  0  0  0  0  0  0  0  0  0
  -21.2738  -29.3769   20.1688 C   0  0  0  0  0  0  0  0  0  0  0  0
  -25.8286  -11.4831   20.3364 N   0  0  0  0  0  0  0  0  0  0  0  0
  -26.2113  -12.7593   20.1605 N   0  0  0  0  0  0  0  0  0  0  0  0
  -22.1256  -26.8082   22.5227 N   0  0  0  0  0  0  0  0  0  0  0  0
  -29.9326  -13.5592   20.4701 N   0  0  0  0  0  0  0  0  0  0  0  0
  -25.4381  -14.9955   20.2711 N   0  0  0  0  0  0  0  0  0  0  0  0
  -21.8081  -12.5786   21.4451 N   0  0  0  0  0  0  0  0  0  0  0  0
  -30.0033  -15.6897   21.4792 N   0  0  0  0  0  0  0  0  0  0  0  0
  -21.2768  -23.3490   21.7417 N   0  0  0  0  0  0  0  0  0  0  0  0
  -21.3898  -30.1116   22.5877 N   0  0  0  0  0  0  0  0  0  0  0  0
  -29.9519  -24.0180   22.2228 N   0  3  0  0  0  0  0  0  0  0  0  0
  -22.5026  -31.9031   25.5236 N   0  3  0  0  0  0  0  0  0  0  0  0
  -22.5958  -14.7030   21.0915 O   0  0  0  0  0  0  0  0  0  0  0  0
  -22.2332  -25.1346   20.5931 O   0  0  0  0  0  0  0  0  0  0  0  0
  -19.9674  -27.6475   22.2504 O   0  0  0  0  0  0  0  0  0  0  0  0
  -23.5545  -30.5811   23.2737 O   0  0  0  0  0  0  0  0  0  0  0  0
  -31.8266  -14.8736   20.2996 O   0  0  0  0  0  0  0  0  0  0  0  0
  -21.5257   -7.0270   21.8120 O   0  0  0  0  0  0  0  0  0  0  0  0
  -28.0229  -25.4653   23.7356 O   0  0  0  0  0  0  0  0  0  1  0  0
  -23.8440   -3.1177   24.9341 F   0  0  0  0  0  0  0  0  0  0  0  0
  -20.3884   -6.2717   24.2159 F   0  0  0  0  0  0  0  0  0  0  0  0
  1  2  1  0  0  0  0
  1  5  2  0  0  0  0
  2  6  2  0  0  0  0
  3  8  2  0  0  0  0
  3 17  1  0  0  0  0
  4  9  1  0  0  0  0
  4 17  2  0  0  0  0
  5 19  1  0  0  0  0
  6 21  1  0  0  0  0
  7 10  2  0  0  0  0
  7 20  1  0  0  0  0
  8 27  1  0  0  0  0
  9 27  2  0  0  0  0
 10 28  1  0  0  0  0
 11 12  2  0  0  0  0
 11 29  1  0  0  0  0
 12 30  1  0  0  0  0
 13 22  1  0  0  0  0
 13 28  2  0  0  0  0
 14 24  2  0  0  0  0
 14 26  1  0  0  0  0
 15 25  1  0  0  0  0
 15 26  2  0  0  0  0
 16 30  2  0  0  0  0
 16 31  1  0  0  0  0
 17 32  1  0  0  0  0
 18 32  1  0  0  0  0
 18 33  2  0  0  0  0
 18 34  1  0  0  0  0
 19 21  2  0  0  0  0
 19 39  1  0  0  0  0
 20 22  2  0  0  0  0
 20 40  1  0  0  0  0
 21 53  1  0  0  0  0
 22 41  1  0  0  0  0
 23 24  1  0  0  0  0
 23 25  2  0  0  0  0
 23 52  1  0  0  0  0
 24 56  1  0  0  0  0
 25 57  1  0  0  0  0
 26 74  1  0  0  0  0
 27 84  1  0  0  0  0
 28 85  1  0  0  0  0
 29 31  2  0  0  0  0
 29 84  1  0  0  0  0
 30 86  1  0  0  0  0
 31 87  1  0  0  0  0
 32 68  2  0  0  0  0
 33 69  1  0  0  0  0
 33 72  1  0  0  0  0
 34 73  1  0  0  0  0
 34 79  2  0  0  0  0
 35 54  1  0  0  0  0
 35 75  1  0  0  0  0
 35 80  2  0  0  0  0
 36 65  1  0  0  0  0
 36 70  1  0  0  0  0
 36 81  2  0  0  0  0
 37 66  1  0  0  0  0
 37 76  1  0  0  0  0
 37 82  2  0  0  0  0
 38 71  1  0  0  0  0
 38 74  1  0  0  0  0
 38 83  2  0  0  0  0
 39 42  1  0  0  0  0
 40 54  1  0  0  0  0
 41 70  1  0  0  0  0
 42 44  1  0  0  0  0
 43 45  1  0  0  0  0
 43 48  1  0  0  0  0
 44 53  1  0  0  0  0
 45 55  1  0  0  0  0
 46 50  1  0  0  0  0
 46 52  1  0  0  0  0
 47 51  1  0  0  0  0
 47 52  1  0  0  0  0
 48 71  1  0  0  0  0
 49 55  1  0  0  0  0
 49 71  1  0  0  0  0
 50 77  1  0  0  0  0
 51 77  1  0  0  0  0
 53 75  1  0  0  0  0
 54 70  1  0  0  0  0
 55 69  1  0  0  0  0
 58 66  1  0  0  0  0
 59 67  1  0  0  0  0
 60 67  1  0  0  0  0
 61 67  1  0  0  0  0
 62 78  1  0  0  0  0
 63 64  1  0  0  0  0
 63 77  1  0  0  0  0
 64 85  1  0  0  0  0
 65 67  1  0  0  0  0
 65 76  1  0  0  0  0
 66 78  1  0  0  0  0
 68 69  1  0  0  0  0
M  CHG  2  77   1  78   1
M  ISO  4  38 100  64 101  74 100  85 101
M  END
> <Batch ID>
0149

> <Smiles>
CNC(C)C(=O)NC(C(=O)N1Cc2cc([101O:1][101CH2:1]CN3CCC(c4c(C)cc([100NH:0][100C:0](=O)N5CCCC(n6nc(-c7ccc(Oc8ccc(F)cc8F)cc7)c(C(N)=O)c6N)C5)cc4C)CC3)ccc2CC1C(=O)NC1CCCc2ccccc21)C(C)(C)C

> <Shape>
0.258

> <Color>
0.208

> <Negative vol penalty>
0.000

$$$$

  -OEChem-04052321383D

 88 98  0     1  0  0  0  0  0999 V2000
  -27.5716  -34.0950   27.0171 C   0  0  0  0  0  0  0  0  0  0  0  0
  -28.0409  -33.2629   26.0057 C   0  0  0  0  0  0  0  0  0  0  0  0
  -23.7754   -9.9284   22.1818 C   0  0  0  0  0  0  0  0  0  0  0  0
  -25.0345   -7.8989   21.8174 C   0  0  0  0  0  0  0  0  0  0  0  0
  -26.3396  -33.8358   27.6161 C   0  0  0  0  0  0  0  0  0  0  0  0
  -27.2787  -32.1704   25.5935 C   0  0  0  0  0  0  0  0  0  0  0  0
  -26.8498  -29.9128   19.9167 C   0  0  0  0  0  0  0  0  0  0  0  0
  -22.5861   -9.2246   21.9927 C   0  0  0  0  0  0  0  0  0  0  0  0
  -23.8452   -7.1950   21.6283 C   0  0  0  0  0  0  0  0  0  0  0  0
  -27.4747  -28.8385   19.2848 C   0  0  0  0  0  0  0  0  0  0  0  0
  -21.4061   -5.8666   23.5535 C   0  0  0  0  0  0  0  0  0  0  0  0
  -21.2769   -4.6325   24.1906 C   0  0  0  0  0  0  0  0  0  0  0  0
  -30.0780  -20.5521   19.9507 C   0  0  0  0  0  0  0  0  0  0  0  0
  -29.4544  -21.2681   22.1722 C   0  0  0  0  0  0  0  0  0  0  0  0
  -25.5718  -27.4438   19.7879 C   0  0  0  0  0  0  0  0  0  0  0  0
  -20.9989   -3.5546   22.0463 C   0  0  0  0  0  0  0  0  0  0  0  0
  -24.9996   -9.2656   22.0940 C   0  0  0  0  0  0  0  0  0  0  0  0
  -26.9115  -10.1979   23.5024 C   0  0  0  0  0  0  0  0  0  0  0  0
  -25.5575  -32.7452   27.2043 C   0  0  0  0  0  0  0  0  0  0  0  0
  -25.5839  -29.7575   20.4995 C   0  0  0  0  0  0  0  0  0  0  0  0
  -26.0356  -31.8956   26.1884 C   0  0  0  0  0  0  0  0  0  0  0  0
  -29.7632  -20.2461   21.2746 C   0  0  0  0  0  0  0  0  0  0  0  0
  -24.9320  -28.5183   20.4243 C   0  0  0  0  0  0  0  0  0  0  0  0
  -29.7753  -22.9023   20.4219 C   0  0  0  0  0  0  0  0  0  0  0  0
  -30.0841  -21.8802   19.5243 C   0  0  0  0  0  0  0  0  0  0  0  0
  -29.4604  -22.5962   21.7459 C   0  0  0  0  0  0  0  0  0  0  0  0
  -22.6210   -7.8579   21.7160 C   0  0  0  0  0  0  0  0  0  0  0  0
  -26.8369  -27.6030   19.2228 C   0  0  0  0  0  0  0  0  0  0  0  0
  -21.3315   -5.9448   22.1628 C   0  0  0  0  0  0  0  0  0  0  0  0
  -21.0733   -3.4765   23.4370 C   0  0  0  0  0  0  0  0  0  0  0  0
  -21.1279   -4.7888   21.4092 C   0  0  0  0  0  0  0  0  0  0  0  0
  -26.2285   -9.9923   22.2887 C   0  0  0  0  0  0  0  0  0  0  0  0
  -28.0123  -10.9422   23.1551 C   0  0  0  0  0  0  0  0  0  0  0  0
  -26.5804   -9.7555   24.8254 C   0  0  0  0  0  0  0  0  0  0  0  0
  -24.4259  -30.0096   23.4489 C   0  0  0  0  0  0  0  0  0  0  0  0
  -21.5834  -29.5563   21.9533 C   0  0  0  0  0  0  0  0  0  0  0  0
  -19.8927  -28.3283   19.2551 C   0  0  0  0  0  0  0  0  0  0  0  0
  -30.4724  -14.9900   20.4011 C   0  0  0  0  0  0  0  0  0  0  0  0
  -24.2539  -32.4776   27.9140 C   0  0  0  0  0  0  0  0  0  0  0  0
  -24.9119  -30.9332   21.1540 C   0  0  0  0  0  0  0  0  0  0  0  0
  -23.5637  -28.3049   21.0164 C   0  0  0  0  0  0  0  0  0  0  0  0
  -23.3365  -31.5174   27.1612 C   0  0  0  0  0  0  0  0  0  0  0  0
  -29.9386  -12.0730   18.6250 C   0  0  0  0  0  0  0  0  0  0  0  0
  -24.1196  -30.3023   26.6742 C   0  0  0  0  0  0  0  0  0  0  0  0
  -28.9818  -11.2772   19.5124 C   0  0  0  0  0  0  0  0  0  0  0  0
  -28.7024  -17.9616   20.9961 C   0  0  0  0  0  0  0  0  0  0  0  0
  -31.1484  -18.1522   21.6207 C   0  0  0  0  0  0  0  0  0  0  0  0
  -29.2393  -24.7493   18.5194 C   0  0  0  0  0  0  0  0  0  0  0  0
  -28.6900  -25.3798   20.4732 C   0  0  0  0  0  0  0  0  0  0  0  0
  -29.5625  -13.5500   18.6041 C   0  0  0  0  0  0  0  0  0  0  0  0
  -28.7243  -16.4979   21.4457 C   0  0  0  0  0  0  0  0  0  0  0  0
  -31.1060  -16.6971   22.0783 C   0  0  0  0  0  0  0  0  0  0  0  0
  -28.5560  -13.3934   20.8581 C   0  0  0  0  0  0  0  0  0  0  0  0
  -29.7576  -18.8015   21.7381 C   0  0  0  0  0  0  0  0  0  0  0  0
  -29.7824  -24.4104   19.9373 C   0  0  0  0  0  0  0  0  0  0  0  0
  -25.2266  -30.7150   25.6966 C   0  0  1  0  0  0  0  0  0  0  0  0
  -23.8433  -30.5249   22.1634 C   0  0  1  0  0  0  0  0  0  0  0  0
  -28.8952  -11.8903   20.9213 C   0  0  1  0  0  0  0  0  0  0  0  0
  -28.7197  -26.0835   19.0989 C   0  0  0  0  0  0  0  0  0  1  0  0
  -30.4240  -22.1849   18.1026 C   0  0  0  0  0  0  0  0  0  0  0  0
  -29.1276  -23.6739   22.7244 C   0  0  0  0  0  0  0  0  0  0  0  0
  -17.5725  -28.0725   18.3338 C   0  0  0  0  0  0  0  0  0  0  0  0
  -21.0631  -27.2698   23.9054 C   0  0  0  0  0  0  0  0  0  0  0  0
  -19.2481  -26.4707   22.3772 C   0  0  0  0  0  0  0  0  0  0  0  0
  -19.0781  -28.7193   23.4437 C   0  0  0  0  0  0  0  0  0  0  0  0
  -20.5349  -29.9586   16.8700 C   0  0  0  0  0  0  0  0  0  0  0  0
  -20.7501  -28.3533   21.5829 C   0  0  1  0  0  0  0  0  0  0  0  0
  -18.8195  -28.9421   18.3742 C   0  0  2  0  0  0  0  0  0  0  0  0
  -20.0615  -27.7064   22.8177 C   0  0  0  0  0  0  0  0  0  0  0  0
  -26.8439  -10.5603   21.2481 N   0  0  0  0  0  0  0  0  0  0  0  0
  -27.9250  -11.1302   21.8071 N   0  0  0  0  0  0  0  0  0  0  0  0
  -22.9506  -29.4833   21.6513 N   0  0  0  0  0  0  0  0  0  0  0  0
  -29.4871  -14.0939   19.9599 N   0  0  0  0  0  0  0  0  0  0  0  0
  -30.0830  -15.9461   21.3512 N   0  0  0  0  0  0  0  0  0  0  0  0
  -29.0367  -11.4478   23.8745 N   0  0  0  0  0  0  0  0  0  0  0  0
  -25.4135   -9.0002   25.0049 N   0  0  0  0  0  0  0  0  0  0  0  0
  -24.6695  -30.9918   24.3899 N   0  0  0  0  0  0  0  0  0  0  0  0
  -19.8238  -28.8011   20.5485 N   0  0  0  0  0  0  0  0  0  0  0  0
  -19.3236  -29.1058   16.9814 N   0  3  0  0  0  0  0  0  0  0  0  0
  -27.2895  -10.0360   25.8214 O   0  0  0  0  0  0  0  0  0  0  0  0
  -24.6374  -28.8094   23.5781 O   0  0  0  0  0  0  0  0  0  0  0  0
  -21.0399  -30.5281   22.4843 O   0  0  0  0  0  0  0  0  0  0  0  0
  -20.7080  -27.5085   18.8384 O   0  0  0  0  0  0  0  0  0  0  0  0
  -31.6321  -14.9389   19.9726 O   0  0  0  0  0  0  0  0  0  0  0  0
  -21.4607   -7.1706   21.5317 O   0  0  0  0  0  0  0  0  0  0  0  0
  -27.4519  -26.5404   18.6001 O   0  0  0  0  0  0  0  0  0  1  0  0
  -20.9509   -2.2913   24.0489 F   0  0  0  0  0  0  0  0  0  0  0  0
  -21.0567   -4.8574   20.0728 F   0  0  0  0  0  0  0  0  0  0  0  0
  1  2  1  0  0  0  0
  1  5  2  0  0  0  0
  2  6  2  0  0  0  0
  3  8  2  0  0  0  0
  3 17  1  0  0  0  0
  4  9  1  0  0  0  0
  4 17  2  0  0  0  0
  5 19  1  0  0  0  0
  6 21  1  0  0  0  0
  7 10  2  0  0  0  0
  7 20  1  0  0  0  0
  8 27  1  0  0  0  0
  9 27  2  0  0  0  0
 10 28  1  0  0  0  0
 11 12  2  0  0  0  0
 11 29  1  0  0  0  0
 12 30  1  0  0  0  0
 13 22  1  0  0  0  0
 13 25  2  0  0  0  0
 14 22  2  0  0  0  0
 14 26  1  0  0  0  0
 15 23  1  0  0  0  0
 15 28  2  0  0  0  0
 16 30  2  0  0  0  0
 16 31  1  0  0  0  0
 17 32  1  0  0  0  0
 18 32  1  0  0  0  0
 18 33  2  0  0  0  0
 18 34  1  0  0  0  0
 19 21  2  0  0  0  0
 19 39  1  0  0  0  0
 20 23  2  0  0  0  0
 20 40  1  0  0  0  0
 21 56  1  0  0  0  0
 22 54  1  0  0  0  0
 23 41  1  0  0  0  0
 24 25  1  0  0  0  0
 24 26  2  0  0  0  0
 24 55  1  0  0  0  0
 25 60  1  0  0  0  0
 26 61  1  0  0  0  0
 27 85  1  0  0  0  0
 28 86  1  0  0  0  0
 29 31  2  0  0  0  0
 29 85  1  0  0  0  0
 30 87  1  0  0  0  0
 31 88  1  0  0  0  0
 32 70  2  0  0  0  0
 33 71  1  0  0  0  0
 33 75  1  0  0  0  0
 34 76  1  0  0  0  0
 34 80  2  0  0  0  0
 35 57  1  0  0  0  0
 35 77  1  0  0  0  0
 35 81  2  0  0  0  0
 36 67  1  0  0  0  0
 36 72  1  0  0  0  0
 36 82  2  0  0  0  0
 37 68  1  0  0  0  0
 37 78  1  0  0  0  0
 37 83  2  0  0  0  0
 38 73  1  0  0  0  0
 38 74  1  0  0  0  0
 38 84  2  0  0  0  0
 39 42  1  0  0  0  0
 40 57  1  0  0  0  0
 41 72  1  0  0  0  0
 42 44  1  0  0  0  0
 43 45  1  0  0  0  0
 43 50  1  0  0  0  0
 44 56  1  0  0  0  0
 45 58  1  0  0  0  0
 46 51  1  0  0  0  0
 46 54  1  0  0  0  0
 47 52  1  0  0  0  0
 47 54  1  0  0  0  0
 48 55  1  0  0  0  0
 48 59  1  0  0  0  0
 49 55  1  0  0  0  0
 49 59  1  0  0  0  0
 50 73  1  0  0  0  0
 51 74  1  0  0  0  0
 52 74  1  0  0  0  0
 53 58  1  0  0  0  0
 53 73  1  0  0  0  0
 56 77  1  0  0  0  0
 57 72  1  0  0  0  0
 58 71  1  0  0  0  0
 59 86  1  0  0  0  0
 62 68  1  0  0  0  0
 63 69  1  0  0  0  0
 64 69  1  0  0  0  0
 65 69  1  0  0  0  0
 66 79  1  0  0  0  0
 67 69  1  0  0  0  0
 67 78  1  0  0  0  0
 68 79  1  0  0  0  0
 70 71  1  0  0  0  0
M  CHG  1  79   1
M  ISO  4  38 100  59 101  74 100  86 101
M  END
> <Batch ID>
0149

> <Smiles>
CNC(C)C(=O)NC(C(=O)N1Cc2cc([101O:1][101CH:1]3CC(c4c(C)cc(C5CC[100N:0]([100C:0](=O)N6CCCC(n7nc(-c8ccc(Oc9ccc(F)cc9F)cc8)c(C(N)=O)c7N)C6)CC5)cc4C)C3)ccc2CC1C(=O)NC1CCCc2ccccc21)C(C)(C)C

> <Shape>
0.354

> <Color>
0.101

> <Negative vol penalty>
0.000

$$$$

  -OEChem-04052321383D

 93102  0     1  0  0  0  0  0999 V2000
  -22.2199   -8.3367   20.4874 C   0  0  0  0  0  0  0  0  0  0  0  0
  -21.9603   -9.6677   20.1771 C   0  0  0  0  0  0  0  0  0  0  0  0
  -27.6804  -26.4774   21.2249 C   0  0  0  0  0  0  0  0  0  0  0  0
  -28.5853  -28.4274   20.1224 C   0  0  0  0  0  0  0  0  0  0  0  0
  -23.2487   -8.0162   21.3722 C   0  0  0  0  0  0  0  0  0  0  0  0
  -22.7286  -10.6792   20.7524 C   0  0  0  0  0  0  0  0  0  0  0  0
  -24.3886  -15.9709   18.1545 C   0  0  0  0  0  0  0  0  0  0  0  0
  -28.6417  -25.6801   20.6039 C   0  0  0  0  0  0  0  0  0  0  0  0
  -29.5467  -27.6301   19.5014 C   0  0  0  0  0  0  0  0  0  0  0  0
  -23.8700  -17.2621   18.2421 C   0  0  0  0  0  0  0  0  0  0  0  0
  -30.6337  -23.0778   19.0279 C   0  0  0  0  0  0  0  0  0  0  0  0
  -30.2139  -21.8725   18.4654 C   0  0  0  0  0  0  0  0  0  0  0  0
  -25.4986  -17.7945   19.9402 C   0  0  0  0  0  0  0  0  0  0  0  0
  -22.7253  -23.8075   23.5976 C   0  0  0  0  0  0  0  0  0  0  0  0
  -23.1531  -21.4853   23.0866 C   0  0  0  0  0  0  0  0  0  0  0  0
  -21.7610  -22.8081   21.6206 C   0  0  0  0  0  0  0  0  0  0  0  0
  -28.7165  -23.0773   17.0013 C   0  0  0  0  0  0  0  0  0  0  0  0
  -27.6521  -27.8511   20.9841 C   0  0  0  0  0  0  0  0  0  0  0  0
  -26.7684  -29.3272   22.8677 C   0  0  0  0  0  0  0  0  0  0  0  0
  -24.0363   -9.0237   21.9511 C   0  0  0  0  0  0  0  0  0  0  0  0
  -25.4608  -15.5778   18.9683 C   0  0  0  0  0  0  0  0  0  0  0  0
  -23.7680  -10.3720   21.6468 C   0  0  0  0  0  0  0  0  0  0  0  0
  -26.0306  -16.4985   19.8592 C   0  0  0  0  0  0  0  0  0  0  0  0
  -23.3319  -22.5925   23.9159 C   0  0  0  0  0  0  0  0  0  0  0  0
  -29.5749  -26.2565   19.7421 C   0  0  0  0  0  0  0  0  0  0  0  0
  -24.4231  -18.1732   19.1370 C   0  0  0  0  0  0  0  0  0  0  0  0
  -30.0949  -24.2829   18.5772 C   0  0  0  0  0  0  0  0  0  0  0  0
  -21.9398  -23.9153   22.4499 C   0  0  0  0  0  0  0  0  0  0  0  0
  -22.3676  -21.5931   21.9389 C   0  0  0  0  0  0  0  0  0  0  0  0
  -29.2553  -21.8722   17.4521 C   0  0  0  0  0  0  0  0  0  0  0  0
  -29.1363  -24.2827   17.5639 C   0  0  0  0  0  0  0  0  0  0  0  0
  -26.6589  -28.6751   21.6249 C   0  0  0  0  0  0  0  0  0  0  0  0
  -25.5667  -29.9739   23.0233 C   0  0  0  0  0  0  0  0  0  0  0  0
  -27.8590  -29.3467   23.7983 C   0  0  0  0  0  0  0  0  0  0  0  0
  -25.8752  -13.3778   21.2248 C   0  0  0  0  0  0  0  0  0  0  0  0
  -28.9624  -14.3616   21.0701 C   0  0  0  0  0  0  0  0  0  0  0  0
  -31.1800  -16.8302   20.2733 C   0  0  0  0  0  0  0  0  0  0  0  0
  -20.2097  -28.6860   20.3619 C   0  0  0  0  0  0  0  0  0  0  0  0
  -25.1067   -8.6311   22.9384 C   0  0  0  0  0  0  0  0  0  0  0  0
  -26.0260  -14.1895   18.8427 C   0  0  0  0  0  0  0  0  0  0  0  0
  -27.1958  -16.1324   20.7405 C   0  0  0  0  0  0  0  0  0  0  0  0
  -26.1171   -9.7415   23.2150 C   0  0  0  0  0  0  0  0  0  0  0  0
  -21.9970  -31.9300   20.5114 C   0  0  0  0  0  0  0  0  0  0  0  0
  -25.4009  -11.0653   23.4630 C   0  0  0  0  0  0  0  0  0  0  0  0
  -23.4251  -31.5015   20.8468 C   0  0  0  0  0  0  0  0  0  0  0  0
  -20.9367  -26.9963   23.5961 C   0  0  0  0  0  0  0  0  0  0  0  0
  -19.0397  -25.7516   22.4619 C   0  0  0  0  0  0  0  0  0  0  0  0
  -21.2414  -30.8435   19.7518 C   0  0  0  0  0  0  0  0  0  0  0  0
  -20.3297  -28.1817   22.8408 C   0  0  0  0  0  0  0  0  0  0  0  0
  -19.0105  -26.7558   21.3066 C   0  0  0  0  0  0  0  0  0  0  0  0
  -22.6622  -29.0963   20.7708 C   0  0  0  0  0  0  0  0  0  0  0  0
  -24.5956  -11.4961   22.2312 C   0  0  1  0  0  0  0  0  0  0  0  0
  -26.7866  -13.7393   20.0862 C   0  0  1  0  0  0  0  0  0  0  0  0
  -23.4332  -30.1488   21.5801 C   0  0  1  0  0  0  0  0  0  0  0  0
  -20.4265  -25.6398   23.0936 C   0  0  0  0  0  0  0  0  0  0  0  0
  -23.6688  -21.4094   26.1249 C   0  0  0  0  0  0  0  0  0  0  0  0
  -33.6338  -17.3554   20.2925 C   0  0  0  0  0  0  0  0  0  0  0  0
  -28.5901  -22.6470   25.0174 C   0  0  0  0  0  0  0  0  0  0  0  0
  -27.8624  -21.6536   22.8283 C   0  0  0  0  0  0  0  0  0  0  0  0
  -28.8416  -14.8039   24.0867 C   0  0  0  0  0  0  0  0  0  0  0  0
  -30.9205  -16.1861   23.8970 C   0  0  0  0  0  0  0  0  0  0  0  0
  -30.9678  -13.7727   23.2678 C   0  0  0  0  0  0  0  0  0  0  0  0
  -31.2468  -17.1779   17.3350 C   0  0  0  0  0  0  0  0  0  0  0  0
  -26.2982  -23.2300   24.0736 C   0  0  0  0  0  0  0  0  0  0  0  0
  -22.5305  -19.5997   18.9391 C   0  0  0  0  0  0  0  0  0  1  0  0
  -21.9881  -20.7666   19.7415 C   0  0  0  0  0  0  0  0  0  0  0  0
  -24.1706  -22.4769   25.1436 C   0  0  1  0  0  0  0  0  0  0  0  0
  -29.7823  -15.4229   21.7633 C   0  0  1  0  0  0  0  0  0  0  0  0
  -32.4732  -16.8046   19.4787 C   0  0  2  0  0  0  0  0  0  0  0  0
  -27.7527  -22.8646   23.7561 C   0  0  0  0  0  0  0  0  0  0  0  0
  -30.1049  -15.0530   23.2386 C   0  0  0  0  0  0  0  0  0  0  0  0
  -25.4806  -28.8879   21.0330 N   0  0  0  0  0  0  0  0  0  0  0  0
  -24.8387  -29.6809   21.9078 N   0  0  0  0  0  0  0  0  0  0  0  0
  -27.7089  -14.7612   20.5855 N   0  0  0  0  0  0  0  0  0  0  0  0
  -21.3056  -29.5585   20.4477 N   0  0  0  0  0  0  0  0  0  0  0  0
  -19.9807  -27.8403   21.4595 N   0  0  0  0  0  0  0  0  0  0  0  0
  -25.0723  -30.7587   24.0041 N   0  0  0  0  0  0  0  0  0  0  0  0
  -29.0201  -28.6282   23.4821 N   0  0  0  0  0  0  0  0  0  0  0  0
  -25.4721  -12.0560   21.2249 N   0  0  0  0  0  0  0  0  0  0  0  0
  -30.9602  -15.6378   20.9299 N   0  0  0  0  0  0  0  0  0  0  0  0
  -32.3368  -17.6232   18.2408 N   0  3  0  0  0  0  0  0  0  0  0  0
  -25.6143  -22.1742   24.8540 N   0  3  0  0  0  0  0  0  0  0  0  0
  -27.7992  -29.9690   24.8858 O   0  0  0  0  0  0  0  0  0  0  0  0
  -25.5623  -14.2341   22.0436 O   0  0  0  0  0  0  0  0  0  0  0  0
  -29.4204  -13.2219   20.9563 O   0  0  0  0  0  0  0  0  0  0  0  0
  -30.4407  -17.8113   20.3110 O   0  0  0  0  0  0  0  0  0  0  0  0
  -19.4754  -28.6642   19.3660 O   0  0  0  0  0  0  0  0  0  0  0  0
  -30.5133  -25.4788   19.1362 O   0  0  0  0  0  0  0  0  0  0  0  0
  -21.3434  -25.1083   22.1366 O   0  0  0  0  0  0  0  0  0  0  0  0
  -23.9150  -19.4426   19.2255 O   0  0  0  0  0  0  0  0  0  1  0  0
  -22.1924  -20.5121   21.1304 O   0  0  0  0  0  0  0  0  0  0  0  0
  -28.8533  -20.7147   16.9109 F   0  0  0  0  0  0  0  0  0  0  0  0
  -28.6160  -25.4373   17.1260 F   0  0  0  0  0  0  0  0  0  0  0  0
  1  2  1  0  0  0  0
  1  5  2  0  0  0  0
  2  6  2  0  0  0  0
  3  8  2  0  0  0  0
  3 18  1  0  0  0  0
  4  9  1  0  0  0  0
  4 18  2  0  0  0  0
  5 20  1  0  0  0  0
  6 22  1  0  0  0  0
  7 10  2  0  0  0  0
  7 21  1  0  0  0  0
  8 25  1  0  0  0  0
  9 25  2  0  0  0  0
 10 26  1  0  0  0  0
 11 12  2  0  0  0  0
 11 27  1  0  0  0  0
 12 30  1  0  0  0  0
 13 23  1  0  0  0  0
 13 26  2  0  0  0  0
 14 24  2  0  0  0  0
 14 28  1  0  0  0  0
 15 24  1  0  0  0  0
 15 29  2  0  0  0  0
 16 28  2  0  0  0  0
 16 29  1  0  0  0  0
 17 30  2  0  0  0  0
 17 31  1  0  0  0  0
 18 32  1  0  0  0  0
 19 32  1  0  0  0  0
 19 33  2  0  0  0  0
 19 34  1  0  0  0  0
 20 22  2  0  0  0  0
 20 39  1  0  0  0  0
 21 23  2  0  0  0  0
 21 40  1  0  0  0  0
 22 52  1  0  0  0  0
 23 41  1  0  0  0  0
 24 67  1  0  0  0  0
 25 88  1  0  0  0  0
 26 90  1  0  0  0  0
 27 31  2  0  0  0  0
 27 88  1  0  0  0  0
 28 89  1  0  0  0  0
 29 91  1  0  0  0  0
 30 92  1  0  0  0  0
 31 93  1  0  0  0  0
 32 72  2  0  0  0  0
 33 73  1  0  0  0  0
 33 77  1  0  0  0  0
 34 78  1  0  0  0  0
 34 83  2  0  0  0  0
 35 53  1  0  0  0  0
 35 79  1  0  0  0  0
 35 84  2  0  0  0  0
 36 68  1  0  0  0  0
 36 74  1  0  0  0  0
 36 85  2  0  0  0  0
 37 69  1  0  0  0  0
 37 80  1  0  0  0  0
 37 86  2  0  0  0  0
 38 75  1  0  0  0  0
 38 76  1  0  0  0  0
 38 87  2  0  0  0  0
 39 42  1  0  0  0  0
 40 53  1  0  0  0  0
 41 74  1  0  0  0  0
 42 44  1  0  0  0  0
 43 45  1  0  0  0  0
 43 48  1  0  0  0  0
 44 52  1  0  0  0  0
 45 54  1  0  0  0  0
 46 49  1  0  0  0  0
 46 55  1  0  0  0  0
 47 50  1  0  0  0  0
 47 55  1  0  0  0  0
 48 75  1  0  0  0  0
 49 76  1  0  0  0  0
 50 76  1  0  0  0  0
 51 54  1  0  0  0  0
 51 75  1  0  0  0  0
 52 79  1  0  0  0  0
 53 74  1  0  0  0  0
 54 73  1  0  0  0  0
 55 89  1  0  0  0  0
 56 67  1  0  0  0  0
 57 69  1  0  0  0  0
 58 70  1  0  0  0  0
 59 70  1  0  0  0  0
 60 71  1  0  0  0  0
 61 71  1  0  0  0  0
 62 71  1  0  0  0  0
 63 81  1  0  0  0  0
 64 70  1  0  0  0  0
 64 82  1  0  0  0  0
 65 66  1  0  0  0  0
 65 90  1  0  0  0  0
 66 91  1  0  0  0  0
 67 82  1  0  0  0  0
 68 71  1  0  0  0  0
 68 80  1  0  0  0  0
 69 81  1  0  0  0  0
 72 73  1  0  0  0  0
M  CHG  2  81   1  82   1
M  ISO  4  38 100  65 101  76 100  90 101
M  END
> <Batch ID>
0149

> <Smiles>
CNC(C)C(=O)NC(C(=O)N1Cc2cc([101O:1][101CH2:1]COc3cc(OC4CC[100N:0]([100C:0](=O)N5CCCC(n6nc(-c7ccc(Oc8ccc(F)cc8F)cc7)c(C(N)=O)c6N)C5)CC4)cc(C(C)NCC(C)C)c3)ccc2CC1C(=O)NC1CCCc2ccccc21)C(C)(C)C

> <Shape>
0.272

> <Color>
0.056

> <Negative vol penalty>
0.000

$$$$

  -OEChem-04052321383D

 90100  0     1  0  0  0  0  0999 V2000
  -17.4817  -32.2469   17.2513 C   0  0  0  0  0  0  0  0  0  0  0  0
  -18.2126  -31.0655   17.3253 C   0  0  0  0  0  0  0  0  0  0  0  0
  -25.1648   -7.5081   21.6895 C   0  0  0  0  0  0  0  0  0  0  0  0
  -24.2633   -7.8913   19.4810 C   0  0  0  0  0  0  0  0  0  0  0  0
  -18.1326  -33.4756   17.3541 C   0  0  0  0  0  0  0  0  0  0  0  0
  -19.5951  -31.1121   17.5010 C   0  0  0  0  0  0  0  0  0  0  0  0
  -24.9557  -27.4976   20.5858 C   0  0  0  0  0  0  0  0  0  0  0  0
  -23.9059   -7.1033   22.1332 C   0  0  0  0  0  0  0  0  0  0  0  0
  -23.0044   -7.4865   19.9247 C   0  0  0  0  0  0  0  0  0  0  0  0
  -26.2020  -26.9517   20.2816 C   0  0  0  0  0  0  0  0  0  0  0  0
  -21.9722   -4.3355   21.9521 C   0  0  0  0  0  0  0  0  0  0  0  0
  -21.9004   -3.1835   22.7353 C   0  0  0  0  0  0  0  0  0  0  0  0
  -31.5417  -21.2190   19.8142 C   0  0  0  0  0  0  0  0  0  0  0  0
  -29.3012  -21.0734   18.9222 C   0  0  0  0  0  0  0  0  0  0  0  0
  -27.2091  -29.1300   20.5259 C   0  0  0  0  0  0  0  0  0  0  0  0
  -20.9359   -4.4696   24.5388 C   0  0  0  0  0  0  0  0  0  0  0  0
  -25.3436   -7.9022   20.3634 C   0  0  0  0  0  0  0  0  0  0  0  0
  -27.8294   -7.5623   19.9025 C   0  0  0  0  0  0  0  0  0  0  0  0
  -19.5226  -33.5371   17.5408 C   0  0  0  0  0  0  0  0  0  0  0  0
  -24.8248  -28.8682   20.8521 C   0  0  0  0  0  0  0  0  0  0  0  0
  -20.2654  -32.3428   17.6051 C   0  0  0  0  0  0  0  0  0  0  0  0
  -30.3319  -21.8284   19.4819 C   0  0  0  0  0  0  0  0  0  0  0  0
  -25.9605  -29.6904   20.8358 C   0  0  0  0  0  0  0  0  0  0  0  0
  -30.6902  -19.0994   19.0272 C   0  0  0  0  0  0  0  0  0  0  0  0
  -31.7209  -19.8544   19.5868 C   0  0  0  0  0  0  0  0  0  0  0  0
  -22.8257   -7.0925   21.2508 C   0  0  0  0  0  0  0  0  0  0  0  0
  -27.3285  -27.7684   20.2488 C   0  0  0  0  0  0  0  0  0  0  0  0
  -21.5260   -5.5546   22.4623 C   0  0  0  0  0  0  0  0  0  0  0  0
  -29.4803  -19.7089   18.6949 C   0  0  0  0  0  0  0  0  0  0  0  0
  -21.3823   -3.2505   24.0286 C   0  0  0  0  0  0  0  0  0  0  0  0
  -21.0078   -5.6217   23.7556 C   0  0  0  0  0  0  0  0  0  0  0  0
  -26.6436   -8.3210   19.9046 C   0  0  0  0  0  0  0  0  0  0  0  0
  -28.7754   -8.4051   19.3721 C   0  0  0  0  0  0  0  0  0  0  0  0
  -28.0556   -6.2159   20.3406 C   0  0  0  0  0  0  0  0  0  0  0  0
  -23.2557  -31.2769   19.4959 C   0  0  0  0  0  0  0  0  0  0  0  0
  -24.3294  -32.9186   22.0794 C   0  0  0  0  0  0  0  0  0  0  0  0
  -26.6438  -33.2093   24.5706 C   0  0  0  0  0  0  0  0  0  0  0  0
  -29.0033  -14.3583   19.2866 C   0  0  0  0  0  0  0  0  0  0  0  0
  -20.1880  -34.8893   17.5991 C   0  0  0  0  0  0  0  0  0  0  0  0
  -23.4777  -29.4368   21.2049 C   0  0  0  0  0  0  0  0  0  0  0  0
  -25.8768  -31.1644   21.1341 C   0  0  0  0  0  0  0  0  0  0  0  0
  -21.6072  -34.8461   18.1597 C   0  0  0  0  0  0  0  0  0  0  0  0
  -29.2704  -12.0906   16.3884 C   0  0  0  0  0  0  0  0  0  0  0  0
  -29.0085  -23.5822   20.7405 C   0  0  0  0  0  0  0  0  0  0  0  0
  -29.9002  -24.0851   18.4186 C   0  0  0  0  0  0  0  0  0  0  0  0
  -22.4009  -33.7131   17.5169 C   0  0  0  0  0  0  0  0  0  0  0  0
  -28.6784  -10.8076   16.9643 C   0  0  0  0  0  0  0  0  0  0  0  0
  -28.8265  -25.0776   20.9874 C   0  0  0  0  0  0  0  0  0  0  0  0
  -29.7141  -25.5778   18.6779 C   0  0  0  0  0  0  0  0  0  0  0  0
  -31.2989  -16.7542   19.9229 C   0  0  0  0  0  0  0  0  0  0  0  0
  -28.6043  -13.3390   16.9655 C   0  0  0  0  0  0  0  0  0  0  0  0
  -28.0243  -12.0998   19.0325 C   0  0  0  0  0  0  0  0  0  0  0  0
  -30.1369  -23.3133   19.7290 C   0  0  0  0  0  0  0  0  0  0  0  0
  -30.8780  -17.6364   18.7811 C   0  0  1  0  0  0  0  0  0  0  0  0
  -21.7634  -32.3518   17.8200 C   0  0  1  0  0  0  0  0  0  0  0  0
  -23.3789  -30.9385   20.9547 C   0  0  1  0  0  0  0  0  0  0  0  0
  -28.7149  -10.8349   18.5000 C   0  0  1  0  0  0  0  0  0  0  0  0
  -29.8985  -16.6646   19.3927 C   0  0  1  0  0  0  0  0  0  0  0  0
  -28.5965  -25.8409   19.6843 C   0  0  0  0  0  0  0  0  0  1  0  0
  -33.0266  -19.2272   19.9529 C   0  0  0  0  0  0  0  0  0  0  0  0
  -27.4974  -18.1722   16.1138 C   0  0  0  0  0  0  0  0  0  0  0  0
  -27.2824  -34.6749   26.5049 C   0  0  0  0  0  0  0  0  0  0  0  0
  -25.4770  -34.9750   20.1392 C   0  0  0  0  0  0  0  0  0  0  0  0
  -26.8771  -35.8613   22.0160 C   0  0  0  0  0  0  0  0  0  0  0  0
  -24.3889  -35.9496   22.1691 C   0  0  0  0  0  0  0  0  0  0  0  0
  -26.2780  -31.0051   26.5114 C   0  0  0  0  0  0  0  0  0  0  0  0
  -28.0051  -19.3893   16.8571 C   0  0  0  0  0  0  0  0  0  0  0  0
  -25.5665  -33.7239   22.3959 C   0  0  1  0  0  0  0  0  0  0  0  0
  -26.4938  -33.4525   26.0615 C   0  0  2  0  0  0  0  0  0  0  0  0
  -25.5790  -35.1001   21.6725 C   0  0  0  0  0  0  0  0  0  0  0  0
  -26.8178   -9.5513   19.4147 N   0  0  0  0  0  0  0  0  0  0  0  0
  -28.1241   -9.5721   19.0998 N   0  0  0  0  0  0  0  0  0  0  0  0
  -24.5365  -31.6743   21.4674 N   0  0  0  0  0  0  0  0  0  0  0  0
  -28.5929  -13.3152   18.4367 N   0  0  0  0  0  0  0  0  0  0  0  0
  -30.0924   -8.2545   19.1169 N   0  0  0  0  0  0  0  0  0  0  0  0
  -27.8950   -5.1761   19.4146 N   0  0  0  0  0  0  0  0  0  0  0  0
  -22.0843  -31.9322   19.1674 N   0  0  0  0  0  0  0  0  0  0  0  0
  -25.6345  -33.8128   23.8505 N   0  0  0  0  0  0  0  0  0  0  0  0
  -29.4526  -15.5127   18.6554 N   0  0  0  0  0  0  0  0  0  0  0  0
  -26.9828  -32.2734   26.8305 N   0  3  0  0  0  0  0  0  0  0  0  0
  -28.3742   -5.9418   21.5224 O   0  0  0  0  0  0  0  0  0  0  0  0
  -24.1573  -30.9679   18.7257 O   0  0  0  0  0  0  0  0  0  0  0  0
  -23.2206  -33.3737   22.3711 O   0  0  0  0  0  0  0  0  0  0  0  0
  -27.5662  -32.5529   24.0922 O   0  0  0  0  0  0  0  0  0  0  0  0
  -28.9673  -14.2716   20.5190 O   0  0  0  0  0  0  0  0  0  0  0  0
  -21.5972   -6.6973   21.6833 O   0  0  0  0  0  0  0  0  0  0  0  0
  -28.5460  -27.2382   19.9515 O   0  0  0  0  0  0  0  0  0  1  0  0
  -28.4611  -18.9888   18.1476 O   0  0  0  0  0  0  0  0  0  0  0  0
  -21.3119   -2.1439   24.7799 F   0  0  0  0  0  0  0  0  0  0  0  0
  -20.5764   -6.7898   24.2508 F   0  0  0  0  0  0  0  0  0  0  0  0
  1  2  1  0  0  0  0
  1  5  2  0  0  0  0
  2  6  2  0  0  0  0
  3  8  2  0  0  0  0
  3 17  1  0  0  0  0
  4  9  1  0  0  0  0
  4 17  2  0  0  0  0
  5 19  1  0  0  0  0
  6 21  1  0  0  0  0
  7 10  2  0  0  0  0
  7 20  1  0  0  0  0
  8 26  1  0  0  0  0
  9 26  2  0  0  0  0
 10 27  1  0  0  0  0
 11 12  2  0  0  0  0
 11 28  1  0  0  0  0
 12 30  1  0  0  0  0
 13 22  1  0  0  0  0
 13 25  2  0  0  0  0
 14 22  2  0  0  0  0
 14 29  1  0  0  0  0
 15 23  1  0  0  0  0
 15 27  2  0  0  0  0
 16 30  2  0  0  0  0
 16 31  1  0  0  0  0
 17 32  1  0  0  0  0
 18 32  1  0  0  0  0
 18 33  2  0  0  0  0
 18 34  1  0  0  0  0
 19 21  2  0  0  0  0
 19 39  1  0  0  0  0
 20 23  2  0  0  0  0
 20 40  1  0  0  0  0
 21 55  1  0  0  0  0
 22 53  1  0  0  0  0
 23 41  1  0  0  0  0
 24 25  1  0  0  0  0
 24 29  2  0  0  0  0
 24 54  1  0  0  0  0
 25 60  1  0  0  0  0
 26 86  1  0  0  0  0
 27 87  1  0  0  0  0
 28 31  2  0  0  0  0
 28 86  1  0  0  0  0
 29 88  1  0  0  0  0
 30 89  1  0  0  0  0
 31 90  1  0  0  0  0
 32 71  2  0  0  0  0
 33 72  1  0  0  0  0
 33 75  1  0  0  0  0
 34 76  1  0  0  0  0
 34 81  2  0  0  0  0
 35 56  1  0  0  0  0
 35 77  1  0  0  0  0
 35 82  2  0  0  0  0
 36 68  1  0  0  0  0
 36 73  1  0  0  0  0
 36 83  2  0  0  0  0
 37 69  1  0  0  0  0
 37 78  1  0  0  0  0
 37 84  2  0  0  0  0
 38 74  1  0  0  0  0
 38 79  1  0  0  0  0
 38 85  2  0  0  0  0
 39 42  1  0  0  0  0
 40 56  1  0  0  0  0
 41 73  1  0  0  0  0
 42 46  1  0  0  0  0
 43 47  1  0  0  0  0
 43 51  1  0  0  0  0
 44 48  1  0  0  0  0
 44 53  1  0  0  0  0
 45 49  1  0  0  0  0
 45 53  1  0  0  0  0
 46 55  1  0  0  0  0
 47 57  1  0  0  0  0
 48 59  1  0  0  0  0
 49 59  1  0  0  0  0
 50 54  1  0  0  0  0
 50 58  1  0  0  0  0
 51 74  1  0  0  0  0
 52 57  1  0  0  0  0
 52 74  1  0  0  0  0
 54 58  1  0  0  0  0
 55 77  1  0  0  0  0
 56 73  1  0  0  0  0
 57 72  1  0  0  0  0
 58 79  1  0  0  0  0
 59 87  1  0  0  0  0
 61 67  1  0  0  0  0
 62 69  1  0  0  0  0
 63 70  1  0  0  0  0
 64 70  1  0  0  0  0
 65 70  1  0  0  0  0
 66 80  1  0  0  0  0
 67 88  1  0  0  0  0
 68 70  1  0  0  0  0
 68 78  1  0  0  0  0
 69 80  1  0  0  0  0
 71 72  1  0  0  0  0
M  CHG  1  80   1
M  ISO  4  38 100  59 101  79 100  87 101
M  END
> <Batch ID>
0149

> <Smiles>
CCOc1cc(C2CC[101CH:1]([101O:1]c3ccc4c(c3)CN(C(=O)C(NC(=O)C(C)NC)C(C)(C)C)C(C(=O)NC3CCCc5ccccc53)C4)CC2)cc(C)c1C1CC1[100NH:0][100C:0](=O)N1CCCC(n2nc(-c3ccc(Oc4ccc(F)cc4F)cc3)c(C(N)=O)c2N)C1

> <Shape>
0.268

> <Color>
0.094

> <Negative vol penalty>
0.000

$$$$

  -OEChem-04052321383D

 89 98  0     1  0  0  0  0  0999 V2000
  -15.1838  -26.9483   25.1200 C   0  0  0  0  0  0  0  0  0  0  0  0
  -16.0413  -25.9970   24.5766 C   0  0  0  0  0  0  0  0  0  0  0  0
  -29.3073  -19.6213   19.2802 C   0  0  0  0  0  0  0  0  0  0  0  0
  -27.0269  -19.3256   20.0213 C   0  0  0  0  0  0  0  0  0  0  0  0
  -15.4319  -28.3053   24.9178 C   0  0  0  0  0  0  0  0  0  0  0  0
  -17.1470  -26.4023   23.8299 C   0  0  0  0  0  0  0  0  0  0  0  0
  -21.3549  -23.8654   25.0559 C   0  0  0  0  0  0  0  0  0  0  0  0
  -28.9443  -20.8034   18.6348 C   0  0  0  0  0  0  0  0  0  0  0  0
  -26.6638  -20.5076   19.3759 C   0  0  0  0  0  0  0  0  0  0  0  0
  -21.4921  -22.5753   24.5454 C   0  0  0  0  0  0  0  0  0  0  0  0
  -28.3289  -24.0177   19.4846 C   0  0  0  0  0  0  0  0  0  0  0  0
  -29.1609  -25.1257   19.6449 C   0  0  0  0  0  0  0  0  0  0  0  0
  -22.9482  -23.4202   22.8177 C   0  0  0  0  0  0  0  0  0  0  0  0
  -29.5249  -25.1977   17.2575 C   0  0  0  0  0  0  0  0  0  0  0  0
  -20.8665  -16.0053   20.1056 C   0  0  0  0  0  0  0  0  0  0  0  0
  -28.3486  -18.8824   19.9734 C   0  0  0  0  0  0  0  0  0  0  0  0
  -29.1721  -17.5196   21.9665 C   0  0  0  0  0  0  0  0  0  0  0  0
  -16.5466  -28.7276   24.1764 C   0  0  0  0  0  0  0  0  0  0  0  0
  -22.0057  -24.9461   24.4435 C   0  0  0  0  0  0  0  0  0  0  0  0
  -17.4096  -27.7662   23.6165 C   0  0  0  0  0  0  0  0  0  0  0  0
  -22.8197  -24.7227   23.3239 C   0  0  0  0  0  0  0  0  0  0  0  0
  -21.3537  -14.8446   20.6844 C   0  0  0  0  0  0  0  0  0  0  0  0
  -22.3325  -14.9671   21.6643 C   0  0  0  0  0  0  0  0  0  0  0  0
  -22.7878  -16.2289   22.0302 C   0  0  0  0  0  0  0  0  0  0  0  0
  -27.6226  -21.2466   18.6827 C   0  0  0  0  0  0  0  0  0  0  0  0
  -22.2865  -22.3530   23.4245 C   0  0  0  0  0  0  0  0  0  0  0  0
  -28.0949  -23.4996   18.2107 C   0  0  0  0  0  0  0  0  0  0  0  0
  -29.7589  -25.7157   18.5313 C   0  0  0  0  0  0  0  0  0  0  0  0
  -28.6929  -24.0897   17.0972 C   0  0  0  0  0  0  0  0  0  0  0  0
  -28.7229  -17.6610   20.6399 C   0  0  0  0  0  0  0  0  0  0  0  0
  -22.2366  -17.3277   21.3910 C   0  0  0  0  0  0  0  0  0  0  0  0
  -29.3934  -16.1720   22.1124 C   0  0  0  0  0  0  0  0  0  0  0  0
  -29.3714  -18.5174   22.9767 C   0  0  0  0  0  0  0  0  0  0  0  0
  -21.0532  -27.6236   23.0196 C   0  0  0  0  0  0  0  0  0  0  0  0
  -24.2339  -28.2565   22.9489 C   0  0  0  0  0  0  0  0  0  0  0  0
  -27.4283  -27.0561   22.9863 C   0  0  0  0  0  0  0  0  0  0  0  0
  -27.2452  -11.3505   19.5530 C   0  0  0  0  0  0  0  0  0  0  0  0
  -16.7473  -30.2044   23.9449 C   0  0  0  0  0  0  0  0  0  0  0  0
  -21.8689  -26.3276   25.0224 C   0  0  0  0  0  0  0  0  0  0  0  0
  -23.5559  -25.8458   22.6419 C   0  0  0  0  0  0  0  0  0  0  0  0
  -18.1495  -30.5594   23.4571 C   0  0  0  0  0  0  0  0  0  0  0  0
  -30.5774  -12.2701   19.6198 C   0  0  0  0  0  0  0  0  0  0  0  0
  -18.5780  -29.6200   22.3343 C   0  0  0  0  0  0  0  0  0  0  0  0
  -30.5389  -13.7448   20.0202 C   0  0  0  0  0  0  0  0  0  0  0  0
  -24.5467  -11.8399   22.0440 C   0  0  0  0  0  0  0  0  0  0  0  0
  -24.3800  -13.6441   20.2930 C   0  0  0  0  0  0  0  0  0  0  0  0
  -29.4652  -11.9440   18.6296 C   0  0  0  0  0  0  0  0  0  0  0  0
  -25.3224  -10.9760   21.0534 C   0  0  0  0  0  0  0  0  0  0  0  0
  -25.1534  -12.7447   19.3343 C   0  0  0  0  0  0  0  0  0  0  0  0
  -28.0434  -13.7563   19.5294 C   0  0  0  0  0  0  0  0  0  0  0  0
  -18.6332  -28.1670   22.8215 C   0  0  1  0  0  0  0  0  0  0  0  0
  -22.1653  -27.4310   24.0115 C   0  0  1  0  0  0  0  0  0  0  0  0
  -23.6056  -12.8177   21.3286 C   0  0  0  0  0  0  0  0  0  0  0  0
  -29.1446  -14.1405   20.5380 C   0  0  2  0  0  0  0  0  0  0  0  0
  -20.8287  -13.5191   20.2532 C   0  0  0  0  0  0  0  0  0  0  0  0
  -23.8380  -16.3988   23.0757 C   0  0  0  0  0  0  0  0  0  0  0  0
  -21.8202  -12.9614   23.1025 C   0  0  0  0  0  0  0  0  0  0  0  0
  -29.8185  -27.8128   22.8772 C   0  0  0  0  0  0  0  0  0  0  0  0
  -23.9481  -28.7182   19.9464 C   0  0  0  0  0  0  0  0  0  0  0  0
  -26.4366  -28.5255   19.7504 C   0  0  0  0  0  0  0  0  0  0  0  0
  -25.4329  -30.3552   21.1169 C   0  0  0  0  0  0  0  0  0  0  0  0
  -28.0253  -25.9394   25.6613 C   0  0  0  0  0  0  0  0  0  0  0  0
  -22.6451  -20.9747   21.5198 C   0  0  0  0  0  0  0  0  0  1  0  0
  -22.0499  -19.6703   21.0260 C   0  0  0  0  0  0  0  0  0  0  0  0
  -22.9008  -13.7272   22.3323 C   0  0  2  0  0  0  0  0  0  0  0  0
  -25.3577  -27.9799   21.9796 C   0  0  1  0  0  0  0  0  0  0  0  0
  -28.6500  -27.4684   23.7875 C   0  0  2  0  0  0  0  0  0  0  0  0
  -25.2785  -28.8736   20.7098 C   0  0  0  0  0  0  0  0  0  0  0  0
  -21.2842  -17.2482   20.4348 N   0  0  0  0  0  0  0  0  0  0  0  0
  -28.6620  -16.4961   19.9893 N   0  0  0  0  0  0  0  0  0  0  0  0
  -29.0760  -15.6099   20.9109 N   0  0  0  0  0  0  0  0  0  0  0  0
  -23.3853  -27.1795   23.2416 N   0  0  0  0  0  0  0  0  0  0  0  0
  -28.1587  -12.3387   19.1560 N   0  0  0  0  0  0  0  0  0  0  0  0
  -26.0100  -11.7932   20.0546 N   0  0  0  0  0  0  0  0  0  0  0  0
  -29.8267  -15.4247   23.1499 N   0  0  0  0  0  0  0  0  0  0  0  0
  -29.0956  -19.8543   22.6591 N   0  0  0  0  0  0  0  0  0  0  0  0
  -19.8360  -27.9381   23.5931 N   0  0  0  0  0  0  0  0  0  0  0  0
  -26.5957  -28.1266   22.7373 N   0  0  0  0  0  0  0  0  0  0  0  0
  -29.0711  -26.3639   24.6952 N   0  3  0  0  0  0  0  0  0  0  0  0
  -29.7977  -18.2338   24.1219 O   0  0  0  0  0  0  0  0  0  0  0  0
  -21.2828  -27.4976   21.8225 O   0  0  0  0  0  0  0  0  0  0  0  0
  -24.1177  -29.3847   23.4340 O   0  0  0  0  0  0  0  0  0  0  0  0
  -27.2341  -25.9007   22.6150 O   0  0  0  0  0  0  0  0  0  0  0  0
  -27.5156  -10.1459   19.4698 O   0  0  0  0  0  0  0  0  0  0  0  0
  -27.2680  -22.4001   18.0532 O   0  0  0  0  0  0  0  0  0  0  0  0
  -22.4225  -21.0862   22.9204 O   0  0  0  0  0  0  0  0  0  1  0  0
  -22.6585  -18.5891   21.7218 O   0  0  0  0  0  0  0  0  0  0  0  0
  -30.5566  -26.7807   18.6853 F   0  0  0  0  0  0  0  0  0  0  0  0
  -28.4710  -23.5972   15.8709 F   0  0  0  0  0  0  0  0  0  0  0  0
  1  2  1  0  0  0  0
  1  5  2  0  0  0  0
  2  6  2  0  0  0  0
  3  8  2  0  0  0  0
  3 16  1  0  0  0  0
  4  9  1  0  0  0  0
  4 16  2  0  0  0  0
  5 18  1  0  0  0  0
  6 20  1  0  0  0  0
  7 10  2  0  0  0  0
  7 19  1  0  0  0  0
  8 25  1  0  0  0  0
  9 25  2  0  0  0  0
 10 26  1  0  0  0  0
 11 12  2  0  0  0  0
 11 27  1  0  0  0  0
 12 28  1  0  0  0  0
 13 21  1  0  0  0  0
 13 26  2  0  0  0  0
 14 28  2  0  0  0  0
 14 29  1  0  0  0  0
 15 22  1  0  0  0  0
 15 69  2  0  0  0  0
 16 30  1  0  0  0  0
 17 30  1  0  0  0  0
 17 32  2  0  0  0  0
 17 33  1  0  0  0  0
 18 20  2  0  0  0  0
 18 38  1  0  0  0  0
 19 21  2  0  0  0  0
 19 39  1  0  0  0  0
 20 51  1  0  0  0  0
 21 40  1  0  0  0  0
 22 23  2  0  0  0  0
 22 55  1  0  0  0  0
 23 24  1  0  0  0  0
 23 65  1  0  0  0  0
 24 31  2  0  0  0  0
 24 56  1  0  0  0  0
 25 85  1  0  0  0  0
 26 86  1  0  0  0  0
 27 29  2  0  0  0  0
 27 85  1  0  0  0  0
 28 88  1  0  0  0  0
 29 89  1  0  0  0  0
 30 70  2  0  0  0  0
 31 69  1  0  0  0  0
 31 87  1  0  0  0  0
 32 71  1  0  0  0  0
 32 75  1  0  0  0  0
 33 76  1  0  0  0  0
 33 80  2  0  0  0  0
 34 52  1  0  0  0  0
 34 77  1  0  0  0  0
 34 81  2  0  0  0  0
 35 66  1  0  0  0  0
 35 72  1  0  0  0  0
 35 82  2  0  0  0  0
 36 67  1  0  0  0  0
 36 78  1  0  0  0  0
 36 83  2  0  0  0  0
 37 73  1  0  0  0  0
 37 74  1  0  0  0  0
 37 84  2  0  0  0  0
 38 41  1  0  0  0  0
 39 52  1  0  0  0  0
 40 72  1  0  0  0  0
 41 43  1  0  0  0  0
 42 44  1  0  0  0  0
 42 47  1  0  0  0  0
 43 51  1  0  0  0  0
 44 54  1  0  0  0  0
 45 48  1  0  0  0  0
 45 53  1  0  0  0  0
 46 49  1  0  0  0  0
 46 53  1  0  0  0  0
 47 73  1  0  0  0  0
 48 74  1  0  0  0  0
 49 74  1  0  0  0  0
 50 54  1  0  0  0  0
 50 73  1  0  0  0  0
 51 77  1  0  0  0  0
 52 72  1  0  0  0  0
 53 65  1  0  0  0  0
 54 71  1  0  0  0  0
 57 65  1  0  0  0  0
 58 67  1  0  0  0  0
 59 68  1  0  0  0  0
 60 68  1  0  0  0  0
 61 68  1  0  0  0  0
 62 79  1  0  0  0  0
 63 64  1  0  0  0  0
 63 86  1  0  0  0  0
 64 87  1  0  0  0  0
 66 68  1  0  0  0  0
 66 78  1  0  0  0  0
 67 79  1  0  0  0  0
 70 71  1  0  0  0  0
M  CHG  1  79   1
M  ISO  4  37 100  63 101  74 100  86 101
M  END
> <Batch ID>
0149

> <Smiles>
CNC(C)C(=O)NC(C(=O)N1Cc2cc([101O:1][101CH2:1]COc3ncc(C)c(C(C)C4CC[100N:0]([100C:0](=O)N5CCCC(n6nc(-c7ccc(Oc8ccc(F)cc8F)cc7)c(C(N)=O)c6N)C5)CC4)c3C)ccc2CC1C(=O)NC1CCCc2ccccc21)C(C)(C)C

> <Shape>
0.255

> <Color>
0.056

> <Negative vol penalty>
0.000

$$$$

  -OEChem-04052321383D

 89 98  0     1  0  0  0  0  0999 V2000
  -32.0258  -26.3395   14.7808 C   0  0  0  0  0  0  0  0  0  0  0  0
  -30.8138  -25.7289   15.0870 C   0  0  0  0  0  0  0  0  0  0  0  0
  -23.5062  -10.2133   22.3197 C   0  0  0  0  0  0  0  0  0  0  0  0
  -23.1106   -9.9408   19.9520 C   0  0  0  0  0  0  0  0  0  0  0  0
  -32.7365  -27.0125   15.7738 C   0  0  0  0  0  0  0  0  0  0  0  0
  -30.3124  -25.7900   16.3867 C   0  0  0  0  0  0  0  0  0  0  0  0
  -24.4294  -26.1512   18.0498 C   0  0  0  0  0  0  0  0  0  0  0  0
  -23.2447   -8.8578   22.5194 C   0  0  0  0  0  0  0  0  0  0  0  0
  -22.8492   -8.5853   20.1516 C   0  0  0  0  0  0  0  0  0  0  0  0
  -23.5154  -25.1900   18.4794 C   0  0  0  0  0  0  0  0  0  0  0  0
  -20.5341   -6.8516   22.7475 C   0  0  0  0  0  0  0  0  0  0  0  0
  -19.7088   -6.5021   23.8162 C   0  0  0  0  0  0  0  0  0  0  0  0
  -24.0096  -25.7536   20.7723 C   0  0  0  0  0  0  0  0  0  0  0  0
  -23.9854  -20.8270   20.4659 C   0  0  0  0  0  0  0  0  0  0  0  0
  -23.7226  -19.4929   18.4688 C   0  0  0  0  0  0  0  0  0  0  0  0
  -21.5012   -5.1946   24.7727 C   0  0  0  0  0  0  0  0  0  0  0  0
  -23.4391  -10.7548   21.0360 C   0  0  0  0  0  0  0  0  0  0  0  0
  -24.9543  -12.7493   20.5525 C   0  0  0  0  0  0  0  0  0  0  0  0
  -32.2388  -27.0901   17.0841 C   0  0  0  0  0  0  0  0  0  0  0  0
  -25.1496  -26.9145   18.9799 C   0  0  0  0  0  0  0  0  0  0  0  0
  -31.0177  -26.4635   17.3985 C   0  0  0  0  0  0  0  0  0  0  0  0
  -24.9303  -26.7255   20.3519 C   0  0  0  0  0  0  0  0  0  0  0  0
  -21.8116  -20.6130   19.4334 C   0  0  0  0  0  0  0  0  0  0  0  0
  -22.6238  -21.1291   20.4432 C   0  0  0  0  0  0  0  0  0  0  0  0
  -22.9162   -8.0438   21.4354 C   0  0  0  0  0  0  0  0  0  0  0  0
  -23.3075  -24.9891   19.8408 C   0  0  0  0  0  0  0  0  0  0  0  0
  -21.8430   -6.3725   22.6912 C   0  0  0  0  0  0  0  0  0  0  0  0
  -24.5348  -20.0090   19.4786 C   0  0  0  0  0  0  0  0  0  0  0  0
  -22.3610  -19.7949   18.4462 C   0  0  0  0  0  0  0  0  0  0  0  0
  -20.1924   -5.6736   24.8289 C   0  0  0  0  0  0  0  0  0  0  0  0
  -22.3265   -5.5440   23.7039 C   0  0  0  0  0  0  0  0  0  0  0  0
  -23.7085  -12.1551   20.8292 C   0  0  0  0  0  0  0  0  0  0  0  0
  -24.6785  -14.0903   20.4433 C   0  0  0  0  0  0  0  0  0  0  0  0
  -26.2455  -12.1431   20.4070 C   0  0  0  0  0  0  0  0  0  0  0  0
  -28.2287  -27.2740   19.6826 C   0  0  0  0  0  0  0  0  0  0  0  0
  -27.1061  -29.5847   21.6631 C   0  0  0  0  0  0  0  0  0  0  0  0
  -24.4974  -30.8292   23.4777 C   0  0  0  0  0  0  0  0  0  0  0  0
  -19.7530  -16.9845   18.9537 C   0  0  0  0  0  0  0  0  0  0  0  0
  -33.0657  -27.7882   18.1346 C   0  0  0  0  0  0  0  0  0  0  0  0
  -26.1123  -27.9658   18.5001 C   0  0  0  0  0  0  0  0  0  0  0  0
  -25.6633  -27.5330   21.3907 C   0  0  0  0  0  0  0  0  0  0  0  0
  -32.2827  -28.1269   19.4004 C   0  0  0  0  0  0  0  0  0  0  0  0
  -21.6286  -17.4264   22.0171 C   0  0  0  0  0  0  0  0  0  0  0  0
  -31.4585  -26.9267   19.8555 C   0  0  0  0  0  0  0  0  0  0  0  0
  -22.4976  -16.1674   22.0260 C   0  0  0  0  0  0  0  0  0  0  0  0
  -20.2344  -17.1320   21.4715 C   0  0  0  0  0  0  0  0  0  0  0  0
  -21.0891  -15.2549   20.1225 C   0  0  0  0  0  0  0  0  0  0  0  0
  -19.8843  -22.1767   18.6731 C   0  0  0  0  0  0  0  0  0  0  0  0
  -30.4289  -26.5290   18.7910 C   0  0  1  0  0  0  0  0  0  0  0  0
  -20.3515  -20.9328   19.4042 C   0  0  1  0  0  0  0  0  0  0  0  0
  -27.1680  -28.3286   19.5400 C   0  0  1  0  0  0  0  0  0  0  0  0
  -22.5188  -15.4914   20.6422 C   0  0  2  0  0  0  0  0  0  0  0  0
  -22.2038  -21.3761   22.9119 C   0  0  0  0  0  0  0  0  0  0  0  0
  -23.8938  -32.7110   25.0243 C   0  0  0  0  0  0  0  0  0  0  0  0
  -28.6290  -28.2125   23.9231 C   0  0  0  0  0  0  0  0  0  0  0  0
  -27.2568  -29.5278   25.5527 C   0  0  0  0  0  0  0  0  0  0  0  0
  -28.7550  -30.7101   23.9463 C   0  0  0  0  0  0  0  0  0  0  0  0
  -22.4086  -31.8283   21.6345 C   0  0  0  0  0  0  0  0  0  0  0  0
  -26.3595  -18.8718   18.4621 C   0  0  0  0  0  0  0  0  0  0  0  0
  -22.2312  -18.4547   16.4859 C   0  0  0  0  0  0  0  0  0  0  0  0
  -18.3994  -18.7902   17.9221 C   0  0  0  0  0  0  0  0  0  0  0  0
  -18.3313  -20.3005   18.0506 C   0  0  0  0  0  0  0  0  0  0  0  0
  -22.6799  -23.4225   21.5166 C   0  0  0  0  0  0  0  0  0  1  0  0
  -22.0510  -22.0226   21.5322 C   0  0  1  0  0  0  0  0  0  0  0  0
  -26.6341  -29.6277   23.0964 C   0  0  1  0  0  0  0  0  0  0  0  0
  -23.9201  -32.2293   23.5821 C   0  0  2  0  0  0  0  0  0  0  0  0
  -27.8062  -29.5028   24.1103 C   0  0  0  0  0  0  0  0  0  0  0  0
  -22.7151  -13.0457   20.8921 N   0  0  0  0  0  0  0  0  0  0  0  0
  -23.3365  -14.2132   20.6535 N   0  0  0  0  0  0  0  0  0  0  0  0
  -26.5987  -28.5445   20.8717 N   0  0  0  0  0  0  0  0  0  0  0  0
  -20.3247  -16.5065   20.1446 N   0  0  0  0  0  0  0  0  0  0  0  0
  -25.4554  -15.1647   20.1892 N   0  0  0  0  0  0  0  0  0  0  0  0
  -26.3509  -10.7529   20.5501 N   0  0  0  0  0  0  0  0  0  0  0  0
  -29.2972  -27.4306   18.8205 N   0  0  0  0  0  0  0  0  0  0  0  0
  -25.8541  -30.8530   23.2328 N   0  0  0  0  0  0  0  0  0  0  0  0
  -19.0395  -18.1719   19.0618 N   0  0  0  0  0  0  0  0  0  0  0  0
  -19.6870  -20.8550   18.1082 N   0  3  1  0  0  0  0  0  0  0  0  0
  -22.5275  -32.2563   23.0521 N   0  3  0  0  0  0  0  0  0  0  0  0
  -27.2779  -12.8163   20.1737 O   0  0  0  0  0  0  0  0  0  0  0  0
  -28.0888  -26.3849   20.5142 O   0  0  0  0  0  0  0  0  0  0  0  0
  -27.8904  -30.4467   21.2586 O   0  0  0  0  0  0  0  0  0  0  0  0
  -23.8139  -29.8157   23.6048 O   0  0  0  0  0  0  0  0  0  0  0  0
  -19.8741  -16.3990   17.8722 O   0  0  0  0  0  0  0  0  0  0  0  0
  -22.6613   -6.7210   21.6298 O   0  0  0  0  0  0  0  0  0  0  0  0
  -25.8633  -19.7139   19.5015 O   0  0  0  0  0  0  0  0  0  0  0  0
  -21.5841  -19.2805   17.4517 O   0  0  0  0  0  0  0  0  0  0  0  0
  -22.4164  -24.0511   20.2629 O   0  0  0  0  0  0  0  0  0  1  0  0
  -19.4002   -5.3393   25.8560 F   0  0  0  0  0  0  0  0  0  0  0  0
  -23.5834   -5.0817   23.6559 F   0  0  0  0  0  0  0  0  0  0  0  0
  1  2  1  0  0  0  0
  1  5  2  0  0  0  0
  2  6  2  0  0  0  0
  3  8  2  0  0  0  0
  3 17  1  0  0  0  0
  4  9  1  0  0  0  0
  4 17  2  0  0  0  0
  5 19  1  0  0  0  0
  6 21  1  0  0  0  0
  7 10  2  0  0  0  0
  7 20  1  0  0  0  0
  8 25  1  0  0  0  0
  9 25  2  0  0  0  0
 10 26  1  0  0  0  0
 11 12  2  0  0  0  0
 11 27  1  0  0  0  0
 12 30  1  0  0  0  0
 13 22  1  0  0  0  0
 13 26  2  0  0  0  0
 14 24  1  0  0  0  0
 14 28  2  0  0  0  0
 15 28  1  0  0  0  0
 15 29  2  0  0  0  0
 16 30  2  0  0  0  0
 16 31  1  0  0  0  0
 17 32  1  0  0  0  0
 18 32  1  0  0  0  0
 18 33  2  0  0  0  0
 18 34  1  0  0  0  0
 19 21  2  0  0  0  0
 19 39  1  0  0  0  0
 20 22  2  0  0  0  0
 20 40  1  0  0  0  0
 21 49  1  0  0  0  0
 22 41  1  0  0  0  0
 23 24  2  0  0  0  0
 23 29  1  0  0  0  0
 23 50  1  0  0  0  0
 24 64  1  0  0  0  0
 25 84  1  0  0  0  0
 26 87  1  0  0  0  0
 27 31  2  0  0  0  0
 27 84  1  0  0  0  0
 28 85  1  0  0  0  0
 29 86  1  0  0  0  0
 30 88  1  0  0  0  0
 31 89  1  0  0  0  0
 32 68  2  0  0  0  0
 33 69  1  0  0  0  0
 33 72  1  0  0  0  0
 34 73  1  0  0  0  0
 34 79  2  0  0  0  0
 35 51  1  0  0  0  0
 35 74  1  0  0  0  0
 35 80  2  0  0  0  0
 36 65  1  0  0  0  0
 36 70  1  0  0  0  0
 36 81  2  0  0  0  0
 37 66  1  0  0  0  0
 37 75  1  0  0  0  0
 37 82  2  0  0  0  0
 38 71  1  0  0  0  0
 38 76  1  0  0  0  0
 38 83  2  0  0  0  0
 39 42  1  0  0  0  0
 40 51  1  0  0  0  0
 41 70  1  0  0  0  0
 42 44  1  0  0  0  0
 43 45  1  0  0  0  0
 43 46  1  0  0  0  0
 44 49  1  0  0  0  0
 45 52  1  0  0  0  0
 46 71  1  0  0  0  0
 47 52  1  0  0  0  0
 47 71  1  0  0  0  0
 48 50  1  0  0  0  0
 48 77  1  0  0  0  0
 49 74  1  0  0  0  0
 50 77  1  0  0  0  0
 51 70  1  0  0  0  0
 52 69  1  0  0  0  0
 53 64  1  0  0  0  0
 54 66  1  0  0  0  0
 55 67  1  0  0  0  0
 56 67  1  0  0  0  0
 57 67  1  0  0  0  0
 58 78  1  0  0  0  0
 59 85  1  0  0  0  0
 60 86  1  0  0  0  0
 61 62  1  0  0  0  0
 61 76  1  0  0  0  0
 62 77  1  0  0  0  0
 63 64  1  0  0  0  0
 63 87  1  0  0  0  0
 65 67  1  0  0  0  0
 65 75  1  0  0  0  0
 66 78  1  0  0  0  0
 68 69  1  0  0  0  0
M  CHG  2  77   1  78   1
M  ISO  4  38 100  63 101  76 100  87 101
M  END
> <Batch ID>
0149

> <Smiles>
CNC(C)C(=O)NC(C(=O)N1Cc2cc([101O:1][101CH2:1]C(C)c3cc(OC)cc(OC)c3C3CN3CC[100NH:0][100C:0](=O)N3CCCC(n4nc(-c5ccc(Oc6ccc(F)cc6F)cc5)c(C(N)=O)c4N)C3)ccc2CC1C(=O)NC1CCCc2ccccc21)C(C)(C)C

> <Shape>
0.216

> <Color>
0.100

> <Negative vol penalty>
0.000

$$$$

  -OEChem-04052321383D

 88 97  0     1  0  0  0  0  0999 V2000
  -21.2472  -24.8166   28.3384 C   0  0  0  0  0  0  0  0  0  0  0  0
  -20.5187  -24.2780   27.2826 C   0  0  0  0  0  0  0  0  0  0  0  0
  -28.4040  -28.7202   20.4479 C   0  0  0  0  0  0  0  0  0  0  0  0
  -26.9864  -26.8477   19.8812 C   0  0  0  0  0  0  0  0  0  0  0  0
  -22.6355  -24.6898   28.3621 C   0  0  0  0  0  0  0  0  0  0  0  0
  -21.1782  -23.6134   26.2493 C   0  0  0  0  0  0  0  0  0  0  0  0
  -18.8984  -19.2790   24.9606 C   0  0  0  0  0  0  0  0  0  0  0  0
  -29.5334  -27.9318   20.2278 C   0  0  0  0  0  0  0  0  0  0  0  0
  -28.1158  -26.0593   19.6610 C   0  0  0  0  0  0  0  0  0  0  0  0
  -17.7582  -19.3717   24.1636 C   0  0  0  0  0  0  0  0  0  0  0  0
  -30.3723  -24.3643   21.5227 C   0  0  0  0  0  0  0  0  0  0  0  0
  -30.3763  -23.0750   22.0548 C   0  0  0  0  0  0  0  0  0  0  0  0
  -19.0792  -18.8241   22.2208 C   0  0  0  0  0  0  0  0  0  0  0  0
  -16.1170  -24.2038   22.5972 C   0  0  0  0  0  0  0  0  0  0  0  0
  -15.2298  -25.5142   20.7717 C   0  0  0  0  0  0  0  0  0  0  0  0
  -30.6248  -22.1589   19.8330 C   0  0  0  0  0  0  0  0  0  0  0  0
  -27.1305  -28.1781   20.2747 C   0  0  0  0  0  0  0  0  0  0  0  0
  -25.2861  -29.7894   19.5607 C   0  0  0  0  0  0  0  0  0  0  0  0
  -23.3115  -24.0148   27.3335 C   0  0  0  0  0  0  0  0  0  0  0  0
  -20.1416  -18.9683   24.3912 C   0  0  0  0  0  0  0  0  0  0  0  0
  -22.5769  -23.4786   26.2586 C   0  0  0  0  0  0  0  0  0  0  0  0
  -20.2331  -18.7255   23.0132 C   0  0  0  0  0  0  0  0  0  0  0  0
  -17.2968  -26.1702   21.8367 C   0  0  0  0  0  0  0  0  0  0  0  0
  -15.1323  -24.4219   21.6337 C   0  0  0  0  0  0  0  0  0  0  0  0
  -17.1993  -25.0779   22.6988 C   0  0  0  0  0  0  0  0  0  0  0  0
  -16.3121  -26.3883   20.8732 C   0  0  0  0  0  0  0  0  0  0  0  0
  -29.3893  -26.6013   19.8343 C   0  0  0  0  0  0  0  0  0  0  0  0
  -17.8491  -19.1471   22.7931 C   0  0  0  0  0  0  0  0  0  0  0  0
  -30.4945  -24.5510   20.1458 C   0  0  0  0  0  0  0  0  0  0  0  0
  -30.5026  -21.9723   21.2099 C   0  0  0  0  0  0  0  0  0  0  0  0
  -30.6208  -23.4483   19.3009 C   0  0  0  0  0  0  0  0  0  0  0  0
  -25.9634  -28.9919   20.5025 C   0  0  0  0  0  0  0  0  0  0  0  0
  -24.2542  -30.3553   20.2687 C   0  0  0  0  0  0  0  0  0  0  0  0
  -25.5648  -29.9999   18.1701 C   0  0  0  0  0  0  0  0  0  0  0  0
  -22.9364  -20.4636   24.1531 C   0  0  0  0  0  0  0  0  0  0  0  0
  -23.8978  -17.6388   22.8809 C   0  0  0  0  0  0  0  0  0  0  0  0
  -23.0530  -14.7437   21.2836 C   0  0  0  0  0  0  0  0  0  0  0  0
  -20.6306  -28.7275   24.5630 C   0  0  0  0  0  0  0  0  0  0  0  0
  -24.8173  -23.9443   27.3787 C   0  0  0  0  0  0  0  0  0  0  0  0
  -21.3571  -18.8457   25.2686 C   0  0  0  0  0  0  0  0  0  0  0  0
  -21.5405  -18.3688   22.3559 C   0  0  0  0  0  0  0  0  0  0  0  0
  -25.4068  -22.8993   26.4348 C   0  0  0  0  0  0  0  0  0  0  0  0
  -23.3249  -31.1749   25.0601 C   0  0  0  0  0  0  0  0  0  0  0  0
  -24.7614  -23.0005   25.0564 C   0  0  0  0  0  0  0  0  0  0  0  0
  -24.2424  -30.8986   23.8662 C   0  0  0  0  0  0  0  0  0  0  0  0
  -19.8716  -26.5104   21.7851 C   0  0  0  0  0  0  0  0  0  0  0  0
  -22.5747  -29.9226   25.5102 C   0  0  0  0  0  0  0  0  0  0  0  0
  -20.7855  -27.5758   22.3691 C   0  0  0  0  0  0  0  0  0  0  0  0
  -18.5928  -27.8267   23.3062 C   0  0  0  0  0  0  0  0  0  0  0  0
  -22.7743  -28.9438   23.2586 C   0  0  0  0  0  0  0  0  0  0  0  0
  -18.4713  -27.1180   21.9468 C   0  0  2  0  0  0  0  0  0  0  0  0
  -23.2540  -22.7290   25.1318 C   0  0  1  0  0  0  0  0  0  0  0  0
  -22.6656  -19.0283   24.5058 C   0  0  1  0  0  0  0  0  0  0  0  0
  -23.4782  -30.1985   22.7253 C   0  0  2  0  0  0  0  0  0  0  0  0
  -18.2409  -24.8212   23.7384 C   0  0  0  0  0  0  0  0  0  0  0  0
  -16.3934  -27.5506   19.9380 C   0  0  0  0  0  0  0  0  0  0  0  0
  -24.0605  -12.6471   20.3420 C   0  0  0  0  0  0  0  0  0  0  0  0
  -24.9200  -19.2132   20.4754 C   0  0  0  0  0  0  0  0  0  0  0  0
  -25.0303  -17.0607   19.2015 C   0  0  0  0  0  0  0  0  0  0  0  0
  -26.4343  -17.3753   21.2392 C   0  0  0  0  0  0  0  0  0  0  0  0
  -21.4908  -13.0291   23.1217 C   0  0  0  0  0  0  0  0  0  0  0  0
  -13.9748  -23.4878   21.5256 C   0  0  0  0  0  0  0  0  0  0  0  0
  -14.2035  -22.3144   20.5717 C   0  0  0  0  0  0  0  0  0  0  0  0
  -15.6708  -20.3366   20.1542 C   0  0  0  0  0  0  0  0  0  0  0  0
  -16.9242  -19.6505   20.6606 C   0  0  0  0  0  0  0  0  0  1  0  0
  -23.9396  -17.0514   21.4909 C   0  0  1  0  0  0  0  0  0  0  0  0
  -23.4209  -13.2969   21.5591 C   0  0  2  0  0  0  0  0  0  0  0  0
  -25.0566  -17.6837   20.6135 C   0  0  0  0  0  0  0  0  0  0  0  0
  -25.4085  -29.0440   21.7163 N   0  0  0  0  0  0  0  0  0  0  0  0
  -24.3718  -29.8811   21.5421 N   0  0  0  0  0  0  0  0  0  0  0  0
  -22.7017  -18.2673   23.2553 N   0  0  0  0  0  0  0  0  0  0  0  0
  -21.8969  -29.2913   24.3798 N   0  0  0  0  0  0  0  0  0  0  0  0
  -20.0059  -28.1932   23.4333 N   0  0  0  0  0  0  0  0  0  0  0  0
  -23.2669  -31.2074   19.9201 N   0  0  0  0  0  0  0  0  0  0  0  0
  -26.6636  -29.3410   17.6017 N   0  0  0  0  0  0  0  0  0  0  0  0
  -23.0013  -21.3085   25.2446 N   0  0  0  0  0  0  0  0  0  0  0  0
  -24.0592  -15.6074   21.6614 N   0  0  0  0  0  0  0  0  0  0  0  0
  -22.2067  -12.5145   21.9261 N   0  3  0  0  0  0  0  0  0  0  0  0
  -15.3965  -21.5374   20.9897 N   0  3  0  0  0  0  0  0  0  0  0  0
  -24.8702  -30.7628   17.4567 O   0  0  0  0  0  0  0  0  0  0  0  0
  -23.0776  -20.7807   22.9779 O   0  0  0  0  0  0  0  0  0  0  0  0
  -24.8874  -17.5373   23.6103 O   0  0  0  0  0  0  0  0  0  0  0  0
  -21.9817  -15.0742   20.7799 O   0  0  0  0  0  0  0  0  0  0  0  0
  -20.0699  -28.7520   25.6657 O   0  0  0  0  0  0  0  0  0  0  0  0
  -30.4911  -25.8318   19.6192 O   0  0  0  0  0  0  0  0  0  0  0  0
  -16.7299  -19.2383   22.0071 O   0  0  0  0  0  0  0  0  0  1  0  0
  -30.5080  -20.7342   21.7212 F   0  0  0  0  0  0  0  0  0  0  0  0
  -30.7397  -23.6214   17.9774 F   0  0  0  0  0  0  0  0  0  0  0  0
  1  2  1  0  0  0  0
  1  5  2  0  0  0  0
  2  6  2  0  0  0  0
  3  8  2  0  0  0  0
  3 17  1  0  0  0  0
  4  9  1  0  0  0  0
  4 17  2  0  0  0  0
  5 19  1  0  0  0  0
  6 21  1  0  0  0  0
  7 10  2  0  0  0  0
  7 20  1  0  0  0  0
  8 27  1  0  0  0  0
  9 27  2  0  0  0  0
 10 28  1  0  0  0  0
 11 12  2  0  0  0  0
 11 29  1  0  0  0  0
 12 30  1  0  0  0  0
 13 22  1  0  0  0  0
 13 28  2  0  0  0  0
 14 24  1  0  0  0  0
 14 25  2  0  0  0  0
 15 24  2  0  0  0  0
 15 26  1  0  0  0  0
 16 30  2  0  0  0  0
 16 31  1  0  0  0  0
 17 32  1  0  0  0  0
 18 32  1  0  0  0  0
 18 33  2  0  0  0  0
 18 34  1  0  0  0  0
 19 21  2  0  0  0  0
 19 39  1  0  0  0  0
 20 22  2  0  0  0  0
 20 40  1  0  0  0  0
 21 52  1  0  0  0  0
 22 41  1  0  0  0  0
 23 25  1  0  0  0  0
 23 26  2  0  0  0  0
 23 51  1  0  0  0  0
 24 62  1  0  0  0  0
 25 55  1  0  0  0  0
 26 56  1  0  0  0  0
 27 85  1  0  0  0  0
 28 86  1  0  0  0  0
 29 31  2  0  0  0  0
 29 85  1  0  0  0  0
 30 87  1  0  0  0  0
 31 88  1  0  0  0  0
 32 69  2  0  0  0  0
 33 70  1  0  0  0  0
 33 74  1  0  0  0  0
 34 75  1  0  0  0  0
 34 80  2  0  0  0  0
 35 53  1  0  0  0  0
 35 76  1  0  0  0  0
 35 81  2  0  0  0  0
 36 66  1  0  0  0  0
 36 71  1  0  0  0  0
 36 82  2  0  0  0  0
 37 67  1  0  0  0  0
 37 77  1  0  0  0  0
 37 83  2  0  0  0  0
 38 72  1  0  0  0  0
 38 73  1  0  0  0  0
 38 84  2  0  0  0  0
 39 42  1  0  0  0  0
 40 53  1  0  0  0  0
 41 71  1  0  0  0  0
 42 44  1  0  0  0  0
 43 45  1  0  0  0  0
 43 47  1  0  0  0  0
 44 52  1  0  0  0  0
 45 54  1  0  0  0  0
 46 48  1  0  0  0  0
 46 51  1  0  0  0  0
 47 72  1  0  0  0  0
 48 73  1  0  0  0  0
 49 51  1  0  0  0  0
 49 73  1  0  0  0  0
 50 54  1  0  0  0  0
 50 72  1  0  0  0  0
 52 76  1  0  0  0  0
 53 71  1  0  0  0  0
 54 70  1  0  0  0  0
 57 67  1  0  0  0  0
 58 68  1  0  0  0  0
 59 68  1  0  0  0  0
 60 68  1  0  0  0  0
 61 78  1  0  0  0  0
 62 63  1  0  0  0  0
 63 79  1  0  0  0  0
 64 65  1  0  0  0  0
 64 79  1  0  0  0  0
 65 86  1  0  0  0  0
 66 68  1  0  0  0  0
 66 77  1  0  0  0  0
 67 78  1  0  0  0  0
 69 70  1  0  0  0  0
M  CHG  2  78   1  79   1
M  ISO  4  38 100  65 101  73 100  86 101
M  END
> <Batch ID>
0149

> <Smiles>
CNC(C)C(=O)NC(C(=O)N1Cc2cc([101O:1][101CH2:1]CNCCc3cc(C)c(C4CC[100N:0]([100C:0](=O)N5CCCC(n6nc(-c7ccc(Oc8ccc(F)cc8F)cc7)c(C(N)=O)c6N)C5)C4)c(C)c3)ccc2CC1C(=O)NC1CCCc2ccccc21)C(C)(C)C

> <Shape>
0.184

> <Color>
0.074

> <Negative vol penalty>
0.000

$$$$

  -OEChem-04052321383D

 92102  0     1  0  0  0  0  0999 V2000
  -24.5266  -29.2205   29.6248 C   0  0  0  0  0  0  0  0  0  0  0  0
  -24.4934  -28.7866   28.3035 C   0  0  0  0  0  0  0  0  0  0  0  0
  -23.6496  -11.9603   23.9340 C   0  0  0  0  0  0  0  0  0  0  0  0
  -24.5733   -9.9129   23.0442 C   0  0  0  0  0  0  0  0  0  0  0  0
  -24.2793  -30.5596   29.9240 C   0  0  0  0  0  0  0  0  0  0  0  0
  -24.2117  -29.6915   27.2805 C   0  0  0  0  0  0  0  0  0  0  0  0
  -27.3236  -29.1753   23.3188 C   0  0  0  0  0  0  0  0  0  0  0  0
  -23.1707  -11.2625   25.0427 C   0  0  0  0  0  0  0  0  0  0  0  0
  -24.0944   -9.2150   24.1529 C   0  0  0  0  0  0  0  0  0  0  0  0
  -27.0712  -28.1193   22.4443 C   0  0  0  0  0  0  0  0  0  0  0  0
  -21.1451   -7.9497   25.2167 C   0  0  0  0  0  0  0  0  0  0  0  0
  -20.5057   -6.7312   24.9888 C   0  0  0  0  0  0  0  0  0  0  0  0
  -28.3706  -21.0865   19.2112 C   0  0  0  0  0  0  0  0  0  0  0  0
  -28.1669  -21.4814   21.5859 C   0  0  0  0  0  0  0  0  0  0  0  0
  -25.9873  -29.6458   20.9231 C   0  0  0  0  0  0  0  0  0  0  0  0
  -22.1618   -5.6089   26.3435 C   0  0  0  0  0  0  0  0  0  0  0  0
  -24.3509  -11.2855   22.9347 C   0  0  0  0  0  0  0  0  0  0  0  0
  -24.0889  -12.7335   20.8509 C   0  0  0  0  0  0  0  0  0  0  0  0
  -24.0039  -31.4833   28.9034 C   0  0  0  0  0  0  0  0  0  0  0  0
  -26.8993  -30.4749   23.0065 C   0  0  0  0  0  0  0  0  0  0  0  0
  -23.9591  -31.0439   27.5665 C   0  0  0  0  0  0  0  0  0  0  0  0
  -28.0469  -21.9329   20.2716 C   0  0  0  0  0  0  0  0  0  0  0  0
  -28.8141  -19.7887   19.4650 C   0  0  0  0  0  0  0  0  0  0  0  0
  -26.2378  -30.7171   21.7942 C   0  0  0  0  0  0  0  0  0  0  0  0
  -28.9342  -19.3372   20.7794 C   0  0  0  0  0  0  0  0  0  0  0  0
  -23.3931   -9.8898   25.1521 C   0  0  0  0  0  0  0  0  0  0  0  0
  -26.4005  -28.3539   21.2476 C   0  0  0  0  0  0  0  0  0  0  0  0
  -22.2929   -7.9979   26.0080 C   0  0  0  0  0  0  0  0  0  0  0  0
  -28.6105  -20.1836   21.8398 C   0  0  0  0  0  0  0  0  0  0  0  0
  -21.0140   -5.5608   25.5522 C   0  0  0  0  0  0  0  0  0  0  0  0
  -22.8012   -6.8275   26.5714 C   0  0  0  0  0  0  0  0  0  0  0  0
  -24.8454  -12.0058   21.7889 C   0  0  0  0  0  0  0  0  0  0  0  0
  -25.0184  -13.2243   19.9668 C   0  0  0  0  0  0  0  0  0  0  0  0
  -22.6727  -12.9469   20.7847 C   0  0  0  0  0  0  0  0  0  0  0  0
  -24.9007  -32.5614   24.3317 C   0  0  0  0  0  0  0  0  0  0  0  0
  -26.0399  -34.5301   22.0190 C   0  0  0  0  0  0  0  0  0  0  0  0
  -27.5041  -34.8553   18.9535 C   0  0  0  0  0  0  0  0  0  0  0  0
  -30.8601  -14.4455   20.4518 C   0  0  0  0  0  0  0  0  0  0  0  0
  -23.6964  -32.9110   29.2800 C   0  0  0  0  0  0  0  0  0  0  0  0
  -27.2028  -31.6079   23.9482 C   0  0  0  0  0  0  0  0  0  0  0  0
  -25.7795  -32.0974   21.4028 C   0  0  0  0  0  0  0  0  0  0  0  0
  -23.7751  -33.8815   28.1043 C   0  0  0  0  0  0  0  0  0  0  0  0
  -29.3213  -12.2343   18.1239 C   0  0  0  0  0  0  0  0  0  0  0  0
  -30.5202  -18.2760   18.2504 C   0  0  0  0  0  0  0  0  0  0  0  0
  -30.1640  -19.3764   17.3003 C   0  0  0  0  0  0  0  0  0  0  0  0
  -28.5240  -24.4014   20.5715 C   0  0  0  0  0  0  0  0  0  0  0  0
  -26.1282  -23.5680   20.5047 C   0  0  0  0  0  0  0  0  0  0  0  0
  -23.0419  -33.3135   26.8932 C   0  0  0  0  0  0  0  0  0  0  0  0
  -27.9314  -11.9907   18.7146 C   0  0  0  0  0  0  0  0  0  0  0  0
  -28.0328  -25.8174   20.2820 C   0  0  0  0  0  0  0  0  0  0  0  0
  -25.6495  -24.9883   20.2150 C   0  0  0  0  0  0  0  0  0  0  0  0
  -30.3846  -12.3534   19.2134 C   0  0  0  0  0  0  0  0  0  0  0  0
  -28.7024  -13.1098   20.8481 C   0  0  0  0  0  0  0  0  0  0  0  0
  -27.5637  -23.3451   19.9963 C   0  0  0  0  0  0  0  0  0  0  0  0
  -29.1536  -18.9036   18.3105 C   0  0  0  0  0  0  0  0  0  0  0  0
  -23.6817  -32.0002   26.4269 C   0  0  1  0  0  0  0  0  0  0  0  0
  -26.2716  -32.8024   23.7657 C   0  0  1  0  0  0  0  0  0  0  0  0
  -27.5878  -13.0385   19.7903 C   0  0  2  0  0  0  0  0  0  0  0  0
  -26.6062  -26.0335   20.7838 C   0  0  0  0  0  0  0  0  0  1  0  0
  -28.2755  -36.5906   17.3130 C   0  0  0  0  0  0  0  0  0  0  0  0
  -32.1771  -16.1920   22.8700 C   0  0  0  0  0  0  0  0  0  0  0  0
  -23.1445  -35.0450   21.2059 C   0  0  0  0  0  0  0  0  0  0  0  0
  -23.9912  -35.9801   19.0433 C   0  0  0  0  0  0  0  0  0  0  0  0
  -24.6066  -37.0740   21.1991 C   0  0  0  0  0  0  0  0  0  0  0  0
  -30.3066  -33.9155   19.1003 C   0  0  0  0  0  0  0  0  0  0  0  0
  -28.3678  -20.6975   24.1491 C   0  0  0  0  0  0  0  0  0  0  0  0
  -30.2797  -17.7115   22.1106 C   0  0  0  0  0  0  0  0  0  0  0  0
  -25.6459  -34.8492   20.5971 C   0  0  1  0  0  0  0  0  0  0  0  0
  -28.6730  -35.7003   18.4801 C   0  0  2  0  0  0  0  0  0  0  0  0
  -31.1875  -16.5296   21.7589 C   0  0  2  0  0  0  0  0  0  0  0  0
  -24.3538  -35.7106   20.5193 C   0  0  0  0  0  0  0  0  0  0  0  0
  -26.1546  -12.0293   21.5253 N   0  0  0  0  0  0  0  0  0  0  0  0
  -26.2280  -12.7778   20.4115 N   0  0  0  0  0  0  0  0  0  0  0  0
  -26.0942  -33.1711   22.3597 N   0  0  0  0  0  0  0  0  0  0  0  0
  -29.9989  -13.3646   20.2008 N   0  0  0  0  0  0  0  0  0  0  0  0
  -24.9109  -13.9899   18.8601 N   0  0  0  0  0  0  0  0  0  0  0  0
  -21.8633  -12.3709   21.7733 N   0  0  0  0  0  0  0  0  0  0  0  0
  -29.3840  -18.0226   21.0427 N   0  0  0  0  0  0  0  0  0  0  0  0
  -24.8935  -32.2651   25.6814 N   0  0  0  0  0  0  0  0  0  0  0  0
  -26.8139  -35.4669   19.9786 N   0  0  0  0  0  0  0  0  0  0  0  0
  -30.4156  -15.3616   21.3974 N   0  0  0  0  0  0  0  0  0  0  0  0
  -29.7994  -34.8278   18.0432 N   0  3  0  0  0  0  0  0  0  0  0  0
  -22.1391  -13.6146   19.8665 O   0  0  0  0  0  0  0  0  0  0  0  0
  -23.9219  -32.6399   23.5986 O   0  0  0  0  0  0  0  0  0  0  0  0
  -26.2973  -35.4523   22.7967 O   0  0  0  0  0  0  0  0  0  0  0  0
  -27.2284  -33.7637   18.4605 O   0  0  0  0  0  0  0  0  0  0  0  0
  -31.9421  -14.5868   19.8721 O   0  0  0  0  0  0  0  0  0  0  0  0
  -22.9261   -9.2085   26.2340 O   0  0  0  0  0  0  0  0  0  0  0  0
  -26.1523  -27.3247   20.3925 O   0  0  0  0  0  0  0  0  0  1  0  0
  -28.7209  -19.7630   23.1317 O   0  0  0  0  0  0  0  0  0  0  0  0
  -20.3991   -4.3909   25.3346 F   0  0  0  0  0  0  0  0  0  0  0  0
  -23.9028   -6.8676   27.3334 F   0  0  0  0  0  0  0  0  0  0  0  0
  1  2  1  0  0  0  0
  1  5  2  0  0  0  0
  2  6  2  0  0  0  0
  3  8  2  0  0  0  0
  3 17  1  0  0  0  0
  4  9  1  0  0  0  0
  4 17  2  0  0  0  0
  5 19  1  0  0  0  0
  6 21  1  0  0  0  0
  7 10  2  0  0  0  0
  7 20  1  0  0  0  0
  8 26  1  0  0  0  0
  9 26  2  0  0  0  0
 10 27  1  0  0  0  0
 11 12  2  0  0  0  0
 11 28  1  0  0  0  0
 12 30  1  0  0  0  0
 13 22  2  0  0  0  0
 13 23  1  0  0  0  0
 14 22  1  0  0  0  0
 14 29  2  0  0  0  0
 15 24  1  0  0  0  0
 15 27  2  0  0  0  0
 16 30  2  0  0  0  0
 16 31  1  0  0  0  0
 17 32  1  0  0  0  0
 18 32  1  0  0  0  0
 18 33  2  0  0  0  0
 18 34  1  0  0  0  0
 19 21  2  0  0  0  0
 19 39  1  0  0  0  0
 20 24  2  0  0  0  0
 20 40  1  0  0  0  0
 21 56  1  0  0  0  0
 22 54  1  0  0  0  0
 23 25  2  0  0  0  0
 23 55  1  0  0  0  0
 24 41  1  0  0  0  0
 25 29  1  0  0  0  0
 25 78  1  0  0  0  0
 26 88  1  0  0  0  0
 27 89  1  0  0  0  0
 28 31  2  0  0  0  0
 28 88  1  0  0  0  0
 29 90  1  0  0  0  0
 30 91  1  0  0  0  0
 31 92  1  0  0  0  0
 32 72  2  0  0  0  0
 33 73  1  0  0  0  0
 33 76  1  0  0  0  0
 34 77  1  0  0  0  0
 34 83  2  0  0  0  0
 35 57  1  0  0  0  0
 35 79  1  0  0  0  0
 35 84  2  0  0  0  0
 36 68  1  0  0  0  0
 36 74  1  0  0  0  0
 36 85  2  0  0  0  0
 37 69  1  0  0  0  0
 37 80  1  0  0  0  0
 37 86  2  0  0  0  0
 38 75  1  0  0  0  0
 38 81  1  0  0  0  0
 38 87  2  0  0  0  0
 39 42  1  0  0  0  0
 40 57  1  0  0  0  0
 41 74  1  0  0  0  0
 42 48  1  0  0  0  0
 43 49  1  0  0  0  0
 43 52  1  0  0  0  0
 44 45  1  0  0  0  0
 44 55  1  0  0  0  0
 45 55  1  0  0  0  0
 46 50  1  0  0  0  0
 46 54  1  0  0  0  0
 47 51  1  0  0  0  0
 47 54  1  0  0  0  0
 48 56  1  0  0  0  0
 49 58  1  0  0  0  0
 50 59  1  0  0  0  0
 51 59  1  0  0  0  0
 52 75  1  0  0  0  0
 53 58  1  0  0  0  0
 53 75  1  0  0  0  0
 56 79  1  0  0  0  0
 57 74  1  0  0  0  0
 58 73  1  0  0  0  0
 59 89  1  0  0  0  0
 60 69  1  0  0  0  0
 61 70  1  0  0  0  0
 62 71  1  0  0  0  0
 63 71  1  0  0  0  0
 64 71  1  0  0  0  0
 65 82  1  0  0  0  0
 66 90  1  0  0  0  0
 67 70  1  0  0  0  0
 67 78  1  0  0  0  0
 68 71  1  0  0  0  0
 68 80  1  0  0  0  0
 69 82  1  0  0  0  0
 70 81  1  0  0  0  0
 72 73  1  0  0  0  0
M  CHG  1  82   1
M  ISO  4  38 100  59 101  81 100  89 101
M  END
> <Batch ID>
0149

> <Smiles>
CNC(C)C(=O)NC(C(=O)N1Cc2cc([101O:1][101CH:1]3CCC(c4cc(OC)c(NCC(C)[100NH:0][100C:0](=O)N5CCCC(n6nc(-c7ccc(Oc8ccc(F)cc8F)cc7)c(C(N)=O)c6N)C5)c(C5CC5)c4)CC3)ccc2CC1C(=O)NC1CCCc2ccccc21)C(C)(C)C

> <Shape>
0.283

> <Color>
0.106

> <Negative vol penalty>
0.000

$$$$

  -OEChem-04052321383D

 85 93  0     1  0  0  0  0  0999 V2000
  -28.9245  -36.0219   20.5785 C   0  0  0  0  0  0  0  0  0  0  0  0
  -29.4478  -34.8976   19.9479 C   0  0  0  0  0  0  0  0  0  0  0  0
  -24.2580   -9.3404   21.5382 C   0  0  0  0  0  0  0  0  0  0  0  0
  -24.7234  -10.6026   23.5451 C   0  0  0  0  0  0  0  0  0  0  0  0
  -28.1437  -35.8770   21.7245 C   0  0  0  0  0  0  0  0  0  0  0  0
  -29.1915  -33.6277   20.4638 C   0  0  0  0  0  0  0  0  0  0  0  0
  -28.1921  -26.8496   18.3721 C   0  0  0  0  0  0  0  0  0  0  0  0
  -23.9356   -8.2266   22.3135 C   0  0  0  0  0  0  0  0  0  0  0  0
  -24.4010   -9.4887   24.3204 C   0  0  0  0  0  0  0  0  0  0  0  0
  -28.6649  -25.5630   18.6268 C   0  0  0  0  0  0  0  0  0  0  0  0
  -21.3080   -7.1420   24.1443 C   0  0  0  0  0  0  0  0  0  0  0  0
  -20.1559   -6.4306   23.8094 C   0  0  0  0  0  0  0  0  0  0  0  0
  -27.2372  -25.4288   20.5665 C   0  0  0  0  0  0  0  0  0  0  0  0
  -31.2949  -21.3636   19.8327 C   0  0  0  0  0  0  0  0  0  0  0  0
  -28.9902  -20.6908   19.5635 C   0  0  0  0  0  0  0  0  0  0  0  0
  -21.4871   -4.4482   23.4416 C   0  0  0  0  0  0  0  0  0  0  0  0
  -24.6519  -10.5285   22.1540 C   0  0  0  0  0  0  0  0  0  0  0  0
  -24.1124  -12.6940   20.9183 C   0  0  0  0  0  0  0  0  0  0  0  0
  -27.8697  -34.6040   22.2491 C   0  0  0  0  0  0  0  0  0  0  0  0
  -27.2448  -27.4407   19.2204 C   0  0  0  0  0  0  0  0  0  0  0  0
  -28.4074  -33.4657   21.6186 C   0  0  0  0  0  0  0  0  0  0  0  0
  -26.7520  -26.7220   20.3190 C   0  0  0  0  0  0  0  0  0  0  0  0
  -29.9766  -21.6750   19.5000 C   0  0  0  0  0  0  0  0  0  0  0  0
  -31.6269  -20.0679   20.2287 C   0  0  0  0  0  0  0  0  0  0  0  0
  -29.3221  -19.3952   19.9595 C   0  0  0  0  0  0  0  0  0  0  0  0
  -24.0071   -8.3007   23.7045 C   0  0  0  0  0  0  0  0  0  0  0  0
  -28.1896  -24.8535   19.7258 C   0  0  0  0  0  0  0  0  0  0  0  0
  -22.5496   -6.5066   24.1278 C   0  0  0  0  0  0  0  0  0  0  0  0
  -30.6405  -19.0837   20.2921 C   0  0  0  0  0  0  0  0  0  0  0  0
  -20.2455   -5.0836   23.4580 C   0  0  0  0  0  0  0  0  0  0  0  0
  -22.6392   -5.1597   23.7765 C   0  0  0  0  0  0  0  0  0  0  0  0
  -24.9856  -11.6792   21.3537 C   0  0  0  0  0  0  0  0  0  0  0  0
  -24.9108  -13.5478   20.1971 C   0  0  0  0  0  0  0  0  0  0  0  0
  -22.7055  -12.8508   21.1454 C   0  0  0  0  0  0  0  0  0  0  0  0
  -27.1999  -30.0146   21.0849 C   0  0  0  0  0  0  0  0  0  0  0  0
  -24.0799  -29.2096   21.4592 C   0  0  0  0  0  0  0  0  0  0  0  0
  -21.6834  -26.7816   21.3691 C   0  0  0  0  0  0  0  0  0  0  0  0
  -30.7801  -14.7251   20.3230 C   0  0  0  0  0  0  0  0  0  0  0  0
  -27.0599  -34.5004   23.5172 C   0  0  0  0  0  0  0  0  0  0  0  0
  -26.7250  -28.8191   18.9167 C   0  0  0  0  0  0  0  0  0  0  0  0
  -25.7197  -27.3038   21.2486 C   0  0  0  0  0  0  0  0  0  0  0  0
  -26.5244  -33.0961   23.7848 C   0  0  0  0  0  0  0  0  0  0  0  0
  -28.8809  -13.6045   17.5277 C   0  0  0  0  0  0  0  0  0  0  0  0
  -27.6231  -32.0579   23.5805 C   0  0  0  0  0  0  0  0  0  0  0  0
  -27.5884  -13.0755   18.1520 C   0  0  0  0  0  0  0  0  0  0  0  0
  -30.0939  -13.3116   18.4080 C   0  0  0  0  0  0  0  0  0  0  0  0
  -28.6816  -13.2480   20.4266 C   0  0  0  0  0  0  0  0  0  0  0  0
  -28.1311  -32.0698   22.1337 C   0  0  1  0  0  0  0  0  0  0  0  0
  -26.1417  -29.5205   20.1394 C   0  0  1  0  0  0  0  0  0  0  0  0
  -27.4233  -13.5689   19.6020 C   0  0  2  0  0  0  0  0  0  0  0  0
  -33.0437  -19.7540   20.5810 C   0  0  0  0  0  0  0  0  0  0  0  0
  -27.6159  -18.0849   18.6458 C   0  0  0  0  0  0  0  0  0  0  0  0
  -27.1566  -18.7008   21.0468 C   0  0  0  0  0  0  0  0  0  0  0  0
  -19.2313  -26.4186   21.7602 C   0  0  0  0  0  0  0  0  0  0  0  0
  -24.5524  -29.2819   24.4727 C   0  0  0  0  0  0  0  0  0  0  0  0
  -22.4118  -28.0175   24.7684 C   0  0  0  0  0  0  0  0  0  0  0  0
  -22.3852  -30.2865   23.7322 C   0  0  0  0  0  0  0  0  0  0  0  0
  -21.2421  -25.9425   18.5655 C   0  0  0  0  0  0  0  0  0  0  0  0
  -29.6195  -23.0685   19.0735 C   0  0  0  0  0  0  0  0  0  1  0  0
  -31.3299  -16.0962   22.3172 C   0  0  0  0  0  0  0  0  0  0  0  0
  -30.8864  -17.5277   22.0737 C   0  0  0  0  0  0  0  0  0  0  0  0
  -28.2522  -18.3553   20.0216 C   0  0  0  0  0  0  0  0  0  0  0  0
  -23.3092  -28.3344   22.4178 C   0  0  1  0  0  0  0  0  0  0  0  0
  -20.3044  -26.7504   20.7350 C   0  0  2  0  0  0  0  0  0  0  0  0
  -23.1855  -28.9696   23.8316 C   0  0  0  0  0  0  0  0  0  0  0  0
  -26.2424  -11.8692   20.9434 N   0  0  0  0  0  0  0  0  0  0  0  0
  -26.1647  -13.0132   20.2424 N   0  0  0  0  0  0  0  0  0  0  0  0
  -25.2472  -28.6572   20.9132 N   0  0  0  0  0  0  0  0  0  0  0  0
  -29.8736  -13.8061   19.7691 N   0  0  0  0  0  0  0  0  0  0  0  0
  -24.6555  -14.6962   19.5350 N   0  0  0  0  0  0  0  0  0  0  0  0
  -22.0398  -11.8817   21.9083 N   0  0  0  0  0  0  0  0  0  0  0  0
  -27.1983  -31.3847   21.2648 N   0  0  0  0  0  0  0  0  0  0  0  0
  -22.0301  -28.0529   21.7752 N   0  0  0  0  0  0  0  0  0  0  0  0
  -30.4941  -15.1478   21.6154 N   0  0  0  0  0  0  0  0  0  0  0  0
  -20.2545  -25.7259   19.6539 N   0  3  0  0  0  0  0  0  0  0  0  0
  -22.0546  -13.8128   20.6716 O   0  0  0  0  0  0  0  0  0  0  0  0
  -27.9605  -29.2121   21.6132 O   0  0  0  0  0  0  0  0  0  0  0  0
  -23.6578  -30.3391   21.1987 O   0  0  0  0  0  0  0  0  0  0  0  0
  -22.3814  -25.7780   21.4951 O   0  0  0  0  0  0  0  0  0  0  0  0
  -31.7681  -15.1423   19.7091 O   0  0  0  0  0  0  0  0  0  0  0  0
  -23.6924   -7.2141   24.4613 O   0  0  0  0  0  0  0  0  0  0  0  0
  -28.6499  -23.5977   19.9770 O   0  0  0  0  0  0  0  0  0  1  0  0
  -30.9650  -17.8171   20.6801 O   0  0  0  0  0  0  0  0  0  0  0  0
  -19.1389   -4.4001   23.1379 F   0  0  0  0  0  0  0  0  0  0  0  0
  -23.8291   -4.5435   23.7600 F   0  0  0  0  0  0  0  0  0  0  0  0
  1  2  1  0  0  0  0
  1  5  2  0  0  0  0
  2  6  2  0  0  0  0
  3  8  2  0  0  0  0
  3 17  1  0  0  0  0
  4  9  1  0  0  0  0
  4 17  2  0  0  0  0
  5 19  1  0  0  0  0
  6 21  1  0  0  0  0
  7 10  2  0  0  0  0
  7 20  1  0  0  0  0
  8 26  1  0  0  0  0
  9 26  2  0  0  0  0
 10 27  1  0  0  0  0
 11 12  2  0  0  0  0
 11 28  1  0  0  0  0
 12 30  1  0  0  0  0
 13 22  1  0  0  0  0
 13 27  2  0  0  0  0
 14 23  1  0  0  0  0
 14 24  2  0  0  0  0
 15 23  2  0  0  0  0
 15 25  1  0  0  0  0
 16 30  2  0  0  0  0
 16 31  1  0  0  0  0
 17 32  1  0  0  0  0
 18 32  1  0  0  0  0
 18 33  2  0  0  0  0
 18 34  1  0  0  0  0
 19 21  2  0  0  0  0
 19 39  1  0  0  0  0
 20 22  2  0  0  0  0
 20 40  1  0  0  0  0
 21 48  1  0  0  0  0
 22 41  1  0  0  0  0
 23 59  1  0  0  0  0
 24 29  1  0  0  0  0
 24 51  1  0  0  0  0
 25 29  2  0  0  0  0
 25 62  1  0  0  0  0
 26 81  1  0  0  0  0
 27 82  1  0  0  0  0
 28 31  2  0  0  0  0
 28 81  1  0  0  0  0
 29 83  1  0  0  0  0
 30 84  1  0  0  0  0
 31 85  1  0  0  0  0
 32 66  2  0  0  0  0
 33 67  1  0  0  0  0
 33 70  1  0  0  0  0
 34 71  1  0  0  0  0
 34 76  2  0  0  0  0
 35 49  1  0  0  0  0
 35 72  1  0  0  0  0
 35 77  2  0  0  0  0
 36 63  1  0  0  0  0
 36 68  1  0  0  0  0
 36 78  2  0  0  0  0
 37 64  1  0  0  0  0
 37 73  1  0  0  0  0
 37 79  2  0  0  0  0
 38 69  1  0  0  0  0
 38 74  1  0  0  0  0
 38 80  2  0  0  0  0
 39 42  1  0  0  0  0
 40 49  1  0  0  0  0
 41 68  1  0  0  0  0
 42 44  1  0  0  0  0
 43 45  1  0  0  0  0
 43 46  1  0  0  0  0
 44 48  1  0  0  0  0
 45 50  1  0  0  0  0
 46 69  1  0  0  0  0
 47 50  1  0  0  0  0
 47 69  1  0  0  0  0
 48 72  1  0  0  0  0
 49 68  1  0  0  0  0
 50 67  1  0  0  0  0
 52 62  1  0  0  0  0
 53 62  1  0  0  0  0
 54 64  1  0  0  0  0
 55 65  1  0  0  0  0
 56 65  1  0  0  0  0
 57 65  1  0  0  0  0
 58 75  1  0  0  0  0
 59 82  1  0  0  0  0
 60 61  1  0  0  0  0
 60 74  1  0  0  0  0
 61 83  1  0  0  0  0
 63 65  1  0  0  0  0
 63 73  1  0  0  0  0
 64 75  1  0  0  0  0
 66 67  1  0  0  0  0
M  CHG  1  75   1
M  ISO  4  38 100  59 101  74 100  82 101
M  END
> <Batch ID>
0149

> <Smiles>
CNC(C)C(=O)NC(C(=O)N1Cc2cc([101O:1][101CH2:1]c3cc(C)c(OCC[100NH:0][100C:0](=O)N4CCCC(n5nc(-c6ccc(Oc7ccc(F)cc7F)cc6)c(C(N)=O)c5N)C4)c(C(C)C)c3)ccc2CC1C(=O)NC1CCCc2ccccc21)C(C)(C)C

> <Shape>
0.339

> <Color>
0.130

> <Negative vol penalty>
0.000

$$$$

  -OEChem-04052321383D

 90 99  0     1  0  0  0  0  0999 V2000
  -25.6997  -37.6575   19.1705 C   0  0  0  0  0  0  0  0  0  0  0  0
  -25.5577  -36.5569   18.3315 C   0  0  0  0  0  0  0  0  0  0  0  0
  -23.5564   -9.8466   19.8405 C   0  0  0  0  0  0  0  0  0  0  0  0
  -23.8082  -10.0017   22.2383 C   0  0  0  0  0  0  0  0  0  0  0  0
  -26.3067  -37.5088   20.4169 C   0  0  0  0  0  0  0  0  0  0  0  0
  -26.0236  -35.3071   18.7380 C   0  0  0  0  0  0  0  0  0  0  0  0
  -24.5462  -28.3252   18.1153 C   0  0  0  0  0  0  0  0  0  0  0  0
  -26.2594  -22.3104   16.8314 C   0  0  0  0  0  0  0  0  0  0  0  0
  -26.8864  -21.0760   16.6623 C   0  0  0  0  0  0  0  0  0  0  0  0
  -22.9306   -8.6086   19.9862 C   0  0  0  0  0  0  0  0  0  0  0  0
  -23.1823   -8.7636   22.3841 C   0  0  0  0  0  0  0  0  0  0  0  0
  -25.1565  -27.1225   17.7622 C   0  0  0  0  0  0  0  0  0  0  0  0
  -20.0291   -7.5485   22.3446 C   0  0  0  0  0  0  0  0  0  0  0  0
  -19.0538   -7.4297   23.3346 C   0  0  0  0  0  0  0  0  0  0  0  0
  -26.1172  -26.9688   19.9696 C   0  0  0  0  0  0  0  0  0  0  0  0
  -20.3497   -5.6930   24.4030 C   0  0  0  0  0  0  0  0  0  0  0  0
  -23.9953  -10.5431   20.9665 C   0  0  0  0  0  0  0  0  0  0  0  0
  -24.0283  -13.0884   20.7993 C   0  0  0  0  0  0  0  0  0  0  0  0
  -26.7716  -36.2546   20.8428 C   0  0  0  0  0  0  0  0  0  0  0  0
  -24.7260  -28.8652   19.3969 C   0  0  0  0  0  0  0  0  0  0  0  0
  -26.6386  -35.1417   19.9907 C   0  0  0  0  0  0  0  0  0  0  0  0
  -25.5060  -28.1773   20.3373 C   0  0  0  0  0  0  0  0  0  0  0  0
  -27.0166  -23.4819   16.8403 C   0  0  0  0  0  0  0  0  0  0  0  0
  -28.4008  -23.4188   16.6803 C   0  0  0  0  0  0  0  0  0  0  0  0
  -29.0279  -22.1843   16.5112 C   0  0  0  0  0  0  0  0  0  0  0  0
  -28.2706  -21.0129   16.5022 C   0  0  0  0  0  0  0  0  0  0  0  0
  -22.7435   -8.0671   21.2580 C   0  0  0  0  0  0  0  0  0  0  0  0
  -25.9445  -26.4456   18.6884 C   0  0  0  0  0  0  0  0  0  0  0  0
  -21.1648   -6.7395   22.3838 C   0  0  0  0  0  0  0  0  0  0  0  0
  -19.2140   -6.5020   24.3638 C   0  0  0  0  0  0  0  0  0  0  0  0
  -21.3251   -5.8117   23.4130 C   0  0  0  0  0  0  0  0  0  0  0  0
  -24.6423  -11.8218   20.8166 C   0  0  0  0  0  0  0  0  0  0  0  0
  -25.0672  -13.9714   20.6340 C   0  0  0  0  0  0  0  0  0  0  0  0
  -22.6426  -13.4358   20.9219 C   0  0  0  0  0  0  0  0  0  0  0  0
  -25.9905  -31.5463   20.5442 C   0  0  0  0  0  0  0  0  0  0  0  0
  -24.8417  -30.4222   23.3618 C   0  0  0  0  0  0  0  0  0  0  0  0
  -23.8536  -27.7381   25.2235 C   0  0  0  0  0  0  0  0  0  0  0  0
  -29.7781  -15.2566   17.7996 C   0  0  0  0  0  0  0  0  0  0  0  0
  -27.4635  -36.1524   22.1790 C   0  0  0  0  0  0  0  0  0  0  0  0
  -24.0391  -30.1501   19.7708 C   0  0  0  0  0  0  0  0  0  0  0  0
  -25.7139  -28.7043   21.7328 C   0  0  0  0  0  0  0  0  0  0  0  0
  -27.5930  -34.7197   22.6899 C   0  0  0  0  0  0  0  0  0  0  0  0
  -30.0695  -13.2748   20.8754 C   0  0  0  0  0  0  0  0  0  0  0  0
  -28.0945  -33.8006   21.5805 C   0  0  0  0  0  0  0  0  0  0  0  0
  -28.6378  -12.7870   21.1010 C   0  0  0  0  0  0  0  0  0  0  0  0
  -28.3510  -18.5871   18.4224 C   0  0  0  0  0  0  0  0  0  0  0  0
  -30.3798  -13.4708   19.3932 C   0  0  0  0  0  0  0  0  0  0  0  0
  -28.2969  -17.1052   18.7791 C   0  0  0  0  0  0  0  0  0  0  0  0
  -27.9932  -13.8392   18.9017 C   0  0  0  0  0  0  0  0  0  0  0  0
  -29.2768  -17.3680   16.6029 C   0  0  0  0  0  0  0  0  0  0  0  0
  -27.1089  -33.7647   20.4062 C   0  0  1  0  0  0  0  0  0  0  0  0
  -24.7091  -30.8680   20.9383 C   0  0  1  0  0  0  0  0  0  0  0  0
  -27.6220  -13.6960   20.3842 C   0  0  1  0  0  0  0  0  0  0  0  0
  -28.3676  -18.5514   16.8981 C   0  0  2  0  0  0  0  0  0  0  0  0
  -29.2106  -24.6769   16.6902 C   0  0  0  0  0  0  0  0  0  0  0  0
  -23.0013  -27.1288   27.5038 C   0  0  0  0  0  0  0  0  0  0  0  0
  -30.9789  -22.8722   21.1295 C   0  0  0  0  0  0  0  0  0  0  0  0
  -33.1707  -22.5499   19.9185 C   0  0  0  0  0  0  0  0  0  0  0  0
  -27.6511  -30.7668   24.5013 C   0  0  0  0  0  0  0  0  0  0  0  0
  -26.9819  -29.2927   26.4111 C   0  0  0  0  0  0  0  0  0  0  0  0
  -25.8080  -31.4625   26.0418 C   0  0  0  0  0  0  0  0  0  0  0  0
  -21.3319  -26.6526   24.1182 C   0  0  0  0  0  0  0  0  0  0  0  0
  -30.5133  -22.1185   16.3399 C   0  0  0  0  0  0  0  0  0  0  0  0
  -26.3197  -24.7904   17.0224 C   0  0  0  0  0  0  0  0  0  1  0  0
  -31.2615  -21.6417   17.5829 C   0  0  0  0  0  0  0  0  0  0  0  0
  -25.3811  -29.5374   24.4595 C   0  0  1  0  0  0  0  0  0  0  0  0
  -22.6220  -27.5047   26.0798 C   0  0  2  0  0  0  0  0  0  0  0  0
  -31.6976  -22.1797   19.9827 C   0  0  0  0  0  0  0  0  0  0  0  0
  -26.4534  -30.2556   25.3266 C   0  0  0  0  0  0  0  0  0  0  0  0
  -25.9686  -11.8897   20.6734 N   0  0  0  0  0  0  0  0  0  0  0  0
  -26.1964  -13.2097   20.5646 N   0  0  0  0  0  0  0  0  0  0  0  0
  -25.0266  -29.9674   22.0485 N   0  0  0  0  0  0  0  0  0  0  0  0
  -29.3721  -14.3171   18.7537 N   0  0  0  0  0  0  0  0  0  0  0  0
  -29.0522  -16.4438   17.7119 N   0  0  0  0  0  0  0  0  0  0  0  0
  -25.1159  -15.3174   20.5425 N   0  0  0  0  0  0  0  0  0  0  0  0
  -21.7074  -12.4049   21.0860 N   0  0  0  0  0  0  0  0  0  0  0  0
  -28.8760  -19.7747   16.3360 N   0  0  0  0  0  0  0  0  0  0  0  0
  -25.9790  -32.9168   20.7205 N   0  0  0  0  0  0  0  0  0  0  0  0
  -24.2225  -29.0666   25.2108 N   0  0  0  0  0  0  0  0  0  0  0  0
  -21.7944  -26.4051   25.5081 N   0  3  0  0  0  0  0  0  0  0  0  0
  -31.0520  -22.5888   18.7057 N   0  3  0  0  0  0  0  0  0  0  0  0
  -22.2439  -14.6240   20.8704 O   0  0  0  0  0  0  0  0  0  0  0  0
  -26.9214  -30.8758   20.1135 O   0  0  0  0  0  0  0  0  0  0  0  0
  -24.2708  -31.4746   23.6590 O   0  0  0  0  0  0  0  0  0  0  0  0
  -24.4327  -26.8319   24.6286 O   0  0  0  0  0  0  0  0  0  0  0  0
  -30.7739  -15.0642   17.0894 O   0  0  0  0  0  0  0  0  0  0  0  0
  -22.1327   -6.8592   21.4006 O   0  0  0  0  0  0  0  0  0  0  0  0
  -26.5461  -25.2633   18.3437 O   0  0  0  0  0  0  0  0  0  1  0  0
  -18.2780   -6.3891   25.3153 F   0  0  0  0  0  0  0  0  0  0  0  0
  -22.4145   -5.0326   23.4565 F   0  0  0  0  0  0  0  0  0  0  0  0
  1  2  1  0  0  0  0
  1  5  2  0  0  0  0
  2  6  2  0  0  0  0
  3 10  2  0  0  0  0
  3 17  1  0  0  0  0
  4 11  1  0  0  0  0
  4 17  2  0  0  0  0
  5 19  1  0  0  0  0
  6 21  1  0  0  0  0
  7 12  2  0  0  0  0
  7 20  1  0  0  0  0
  8  9  2  0  0  0  0
  8 23  1  0  0  0  0
  9 26  1  0  0  0  0
 10 27  1  0  0  0  0
 11 27  2  0  0  0  0
 12 28  1  0  0  0  0
 13 14  2  0  0  0  0
 13 29  1  0  0  0  0
 14 30  1  0  0  0  0
 15 22  1  0  0  0  0
 15 28  2  0  0  0  0
 16 30  2  0  0  0  0
 16 31  1  0  0  0  0
 17 32  1  0  0  0  0
 18 32  1  0  0  0  0
 18 33  2  0  0  0  0
 18 34  1  0  0  0  0
 19 21  2  0  0  0  0
 19 39  1  0  0  0  0
 20 22  2  0  0  0  0
 20 40  1  0  0  0  0
 21 51  1  0  0  0  0
 22 41  1  0  0  0  0
 23 24  2  0  0  0  0
 23 64  1  0  0  0  0
 24 25  1  0  0  0  0
 24 55  1  0  0  0  0
 25 26  2  0  0  0  0
 25 63  1  0  0  0  0
 26 77  1  0  0  0  0
 27 87  1  0  0  0  0
 28 88  1  0  0  0  0
 29 31  2  0  0  0  0
 29 87  1  0  0  0  0
 30 89  1  0  0  0  0
 31 90  1  0  0  0  0
 32 70  2  0  0  0  0
 33 71  1  0  0  0  0
 33 75  1  0  0  0  0
 34 76  1  0  0  0  0
 34 82  2  0  0  0  0
 35 52  1  0  0  0  0
 35 78  1  0  0  0  0
 35 83  2  0  0  0  0
 36 66  1  0  0  0  0
 36 72  1  0  0  0  0
 36 84  2  0  0  0  0
 37 67  1  0  0  0  0
 37 79  1  0  0  0  0
 37 85  2  0  0  0  0
 38 73  1  0  0  0  0
 38 74  1  0  0  0  0
 38 86  2  0  0  0  0
 39 42  1  0  0  0  0
 40 52  1  0  0  0  0
 41 72  1  0  0  0  0
 42 44  1  0  0  0  0
 43 45  1  0  0  0  0
 43 47  1  0  0  0  0
 44 51  1  0  0  0  0
 45 53  1  0  0  0  0
 46 48  1  0  0  0  0
 46 54  1  0  0  0  0
 47 73  1  0  0  0  0
 48 74  1  0  0  0  0
 49 53  1  0  0  0  0
 49 73  1  0  0  0  0
 50 54  1  0  0  0  0
 50 74  1  0  0  0  0
 51 78  1  0  0  0  0
 52 72  1  0  0  0  0
 53 71  1  0  0  0  0
 54 77  1  0  0  0  0
 56 67  1  0  0  0  0
 57 68  1  0  0  0  0
 58 68  1  0  0  0  0
 59 69  1  0  0  0  0
 60 69  1  0  0  0  0
 61 69  1  0  0  0  0
 62 80  1  0  0  0  0
 63 65  1  0  0  0  0
 64 88  1  0  0  0  0
 65 81  1  0  0  0  0
 66 69  1  0  0  0  0
 66 79  1  0  0  0  0
 67 80  1  0  0  0  0
 68 81  1  0  0  0  0
 70 71  1  0  0  0  0
M  CHG  2  80   1  81   1
M  ISO  4  38 100  64 101  74 100  88 101
M  END
> <Batch ID>
0149

> <Smiles>
CNC(C)C(=O)NC(C(=O)N1Cc2cc([101O:1][101CH2:1]c3ccc(NC4CC[100N:0]([100C:0](=O)N5CCCC(n6nc(-c7ccc(Oc8ccc(F)cc8F)cc7)c(C(N)=O)c6N)C5)C4)c(CCNC(C)C)c3C)ccc2CC1C(=O)NC1CCCc2ccccc21)C(C)(C)C

> <Shape>
0.273

> <Color>
0.176

> <Negative vol penalty>
0.000

$$$$

  -OEChem-04052321383D

 88 97  0     1  0  0  0  0  0999 V2000
  -18.9999  -31.8088   15.8251 C   0  0  0  0  0  0  0  0  0  0  0  0
  -19.4048  -30.5168   16.1448 C   0  0  0  0  0  0  0  0  0  0  0  0
  -22.6148  -10.4735   20.3164 C   0  0  0  0  0  0  0  0  0  0  0  0
  -24.3713   -9.4804   21.6451 C   0  0  0  0  0  0  0  0  0  0  0  0
  -19.7172  -32.9025   16.3080 C   0  0  0  0  0  0  0  0  0  0  0  0
  -20.5281  -30.3178   16.9467 C   0  0  0  0  0  0  0  0  0  0  0  0
  -21.3730  -25.8578   21.0577 C   0  0  0  0  0  0  0  0  0  0  0  0
  -21.8385   -9.3272   20.4857 C   0  0  0  0  0  0  0  0  0  0  0  0
  -23.5949   -8.3340   21.8145 C   0  0  0  0  0  0  0  0  0  0  0  0
  -22.0539  -24.6428   20.9969 C   0  0  0  0  0  0  0  0  0  0  0  0
  -20.9841   -7.3555   23.7240 C   0  0  0  0  0  0  0  0  0  0  0  0
  -20.9074   -6.8100   25.0055 C   0  0  0  0  0  0  0  0  0  0  0  0
  -28.3431  -18.9743   21.8405 C   0  0  0  0  0  0  0  0  0  0  0  0
  -23.9868  -25.6827   21.9977 C   0  0  0  0  0  0  0  0  0  0  0  0
  -26.6662  -19.5438   19.6894 C   0  0  0  0  0  0  0  0  0  0  0  0
  -21.8528   -4.7445   24.1828 C   0  0  0  0  0  0  0  0  0  0  0  0
  -23.8812  -10.5502   20.8960 C   0  0  0  0  0  0  0  0  0  0  0  0
  -24.3590  -13.0467   21.1119 C   0  0  0  0  0  0  0  0  0  0  0  0
  -20.8442  -32.7170   17.1241 C   0  0  0  0  0  0  0  0  0  0  0  0
  -21.9987  -26.9990   21.5799 C   0  0  0  0  0  0  0  0  0  0  0  0
  -21.2620  -31.4100   17.4398 C   0  0  0  0  0  0  0  0  0  0  0  0
  -28.6303  -18.4264   20.5803 C   0  0  0  0  0  0  0  0  0  0  0  0
  -23.3108  -26.9105   22.0664 C   0  0  0  0  0  0  0  0  0  0  0  0
  -27.7773  -18.7106   19.4966 C   0  0  0  0  0  0  0  0  0  0  0  0
  -27.2308  -19.7959   22.0217 C   0  0  0  0  0  0  0  0  0  0  0  0
  -22.3285   -8.2574   21.2347 C   0  0  0  0  0  0  0  0  0  0  0  0
  -23.3620  -24.5557   21.4643 C   0  0  0  0  0  0  0  0  0  0  0  0
  -21.4950   -6.5954   22.6719 C   0  0  0  0  0  0  0  0  0  0  0  0
  -26.3930  -20.0804   20.9470 C   0  0  0  0  0  0  0  0  0  0  0  0
  -21.3418   -5.5045   25.2349 C   0  0  0  0  0  0  0  0  0  0  0  0
  -21.9294   -5.2899   22.9013 C   0  0  0  0  0  0  0  0  0  0  0  0
  -24.6839  -11.7339   20.7210 C   0  0  0  0  0  0  0  0  0  0  0  0
  -25.4418  -13.7980   20.7250 C   0  0  0  0  0  0  0  0  0  0  0  0
  -23.1837  -13.5427   21.7664 C   0  0  0  0  0  0  0  0  0  0  0  0
  -22.7888  -29.8519   20.4221 C   0  0  0  0  0  0  0  0  0  0  0  0
  -23.6118  -30.4420   23.5038 C   0  0  0  0  0  0  0  0  0  0  0  0
  -24.5569  -29.2002   26.5388 C   0  0  0  0  0  0  0  0  0  0  0  0
  -31.1141  -14.1732   20.7021 C   0  0  0  0  0  0  0  0  0  0  0  0
  -21.6154  -33.9290   17.5834 C   0  0  0  0  0  0  0  0  0  0  0  0
  -21.2413  -28.2959   21.6631 C   0  0  0  0  0  0  0  0  0  0  0  0
  -24.0204  -28.1015   22.6550 C   0  0  0  0  0  0  0  0  0  0  0  0
  -28.0681  -18.1836   18.1193 C   0  0  0  0  0  0  0  0  0  0  0  0
  -22.5745  -33.6401   18.7354 C   0  0  0  0  0  0  0  0  0  0  0  0
  -29.3943  -12.6474   17.8011 C   0  0  0  0  0  0  0  0  0  0  0  0
  -23.3793  -32.3750   18.4555 C   0  0  0  0  0  0  0  0  0  0  0  0
  -28.0132  -12.3207   18.3667 C   0  0  0  0  0  0  0  0  0  0  0  0
  -30.4686  -12.6336   18.8843 C   0  0  0  0  0  0  0  0  0  0  0  0
  -28.7862  -13.1910   20.6085 C   0  0  0  0  0  0  0  0  0  0  0  0
  -30.2863  -17.4254   18.9506 C   0  0  0  0  0  0  0  0  0  0  0  0
  -29.8328  -17.5148   20.4126 C   0  0  2  0  0  0  0  0  0  0  0  0
  -22.4607  -31.1538   18.3273 C   0  0  1  0  0  0  0  0  0  0  0  0
  -22.1532  -29.5164   21.7416 C   0  0  1  0  0  0  0  0  0  0  0  0
  -27.6733  -13.2423   19.5510 C   0  0  2  0  0  0  0  0  0  0  0  0
  -27.3542  -21.8307   23.4815 C   0  0  0  0  0  0  0  0  0  0  0  0
  -25.1949  -29.9296   28.8536 C   0  0  0  0  0  0  0  0  0  0  0  0
  -26.3562  -31.2925   22.4768 C   0  0  0  0  0  0  0  0  0  0  0  0
  -27.2181  -31.0903   24.8187 C   0  0  0  0  0  0  0  0  0  0  0  0
  -25.4255  -32.7423   24.2895 C   0  0  0  0  0  0  0  0  0  0  0  0
  -31.7908  -16.1612   21.9942 C   0  0  0  0  0  0  0  0  0  0  0  0
  -22.2868  -27.7381   27.7505 C   0  0  0  0  0  0  0  0  0  0  0  0
  -26.9546  -20.3619   23.3754 C   0  0  0  0  0  0  0  0  0  0  0  0
  -29.5349  -16.1282   20.9964 C   0  0  0  0  0  0  0  0  0  0  0  0
  -23.6814  -22.4818   20.3451 C   0  0  0  0  0  0  0  0  0  1  0  0
  -24.8960  -21.6525   19.9758 C   0  0  0  0  0  0  0  0  0  0  0  0
  -24.8674  -30.2767   24.3254 C   0  0  1  0  0  0  0  0  0  0  0  0
  -24.0592  -29.4874   27.9439 C   0  0  2  0  0  0  0  0  0  0  0  0
  -25.9544  -31.3283   23.9648 C   0  0  0  0  0  0  0  0  0  0  0  0
  -25.8793  -11.6525   20.1308 N   0  0  0  0  0  0  0  0  0  0  0  0
  -26.3151  -12.9237   20.1480 N   0  0  0  0  0  0  0  0  0  0  0  0
  -23.2399  -29.3487   22.7087 N   0  0  0  0  0  0  0  0  0  0  0  0
  -30.1002  -13.4838   20.0168 N   0  0  0  0  0  0  0  0  0  0  0  0
  -25.7224  -15.1147   20.8253 N   0  0  0  0  0  0  0  0  0  0  0  0
  -23.1637  -13.5781   23.1673 N   0  0  0  0  0  0  0  0  0  0  0  0
  -22.0356  -30.7017   19.6347 N   0  0  0  0  0  0  0  0  0  0  0  0
  -24.4479  -30.3060   25.7224 N   0  0  0  0  0  0  0  0  0  0  0  0
  -30.7710  -15.4035   21.2830 N   0  0  0  0  0  0  0  0  0  0  0  0
  -29.1131  -17.1123   18.0831 N   0  3  0  0  0  0  0  0  0  0  0  0
  -23.4340  -28.2687   28.5312 N   0  3  0  0  0  0  0  0  0  0  0  0
  -22.1747  -13.9273   21.1281 O   0  0  0  0  0  0  0  0  0  0  0  0
  -23.8823  -29.3763   20.1399 O   0  0  0  0  0  0  0  0  0  0  0  0
  -22.9802  -31.4995   23.5706 O   0  0  0  0  0  0  0  0  0  0  0  0
  -25.0015  -28.1055   26.2004 O   0  0  0  0  0  0  0  0  0  0  0  0
  -32.2630  -13.7198   20.7815 O   0  0  0  0  0  0  0  0  0  0  0  0
  -21.5712   -7.1387   21.4004 O   0  0  0  0  0  0  0  0  0  0  0  0
  -24.0292  -23.3711   21.4055 O   0  0  0  0  0  0  0  0  0  1  0  0
  -25.2982  -20.8886   21.1062 O   0  0  0  0  0  0  0  0  0  0  0  0
  -21.2696   -4.9814   26.4659 F   0  0  0  0  0  0  0  0  0  0  0  0
  -22.4223   -4.5553   21.8948 F   0  0  0  0  0  0  0  0  0  0  0  0
  1  2  1  0  0  0  0
  1  5  2  0  0  0  0
  2  6  2  0  0  0  0
  3  8  2  0  0  0  0
  3 17  1  0  0  0  0
  4  9  1  0  0  0  0
  4 17  2  0  0  0  0
  5 19  1  0  0  0  0
  6 21  1  0  0  0  0
  7 10  2  0  0  0  0
  7 20  1  0  0  0  0
  8 26  1  0  0  0  0
  9 26  2  0  0  0  0
 10 27  1  0  0  0  0
 11 12  2  0  0  0  0
 11 28  1  0  0  0  0
 12 30  1  0  0  0  0
 13 22  2  0  0  0  0
 13 25  1  0  0  0  0
 14 23  1  0  0  0  0
 14 27  2  0  0  0  0
 15 24  2  0  0  0  0
 15 29  1  0  0  0  0
 16 30  2  0  0  0  0
 16 31  1  0  0  0  0
 17 32  1  0  0  0  0
 18 32  1  0  0  0  0
 18 33  2  0  0  0  0
 18 34  1  0  0  0  0
 19 21  2  0  0  0  0
 19 39  1  0  0  0  0
 20 23  2  0  0  0  0
 20 40  1  0  0  0  0
 21 51  1  0  0  0  0
 22 24  1  0  0  0  0
 22 50  1  0  0  0  0
 23 41  1  0  0  0  0
 24 42  1  0  0  0  0
 25 29  2  0  0  0  0
 25 61  1  0  0  0  0
 26 84  1  0  0  0  0
 27 85  1  0  0  0  0
 28 31  2  0  0  0  0
 28 84  1  0  0  0  0
 29 86  1  0  0  0  0
 30 87  1  0  0  0  0
 31 88  1  0  0  0  0
 32 68  2  0  0  0  0
 33 69  1  0  0  0  0
 33 72  1  0  0  0  0
 34 73  1  0  0  0  0
 34 79  2  0  0  0  0
 35 52  1  0  0  0  0
 35 74  1  0  0  0  0
 35 80  2  0  0  0  0
 36 65  1  0  0  0  0
 36 70  1  0  0  0  0
 36 81  2  0  0  0  0
 37 66  1  0  0  0  0
 37 75  1  0  0  0  0
 37 82  2  0  0  0  0
 38 71  1  0  0  0  0
 38 76  1  0  0  0  0
 38 83  2  0  0  0  0
 39 43  1  0  0  0  0
 40 52  1  0  0  0  0
 41 70  1  0  0  0  0
 42 77  1  0  0  0  0
 43 45  1  0  0  0  0
 44 46  1  0  0  0  0
 44 47  1  0  0  0  0
 45 51  1  0  0  0  0
 46 53  1  0  0  0  0
 47 71  1  0  0  0  0
 48 53  1  0  0  0  0
 48 71  1  0  0  0  0
 49 50  1  0  0  0  0
 49 77  1  0  0  0  0
 50 62  1  0  0  0  0
 51 74  1  0  0  0  0
 52 70  1  0  0  0  0
 53 69  1  0  0  0  0
 54 61  1  0  0  0  0
 55 66  1  0  0  0  0
 56 67  1  0  0  0  0
 57 67  1  0  0  0  0
 58 67  1  0  0  0  0
 59 76  1  0  0  0  0
 60 78  1  0  0  0  0
 62 76  1  0  0  0  0
 63 64  1  0  0  0  0
 63 85  1  0  0  0  0
 64 86  1  0  0  0  0
 65 67  1  0  0  0  0
 65 75  1  0  0  0  0
 66 78  1  0  0  0  0
 68 69  1  0  0  0  0
M  CHG  2  77   1  78   1
M  ISO  4  38 100  63 101  76 100  85 101
M  END
> <Batch ID>
0149

> <Smiles>
CCc1cc2c(cc1OC[101CH2:1][101O:1]c1ccc3c(c1)CN(C(=O)C(NC(=O)C(C)NC)C(C)(C)C)C(C(=O)NC1CCCc4ccccc41)C3)CNCC2C[100N:0](C)[100C:0](=O)N1CCCC(n2nc(-c3ccc(Oc4ccc(F)cc4F)cc3)c(C(N)=O)c2N)C1

> <Shape>
0.324

> <Color>
0.154

> <Negative vol penalty>
0.000

$$$$

  -OEChem-04052321383D

 89 98  0     1  0  0  0  0  0999 V2000
  -32.2466  -14.9782   21.0397 C   0  0  0  0  0  0  0  0  0  0  0  0
  -31.3434  -16.0356   21.0005 C   0  0  0  0  0  0  0  0  0  0  0  0
  -30.3923  -25.9306   18.8249 C   0  0  0  0  0  0  0  0  0  0  0  0
  -29.5836  -24.6644   20.7169 C   0  0  0  0  0  0  0  0  0  0  0  0
  -31.8348  -13.6972   20.6745 C   0  0  0  0  0  0  0  0  0  0  0  0
  -30.0280  -15.8128   20.5949 C   0  0  0  0  0  0  0  0  0  0  0  0
  -25.0033  -18.6147   22.6944 C   0  0  0  0  0  0  0  0  0  0  0  0
  -20.0367  -28.7348   23.0832 C   0  0  0  0  0  0  0  0  0  0  0  0
  -31.6745  -25.4226   19.0329 C   0  0  0  0  0  0  0  0  0  0  0  0
  -30.8658  -24.1563   20.9249 C   0  0  0  0  0  0  0  0  0  0  0  0
  -24.2469  -19.6772   22.2020 C   0  0  0  0  0  0  0  0  0  0  0  0
  -18.8085  -28.3049   23.6186 C   0  0  0  0  0  0  0  0  0  0  0  0
  -33.8508  -22.2452   21.7347 C   0  0  0  0  0  0  0  0  0  0  0  0
  -33.9747  -20.8794   21.9893 C   0  0  0  0  0  0  0  0  0  0  0  0
  -22.7247  -18.1111   21.1776 C   0  0  0  0  0  0  0  0  0  0  0  0
  -32.9647  -20.3890   19.8500 C   0  0  0  0  0  0  0  0  0  0  0  0
  -29.3468  -25.5515   19.6669 C   0  0  0  0  0  0  0  0  0  0  0  0
  -18.8879  -26.3961   22.2163 C   0  0  0  0  0  0  0  0  0  0  0  0
  -27.0079  -25.5225   18.6488 C   0  0  0  0  0  0  0  0  0  0  0  0
  -30.5111  -13.4568   20.2735 C   0  0  0  0  0  0  0  0  0  0  0  0
  -24.6316  -17.2901   22.4224 C   0  0  0  0  0  0  0  0  0  0  0  0
  -29.5984  -14.5276   20.2227 C   0  0  0  0  0  0  0  0  0  0  0  0
  -23.4767  -17.0334   21.6698 C   0  0  0  0  0  0  0  0  0  0  0  0
  -20.1064  -26.8099   21.6762 C   0  0  0  0  0  0  0  0  0  0  0  0
  -20.6956  -27.9848   22.1033 C   0  0  0  0  0  0  0  0  0  0  0  0
  -31.9113  -24.5354   20.0829 C   0  0  0  0  0  0  0  0  0  0  0  0
  -23.1090  -19.4256   21.4410 C   0  0  0  0  0  0  0  0  0  0  0  0
  -18.2170  -27.1178   23.1842 C   0  0  0  0  0  0  0  0  0  0  0  0
  -33.2839  -22.6830   20.5378 C   0  0  0  0  0  0  0  0  0  0  0  0
  -33.5316  -19.9513   21.0470 C   0  0  0  0  0  0  0  0  0  0  0  0
  -32.8409  -21.7549   19.5954 C   0  0  0  0  0  0  0  0  0  0  0  0
  -28.0221  -26.0764   19.4528 C   0  0  0  0  0  0  0  0  0  0  0  0
  -25.9524  -26.3915   18.7804 C   0  0  0  0  0  0  0  0  0  0  0  0
  -18.5084  -25.1286   21.5821 C   0  0  0  0  0  0  0  0  0  0  0  0
  -27.0188  -24.3291   17.8543 C   0  0  0  0  0  0  0  0  0  0  0  0
  -25.9792  -14.8511   20.8931 C   0  0  0  0  0  0  0  0  0  0  0  0
  -23.4119  -13.2262   22.0293 C   0  0  0  0  0  0  0  0  0  0  0  0
  -20.1980  -13.3203   23.1733 C   0  0  0  0  0  0  0  0  0  0  0  0
  -22.6323  -29.5841   21.9088 C   0  0  0  0  0  0  0  0  0  0  0  0
  -30.1248  -12.0640   19.8426 C   0  0  0  0  0  0  0  0  0  0  0  0
  -25.4433  -16.1548   22.9833 C   0  0  0  0  0  0  0  0  0  0  0  0
  -23.0235  -15.6294   21.3668 C   0  0  0  0  0  0  0  0  0  0  0  0
  -20.5849  -25.8307   20.6593 C   0  0  0  0  0  0  0  0  0  0  0  0
  -28.6158  -11.8413   19.7835 C   0  0  0  0  0  0  0  0  0  0  0  0
  -25.7219  -31.0040   20.8525 C   0  0  0  0  0  0  0  0  0  0  0  0
  -27.9328  -13.0007   19.0651 C   0  0  0  0  0  0  0  0  0  0  0  0
  -26.5123  -29.8030   20.3281 C   0  0  0  0  0  0  0  0  0  0  0  0
  -24.8768  -30.6382   22.0714 C   0  0  0  0  0  0  0  0  0  0  0  0
  -24.7815  -28.2804   21.3638 C   0  0  0  0  0  0  0  0  0  0  0  0
  -28.1566  -14.3212   19.8120 C   0  0  1  0  0  0  0  0  0  0  0  0
  -25.2600  -14.8512   22.2123 C   0  0  1  0  0  0  0  0  0  0  0  0
  -25.5979  -28.5840   20.0969 C   0  0  2  0  0  0  0  0  0  0  0  0
  -18.3533  -11.8279   23.9902 C   0  0  0  0  0  0  0  0  0  0  0  0
  -19.8645  -21.4696   22.0483 C   0  0  0  0  0  0  0  0  0  0  0  0
  -19.5289  -24.0981   18.3616 C   0  0  0  0  0  0  0  0  0  0  0  0
  -22.8566  -12.3466   19.1609 C   0  0  0  0  0  0  0  0  0  0  0  0
  -20.5511  -11.6893   19.8826 C   0  0  0  0  0  0  0  0  0  0  0  0
  -22.5383  -10.5588   20.8804 C   0  0  0  0  0  0  0  0  0  0  0  0
  -20.1363  -14.6492   25.8170 C   0  0  0  0  0  0  0  0  0  0  0  0
  -16.4334  -27.5392   24.6998 C   0  0  0  0  0  0  0  0  0  0  0  0
  -20.8232  -22.8167   20.1019 C   0  0  0  0  0  0  0  0  0  0  0  0
  -22.3571  -21.6637   21.7265 C   0  0  0  0  0  0  0  0  0  1  0  0
  -22.0160  -12.9464   21.5273 C   0  0  1  0  0  0  0  0  0  0  0  0
  -19.5423  -12.6886   24.3880 C   0  0  2  0  0  0  0  0  0  0  0  0
  -21.0047  -22.3751   21.5701 C   0  0  2  0  0  0  0  0  0  0  0  0
  -19.5710  -23.6648   19.8246 C   0  0  1  0  0  0  0  0  0  0  0  0
  -21.9998  -11.9119   20.3667 C   0  0  0  0  0  0  0  0  0  0  0  0
  -27.6450  -27.2097   20.0507 N   0  0  0  0  0  0  0  0  0  0  0  0
  -26.3820  -27.3750   19.6220 N   0  0  0  0  0  0  0  0  0  0  0  0
  -19.5233  -24.8288   20.6772 N   0  0  0  0  0  0  0  0  0  0  0  0
  -23.8539  -14.5532   21.9321 N   0  0  0  0  0  0  0  0  0  0  0  0
  -24.0331  -29.4778   21.7771 N   0  0  0  0  0  0  0  0  0  0  0  0
  -24.7081  -26.4028   18.2569 N   0  0  0  0  0  0  0  0  0  0  0  0
  -28.1850  -23.5521   17.8318 N   0  0  0  0  0  0  0  0  0  0  0  0
  -21.9319  -28.4267   21.5703 N   0  0  0  0  0  0  0  0  0  0  0  0
  -27.2848  -14.4042   20.9641 N   0  0  0  0  0  0  0  0  0  0  0  0
  -21.2349  -12.5484   22.6934 N   0  0  0  0  0  0  0  0  0  0  0  0
  -19.0657  -13.7435   25.3267 N   0  3  0  0  0  0  0  0  0  0  0  0
  -17.4935  -24.5071   21.8383 O   0  0  0  0  0  0  0  0  0  0  0  0
  -26.0295  -23.9713   17.1711 O   0  0  0  0  0  0  0  0  0  0  0  0
  -25.3925  -15.2272   19.8851 O   0  0  0  0  0  0  0  0  0  0  0  0
  -24.0827  -12.3028   22.4973 O   0  0  0  0  0  0  0  0  0  0  0  0
  -19.8251  -14.3895   22.6956 O   0  0  0  0  0  0  0  0  0  0  0  0
  -22.0920  -30.6336   22.2675 O   0  0  0  0  0  0  0  0  0  0  0  0
  -33.1624  -24.0393   20.2861 O   0  0  0  0  0  0  0  0  0  0  0  0
  -17.0340  -26.7088   23.7030 O   0  0  0  0  0  0  0  0  0  0  0  0
  -22.3692  -20.4609   20.9587 O   0  0  0  0  0  0  0  0  0  1  0  0
  -33.6520  -18.6398   21.2910 F   0  0  0  0  0  0  0  0  0  0  0  0
  -32.2965  -22.1694   18.4432 F   0  0  0  0  0  0  0  0  0  0  0  0
  1  2  1  0  0  0  0
  1  5  2  0  0  0  0
  2  6  2  0  0  0  0
  3  9  2  0  0  0  0
  3 17  1  0  0  0  0
  4 10  1  0  0  0  0
  4 17  2  0  0  0  0
  5 20  1  0  0  0  0
  6 22  1  0  0  0  0
  7 11  2  0  0  0  0
  7 21  1  0  0  0  0
  8 12  1  0  0  0  0
  8 25  2  0  0  0  0
  9 26  1  0  0  0  0
 10 26  2  0  0  0  0
 11 27  1  0  0  0  0
 12 28  2  0  0  0  0
 13 14  2  0  0  0  0
 13 29  1  0  0  0  0
 14 30  1  0  0  0  0
 15 23  1  0  0  0  0
 15 27  2  0  0  0  0
 16 30  2  0  0  0  0
 16 31  1  0  0  0  0
 17 32  1  0  0  0  0
 18 24  2  0  0  0  0
 18 28  1  0  0  0  0
 18 34  1  0  0  0  0
 19 32  1  0  0  0  0
 19 33  2  0  0  0  0
 19 35  1  0  0  0  0
 20 22  2  0  0  0  0
 20 40  1  0  0  0  0
 21 23  2  0  0  0  0
 21 41  1  0  0  0  0
 22 50  1  0  0  0  0
 23 42  1  0  0  0  0
 24 25  1  0  0  0  0
 24 43  1  0  0  0  0
 25 75  1  0  0  0  0
 26 85  1  0  0  0  0
 27 87  1  0  0  0  0
 28 86  1  0  0  0  0
 29 31  2  0  0  0  0
 29 85  1  0  0  0  0
 30 88  1  0  0  0  0
 31 89  1  0  0  0  0
 32 68  2  0  0  0  0
 33 69  1  0  0  0  0
 33 73  1  0  0  0  0
 34 70  1  0  0  0  0
 34 79  2  0  0  0  0
 35 74  1  0  0  0  0
 35 80  2  0  0  0  0
 36 51  1  0  0  0  0
 36 76  1  0  0  0  0
 36 81  2  0  0  0  0
 37 63  1  0  0  0  0
 37 71  1  0  0  0  0
 37 82  2  0  0  0  0
 38 64  1  0  0  0  0
 38 77  1  0  0  0  0
 38 83  2  0  0  0  0
 39 72  1  0  0  0  0
 39 75  1  0  0  0  0
 39 84  2  0  0  0  0
 40 44  1  0  0  0  0
 41 51  1  0  0  0  0
 42 71  1  0  0  0  0
 43 70  1  0  0  0  0
 44 46  1  0  0  0  0
 45 47  1  0  0  0  0
 45 48  1  0  0  0  0
 46 50  1  0  0  0  0
 47 52  1  0  0  0  0
 48 72  1  0  0  0  0
 49 52  1  0  0  0  0
 49 72  1  0  0  0  0
 50 76  1  0  0  0  0
 51 71  1  0  0  0  0
 52 69  1  0  0  0  0
 53 64  1  0  0  0  0
 54 65  1  0  0  0  0
 55 66  1  0  0  0  0
 56 67  1  0  0  0  0
 57 67  1  0  0  0  0
 58 67  1  0  0  0  0
 59 78  1  0  0  0  0
 60 86  1  0  0  0  0
 61 65  1  0  0  0  0
 61 66  1  0  0  0  0
 62 65  1  0  0  0  0
 62 87  1  0  0  0  0
 63 67  1  0  0  0  0
 63 77  1  0  0  0  0
 64 78  1  0  0  0  0
 66 70  1  0  0  0  0
 68 69  1  0  0  0  0
M  CHG  1  78   1
M  ISO  4  39 100  62 101  75 100  87 101
M  END
> <Batch ID>
0149

> <Smiles>
CNC(C)C(=O)NC(C(=O)N1Cc2cc([101O:1][101CH2:1]C(C)CC(C)N3Cc4c([100NH:0][100C:0](=O)N5CCCC(n6nc(-c7ccc(Oc8ccc(F)cc8F)cc7)c(C(N)=O)c6N)C5)ccc(OC)c4C3=O)ccc2CC1C(=O)NC1CCCc2ccccc21)C(C)(C)C

> <Shape>
0.250

> <Color>
0.076

> <Negative vol penalty>
0.000

$$$$

  -OEChem-04052321383D

 89 98  0     1  0  0  0  0  0999 V2000
  -19.0209  -24.3452   21.8188 C   0  0  0  0  0  0  0  0  0  0  0  0
  -20.2476  -24.6285   21.2268 C   0  0  0  0  0  0  0  0  0  0  0  0
  -23.2338  -10.6387   21.6066 C   0  0  0  0  0  0  0  0  0  0  0  0
  -24.5679   -8.6375   21.3775 C   0  0  0  0  0  0  0  0  0  0  0  0
  -18.2256  -25.3830   22.3030 C   0  0  0  0  0  0  0  0  0  0  0  0
  -20.6792  -25.9499   21.1176 C   0  0  0  0  0  0  0  0  0  0  0  0
  -25.5406  -26.5192   22.4167 C   0  0  0  0  0  0  0  0  0  0  0  0
  -22.0808   -9.9006   21.3393 C   0  0  0  0  0  0  0  0  0  0  0  0
  -23.4149   -7.8994   21.1103 C   0  0  0  0  0  0  0  0  0  0  0  0
  -26.4992  -26.1363   21.4794 C   0  0  0  0  0  0  0  0  0  0  0  0
  -20.7833   -5.4208   20.7234 C   0  0  0  0  0  0  0  0  0  0  0  0
  -20.6344   -4.1929   21.3681 C   0  0  0  0  0  0  0  0  0  0  0  0
  -26.7843  -28.4440   20.8372 C   0  0  0  0  0  0  0  0  0  0  0  0
  -20.7176   -5.3074   23.5101 C   0  0  0  0  0  0  0  0  0  0  0  0
  -24.4774  -10.0071   21.6257 C   0  0  0  0  0  0  0  0  0  0  0  0
  -26.2503  -11.0123   23.1600 C   0  0  0  0  0  0  0  0  0  0  0  0
  -18.6521  -26.7171   22.2084 C   0  0  0  0  0  0  0  0  0  0  0  0
  -25.1882  -27.8685   22.5638 C   0  0  0  0  0  0  0  0  0  0  0  0
  -19.8883  -27.0066   21.5998 C   0  0  0  0  0  0  0  0  0  0  0  0
  -25.8229  -28.8417   21.7787 C   0  0  0  0  0  0  0  0  0  0  0  0
  -27.9465  -23.2274   18.6673 C   0  0  0  0  0  0  0  0  0  0  0  0
  -29.6786  -23.4827   20.3322 C   0  0  0  0  0  0  0  0  0  0  0  0
  -28.9625  -22.6759   19.4479 C   0  0  0  0  0  0  0  0  0  0  0  0
  -27.6467  -24.5857   18.7710 C   0  0  0  0  0  0  0  0  0  0  0  0
  -29.3787  -24.8410   20.4359 C   0  0  0  0  0  0  0  0  0  0  0  0
  -22.1713   -8.5310   21.0912 C   0  0  0  0  0  0  0  0  0  0  0  0
  -27.1191  -27.0984   20.6875 C   0  0  0  0  0  0  0  0  0  0  0  0
  -20.8994   -6.5921   21.4721 C   0  0  0  0  0  0  0  0  0  0  0  0
  -28.3628  -25.3925   19.6553 C   0  0  0  0  0  0  0  0  0  1  0  0
  -20.6016   -4.1362   22.7614 C   0  0  0  0  0  0  0  0  0  0  0  0
  -20.8666   -6.5354   22.8654 C   0  0  0  0  0  0  0  0  0  0  0  0
  -25.6689  -10.7691   21.9011 C   0  0  0  0  0  0  0  0  0  0  0  0
  -27.3557  -11.7797   22.8851 C   0  0  0  0  0  0  0  0  0  0  0  0
  -25.8288  -10.5829   24.4614 C   0  0  0  0  0  0  0  0  0  0  0  0
  -22.5110  -29.5412   22.1918 C   0  0  0  0  0  0  0  0  0  0  0  0
  -24.3077  -31.9506   23.4120 C   0  0  0  0  0  0  0  0  0  0  0  0
  -27.4111  -33.2648   23.9494 C   0  0  0  0  0  0  0  0  0  0  0  0
  -29.8676  -15.8286   20.4116 C   0  0  0  0  0  0  0  0  0  0  0  0
  -17.7367  -27.8087   22.7035 C   0  0  0  0  0  0  0  0  0  0  0  0
  -24.1717  -28.2681   23.5979 C   0  0  0  0  0  0  0  0  0  0  0  0
  -25.4949  -30.3057   21.9120 C   0  0  0  0  0  0  0  0  0  0  0  0
  -18.4357  -29.1533   22.8868 C   0  0  0  0  0  0  0  0  0  0  0  0
  -29.5949  -12.8956   18.4967 C   0  0  0  0  0  0  0  0  0  0  0  0
  -19.3004  -29.4754   21.6722 C   0  0  0  0  0  0  0  0  0  0  0  0
  -28.5868  -12.0909   19.3166 C   0  0  0  0  0  0  0  0  0  0  0  0
  -29.2280  -14.3793   18.4329 C   0  0  0  0  0  0  0  0  0  0  0  0
  -30.0870  -17.1985   18.2904 C   0  0  0  0  0  0  0  0  0  0  0  0
  -31.7161  -17.4506   20.1263 C   0  0  0  0  0  0  0  0  0  0  0  0
  -28.0103  -14.1984   20.5785 C   0  0  0  0  0  0  0  0  0  0  0  0
  -29.7683  -18.6888   18.3559 C   0  0  0  0  0  0  0  0  0  0  0  0
  -31.4053  -18.9344   20.2366 C   0  0  0  0  0  0  0  0  0  0  0  0
  -20.4023  -28.4254   21.4854 C   0  0  1  0  0  0  0  0  0  0  0  0
  -23.5183  -29.6150   23.3042 C   0  0  1  0  0  0  0  0  0  0  0  0
  -28.3848  -12.7140   20.7093 C   0  0  1  0  0  0  0  0  0  0  0  0
  -27.1786  -22.3622   17.7181 C   0  0  0  0  0  0  0  0  0  0  0  0
  -30.7680  -22.8918   21.1706 C   0  0  0  0  0  0  0  0  0  0  0  0
  -26.5587  -25.1834   17.9368 C   0  0  0  0  0  0  0  0  0  0  0  0
  -30.1433  -25.7117   21.3820 C   0  0  0  0  0  0  0  0  0  0  0  0
  -28.5589  -35.2652   24.9384 C   0  0  0  0  0  0  0  0  0  0  0  0
  -31.0012  -21.4563   17.4959 C   0  0  0  0  0  0  0  0  0  0  0  0
  -23.5203  -33.6055   20.9725 C   0  0  0  0  0  0  0  0  0  0  0  0
  -25.3968  -35.1712   21.5158 C   0  0  0  0  0  0  0  0  0  0  0  0
  -23.5216  -34.8664   23.1323 C   0  0  0  0  0  0  0  0  0  0  0  0
  -28.8499  -31.6040   25.9319 C   0  0  0  0  0  0  0  0  0  0  0  0
  -29.2841  -21.2123   19.3370 C   0  0  0  0  0  0  0  0  0  0  0  0
  -25.2116  -33.0105   22.8303 C   0  0  1  0  0  0  0  0  0  0  0  0
  -28.0544  -33.8532   25.1921 C   0  0  2  0  0  0  0  0  0  0  0  0
  -30.7264  -20.9278   18.8977 C   0  0  1  0  0  0  0  0  0  0  0  0
  -24.4176  -34.1357   22.1086 C   0  0  0  0  0  0  0  0  0  0  0  0
  -26.3486  -11.3361   20.9010 N   0  0  0  0  0  0  0  0  0  0  0  0
  -27.3686  -11.9434   21.5311 N   0  0  0  0  0  0  0  0  0  0  0  0
  -24.4899  -30.6456   22.9327 N   0  0  0  0  0  0  0  0  0  0  0  0
  -29.0052  -14.9192   19.7814 N   0  0  0  0  0  0  0  0  0  0  0  0
  -30.5792  -16.7098   19.5841 N   0  0  0  0  0  0  0  0  0  0  0  0
  -28.3083  -12.3238   23.6719 N   0  0  0  0  0  0  0  0  0  0  0  0
  -24.6709   -9.8001   24.5642 N   0  0  0  0  0  0  0  0  0  0  0  0
  -21.4800  -28.6511   22.4245 N   0  0  0  0  0  0  0  0  0  0  0  0
  -26.0493  -33.4803   23.9285 N   0  0  0  0  0  0  0  0  0  0  0  0
  -30.9644  -19.4437   18.8841 N   0  3  0  0  0  0  0  0  0  0  0  0
  -29.2065  -33.0134   25.6260 N   0  3  0  0  0  0  0  0  0  0  0  0
  -26.4513  -10.8983   25.5038 O   0  0  0  0  0  0  0  0  0  0  0  0
  -22.6575  -30.2411   21.1966 O   0  0  0  0  0  0  0  0  0  0  0  0
  -23.4755  -32.2675   24.2657 O   0  0  0  0  0  0  0  0  0  0  0  0
  -28.0529  -32.6764   23.0819 O   0  0  0  0  0  0  0  0  0  0  0  0
  -29.9939  -15.8523   21.6425 O   0  0  0  0  0  0  0  0  0  0  0  0
  -21.0464   -7.8105   20.8306 O   0  0  0  0  0  0  0  0  0  0  0  0
  -28.0700  -26.7212   19.7564 O   0  0  0  0  0  0  0  0  0  1  0  0
  -20.4570   -2.9571   23.3804 F   0  0  0  0  0  0  0  0  0  0  0  0
  -20.9764   -7.6573   23.5900 F   0  0  0  0  0  0  0  0  0  0  0  0
  1  2  1  0  0  0  0
  1  5  2  0  0  0  0
  2  6  2  0  0  0  0
  3  8  2  0  0  0  0
  3 15  1  0  0  0  0
  4  9  1  0  0  0  0
  4 15  2  0  0  0  0
  5 17  1  0  0  0  0
  6 19  1  0  0  0  0
  7 10  2  0  0  0  0
  7 18  1  0  0  0  0
  8 26  1  0  0  0  0
  9 26  2  0  0  0  0
 10 27  1  0  0  0  0
 11 12  2  0  0  0  0
 11 28  1  0  0  0  0
 12 30  1  0  0  0  0
 13 20  1  0  0  0  0
 13 27  2  0  0  0  0
 14 30  2  0  0  0  0
 14 31  1  0  0  0  0
 15 32  1  0  0  0  0
 16 32  1  0  0  0  0
 16 33  2  0  0  0  0
 16 34  1  0  0  0  0
 17 19  2  0  0  0  0
 17 39  1  0  0  0  0
 18 20  2  0  0  0  0
 18 40  1  0  0  0  0
 19 52  1  0  0  0  0
 20 41  1  0  0  0  0
 21 23  1  0  0  0  0
 21 24  2  0  0  0  0
 21 55  1  0  0  0  0
 22 23  2  0  0  0  0
 22 25  1  0  0  0  0
 22 56  1  0  0  0  0
 23 65  1  0  0  0  0
 24 29  1  0  0  0  0
 24 57  1  0  0  0  0
 25 29  2  0  0  0  0
 25 58  1  0  0  0  0
 26 86  1  0  0  0  0
 27 87  1  0  0  0  0
 28 31  2  0  0  0  0
 28 86  1  0  0  0  0
 29 87  1  0  0  0  0
 30 88  1  0  0  0  0
 31 89  1  0  0  0  0
 32 70  2  0  0  0  0
 33 71  1  0  0  0  0
 33 75  1  0  0  0  0
 34 76  1  0  0  0  0
 34 81  2  0  0  0  0
 35 53  1  0  0  0  0
 35 77  1  0  0  0  0
 35 82  2  0  0  0  0
 36 66  1  0  0  0  0
 36 72  1  0  0  0  0
 36 83  2  0  0  0  0
 37 67  1  0  0  0  0
 37 78  1  0  0  0  0
 37 84  2  0  0  0  0
 38 73  1  0  0  0  0
 38 74  1  0  0  0  0
 38 85  2  0  0  0  0
 39 42  1  0  0  0  0
 40 53  1  0  0  0  0
 41 72  1  0  0  0  0
 42 44  1  0  0  0  0
 43 45  1  0  0  0  0
 43 46  1  0  0  0  0
 44 52  1  0  0  0  0
 45 54  1  0  0  0  0
 46 73  1  0  0  0  0
 47 50  1  0  0  0  0
 47 74  1  0  0  0  0
 48 51  1  0  0  0  0
 48 74  1  0  0  0  0
 49 54  1  0  0  0  0
 49 73  1  0  0  0  0
 50 79  1  0  0  0  0
 51 79  1  0  0  0  0
 52 77  1  0  0  0  0
 53 72  1  0  0  0  0
 54 71  1  0  0  0  0
 59 67  1  0  0  0  0
 60 68  1  0  0  0  0
 61 69  1  0  0  0  0
 62 69  1  0  0  0  0
 63 69  1  0  0  0  0
 64 80  1  0  0  0  0
 65 68  1  0  0  0  0
 66 69  1  0  0  0  0
 66 78  1  0  0  0  0
 67 80  1  0  0  0  0
 68 79  1  0  0  0  0
 70 71  1  0  0  0  0
M  CHG  2  79   1  80   1
M  ISO  4  29 101  38 100  74 100  87 101
M  END
> <Batch ID>
0149

> <Smiles>
CNC(C)C(=O)NC(C(=O)N1Cc2cc([101O:1][101c:1]3c(C)c(C)c(CC(C)N4CC[100N:0]([100C:0](=O)N5CCCC(n6nc(-c7ccc(Oc8ccc(F)cc8F)cc7)c(C(N)=O)c6N)C5)CC4)c(C)c3C)ccc2CC1C(=O)NC1CCCc2ccccc21)C(C)(C)C

> <Shape>
0.330

> <Color>
0.119

> <Negative vol penalty>
0.000

$$$$

  -OEChem-04052321383D

 89 98  0     1  0  0  0  0  0999 V2000
  -28.1349  -37.5331   24.5026 C   0  0  0  0  0  0  0  0  0  0  0  0
  -28.6239  -36.4802   23.7360 C   0  0  0  0  0  0  0  0  0  0  0  0
  -23.0757  -10.0862   21.0427 C   0  0  0  0  0  0  0  0  0  0  0  0
  -23.4018  -11.5936   22.9023 C   0  0  0  0  0  0  0  0  0  0  0  0
  -27.0604  -37.3248   25.3664 C   0  0  0  0  0  0  0  0  0  0  0  0
  -28.0394  -35.2180   23.8336 C   0  0  0  0  0  0  0  0  0  0  0  0
  -26.5806  -29.4210   19.8859 C   0  0  0  0  0  0  0  0  0  0  0  0
  -22.1652   -9.3490   21.7998 C   0  0  0  0  0  0  0  0  0  0  0  0
  -22.4912  -10.8565   23.6595 C   0  0  0  0  0  0  0  0  0  0  0  0
  -26.7564  -28.0380   19.8974 C   0  0  0  0  0  0  0  0  0  0  0  0
  -22.2706   -7.0214   24.2483 C   0  0  0  0  0  0  0  0  0  0  0  0
  -22.3820   -5.6313   24.2216 C   0  0  0  0  0  0  0  0  0  0  0  0
  -24.8545  -27.8145   21.3644 C   0  0  0  0  0  0  0  0  0  0  0  0
  -26.0482  -23.1358   19.5535 C   0  0  0  0  0  0  0  0  0  0  0  0
  -28.2679  -23.2118   20.5044 C   0  0  0  0  0  0  0  0  0  0  0  0
  -20.1387   -5.4684   23.3394 C   0  0  0  0  0  0  0  0  0  0  0  0
  -23.6940  -11.2085   21.5940 C   0  0  0  0  0  0  0  0  0  0  0  0
  -24.3541  -13.0654   19.9741 C   0  0  0  0  0  0  0  0  0  0  0  0
  -26.4562  -36.0617   25.4674 C   0  0  0  0  0  0  0  0  0  0  0  0
  -25.5453  -30.0131   20.6236 C   0  0  0  0  0  0  0  0  0  0  0  0
  -26.9567  -34.9922   24.7005 C   0  0  0  0  0  0  0  0  0  0  0  0
  -24.6661  -29.2051   21.3586 C   0  0  0  0  0  0  0  0  0  0  0  0
  -27.1540  -23.8697   19.9828 C   0  0  0  0  0  0  0  0  0  0  0  0
  -26.0563  -21.7440   19.6460 C   0  0  0  0  0  0  0  0  0  0  0  0
  -28.2760  -21.8200   20.5968 C   0  0  0  0  0  0  0  0  0  0  0  0
  -21.8729   -9.7342   23.1082 C   0  0  0  0  0  0  0  0  0  0  0  0
  -25.8950  -27.2348   20.6390 C   0  0  0  0  0  0  0  0  0  0  0  0
  -21.0932   -7.6351   23.8207 C   0  0  0  0  0  0  0  0  0  0  0  0
  -27.1702  -21.0861   20.1676 C   0  0  0  0  0  0  0  0  0  0  0  0
  -21.3161   -4.8548   23.7671 C   0  0  0  0  0  0  0  0  0  0  0  0
  -20.0273   -6.8586   23.3663 C   0  0  0  0  0  0  0  0  0  0  0  0
  -24.6351  -11.9700   20.8126 C   0  0  0  0  0  0  0  0  0  0  0  0
  -25.5763  -13.4305   19.4650 C   0  0  0  0  0  0  0  0  0  0  0  0
  -23.1003  -13.6965   19.6818 C   0  0  0  0  0  0  0  0  0  0  0  0
  -25.4067  -32.0820   23.0328 C   0  0  0  0  0  0  0  0  0  0  0  0
  -22.2152  -31.9206   22.4756 C   0  0  0  0  0  0  0  0  0  0  0  0
  -19.5786  -30.1522   21.2233 C   0  0  0  0  0  0  0  0  0  0  0  0
  -30.9386  -14.4237   19.9451 C   0  0  0  0  0  0  0  0  0  0  0  0
  -25.3276  -35.8734   26.4499 C   0  0  0  0  0  0  0  0  0  0  0  0
  -25.3528  -31.5042   20.5794 C   0  0  0  0  0  0  0  0  0  0  0  0
  -23.5267  -29.7898   22.1512 C   0  0  0  0  0  0  0  0  0  0  0  0
  -24.5239  -34.5967   26.2169 C   0  0  0  0  0  0  0  0  0  0  0  0
  -30.0538  -11.0968   19.6241 C   0  0  0  0  0  0  0  0  0  0  0  0
  -25.4576  -33.4097   26.0021 C   0  0  0  0  0  0  0  0  0  0  0  0
  -28.5395  -11.1024   19.8325 C   0  0  0  0  0  0  0  0  0  0  0  0
  -29.5293  -17.4678   18.3722 C   0  0  0  0  0  0  0  0  0  0  0  0
  -28.5475  -17.2098   20.6784 C   0  0  0  0  0  0  0  0  0  0  0  0
  -30.7427  -12.0435   20.6004 C   0  0  0  0  0  0  0  0  0  0  0  0
  -30.7074  -16.5953   18.7964 C   0  0  0  0  0  0  0  0  0  0  0  0
  -29.7459  -16.3474   21.0605 C   0  0  0  0  0  0  0  0  0  0  0  0
  -28.7281  -13.4709   20.7399 C   0  0  0  0  0  0  0  0  0  0  0  0
  -26.3334  -33.6145   24.7601 C   0  0  1  0  0  0  0  0  0  0  0  0
  -24.5794  -32.0427   21.7791 C   0  0  1  0  0  0  0  0  0  0  0  0
  -28.9093  -18.2042   19.5669 C   0  0  0  0  0  0  0  0  0  0  0  0
  -27.9786  -12.5343   19.7711 C   0  0  2  0  0  0  0  0  0  0  0  0
  -24.8631  -20.9757   19.1811 C   0  0  0  0  0  0  0  0  0  0  0  0
  -30.6273  -21.0689   20.1564 C   0  0  0  0  0  0  0  0  0  0  0  0
  -17.0869  -30.2618   20.9464 C   0  0  0  0  0  0  0  0  0  0  0  0
  -26.5948  -18.1081   18.5743 C   0  0  0  0  0  0  0  0  0  0  0  0
  -21.8598  -31.2507   25.4311 C   0  0  0  0  0  0  0  0  0  0  0  0
  -19.5466  -30.4534   24.9005 C   0  0  0  0  0  0  0  0  0  0  0  0
  -20.1619  -32.8391   24.5099 C   0  0  0  0  0  0  0  0  0  0  0  0
  -19.7851  -30.0405   18.2731 C   0  0  0  0  0  0  0  0  0  0  0  0
  -29.4778  -21.1337   21.1577 C   0  0  0  0  0  0  0  0  0  0  0  0
  -27.1453  -25.3577   19.8845 C   0  0  0  0  0  0  0  0  0  1  0  0
  -21.0851  -31.0538   22.9761 C   0  0  1  0  0  0  0  0  0  0  0  0
  -18.4360  -30.5586   20.3103 C   0  0  2  0  0  0  0  0  0  0  0  0
  -27.6839  -19.0061   19.1353 C   0  0  1  0  0  0  0  0  0  0  0  0
  -20.6859  -31.3881   24.4411 C   0  0  0  0  0  0  0  0  0  0  0  0
  -25.9339  -11.6594   20.8372 N   0  0  0  0  0  0  0  0  0  0  0  0
  -26.4799  -12.5651   20.0079 N   0  0  0  0  0  0  0  0  0  0  0  0
  -23.3836  -31.2534   22.0812 N   0  0  0  0  0  0  0  0  0  0  0  0
  -30.1791  -13.3906   20.5147 N   0  0  0  0  0  0  0  0  0  0  0  0
  -30.3400  -15.6932   19.8870 N   0  0  0  0  0  0  0  0  0  0  0  0
  -25.9556  -14.4041   18.6102 N   0  0  0  0  0  0  0  0  0  0  0  0
  -21.9418  -13.1949   20.2905 N   0  0  0  0  0  0  0  0  0  0  0  0
  -25.5740  -33.3496   23.5569 N   0  0  0  0  0  0  0  0  0  0  0  0
  -19.9997  -31.2016   22.0125 N   0  0  0  0  0  0  0  0  0  0  0  0
  -18.5185  -29.8213   19.0177 N   0  3  0  0  0  0  0  0  0  0  0  0
  -23.0078  -14.6658   18.8910 O   0  0  0  0  0  0  0  0  0  0  0  0
  -25.8586  -31.0394   23.4915 O   0  0  0  0  0  0  0  0  0  0  0  0
  -22.0642  -33.1440   22.4293 O   0  0  0  0  0  0  0  0  0  0  0  0
  -20.0481  -29.0165   21.2379 O   0  0  0  0  0  0  0  0  0  0  0  0
  -32.0800  -14.2260   19.5101 O   0  0  0  0  0  0  0  0  0  0  0  0
  -20.9844   -9.0153   23.8472 O   0  0  0  0  0  0  0  0  0  0  0  0
  -26.0659  -25.8754   20.6526 O   0  0  0  0  0  0  0  0  0  1  0  0
  -27.1783  -19.7190   20.2576 O   0  0  0  0  0  0  0  0  0  0  0  0
  -21.4239   -3.5199   23.7400 F   0  0  0  0  0  0  0  0  0  0  0  0
  -18.8941   -7.4425   22.9531 F   0  0  0  0  0  0  0  0  0  0  0  0
  1  2  1  0  0  0  0
  1  5  2  0  0  0  0
  2  6  2  0  0  0  0
  3  8  2  0  0  0  0
  3 17  1  0  0  0  0
  4  9  1  0  0  0  0
  4 17  2  0  0  0  0
  5 19  1  0  0  0  0
  6 21  1  0  0  0  0
  7 10  2  0  0  0  0
  7 20  1  0  0  0  0
  8 26  1  0  0  0  0
  9 26  2  0  0  0  0
 10 27  1  0  0  0  0
 11 12  2  0  0  0  0
 11 28  1  0  0  0  0
 12 30  1  0  0  0  0
 13 22  1  0  0  0  0
 13 27  2  0  0  0  0
 14 23  1  0  0  0  0
 14 24  2  0  0  0  0
 15 23  2  0  0  0  0
 15 25  1  0  0  0  0
 16 30  2  0  0  0  0
 16 31  1  0  0  0  0
 17 32  1  0  0  0  0
 18 32  1  0  0  0  0
 18 33  2  0  0  0  0
 18 34  1  0  0  0  0
 19 21  2  0  0  0  0
 19 39  1  0  0  0  0
 20 22  2  0  0  0  0
 20 40  1  0  0  0  0
 21 52  1  0  0  0  0
 22 41  1  0  0  0  0
 23 65  1  0  0  0  0
 24 29  1  0  0  0  0
 24 56  1  0  0  0  0
 25 29  2  0  0  0  0
 25 64  1  0  0  0  0
 26 85  1  0  0  0  0
 27 86  1  0  0  0  0
 28 31  2  0  0  0  0
 28 85  1  0  0  0  0
 29 87  1  0  0  0  0
 30 88  1  0  0  0  0
 31 89  1  0  0  0  0
 32 70  2  0  0  0  0
 33 71  1  0  0  0  0
 33 75  1  0  0  0  0
 34 76  1  0  0  0  0
 34 80  2  0  0  0  0
 35 53  1  0  0  0  0
 35 77  1  0  0  0  0
 35 81  2  0  0  0  0
 36 66  1  0  0  0  0
 36 72  1  0  0  0  0
 36 82  2  0  0  0  0
 37 67  1  0  0  0  0
 37 78  1  0  0  0  0
 37 83  2  0  0  0  0
 38 73  1  0  0  0  0
 38 74  1  0  0  0  0
 38 84  2  0  0  0  0
 39 42  1  0  0  0  0
 40 53  1  0  0  0  0
 41 72  1  0  0  0  0
 42 44  1  0  0  0  0
 43 45  1  0  0  0  0
 43 48  1  0  0  0  0
 44 52  1  0  0  0  0
 45 55  1  0  0  0  0
 46 49  1  0  0  0  0
 46 54  1  0  0  0  0
 47 50  1  0  0  0  0
 47 54  1  0  0  0  0
 48 73  1  0  0  0  0
 49 74  1  0  0  0  0
 50 74  1  0  0  0  0
 51 55  1  0  0  0  0
 51 73  1  0  0  0  0
 52 77  1  0  0  0  0
 53 72  1  0  0  0  0
 54 68  1  0  0  0  0
 55 71  1  0  0  0  0
 57 64  1  0  0  0  0
 58 67  1  0  0  0  0
 59 68  1  0  0  0  0
 60 69  1  0  0  0  0
 61 69  1  0  0  0  0
 62 69  1  0  0  0  0
 63 79  1  0  0  0  0
 65 86  1  0  0  0  0
 66 69  1  0  0  0  0
 66 78  1  0  0  0  0
 67 79  1  0  0  0  0
 68 87  1  0  0  0  0
 70 71  1  0  0  0  0
M  CHG  1  79   1
M  ISO  4  38 100  65 101  74 100  86 101
M  END
> <Batch ID>
0149

> <Smiles>
CCc1cc([101CH2:1][101O:1]c2ccc3c(c2)CN(C(=O)C(NC(=O)C(C)NC)C(C)(C)C)C(C(=O)NC2CCCc4ccccc42)C3)cc(C)c1OC(C)C1CC[100N:0]([100C:0](=O)N2CCCC(n3nc(-c4ccc(Oc5ccc(F)cc5F)cc4)c(C(N)=O)c3N)C2)CC1

> <Shape>
0.327

> <Color>
0.097

> <Negative vol penalty>
0.000

$$$$

  -OEChem-04052321383D

 88 96  0     1  0  0  0  0  0999 V2000
  -35.7293  -31.2390   24.5770 C   0  0  0  0  0  0  0  0  0  0  0  0
  -35.3934  -30.0451   23.9469 C   0  0  0  0  0  0  0  0  0  0  0  0
  -23.3051   -9.6905   19.9959 C   0  0  0  0  0  0  0  0  0  0  0  0
  -23.7879   -9.9256   22.3515 C   0  0  0  0  0  0  0  0  0  0  0  0
  -34.7253  -32.0837   25.0485 C   0  0  0  0  0  0  0  0  0  0  0  0
  -34.0530  -29.6946   23.7889 C   0  0  0  0  0  0  0  0  0  0  0  0
  -31.5705  -26.6639   19.0817 C   0  0  0  0  0  0  0  0  0  0  0  0
  -22.6175   -8.5049   20.2552 C   0  0  0  0  0  0  0  0  0  0  0  0
  -23.1003   -8.7400   22.6107 C   0  0  0  0  0  0  0  0  0  0  0  0
  -31.2270  -25.3243   18.9050 C   0  0  0  0  0  0  0  0  0  0  0  0
  -19.8858   -7.7417   22.9122 C   0  0  0  0  0  0  0  0  0  0  0  0
  -19.0010   -7.7300   23.9904 C   0  0  0  0  0  0  0  0  0  0  0  0
  -28.9557  -25.8290   19.5422 C   0  0  0  0  0  0  0  0  0  0  0  0
  -30.9385  -20.4354   22.6752 C   0  0  0  0  0  0  0  0  0  0  0  0
  -29.3981  -19.2027   21.2807 C   0  0  0  0  0  0  0  0  0  0  0  0
  -20.2767   -5.9540   25.0179 C   0  0  0  0  0  0  0  0  0  0  0  0
  -23.8904  -10.4008   21.0441 C   0  0  0  0  0  0  0  0  0  0  0  0
  -24.0706  -12.9291   20.7556 C   0  0  0  0  0  0  0  0  0  0  0  0
  -33.3717  -31.7479   24.8876 C   0  0  0  0  0  0  0  0  0  0  0  0
  -30.6101  -27.5956   19.5012 C   0  0  0  0  0  0  0  0  0  0  0  0
  -33.0299  -30.5349   24.2599 C   0  0  0  0  0  0  0  0  0  0  0  0
  -29.2890  -27.1803   19.7210 C   0  0  0  0  0  0  0  0  0  0  0  0
  -31.0457  -19.3368   23.5280 C   0  0  0  0  0  0  0  0  0  0  0  0
  -29.5054  -18.1041   22.1334 C   0  0  0  0  0  0  0  0  0  0  0  0
  -30.3292  -18.1711   23.2570 C   0  0  0  0  0  0  0  0  0  0  0  0
  -22.5151   -8.0297   21.5626 C   0  0  0  0  0  0  0  0  0  0  0  0
  -29.9201  -24.9061   19.1381 C   0  0  0  0  0  0  0  0  0  0  0  0
  -20.9660   -6.8595   22.8867 C   0  0  0  0  0  0  0  0  0  0  0  0
  -30.1146  -20.3684   21.5516 C   0  0  0  0  0  0  0  0  0  0  0  0
  -19.1965   -6.8362   25.0433 C   0  0  0  0  0  0  0  0  0  0  0  0
  -21.1615   -5.9657   23.9396 C   0  0  0  0  0  0  0  0  0  0  0  0
  -24.6012  -11.6253   20.7768 C   0  0  0  0  0  0  0  0  0  0  0  0
  -25.1441  -13.7318   20.4563 C   0  0  0  0  0  0  0  0  0  0  0  0
  -22.7275  -13.3746   20.9860 C   0  0  0  0  0  0  0  0  0  0  0  0
  -30.2722  -29.4813   22.0377 C   0  0  0  0  0  0  0  0  0  0  0  0
  -27.7275  -30.6103   20.3729 C   0  0  0  0  0  0  0  0  0  0  0  0
  -25.3606  -30.0645   17.9756 C   0  0  0  0  0  0  0  0  0  0  0  0
  -31.0497  -13.0908   21.2074 C   0  0  0  0  0  0  0  0  0  0  0  0
  -32.3225  -32.6703   25.4559 C   0  0  0  0  0  0  0  0  0  0  0  0
  -30.9905  -29.0420   19.6614 C   0  0  0  0  0  0  0  0  0  0  0  0
  -28.2160  -28.1449   20.1530 C   0  0  0  0  0  0  0  0  0  0  0  0
  -30.9200  -32.4041   24.9151 C   0  0  0  0  0  0  0  0  0  0  0  0
  -29.3323  -13.6755   18.1439 C   0  0  0  0  0  0  0  0  0  0  0  0
  -30.6128  -30.9102   24.9402 C   0  0  0  0  0  0  0  0  0  0  0  0
  -27.8771  -13.3340   18.4694 C   0  0  0  0  0  0  0  0  0  0  0  0
  -30.3053  -12.7489   18.8696 C   0  0  0  0  0  0  0  0  0  0  0  0
  -28.6594  -12.3302   20.6555 C   0  0  0  0  0  0  0  0  0  0  0  0
  -31.5868  -30.1316   24.0476 C   0  0  1  0  0  0  0  0  0  0  0  0
  -30.0511  -29.8079   20.5879 C   0  0  1  0  0  0  0  0  0  0  0  0
  -27.6422  -13.2734   19.9907 C   0  0  2  0  0  0  0  0  0  0  0  0
  -31.9359  -19.4347   24.7234 C   0  0  0  0  0  0  0  0  0  0  0  0
  -28.7264  -16.8681   21.8226 C   0  0  0  0  0  0  0  0  0  0  0  0
  -32.3723  -10.9704   23.7919 C   0  0  0  0  0  0  0  0  0  0  0  0
  -23.3946  -31.1578   16.8635 C   0  0  0  0  0  0  0  0  0  0  0  0
  -26.0234  -30.0515   22.8414 C   0  0  0  0  0  0  0  0  0  0  0  0
  -23.9888  -30.2488   21.3958 C   0  0  0  0  0  0  0  0  0  0  0  0
  -25.5070  -32.2072   21.6835 C   0  0  0  0  0  0  0  0  0  0  0  0
  -26.6604  -29.9644   15.3186 C   0  0  0  0  0  0  0  0  0  0  0  0
  -30.4441  -16.9934   24.1720 C   0  0  0  0  0  0  0  0  0  0  0  0
  -31.8777  -12.2073   24.5313 C   0  0  0  0  0  0  0  0  0  0  0  0
  -31.1384  -14.6047   24.3975 C   0  0  0  0  0  0  0  0  0  0  0  0
  -28.5311  -23.0874   19.7854 C   0  0  0  0  0  0  0  0  0  1  0  0
  -28.7705  -21.6106   20.0331 C   0  0  0  0  0  0  0  0  0  0  0  0
  -26.2653  -30.2469   20.2784 C   0  0  1  0  0  0  0  0  0  0  0  0
  -24.8948  -30.9152   16.8078 C   0  0  2  0  0  0  0  0  0  0  0  0
  -31.6420  -13.4035   23.5971 C   0  0  2  0  0  0  0  0  0  0  0  0
  -25.4665  -30.6698   21.5435 C   0  0  0  0  0  0  0  0  0  0  0  0
  -25.9101  -11.5969   20.5119 N   0  0  0  0  0  0  0  0  0  0  0  0
  -26.2109  -12.8928   20.3213 N   0  0  0  0  0  0  0  0  0  0  0  0
  -28.6388  -29.5472   20.3020 N   0  0  0  0  0  0  0  0  0  0  0  0
  -30.0298  -12.7380   20.3083 N   0  0  0  0  0  0  0  0  0  0  0  0
  -25.2702  -15.0665   20.2980 N   0  0  0  0  0  0  0  0  0  0  0  0
  -21.7474  -12.4173   21.2817 N   0  0  0  0  0  0  0  0  0  0  0  0
  -31.2205  -30.2746   22.6549 N   0  0  0  0  0  0  0  0  0  0  0  0
  -25.7768  -30.8390   19.0377 N   0  0  0  0  0  0  0  0  0  0  0  0
  -30.7028  -13.0604   22.5526 N   0  0  0  0  0  0  0  0  0  0  0  0
  -25.2146  -30.2426   15.5170 N   0  3  0  0  0  0  0  0  0  0  0  0
  -30.9613  -15.7737   23.4960 N   0  3  0  0  0  0  0  0  0  0  0  0
  -22.4026  -14.5842   20.9151 O   0  0  0  0  0  0  0  0  0  0  0  0
  -29.6290  -28.5775   22.5584 O   0  0  0  0  0  0  0  0  0  0  0  0
  -28.0494  -31.7945   20.4975 O   0  0  0  0  0  0  0  0  0  0  0  0
  -25.3522  -28.8358   17.9497 O   0  0  0  0  0  0  0  0  0  0  0  0
  -32.1838  -13.4144   20.8384 O   0  0  0  0  0  0  0  0  0  0  0  0
  -21.8440   -6.8729   21.8160 O   0  0  0  0  0  0  0  0  0  0  0  0
  -29.5822  -23.5990   18.9670 O   0  0  0  0  0  0  0  0  0  1  0  0
  -30.0079  -21.4485   20.7155 O   0  0  0  0  0  0  0  0  0  0  0  0
  -18.3476   -6.8261   26.0794 F   0  0  0  0  0  0  0  0  0  0  0  0
  -22.1981   -5.1167   23.9214 F   0  0  0  0  0  0  0  0  0  0  0  0
  1  2  1  0  0  0  0
  1  5  2  0  0  0  0
  2  6  2  0  0  0  0
  3  8  2  0  0  0  0
  3 17  1  0  0  0  0
  4  9  1  0  0  0  0
  4 17  2  0  0  0  0
  5 19  1  0  0  0  0
  6 21  1  0  0  0  0
  7 10  2  0  0  0  0
  7 20  1  0  0  0  0
  8 26  1  0  0  0  0
  9 26  2  0  0  0  0
 10 27  1  0  0  0  0
 11 12  2  0  0  0  0
 11 28  1  0  0  0  0
 12 30  1  0  0  0  0
 13 22  1  0  0  0  0
 13 27  2  0  0  0  0
 14 23  2  0  0  0  0
 14 29  1  0  0  0  0
 15 24  1  0  0  0  0
 15 29  2  0  0  0  0
 16 30  2  0  0  0  0
 16 31  1  0  0  0  0
 17 32  1  0  0  0  0
 18 32  1  0  0  0  0
 18 33  2  0  0  0  0
 18 34  1  0  0  0  0
 19 21  2  0  0  0  0
 19 39  1  0  0  0  0
 20 22  2  0  0  0  0
 20 40  1  0  0  0  0
 21 48  1  0  0  0  0
 22 41  1  0  0  0  0
 23 25  1  0  0  0  0
 23 51  1  0  0  0  0
 24 25  2  0  0  0  0
 24 52  1  0  0  0  0
 25 59  1  0  0  0  0
 26 84  1  0  0  0  0
 27 85  1  0  0  0  0
 28 31  2  0  0  0  0
 28 84  1  0  0  0  0
 29 86  1  0  0  0  0
 30 87  1  0  0  0  0
 31 88  1  0  0  0  0
 32 68  2  0  0  0  0
 33 69  1  0  0  0  0
 33 72  1  0  0  0  0
 34 73  1  0  0  0  0
 34 79  2  0  0  0  0
 35 49  1  0  0  0  0
 35 74  1  0  0  0  0
 35 80  2  0  0  0  0
 36 64  1  0  0  0  0
 36 70  1  0  0  0  0
 36 81  2  0  0  0  0
 37 65  1  0  0  0  0
 37 75  1  0  0  0  0
 37 82  2  0  0  0  0
 38 71  1  0  0  0  0
 38 76  1  0  0  0  0
 38 83  2  0  0  0  0
 39 42  1  0  0  0  0
 40 49  1  0  0  0  0
 41 70  1  0  0  0  0
 42 44  1  0  0  0  0
 43 45  1  0  0  0  0
 43 46  1  0  0  0  0
 44 48  1  0  0  0  0
 45 50  1  0  0  0  0
 46 71  1  0  0  0  0
 47 50  1  0  0  0  0
 47 71  1  0  0  0  0
 48 74  1  0  0  0  0
 49 70  1  0  0  0  0
 50 69  1  0  0  0  0
 53 60  1  0  0  0  0
 54 65  1  0  0  0  0
 55 67  1  0  0  0  0
 56 67  1  0  0  0  0
 57 67  1  0  0  0  0
 58 77  1  0  0  0  0
 59 78  1  0  0  0  0
 60 66  1  0  0  0  0
 61 66  1  0  0  0  0
 61 78  1  0  0  0  0
 62 63  1  0  0  0  0
 62 85  1  0  0  0  0
 63 86  1  0  0  0  0
 64 67  1  0  0  0  0
 64 75  1  0  0  0  0
 65 77  1  0  0  0  0
 66 76  1  0  0  0  0
 68 69  1  0  0  0  0
M  CHG  2  77   1  78   1
M  ISO  4  38 100  62 101  76 100  85 101
M  END
> <Batch ID>
0149

> <Smiles>
CCC(CNCc1c(C)cc(OC[101CH2:1][101O:1]c2ccc3c(c2)CN(C(=O)C(NC(=O)C(C)NC)C(C)(C)C)C(C(=O)NC2CCCc4ccccc42)C3)cc1C)[100NH:0][100C:0](=O)N1CCCC(n2nc(-c3ccc(Oc4ccc(F)cc4F)cc3)c(C(N)=O)c2N)C1

> <Shape>
0.281

> <Color>
0.177

> <Negative vol penalty>
0.000

$$$$

  -OEChem-04052321383D

 88 97  0     1  0  0  0  0  0999 V2000
  -21.7665  -18.3945   22.2546 C   0  0  0  0  0  0  0  0  0  0  0  0
  -22.8403  -19.2789   22.2395 C   0  0  0  0  0  0  0  0  0  0  0  0
  -23.0602   -9.7881   19.9641 C   0  0  0  0  0  0  0  0  0  0  0  0
  -23.7344   -9.9031   22.2812 C   0  0  0  0  0  0  0  0  0  0  0  0
  -20.5319  -18.7901   21.7413 C   0  0  0  0  0  0  0  0  0  0  0  0
  -22.6805  -20.5590   21.7101 C   0  0  0  0  0  0  0  0  0  0  0  0
  -24.7596  -24.1402   24.6251 C   0  0  0  0  0  0  0  0  0  0  0  0
  -22.3082   -8.6460   20.2395 C   0  0  0  0  0  0  0  0  0  0  0  0
  -22.9824   -8.7610   22.5567 C   0  0  0  0  0  0  0  0  0  0  0  0
  -26.1437  -24.2926   24.5568 C   0  0  0  0  0  0  0  0  0  0  0  0
  -23.2957   -5.4175   22.1653 C   0  0  0  0  0  0  0  0  0  0  0  0
  -23.8847   -4.4280   22.9524 C   0  0  0  0  0  0  0  0  0  0  0  0
  -29.5998  -19.3263   22.1770 C   0  0  0  0  0  0  0  0  0  0  0  0
  -25.8571  -26.1802   23.0823 C   0  0  0  0  0  0  0  0  0  0  0  0
  -31.1066  -17.6358   20.5476 C   0  0  0  0  0  0  0  0  0  0  0  0
  -22.1210   -4.6766   24.5848 C   0  0  0  0  0  0  0  0  0  0  0  0
  -23.7733  -10.4166   20.9849 C   0  0  0  0  0  0  0  0  0  0  0  0
  -24.1179  -12.9342   20.7606 C   0  0  0  0  0  0  0  0  0  0  0  0
  -20.3543  -20.0790   21.2142 C   0  0  0  0  0  0  0  0  0  0  0  0
  -23.9127  -25.0014   23.9126 C   0  0  0  0  0  0  0  0  0  0  0  0
  -21.4428  -20.9716   21.1881 C   0  0  0  0  0  0  0  0  0  0  0  0
  -30.5372  -19.8620   21.2939 C   0  0  0  0  0  0  0  0  0  0  0  0
  -24.4625  -26.0382   23.1452 C   0  0  0  0  0  0  0  0  0  0  0  0
  -31.2905  -19.0169   20.4792 C   0  0  0  0  0  0  0  0  0  0  0  0
  -29.4159  -17.9452   22.2455 C   0  0  0  0  0  0  0  0  0  0  0  0
  -30.1692  -17.1000   21.4308 C   0  0  0  0  0  0  0  0  0  0  0  0
  -22.2693   -8.1325   21.5359 C   0  0  0  0  0  0  0  0  0  0  0  0
  -26.6928  -25.3109   23.7830 C   0  0  0  0  0  0  0  0  0  0  0  0
  -22.1194   -6.0366   22.5880 C   0  0  0  0  0  0  0  0  0  0  0  0
  -23.2974   -4.0575   24.1621 C   0  0  0  0  0  0  0  0  0  0  0  0
  -21.5321   -5.6661   23.7977 C   0  0  0  0  0  0  0  0  0  0  0  0
  -24.5508  -11.5960   20.7009 C   0  0  0  0  0  0  0  0  0  0  0  0
  -25.2224  -13.6686   20.4037 C   0  0  0  0  0  0  0  0  0  0  0  0
  -22.8325  -13.4660   21.1078 C   0  0  0  0  0  0  0  0  0  0  0  0
  -21.7742  -24.6297   21.5904 C   0  0  0  0  0  0  0  0  0  0  0  0
  -21.2065  -27.7756   22.1412 C   0  0  0  0  0  0  0  0  0  0  0  0
  -22.3573  -30.7642   23.3203 C   0  0  0  0  0  0  0  0  0  0  0  0
  -30.6777  -14.7337   20.7321 C   0  0  0  0  0  0  0  0  0  0  0  0
  -19.0140  -20.4450   20.6276 C   0  0  0  0  0  0  0  0  0  0  0  0
  -22.4209  -24.8403   24.0180 C   0  0  0  0  0  0  0  0  0  0  0  0
  -23.5962  -27.0018   22.3775 C   0  0  0  0  0  0  0  0  0  0  0  0
  -18.8267  -21.9466   20.4265 C   0  0  0  0  0  0  0  0  0  0  0  0
  -29.6534  -12.2101   18.4387 C   0  0  0  0  0  0  0  0  0  0  0  0
  -20.0593  -22.5543   19.7645 C   0  0  0  0  0  0  0  0  0  0  0  0
  -28.1990  -11.9355   18.8277 C   0  0  0  0  0  0  0  0  0  0  0  0
  -29.4067  -22.0247   20.8118 C   0  0  0  0  0  0  0  0  0  0  0  0
  -31.1811  -21.8753   22.6051 C   0  0  0  0  0  0  0  0  0  0  0  0
  -30.5231  -12.4965   19.6616 C   0  0  0  0  0  0  0  0  0  0  0  0
  -28.5658  -13.2798   20.9361 C   0  0  0  0  0  0  0  0  0  0  0  0
  -29.5340  -23.5426   20.8260 C   0  0  0  0  0  0  0  0  0  0  0  0
  -31.2950  -23.3944   22.6053 C   0  0  0  0  0  0  0  0  0  0  0  0
  -30.7177  -21.3448   21.2388 C   0  0  0  0  0  0  0  0  0  0  0  0
  -21.3022  -22.3771   20.6449 C   0  0  1  0  0  0  0  0  0  0  0  0
  -21.6690  -25.4550   22.8416 C   0  0  1  0  0  0  0  0  0  0  0  0
  -27.6375  -13.0499   19.7323 C   0  0  2  0  0  0  0  0  0  0  0  0
  -32.3007  -19.5678   19.5268 C   0  0  0  0  0  0  0  0  0  0  0  0
  -21.6789  -33.1638   23.6020 C   0  0  0  0  0  0  0  0  0  0  0  0
  -21.6558  -28.2500   19.1608 C   0  0  0  0  0  0  0  0  0  0  0  0
  -21.9103  -30.6904   19.6586 C   0  0  0  0  0  0  0  0  0  0  0  0
  -19.7524  -29.5380   20.1468 C   0  0  0  0  0  0  0  0  0  0  0  0
  -27.2839  -18.1384   23.5273 C   0  0  0  0  0  0  0  0  0  0  0  0
  -22.6321  -30.6173   26.2634 C   0  0  0  0  0  0  0  0  0  0  0  0
  -29.9909  -25.4976   22.3038 C   0  0  0  0  0  0  0  0  0  0  0  0
  -28.5759  -26.0026   22.5058 C   0  0  0  0  0  0  0  0  0  1  0  0
  -21.7640  -29.0723   21.6058 C   0  0  1  0  0  0  0  0  0  0  0  0
  -21.7317  -31.7887   24.2495 C   0  0  2  0  0  0  0  0  0  0  0  0
  -21.2873  -29.3685   20.1558 C   0  0  0  0  0  0  0  0  0  0  0  0
  -25.8304  -11.4838   20.3347 N   0  0  0  0  0  0  0  0  0  0  0  0
  -26.2110  -12.7609   20.1610 N   0  0  0  0  0  0  0  0  0  0  0  0
  -22.1438  -26.7993   22.5075 N   0  0  0  0  0  0  0  0  0  0  0  0
  -29.9314  -13.5656   20.4688 N   0  0  0  0  0  0  0  0  0  0  0  0
  -25.4346  -14.9957   20.2768 N   0  0  0  0  0  0  0  0  0  0  0  0
  -21.8093  -12.5711   21.4491 N   0  0  0  0  0  0  0  0  0  0  0  0
  -29.9999  -15.6942   21.4822 N   0  0  0  0  0  0  0  0  0  0  0  0
  -28.4614  -17.4238   23.1473 N   0  0  0  0  0  0  0  0  0  0  0  0
  -21.2976  -23.3397   21.7256 N   0  0  0  0  0  0  0  0  0  0  0  0
  -21.4049  -30.1020   22.5749 N   0  0  0  0  0  0  0  0  0  0  0  0
  -29.9724  -24.0167   22.1987 N   0  3  0  0  0  0  0  0  0  0  0  0
  -22.5188  -31.8931   25.5107 N   0  3  0  0  0  0  0  0  0  0  0  0
  -22.5936  -14.6974   21.0991 O   0  0  0  0  0  0  0  0  0  0  0  0
  -22.2512  -25.1269   20.5770 O   0  0  0  0  0  0  0  0  0  0  0  0
  -19.9846  -27.6368   22.2377 O   0  0  0  0  0  0  0  0  0  0  0  0
  -23.5699  -30.5733   23.2591 O   0  0  0  0  0  0  0  0  0  0  0  0
  -31.8233  -14.8832   20.2993 O   0  0  0  0  0  0  0  0  0  0  0  0
  -21.5354   -7.0183   21.8051 O   0  0  0  0  0  0  0  0  0  0  0  0
  -28.0435  -25.4614   23.7141 O   0  0  0  0  0  0  0  0  0  1  0  0
  -23.8623   -3.1061   24.9171 F   0  0  0  0  0  0  0  0  0  0  0  0
  -20.4013   -6.2565   24.2084 F   0  0  0  0  0  0  0  0  0  0  0  0
  1  2  1  0  0  0  0
  1  5  2  0  0  0  0
  2  6  2  0  0  0  0
  3  8  2  0  0  0  0
  3 17  1  0  0  0  0
  4  9  1  0  0  0  0
  4 17  2  0  0  0  0
  5 19  1  0  0  0  0
  6 21  1  0  0  0  0
  7 10  2  0  0  0  0
  7 20  1  0  0  0  0
  8 27  1  0  0  0  0
  9 27  2  0  0  0  0
 10 28  1  0  0  0  0
 11 12  2  0  0  0  0
 11 29  1  0  0  0  0
 12 30  1  0  0  0  0
 13 22  2  0  0  0  0
 13 25  1  0  0  0  0
 14 23  1  0  0  0  0
 14 28  2  0  0  0  0
 15 24  2  0  0  0  0
 15 26  1  0  0  0  0
 16 30  2  0  0  0  0
 16 31  1  0  0  0  0
 17 32  1  0  0  0  0
 18 32  1  0  0  0  0
 18 33  2  0  0  0  0
 18 34  1  0  0  0  0
 19 21  2  0  0  0  0
 19 39  1  0  0  0  0
 20 23  2  0  0  0  0
 20 40  1  0  0  0  0
 21 53  1  0  0  0  0
 22 24  1  0  0  0  0
 22 52  1  0  0  0  0
 23 41  1  0  0  0  0
 24 56  1  0  0  0  0
 25 26  2  0  0  0  0
 25 75  1  0  0  0  0
 26 74  1  0  0  0  0
 27 85  1  0  0  0  0
 28 86  1  0  0  0  0
 29 31  2  0  0  0  0
 29 85  1  0  0  0  0
 30 87  1  0  0  0  0
 31 88  1  0  0  0  0
 32 68  2  0  0  0  0
 33 69  1  0  0  0  0
 33 72  1  0  0  0  0
 34 73  1  0  0  0  0
 34 80  2  0  0  0  0
 35 54  1  0  0  0  0
 35 76  1  0  0  0  0
 35 81  2  0  0  0  0
 36 65  1  0  0  0  0
 36 70  1  0  0  0  0
 36 82  2  0  0  0  0
 37 66  1  0  0  0  0
 37 77  1  0  0  0  0
 37 83  2  0  0  0  0
 38 71  1  0  0  0  0
 38 74  1  0  0  0  0
 38 84  2  0  0  0  0
 39 42  1  0  0  0  0
 40 54  1  0  0  0  0
 41 70  1  0  0  0  0
 42 44  1  0  0  0  0
 43 45  1  0  0  0  0
 43 48  1  0  0  0  0
 44 53  1  0  0  0  0
 45 55  1  0  0  0  0
 46 50  1  0  0  0  0
 46 52  1  0  0  0  0
 47 51  1  0  0  0  0
 47 52  1  0  0  0  0
 48 71  1  0  0  0  0
 49 55  1  0  0  0  0
 49 71  1  0  0  0  0
 50 78  1  0  0  0  0
 51 78  1  0  0  0  0
 53 76  1  0  0  0  0
 54 70  1  0  0  0  0
 55 69  1  0  0  0  0
 57 66  1  0  0  0  0
 58 67  1  0  0  0  0
 59 67  1  0  0  0  0
 60 67  1  0  0  0  0
 61 75  1  0  0  0  0
 62 79  1  0  0  0  0
 63 64  1  0  0  0  0
 63 78  1  0  0  0  0
 64 86  1  0  0  0  0
 65 67  1  0  0  0  0
 65 77  1  0  0  0  0
 66 79  1  0  0  0  0
 68 69  1  0  0  0  0
M  CHG  2  78   1  79   1
M  ISO  4  38 100  64 101  74 100  86 101
M  END
> <Batch ID>
0149

> <Smiles>
CNc1cc(C2CCN(C[101CH2:1][101O:1]c3ccc4c(c3)CN(C(=O)C(NC(=O)C(C)NC)C(C)(C)C)C(C(=O)NC3CCCc5ccccc53)C4)CC2)c(C)cc1[100NH:0][100C:0](=O)N1CCCC(n2nc(-c3ccc(Oc4ccc(F)cc4F)cc3)c(C(N)=O)c2N)C1

> <Shape>
0.257

> <Color>
0.204

> <Negative vol penalty>
0.000

$$$$

  -OEChem-04052321383D

 87 96  0     1  0  0  0  0  0999 V2000
  -29.3251  -37.0427   22.9027 C   0  0  0  0  0  0  0  0  0  0  0  0
  -29.4664  -36.0617   21.9265 C   0  0  0  0  0  0  0  0  0  0  0  0
  -23.7661   -8.1421   16.9221 C   0  0  0  0  0  0  0  0  0  0  0  0
  -25.4242   -6.7908   18.0453 C   0  0  0  0  0  0  0  0  0  0  0  0
  -28.8016  -36.7113   24.1517 C   0  0  0  0  0  0  0  0  0  0  0  0
  -29.0853  -34.7484   22.1991 C   0  0  0  0  0  0  0  0  0  0  0  0
  -26.3416  -28.9538   19.0034 C   0  0  0  0  0  0  0  0  0  0  0  0
  -23.8973   -7.3533   15.7793 C   0  0  0  0  0  0  0  0  0  0  0  0
  -25.5554   -6.0019   16.9024 C   0  0  0  0  0  0  0  0  0  0  0  0
  -26.5968  -27.5934   18.8368 C   0  0  0  0  0  0  0  0  0  0  0  0
  -27.0995   -6.2016   13.9013 C   0  0  0  0  0  0  0  0  0  0  0  0
  -28.3898   -5.8774   13.4824 C   0  0  0  0  0  0  0  0  0  0  0  0
  -25.6310  -27.1530   21.0030 C   0  0  0  0  0  0  0  0  0  0  0  0
  -26.4211  -22.7143   17.6491 C   0  0  0  0  0  0  0  0  0  0  0  0
  -27.8832   -3.5291   13.7395 C   0  0  0  0  0  0  0  0  0  0  0  0
  -24.5295   -7.8609   18.0551 C   0  0  0  0  0  0  0  0  0  0  0  0
  -23.5059   -8.4768   20.3092 C   0  0  0  0  0  0  0  0  0  0  0  0
  -28.4048  -35.3952   24.4365 C   0  0  0  0  0  0  0  0  0  0  0  0
  -25.7381  -29.4262   20.1778 C   0  0  0  0  0  0  0  0  0  0  0  0
  -28.5572  -34.3988   23.4535 C   0  0  0  0  0  0  0  0  0  0  0  0
  -25.3669  -28.5197   21.1810 C   0  0  0  0  0  0  0  0  0  0  0  0
  -27.2753  -23.4761   18.4463 C   0  0  0  0  0  0  0  0  0  0  0  0
  -26.5494  -21.3256   17.6183 C   0  0  0  0  0  0  0  0  0  0  0  0
  -28.2579  -22.8494   19.2127 C   0  0  0  0  0  0  0  0  0  0  0  0
  -28.3863  -21.4607   19.1819 C   0  0  0  0  0  0  0  0  0  0  0  0
  -27.5321  -20.6989   18.3847 C   0  0  0  0  0  0  0  0  0  0  0  0
  -24.7920   -6.2832   15.7694 C   0  0  0  0  0  0  0  0  0  0  0  0
  -26.2441  -26.6931   19.8379 C   0  0  0  0  0  0  0  0  0  0  0  0
  -26.2010   -5.1896   14.2394 C   0  0  0  0  0  0  0  0  0  0  0  0
  -28.7817   -4.5411   13.4014 C   0  0  0  0  0  0  0  0  0  0  0  0
  -26.5929   -3.8534   14.1585 C   0  0  0  0  0  0  0  0  0  0  0  0
  -24.3948   -8.6757   19.2358 C   0  0  0  0  0  0  0  0  0  0  0  0
  -23.7694   -9.5141   21.1700 C   0  0  0  0  0  0  0  0  0  0  0  0
  -22.5294   -7.4464   20.5101 C   0  0  0  0  0  0  0  0  0  0  0  0
  -26.6089  -31.4049   22.5080 C   0  0  0  0  0  0  0  0  0  0  0  0
  -23.5510  -30.9632   23.4962 C   0  0  0  0  0  0  0  0  0  0  0  0
  -20.7642  -28.9932   23.5025 C   0  0  0  0  0  0  0  0  0  0  0  0
  -25.8054  -14.8779   20.4818 C   0  0  0  0  0  0  0  0  0  0  0  0
  -27.8883  -35.0753   25.8169 C   0  0  0  0  0  0  0  0  0  0  0  0
  -25.4452  -30.8936   20.3307 C   0  0  0  0  0  0  0  0  0  0  0  0
  -24.6981  -28.9735   22.4519 C   0  0  0  0  0  0  0  0  0  0  0  0
  -27.1597  -33.7364   25.8995 C   0  0  0  0  0  0  0  0  0  0  0  0
  -27.2816  -12.4501   22.5447 C   0  0  0  0  0  0  0  0  0  0  0  0
  -27.9612  -32.6479   25.1928 C   0  0  0  0  0  0  0  0  0  0  0  0
  -26.6176  -11.1723   22.0324 C   0  0  0  0  0  0  0  0  0  0  0  0
  -28.2158  -17.1379   19.2691 C   0  0  0  0  0  0  0  0  0  0  0  0
  -26.0368  -18.2751   19.8408 C   0  0  0  0  0  0  0  0  0  0  0  0
  -27.6477  -13.4024   21.4048 C   0  0  0  0  0  0  0  0  0  0  0  0
  -27.9906  -16.1620   20.4277 C   0  0  0  0  0  0  0  0  0  0  0  0
  -25.8694  -17.2981   21.0013 C   0  0  0  0  0  0  0  0  0  0  0  0
  -25.8521  -12.4496   19.9954 C   0  0  0  0  0  0  0  0  0  0  0  0
  -28.1320  -32.9680   23.7029 C   0  0  1  0  0  0  0  0  0  0  0  0
  -25.2934  -31.3240   21.7864 C   0  0  1  0  0  0  0  0  0  0  0  0
  -25.4200  -11.4987   21.1224 C   0  0  1  0  0  0  0  0  0  0  0  0
  -27.5198  -18.4779   19.5192 C   0  0  0  0  0  0  0  0  0  0  0  0
  -25.6197  -20.5362   16.7549 C   0  0  0  0  0  0  0  0  0  0  0  0
  -29.1726  -23.6696   20.0664 C   0  0  0  0  0  0  0  0  0  0  0  0
  -29.4423  -20.7920   20.0055 C   0  0  0  0  0  0  0  0  0  0  0  0
  -18.4351  -28.8784   24.4296 C   0  0  0  0  0  0  0  0  0  0  0  0
  -24.6771  -30.1807   26.2219 C   0  0  0  0  0  0  0  0  0  0  0  0
  -22.4479  -29.1869   26.7799 C   0  0  0  0  0  0  0  0  0  0  0  0
  -22.6406  -31.6295   26.3114 C   0  0  0  0  0  0  0  0  0  0  0  0
  -19.5634  -28.9839   20.7976 C   0  0  0  0  0  0  0  0  0  0  0  0
  -27.1170  -24.9614   18.4612 C   0  0  0  0  0  0  0  0  0  1  0  0
  -22.8527  -29.9815   24.4059 C   0  0  1  0  0  0  0  0  0  0  0  0
  -19.3012  -29.3170   23.2591 C   0  0  2  0  0  0  0  0  0  0  0  0
  -23.1689  -30.2360   25.9068 C   0  0  0  0  0  0  0  0  0  0  0  0
  -25.1653   -9.7547   19.3977 N   0  0  0  0  0  0  0  0  0  0  0  0
  -24.7612  -10.2431   20.5827 N   0  0  0  0  0  0  0  0  0  0  0  0
  -24.4386  -30.4188   22.5572 N   0  0  0  0  0  0  0  0  0  0  0  0
  -26.4849  -13.6520   20.5416 N   0  0  0  0  0  0  0  0  0  0  0  0
  -26.5578  -16.0355   20.7308 N   0  0  0  0  0  0  0  0  0  0  0  0
  -23.2470   -9.8646   22.3644 N   0  0  0  0  0  0  0  0  0  0  0  0
  -22.3890   -6.4579   19.5264 N   0  0  0  0  0  0  0  0  0  0  0  0
  -27.6582  -19.3214   18.3525 N   0  0  0  0  0  0  0  0  0  0  0  0
  -26.9156  -32.6674   22.9787 N   0  0  0  0  0  0  0  0  0  0  0  0
  -21.4341  -30.0547   24.0734 N   0  0  0  0  0  0  0  0  0  0  0  0
  -18.8155  -28.6271   22.0306 N   0  3  0  0  0  0  0  0  0  0  0  0
  -21.7915   -7.4128   21.5239 O   0  0  0  0  0  0  0  0  0  0  0  0
  -27.2941  -30.3963   22.6300 O   0  0  0  0  0  0  0  0  0  0  0  0
  -23.3121  -32.1681   23.6096 O   0  0  0  0  0  0  0  0  0  0  0  0
  -21.2621  -27.9061   23.2184 O   0  0  0  0  0  0  0  0  0  0  0  0
  -24.5972  -14.9351   20.2211 O   0  0  0  0  0  0  0  0  0  0  0  0
  -24.9201   -5.5131   14.6545 O   0  0  0  0  0  0  0  0  0  0  0  0
  -26.4945  -25.3552   19.6770 O   0  0  0  0  0  0  0  0  0  1  0  0
  -30.0203   -4.2298   12.9976 F   0  0  0  0  0  0  0  0  0  0  0  0
  -25.7338   -2.8768   14.4809 F   0  0  0  0  0  0  0  0  0  0  0  0
  1  2  1  0  0  0  0
  1  5  2  0  0  0  0
  2  6  2  0  0  0  0
  3  8  2  0  0  0  0
  3 16  1  0  0  0  0
  4  9  1  0  0  0  0
  4 16  2  0  0  0  0
  5 18  1  0  0  0  0
  6 20  1  0  0  0  0
  7 10  2  0  0  0  0
  7 19  1  0  0  0  0
  8 27  1  0  0  0  0
  9 27  2  0  0  0  0
 10 28  1  0  0  0  0
 11 12  2  0  0  0  0
 11 29  1  0  0  0  0
 12 30  1  0  0  0  0
 13 21  1  0  0  0  0
 13 28  2  0  0  0  0
 14 22  1  0  0  0  0
 14 23  2  0  0  0  0
 15 30  2  0  0  0  0
 15 31  1  0  0  0  0
 16 32  1  0  0  0  0
 17 32  1  0  0  0  0
 17 33  2  0  0  0  0
 17 34  1  0  0  0  0
 18 20  2  0  0  0  0
 18 39  1  0  0  0  0
 19 21  2  0  0  0  0
 19 40  1  0  0  0  0
 20 52  1  0  0  0  0
 21 41  1  0  0  0  0
 22 24  2  0  0  0  0
 22 64  1  0  0  0  0
 23 26  1  0  0  0  0
 23 56  1  0  0  0  0
 24 25  1  0  0  0  0
 24 57  1  0  0  0  0
 25 26  2  0  0  0  0
 25 58  1  0  0  0  0
 26 75  1  0  0  0  0
 27 84  1  0  0  0  0
 28 85  1  0  0  0  0
 29 31  2  0  0  0  0
 29 84  1  0  0  0  0
 30 86  1  0  0  0  0
 31 87  1  0  0  0  0
 32 68  2  0  0  0  0
 33 69  1  0  0  0  0
 33 73  1  0  0  0  0
 34 74  1  0  0  0  0
 34 79  2  0  0  0  0
 35 53  1  0  0  0  0
 35 76  1  0  0  0  0
 35 80  2  0  0  0  0
 36 65  1  0  0  0  0
 36 70  1  0  0  0  0
 36 81  2  0  0  0  0
 37 66  1  0  0  0  0
 37 77  1  0  0  0  0
 37 82  2  0  0  0  0
 38 71  1  0  0  0  0
 38 72  1  0  0  0  0
 38 83  2  0  0  0  0
 39 42  1  0  0  0  0
 40 53  1  0  0  0  0
 41 70  1  0  0  0  0
 42 44  1  0  0  0  0
 43 45  1  0  0  0  0
 43 48  1  0  0  0  0
 44 52  1  0  0  0  0
 45 54  1  0  0  0  0
 46 49  1  0  0  0  0
 46 55  1  0  0  0  0
 47 50  1  0  0  0  0
 47 55  1  0  0  0  0
 48 71  1  0  0  0  0
 49 72  1  0  0  0  0
 50 72  1  0  0  0  0
 51 54  1  0  0  0  0
 51 71  1  0  0  0  0
 52 76  1  0  0  0  0
 53 70  1  0  0  0  0
 54 69  1  0  0  0  0
 55 75  1  0  0  0  0
 59 66  1  0  0  0  0
 60 67  1  0  0  0  0
 61 67  1  0  0  0  0
 62 67  1  0  0  0  0
 63 78  1  0  0  0  0
 64 85  1  0  0  0  0
 65 67  1  0  0  0  0
 65 77  1  0  0  0  0
 66 78  1  0  0  0  0
 68 69  1  0  0  0  0
M  CHG  1  78   1
M  ISO  4  38 100  64 101  72 100  85 101
M  END
> <Batch ID>
0149

> <Smiles>
CNC(C)C(=O)NC(C(=O)N1Cc2cc([101O:1][101CH2:1]c3cc(C)c(NC4CC[100N:0]([100C:0](=O)N5CCCC(n6nc(-c7ccc(Oc8ccc(F)cc8F)cc7)c(C(N)=O)c6N)C5)CC4)c(C)c3C)ccc2CC1C(=O)NC1CCCc2ccccc21)C(C)(C)C

> <Shape>
0.237

> <Color>
0.079

> <Negative vol penalty>
0.000

$$$$

  -OEChem-04052321383D

 84 93  0     1  0  0  0  0  0999 V2000
  -22.4095  -11.0621   20.1656 C   0  0  0  0  0  0  0  0  0  0  0  0
  -21.9848  -12.2665   20.7172 C   0  0  0  0  0  0  0  0  0  0  0  0
  -27.6893  -23.5737   22.5708 C   0  0  0  0  0  0  0  0  0  0  0  0
  -28.2913  -24.2566   24.8087 C   0  0  0  0  0  0  0  0  0  0  0  0
  -23.7692  -10.8318   19.9599 C   0  0  0  0  0  0  0  0  0  0  0  0
  -22.9197  -13.2411   21.0645 C   0  0  0  0  0  0  0  0  0  0  0  0
  -21.1302  -26.8466   23.6832 C   0  0  0  0  0  0  0  0  0  0  0  0
  -22.2123  -19.3139   20.7083 C   0  0  0  0  0  0  0  0  0  0  0  0
  -21.2681  -28.2293   23.5625 C   0  0  0  0  0  0  0  0  0  0  0  0
  -27.5581  -22.2558   23.0082 C   0  0  0  0  0  0  0  0  0  0  0  0
  -28.1601  -22.9386   25.2462 C   0  0  0  0  0  0  0  0  0  0  0  0
  -21.8797  -20.2769   21.6601 C   0  0  0  0  0  0  0  0  0  0  0  0
  -25.6539  -20.8313   26.0822 C   0  0  0  0  0  0  0  0  0  0  0  0
  -24.9677  -20.6118   27.2765 C   0  0  0  0  0  0  0  0  0  0  0  0
  -24.2217  -20.7517   21.9895 C   0  0  0  0  0  0  0  0  0  0  0  0
  -20.1951  -28.1476   21.3994 C   0  0  0  0  0  0  0  0  0  0  0  0
  -26.9438  -19.5957   28.2252 C   0  0  0  0  0  0  0  0  0  0  0  0
  -28.0560  -24.5742   23.4710 C   0  0  0  0  0  0  0  0  0  0  0  0
  -29.0697  -26.4197   22.0309 C   0  0  0  0  0  0  0  0  0  0  0  0
  -24.7205  -11.8079   20.2958 C   0  0  0  0  0  0  0  0  0  0  0  0
  -23.5549  -19.0545   20.3975 C   0  0  0  0  0  0  0  0  0  0  0  0
  -24.2935  -13.0232   20.8643 C   0  0  0  0  0  0  0  0  0  0  0  0
  -20.5248  -26.1143   22.6619 C   0  0  0  0  0  0  0  0  0  0  0  0
  -24.5687  -19.7867   21.0317 C   0  0  0  0  0  0  0  0  0  0  0  0
  -20.8006  -28.8799   22.4207 C   0  0  0  0  0  0  0  0  0  0  0  0
  -20.0573  -26.7649   21.5200 C   0  0  0  0  0  0  0  0  0  0  0  0
  -27.7934  -21.9382   24.3459 C   0  0  0  0  0  0  0  0  0  0  0  0
  -22.8845  -20.9939   22.3029 C   0  0  0  0  0  0  0  0  0  0  0  0
  -26.9851  -20.4330   25.9593 C   0  0  0  0  0  0  0  0  0  0  0  0
  -25.6126  -19.9941   28.3481 C   0  0  0  0  0  0  0  0  0  0  0  0
  -27.6300  -19.8152   27.0308 C   0  0  0  0  0  0  0  0  0  0  0  0
  -28.1923  -25.9357   23.0196 C   0  0  0  0  0  0  0  0  0  0  0  0
  -28.8135  -27.7679   21.9746 C   0  0  0  0  0  0  0  0  0  0  0  0
  -30.0304  -25.7137   21.2344 C   0  0  0  0  0  0  0  0  0  0  0  0
  -25.4608  -16.5208   20.6244 C   0  0  0  0  0  0  0  0  0  0  0  0
  -27.5511  -18.4394   19.0522 C   0  0  0  0  0  0  0  0  0  0  0  0
  -28.5455  -21.6070   18.2623 C   0  0  0  0  0  0  0  0  0  0  0  0
  -24.0129  -31.0672   23.3602 C   0  0  0  0  0  0  0  0  0  0  0  0
  -26.1826  -11.4948   20.0988 C   0  0  0  0  0  0  0  0  0  0  0  0
  -23.8962  -18.0313   19.3491 C   0  0  0  0  0  0  0  0  0  0  0  0
  -26.0245  -19.5604   20.7190 C   0  0  0  0  0  0  0  0  0  0  0  0
  -27.0814  -12.7277   20.1468 C   0  0  0  0  0  0  0  0  0  0  0  0
  -27.2998  -31.4081   24.6855 C   0  0  0  0  0  0  0  0  0  0  0  0
  -26.7182  -13.6070   21.3392 C   0  0  0  0  0  0  0  0  0  0  0  0
  -27.9804  -30.0879   24.3196 C   0  0  0  0  0  0  0  0  0  0  0  0
  -21.2169  -23.6130   21.8986 C   0  0  0  0  0  0  0  0  0  0  0  0
  -21.0913  -23.8372   24.0082 C   0  0  0  0  0  0  0  0  0  0  0  0
  -25.8284  -31.2052   25.0399 C   0  0  0  0  0  0  0  0  0  0  0  0
  -25.7191  -29.1702   23.6540 C   0  0  0  0  0  0  0  0  0  0  0  0
  -20.3787  -24.5449   22.8200 C   0  0  0  0  0  0  0  0  0  0  0  0
  -25.2753  -14.1148   21.2310 C   0  0  1  0  0  0  0  0  0  0  0  0
  -25.3154  -17.4882   19.4839 C   0  0  1  0  0  0  0  0  0  0  0  0
  -27.1904  -29.3315   23.2347 C   0  0  2  0  0  0  0  0  0  0  0  0
  -21.3105  -22.6225   23.0802 C   0  0  0  0  0  0  0  0  0  1  0  0
  -19.4064  -25.9994   20.4157 C   0  0  0  0  0  0  0  0  0  0  0  0
  -30.3104  -22.8582   16.9906 C   0  0  0  0  0  0  0  0  0  0  0  0
  -29.5581  -17.8657   21.2777 C   0  0  0  0  0  0  0  0  0  0  0  0
  -30.8941  -19.8285   20.4837 C   0  0  0  0  0  0  0  0  0  0  0  0
  -30.5303  -17.8767   18.9735 C   0  0  0  0  0  0  0  0  0  0  0  0
  -26.5411  -22.8467   16.4723 C   0  0  0  0  0  0  0  0  0  0  0  0
  -20.9482  -30.3583   22.2921 C   0  0  0  0  0  0  0  0  0  0  0  0
  -22.2602  -30.7890   21.6253 C   0  0  0  0  0  0  0  0  0  0  0  0
  -28.6043  -19.4387   19.4661 C   0  0  1  0  0  0  0  0  0  0  0  0
  -28.9202  -22.2440   16.9363 C   0  0  2  0  0  0  0  0  0  0  0  0
  -29.8694  -18.7555   20.0578 C   0  0  0  0  0  0  0  0  0  0  0  0
  -27.4354  -26.8982   23.5532 N   0  0  0  0  0  0  0  0  0  0  0  0
  -27.8365  -28.0005   22.8974 N   0  0  0  0  0  0  0  0  0  0  0  0
  -26.3077  -18.5449   19.6913 N   0  0  0  0  0  0  0  0  0  0  0  0
  -25.1358  -30.4836   23.9696 N   0  0  0  0  0  0  0  0  0  0  0  0
  -29.3309  -28.7653   21.2263 N   0  0  0  0  0  0  0  0  0  0  0  0
  -31.3374  -25.5839   21.7233 N   0  0  0  0  0  0  0  0  0  0  0  0
  -25.1938  -15.2079   20.2860 N   0  0  0  0  0  0  0  0  0  0  0  0
  -28.8652  -20.2661   18.2933 N   0  0  0  0  0  0  0  0  0  0  0  0
  -23.4197  -30.3194   22.3505 N   0  0  0  0  0  0  0  0  0  0  0  0
  -27.9465  -23.3154   16.5828 N   0  3  0  0  0  0  0  0  0  0  0  0
  -29.7426  -25.2270   20.1147 O   0  0  0  0  0  0  0  0  0  0  0  0
  -25.7922  -16.9346   21.7292 O   0  0  0  0  0  0  0  0  0  0  0  0
  -27.8195  -17.6007   18.1884 O   0  0  0  0  0  0  0  0  0  0  0  0
  -28.0250  -22.2369   19.1804 O   0  0  0  0  0  0  0  0  0  0  0  0
  -23.5748  -32.1753   23.6878 O   0  0  0  0  0  0  0  0  0  0  0  0
  -27.6652  -20.6523   24.7732 O   0  0  0  0  0  0  0  0  0  0  0  0
  -22.5625  -21.9340   23.2327 O   0  0  0  0  0  0  0  0  0  1  0  0
  -24.9539  -19.7847   29.4955 F   0  0  0  0  0  0  0  0  0  0  0  0
  -28.9091  -19.4314   26.9191 F   0  0  0  0  0  0  0  0  0  0  0  0
  1  2  1  0  0  0  0
  1  5  2  0  0  0  0
  2  6  2  0  0  0  0
  3 10  2  0  0  0  0
  3 18  1  0  0  0  0
  4 11  1  0  0  0  0
  4 18  2  0  0  0  0
  5 20  1  0  0  0  0
  6 22  1  0  0  0  0
  7  9  2  0  0  0  0
  7 23  1  0  0  0  0
  8 12  2  0  0  0  0
  8 21  1  0  0  0  0
  9 25  1  0  0  0  0
 10 27  1  0  0  0  0
 11 27  2  0  0  0  0
 12 28  1  0  0  0  0
 13 14  2  0  0  0  0
 13 29  1  0  0  0  0
 14 30  1  0  0  0  0
 15 24  1  0  0  0  0
 15 28  2  0  0  0  0
 16 25  2  0  0  0  0
 16 26  1  0  0  0  0
 17 30  2  0  0  0  0
 17 31  1  0  0  0  0
 18 32  1  0  0  0  0
 19 32  1  0  0  0  0
 19 33  2  0  0  0  0
 19 34  1  0  0  0  0
 20 22  2  0  0  0  0
 20 39  1  0  0  0  0
 21 24  2  0  0  0  0
 21 40  1  0  0  0  0
 22 51  1  0  0  0  0
 23 26  2  0  0  0  0
 23 50  1  0  0  0  0
 24 41  1  0  0  0  0
 25 61  1  0  0  0  0
 26 55  1  0  0  0  0
 27 81  1  0  0  0  0
 28 82  1  0  0  0  0
 29 31  2  0  0  0  0
 29 81  1  0  0  0  0
 30 83  1  0  0  0  0
 31 84  1  0  0  0  0
 32 66  2  0  0  0  0
 33 67  1  0  0  0  0
 33 70  1  0  0  0  0
 34 71  1  0  0  0  0
 34 76  2  0  0  0  0
 35 52  1  0  0  0  0
 35 72  1  0  0  0  0
 35 77  2  0  0  0  0
 36 63  1  0  0  0  0
 36 68  1  0  0  0  0
 36 78  2  0  0  0  0
 37 64  1  0  0  0  0
 37 73  1  0  0  0  0
 37 79  2  0  0  0  0
 38 69  1  0  0  0  0
 38 74  1  0  0  0  0
 38 80  2  0  0  0  0
 39 42  1  0  0  0  0
 40 52  1  0  0  0  0
 41 68  1  0  0  0  0
 42 44  1  0  0  0  0
 43 45  1  0  0  0  0
 43 48  1  0  0  0  0
 44 51  1  0  0  0  0
 45 53  1  0  0  0  0
 46 50  1  0  0  0  0
 46 54  1  0  0  0  0
 47 50  1  0  0  0  0
 47 54  1  0  0  0  0
 48 69  1  0  0  0  0
 49 53  1  0  0  0  0
 49 69  1  0  0  0  0
 51 72  1  0  0  0  0
 52 68  1  0  0  0  0
 53 67  1  0  0  0  0
 54 82  1  0  0  0  0
 56 64  1  0  0  0  0
 57 65  1  0  0  0  0
 58 65  1  0  0  0  0
 59 65  1  0  0  0  0
 60 75  1  0  0  0  0
 61 62  1  0  0  0  0
 62 74  1  0  0  0  0
 63 65  1  0  0  0  0
 63 73  1  0  0  0  0
 64 75  1  0  0  0  0
 66 67  1  0  0  0  0
M  CHG  1  75   1
M  ISO  4  38 100  54 101  74 100  82 101
M  END
> <Batch ID>
0149

> <Smiles>
CNC(C)C(=O)NC(C(=O)N1Cc2cc([101O:1][101CH:1]3CC(c4ccc(CC[100NH:0][100C:0](=O)N5CCCC(n6nc(-c7ccc(Oc8ccc(F)cc8F)cc7)c(C(N)=O)c6N)C5)cc4C)C3)ccc2CC1C(=O)NC1CCCc2ccccc21)C(C)(C)C

> <Shape>
0.225

> <Color>
0.065

> <Negative vol penalty>
0.000

$$$$

  -OEChem-04052321383D

 89 98  0     1  0  0  0  0  0999 V2000
  -21.7688  -18.3356   22.2848 C   0  0  0  0  0  0  0  0  0  0  0  0
  -22.8331  -19.2313   22.2641 C   0  0  0  0  0  0  0  0  0  0  0  0
  -23.1229   -9.7646   19.9650 C   0  0  0  0  0  0  0  0  0  0  0  0
  -23.8147   -9.8818   22.2769 C   0  0  0  0  0  0  0  0  0  0  0  0
  -20.5263  -18.7193   21.7817 C   0  0  0  0  0  0  0  0  0  0  0  0
  -22.6557  -20.5110   21.7392 C   0  0  0  0  0  0  0  0  0  0  0  0
  -24.7182  -24.1068   24.6480 C   0  0  0  0  0  0  0  0  0  0  0  0
  -22.3824   -8.6162   20.2448 C   0  0  0  0  0  0  0  0  0  0  0  0
  -23.0741   -8.7334   22.5567 C   0  0  0  0  0  0  0  0  0  0  0  0
  -26.1001  -24.2741   24.5699 C   0  0  0  0  0  0  0  0  0  0  0  0
  -19.8369   -7.9302   23.1004 C   0  0  0  0  0  0  0  0  0  0  0  0
  -19.0461   -7.9349   24.2494 C   0  0  0  0  0  0  0  0  0  0  0  0
  -25.7826  -26.1622   23.1024 C   0  0  0  0  0  0  0  0  0  0  0  0
  -29.5924  -19.3455   22.1498 C   0  0  0  0  0  0  0  0  0  0  0  0
  -31.1082  -17.6847   20.4985 C   0  0  0  0  0  0  0  0  0  0  0  0
  -20.2825   -6.0451   25.1080 C   0  0  0  0  0  0  0  0  0  0  0  0
  -23.8392  -10.3974   20.9810 C   0  0  0  0  0  0  0  0  0  0  0  0
  -24.1617  -12.9180   20.7575 C   0  0  0  0  0  0  0  0  0  0  0  0
  -20.3312  -20.0075   21.2593 C   0  0  0  0  0  0  0  0  0  0  0  0
  -23.8570  -24.9607   23.9440 C   0  0  0  0  0  0  0  0  0  0  0  0
  -21.4099  -20.9118   21.2274 C   0  0  0  0  0  0  0  0  0  0  0  0
  -24.3900  -26.0052   23.1753 C   0  0  0  0  0  0  0  0  0  0  0  0
  -30.5160  -19.8987   21.2631 C   0  0  0  0  0  0  0  0  0  0  0  0
  -30.1846  -17.1314   21.3853 C   0  0  0  0  0  0  0  0  0  0  0  0
  -22.3579   -8.1006   21.5407 C   0  0  0  0  0  0  0  0  0  0  0  0
  -26.6326  -25.3001   23.7947 C   0  0  0  0  0  0  0  0  0  0  0  0
  -20.8505   -6.9830   22.9551 C   0  0  0  0  0  0  0  0  0  0  0  0
  -29.4267  -17.9618   22.2110 C   0  0  0  0  0  0  0  0  0  0  0  0
  -31.2739  -19.0684   20.4374 C   0  0  0  0  0  0  0  0  0  0  0  0
  -19.2689   -6.9924   25.2532 C   0  0  0  0  0  0  0  0  0  0  0  0
  -21.0733   -6.0405   23.9590 C   0  0  0  0  0  0  0  0  0  0  0  0
  -24.6048  -11.5834   20.6925 C   0  0  0  0  0  0  0  0  0  0  0  0
  -25.2574  -13.6617   20.3929 C   0  0  0  0  0  0  0  0  0  0  0  0
  -22.8749  -13.4390   21.1157 C   0  0  0  0  0  0  0  0  0  0  0  0
  -21.7054  -24.5721   21.6368 C   0  0  0  0  0  0  0  0  0  0  0  0
  -21.1084  -27.7104   22.1999 C   0  0  0  0  0  0  0  0  0  0  0  0
  -22.2361  -30.7081   23.3783 C   0  0  0  0  0  0  0  0  0  0  0  0
  -30.7064  -14.7702   20.6792 C   0  0  0  0  0  0  0  0  0  0  0  0
  -18.9826  -20.3608   20.6836 C   0  0  0  0  0  0  0  0  0  0  0  0
  -22.3678  -24.7835   24.0601 C   0  0  0  0  0  0  0  0  0  0  0  0
  -23.5079  -26.9616   22.4166 C   0  0  0  0  0  0  0  0  0  0  0  0
  -18.7780  -21.8608   20.4877 C   0  0  0  0  0  0  0  0  0  0  0  0
  -29.6841  -12.2416   18.3905 C   0  0  0  0  0  0  0  0  0  0  0  0
  -19.9991  -22.4833   19.8182 C   0  0  0  0  0  0  0  0  0  0  0  0
  -28.2351  -11.9548   18.7907 C   0  0  0  0  0  0  0  0  0  0  0  0
  -29.3592  -22.0504   20.7950 C   0  0  0  0  0  0  0  0  0  0  0  0
  -31.1483  -21.9154   22.5747 C   0  0  0  0  0  0  0  0  0  0  0  0
  -30.5612  -12.5333   19.6068 C   0  0  0  0  0  0  0  0  0  0  0  0
  -28.6079  -13.2991   20.8980 C   0  0  0  0  0  0  0  0  0  0  0  0
  -29.4703  -23.5696   20.8121 C   0  0  0  0  0  0  0  0  0  0  0  0
  -31.2460  -23.4356   22.5780 C   0  0  0  0  0  0  0  0  0  0  0  0
  -30.6804  -21.3835   21.2105 C   0  0  0  0  0  0  0  0  0  0  0  0
  -21.2503  -22.3170   20.6890 C   0  0  1  0  0  0  0  0  0  0  0  0
  -21.6007  -25.3931   22.8908 C   0  0  1  0  0  0  0  0  0  0  0  0
  -27.6719  -13.0634   19.7014 C   0  0  2  0  0  0  0  0  0  0  0  0
  -21.5344  -33.0996   23.6712 C   0  0  0  0  0  0  0  0  0  0  0  0
  -21.5306  -28.1970   19.2175 C   0  0  0  0  0  0  0  0  0  0  0  0
  -21.7628  -30.6388   19.7197 C   0  0  0  0  0  0  0  0  0  0  0  0
  -19.6209  -29.4623   20.2209 C   0  0  0  0  0  0  0  0  0  0  0  0
  -22.5343  -30.5568   26.3189 C   0  0  0  0  0  0  0  0  0  0  0  0
  -27.1883  -17.2616   22.6046 C   0  0  0  0  0  0  0  0  0  0  0  0
  -32.9122  -18.6696   18.7603 C   0  0  0  0  0  0  0  0  0  0  0  0
  -29.9175  -25.5256   22.2916 C   0  0  0  0  0  0  0  0  0  0  0  0
  -28.4987  -26.0150   22.5054 C   0  0  0  0  0  0  0  0  0  1  0  0
  -21.6481  -29.0143   21.6637 C   0  0  1  0  0  0  0  0  0  0  0  0
  -21.6066  -31.7236   24.3147 C   0  0  2  0  0  0  0  0  0  0  0  0
  -21.1575  -29.3091   20.2181 C   0  0  0  0  0  0  0  0  0  0  0  0
  -25.8823  -11.4820   20.3159 N   0  0  0  0  0  0  0  0  0  0  0  0
  -26.2513  -12.7623   20.1410 N   0  0  0  0  0  0  0  0  0  0  0  0
  -22.0587  -26.7433   22.5568 N   0  0  0  0  0  0  0  0  0  0  0  0
  -29.9674  -13.5965   20.4203 N   0  0  0  0  0  0  0  0  0  0  0  0
  -25.4579  -14.9907   20.2662 N   0  0  0  0  0  0  0  0  0  0  0  0
  -21.8616  -12.5354   21.4640 N   0  0  0  0  0  0  0  0  0  0  0  0
  -30.0269  -15.7242   21.4361 N   0  0  0  0  0  0  0  0  0  0  0  0
  -21.2435  -23.2768   21.7721 N   0  0  0  0  0  0  0  0  0  0  0  0
  -21.2854  -30.0377   22.6381 N   0  0  0  0  0  0  0  0  0  0  0  0
  -29.9139  -24.0449   22.1828 N   0  3  0  0  0  0  0  0  0  0  0  0
  -22.4019  -31.8331   25.5703 N   0  3  0  0  0  0  0  0  0  0  0  0
  -22.6260  -14.6684   21.1108 O   0  0  0  0  0  0  0  0  0  0  0  0
  -22.1695  -25.0769   20.6212 O   0  0  0  0  0  0  0  0  0  0  0  0
  -19.8888  -27.5584   22.3051 O   0  0  0  0  0  0  0  0  0  0  0  0
  -23.4502  -30.5303   23.3075 O   0  0  0  0  0  0  0  0  0  0  0  0
  -31.8473  -14.9295   20.2375 O   0  0  0  0  0  0  0  0  0  0  0  0
  -21.6352   -6.9801   21.8142 O   0  0  0  0  0  0  0  0  0  0  0  0
  -28.5191  -17.4408   23.0842 O   0  0  0  0  0  0  0  0  0  0  0  0
  -32.1812  -19.5917   19.5660 O   0  0  0  0  0  0  0  0  0  0  0  0
  -27.9811  -25.4652   23.7162 O   0  0  0  0  0  0  0  0  0  1  0  0
  -18.5104   -6.9979   26.3572 F   0  0  0  0  0  0  0  0  0  0  0  0
  -22.0463   -5.1287   23.8256 F   0  0  0  0  0  0  0  0  0  0  0  0
  1  2  1  0  0  0  0
  1  5  2  0  0  0  0
  2  6  2  0  0  0  0
  3  8  2  0  0  0  0
  3 17  1  0  0  0  0
  4  9  1  0  0  0  0
  4 17  2  0  0  0  0
  5 19  1  0  0  0  0
  6 21  1  0  0  0  0
  7 10  2  0  0  0  0
  7 20  1  0  0  0  0
  8 25  1  0  0  0  0
  9 25  2  0  0  0  0
 10 26  1  0  0  0  0
 11 12  2  0  0  0  0
 11 27  1  0  0  0  0
 12 30  1  0  0  0  0
 13 22  1  0  0  0  0
 13 26  2  0  0  0  0
 14 23  1  0  0  0  0
 14 28  2  0  0  0  0
 15 24  2  0  0  0  0
 15 29  1  0  0  0  0
 16 30  2  0  0  0  0
 16 31  1  0  0  0  0
 17 32  1  0  0  0  0
 18 32  1  0  0  0  0
 18 33  2  0  0  0  0
 18 34  1  0  0  0  0
 19 21  2  0  0  0  0
 19 39  1  0  0  0  0
 20 22  2  0  0  0  0
 20 40  1  0  0  0  0
 21 53  1  0  0  0  0
 22 41  1  0  0  0  0
 23 29  2  0  0  0  0
 23 52  1  0  0  0  0
 24 28  1  0  0  0  0
 24 74  1  0  0  0  0
 25 84  1  0  0  0  0
 26 87  1  0  0  0  0
 27 31  2  0  0  0  0
 27 84  1  0  0  0  0
 28 85  1  0  0  0  0
 29 86  1  0  0  0  0
 30 88  1  0  0  0  0
 31 89  1  0  0  0  0
 32 68  2  0  0  0  0
 33 69  1  0  0  0  0
 33 72  1  0  0  0  0
 34 73  1  0  0  0  0
 34 79  2  0  0  0  0
 35 54  1  0  0  0  0
 35 75  1  0  0  0  0
 35 80  2  0  0  0  0
 36 65  1  0  0  0  0
 36 70  1  0  0  0  0
 36 81  2  0  0  0  0
 37 66  1  0  0  0  0
 37 76  1  0  0  0  0
 37 82  2  0  0  0  0
 38 71  1  0  0  0  0
 38 74  1  0  0  0  0
 38 83  2  0  0  0  0
 39 42  1  0  0  0  0
 40 54  1  0  0  0  0
 41 70  1  0  0  0  0
 42 44  1  0  0  0  0
 43 45  1  0  0  0  0
 43 48  1  0  0  0  0
 44 53  1  0  0  0  0
 45 55  1  0  0  0  0
 46 50  1  0  0  0  0
 46 52  1  0  0  0  0
 47 51  1  0  0  0  0
 47 52  1  0  0  0  0
 48 71  1  0  0  0  0
 49 55  1  0  0  0  0
 49 71  1  0  0  0  0
 50 77  1  0  0  0  0
 51 77  1  0  0  0  0
 53 75  1  0  0  0  0
 54 70  1  0  0  0  0
 55 69  1  0  0  0  0
 56 66  1  0  0  0  0
 57 67  1  0  0  0  0
 58 67  1  0  0  0  0
 59 67  1  0  0  0  0
 60 78  1  0  0  0  0
 61 85  1  0  0  0  0
 62 86  1  0  0  0  0
 63 64  1  0  0  0  0
 63 77  1  0  0  0  0
 64 87  1  0  0  0  0
 65 67  1  0  0  0  0
 65 76  1  0  0  0  0
 66 78  1  0  0  0  0
 68 69  1  0  0  0  0
M  CHG  2  77   1  78   1
M  ISO  4  38 100  64 101  74 100  87 101
M  END
> <Batch ID>
0149

> <Smiles>
CNC(C)C(=O)NC(C(=O)N1Cc2cc([101O:1][101CH2:1]CN3CCC(c4cc(OC)c([100NH:0][100C:0](=O)N5CCCC(n6nc(-c7ccc(Oc8ccc(F)cc8F)cc7)c(C(N)=O)c6N)C5)cc4OC)CC3)ccc2CC1C(=O)NC1CCCc2ccccc21)C(C)(C)C

> <Shape>
0.251

> <Color>
0.194

> <Negative vol penalty>
0.000

$$$$

  -OEChem-04052321383D

 87 96  0     1  0  0  0  0  0999 V2000
  -28.9232  -37.6920   20.7391 C   0  0  0  0  0  0  0  0  0  0  0  0
  -29.2249  -36.3575   20.4872 C   0  0  0  0  0  0  0  0  0  0  0  0
  -24.4373   -9.0489   21.7754 C   0  0  0  0  0  0  0  0  0  0  0  0
  -23.9873   -8.4990   19.4662 C   0  0  0  0  0  0  0  0  0  0  0  0
  -27.9661  -38.0201   21.6984 C   0  0  0  0  0  0  0  0  0  0  0  0
  -28.5705  -35.3502   21.1954 C   0  0  0  0  0  0  0  0  0  0  0  0
  -26.9657  -29.8237   19.1006 C   0  0  0  0  0  0  0  0  0  0  0  0
  -23.3373   -8.2879   22.1710 C   0  0  0  0  0  0  0  0  0  0  0  0
  -22.8873   -7.7379   19.8618 C   0  0  0  0  0  0  0  0  0  0  0  0
  -27.5600  -28.5678   19.2163 C   0  0  0  0  0  0  0  0  0  0  0  0
  -22.6034   -5.0184   22.6239 C   0  0  0  0  0  0  0  0  0  0  0  0
  -22.7673   -4.1576   23.7091 C   0  0  0  0  0  0  0  0  0  0  0  0
  -26.1298  -28.0706   21.0941 C   0  0  0  0  0  0  0  0  0  0  0  0
  -21.0263   -5.3321   24.9036 C   0  0  0  0  0  0  0  0  0  0  0  0
  -24.7622   -9.1545   20.4230 C   0  0  0  0  0  0  0  0  0  0  0  0
  -27.2261   -9.5002   19.8596 C   0  0  0  0  0  0  0  0  0  0  0  0
  -27.2926  -37.0160   22.4118 C   0  0  0  0  0  0  0  0  0  0  0  0
  -25.9548  -30.2173   19.9891 C   0  0  0  0  0  0  0  0  0  0  0  0
  -27.6044  -35.6652   22.1661 C   0  0  0  0  0  0  0  0  0  0  0  0
  -25.5224  -29.3310   20.9860 C   0  0  0  0  0  0  0  0  0  0  0  0
  -30.0662  -24.4698   20.7261 C   0  0  0  0  0  0  0  0  0  0  0  0
  -29.2378  -24.7536   19.6461 C   0  0  0  0  0  0  0  0  0  0  0  0
  -30.5058  -23.1672   20.9345 C   0  0  0  0  0  0  0  0  0  0  0  0
  -22.5623   -7.6324   21.2143 C   0  0  0  0  0  0  0  0  0  0  0  0
  -27.1441  -27.6922   20.2150 C   0  0  0  0  0  0  0  0  0  0  0  0
  -21.6511   -6.0362   22.6785 C   0  0  0  0  0  0  0  0  0  0  0  0
  -21.9787   -4.3144   24.8489 C   0  0  0  0  0  0  0  0  0  0  0  0
  -20.8625   -6.1930   23.8183 C   0  0  0  0  0  0  0  0  0  0  0  0
  -25.8981   -9.9409   20.0136 C   0  0  0  0  0  0  0  0  0  0  0  0
  -28.8804  -23.7078   18.8104 C   0  0  0  0  0  0  0  0  0  0  0  0
  -30.0916  -22.1924   20.0412 C   0  0  0  0  0  0  0  0  0  0  0  0
  -27.9147  -10.6187   19.4581 C   0  0  0  0  0  0  0  0  0  0  0  0
  -27.7872   -8.1962   20.0612 C   0  0  0  0  0  0  0  0  0  0  0  0
  -25.6344  -32.5393   22.1361 C   0  0  0  0  0  0  0  0  0  0  0  0
  -22.6049  -31.3986   22.3429 C   0  0  0  0  0  0  0  0  0  0  0  0
  -20.4606  -28.7778   21.9183 C   0  0  0  0  0  0  0  0  0  0  0  0
  -29.1784  -15.8249   19.7807 C   0  0  0  0  0  0  0  0  0  0  0  0
  -26.2998  -37.4207   23.4726 C   0  0  0  0  0  0  0  0  0  0  0  0
  -25.3053  -31.5651   19.8343 C   0  0  0  0  0  0  0  0  0  0  0  0
  -24.4269  -29.6977   21.9523 C   0  0  0  0  0  0  0  0  0  0  0  0
  -25.3821  -36.2834   23.9137 C   0  0  0  0  0  0  0  0  0  0  0  0
  -26.2663  -15.1461   17.9401 C   0  0  0  0  0  0  0  0  0  0  0  0
  -26.1897  -35.0153   24.1716 C   0  0  0  0  0  0  0  0  0  0  0  0
  -26.0115  -13.6836   18.3038 C   0  0  0  0  0  0  0  0  0  0  0  0
  -28.7447  -19.3173   19.7215 C   0  0  0  0  0  0  0  0  0  0  0  0
  -31.1721  -18.6493   19.5500 C   0  0  0  0  0  0  0  0  0  0  0  0
  -26.7285  -15.9647   19.1469 C   0  0  0  0  0  0  0  0  0  0  0  0
  -28.3621  -18.0669   18.9241 C   0  0  0  0  0  0  0  0  0  0  0  0
  -30.7454  -17.4317   18.7348 C   0  0  0  0  0  0  0  0  0  0  0  0
  -27.6443  -13.9286   20.2119 C   0  0  0  0  0  0  0  0  0  0  0  0
  -26.8981  -34.5434   22.8961 C   0  0  1  0  0  0  0  0  0  0  0  0
  -24.6413  -32.0592   21.1158 C   0  0  1  0  0  0  0  0  0  0  0  0
  -27.2346  -13.0681   19.0067 C   0  0  1  0  0  0  0  0  0  0  0  0
  -30.1617  -19.7874   19.3845 C   0  0  0  0  0  0  0  0  0  0  0  0
  -30.4830  -25.5623   21.6585 C   0  0  0  0  0  0  0  0  0  0  0  0
  -31.3953  -22.8405   22.0884 C   0  0  0  0  0  0  0  0  0  0  0  0
  -27.9925  -23.9512   17.6341 C   0  0  0  0  0  0  0  0  0  0  0  0
  -18.0518  -28.1364   22.2082 C   0  0  0  0  0  0  0  0  0  0  0  0
  -23.0324  -31.1635   25.3549 C   0  0  0  0  0  0  0  0  0  0  0  0
  -21.0236  -29.6724   25.4533 C   0  0  0  0  0  0  0  0  0  0  0  0
  -20.7856  -32.0337   24.6849 C   0  0  0  0  0  0  0  0  0  0  0  0
  -20.1372  -28.2334   19.0273 C   0  0  0  0  0  0  0  0  0  0  0  0
  -28.7502  -26.1414   19.3957 C   0  0  0  0  0  0  0  0  0  1  0  0
  -21.9130  -30.3470   23.1763 C   0  0  1  0  0  0  0  0  0  0  0  0
  -19.0990  -28.6879   21.2532 C   0  0  2  0  0  0  0  0  0  0  0  0
  -21.7107  -30.7977   24.6505 C   0  0  0  0  0  0  0  0  0  0  0  0
  -25.7495  -11.2383   19.7331 N   0  0  0  0  0  0  0  0  0  0  0  0
  -29.2874  -22.4299   18.9807 N   0  0  0  0  0  0  0  0  0  0  0  0
  -26.9932  -11.6224   19.3988 N   0  0  0  0  0  0  0  0  0  0  0  0
  -23.8273  -31.0291   21.7641 N   0  0  0  0  0  0  0  0  0  0  0  0
  -27.8706  -15.3179   19.8078 N   0  0  0  0  0  0  0  0  0  0  0  0
  -29.3831  -17.0203   19.0756 N   0  0  0  0  0  0  0  0  0  0  0  0
  -29.2126  -10.8318   19.1537 N   0  0  0  0  0  0  0  0  0  0  0  0
  -26.9383   -7.1602   20.4741 N   0  0  0  0  0  0  0  0  0  0  0  0
  -30.5228  -20.8934   20.2438 N   0  0  0  0  0  0  0  0  0  0  0  0
  -25.9629  -33.8761   22.0159 N   0  0  0  0  0  0  0  0  0  0  0  0
  -20.6755  -30.0203   22.4761 N   0  0  0  0  0  0  0  0  0  0  0  0
  -19.1630  -27.7967   20.0604 N   0  3  0  0  0  0  0  0  0  0  0  0
  -29.0082   -7.9606   19.8964 O   0  0  0  0  0  0  0  0  0  0  0  0
  -26.0693  -31.7552   22.9715 O   0  0  0  0  0  0  0  0  0  0  0  0
  -22.0766  -32.5047   22.2045 O   0  0  0  0  0  0  0  0  0  0  0  0
  -21.2527  -27.8384   21.9441 O   0  0  0  0  0  0  0  0  0  0  0  0
  -30.1089  -15.2439   20.3531 O   0  0  0  0  0  0  0  0  0  0  0  0
  -21.4891   -6.8895   21.6000 O   0  0  0  0  0  0  0  0  0  0  0  0
  -27.7270  -26.4575   20.3313 O   0  0  0  0  0  0  0  0  0  1  0  0
  -22.1351   -3.4867   25.8904 F   0  0  0  0  0  0  0  0  0  0  0  0
  -19.9451   -7.1681   23.8762 F   0  0  0  0  0  0  0  0  0  0  0  0
  1  2  1  0  0  0  0
  1  5  2  0  0  0  0
  2  6  2  0  0  0  0
  3  8  2  0  0  0  0
  3 15  1  0  0  0  0
  4  9  1  0  0  0  0
  4 15  2  0  0  0  0
  5 17  1  0  0  0  0
  6 19  1  0  0  0  0
  7 10  2  0  0  0  0
  7 18  1  0  0  0  0
  8 24  1  0  0  0  0
  9 24  2  0  0  0  0
 10 25  1  0  0  0  0
 11 12  2  0  0  0  0
 11 26  1  0  0  0  0
 12 27  1  0  0  0  0
 13 20  1  0  0  0  0
 13 25  2  0  0  0  0
 14 27  2  0  0  0  0
 14 28  1  0  0  0  0
 15 29  1  0  0  0  0
 16 29  1  0  0  0  0
 16 32  2  0  0  0  0
 16 33  1  0  0  0  0
 17 19  2  0  0  0  0
 17 38  1  0  0  0  0
 18 20  2  0  0  0  0
 18 39  1  0  0  0  0
 19 51  1  0  0  0  0
 20 40  1  0  0  0  0
 21 22  2  0  0  0  0
 21 23  1  0  0  0  0
 21 55  1  0  0  0  0
 22 30  1  0  0  0  0
 22 63  1  0  0  0  0
 23 31  2  0  0  0  0
 23 56  1  0  0  0  0
 24 84  1  0  0  0  0
 25 85  1  0  0  0  0
 26 28  2  0  0  0  0
 26 84  1  0  0  0  0
 27 86  1  0  0  0  0
 28 87  1  0  0  0  0
 29 67  2  0  0  0  0
 30 57  1  0  0  0  0
 30 68  2  0  0  0  0
 31 68  1  0  0  0  0
 31 75  1  0  0  0  0
 32 69  1  0  0  0  0
 32 73  1  0  0  0  0
 33 74  1  0  0  0  0
 33 79  2  0  0  0  0
 34 52  1  0  0  0  0
 34 76  1  0  0  0  0
 34 80  2  0  0  0  0
 35 64  1  0  0  0  0
 35 70  1  0  0  0  0
 35 81  2  0  0  0  0
 36 65  1  0  0  0  0
 36 77  1  0  0  0  0
 36 82  2  0  0  0  0
 37 71  1  0  0  0  0
 37 72  1  0  0  0  0
 37 83  2  0  0  0  0
 38 41  1  0  0  0  0
 39 52  1  0  0  0  0
 40 70  1  0  0  0  0
 41 43  1  0  0  0  0
 42 44  1  0  0  0  0
 42 47  1  0  0  0  0
 43 51  1  0  0  0  0
 44 53  1  0  0  0  0
 45 48  1  0  0  0  0
 45 54  1  0  0  0  0
 46 49  1  0  0  0  0
 46 54  1  0  0  0  0
 47 71  1  0  0  0  0
 48 72  1  0  0  0  0
 49 72  1  0  0  0  0
 50 53  1  0  0  0  0
 50 71  1  0  0  0  0
 51 76  1  0  0  0  0
 52 70  1  0  0  0  0
 53 69  1  0  0  0  0
 54 75  1  0  0  0  0
 58 65  1  0  0  0  0
 59 66  1  0  0  0  0
 60 66  1  0  0  0  0
 61 66  1  0  0  0  0
 62 78  1  0  0  0  0
 63 85  1  0  0  0  0
 64 66  1  0  0  0  0
 64 77  1  0  0  0  0
 65 78  1  0  0  0  0
 67 69  1  0  0  0  0
M  CHG  1  78   1
M  ISO  4  37 100  63 101  72 100  85 101
M  END
> <Batch ID>
0149

> <Smiles>
CNC(C)C(=O)NC(C(=O)N1Cc2cc([101O:1][101CH2:1]c3c(C)nc(NC4CC[100N:0]([100C:0](=O)N5CCCC(n6nc(-c7ccc(Oc8ccc(F)cc8F)cc7)c(C(N)=O)c6N)C5)CC4)c(C)c3C)ccc2CC1C(=O)NC1CCCc2ccccc21)C(C)(C)C

> <Shape>
0.314

> <Color>
0.108

> <Negative vol penalty>
0.000

$$$$

  -OEChem-04052321383D

 87 96  0     1  0  0  0  0  0999 V2000
  -28.3651  -23.4502   14.8601 C   0  0  0  0  0  0  0  0  0  0  0  0
  -27.4367  -24.3725   15.3293 C   0  0  0  0  0  0  0  0  0  0  0  0
  -25.3385  -13.8661   21.5288 C   0  0  0  0  0  0  0  0  0  0  0  0
  -23.5124  -15.0666   20.4986 C   0  0  0  0  0  0  0  0  0  0  0  0
  -29.2948  -22.8951   15.7369 C   0  0  0  0  0  0  0  0  0  0  0  0
  -27.4451  -24.7489   16.6729 C   0  0  0  0  0  0  0  0  0  0  0  0
  -24.4241  -28.4017   17.9895 C   0  0  0  0  0  0  0  0  0  0  0  0
  -17.5731  -26.2610   21.9139 C   0  0  0  0  0  0  0  0  0  0  0  0
  -24.4823  -12.8000   21.8042 C   0  0  0  0  0  0  0  0  0  0  0  0
  -22.6562  -14.0003   20.7739 C   0  0  0  0  0  0  0  0  0  0  0  0
  -23.0405  -28.2461   18.0630 C   0  0  0  0  0  0  0  0  0  0  0  0
  -23.1256  -10.1972   20.1256 C   0  0  0  0  0  0  0  0  0  0  0  0
  -23.5859   -8.9090   19.8531 C   0  0  0  0  0  0  0  0  0  0  0  0
  -17.0093  -25.5126   22.9412 C   0  0  0  0  0  0  0  0  0  0  0  0
  -23.1875  -28.1282   20.4679 C   0  0  0  0  0  0  0  0  0  0  0  0
  -23.3213   -8.3218   22.1817 C   0  0  0  0  0  0  0  0  0  0  0  0
  -24.8535  -14.9995   20.8761 C   0  0  0  0  0  0  0  0  0  0  0  0
  -26.5148  -16.2906   19.4337 C   0  0  0  0  0  0  0  0  0  0  0  0
  -29.3059  -23.2560   17.0943 C   0  0  0  0  0  0  0  0  0  0  0  0
  -25.2022  -28.4108   19.1561 C   0  0  0  0  0  0  0  0  0  0  0  0
  -28.3908  -24.2178   17.5685 C   0  0  0  0  0  0  0  0  0  0  0  0
  -24.5804  -28.2867   20.4067 C   0  0  0  0  0  0  0  0  0  0  0  0
  -18.6321  -25.7377   21.1804 C   0  0  0  0  0  0  0  0  0  0  0  0
  -23.1412  -12.8670   21.4267 C   0  0  0  0  0  0  0  0  0  0  0  0
  -22.4223  -28.1065   19.3021 C   0  0  0  0  0  0  0  0  0  0  0  0
  -22.7631  -10.5477   21.4262 C   0  0  0  0  0  0  0  0  0  0  0  0
  -23.6838   -7.9713   20.8811 C   0  0  0  0  0  0  0  0  0  0  0  0
  -22.8610   -9.6100   22.4542 C   0  0  0  0  0  0  0  0  0  0  0  0
  -25.7373  -16.1014   20.5919 C   0  0  0  0  0  0  0  0  0  0  0  0
  -17.5366  -24.2563   23.1932 C   0  0  0  0  0  0  0  0  0  0  0  0
  -19.0869  -24.4715   21.5114 C   0  0  0  0  0  0  0  0  0  0  0  0
  -27.1713  -17.4774   19.6509 C   0  0  0  0  0  0  0  0  0  0  0  0
  -26.6331  -15.4673   18.2658 C   0  0  0  0  0  0  0  0  0  0  0  0
  -27.5345  -26.5859   20.3111 C   0  0  0  0  0  0  0  0  0  0  0  0
  -27.6489  -28.8666   22.6149 C   0  0  0  0  0  0  0  0  0  0  0  0
  -26.0383  -31.3453   24.3204 C   0  0  0  0  0  0  0  0  0  0  0  0
  -26.0717  -22.2564   22.8702 C   0  0  0  0  0  0  0  0  0  0  0  0
  -30.3390  -22.6301   17.9976 C   0  0  0  0  0  0  0  0  0  0  0  0
  -26.6905  -28.6064   19.0615 C   0  0  0  0  0  0  0  0  0  0  0  0
  -25.3685  -28.3103   21.6900 C   0  0  0  0  0  0  0  0  0  0  0  0
  -29.9875  -22.7519   19.4768 C   0  0  0  0  0  0  0  0  0  0  0  0
  -28.8669  -20.2424   23.1608 C   0  0  0  0  0  0  0  0  0  0  0  0
  -29.6145  -24.1897   19.8056 C   0  0  0  0  0  0  0  0  0  0  0  0
  -28.4711  -18.9638   22.4225 C   0  0  0  0  0  0  0  0  0  0  0  0
  -22.9794  -23.6995   21.4273 C   0  0  0  0  0  0  0  0  0  0  0  0
  -22.4726  -21.3929   22.3058 C   0  0  0  0  0  0  0  0  0  0  0  0
  -27.7058  -20.7732   23.9940 C   0  0  0  0  0  0  0  0  0  0  0  0
  -24.1896  -23.7666   22.3548 C   0  0  0  0  0  0  0  0  0  0  0  0
  -23.6881  -21.5056   23.2200 C   0  0  0  0  0  0  0  0  0  0  0  0
  -26.0542  -19.7549   22.4608 C   0  0  0  0  0  0  0  0  0  0  0  0
  -28.3614  -24.6194   19.0322 C   0  0  1  0  0  0  0  0  0  0  0  0
  -27.4405  -28.0853   20.2835 C   0  0  1  0  0  0  0  0  0  0  0  0
  -21.8886  -22.7751   21.9836 C   0  0  0  0  0  0  0  0  0  0  0  0
  -27.1916  -19.1775   21.5943 C   0  0  2  0  0  0  0  0  0  0  0  0
  -16.9566  -23.4254   24.2885 C   0  0  0  0  0  0  0  0  0  0  0  0
  -26.3783  -33.0042   26.1724 C   0  0  0  0  0  0  0  0  0  0  0  0
  -27.3606  -26.6288   24.6690 C   0  0  0  0  0  0  0  0  0  0  0  0
  -26.7571  -28.3632   26.3707 C   0  0  0  0  0  0  0  0  0  0  0  0
  -29.0045  -28.4086   25.2891 C   0  0  0  0  0  0  0  0  0  0  0  0
  -25.5708  -33.6385   22.5089 C   0  0  0  0  0  0  0  0  0  0  0  0
  -19.2331  -26.5434   20.0790 C   0  0  0  0  0  0  0  0  0  0  0  0
  -20.7234  -22.6576   21.0040 C   0  0  0  0  0  0  0  0  0  0  0  0
  -20.5629  -27.1949   20.4715 C   0  0  0  0  0  0  0  0  0  1  0  0
  -26.9690  -29.0763   23.9464 C   0  0  1  0  0  0  0  0  0  0  0  0
  -26.4567  -32.7613   24.6732 C   0  0  2  0  0  0  0  0  0  0  0  0
  -27.5079  -28.1168   25.0447 C   0  0  0  0  0  0  0  0  0  0  0  0
  -25.8851  -17.0888   21.4792 N   0  0  0  0  0  0  0  0  0  0  0  0
  -18.5646  -23.7145   22.5023 N   0  0  0  0  0  0  0  0  0  0  0  0
  -26.7632  -17.9098   20.8784 N   0  0  0  0  0  0  0  0  0  0  0  0
  -26.8215  -28.4976   21.5448 N   0  0  0  0  0  0  0  0  0  0  0  0
  -26.5094  -20.9582   23.1730 N   0  0  0  0  0  0  0  0  0  0  0  0
  -24.6913  -22.4316   22.6775 N   0  0  0  0  0  0  0  0  0  0  0  0
  -28.0520  -18.1827   18.9099 N   0  0  0  0  0  0  0  0  0  0  0  0
  -25.8883  -14.2815   18.2061 N   0  0  0  0  0  0  0  0  0  0  0  0
  -20.1515  -23.9423   20.7783 N   0  0  0  0  0  0  0  0  0  0  0  0
  -28.1628  -26.0412   19.2075 N   0  0  0  0  0  0  0  0  0  0  0  0
  -27.1201  -30.4923   24.2634 N   0  0  0  0  0  0  0  0  0  0  0  0
  -25.5728  -33.7479   23.9904 N   0  3  0  0  0  0  0  0  0  0  0  0
  -27.3897  -15.7658   17.3109 O   0  0  0  0  0  0  0  0  0  0  0  0
  -27.0725  -25.9691   21.2638 O   0  0  0  0  0  0  0  0  0  0  0  0
  -28.8682  -29.0313   22.5260 O   0  0  0  0  0  0  0  0  0  0  0  0
  -24.8683  -31.0270   24.1195 O   0  0  0  0  0  0  0  0  0  0  0  0
  -26.8637  -23.2020   22.7728 O   0  0  0  0  0  0  0  0  0  0  0  0
  -22.3055  -11.8267   21.6950 O   0  0  0  0  0  0  0  0  0  0  0  0
  -21.0626  -27.9527   19.3770 O   0  0  0  0  0  0  0  0  0  1  0  0
  -24.1245   -6.7339   20.6190 F   0  0  0  0  0  0  0  0  0  0  0  0
  -22.5131   -9.9406   23.7055 F   0  0  0  0  0  0  0  0  0  0  0  0
  1  2  1  0  0  0  0
  1  5  2  0  0  0  0
  2  6  2  0  0  0  0
  3  9  2  0  0  0  0
  3 17  1  0  0  0  0
  4 10  1  0  0  0  0
  4 17  2  0  0  0  0
  5 19  1  0  0  0  0
  6 21  1  0  0  0  0
  7 11  2  0  0  0  0
  7 20  1  0  0  0  0
  8 14  2  0  0  0  0
  8 23  1  0  0  0  0
  9 24  1  0  0  0  0
 10 24  2  0  0  0  0
 11 25  1  0  0  0  0
 12 13  2  0  0  0  0
 12 26  1  0  0  0  0
 13 27  1  0  0  0  0
 14 30  1  0  0  0  0
 15 22  1  0  0  0  0
 15 25  2  0  0  0  0
 16 27  2  0  0  0  0
 16 28  1  0  0  0  0
 17 29  1  0  0  0  0
 18 29  1  0  0  0  0
 18 32  2  0  0  0  0
 18 33  1  0  0  0  0
 19 21  2  0  0  0  0
 19 38  1  0  0  0  0
 20 22  2  0  0  0  0
 20 39  1  0  0  0  0
 21 51  1  0  0  0  0
 22 40  1  0  0  0  0
 23 31  2  0  0  0  0
 23 61  1  0  0  0  0
 24 84  1  0  0  0  0
 25 85  1  0  0  0  0
 26 28  2  0  0  0  0
 26 84  1  0  0  0  0
 27 86  1  0  0  0  0
 28 87  1  0  0  0  0
 29 67  2  0  0  0  0
 30 55  1  0  0  0  0
 30 68  2  0  0  0  0
 31 68  1  0  0  0  0
 31 75  1  0  0  0  0
 32 69  1  0  0  0  0
 32 73  1  0  0  0  0
 33 74  1  0  0  0  0
 33 79  2  0  0  0  0
 34 52  1  0  0  0  0
 34 76  1  0  0  0  0
 34 80  2  0  0  0  0
 35 64  1  0  0  0  0
 35 70  1  0  0  0  0
 35 81  2  0  0  0  0
 36 65  1  0  0  0  0
 36 77  1  0  0  0  0
 36 82  2  0  0  0  0
 37 71  1  0  0  0  0
 37 72  1  0  0  0  0
 37 83  2  0  0  0  0
 38 41  1  0  0  0  0
 39 52  1  0  0  0  0
 40 70  1  0  0  0  0
 41 43  1  0  0  0  0
 42 44  1  0  0  0  0
 42 47  1  0  0  0  0
 43 51  1  0  0  0  0
 44 54  1  0  0  0  0
 45 48  1  0  0  0  0
 45 53  1  0  0  0  0
 46 49  1  0  0  0  0
 46 53  1  0  0  0  0
 47 71  1  0  0  0  0
 48 72  1  0  0  0  0
 49 72  1  0  0  0  0
 50 54  1  0  0  0  0
 50 71  1  0  0  0  0
 51 76  1  0  0  0  0
 52 70  1  0  0  0  0
 53 62  1  0  0  0  0
 54 69  1  0  0  0  0
 56 65  1  0  0  0  0
 57 66  1  0  0  0  0
 58 66  1  0  0  0  0
 59 66  1  0  0  0  0
 60 78  1  0  0  0  0
 61 63  1  0  0  0  0
 62 75  1  0  0  0  0
 63 85  1  0  0  0  0
 64 66  1  0  0  0  0
 64 77  1  0  0  0  0
 65 78  1  0  0  0  0
 67 69  1  0  0  0  0
M  CHG  1  78   1
M  ISO  4  37 100  63 101  72 100  85 101
M  END
> <Batch ID>
0149

> <Smiles>
CNC(C)C(=O)NC(C(=O)N1Cc2cc([101O:1][101CH2:1]Cc3ccc(C)nc3NCC3CC[100N:0]([100C:0](=O)N4CCCC(n5nc(-c6ccc(Oc7ccc(F)cc7F)cc6)c(C(N)=O)c5N)C4)CC3)ccc2CC1C(=O)NC1CCCc2ccccc21)C(C)(C)C

> <Shape>
0.227

> <Color>
0.056

> <Negative vol penalty>
0.000

$$$$

  -OEChem-04052321383D

 85 93  0     1  0  0  0  0  0999 V2000
  -29.7638  -34.7480   15.7249 C   0  0  0  0  0  0  0  0  0  0  0  0
  -29.7306  -33.3573   15.7169 C   0  0  0  0  0  0  0  0  0  0  0  0
  -23.9122   -9.7186   21.6706 C   0  0  0  0  0  0  0  0  0  0  0  0
  -24.4538  -10.8885   23.7139 C   0  0  0  0  0  0  0  0  0  0  0  0
  -29.6866  -35.4391   16.9333 C   0  0  0  0  0  0  0  0  0  0  0  0
  -29.6214  -32.6567   16.9176 C   0  0  0  0  0  0  0  0  0  0  0  0
  -26.6407  -27.3883   17.8479 C   0  0  0  0  0  0  0  0  0  0  0  0
  -23.4276   -8.6431   22.4148 C   0  0  0  0  0  0  0  0  0  0  0  0
  -23.9691   -9.8130   24.4582 C   0  0  0  0  0  0  0  0  0  0  0  0
  -27.0735  -26.0646   17.9128 C   0  0  0  0  0  0  0  0  0  0  0  0
  -20.6210   -7.8663   24.1332 C   0  0  0  0  0  0  0  0  0  0  0  0
  -19.4038   -7.3060   23.7458 C   0  0  0  0  0  0  0  0  0  0  0  0
  -27.1743  -26.2217   20.3179 C   0  0  0  0  0  0  0  0  0  0  0  0
  -30.5149  -18.3582   19.3585 C   0  0  0  0  0  0  0  0  0  0  0  0
  -30.5920  -19.4416   21.5166 C   0  0  0  0  0  0  0  0  0  0  0  0
  -20.4953   -5.1800   23.3912 C   0  0  0  0  0  0  0  0  0  0  0  0
  -24.4253  -10.8414   22.3201 C   0  0  0  0  0  0  0  0  0  0  0  0
  -24.2008  -13.0722   21.1034 C   0  0  0  0  0  0  0  0  0  0  0  0
  -29.5666  -34.7469   18.1487 C   0  0  0  0  0  0  0  0  0  0  0  0
  -26.4817  -28.1433   19.0189 C   0  0  0  0  0  0  0  0  0  0  0  0
  -29.5439  -33.3391   18.1436 C   0  0  0  0  0  0  0  0  0  0  0  0
  -26.7369  -27.5540   20.2653 C   0  0  0  0  0  0  0  0  0  0  0  0
  -29.7835  -19.4299   18.8465 C   0  0  0  0  0  0  0  0  0  0  0  0
  -29.8606  -20.5133   21.0046 C   0  0  0  0  0  0  0  0  0  0  0  0
  -23.4560   -8.6902   23.8086 C   0  0  0  0  0  0  0  0  0  0  0  0
  -27.3431  -25.4819   19.1477 C   0  0  0  0  0  0  0  0  0  0  0  0
  -21.7754   -7.0835   24.1496 C   0  0  0  0  0  0  0  0  0  0  0  0
  -30.9191  -18.3640   20.6935 C   0  0  0  0  0  0  0  0  0  0  0  0
  -29.4563  -20.5075   19.6696 C   0  0  0  0  0  0  0  0  0  0  0  0
  -19.3410   -5.9629   23.3748 C   0  0  0  0  0  0  0  0  0  0  0  0
  -21.7126   -5.7403   23.7786 C   0  0  0  0  0  0  0  0  0  0  0  0
  -24.9266  -11.9525   21.5519 C   0  0  0  0  0  0  0  0  0  0  0  0
  -25.1237  -13.8306   20.4255 C   0  0  0  0  0  0  0  0  0  0  0  0
  -22.8161  -13.3977   21.2835 C   0  0  0  0  0  0  0  0  0  0  0  0
  -27.8041  -30.7915   20.1773 C   0  0  0  0  0  0  0  0  0  0  0  0
  -25.5620  -30.4319   22.4937 C   0  0  0  0  0  0  0  0  0  0  0  0
  -23.4711  -28.3456   24.2031 C   0  0  0  0  0  0  0  0  0  0  0  0
  -31.0843  -14.2765   20.7780 C   0  0  0  0  0  0  0  0  0  0  0  0
  -29.5340  -35.5362   19.4335 C   0  0  0  0  0  0  0  0  0  0  0  0
  -25.9884  -29.5617   18.9336 C   0  0  0  0  0  0  0  0  0  0  0  0
  -26.5624  -28.3153   21.5531 C   0  0  0  0  0  0  0  0  0  0  0  0
  -29.0425  -34.7287   20.6321 C   0  0  0  0  0  0  0  0  0  0  0  0
  -29.1671  -13.4331   17.8988 C   0  0  0  0  0  0  0  0  0  0  0  0
  -29.7282  -33.3668   20.6756 C   0  0  0  0  0  0  0  0  0  0  0  0
  -27.7974  -13.0590   18.4681 C   0  0  0  0  0  0  0  0  0  0  0  0
  -30.3017  -12.9823   18.8161 C   0  0  0  0  0  0  0  0  0  0  0  0
  -28.8185  -13.0671   20.7824 C   0  0  0  0  0  0  0  0  0  0  0  0
  -29.4012  -32.5442   19.4234 C   0  0  1  0  0  0  0  0  0  0  0  0
  -26.3546  -30.3963   20.1570 C   0  0  1  0  0  0  0  0  0  0  0  0
  -27.6402  -13.5505   19.9196 C   0  0  2  0  0  0  0  0  0  0  0  0
  -29.3599  -19.4051   17.4148 C   0  0  0  0  0  0  0  0  0  0  0  0
  -29.5204  -21.6578   21.9015 C   0  0  0  0  0  0  0  0  0  0  0  0
  -21.7894  -28.3347   26.0656 C   0  0  0  0  0  0  0  0  0  0  0  0
  -27.8246  -30.5934   24.5343 C   0  0  0  0  0  0  0  0  0  0  0  0
  -26.2589  -29.6439   26.2417 C   0  0  0  0  0  0  0  0  0  0  0  0
  -25.7529  -31.8403   25.1729 C   0  0  0  0  0  0  0  0  0  0  0  0
  -21.3086  -27.4317   22.4010 C   0  0  0  0  0  0  0  0  0  0  0  0
  -31.7234  -15.5443   22.8135 C   0  0  0  0  0  0  0  0  0  0  0  0
  -31.4675  -17.0224   22.5790 C   0  0  0  0  0  0  0  0  0  0  0  0
  -28.5231  -23.6974   18.1090 C   0  0  0  0  0  0  0  0  0  1  0  0
  -29.4834  -22.6325   18.6022 C   0  0  0  0  0  0  0  0  0  0  0  0
  -25.5025  -29.7177   23.8223 C   0  0  1  0  0  0  0  0  0  0  0  0
  -22.0020  -28.4672   24.5656 C   0  0  2  0  0  0  0  0  0  0  0  0
  -26.3400  -30.4348   24.9186 C   0  0  0  0  0  0  0  0  0  0  0  0
  -26.2116  -11.9919   21.1893 N   0  0  0  0  0  0  0  0  0  0  0  0
  -26.3003  -13.1456   20.5057 N   0  0  0  0  0  0  0  0  0  0  0  0
  -26.0840  -29.7010   21.4170 N   0  0  0  0  0  0  0  0  0  0  0  0
  -30.0933  -13.4829   20.1769 N   0  0  0  0  0  0  0  0  0  0  0  0
  -25.0354  -15.0100   19.7745 N   0  0  0  0  0  0  0  0  0  0  0  0
  -22.0091  -12.5082   22.0058 N   0  0  0  0  0  0  0  0  0  0  0  0
  -28.0728  -31.9786   19.5229 N   0  0  0  0  0  0  0  0  0  0  0  0
  -24.0872  -29.5779   24.1476 N   0  0  0  0  0  0  0  0  0  0  0  0
  -30.8044  -14.7147   22.0665 N   0  0  0  0  0  0  0  0  0  0  0  0
  -21.2103  -27.4050   23.8831 N   0  3  0  0  0  0  0  0  0  0  0  0
  -22.3058  -14.4383   20.8036 O   0  0  0  0  0  0  0  0  0  0  0  0
  -28.6183  -30.0735   20.7458 O   0  0  0  0  0  0  0  0  0  0  0  0
  -25.1535  -31.5930   22.4124 O   0  0  0  0  0  0  0  0  0  0  0  0
  -24.0183  -27.2651   23.9939 O   0  0  0  0  0  0  0  0  0  0  0  0
  -32.1379  -14.5770   20.2065 O   0  0  0  0  0  0  0  0  0  0  0  0
  -22.9829   -7.6410   24.5352 O   0  0  0  0  0  0  0  0  0  0  0  0
  -27.7663  -24.1903   19.2138 O   0  0  0  0  0  0  0  0  0  1  0  0
  -31.6326  -17.3178   21.1930 O   0  0  0  0  0  0  0  0  0  0  0  0
  -28.7383  -21.5604   19.1668 O   0  0  0  0  0  0  0  0  0  0  0  0
  -18.1717   -5.4245   23.0043 F   0  0  0  0  0  0  0  0  0  0  0  0
  -22.8180   -4.9829   23.7935 F   0  0  0  0  0  0  0  0  0  0  0  0
  1  2  1  0  0  0  0
  1  5  2  0  0  0  0
  2  6  2  0  0  0  0
  3  8  2  0  0  0  0
  3 17  1  0  0  0  0
  4  9  1  0  0  0  0
  4 17  2  0  0  0  0
  5 19  1  0  0  0  0
  6 21  1  0  0  0  0
  7 10  2  0  0  0  0
  7 20  1  0  0  0  0
  8 25  1  0  0  0  0
  9 25  2  0  0  0  0
 10 26  1  0  0  0  0
 11 12  2  0  0  0  0
 11 27  1  0  0  0  0
 12 30  1  0  0  0  0
 13 22  1  0  0  0  0
 13 26  2  0  0  0  0
 14 23  2  0  0  0  0
 14 28  1  0  0  0  0
 15 24  1  0  0  0  0
 15 28  2  0  0  0  0
 16 30  2  0  0  0  0
 16 31  1  0  0  0  0
 17 32  1  0  0  0  0
 18 32  1  0  0  0  0
 18 33  2  0  0  0  0
 18 34  1  0  0  0  0
 19 21  2  0  0  0  0
 19 39  1  0  0  0  0
 20 22  2  0  0  0  0
 20 40  1  0  0  0  0
 21 48  1  0  0  0  0
 22 41  1  0  0  0  0
 23 29  1  0  0  0  0
 23 51  1  0  0  0  0
 24 29  2  0  0  0  0
 24 52  1  0  0  0  0
 25 80  1  0  0  0  0
 26 81  1  0  0  0  0
 27 31  2  0  0  0  0
 27 80  1  0  0  0  0
 28 82  1  0  0  0  0
 29 83  1  0  0  0  0
 30 84  1  0  0  0  0
 31 85  1  0  0  0  0
 32 65  2  0  0  0  0
 33 66  1  0  0  0  0
 33 69  1  0  0  0  0
 34 70  1  0  0  0  0
 34 75  2  0  0  0  0
 35 49  1  0  0  0  0
 35 71  1  0  0  0  0
 35 76  2  0  0  0  0
 36 62  1  0  0  0  0
 36 67  1  0  0  0  0
 36 77  2  0  0  0  0
 37 63  1  0  0  0  0
 37 72  1  0  0  0  0
 37 78  2  0  0  0  0
 38 68  1  0  0  0  0
 38 73  1  0  0  0  0
 38 79  2  0  0  0  0
 39 42  1  0  0  0  0
 40 49  1  0  0  0  0
 41 67  1  0  0  0  0
 42 44  1  0  0  0  0
 43 45  1  0  0  0  0
 43 46  1  0  0  0  0
 44 48  1  0  0  0  0
 45 50  1  0  0  0  0
 46 68  1  0  0  0  0
 47 50  1  0  0  0  0
 47 68  1  0  0  0  0
 48 71  1  0  0  0  0
 49 67  1  0  0  0  0
 50 66  1  0  0  0  0
 53 63  1  0  0  0  0
 54 64  1  0  0  0  0
 55 64  1  0  0  0  0
 56 64  1  0  0  0  0
 57 74  1  0  0  0  0
 58 59  1  0  0  0  0
 58 73  1  0  0  0  0
 59 82  1  0  0  0  0
 60 61  1  0  0  0  0
 60 81  1  0  0  0  0
 61 83  1  0  0  0  0
 62 64  1  0  0  0  0
 62 72  1  0  0  0  0
 63 74  1  0  0  0  0
 65 66  1  0  0  0  0
M  CHG  1  74   1
M  ISO  4  38 100  60 101  73 100  81 101
M  END
> <Batch ID>
0149

> <Smiles>
CNC(C)C(=O)NC(C(=O)N1Cc2cc([101O:1][101CH2:1]COc3c(C)cc(OCC[100NH:0][100C:0](=O)N4CCCC(n5nc(-c6ccc(Oc7ccc(F)cc7F)cc6)c(C(N)=O)c5N)C4)cc3C)ccc2CC1C(=O)NC1CCCc2ccccc21)C(C)(C)C

> <Shape>
0.309

> <Color>
0.156

> <Negative vol penalty>
0.000

$$$$

  -OEChem-04052321383D

 87 95  0     1  0  0  0  0  0999 V2000
  -29.4603  -35.3420   15.9326 C   0  0  0  0  0  0  0  0  0  0  0  0
  -29.1617  -34.0213   15.6131 C   0  0  0  0  0  0  0  0  0  0  0  0
  -23.0444   -9.8509   19.9232 C   0  0  0  0  0  0  0  0  0  0  0  0
  -23.8422   -9.7901   22.2029 C   0  0  0  0  0  0  0  0  0  0  0  0
  -29.8736  -35.6693   17.2234 C   0  0  0  0  0  0  0  0  0  0  0  0
  -29.2773  -33.0270   16.5838 C   0  0  0  0  0  0  0  0  0  0  0  0
  -25.7522  -28.0573   17.2014 C   0  0  0  0  0  0  0  0  0  0  0  0
  -22.3115   -8.6857   20.1486 C   0  0  0  0  0  0  0  0  0  0  0  0
  -23.1093   -8.6249   22.4283 C   0  0  0  0  0  0  0  0  0  0  0  0
  -25.9242  -26.7306   16.8089 C   0  0  0  0  0  0  0  0  0  0  0  0
  -23.4102   -5.3241   21.7611 C   0  0  0  0  0  0  0  0  0  0  0  0
  -24.0434   -4.2805   22.4359 C   0  0  0  0  0  0  0  0  0  0  0  0
  -26.7528  -26.1932   19.0098 C   0  0  0  0  0  0  0  0  0  0  0  0
  -27.7702  -19.9769   18.0803 C   0  0  0  0  0  0  0  0  0  0  0  0
  -28.0211  -21.5672   19.8816 C   0  0  0  0  0  0  0  0  0  0  0  0
  -22.3696   -4.3893   24.1748 C   0  0  0  0  0  0  0  0  0  0  0  0
  -23.8098  -10.4031   20.9504 C   0  0  0  0  0  0  0  0  0  0  0  0
  -24.1350  -12.9329   20.9050 C   0  0  0  0  0  0  0  0  0  0  0  0
  -29.9850  -34.6800   18.2130 C   0  0  0  0  0  0  0  0  0  0  0  0
  -26.0900  -28.4649   18.5000 C   0  0  0  0  0  0  0  0  0  0  0  0
  -29.6937  -33.3412   17.8887 C   0  0  0  0  0  0  0  0  0  0  0  0
  -26.5817  -27.5251   19.4171 C   0  0  0  0  0  0  0  0  0  0  0  0
  -28.2371  -18.9599   18.9130 C   0  0  0  0  0  0  0  0  0  0  0  0
  -22.3439   -8.0728   21.4011 C   0  0  0  0  0  0  0  0  0  0  0  0
  -26.4273  -25.7989   17.7122 C   0  0  0  0  0  0  0  0  0  0  0  0
  -22.2566   -5.9004   22.2931 C   0  0  0  0  0  0  0  0  0  0  0  0
  -27.6623  -21.2805   18.5646 C   0  0  0  0  0  0  0  0  0  0  0  0
  -28.4880  -20.5502   20.7144 C   0  0  0  0  0  0  0  0  0  0  0  0
  -28.5959  -19.2466   20.2301 C   0  0  0  0  0  0  0  0  0  0  0  0
  -23.5231   -3.8131   23.6427 C   0  0  0  0  0  0  0  0  0  0  0  0
  -21.7363   -5.4329   23.4999 C   0  0  0  0  0  0  0  0  0  0  0  0
  -24.5676  -11.6064   20.7180 C   0  0  0  0  0  0  0  0  0  0  0  0
  -25.2166  -13.7004   20.5479 C   0  0  0  0  0  0  0  0  0  0  0  0
  -22.8686  -13.4271   21.3609 C   0  0  0  0  0  0  0  0  0  0  0  0
  -28.1733  -30.5242   19.7340 C   0  0  0  0  0  0  0  0  0  0  0  0
  -26.6821  -29.7677   22.5137 C   0  0  0  0  0  0  0  0  0  0  0  0
  -24.8256  -27.5191   24.2868 C   0  0  0  0  0  0  0  0  0  0  0  0
  -30.6967  -14.7476   20.6785 C   0  0  0  0  0  0  0  0  0  0  0  0
  -30.4811  -35.0748   19.5815 C   0  0  0  0  0  0  0  0  0  0  0  0
  -25.8733  -29.8940   18.9160 C   0  0  0  0  0  0  0  0  0  0  0  0
  -26.9404  -27.9074   20.8290 C   0  0  0  0  0  0  0  0  0  0  0  0
  -30.2176  -34.0197   20.6527 C   0  0  0  0  0  0  0  0  0  0  0  0
  -29.5335  -12.4327   18.2362 C   0  0  0  0  0  0  0  0  0  0  0  0
  -30.6130  -32.6357   20.1476 C   0  0  0  0  0  0  0  0  0  0  0  0
  -28.1051  -12.1163   18.6831 C   0  0  0  0  0  0  0  0  0  0  0  0
  -30.4691  -12.6212   19.4283 C   0  0  0  0  0  0  0  0  0  0  0  0
  -28.5864  -13.2960   20.8684 C   0  0  0  0  0  0  0  0  0  0  0  0
  -29.7831  -32.2383   18.9209 C   0  0  1  0  0  0  0  0  0  0  0  0
  -26.7338  -30.3069   20.1061 C   0  0  1  0  0  0  0  0  0  0  0  0
  -27.5939  -13.1526   19.7020 C   0  0  2  0  0  0  0  0  0  0  0  0
  -29.2506  -17.4751   17.1475 C   0  0  0  0  0  0  0  0  0  0  0  0
  -23.7932  -27.1634   26.5462 C   0  0  0  0  0  0  0  0  0  0  0  0
  -29.4304  -29.1074   23.6629 C   0  0  0  0  0  0  0  0  0  0  0  0
  -28.2822  -27.8878   25.5236 C   0  0  0  0  0  0  0  0  0  0  0  0
  -27.9141  -30.3369   25.2260 C   0  0  0  0  0  0  0  0  0  0  0  0
  -22.0976  -27.3841   23.1473 C   0  0  0  0  0  0  0  0  0  0  0  0
  -28.6935  -22.2014   22.4135 C   0  0  0  0  0  0  0  0  0  0  0  0
  -30.7706  -16.8583   21.9818 C   0  0  0  0  0  0  0  0  0  0  0  0
  -30.4591  -18.0232   21.0592 C   0  0  0  0  0  0  0  0  0  0  0  0
  -27.1199  -23.5928   18.3112 C   0  0  0  0  0  0  0  0  0  1  0  0
  -28.3463  -17.5706   18.3765 C   0  0  2  0  0  0  0  0  0  0  0  0
  -26.8792  -28.7191   23.5816 C   0  0  1  0  0  0  0  0  0  0  0  0
  -23.5785  -27.6891   25.1354 C   0  0  2  0  0  0  0  0  0  0  0  0
  -28.1216  -29.0057   24.4714 C   0  0  0  0  0  0  0  0  0  0  0  0
  -25.8259  -11.5318   20.2762 N   0  0  0  0  0  0  0  0  0  0  0  0
  -26.1932  -12.8212   20.1825 N   0  0  0  0  0  0  0  0  0  0  0  0
  -26.7166  -29.3181   21.1861 N   0  0  0  0  0  0  0  0  0  0  0  0
  -29.9274  -13.6177   20.3554 N   0  0  0  0  0  0  0  0  0  0  0  0
  -25.4180  -15.0348   20.5137 N   0  0  0  0  0  0  0  0  0  0  0  0
  -21.8677  -12.5013   21.6857 N   0  0  0  0  0  0  0  0  0  0  0  0
  -28.4598  -31.8119   19.3226 N   0  0  0  0  0  0  0  0  0  0  0  0
  -25.6217  -28.6445   24.3175 N   0  0  0  0  0  0  0  0  0  0  0  0
  -30.1062  -15.6455   21.5593 N   0  0  0  0  0  0  0  0  0  0  0  0
  -22.4343  -26.9521   24.5283 N   0  3  0  0  0  0  0  0  0  0  0  0
  -22.6262  -14.6538   21.4611 O   0  0  0  0  0  0  0  0  0  0  0  0
  -28.9657  -29.5930   19.8156 O   0  0  0  0  0  0  0  0  0  0  0  0
  -26.4970  -30.9413   22.8453 O   0  0  0  0  0  0  0  0  0  0  0  0
  -25.0711  -26.4894   23.6623 O   0  0  0  0  0  0  0  0  0  0  0  0
  -31.8239  -14.9445   20.2121 O   0  0  0  0  0  0  0  0  0  0  0  0
  -27.0417  -17.1084   18.0106 O   0  0  0  0  0  0  0  0  0  0  0  0
  -21.6286   -6.9359   21.6215 O   0  0  0  0  0  0  0  0  0  0  0  0
  -28.8341  -20.8441   21.9987 O   0  0  0  0  0  0  0  0  0  0  0  0
  -29.0527  -18.2551   21.0477 O   0  0  0  0  0  0  0  0  0  0  0  0
  -26.5968  -24.5035   17.3315 O   0  0  0  0  0  0  0  0  0  1  0  0
  -27.2044  -22.2796   17.7467 O   0  0  0  0  0  0  0  0  0  0  0  0
  -24.1305   -2.8098   24.2899 F   0  0  0  0  0  0  0  0  0  0  0  0
  -20.6278   -5.9818   24.0154 F   0  0  0  0  0  0  0  0  0  0  0  0
  1  2  1  0  0  0  0
  1  5  2  0  0  0  0
  2  6  2  0  0  0  0
  3  8  2  0  0  0  0
  3 17  1  0  0  0  0
  4  9  1  0  0  0  0
  4 17  2  0  0  0  0
  5 19  1  0  0  0  0
  6 21  1  0  0  0  0
  7 10  2  0  0  0  0
  7 20  1  0  0  0  0
  8 24  1  0  0  0  0
  9 24  2  0  0  0  0
 10 25  1  0  0  0  0
 11 12  2  0  0  0  0
 11 26  1  0  0  0  0
 12 30  1  0  0  0  0
 13 22  1  0  0  0  0
 13 25  2  0  0  0  0
 14 23  1  0  0  0  0
 14 27  2  0  0  0  0
 15 27  1  0  0  0  0
 15 28  2  0  0  0  0
 16 30  2  0  0  0  0
 16 31  1  0  0  0  0
 17 32  1  0  0  0  0
 18 32  1  0  0  0  0
 18 33  2  0  0  0  0
 18 34  1  0  0  0  0
 19 21  2  0  0  0  0
 19 39  1  0  0  0  0
 20 22  2  0  0  0  0
 20 40  1  0  0  0  0
 21 48  1  0  0  0  0
 22 41  1  0  0  0  0
 23 29  2  0  0  0  0
 23 61  1  0  0  0  0
 24 81  1  0  0  0  0
 25 84  1  0  0  0  0
 26 31  2  0  0  0  0
 26 81  1  0  0  0  0
 27 85  1  0  0  0  0
 28 29  1  0  0  0  0
 28 82  1  0  0  0  0
 29 83  1  0  0  0  0
 30 86  1  0  0  0  0
 31 87  1  0  0  0  0
 32 65  2  0  0  0  0
 33 66  1  0  0  0  0
 33 69  1  0  0  0  0
 34 70  1  0  0  0  0
 34 75  2  0  0  0  0
 35 49  1  0  0  0  0
 35 71  1  0  0  0  0
 35 76  2  0  0  0  0
 36 62  1  0  0  0  0
 36 67  1  0  0  0  0
 36 77  2  0  0  0  0
 37 63  1  0  0  0  0
 37 72  1  0  0  0  0
 37 78  2  0  0  0  0
 38 68  1  0  0  0  0
 38 73  1  0  0  0  0
 38 79  2  0  0  0  0
 39 42  1  0  0  0  0
 40 49  1  0  0  0  0
 41 67  1  0  0  0  0
 42 44  1  0  0  0  0
 43 45  1  0  0  0  0
 43 46  1  0  0  0  0
 44 48  1  0  0  0  0
 45 50  1  0  0  0  0
 46 68  1  0  0  0  0
 47 50  1  0  0  0  0
 47 68  1  0  0  0  0
 48 71  1  0  0  0  0
 49 67  1  0  0  0  0
 50 66  1  0  0  0  0
 51 61  1  0  0  0  0
 52 63  1  0  0  0  0
 53 64  1  0  0  0  0
 54 64  1  0  0  0  0
 55 64  1  0  0  0  0
 56 74  1  0  0  0  0
 57 82  1  0  0  0  0
 58 59  1  0  0  0  0
 58 73  1  0  0  0  0
 59 83  1  0  0  0  0
 60 84  1  0  0  0  0
 60 85  1  0  0  0  0
 61 80  1  0  0  0  0
 62 64  1  0  0  0  0
 62 72  1  0  0  0  0
 63 74  1  0  0  0  0
 65 66  1  0  0  0  0
M  CHG  1  74   1
M  ISO  4  38 100  60 101  73 100  84 101
M  END
> <Batch ID>
0149

> <Smiles>
CNC(C)C(=O)NC(C(=O)N1Cc2cc([101O:1][101CH2:1]Oc3cc(OC)c(OCC[100NH:0][100C:0](=O)N4CCCC(n5nc(-c6ccc(Oc7ccc(F)cc7F)cc6)c(C(N)=O)c5N)C4)c(C(C)O)c3)ccc2CC1C(=O)NC1CCCc2ccccc21)C(C)(C)C

> <Shape>
0.302

> <Color>
0.194

> <Negative vol penalty>
0.000

$$$$

  -OEChem-04052321383D

 90100  0     1  0  0  0  0  0999 V2000
  -23.7252  -37.2641   21.3519 C   0  0  0  0  0  0  0  0  0  0  0  0
  -23.8544  -35.9252   20.9968 C   0  0  0  0  0  0  0  0  0  0  0  0
  -22.9597  -10.6422   21.8295 C   0  0  0  0  0  0  0  0  0  0  0  0
  -24.0375   -9.1066   20.3072 C   0  0  0  0  0  0  0  0  0  0  0  0
  -24.4902  -37.7845   22.3949 C   0  0  0  0  0  0  0  0  0  0  0  0
  -24.7496  -35.1061   21.6839 C   0  0  0  0  0  0  0  0  0  0  0  0
  -24.0569  -29.1581   22.9672 C   0  0  0  0  0  0  0  0  0  0  0  0
  -22.2308   -9.5869   22.3779 C   0  0  0  0  0  0  0  0  0  0  0  0
  -23.3086   -8.0513   20.8556 C   0  0  0  0  0  0  0  0  0  0  0  0
  -24.5414  -28.0036   22.3539 C   0  0  0  0  0  0  0  0  0  0  0  0
  -20.1786   -6.7957   20.6158 C   0  0  0  0  0  0  0  0  0  0  0  0
  -19.5935   -5.8857   19.7354 C   0  0  0  0  0  0  0  0  0  0  0  0
  -27.2803  -24.5943   19.8882 C   0  0  0  0  0  0  0  0  0  0  0  0
  -26.3702  -27.9432   23.9259 C   0  0  0  0  0  0  0  0  0  0  0  0
  -25.5335  -23.2678   20.9012 C   0  0  0  0  0  0  0  0  0  0  0  0
  -20.8809   -4.0981   20.7275 C   0  0  0  0  0  0  0  0  0  0  0  0
  -23.8631  -10.4020   20.7941 C   0  0  0  0  0  0  0  0  0  0  0  0
  -24.1037  -12.6406   19.5949 C   0  0  0  0  0  0  0  0  0  0  0  0
  -25.3882  -36.9690   23.1015 C   0  0  0  0  0  0  0  0  0  0  0  0
  -24.7326  -29.7209   24.0595 C   0  0  0  0  0  0  0  0  0  0  0  0
  -25.5284  -35.6164   22.7365 C   0  0  0  0  0  0  0  0  0  0  0  0
  -27.8958  -23.4310   19.4262 C   0  0  0  0  0  0  0  0  0  0  0  0
  -25.8908  -29.1035   24.5529 C   0  0  0  0  0  0  0  0  0  0  0  0
  -26.0991  -24.5127   20.6258 C   0  0  0  0  0  0  0  0  0  0  0  0
  -26.1489  -22.1044   20.4391 C   0  0  0  0  0  0  0  0  0  0  0  0
  -27.3301  -22.1861   19.7016 C   0  0  0  0  0  0  0  0  0  0  0  0
  -22.4052   -8.2915   21.8910 C   0  0  0  0  0  0  0  0  0  0  0  0
  -25.6998  -27.3976   22.8314 C   0  0  0  0  0  0  0  0  0  0  0  0
  -21.1149   -6.3570   21.5521 C   0  0  0  0  0  0  0  0  0  0  0  0
  -19.9446   -4.5369   19.7912 C   0  0  0  0  0  0  0  0  0  0  0  0
  -21.4660   -5.0082   21.6079 C   0  0  0  0  0  0  0  0  0  0  0  0
  -24.6159  -11.4918   20.2269 C   0  0  0  0  0  0  0  0  0  0  0  0
  -25.2171  -13.3605   19.2363 C   0  0  0  0  0  0  0  0  0  0  0  0
  -22.7431  -13.0230   19.3535 C   0  0  0  0  0  0  0  0  0  0  0  0
  -26.1676  -32.5016   24.6186 C   0  0  0  0  0  0  0  0  0  0  0  0
  -26.4356  -31.3148   27.6256 C   0  0  0  0  0  0  0  0  0  0  0  0
  -26.5499  -28.5773   29.6604 C   0  0  0  0  0  0  0  0  0  0  0  0
  -30.2646  -15.4276   20.4176 C   0  0  0  0  0  0  0  0  0  0  0  0
  -26.2281  -37.5879   24.1906 C   0  0  0  0  0  0  0  0  0  0  0  0
  -24.1822  -30.9515   24.7267 C   0  0  0  0  0  0  0  0  0  0  0  0
  -26.6420  -29.6566   25.7353 C   0  0  0  0  0  0  0  0  0  0  0  0
  -26.8805  -36.5622   25.1139 C   0  0  0  0  0  0  0  0  0  0  0  0
  -30.1090  -12.0738   19.2323 C   0  0  0  0  0  0  0  0  0  0  0  0
  -30.1362  -24.6373   18.9801 C   0  0  0  0  0  0  0  0  0  0  0  0
  -29.3416  -24.7183   17.7142 C   0  0  0  0  0  0  0  0  0  0  0  0
  -27.5211  -35.4424   24.3000 C   0  0  0  0  0  0  0  0  0  0  0  0
  -30.2531  -19.8269   18.9229 C   0  0  0  0  0  0  0  0  0  0  0  0
  -29.3262  -20.2207   21.2410 C   0  0  0  0  0  0  0  0  0  0  0  0
  -28.6255  -11.7166   19.3392 C   0  0  0  0  0  0  0  0  0  0  0  0
  -29.8436  -18.3561   19.0067 C   0  0  0  0  0  0  0  0  0  0  0  0
  -28.9158  -18.7504   21.3292 C   0  0  0  0  0  0  0  0  0  0  0  0
  -30.5587  -12.9681   20.3856 C   0  0  0  0  0  0  0  0  0  0  0  0
  -28.2693  -13.8318   20.6800 C   0  0  0  0  0  0  0  0  0  0  0  0
  -29.1592  -23.5442   18.6386 C   0  0  0  0  0  0  0  0  0  0  0  0
  -26.4706  -34.6901   23.4742 C   0  0  1  0  0  0  0  0  0  0  0  0
  -25.2361  -31.7289   25.5092 C   0  0  1  0  0  0  0  0  0  0  0  0
  -29.3878  -20.7442   19.7989 C   0  0  0  0  0  0  0  0  0  0  0  0
  -27.7560  -12.9769   19.5086 C   0  0  2  0  0  0  0  0  0  0  0  0
  -29.8086  -17.8668   20.4561 C   0  0  0  0  0  0  0  0  0  0  0  0
  -25.5231  -20.7839   20.7479 C   0  0  0  0  0  0  0  0  0  0  0  0
  -28.0547  -20.8803   17.6708 C   0  0  0  0  0  0  0  0  0  0  0  0
  -26.8144  -27.9224   32.0684 C   0  0  0  0  0  0  0  0  0  0  0  0
  -29.4277  -31.8861   27.4499 C   0  0  0  0  0  0  0  0  0  0  0  0
  -29.7603  -30.3802   29.4222 C   0  0  0  0  0  0  0  0  0  0  0  0
  -28.3858  -32.4491   29.6526 C   0  0  0  0  0  0  0  0  0  0  0  0
  -23.8858  -27.2899   29.7233 C   0  0  0  0  0  0  0  0  0  0  0  0
  -25.4372  -25.7640   21.1231 C   0  0  0  0  0  0  0  0  0  1  0  0
  -27.9889  -20.9370   19.2070 C   0  0  2  0  0  0  0  0  0  0  0  0
  -27.4601  -30.4836   28.3595 C   0  0  1  0  0  0  0  0  0  0  0  0
  -25.8304  -28.2559   30.9578 C   0  0  2  0  0  0  0  0  0  0  0  0
  -28.7456  -31.2901   28.6975 C   0  0  0  0  0  0  0  0  0  0  0  0
  -25.9509  -11.4782   20.2688 N   0  0  0  0  0  0  0  0  0  0  0  0
  -26.2869  -12.6275   19.6586 N   0  0  0  0  0  0  0  0  0  0  0  0
  -26.0677  -30.8649   26.3497 N   0  0  0  0  0  0  0  0  0  0  0  0
  -29.6942  -14.1460   20.4909 N   0  0  0  0  0  0  0  0  0  0  0  0
  -25.3756  -14.5427   18.6041 N   0  0  0  0  0  0  0  0  0  0  0  0
  -22.1373  -12.6172   18.1566 N   0  0  0  0  0  0  0  0  0  0  0  0
  -25.7274  -33.7756   24.3144 N   0  0  0  0  0  0  0  0  0  0  0  0
  -26.7782  -29.9304   29.5246 N   0  0  0  0  0  0  0  0  0  0  0  0
  -29.3739  -16.4892   20.5199 N   0  0  0  0  0  0  0  0  0  0  0  0
  -24.9204  -27.0907   30.7706 N   0  3  0  0  0  0  0  0  0  0  0  0
  -22.0893  -13.7182   20.1676 O   0  0  0  0  0  0  0  0  0  0  0  0
  -27.2092  -31.9810   24.2371 O   0  0  0  0  0  0  0  0  0  0  0  0
  -25.9735  -32.3219   28.1675 O   0  0  0  0  0  0  0  0  0  0  0  0
  -26.8801  -27.7141   28.8503 O   0  0  0  0  0  0  0  0  0  0  0  0
  -31.4771  -15.6120   20.2665 O   0  0  0  0  0  0  0  0  0  0  0  0
  -21.6943   -7.2615   22.4260 O   0  0  0  0  0  0  0  0  0  0  0  0
  -26.1752  -26.2710   22.2342 O   0  0  0  0  0  0  0  0  0  1  0  0
  -19.3816   -3.6629   18.9467 F   0  0  0  0  0  0  0  0  0  0  0  0
  -22.3640   -4.5805   22.5060 F   0  0  0  0  0  0  0  0  0  0  0  0
  1  2  1  0  0  0  0
  1  5  2  0  0  0  0
  2  6  2  0  0  0  0
  3  8  2  0  0  0  0
  3 17  1  0  0  0  0
  4  9  1  0  0  0  0
  4 17  2  0  0  0  0
  5 19  1  0  0  0  0
  6 21  1  0  0  0  0
  7 10  2  0  0  0  0
  7 20  1  0  0  0  0
  8 27  1  0  0  0  0
  9 27  2  0  0  0  0
 10 28  1  0  0  0  0
 11 12  2  0  0  0  0
 11 29  1  0  0  0  0
 12 30  1  0  0  0  0
 13 22  1  0  0  0  0
 13 24  2  0  0  0  0
 14 23  1  0  0  0  0
 14 28  2  0  0  0  0
 15 24  1  0  0  0  0
 15 25  2  0  0  0  0
 16 30  2  0  0  0  0
 16 31  1  0  0  0  0
 17 32  1  0  0  0  0
 18 32  1  0  0  0  0
 18 33  2  0  0  0  0
 18 34  1  0  0  0  0
 19 21  2  0  0  0  0
 19 39  1  0  0  0  0
 20 23  2  0  0  0  0
 20 40  1  0  0  0  0
 21 55  1  0  0  0  0
 22 26  2  0  0  0  0
 22 54  1  0  0  0  0
 23 41  1  0  0  0  0
 24 67  1  0  0  0  0
 25 26  1  0  0  0  0
 25 60  1  0  0  0  0
 26 68  1  0  0  0  0
 27 87  1  0  0  0  0
 28 88  1  0  0  0  0
 29 31  2  0  0  0  0
 29 87  1  0  0  0  0
 30 89  1  0  0  0  0
 31 90  1  0  0  0  0
 32 72  2  0  0  0  0
 33 73  1  0  0  0  0
 33 76  1  0  0  0  0
 34 77  1  0  0  0  0
 34 82  2  0  0  0  0
 35 56  1  0  0  0  0
 35 78  1  0  0  0  0
 35 83  2  0  0  0  0
 36 69  1  0  0  0  0
 36 74  1  0  0  0  0
 36 84  2  0  0  0  0
 37 70  1  0  0  0  0
 37 79  1  0  0  0  0
 37 85  2  0  0  0  0
 38 75  1  0  0  0  0
 38 80  1  0  0  0  0
 38 86  2  0  0  0  0
 39 42  1  0  0  0  0
 40 56  1  0  0  0  0
 41 74  1  0  0  0  0
 42 46  1  0  0  0  0
 43 49  1  0  0  0  0
 43 52  1  0  0  0  0
 44 45  1  0  0  0  0
 44 54  1  0  0  0  0
 45 54  1  0  0  0  0
 46 55  1  0  0  0  0
 47 50  1  0  0  0  0
 47 57  1  0  0  0  0
 48 51  1  0  0  0  0
 48 57  1  0  0  0  0
 49 58  1  0  0  0  0
 50 59  1  0  0  0  0
 51 59  1  0  0  0  0
 52 75  1  0  0  0  0
 53 58  1  0  0  0  0
 53 75  1  0  0  0  0
 55 78  1  0  0  0  0
 56 74  1  0  0  0  0
 57 68  1  0  0  0  0
 58 73  1  0  0  0  0
 59 80  1  0  0  0  0
 61 68  1  0  0  0  0
 62 70  1  0  0  0  0
 63 71  1  0  0  0  0
 64 71  1  0  0  0  0
 65 71  1  0  0  0  0
 66 81  1  0  0  0  0
 67 88  1  0  0  0  0
 69 71  1  0  0  0  0
 69 79  1  0  0  0  0
 70 81  1  0  0  0  0
 72 73  1  0  0  0  0
M  CHG  1  81   1
M  ISO  4  38 100  67 101  80 100  88 101
M  END
> <Batch ID>
0149

> <Smiles>
CNC(C)C(=O)NC(C(=O)N1Cc2cc([101O:1][101CH2:1]c3cc(C)c(C(C)C4CCC([100NH:0][100C:0](=O)N5CCCC(n6nc(-c7ccc(Oc8ccc(F)cc8F)cc7)c(C(N)=O)c6N)C5)CC4)c(C4CC4)c3)ccc2CC1C(=O)NC1CCCc2ccccc21)C(C)(C)C

> <Shape>
0.296

> <Color>
0.101

> <Negative vol penalty>
0.000

$$$$

  -OEChem-04052321383D

 89 98  0     1  0  0  0  0  0999 V2000
  -16.4934  -27.1206   23.0124 C   0  0  0  0  0  0  0  0  0  0  0  0
  -17.5499  -26.4801   23.6520 C   0  0  0  0  0  0  0  0  0  0  0  0
  -23.8657  -10.0237   22.4558 C   0  0  0  0  0  0  0  0  0  0  0  0
  -23.0110  -10.3287   20.2167 C   0  0  0  0  0  0  0  0  0  0  0  0
  -16.7509  -28.0996   22.0536 C   0  0  0  0  0  0  0  0  0  0  0  0
  -18.8646  -26.8175   23.3324 C   0  0  0  0  0  0  0  0  0  0  0  0
  -23.6611  -26.9469   27.1379 C   0  0  0  0  0  0  0  0  0  0  0  0
  -22.9015   -9.0434   22.6903 C   0  0  0  0  0  0  0  0  0  0  0  0
  -22.0468   -9.3483   20.4512 C   0  0  0  0  0  0  0  0  0  0  0  0
  -24.6849  -26.0341   27.3881 C   0  0  0  0  0  0  0  0  0  0  0  0
  -22.4339   -5.7796   21.9408 C   0  0  0  0  0  0  0  0  0  0  0  0
  -22.8455   -4.6015   22.5640 C   0  0  0  0  0  0  0  0  0  0  0  0
  -26.1099  -27.2181   25.8432 C   0  0  0  0  0  0  0  0  0  0  0  0
  -28.6222  -23.4931   29.2394 C   0  0  0  0  0  0  0  0  0  0  0  0
  -28.2172  -22.4789   27.0844 C   0  0  0  0  0  0  0  0  0  0  0  0
  -21.3078   -5.0243   24.3789 C   0  0  0  0  0  0  0  0  0  0  0  0
  -23.9204  -10.6664   21.2190 C   0  0  0  0  0  0  0  0  0  0  0  0
  -26.2105  -11.4919   20.4563 C   0  0  0  0  0  0  0  0  0  0  0  0
  -18.0694  -28.4561   21.7291 C   0  0  0  0  0  0  0  0  0  0  0  0
  -23.8508  -27.9975   26.2288 C   0  0  0  0  0  0  0  0  0  0  0  0
  -19.1400  -27.8013   22.3675 C   0  0  0  0  0  0  0  0  0  0  0  0
  -25.0878  -28.1444   25.5852 C   0  0  0  0  0  0  0  0  0  0  0  0
  -27.8514  -23.3824   28.0822 C   0  0  0  0  0  0  0  0  0  0  0  0
  -29.7589  -22.7003   29.3988 C   0  0  0  0  0  0  0  0  0  0  0  0
  -30.1246  -21.7969   28.4010 C   0  0  0  0  0  0  0  0  0  0  0  0
  -29.3537  -21.6861   27.2438 C   0  0  0  0  0  0  0  0  0  0  0  0
  -21.9921   -8.7057   21.6880 C   0  0  0  0  0  0  0  0  0  0  0  0
  -25.9085  -26.1679   26.7386 C   0  0  0  0  0  0  0  0  0  0  0  0
  -21.4594   -6.5801   22.5367 C   0  0  0  0  0  0  0  0  0  0  0  0
  -22.2824   -4.2238   23.7830 C   0  0  0  0  0  0  0  0  0  0  0  0
  -20.8963   -6.2024   23.7557 C   0  0  0  0  0  0  0  0  0  0  0  0
  -24.9158  -11.6795   20.9763 C   0  0  0  0  0  0  0  0  0  0  0  0
  -26.7522  -12.7535   20.4205 C   0  0  0  0  0  0  0  0  0  0  0  0
  -26.8649  -10.2851   20.0427 C   0  0  0  0  0  0  0  0  0  0  0  0
  -22.4991  -28.8605   23.4844 C   0  0  0  0  0  0  0  0  0  0  0  0
  -24.4044  -31.4650   23.8146 C   0  0  0  0  0  0  0  0  0  0  0  0
  -27.2245  -32.8401   25.1573 C   0  0  0  0  0  0  0  0  0  0  0  0
  -27.7894  -17.5714   22.5461 C   0  0  0  0  0  0  0  0  0  0  0  0
  -18.2986  -29.4867   20.6522 C   0  0  0  0  0  0  0  0  0  0  0  0
  -22.7455  -28.9894   25.9901 C   0  0  0  0  0  0  0  0  0  0  0  0
  -25.3490  -29.2668   24.6155 C   0  0  0  0  0  0  0  0  0  0  0  0
  -19.7169  -30.0512   20.6413 C   0  0  0  0  0  0  0  0  0  0  0  0
  -24.6173  -17.2859   21.0678 C   0  0  0  0  0  0  0  0  0  0  0  0
  -20.7404  -28.9253   20.7485 C   0  0  0  0  0  0  0  0  0  0  0  0
  -24.5110  -15.7744   20.8672 C   0  0  0  0  0  0  0  0  0  0  0  0
  -27.7082  -19.7710   25.2926 C   0  0  0  0  0  0  0  0  0  0  0  0
  -29.8288  -19.9988   23.9439 C   0  0  0  0  0  0  0  0  0  0  0  0
  -25.2597  -17.6422   22.4097 C   0  0  0  0  0  0  0  0  0  0  0  0
  -26.9412  -19.4648   24.0028 C   0  0  0  0  0  0  0  0  0  0  0  0
  -29.0177  -19.7171   22.6822 C   0  0  0  0  0  0  0  0  0  0  0  0
  -26.4639  -15.4817   22.4380 C   0  0  0  0  0  0  0  0  0  0  0  0
  -20.5796  -28.1572   22.0660 C   0  0  1  0  0  0  0  0  0  0  0  0
  -22.8761  -29.7204   24.6575 C   0  0  1  0  0  0  0  0  0  0  0  0
  -25.8754  -15.0926   21.0731 C   0  0  1  0  0  0  0  0  0  0  0  0
  -28.9441  -20.6319   25.0210 C   0  0  0  0  0  0  0  0  0  0  0  0
  -30.9995  -19.5150   28.9616 C   0  0  0  0  0  0  0  0  0  0  0  0
  -28.5371  -34.9780   25.2178 C   0  0  0  0  0  0  0  0  0  0  0  0
  -25.4584  -30.8945   21.0086 C   0  0  0  0  0  0  0  0  0  0  0  0
  -27.3789  -32.4255   21.4942 C   0  0  0  0  0  0  0  0  0  0  0  0
  -25.0474  -33.3125   21.4970 C   0  0  0  0  0  0  0  0  0  0  0  0
  -26.8914  -33.0974   28.0867 C   0  0  0  0  0  0  0  0  0  0  0  0
  -31.0673  -21.8071   32.6989 C   0  0  0  0  0  0  0  0  0  0  0  0
  -31.3452  -20.9489   28.5758 C   0  0  0  0  0  0  0  0  0  0  0  0
  -26.6375  -24.2316   27.9111 C   0  0  0  0  0  0  0  0  0  1  0  0
  -30.5669  -22.8386   30.6475 C   0  0  0  0  0  0  0  0  0  0  0  0
  -25.8089  -31.8226   23.3923 C   0  0  1  0  0  0  0  0  0  0  0  0
  -27.4558  -34.1481   25.8922 C   0  0  2  0  0  0  0  0  0  0  0  0
  -25.9182  -32.0914   21.8648 C   0  0  0  0  0  0  0  0  0  0  0  0
  -24.6510  -12.9595   21.2512 N   0  0  0  0  0  0  0  0  0  0  0  0
  -25.7868  -13.5876   20.9027 N   0  0  0  0  0  0  0  0  0  0  0  0
  -24.2349  -30.2073   24.4107 N   0  0  0  0  0  0  0  0  0  0  0  0
  -26.5382  -16.9376   22.5779 N   0  0  0  0  0  0  0  0  0  0  0  0
  -27.8395  -18.9033   22.9837 N   0  0  0  0  0  0  0  0  0  0  0  0
  -27.9555  -13.2197   20.0239 N   0  0  0  0  0  0  0  0  0  0  0  0
  -26.1641   -9.0758   20.1462 N   0  0  0  0  0  0  0  0  0  0  0  0
  -29.6997  -20.7950   26.2435 N   0  0  0  0  0  0  0  0  0  0  0  0
  -21.1563  -28.9067   23.1615 N   0  0  0  0  0  0  0  0  0  0  0  0
  -26.2121  -32.9487   24.2275 N   0  0  0  0  0  0  0  0  0  0  0  0
  -27.8735  -33.8853   27.2984 N   0  3  0  0  0  0  0  0  0  0  0  0
  -28.0423  -10.2773   19.6098 O   0  0  0  0  0  0  0  0  0  0  0  0
  -23.3628  -28.2050   22.9134 O   0  0  0  0  0  0  0  0  0  0  0  0
  -23.4925  -32.2747   23.6291 O   0  0  0  0  0  0  0  0  0  0  0  0
  -27.8792  -31.8246   25.3827 O   0  0  0  0  0  0  0  0  0  0  0  0
  -28.8027  -16.9819   22.1500 O   0  0  0  0  0  0  0  0  0  0  0  0
  -21.0513   -7.7490   21.9165 O   0  0  0  0  0  0  0  0  0  0  0  0
  -26.9161  -25.2719   26.9821 O   0  0  0  0  0  0  0  0  0  1  0  0
  -30.3196  -21.7232   31.4933 O   0  0  0  0  0  0  0  0  0  0  0  0
  -22.6766   -3.0917   24.3805 F   0  0  0  0  0  0  0  0  0  0  0  0
  -19.9588   -6.9668   24.3325 F   0  0  0  0  0  0  0  0  0  0  0  0
  1  2  1  0  0  0  0
  1  5  2  0  0  0  0
  2  6  2  0  0  0  0
  3  8  2  0  0  0  0
  3 17  1  0  0  0  0
  4  9  1  0  0  0  0
  4 17  2  0  0  0  0
  5 19  1  0  0  0  0
  6 21  1  0  0  0  0
  7 10  2  0  0  0  0
  7 20  1  0  0  0  0
  8 27  1  0  0  0  0
  9 27  2  0  0  0  0
 10 28  1  0  0  0  0
 11 12  2  0  0  0  0
 11 29  1  0  0  0  0
 12 30  1  0  0  0  0
 13 22  1  0  0  0  0
 13 28  2  0  0  0  0
 14 23  1  0  0  0  0
 14 24  2  0  0  0  0
 15 23  2  0  0  0  0
 15 26  1  0  0  0  0
 16 30  2  0  0  0  0
 16 31  1  0  0  0  0
 17 32  1  0  0  0  0
 18 32  1  0  0  0  0
 18 33  2  0  0  0  0
 18 34  1  0  0  0  0
 19 21  2  0  0  0  0
 19 39  1  0  0  0  0
 20 22  2  0  0  0  0
 20 40  1  0  0  0  0
 21 52  1  0  0  0  0
 22 41  1  0  0  0  0
 23 64  1  0  0  0  0
 24 25  1  0  0  0  0
 24 65  1  0  0  0  0
 25 26  2  0  0  0  0
 25 63  1  0  0  0  0
 26 76  1  0  0  0  0
 27 85  1  0  0  0  0
 28 86  1  0  0  0  0
 29 31  2  0  0  0  0
 29 85  1  0  0  0  0
 30 88  1  0  0  0  0
 31 89  1  0  0  0  0
 32 69  2  0  0  0  0
 33 70  1  0  0  0  0
 33 74  1  0  0  0  0
 34 75  1  0  0  0  0
 34 80  2  0  0  0  0
 35 53  1  0  0  0  0
 35 77  1  0  0  0  0
 35 81  2  0  0  0  0
 36 66  1  0  0  0  0
 36 71  1  0  0  0  0
 36 82  2  0  0  0  0
 37 67  1  0  0  0  0
 37 78  1  0  0  0  0
 37 83  2  0  0  0  0
 38 72  1  0  0  0  0
 38 73  1  0  0  0  0
 38 84  2  0  0  0  0
 39 42  1  0  0  0  0
 40 53  1  0  0  0  0
 41 71  1  0  0  0  0
 42 44  1  0  0  0  0
 43 45  1  0  0  0  0
 43 48  1  0  0  0  0
 44 52  1  0  0  0  0
 45 54  1  0  0  0  0
 46 49  1  0  0  0  0
 46 55  1  0  0  0  0
 47 50  1  0  0  0  0
 47 55  1  0  0  0  0
 48 72  1  0  0  0  0
 49 73  1  0  0  0  0
 50 73  1  0  0  0  0
 51 54  1  0  0  0  0
 51 72  1  0  0  0  0
 52 77  1  0  0  0  0
 53 71  1  0  0  0  0
 54 70  1  0  0  0  0
 55 76  1  0  0  0  0
 56 63  1  0  0  0  0
 57 67  1  0  0  0  0
 58 68  1  0  0  0  0
 59 68  1  0  0  0  0
 60 68  1  0  0  0  0
 61 79  1  0  0  0  0
 62 87  1  0  0  0  0
 64 86  1  0  0  0  0
 65 87  1  0  0  0  0
 66 68  1  0  0  0  0
 66 78  1  0  0  0  0
 67 79  1  0  0  0  0
 69 70  1  0  0  0  0
M  CHG  1  79   1
M  ISO  4  38 100  64 101  73 100  86 101
M  END
> <Batch ID>
0149

> <Smiles>
CCc1c(COC)cc([101CH2:1][101O:1]c2ccc3c(c2)CN(C(=O)C(NC(=O)C(C)NC)C(C)(C)C)C(C(=O)NC2CCCc4ccccc42)C3)cc1NC1CC[100N:0]([100C:0](=O)N2CCCC(n3nc(-c4ccc(Oc5ccc(F)cc5F)cc4)c(C(N)=O)c3N)C2)CC1

> <Shape>
0.239

> <Color>
0.095

> <Negative vol penalty>
0.000

$$$$

  -OEChem-04052321383D

 81 90  0     1  0  0  0  0  0999 V2000
  -23.7577  -30.8143   19.9879 C   0  0  0  0  0  0  0  0  0  0  0  0
  -24.3194  -29.5416   19.9868 C   0  0  0  0  0  0  0  0  0  0  0  0
  -23.0520   -9.8779   19.8905 C   0  0  0  0  0  0  0  0  0  0  0  0
  -23.8997   -9.7300   22.1480 C   0  0  0  0  0  0  0  0  0  0  0  0
  -24.2685  -31.7997   20.8317 C   0  0  0  0  0  0  0  0  0  0  0  0
  -25.3931  -29.2538   20.8287 C   0  0  0  0  0  0  0  0  0  0  0  0
  -26.5501  -23.9331   23.6318 C   0  0  0  0  0  0  0  0  0  0  0  0
  -22.3195   -8.7076   20.0888 C   0  0  0  0  0  0  0  0  0  0  0  0
  -23.1672   -8.5596   22.3464 C   0  0  0  0  0  0  0  0  0  0  0  0
  -27.4027  -22.8749   23.3205 C   0  0  0  0  0  0  0  0  0  0  0  0
  -19.9656   -7.7102   23.0160 C   0  0  0  0  0  0  0  0  0  0  0  0
  -19.2544   -7.5870   24.2096 C   0  0  0  0  0  0  0  0  0  0  0  0
  -29.0795  -23.8029   24.7856 C   0  0  0  0  0  0  0  0  0  0  0  0
  -29.8225  -17.5360   22.9459 C   0  0  0  0  0  0  0  0  0  0  0  0
  -20.5254   -5.6081   24.7626 C   0  0  0  0  0  0  0  0  0  0  0  0
  -32.2687  -18.4202   22.1357 C   0  0  0  0  0  0  0  0  0  0  0  0
  -23.8421  -10.3892   20.9201 C   0  0  0  0  0  0  0  0  0  0  0  0
  -24.1763  -12.9179   20.9612 C   0  0  0  0  0  0  0  0  0  0  0  0
  -25.3428  -31.5211   21.6914 C   0  0  0  0  0  0  0  0  0  0  0  0
  -26.9605  -24.9416   24.5154 C   0  0  0  0  0  0  0  0  0  0  0  0
  -25.9196  -30.2367   21.6838 C   0  0  0  0  0  0  0  0  0  0  0  0
  -28.2292  -24.8714   25.1084 C   0  0  0  0  0  0  0  0  0  0  0  0
  -30.3007  -18.7497   23.4497 C   0  0  0  0  0  0  0  0  0  0  0  0
  -31.5661  -19.2007   23.0507 C   0  0  0  0  0  0  0  0  0  0  0  0
  -22.3771   -8.0484   21.3167 C   0  0  0  0  0  0  0  0  0  0  0  0
  -28.6687  -22.8111   23.8952 C   0  0  0  0  0  0  0  0  0  0  0  0
  -20.9566   -6.7823   22.6957 C   0  0  0  0  0  0  0  0  0  0  0  0
  -19.5343   -6.5360   25.0829 C   0  0  0  0  0  0  0  0  0  0  0  0
  -21.2366   -5.7313   23.5690 C   0  0  0  0  0  0  0  0  0  0  0  0
  -24.5994  -11.5978   20.7156 C   0  0  0  0  0  0  0  0  0  0  0  0
  -30.6119  -16.8355   22.0484 C   0  0  0  0  0  0  0  0  0  0  0  0
  -25.2528  -13.6946   20.6087 C   0  0  0  0  0  0  0  0  0  0  0  0
  -22.9223  -13.3989   21.4631 C   0  0  0  0  0  0  0  0  0  0  0  0
  -27.4170  -28.0787   24.2826 C   0  0  0  0  0  0  0  0  0  0  0  0
  -27.9006  -27.8524   27.4821 C   0  0  0  0  0  0  0  0  0  0  0  0
  -28.7742  -25.9118   30.1501 C   0  0  0  0  0  0  0  0  0  0  0  0
  -30.7205  -14.7462   20.6451 C   0  0  0  0  0  0  0  0  0  0  0  0
  -25.8914  -32.6320   22.5513 C   0  0  0  0  0  0  0  0  0  0  0  0
  -26.0188  -26.0623   24.8615 C   0  0  0  0  0  0  0  0  0  0  0  0
  -29.4654  -19.5122   24.4506 C   0  0  0  0  0  0  0  0  0  0  0  0
  -32.1384  -20.5051   23.5282 C   0  0  0  0  0  0  0  0  0  0  0  0
  -28.7100  -25.9181   26.0789 C   0  0  0  0  0  0  0  0  0  0  0  0
  -26.7886  -32.1393   23.6838 C   0  0  0  0  0  0  0  0  0  0  0  0
  -31.4522  -21.0280   24.7911 C   0  0  0  0  0  0  0  0  0  0  0  0
  -29.5183  -12.4968   18.1607 C   0  0  0  0  0  0  0  0  0  0  0  0
  -27.7880  -31.1107   23.1640 C   0  0  0  0  0  0  0  0  0  0  0  0
  -28.0966  -12.1710   18.6241 C   0  0  0  0  0  0  0  0  0  0  0  0
  -30.4788  -12.6459   19.3393 C   0  0  0  0  0  0  0  0  0  0  0  0
  -28.6257  -13.2665   20.8393 C   0  0  0  0  0  0  0  0  0  0  0  0
  -27.0692  -29.8789   22.6006 C   0  0  1  0  0  0  0  0  0  0  0  0
  -26.7350  -27.3069   25.3766 C   0  0  1  0  0  0  0  0  0  0  0  0
  -27.6084  -13.1710   19.6906 C   0  0  2  0  0  0  0  0  0  0  0  0
  -29.9327  -20.9538   24.6730 C   0  0  1  0  0  0  0  0  0  1  0  0
  -29.1155  -26.0162   32.6340 C   0  0  0  0  0  0  0  0  0  0  0  0
  -30.5648  -29.2766   27.0538 C   0  0  0  0  0  0  0  0  0  0  0  0
  -31.2600  -28.5137   29.3347 C   0  0  0  0  0  0  0  0  0  0  0  0
  -29.2939  -30.0265   29.0729 C   0  0  0  0  0  0  0  0  0  0  0  0
  -26.6520  -23.9086   30.6427 C   0  0  0  0  0  0  0  0  0  0  0  0
  -29.0984  -27.6065   28.3676 C   0  0  1  0  0  0  0  0  0  0  0  0
  -28.1312  -25.7237   31.5123 C   0  0  2  0  0  0  0  0  0  0  0  0
  -30.0463  -28.8370   28.4375 C   0  0  0  0  0  0  0  0  0  0  0  0
  -31.8250  -17.2492   21.6269 N   0  0  0  0  0  0  0  0  0  0  0  0
  -25.8473  -11.5357   20.2435 N   0  0  0  0  0  0  0  0  0  0  0  0
  -26.2175  -12.8265   20.1895 N   0  0  0  0  0  0  0  0  0  0  0  0
  -27.7550  -26.9973   26.3805 N   0  0  0  0  0  0  0  0  0  0  0  0
  -29.9529  -13.6118   20.3063 N   0  0  0  0  0  0  0  0  0  0  0  0
  -25.4588  -15.0287   20.6196 N   0  0  0  0  0  0  0  0  0  0  0  0
  -21.9252  -12.4649   21.7756 N   0  0  0  0  0  0  0  0  0  0  0  0
  -30.1042  -15.6103   21.5495 N   0  0  0  0  0  0  0  0  0  0  0  0
  -26.6127  -29.0244   23.6757 N   0  0  0  0  0  0  0  0  0  0  0  0
  -28.5705  -27.1846   29.6605 N   0  0  0  0  0  0  0  0  0  0  0  0
  -27.6451  -24.3235   31.6668 N   0  3  0  0  0  0  0  0  0  0  0  0
  -22.6871  -14.6217   21.6141 O   0  0  0  0  0  0  0  0  0  0  0  0
  -28.5867  -27.8353   24.0103 O   0  0  0  0  0  0  0  0  0  0  0  0
  -27.1190  -28.7648   27.7618 O   0  0  0  0  0  0  0  0  0  0  0  0
  -29.3982  -25.0201   29.5792 O   0  0  0  0  0  0  0  0  0  0  0  0
  -31.8306  -14.9509   20.1472 O   0  0  0  0  0  0  0  0  0  0  0  0
  -21.6624   -6.9065   21.5107 O   0  0  0  0  0  0  0  0  0  0  0  0
  -29.5032  -21.7797   23.5925 O   0  0  0  0  0  0  0  0  0  1  0  0
  -18.8523   -6.4187   26.2298 F   0  0  0  0  0  0  0  0  0  0  0  0
  -22.1884   -4.8375   23.2673 F   0  0  0  0  0  0  0  0  0  0  0  0
  1  2  1  0  0  0  0
  1  5  2  0  0  0  0
  2  6  2  0  0  0  0
  3  8  2  0  0  0  0
  3 17  1  0  0  0  0
  4  9  1  0  0  0  0
  4 17  2  0  0  0  0
  5 19  1  0  0  0  0
  6 21  1  0  0  0  0
  7 10  2  0  0  0  0
  7 20  1  0  0  0  0
  8 25  1  0  0  0  0
  9 25  2  0  0  0  0
 10 26  1  0  0  0  0
 11 12  2  0  0  0  0
 11 27  1  0  0  0  0
 12 28  1  0  0  0  0
 13 22  1  0  0  0  0
 13 26  2  0  0  0  0
 14 23  1  0  0  0  0
 14 31  2  0  0  0  0
 15 28  2  0  0  0  0
 15 29  1  0  0  0  0
 16 24  1  0  0  0  0
 16 62  2  0  0  0  0
 17 30  1  0  0  0  0
 18 30  1  0  0  0  0
 18 32  2  0  0  0  0
 18 33  1  0  0  0  0
 19 21  2  0  0  0  0
 19 38  1  0  0  0  0
 20 22  2  0  0  0  0
 20 39  1  0  0  0  0
 21 50  1  0  0  0  0
 22 42  1  0  0  0  0
 23 24  2  0  0  0  0
 23 40  1  0  0  0  0
 24 41  1  0  0  0  0
 25 78  1  0  0  0  0
 26 79  1  0  0  0  0
 27 29  2  0  0  0  0
 27 78  1  0  0  0  0
 28 80  1  0  0  0  0
 29 81  1  0  0  0  0
 30 63  2  0  0  0  0
 31 62  1  0  0  0  0
 31 69  1  0  0  0  0
 32 64  1  0  0  0  0
 32 67  1  0  0  0  0
 33 68  1  0  0  0  0
 33 73  2  0  0  0  0
 34 51  1  0  0  0  0
 34 70  1  0  0  0  0
 34 74  2  0  0  0  0
 35 59  1  0  0  0  0
 35 65  1  0  0  0  0
 35 75  2  0  0  0  0
 36 60  1  0  0  0  0
 36 71  1  0  0  0  0
 36 76  2  0  0  0  0
 37 66  1  0  0  0  0
 37 69  1  0  0  0  0
 37 77  2  0  0  0  0
 38 43  1  0  0  0  0
 39 51  1  0  0  0  0
 40 53  1  0  0  0  0
 41 44  1  0  0  0  0
 42 65  1  0  0  0  0
 43 46  1  0  0  0  0
 44 53  1  0  0  0  0
 45 47  1  0  0  0  0
 45 48  1  0  0  0  0
 46 50  1  0  0  0  0
 47 52  1  0  0  0  0
 48 66  1  0  0  0  0
 49 52  1  0  0  0  0
 49 66  1  0  0  0  0
 50 70  1  0  0  0  0
 51 65  1  0  0  0  0
 52 64  1  0  0  0  0
 53 79  1  0  0  0  0
 54 60  1  0  0  0  0
 55 61  1  0  0  0  0
 56 61  1  0  0  0  0
 57 61  1  0  0  0  0
 58 72  1  0  0  0  0
 59 61  1  0  0  0  0
 59 71  1  0  0  0  0
 60 72  1  0  0  0  0
 63 64  1  0  0  0  0
M  CHG  1  72   1
M  ISO  4  37 100  53 101  69 100  79 101
M  END
> <Batch ID>
0149

> <Smiles>
CNC(C)C(=O)NC(C(=O)N1Cc2cc([101O:1][101CH:1]3CCc4cnc([100NH:0][100C:0](=O)N5CCCC(n6nc(-c7ccc(Oc8ccc(F)cc8F)cc7)c(C(N)=O)c6N)C5)cc4C3)ccc2CC1C(=O)NC1CCCc2ccccc21)C(C)(C)C

> <Shape>
0.244

> <Color>
0.207

> <Negative vol penalty>
0.000

$$$$

  -OEChem-04052321383D

 89 98  0     1  0  0  0  0  0999 V2000
  -28.0265  -38.2739   23.9779 C   0  0  0  0  0  0  0  0  0  0  0  0
  -28.6235  -37.0863   24.3882 C   0  0  0  0  0  0  0  0  0  0  0  0
  -23.2280  -10.3986   21.7516 C   0  0  0  0  0  0  0  0  0  0  0  0
  -24.5623   -8.5294   21.0015 C   0  0  0  0  0  0  0  0  0  0  0  0
  -26.6366  -38.3765   23.9375 C   0  0  0  0  0  0  0  0  0  0  0  0
  -27.8310  -36.0007   24.7595 C   0  0  0  0  0  0  0  0  0  0  0  0
  -28.3823  -29.6727   21.3619 C   0  0  0  0  0  0  0  0  0  0  0  0
  -22.0652   -9.6786   21.4774 C   0  0  0  0  0  0  0  0  0  0  0  0
  -23.3995   -7.8093   20.7274 C   0  0  0  0  0  0  0  0  0  0  0  0
  -28.5775  -28.3705   20.9012 C   0  0  0  0  0  0  0  0  0  0  0  0
  -21.0968   -6.0457   22.4616 C   0  0  0  0  0  0  0  0  0  0  0  0
  -21.0473   -4.7150   22.8768 C   0  0  0  0  0  0  0  0  0  0  0  0
  -26.7681  -27.5916   22.3039 C   0  0  0  0  0  0  0  0  0  0  0  0
  -29.4329  -23.0874   15.5621 C   0  0  0  0  0  0  0  0  0  0  0  0
  -27.9498  -22.9246   17.4622 C   0  0  0  0  0  0  0  0  0  0  0  0
  -28.6149  -25.0935   16.6313 C   0  0  0  0  0  0  0  0  0  0  0  0
  -20.7373   -4.0118   20.5863 C   0  0  0  0  0  0  0  0  0  0  0  0
  -24.4765   -9.8240   21.5136 C   0  0  0  0  0  0  0  0  0  0  0  0
  -26.3964  -10.5943   23.0064 C   0  0  0  0  0  0  0  0  0  0  0  0
  -25.8266  -37.2885   24.2992 C   0  0  0  0  0  0  0  0  0  0  0  0
  -27.3680  -29.9422   22.2849 C   0  0  0  0  0  0  0  0  0  0  0  0
  -26.4289  -36.0893   24.7252 C   0  0  0  0  0  0  0  0  0  0  0  0
  -26.5598  -28.8961   22.7596 C   0  0  0  0  0  0  0  0  0  0  0  0
  -28.7169  -22.3101   16.4725 C   0  0  0  0  0  0  0  0  0  0  0  0
  -29.3820  -24.4791   15.6415 C   0  0  0  0  0  0  0  0  0  0  0  0
  -22.1510   -8.3840   20.9654 C   0  0  0  0  0  0  0  0  0  0  0  0
  -27.7725  -27.3325   21.3713 C   0  0  0  0  0  0  0  0  0  0  0  0
  -20.9664   -6.3595   21.1087 C   0  0  0  0  0  0  0  0  0  0  0  0
  -27.8987  -24.3163   17.5417 C   0  0  0  0  0  0  0  0  0  0  0  0
  -20.8676   -3.6981   21.9392 C   0  0  0  0  0  0  0  0  0  0  0  0
  -20.7867   -5.3425   20.1711 C   0  0  0  0  0  0  0  0  0  0  0  0
  -25.6780  -10.5675   21.7960 C   0  0  0  0  0  0  0  0  0  0  0  0
  -27.4488  -11.4424   22.7624 C   0  0  0  0  0  0  0  0  0  0  0  0
  -26.1356   -9.9134   24.2410 C   0  0  0  0  0  0  0  0  0  0  0  0
  -25.5779  -32.5133   24.3491 C   0  0  0  0  0  0  0  0  0  0  0  0
  -23.4396  -30.6113   23.2444 C   0  0  0  0  0  0  0  0  0  0  0  0
  -21.3654  -28.5476   21.4906 C   0  0  0  0  0  0  0  0  0  0  0  0
  -27.8859  -15.8288   18.6292 C   0  0  0  0  0  0  0  0  0  0  0  0
  -24.3286  -37.4623   24.2847 C   0  0  0  0  0  0  0  0  0  0  0  0
  -27.1617  -31.3193   22.8550 C   0  0  0  0  0  0  0  0  0  0  0  0
  -25.5035  -29.2271   23.7782 C   0  0  0  0  0  0  0  0  0  0  0  0
  -23.5618  -36.1433   24.3360 C   0  0  0  0  0  0  0  0  0  0  0  0
  -30.2446  -13.0288   19.2222 C   0  0  0  0  0  0  0  0  0  0  0  0
  -24.1406  -35.2309   25.4127 C   0  0  0  0  0  0  0  0  0  0  0  0
  -29.3706  -12.0654   20.0265 C   0  0  0  0  0  0  0  0  0  0  0  0
  -30.6898  -18.1978   18.4364 C   0  0  0  0  0  0  0  0  0  0  0  0
  -29.4039  -13.8418   18.2464 C   0  0  0  0  0  0  0  0  0  0  0  0
  -30.2828  -16.7287   18.4911 C   0  0  0  0  0  0  0  0  0  0  0  0
  -27.4130  -13.6495   19.6874 C   0  0  0  0  0  0  0  0  0  0  0  0
  -28.4503  -18.0297   17.6375 C   0  0  0  0  0  0  0  0  0  0  0  0
  -25.6031  -34.8815   25.1119 C   0  0  1  0  0  0  0  0  0  0  0  0
  -25.6825  -31.6425   23.1317 C   0  0  1  0  0  0  0  0  0  0  0  0
  -28.2031  -12.8062   20.7038 C   0  0  1  0  0  0  0  0  0  0  0  0
  -29.7640  -18.7355   17.3554 C   0  0  1  0  0  0  0  0  0  0  0  0
  -18.9343  -28.0362   21.1362 C   0  0  0  0  0  0  0  0  0  0  0  0
  -23.3519  -29.1806   25.9368 C   0  0  0  0  0  0  0  0  0  0  0  0
  -21.3364  -27.9343   25.1288 C   0  0  0  0  0  0  0  0  0  0  0  0
  -21.2612  -30.4183   25.3442 C   0  0  0  0  0  0  0  0  0  0  0  0
  -21.5266  -29.2099   18.6106 C   0  0  0  0  0  0  0  0  0  0  0  0
  -28.7727  -20.8133   16.3867 C   0  0  0  0  0  0  0  0  0  0  0  0
  -26.8233  -25.2108   20.8646 C   0  0  0  0  0  0  0  0  0  1  0  0
  -26.9921  -24.2103   19.7377 C   0  0  0  0  0  0  0  0  0  0  0  0
  -30.1479  -25.3105   14.6689 C   0  0  0  0  0  0  0  0  0  0  0  0
  -22.6050  -29.3766   23.4731 C   0  0  1  0  0  0  0  0  0  0  0  0
  -20.1343  -28.8339   20.6499 C   0  0  2  0  0  0  0  0  0  0  0  0
  -22.1631  -29.2264   24.9562 C   0  0  0  0  0  0  0  0  0  0  0  0
  -26.2276  -11.3375   20.8531 N   0  0  0  0  0  0  0  0  0  0  0  0
  -27.3024  -11.8562   21.4711 N   0  0  0  0  0  0  0  0  0  0  0  0
  -24.8238  -30.4785   23.4087 N   0  0  0  0  0  0  0  0  0  0  0  0
  -28.3095  -14.5308   18.9361 N   0  0  0  0  0  0  0  0  0  0  0  0
  -28.8486  -16.7335   18.1840 N   0  0  0  0  0  0  0  0  0  0  0  0
  -28.4759  -11.8672   23.5286 N   0  0  0  0  0  0  0  0  0  0  0  0
  -25.0114   -9.0802   24.3199 N   0  0  0  0  0  0  0  0  0  0  0  0
  -25.6790  -33.8657   24.0839 N   0  0  0  0  0  0  0  0  0  0  0  0
  -21.4991  -29.4500   22.5245 N   0  0  0  0  0  0  0  0  0  0  0  0
  -29.6221  -20.1977   17.4492 N   0  3  0  0  0  0  0  0  0  0  0  0
  -20.3869  -28.4808   19.2243 N   0  3  0  0  0  0  0  0  0  0  0  0
  -26.8684  -10.0529   25.2495 O   0  0  0  0  0  0  0  0  0  0  0  0
  -25.4158  -31.9975   25.4488 O   0  0  0  0  0  0  0  0  0  0  0  0
  -22.8816  -31.6675   22.9340 O   0  0  0  0  0  0  0  0  0  0  0  0
  -22.1299  -27.6143   21.2559 O   0  0  0  0  0  0  0  0  0  0  0  0
  -26.7092  -16.1781   18.7919 O   0  0  0  0  0  0  0  0  0  0  0  0
  -21.0166   -7.6810   20.6980 O   0  0  0  0  0  0  0  0  0  0  0  0
  -27.9669  -26.0557   20.9108 O   0  0  0  0  0  0  0  0  0  1  0  0
  -27.1505  -24.9159   18.5078 O   0  0  0  0  0  0  0  0  0  0  0  0
  -20.8216   -2.4202   22.3379 F   0  0  0  0  0  0  0  0  0  0  0  0
  -20.6621   -5.6377   18.8699 F   0  0  0  0  0  0  0  0  0  0  0  0
  -31.2812  -24.6727   14.2744 F   0  0  0  0  0  0  0  0  0  0  0  0
  -30.5425  -26.4796   15.2384 F   0  0  0  0  0  0  0  0  0  0  0  0
  1  2  1  0  0  0  0
  1  5  2  0  0  0  0
  2  6  2  0  0  0  0
  3  8  2  0  0  0  0
  3 18  1  0  0  0  0
  4  9  1  0  0  0  0
  4 18  2  0  0  0  0
  5 20  1  0  0  0  0
  6 22  1  0  0  0  0
  7 10  2  0  0  0  0
  7 21  1  0  0  0  0
  8 26  1  0  0  0  0
  9 26  2  0  0  0  0
 10 27  1  0  0  0  0
 11 12  2  0  0  0  0
 11 28  1  0  0  0  0
 12 30  1  0  0  0  0
 13 23  1  0  0  0  0
 13 27  2  0  0  0  0
 14 24  1  0  0  0  0
 14 25  2  0  0  0  0
 15 24  2  0  0  0  0
 15 29  1  0  0  0  0
 16 25  1  0  0  0  0
 16 29  2  0  0  0  0
 17 30  2  0  0  0  0
 17 31  1  0  0  0  0
 18 32  1  0  0  0  0
 19 32  1  0  0  0  0
 19 33  2  0  0  0  0
 19 34  1  0  0  0  0
 20 22  2  0  0  0  0
 20 39  1  0  0  0  0
 21 23  2  0  0  0  0
 21 40  1  0  0  0  0
 22 51  1  0  0  0  0
 23 41  1  0  0  0  0
 24 60  1  0  0  0  0
 25 63  1  0  0  0  0
 26 83  1  0  0  0  0
 27 84  1  0  0  0  0
 28 31  2  0  0  0  0
 28 83  1  0  0  0  0
 29 85  1  0  0  0  0
 30 86  1  0  0  0  0
 31 87  1  0  0  0  0
 32 67  2  0  0  0  0
 33 68  1  0  0  0  0
 33 72  1  0  0  0  0
 34 73  1  0  0  0  0
 34 78  2  0  0  0  0
 35 52  1  0  0  0  0
 35 74  1  0  0  0  0
 35 79  2  0  0  0  0
 36 64  1  0  0  0  0
 36 69  1  0  0  0  0
 36 80  2  0  0  0  0
 37 65  1  0  0  0  0
 37 75  1  0  0  0  0
 37 81  2  0  0  0  0
 38 70  1  0  0  0  0
 38 71  1  0  0  0  0
 38 82  2  0  0  0  0
 39 42  1  0  0  0  0
 40 52  1  0  0  0  0
 41 69  1  0  0  0  0
 42 44  1  0  0  0  0
 43 45  1  0  0  0  0
 43 47  1  0  0  0  0
 44 51  1  0  0  0  0
 45 53  1  0  0  0  0
 46 48  1  0  0  0  0
 46 54  1  0  0  0  0
 47 70  1  0  0  0  0
 48 71  1  0  0  0  0
 49 53  1  0  0  0  0
 49 70  1  0  0  0  0
 50 54  1  0  0  0  0
 50 71  1  0  0  0  0
 51 74  1  0  0  0  0
 52 69  1  0  0  0  0
 53 68  1  0  0  0  0
 54 76  1  0  0  0  0
 55 65  1  0  0  0  0
 56 66  1  0  0  0  0
 57 66  1  0  0  0  0
 58 66  1  0  0  0  0
 59 77  1  0  0  0  0
 60 76  1  0  0  0  0
 61 62  1  0  0  0  0
 61 84  1  0  0  0  0
 62 85  1  0  0  0  0
 63 88  1  0  0  0  0
 63 89  1  0  0  0  0
 64 66  1  0  0  0  0
 64 75  1  0  0  0  0
 65 77  1  0  0  0  0
 67 68  1  0  0  0  0
M  CHG  2  76   1  77   1
M  ISO  4  38 100  61 101  71 100  84 101
M  END
> <Batch ID>
0149

> <Smiles>
CNC(C)C(=O)NC(C(=O)N1Cc2cc([101O:1][101CH2:1]COc3cc(CNC4CC[100N:0]([100C:0](=O)N5CCCC(n6nc(-c7ccc(Oc8ccc(F)cc8F)cc7)c(C(N)=O)c6N)C5)C4)cc(C(F)F)c3)ccc2CC1C(=O)NC1CCCc2ccccc21)C(C)(C)C

> <Shape>
0.275

> <Color>
0.097

> <Negative vol penalty>
0.000

$$$$

  -OEChem-04052321383D

 88 97  0     1  0  0  0  0  0999 V2000
  -32.0479  -15.4626   19.3229 C   0  0  0  0  0  0  0  0  0  0  0  0
  -30.9898  -16.3649   19.2818 C   0  0  0  0  0  0  0  0  0  0  0  0
  -27.8063  -25.0365   19.7213 C   0  0  0  0  0  0  0  0  0  0  0  0
  -29.9877  -26.0644   19.8700 C   0  0  0  0  0  0  0  0  0  0  0  0
  -31.7944  -14.0985   19.4603 C   0  0  0  0  0  0  0  0  0  0  0  0
  -29.6774  -15.9034   19.3770 C   0  0  0  0  0  0  0  0  0  0  0  0
  -26.8648  -18.6846   22.5392 C   0  0  0  0  0  0  0  0  0  0  0  0
  -19.6329  -24.4105   22.8340 C   0  0  0  0  0  0  0  0  0  0  0  0
  -28.1715  -24.4357   18.5166 C   0  0  0  0  0  0  0  0  0  0  0  0
  -30.3529  -25.4636   18.6653 C   0  0  0  0  0  0  0  0  0  0  0  0
  -26.3928  -19.9072   22.0637 C   0  0  0  0  0  0  0  0  0  0  0  0
  -20.6930  -23.5090   22.7388 C   0  0  0  0  0  0  0  0  0  0  0  0
  -29.9928  -21.7690   17.5144 C   0  0  0  0  0  0  0  0  0  0  0  0
  -29.6736  -20.4226   17.3386 C   0  0  0  0  0  0  0  0  0  0  0  0
  -24.2441  -18.9012   21.6274 C   0  0  0  0  0  0  0  0  0  0  0  0
  -22.2372  -25.3508   22.4935 C   0  0  0  0  0  0  0  0  0  0  0  0
  -28.3356  -20.9917   15.4091 C   0  0  0  0  0  0  0  0  0  0  0  0
  -28.7144  -25.8509   20.3980 C   0  0  0  0  0  0  0  0  0  0  0  0
  -28.4975  -25.9457   22.9380 C   0  0  0  0  0  0  0  0  0  0  0  0
  -30.4787  -13.6210   19.5670 C   0  0  0  0  0  0  0  0  0  0  0  0
  -26.0320  -17.5565   22.5523 C   0  0  0  0  0  0  0  0  0  0  0  0
  -29.4060  -14.5315   19.5147 C   0  0  0  0  0  0  0  0  0  0  0  0
  -24.7072  -17.6660   22.1060 C   0  0  0  0  0  0  0  0  0  0  0  0
  -21.1771  -26.2523   22.5887 C   0  0  0  0  0  0  0  0  0  0  0  0
  -19.8749  -25.7822   22.7589 C   0  0  0  0  0  0  0  0  0  0  0  0
  -29.4448  -24.6493   17.9886 C   0  0  0  0  0  0  0  0  0  0  0  0
  -25.0832  -20.0150   21.6050 C   0  0  0  0  0  0  0  0  0  0  0  0
  -21.9952  -23.9792   22.5686 C   0  0  0  0  0  0  0  0  0  0  0  0
  -29.4832  -22.7268   16.6377 C   0  0  0  0  0  0  0  0  0  0  0  0
  -28.8451  -20.0339   16.2859 C   0  0  0  0  0  0  0  0  0  0  0  0
  -28.6547  -22.3382   15.5850 C   0  0  0  0  0  0  0  0  0  0  0  0
  -28.3375  -26.4722   21.6422 C   0  0  0  0  0  0  0  0  0  0  0  0
  -27.9857  -26.9136   23.7674 C   0  0  0  0  0  0  0  0  0  0  0  0
  -29.0585  -24.6938   23.3547 C   0  0  0  0  0  0  0  0  0  0  0  0
  -26.0998  -14.7019   21.1557 C   0  0  0  0  0  0  0  0  0  0  0  0
  -23.5138  -14.1532   23.0355 C   0  0  0  0  0  0  0  0  0  0  0  0
  -20.8912  -15.4371   24.8019 C   0  0  0  0  0  0  0  0  0  0  0  0
  -23.9933  -31.1615   23.1565 C   0  0  0  0  0  0  0  0  0  0  0  0
  -30.2522  -12.1332   19.6666 C   0  0  0  0  0  0  0  0  0  0  0  0
  -26.5481  -16.2514   23.0933 C   0  0  0  0  0  0  0  0  0  0  0  0
  -23.7666  -16.4898   22.1180 C   0  0  0  0  0  0  0  0  0  0  0  0
  -28.8487  -11.7610   20.1377 C   0  0  0  0  0  0  0  0  0  0  0  0
  -27.2980  -31.6342   24.0552 C   0  0  0  0  0  0  0  0  0  0  0  0
  -27.7996  -12.5700   19.3816 C   0  0  0  0  0  0  0  0  0  0  0  0
  -27.9696  -30.3160   23.6701 C   0  0  0  0  0  0  0  0  0  0  0  0
  -21.6827  -28.3657   23.8913 C   0  0  0  0  0  0  0  0  0  0  0  0
  -22.6570  -28.0432   21.5788 C   0  0  0  0  0  0  0  0  0  0  0  0
  -26.2933  -32.0664   22.9930 C   0  0  0  0  0  0  0  0  0  0  0  0
  -21.9965  -29.8565   23.7905 C   0  0  0  0  0  0  0  0  0  0  0  0
  -22.9470  -29.5405   21.5294 C   0  0  0  0  0  0  0  0  0  0  0  0
  -25.9014  -29.7206   22.3165 C   0  0  0  0  0  0  0  0  0  0  0  0
  -21.4646  -27.7396   22.5031 C   0  0  0  0  0  0  0  0  0  0  0  0
  -27.9696  -14.0719   19.6398 C   0  0  1  0  0  0  0  0  0  0  0  0
  -25.7702  -15.0430   22.5814 C   0  0  1  0  0  0  0  0  0  0  0  0
  -26.9217  -29.2315   23.3638 C   0  0  1  0  0  0  0  0  0  0  0  0
  -18.0056  -26.6303   24.2217 C   0  0  0  0  0  0  0  0  0  0  0  0
  -17.7090  -26.5459   21.7197 C   0  0  0  0  0  0  0  0  0  0  0  0
  -18.9287  -14.7391   26.2015 C   0  0  0  0  0  0  0  0  0  0  0  0
  -22.0113  -13.3259   20.5119 C   0  0  0  0  0  0  0  0  0  0  0  0
  -19.8725  -13.5623   21.7917 C   0  0  0  0  0  0  0  0  0  0  0  0
  -21.5730  -11.8832   22.5072 C   0  0  0  0  0  0  0  0  0  0  0  0
  -21.9184  -16.8835   27.1708 C   0  0  0  0  0  0  0  0  0  0  0  0
  -25.1858  -22.3889   21.7042 C   0  0  0  0  0  0  0  0  0  1  0  0
  -24.1516  -23.4978   21.6888 C   0  0  0  0  0  0  0  0  0  0  0  0
  -18.7238  -26.7278   22.8633 C   0  0  0  0  0  0  0  0  0  0  0  0
  -22.0236  -14.3421   22.8854 C   0  0  1  0  0  0  0  0  0  0  0  0
  -20.3906  -15.1581   26.2076 C   0  0  2  0  0  0  0  0  0  0  0  0
  -21.3882  -13.3003   21.9219 C   0  0  0  0  0  0  0  0  0  0  0  0
  -27.7685  -27.6806   21.6432 N   0  0  0  0  0  0  0  0  0  0  0  0
  -27.5664  -27.9215   22.9498 N   0  0  0  0  0  0  0  0  0  0  0  0
  -24.3200  -15.2337   22.6505 N   0  0  0  0  0  0  0  0  0  0  0  0
  -25.3200  -31.0075   22.7263 N   0  0  0  0  0  0  0  0  0  0  0  0
  -23.1094  -30.1067   22.8754 N   0  0  0  0  0  0  0  0  0  0  0  0
  -27.8580  -26.9923   25.1090 N   0  0  0  0  0  0  0  0  0  0  0  0
  -29.5380  -23.8166   22.3724 N   0  0  0  0  0  0  0  0  0  0  0  0
  -27.4360  -14.4251   20.9379 N   0  0  0  0  0  0  0  0  0  0  0  0
  -21.4715  -14.3218   24.2356 N   0  0  0  0  0  0  0  0  0  0  0  0
  -20.5272  -16.3749   27.0571 N   0  3  0  0  0  0  0  0  0  0  0  0
  -29.1174  -24.3559   24.5612 O   0  0  0  0  0  0  0  0  0  0  0  0
  -25.2076  -14.6893   20.3157 O   0  0  0  0  0  0  0  0  0  0  0  0
  -23.9462  -13.0888   23.4846 O   0  0  0  0  0  0  0  0  0  0  0  0
  -20.7754  -16.5337   24.2590 O   0  0  0  0  0  0  0  0  0  0  0  0
  -23.6201  -32.1752   23.7598 O   0  0  0  0  0  0  0  0  0  0  0  0
  -29.8016  -24.0630   16.8132 O   0  0  0  0  0  0  0  0  0  0  0  0
  -24.6169  -21.2151   21.1366 O   0  0  0  0  0  0  0  0  0  1  0  0
  -23.0297  -23.0996   22.4753 O   0  0  0  0  0  0  0  0  0  0  0  0
  -28.5400  -18.7408   16.1162 F   0  0  0  0  0  0  0  0  0  0  0  0
  -28.1631  -23.2537   14.7388 F   0  0  0  0  0  0  0  0  0  0  0  0
  1  2  1  0  0  0  0
  1  5  2  0  0  0  0
  2  6  2  0  0  0  0
  3  9  2  0  0  0  0
  3 18  1  0  0  0  0
  4 10  1  0  0  0  0
  4 18  2  0  0  0  0
  5 20  1  0  0  0  0
  6 22  1  0  0  0  0
  7 11  2  0  0  0  0
  7 21  1  0  0  0  0
  8 12  2  0  0  0  0
  8 25  1  0  0  0  0
  9 26  1  0  0  0  0
 10 26  2  0  0  0  0
 11 27  1  0  0  0  0
 12 28  1  0  0  0  0
 13 14  2  0  0  0  0
 13 29  1  0  0  0  0
 14 30  1  0  0  0  0
 15 23  1  0  0  0  0
 15 27  2  0  0  0  0
 16 24  1  0  0  0  0
 16 28  2  0  0  0  0
 17 30  2  0  0  0  0
 17 31  1  0  0  0  0
 18 32  1  0  0  0  0
 19 32  1  0  0  0  0
 19 33  2  0  0  0  0
 19 34  1  0  0  0  0
 20 22  2  0  0  0  0
 20 39  1  0  0  0  0
 21 23  2  0  0  0  0
 21 40  1  0  0  0  0
 22 53  1  0  0  0  0
 23 41  1  0  0  0  0
 24 25  2  0  0  0  0
 24 52  1  0  0  0  0
 25 65  1  0  0  0  0
 26 84  1  0  0  0  0
 27 85  1  0  0  0  0
 28 86  1  0  0  0  0
 29 31  2  0  0  0  0
 29 84  1  0  0  0  0
 30 87  1  0  0  0  0
 31 88  1  0  0  0  0
 32 69  2  0  0  0  0
 33 70  1  0  0  0  0
 33 74  1  0  0  0  0
 34 75  1  0  0  0  0
 34 79  2  0  0  0  0
 35 54  1  0  0  0  0
 35 76  1  0  0  0  0
 35 80  2  0  0  0  0
 36 66  1  0  0  0  0
 36 71  1  0  0  0  0
 36 81  2  0  0  0  0
 37 67  1  0  0  0  0
 37 77  1  0  0  0  0
 37 82  2  0  0  0  0
 38 72  1  0  0  0  0
 38 73  1  0  0  0  0
 38 83  2  0  0  0  0
 39 42  1  0  0  0  0
 40 54  1  0  0  0  0
 41 71  1  0  0  0  0
 42 44  1  0  0  0  0
 43 45  1  0  0  0  0
 43 48  1  0  0  0  0
 44 53  1  0  0  0  0
 45 55  1  0  0  0  0
 46 49  1  0  0  0  0
 46 52  1  0  0  0  0
 47 50  1  0  0  0  0
 47 52  1  0  0  0  0
 48 72  1  0  0  0  0
 49 73  1  0  0  0  0
 50 73  1  0  0  0  0
 51 55  1  0  0  0  0
 51 72  1  0  0  0  0
 53 76  1  0  0  0  0
 54 71  1  0  0  0  0
 55 70  1  0  0  0  0
 56 65  1  0  0  0  0
 57 65  1  0  0  0  0
 58 67  1  0  0  0  0
 59 68  1  0  0  0  0
 60 68  1  0  0  0  0
 61 68  1  0  0  0  0
 62 78  1  0  0  0  0
 63 64  1  0  0  0  0
 63 85  1  0  0  0  0
 64 86  1  0  0  0  0
 66 68  1  0  0  0  0
 66 77  1  0  0  0  0
 67 78  1  0  0  0  0
 69 70  1  0  0  0  0
M  CHG  1  78   1
M  ISO  4  38 100  63 101  73 100  85 101
M  END
> <Batch ID>
0149

> <Smiles>
CNC(C)C(=O)NC(C(=O)N1Cc2cc([101O:1][101CH2:1]COc3ccc(C(C)C)c(C4CC[100N:0]([100C:0](=O)N5CCCC(n6nc(-c7ccc(Oc8ccc(F)cc8F)cc7)c(C(N)=O)c6N)C5)CC4)c3)ccc2CC1C(=O)NC1CCCc2ccccc21)C(C)(C)C

> <Shape>
0.218

> <Color>
0.049

> <Negative vol penalty>
0.000

$$$$

  -OEChem-04052321383D

 88 98  0     1  0  0  0  0  0999 V2000
  -18.2836  -32.4842   16.9257 C   0  0  0  0  0  0  0  0  0  0  0  0
  -19.4496  -31.7750   16.6554 C   0  0  0  0  0  0  0  0  0  0  0  0
  -25.0802  -13.9985   22.6399 C   0  0  0  0  0  0  0  0  0  0  0  0
  -25.9162  -12.9867   20.6115 C   0  0  0  0  0  0  0  0  0  0  0  0
  -18.2913  -33.4965   17.8843 C   0  0  0  0  0  0  0  0  0  0  0  0
  -20.6241  -32.0785   17.3429 C   0  0  0  0  0  0  0  0  0  0  0  0
  -25.0000  -28.1554   19.0656 C   0  0  0  0  0  0  0  0  0  0  0  0
  -23.9665  -13.1597   22.5993 C   0  0  0  0  0  0  0  0  0  0  0  0
  -24.8025  -12.1479   20.5708 C   0  0  0  0  0  0  0  0  0  0  0  0
  -26.2310  -27.8180   18.5048 C   0  0  0  0  0  0  0  0  0  0  0  0
  -22.3589   -9.4922   20.1302 C   0  0  0  0  0  0  0  0  0  0  0  0
  -22.5725   -8.1424   19.8508 C   0  0  0  0  0  0  0  0  0  0  0  0
  -29.7063  -22.1932   16.5752 C   0  0  0  0  0  0  0  0  0  0  0  0
  -31.4995  -22.0517   18.1879 C   0  0  0  0  0  0  0  0  0  0  0  0
  -27.3228  -29.3953   19.9674 C   0  0  0  0  0  0  0  0  0  0  0  0
  -23.9775   -7.9596   21.8077 C   0  0  0  0  0  0  0  0  0  0  0  0
  -26.0551  -13.9120   21.6460 C   0  0  0  0  0  0  0  0  0  0  0  0
  -28.1693  -14.8640   22.7096 C   0  0  0  0  0  0  0  0  0  0  0  0
  -19.4642  -33.8061   18.5908 C   0  0  0  0  0  0  0  0  0  0  0  0
  -24.9197  -29.1249   20.0757 C   0  0  0  0  0  0  0  0  0  0  0  0
  -20.6478  -33.0968   18.3110 C   0  0  0  0  0  0  0  0  0  0  0  0
  -30.4745  -22.7780   17.5819 C   0  0  0  0  0  0  0  0  0  0  0  0
  -26.0899  -29.7414   20.5412 C   0  0  0  0  0  0  0  0  0  0  0  0
  -29.9631  -20.8820   16.1746 C   0  0  0  0  0  0  0  0  0  0  0  0
  -31.7564  -20.7405   17.7873 C   0  0  0  0  0  0  0  0  0  0  0  0
  -30.9882  -20.1557   16.7806 C   0  0  0  0  0  0  0  0  0  0  0  0
  -23.8276  -12.2344   21.5648 C   0  0  0  0  0  0  0  0  0  0  0  0
  -27.3923  -28.4401   18.9537 C   0  0  0  0  0  0  0  0  0  0  0  0
  -22.9547  -10.0757   21.2484 C   0  0  0  0  0  0  0  0  0  0  0  0
  -23.3818   -7.3761   20.6895 C   0  0  0  0  0  0  0  0  0  0  0  0
  -23.7640   -9.3094   22.0871 C   0  0  0  0  0  0  0  0  0  0  0  0
  -27.2055  -14.7786   21.6871 C   0  0  0  0  0  0  0  0  0  0  0  0
  -29.0469  -15.8270   22.2748 C   0  0  0  0  0  0  0  0  0  0  0  0
  -28.2630  -14.1378   23.9423 C   0  0  0  0  0  0  0  0  0  0  0  0
  -23.5036  -31.9564   20.3596 C   0  0  0  0  0  0  0  0  0  0  0  0
  -24.5591  -31.7416   23.4194 C   0  0  0  0  0  0  0  0  0  0  0  0
  -26.7979  -30.4116   25.6252 C   0  0  0  0  0  0  0  0  0  0  0  0
  -30.6073  -17.7063   16.9897 C   0  0  0  0  0  0  0  0  0  0  0  0
  -19.4352  -34.9405   19.5843 C   0  0  0  0  0  0  0  0  0  0  0  0
  -23.5874  -29.4583   20.6889 C   0  0  0  0  0  0  0  0  0  0  0  0
  -26.0601  -30.7739   21.6373 C   0  0  0  0  0  0  0  0  0  0  0  0
  -20.6292  -34.9479   20.5354 C   0  0  0  0  0  0  0  0  0  0  0  0
  -29.2668  -19.7559   19.5649 C   0  0  0  0  0  0  0  0  0  0  0  0
  -28.7845  -24.3549   18.6156 C   0  0  0  0  0  0  0  0  0  0  0  0
  -30.4195  -25.2077   16.8724 C   0  0  0  0  0  0  0  0  0  0  0  0
  -21.9281  -34.7393   19.7632 C   0  0  0  0  0  0  0  0  0  0  0  0
  -28.6666  -18.7101   20.5039 C   0  0  0  0  0  0  0  0  0  0  0  0
  -32.1626  -18.4392   13.9726 C   0  0  0  0  0  0  0  0  0  0  0  0
  -32.8922  -19.6187   14.5428 C   0  0  0  0  0  0  0  0  0  0  0  0
  -28.5170  -25.7912   19.0580 C   0  0  0  0  0  0  0  0  0  0  0  0
  -30.1438  -26.6394   17.3244 C   0  0  0  0  0  0  0  0  0  0  0  0
  -29.0537  -19.3947   18.0944 C   0  0  0  0  0  0  0  0  0  0  0  0
  -28.9277  -16.9920   18.6736 C   0  0  0  0  0  0  0  0  0  0  0  0
  -30.1949  -24.2047   18.0180 C   0  0  0  0  0  0  0  0  0  0  0  0
  -21.9357  -33.3800   19.0535 C   0  0  1  0  0  0  0  0  0  0  0  0
  -23.5623  -30.8312   21.3537 C   0  0  1  0  0  0  0  0  0  0  0  0
  -29.1766  -17.3000   20.1582 C   0  0  2  0  0  0  0  0  0  0  0  0
  -32.3722  -18.5446   15.4584 C   0  0  0  0  0  0  0  0  0  0  0  0
  -28.7454  -26.7841   17.9198 C   0  0  0  0  0  0  0  0  0  1  0  0
  -29.1226  -20.2826   15.0937 C   0  0  0  0  0  0  0  0  0  0  0  0
  -32.8617  -19.9878   18.4551 C   0  0  0  0  0  0  0  0  0  0  0  0
  -27.4335  -30.4524   28.0525 C   0  0  0  0  0  0  0  0  0  0  0  0
  -25.8601  -34.4739   23.0303 C   0  0  0  0  0  0  0  0  0  0  0  0
  -27.2328  -34.0344   25.0774 C   0  0  0  0  0  0  0  0  0  0  0  0
  -24.7469  -34.1547   25.2469 C   0  0  0  0  0  0  0  0  0  0  0  0
  -26.2711  -27.5154   25.9314 C   0  0  0  0  0  0  0  0  0  0  0  0
  -25.8185  -32.1463   24.1468 C   0  0  1  0  0  0  0  0  0  0  0  0
  -26.6080  -29.7566   26.9814 C   0  0  2  0  0  0  0  0  0  0  0  0
  -25.9152  -33.6843   24.3533 C   0  0  0  0  0  0  0  0  0  0  0  0
  -27.4477  -15.6202   20.6786 N   0  0  0  0  0  0  0  0  0  0  0  0
  -28.5736  -16.2438   21.0654 N   0  0  0  0  0  0  0  0  0  0  0  0
  -24.7326  -31.0704   22.2007 N   0  0  0  0  0  0  0  0  0  0  0  0
  -29.5175  -18.0271   17.8214 N   0  0  0  0  0  0  0  0  0  0  0  0
  -30.1694  -16.3495   22.8127 N   0  0  0  0  0  0  0  0  0  0  0  0
  -28.9792  -12.9331   23.9553 N   0  0  0  0  0  0  0  0  0  0  0  0
  -22.2208  -32.3193   19.9959 N   0  0  0  0  0  0  0  0  0  0  0  0
  -25.8408  -31.3746   25.3847 N   0  0  0  0  0  0  0  0  0  0  0  0
  -31.2545  -18.7973   16.3657 N   0  0  0  0  0  0  0  0  0  0  0  0
  -27.0190  -28.3251   26.9274 N   0  3  0  0  0  0  0  0  0  0  0  0
  -27.7137  -14.5368   24.9971 O   0  0  0  0  0  0  0  0  0  0  0  0
  -24.5448  -32.4592   19.9539 O   0  0  0  0  0  0  0  0  0  0  0  0
  -23.4618  -32.0047   23.9178 O   0  0  0  0  0  0  0  0  0  0  0  0
  -27.7067  -30.1026   24.8576 O   0  0  0  0  0  0  0  0  0  0  0  0
  -30.9552  -16.5355   16.7945 O   0  0  0  0  0  0  0  0  0  0  0  0
  -22.7411  -11.4157   21.5249 O   0  0  0  0  0  0  0  0  0  0  0  0
  -28.5951  -28.1130   18.4076 O   0  0  0  0  0  0  0  0  0  1  0  0
  -23.5855   -6.0795   20.4219 F   0  0  0  0  0  0  0  0  0  0  0  0
  -24.3381   -9.8641   23.1635 F   0  0  0  0  0  0  0  0  0  0  0  0
  1  2  1  0  0  0  0
  1  5  2  0  0  0  0
  2  6  2  0  0  0  0
  3  8  2  0  0  0  0
  3 17  1  0  0  0  0
  4  9  1  0  0  0  0
  4 17  2  0  0  0  0
  5 19  1  0  0  0  0
  6 21  1  0  0  0  0
  7 10  2  0  0  0  0
  7 20  1  0  0  0  0
  8 27  1  0  0  0  0
  9 27  2  0  0  0  0
 10 28  1  0  0  0  0
 11 12  2  0  0  0  0
 11 29  1  0  0  0  0
 12 30  1  0  0  0  0
 13 22  1  0  0  0  0
 13 24  2  0  0  0  0
 14 22  2  0  0  0  0
 14 25  1  0  0  0  0
 15 23  1  0  0  0  0
 15 28  2  0  0  0  0
 16 30  2  0  0  0  0
 16 31  1  0  0  0  0
 17 32  1  0  0  0  0
 18 32  1  0  0  0  0
 18 33  2  0  0  0  0
 18 34  1  0  0  0  0
 19 21  2  0  0  0  0
 19 39  1  0  0  0  0
 20 23  2  0  0  0  0
 20 40  1  0  0  0  0
 21 55  1  0  0  0  0
 22 54  1  0  0  0  0
 23 41  1  0  0  0  0
 24 26  1  0  0  0  0
 24 60  1  0  0  0  0
 25 26  2  0  0  0  0
 25 61  1  0  0  0  0
 26 78  1  0  0  0  0
 27 85  1  0  0  0  0
 28 86  1  0  0  0  0
 29 31  2  0  0  0  0
 29 85  1  0  0  0  0
 30 87  1  0  0  0  0
 31 88  1  0  0  0  0
 32 70  2  0  0  0  0
 33 71  1  0  0  0  0
 33 74  1  0  0  0  0
 34 75  1  0  0  0  0
 34 80  2  0  0  0  0
 35 56  1  0  0  0  0
 35 76  1  0  0  0  0
 35 81  2  0  0  0  0
 36 67  1  0  0  0  0
 36 72  1  0  0  0  0
 36 82  2  0  0  0  0
 37 68  1  0  0  0  0
 37 77  1  0  0  0  0
 37 83  2  0  0  0  0
 38 73  1  0  0  0  0
 38 78  1  0  0  0  0
 38 84  2  0  0  0  0
 39 42  1  0  0  0  0
 40 56  1  0  0  0  0
 41 72  1  0  0  0  0
 42 46  1  0  0  0  0
 43 47  1  0  0  0  0
 43 52  1  0  0  0  0
 44 50  1  0  0  0  0
 44 54  1  0  0  0  0
 45 51  1  0  0  0  0
 45 54  1  0  0  0  0
 46 55  1  0  0  0  0
 47 57  1  0  0  0  0
 48 49  1  0  0  0  0
 48 58  1  0  0  0  0
 49 58  1  0  0  0  0
 50 59  1  0  0  0  0
 51 59  1  0  0  0  0
 52 73  1  0  0  0  0
 53 57  1  0  0  0  0
 53 73  1  0  0  0  0
 55 76  1  0  0  0  0
 56 72  1  0  0  0  0
 57 71  1  0  0  0  0
 58 78  1  0  0  0  0
 59 86  1  0  0  0  0
 62 68  1  0  0  0  0
 63 69  1  0  0  0  0
 64 69  1  0  0  0  0
 65 69  1  0  0  0  0
 66 79  1  0  0  0  0
 67 69  1  0  0  0  0
 67 77  1  0  0  0  0
 68 79  1  0  0  0  0
 70 71  1  0  0  0  0
M  CHG  1  79   1
M  ISO  4  38 100  59 101  78 100  86 101
M  END
> <Batch ID>
0149

> <Smiles>
CNC(C)C(=O)NC(C(=O)N1Cc2cc([101O:1][101CH:1]3CCC(c4cc(C)c([100N:0](C5CC5)[100C:0](=O)N5CCCC(n6nc(-c7ccc(Oc8ccc(F)cc8F)cc7)c(C(N)=O)c6N)C5)c(C)c4)CC3)ccc2CC1C(=O)NC1CCCc2ccccc21)C(C)(C)C

> <Shape>
0.263

> <Color>
0.070

> <Negative vol penalty>
0.000

$$$$

  -OEChem-04052321383D

 87 96  0     1  0  0  0  0  0999 V2000
  -27.7535  -33.1715   26.3037 C   0  0  0  0  0  0  0  0  0  0  0  0
  -27.9572  -32.0256   25.5416 C   0  0  0  0  0  0  0  0  0  0  0  0
  -23.4572  -10.4572   21.6772 C   0  0  0  0  0  0  0  0  0  0  0  0
  -24.9220   -8.5711   22.0428 C   0  0  0  0  0  0  0  0  0  0  0  0
  -26.4711  -33.4948   26.7451 C   0  0  0  0  0  0  0  0  0  0  0  0
  -26.8787  -31.2017   25.2214 C   0  0  0  0  0  0  0  0  0  0  0  0
  -26.9080  -29.7622   20.3663 C   0  0  0  0  0  0  0  0  0  0  0  0
  -22.3805   -9.5876   21.5042 C   0  0  0  0  0  0  0  0  0  0  0  0
  -23.8453   -7.7013   21.8699 C   0  0  0  0  0  0  0  0  0  0  0  0
  -27.7859  -28.7391   20.0108 C   0  0  0  0  0  0  0  0  0  0  0  0
  -21.2251   -6.5906   23.6923 C   0  0  0  0  0  0  0  0  0  0  0  0
  -21.0883   -5.5421   24.6019 C   0  0  0  0  0  0  0  0  0  0  0  0
  -25.9645  -27.1591   20.0840 C   0  0  0  0  0  0  0  0  0  0  0  0
  -29.0694  -22.5216   22.4104 C   0  0  0  0  0  0  0  0  0  0  0  0
  -21.2766   -3.9496   22.7948 C   0  0  0  0  0  0  0  0  0  0  0  0
  -24.7280   -9.9490   21.9465 C   0  0  0  0  0  0  0  0  0  0  0  0
  -26.2829  -11.4237   23.3304 C   0  0  0  0  0  0  0  0  0  0  0  0
  -25.3748  -32.6796   26.4220 C   0  0  0  0  0  0  0  0  0  0  0  0
  -25.5516  -29.4891   20.5943 C   0  0  0  0  0  0  0  0  0  0  0  0
  -25.5807  -31.5137   25.6600 C   0  0  0  0  0  0  0  0  0  0  0  0
  -25.0710  -28.1809   20.4397 C   0  0  0  0  0  0  0  0  0  0  0  0
  -29.5056  -21.2374   22.7170 C   0  0  0  0  0  0  0  0  0  0  0  0
  -30.6200  -20.7148   22.0703 C   0  0  0  0  0  0  0  0  0  0  0  0
  -22.5745   -8.2096   21.6006 C   0  0  0  0  0  0  0  0  0  0  0  0
  -27.3148  -27.4368   19.8724 C   0  0  0  0  0  0  0  0  0  0  0  0
  -21.3876   -6.3187   22.3338 C   0  0  0  0  0  0  0  0  0  0  0  0
  -21.1141   -4.2216   24.1532 C   0  0  0  0  0  0  0  0  0  0  0  0
  -21.4134   -4.9982   21.8851 C   0  0  0  0  0  0  0  0  0  0  0  0
  -25.8407  -10.8468   22.1248 C   0  0  0  0  0  0  0  0  0  0  0  0
  -31.2580  -21.5104   21.1323 C   0  0  0  0  0  0  0  0  0  0  0  0
  -29.7769  -23.2364   21.4573 C   0  0  0  0  0  0  0  0  0  0  0  0
  -27.3629  -12.1911   22.9680 C   0  0  0  0  0  0  0  0  0  0  0  0
  -25.7639  -11.2788   24.6590 C   0  0  0  0  0  0  0  0  0  0  0  0
  -23.6016  -29.7416   23.0918 C   0  0  0  0  0  0  0  0  0  0  0  0
  -21.3446  -28.8957   20.9209 C   0  0  0  0  0  0  0  0  0  0  0  0
  -20.5982  -27.3582   17.9670 C   0  0  0  0  0  0  0  0  0  0  0  0
  -29.4674  -15.9963   19.3669 C   0  0  0  0  0  0  0  0  0  0  0  0
  -24.0147  -33.0447   26.9617 C   0  0  0  0  0  0  0  0  0  0  0  0
  -24.6124  -30.6085   20.9510 C   0  0  0  0  0  0  0  0  0  0  0  0
  -23.6199  -27.8388   20.6535 C   0  0  0  0  0  0  0  0  0  0  0  0
  -22.8674  -32.3194   26.2632 C   0  0  0  0  0  0  0  0  0  0  0  0
  -29.9395  -12.4328   18.6242 C   0  0  0  0  0  0  0  0  0  0  0  0
  -23.1800  -30.8325   26.1273 C   0  0  0  0  0  0  0  0  0  0  0  0
  -28.9143  -11.7580   19.5365 C   0  0  0  0  0  0  0  0  0  0  0  0
  -31.0787  -16.9839   22.5205 C   0  0  0  0  0  0  0  0  0  0  0  0
  -29.4898  -13.8264   18.1915 C   0  0  0  0  0  0  0  0  0  0  0  0
  -30.2852  -15.9025   21.7945 C   0  0  0  0  0  0  0  0  0  0  0  0
  -28.0919  -14.0450   20.2092 C   0  0  0  0  0  0  0  0  0  0  0  0
  -29.9127  -18.0202   20.7259 C   0  0  0  0  0  0  0  0  0  0  0  0
  -24.4323  -30.6081   25.2712 C   0  0  1  0  0  0  0  0  0  0  0  0
  -23.3511  -30.1267   21.6612 C   0  0  1  0  0  0  0  0  0  0  0  0
  -28.5401  -12.6689   20.7207 C   0  0  1  0  0  0  0  0  0  0  0  0
  -30.2899  -18.2442   22.1826 C   0  0  2  0  0  0  0  0  0  0  0  0
  -28.7607  -20.4455   23.7412 C   0  0  0  0  0  0  0  0  0  0  0  0
  -32.4622  -21.0069   20.4046 C   0  0  0  0  0  0  0  0  0  0  0  0
  -19.2056  -26.6108   16.0177 C   0  0  0  0  0  0  0  0  0  0  0  0
  -20.5297  -26.6567   22.8269 C   0  0  0  0  0  0  0  0  0  0  0  0
  -19.2977  -25.5844   20.9294 C   0  0  0  0  0  0  0  0  0  0  0  0
  -18.6187  -27.8452   21.7360 C   0  0  0  0  0  0  0  0  0  0  0  0
  -21.1584  -29.8455   16.4643 C   0  0  0  0  0  0  0  0  0  0  0  0
  -29.5286  -26.5706   19.9392 C   0  0  0  0  0  0  0  0  0  1  0  0
  -30.1273  -25.1938   20.1529 C   0  0  0  0  0  0  0  0  0  0  0  0
  -20.7690  -27.5888   20.4311 C   0  0  1  0  0  0  0  0  0  0  0  0
  -19.7568  -27.8030   16.7843 C   0  0  2  0  0  0  0  0  0  0  0  0
  -19.8316  -26.9246   21.4787 C   0  0  0  0  0  0  0  0  0  0  0  0
  -26.5793  -11.2163   21.0750 N   0  0  0  0  0  0  0  0  0  0  0  0
  -30.8637  -22.7622   20.8080 N   0  0  0  0  0  0  0  0  0  0  0  0
  -27.4965  -12.0337   21.6199 N   0  0  0  0  0  0  0  0  0  0  0  0
  -22.7422  -28.9667   21.0071 N   0  0  0  0  0  0  0  0  0  0  0  0
  -29.1196  -14.6412   19.3489 N   0  0  0  0  0  0  0  0  0  0  0  0
  -29.7585  -16.5726   20.6027 N   0  0  0  0  0  0  0  0  0  0  0  0
  -28.2017  -12.9785   23.6743 N   0  0  0  0  0  0  0  0  0  0  0  0
  -24.6493  -10.4519   24.8544 N   0  0  0  0  0  0  0  0  0  0  0  0
  -31.0773  -19.4359   22.3579 N   0  0  0  0  0  0  0  0  0  0  0  0
  -24.1188  -30.7621   23.8668 N   0  0  0  0  0  0  0  0  0  0  0  0
  -20.1270  -27.8789   19.1536 N   0  0  0  0  0  0  0  0  0  0  0  0
  -20.5733  -28.6267   15.8485 N   0  3  0  0  0  0  0  0  0  0  0  0
  -26.2635  -11.8780   25.6413 O   0  0  0  0  0  0  0  0  0  0  0  0
  -23.3434  -28.6034   23.4652 O   0  0  0  0  0  0  0  0  0  0  0  0
  -20.5826  -29.8218   21.2094 O   0  0  0  0  0  0  0  0  0  0  0  0
  -21.5734  -26.6194   17.8503 O   0  0  0  0  0  0  0  0  0  0  0  0
  -29.5603  -16.6514   18.3203 O   0  0  0  0  0  0  0  0  0  0  0  0
  -21.5241   -7.3607   21.4320 O   0  0  0  0  0  0  0  0  0  0  0  0
  -28.1754  -26.4293   19.5238 O   0  0  0  0  0  0  0  0  0  1  0  0
  -29.3663  -24.5038   21.1371 O   0  0  0  0  0  0  0  0  0  0  0  0
  -20.9842   -3.2148   25.0271 F   0  0  0  0  0  0  0  0  0  0  0  0
  -21.5704   -4.7307   20.5814 F   0  0  0  0  0  0  0  0  0  0  0  0
  1  2  1  0  0  0  0
  1  5  2  0  0  0  0
  2  6  2  0  0  0  0
  3  8  2  0  0  0  0
  3 16  1  0  0  0  0
  4  9  1  0  0  0  0
  4 16  2  0  0  0  0
  5 18  1  0  0  0  0
  6 20  1  0  0  0  0
  7 10  2  0  0  0  0
  7 19  1  0  0  0  0
  8 24  1  0  0  0  0
  9 24  2  0  0  0  0
 10 25  1  0  0  0  0
 11 12  2  0  0  0  0
 11 26  1  0  0  0  0
 12 27  1  0  0  0  0
 13 21  1  0  0  0  0
 13 25  2  0  0  0  0
 14 22  2  0  0  0  0
 14 31  1  0  0  0  0
 15 27  2  0  0  0  0
 15 28  1  0  0  0  0
 16 29  1  0  0  0  0
 17 29  1  0  0  0  0
 17 32  2  0  0  0  0
 17 33  1  0  0  0  0
 18 20  2  0  0  0  0
 18 38  1  0  0  0  0
 19 21  2  0  0  0  0
 19 39  1  0  0  0  0
 20 50  1  0  0  0  0
 21 40  1  0  0  0  0
 22 23  1  0  0  0  0
 22 54  1  0  0  0  0
 23 30  2  0  0  0  0
 23 74  1  0  0  0  0
 24 83  1  0  0  0  0
 25 84  1  0  0  0  0
 26 28  2  0  0  0  0
 26 83  1  0  0  0  0
 27 86  1  0  0  0  0
 28 87  1  0  0  0  0
 29 66  2  0  0  0  0
 30 55  1  0  0  0  0
 30 67  1  0  0  0  0
 31 67  2  0  0  0  0
 31 85  1  0  0  0  0
 32 68  1  0  0  0  0
 32 72  1  0  0  0  0
 33 73  1  0  0  0  0
 33 78  2  0  0  0  0
 34 51  1  0  0  0  0
 34 75  1  0  0  0  0
 34 79  2  0  0  0  0
 35 63  1  0  0  0  0
 35 69  1  0  0  0  0
 35 80  2  0  0  0  0
 36 64  1  0  0  0  0
 36 76  1  0  0  0  0
 36 81  2  0  0  0  0
 37 70  1  0  0  0  0
 37 71  1  0  0  0  0
 37 82  2  0  0  0  0
 38 41  1  0  0  0  0
 39 51  1  0  0  0  0
 40 69  1  0  0  0  0
 41 43  1  0  0  0  0
 42 44  1  0  0  0  0
 42 46  1  0  0  0  0
 43 50  1  0  0  0  0
 44 52  1  0  0  0  0
 45 47  1  0  0  0  0
 45 53  1  0  0  0  0
 46 70  1  0  0  0  0
 47 71  1  0  0  0  0
 48 52  1  0  0  0  0
 48 70  1  0  0  0  0
 49 53  1  0  0  0  0
 49 71  1  0  0  0  0
 50 75  1  0  0  0  0
 51 69  1  0  0  0  0
 52 68  1  0  0  0  0
 53 74  1  0  0  0  0
 56 64  1  0  0  0  0
 57 65  1  0  0  0  0
 58 65  1  0  0  0  0
 59 65  1  0  0  0  0
 60 77  1  0  0  0  0
 61 62  1  0  0  0  0
 61 84  1  0  0  0  0
 62 85  1  0  0  0  0
 63 65  1  0  0  0  0
 63 76  1  0  0  0  0
 64 77  1  0  0  0  0
 66 68  1  0  0  0  0
M  CHG  1  77   1
M  ISO  4  37 100  61 101  71 100  84 101
M  END
> <Batch ID>
0149

> <Smiles>
CNC(C)C(=O)NC(C(=O)N1Cc2cc([101O:1][101CH2:1]COc3cc(C)c(NC4CC[100N:0]([100C:0](=O)N5CCCC(n6nc(-c7ccc(Oc8ccc(F)cc8F)cc7)c(C(N)=O)c6N)C5)C4)c(C)n3)ccc2CC1C(=O)NC1CCCc2ccccc21)C(C)(C)C

> <Shape>
0.346

> <Color>
0.119

> <Negative vol penalty>
0.000

$$$$

  -OEChem-04052321383D

 89 98  0     1  0  0  0  0  0999 V2000
  -34.4666  -17.6076   32.5068 C   0  0  0  0  0  0  0  0  0  0  0  0
  -34.4355  -18.2794   31.2889 C   0  0  0  0  0  0  0  0  0  0  0  0
  -23.0949   -9.8760   19.9542 C   0  0  0  0  0  0  0  0  0  0  0  0
  -23.8402   -9.9155   22.2520 C   0  0  0  0  0  0  0  0  0  0  0  0
  -33.2743  -17.2688   33.1453 C   0  0  0  0  0  0  0  0  0  0  0  0
  -33.2121  -18.6117   30.7082 C   0  0  0  0  0  0  0  0  0  0  0  0
  -31.9411  -23.6105   27.4064 C   0  0  0  0  0  0  0  0  0  0  0  0
  -22.3559   -8.7218   20.2137 C   0  0  0  0  0  0  0  0  0  0  0  0
  -23.1011   -8.7614   22.5116 C   0  0  0  0  0  0  0  0  0  0  0  0
  -31.8711  -23.8341   26.0320 C   0  0  0  0  0  0  0  0  0  0  0  0
  -19.4029   -7.9267   21.6562 C   0  0  0  0  0  0  0  0  0  0  0  0
  -18.0994   -7.8671   21.1633 C   0  0  0  0  0  0  0  0  0  0  0  0
  -29.4835  -23.4971   26.1049 C   0  0  0  0  0  0  0  0  0  0  0  0
  -31.1219  -17.7591   20.5648 C   0  0  0  0  0  0  0  0  0  0  0  0
  -29.4794  -17.9594   22.3251 C   0  0  0  0  0  0  0  0  0  0  0  0
  -18.6782   -5.9111   19.8688 C   0  0  0  0  0  0  0  0  0  0  0  0
  -23.8371  -10.4728   20.9733 C   0  0  0  0  0  0  0  0  0  0  0  0
  -24.1658  -12.9981   20.8242 C   0  0  0  0  0  0  0  0  0  0  0  0
  -32.0357  -17.6057   32.5769 C   0  0  0  0  0  0  0  0  0  0  0  0
  -30.7823  -23.3173   28.1398 C   0  0  0  0  0  0  0  0  0  0  0  0
  -32.0021  -18.2759   31.3391 C   0  0  0  0  0  0  0  0  0  0  0  0
  -29.5412  -23.2728   27.4889 C   0  0  0  0  0  0  0  0  0  0  0  0
  -30.5418  -19.9375   21.4335 C   0  0  0  0  0  0  0  0  0  0  0  0
  -31.2827  -19.1446   20.5571 C   0  0  0  0  0  0  0  0  0  0  0  0
  -29.6401  -19.3449   22.3175 C   0  0  0  0  0  0  0  0  0  0  0  0
  -30.2202  -17.1665   21.4487 C   0  0  0  0  0  0  0  0  0  0  0  0
  -22.3589   -8.1645   21.4924 C   0  0  0  0  0  0  0  0  0  0  0  0
  -30.6426  -23.7745   25.3806 C   0  0  0  0  0  0  0  0  0  0  0  0
  -20.3442   -6.9785   21.2553 C   0  0  0  0  0  0  0  0  0  0  0  0
  -17.7371   -6.8593   20.2697 C   0  0  0  0  0  0  0  0  0  0  0  0
  -19.9818   -5.9707   20.3616 C   0  0  0  0  0  0  0  0  0  0  0  0
  -24.6012  -11.6647   20.7057 C   0  0  0  0  0  0  0  0  0  0  0  0
  -25.2560  -13.7492   20.4586 C   0  0  0  0  0  0  0  0  0  0  0  0
  -22.8898  -13.5120   21.2287 C   0  0  0  0  0  0  0  0  0  0  0  0
  -29.7875  -20.8415   29.8672 C   0  0  0  0  0  0  0  0  0  0  0  0
  -27.3144  -22.8209   30.5655 C   0  0  0  0  0  0  0  0  0  0  0  0
  -25.4113  -25.5077   29.6677 C   0  0  0  0  0  0  0  0  0  0  0  0
  -30.7151  -14.8275   20.6546 C   0  0  0  0  0  0  0  0  0  0  0  0
  -30.7730  -17.1766   33.2812 C   0  0  0  0  0  0  0  0  0  0  0  0
  -30.8711  -23.1051   29.6262 C   0  0  0  0  0  0  0  0  0  0  0  0
  -28.2650  -22.9818   28.2340 C   0  0  0  0  0  0  0  0  0  0  0  0
  -29.5227  -17.8964   32.7824 C   0  0  0  0  0  0  0  0  0  0  0  0
  -29.6292  -12.3784   18.3094 C   0  0  0  0  0  0  0  0  0  0  0  0
  -29.4903  -17.9156   31.2575 C   0  0  0  0  0  0  0  0  0  0  0  0
  -28.1884  -12.0841   18.7335 C   0  0  0  0  0  0  0  0  0  0  0  0
  -29.4118  -22.1842   21.0805 C   0  0  0  0  0  0  0  0  0  0  0  0
  -31.1955  -22.0349   22.7652 C   0  0  0  0  0  0  0  0  0  0  0  0
  -30.5353  -12.6272   19.5139 C   0  0  0  0  0  0  0  0  0  0  0  0
  -28.6157  -13.3579   20.8741 C   0  0  0  0  0  0  0  0  0  0  0  0
  -30.7167  -21.4399   21.4255 C   0  0  1  0  0  0  0  0  0  0  0  0
  -30.6950  -18.6756   30.6896 C   0  0  1  0  0  0  0  0  0  0  0  0
  -29.6980  -22.3069   30.1868 C   0  0  1  0  0  0  0  0  0  0  0  0
  -29.4468  -23.4469   21.9401 C   0  0  2  0  0  0  0  0  0  0  0  0
  -27.6513  -13.1647   19.6924 C   0  0  2  0  0  0  0  0  0  0  0  0
  -30.0619  -22.9391   23.2423 C   0  0  2  0  0  0  0  0  0  1  0  0
  -32.2542  -19.7546   19.6004 C   0  0  0  0  0  0  0  0  0  0  0  0
  -28.8348  -20.1713   23.2661 C   0  0  0  0  0  0  0  0  0  0  0  0
  -23.4383  -26.8638   30.4199 C   0  0  0  0  0  0  0  0  0  0  0  0
  -26.0910  -25.2146   20.9610 C   0  0  0  0  0  0  0  0  0  0  0  0
  -25.4384  -20.5971   29.6461 C   0  0  0  0  0  0  0  0  0  0  0  0
  -23.6033  -22.2951   29.5136 C   0  0  0  0  0  0  0  0  0  0  0  0
  -24.6926  -21.8067   31.7040 C   0  0  0  0  0  0  0  0  0  0  0  0
  -27.0363  -27.9728   29.8716 C   0  0  0  0  0  0  0  0  0  0  0  0
  -25.9663  -23.1062   29.9487 C   0  0  1  0  0  0  0  0  0  0  0  0
  -24.9523  -26.7240   30.4515 C   0  0  2  0  0  0  0  0  0  0  0  0
  -28.0742  -24.0767   22.1227 C   0  0  2  0  0  0  0  0  0  0  0  0
  -27.4614  -24.5657   20.8004 C   0  0  2  0  0  0  0  0  0  0  0  0
  -24.9493  -21.9549   30.1885 C   0  0  0  0  0  0  0  0  0  0  0  0
  -25.8692  -11.5708   20.2966 N   0  0  0  0  0  0  0  0  0  0  0  0
  -26.2399  -12.8548   20.1548 N   0  0  0  0  0  0  0  0  0  0  0  0
  -28.4045  -22.7752   29.6850 N   0  0  0  0  0  0  0  0  0  0  0  0
  -29.9651  -13.6656   20.3749 N   0  0  0  0  0  0  0  0  0  0  0  0
  -25.4595  -15.0808   20.3704 N   0  0  0  0  0  0  0  0  0  0  0  0
  -21.8808  -12.6013   21.5709 N   0  0  0  0  0  0  0  0  0  0  0  0
  -30.0575  -15.7589   21.4575 N   0  0  0  0  0  0  0  0  0  0  0  0
  -30.4899  -20.1039   30.8011 N   0  0  0  0  0  0  0  0  0  0  0  0
  -25.5414  -24.3983   30.4761 N   0  0  0  0  0  0  0  0  0  0  0  0
  -28.2185  -25.2180   23.0736 N   0  3  0  0  0  0  0  0  0  0  0  0
  -25.5508  -27.9640   29.8811 N   0  3  0  0  0  0  0  0  0  0  0  0
  -22.6464  -14.7418   21.2694 O   0  0  0  0  0  0  0  0  0  0  0  0
  -29.2573  -20.4116   28.8495 O   0  0  0  0  0  0  0  0  0  0  0  0
  -27.3981  -22.6522   31.7846 O   0  0  0  0  0  0  0  0  0  0  0  0
  -25.6288  -25.5378   28.4584 O   0  0  0  0  0  0  0  0  0  0  0  0
  -31.8462  -14.9968   20.1921 O   0  0  0  0  0  0  0  0  0  0  0  0
  -28.3441  -25.4895   20.1672 O   0  0  0  0  0  0  0  0  0  0  0  0
  -21.6377   -7.0385   21.7460 O   0  0  0  0  0  0  0  0  0  0  0  0
  -30.5715  -23.9917   24.0391 O   0  0  0  0  0  0  0  0  0  1  0  0
  -16.4849   -6.8014   19.7977 F   0  0  0  0  0  0  0  0  0  0  0  0
  -20.8813   -5.0562   19.9737 F   0  0  0  0  0  0  0  0  0  0  0  0
  1  2  1  0  0  0  0
  1  5  2  0  0  0  0
  2  6  2  0  0  0  0
  3  8  2  0  0  0  0
  3 17  1  0  0  0  0
  4  9  1  0  0  0  0
  4 17  2  0  0  0  0
  5 19  1  0  0  0  0
  6 21  1  0  0  0  0
  7 10  2  0  0  0  0
  7 20  1  0  0  0  0
  8 27  1  0  0  0  0
  9 27  2  0  0  0  0
 10 28  1  0  0  0  0
 11 12  2  0  0  0  0
 11 29  1  0  0  0  0
 12 30  1  0  0  0  0
 13 22  1  0  0  0  0
 13 28  2  0  0  0  0
 14 24  2  0  0  0  0
 14 26  1  0  0  0  0
 15 25  1  0  0  0  0
 15 26  2  0  0  0  0
 16 30  2  0  0  0  0
 16 31  1  0  0  0  0
 17 32  1  0  0  0  0
 18 32  1  0  0  0  0
 18 33  2  0  0  0  0
 18 34  1  0  0  0  0
 19 21  2  0  0  0  0
 19 39  1  0  0  0  0
 20 22  2  0  0  0  0
 20 40  1  0  0  0  0
 21 51  1  0  0  0  0
 22 41  1  0  0  0  0
 23 24  1  0  0  0  0
 23 25  2  0  0  0  0
 23 50  1  0  0  0  0
 24 56  1  0  0  0  0
 25 57  1  0  0  0  0
 26 75  1  0  0  0  0
 27 86  1  0  0  0  0
 28 87  1  0  0  0  0
 29 31  2  0  0  0  0
 29 86  1  0  0  0  0
 30 88  1  0  0  0  0
 31 89  1  0  0  0  0
 32 69  2  0  0  0  0
 33 70  1  0  0  0  0
 33 73  1  0  0  0  0
 34 74  1  0  0  0  0
 34 80  2  0  0  0  0
 35 52  1  0  0  0  0
 35 76  1  0  0  0  0
 35 81  2  0  0  0  0
 36 64  1  0  0  0  0
 36 71  1  0  0  0  0
 36 82  2  0  0  0  0
 37 65  1  0  0  0  0
 37 77  1  0  0  0  0
 37 83  2  0  0  0  0
 38 72  1  0  0  0  0
 38 75  1  0  0  0  0
 38 84  2  0  0  0  0
 39 42  1  0  0  0  0
 40 52  1  0  0  0  0
 41 71  1  0  0  0  0
 42 44  1  0  0  0  0
 43 45  1  0  0  0  0
 43 48  1  0  0  0  0
 44 51  1  0  0  0  0
 45 54  1  0  0  0  0
 46 50  1  0  0  0  0
 46 53  1  0  0  0  0
 47 50  1  0  0  0  0
 47 55  1  0  0  0  0
 48 72  1  0  0  0  0
 49 54  1  0  0  0  0
 49 72  1  0  0  0  0
 51 76  1  0  0  0  0
 52 71  1  0  0  0  0
 53 55  1  0  0  0  0
 53 66  1  0  0  0  0
 54 70  1  0  0  0  0
 55 87  1  0  0  0  0
 58 65  1  0  0  0  0
 59 67  1  0  0  0  0
 60 68  1  0  0  0  0
 61 68  1  0  0  0  0
 62 68  1  0  0  0  0
 63 79  1  0  0  0  0
 64 68  1  0  0  0  0
 64 77  1  0  0  0  0
 65 79  1  0  0  0  0
 66 67  1  0  0  0  0
 66 78  1  0  0  0  0
 67 85  1  0  0  0  0
 69 70  1  0  0  0  0
M  CHG  2  78   1  79   1
M  ISO  4  38 100  55 101  75 100  87 101
M  END
> <Batch ID>
0149

> <Smiles>
CNC(C)C(=O)NC(C(=O)N1Cc2cc([101O:1][101CH:1]3CC(c4c(C)cc([100NH:0][100C:0](=O)N5CCCC(n6nc(-c7ccc(Oc8ccc(F)cc8F)cc7)c(C(N)=O)c6N)C5)cc4C)CC3C(N)C(C)O)ccc2CC1C(=O)NC1CCCc2ccccc21)C(C)(C)C

> <Shape>
0.171

> <Color>
0.184

> <Negative vol penalty>
0.000

$$$$

  -OEChem-04052321382D

  0  0  0     0  0  0  0  0  0999 V2000
M  END
$$$$

  -OEChem-04052321383D

 90100  0     1  0  0  0  0  0999 V2000
  -27.5786  -35.0680   25.8808 C   0  0  0  0  0  0  0  0  0  0  0  0
  -27.8026  -33.7749   25.4193 C   0  0  0  0  0  0  0  0  0  0  0  0
  -23.9659   -9.4126   22.2858 C   0  0  0  0  0  0  0  0  0  0  0  0
  -25.2069   -7.4708   21.5603 C   0  0  0  0  0  0  0  0  0  0  0  0
  -26.2781  -35.5655   25.9538 C   0  0  0  0  0  0  0  0  0  0  0  0
  -26.7260  -32.9780   25.0314 C   0  0  0  0  0  0  0  0  0  0  0  0
  -27.5838  -30.5393   20.6769 C   0  0  0  0  0  0  0  0  0  0  0  0
  -22.7739   -8.7008   22.1521 C   0  0  0  0  0  0  0  0  0  0  0  0
  -24.0149   -6.7589   21.4266 C   0  0  0  0  0  0  0  0  0  0  0  0
  -28.3940  -29.4059   20.7307 C   0  0  0  0  0  0  0  0  0  0  0  0
  -21.8295   -5.1611   23.4494 C   0  0  0  0  0  0  0  0  0  0  0  0
  -21.7922   -3.8617   23.9552 C   0  0  0  0  0  0  0  0  0  0  0  0
  -29.8119  -20.3875   20.5706 C   0  0  0  0  0  0  0  0  0  0  0  0
  -29.4327  -20.8390   22.9134 C   0  0  0  0  0  0  0  0  0  0  0  0
  -26.4290  -28.0070   20.6987 C   0  0  0  0  0  0  0  0  0  0  0  0
  -21.2903   -3.0170   21.7481 C   0  0  0  0  0  0  0  0  0  0  0  0
  -25.1825   -8.7976   21.9898 C   0  0  0  0  0  0  0  0  0  0  0  0
  -27.2266   -9.6234   23.2733 C   0  0  0  0  0  0  0  0  0  0  0  0
  -25.1859  -34.7776   25.5575 C   0  0  0  0  0  0  0  0  0  0  0  0
  -26.1874  -30.4150   20.6445 C   0  0  0  0  0  0  0  0  0  0  0  0
  -25.4096  -33.4649   25.1004 C   0  0  0  0  0  0  0  0  0  0  0  0
  -29.6534  -19.9301   21.8787 C   0  0  0  0  0  0  0  0  0  0  0  0
  -25.6034  -29.1402   20.6418 C   0  0  0  0  0  0  0  0  0  0  0  0
  -29.5290  -22.6629   21.3319 C   0  0  0  0  0  0  0  0  0  0  0  0
  -29.7497  -21.7539   20.2971 C   0  0  0  0  0  0  0  0  0  0  0  0
  -22.7983   -7.3739   21.7225 C   0  0  0  0  0  0  0  0  0  0  0  0
  -27.8166  -28.1396   20.7445 C   0  0  0  0  0  0  0  0  0  0  0  0
  -21.5972   -5.3884   22.0929 C   0  0  0  0  0  0  0  0  0  0  0  0
  -29.3705  -22.2055   22.6400 C   0  0  0  0  0  0  0  0  0  0  0  0
  -21.5226   -2.7897   23.1046 C   0  0  0  0  0  0  0  0  0  0  0  0
  -21.3276   -4.3164   21.2423 C   0  0  0  0  0  0  0  0  0  0  0  0
  -26.4142   -9.5326   22.1272 C   0  0  0  0  0  0  0  0  0  0  0  0
  -28.2696  -10.4315   22.8916 C   0  0  0  0  0  0  0  0  0  0  0  0
  -27.0540   -9.0303   24.5671 C   0  0  0  0  0  0  0  0  0  0  0  0
  -23.8095  -31.3272   22.5464 C   0  0  0  0  0  0  0  0  0  0  0  0
  -21.9629  -30.1959   20.1313 C   0  0  0  0  0  0  0  0  0  0  0  0
  -21.6666  -28.1199   17.4389 C   0  0  0  0  0  0  0  0  0  0  0  0
  -30.3402  -14.8225   20.3513 C   0  0  0  0  0  0  0  0  0  0  0  0
  -23.7945  -35.3421   25.6989 C   0  0  0  0  0  0  0  0  0  0  0  0
  -25.3282  -31.6467   20.5595 C   0  0  0  0  0  0  0  0  0  0  0  0
  -24.1100  -28.9522   20.5879 C   0  0  0  0  0  0  0  0  0  0  0  0
  -22.7395  -34.5654   24.9152 C   0  0  0  0  0  0  0  0  0  0  0  0
  -29.6542  -12.1030   18.3309 C   0  0  0  0  0  0  0  0  0  0  0  0
  -30.5223  -24.9905   21.7737 C   0  0  0  0  0  0  0  0  0  0  0  0
  -22.9027  -33.0658   25.1420 C   0  0  0  0  0  0  0  0  0  0  0  0
  -28.8160  -11.1888   19.2243 C   0  0  0  0  0  0  0  0  0  0  0  0
  -29.7451  -25.9680   22.6534 C   0  0  0  0  0  0  0  0  0  0  0  0
  -28.6032  -17.6610   21.4661 C   0  0  0  0  0  0  0  0  0  0  0  0
  -31.1009  -17.8502   21.8337 C   0  0  0  0  0  0  0  0  0  0  0  0
  -28.0978  -24.7597   21.4235 C   0  0  0  0  0  0  0  0  0  0  0  0
  -29.2553  -13.5624   18.5166 C   0  0  0  0  0  0  0  0  0  0  0  0
  -28.6983  -16.1582   21.7444 C   0  0  0  0  0  0  0  0  0  0  0  0
  -31.1329  -16.3533   22.1280 C   0  0  0  0  0  0  0  0  0  0  0  0
  -28.5125  -13.1329   20.8364 C   0  0  0  0  0  0  0  0  0  0  0  0
  -29.7224  -18.4440   22.1759 C   0  0  0  0  0  0  0  0  0  0  0  0
  -29.4598  -24.1454   21.0409 C   0  0  2  0  0  0  0  0  0  0  0  0
  -24.2699  -32.5785   24.6471 C   0  0  1  0  0  0  0  0  0  0  0  0
  -23.9020  -31.4152   21.0493 C   0  0  1  0  0  0  0  0  0  0  0  0
  -28.8797  -11.6419   20.6937 C   0  0  1  0  0  0  0  0  0  0  0  0
  -28.4297  -26.1622   21.9148 C   0  0  2  0  0  0  0  0  0  1  0  0
  -29.9239  -22.2183   18.8882 C   0  0  0  0  0  0  0  0  0  0  0  0
  -20.0251  -27.3861   15.6884 C   0  0  0  0  0  0  0  0  0  0  0  0
  -20.5271  -28.4757   22.2024 C   0  0  0  0  0  0  0  0  0  0  0  0
  -19.5955  -27.1114   20.3211 C   0  0  0  0  0  0  0  0  0  0  0  0
  -19.0268  -29.5334   20.5039 C   0  0  0  0  0  0  0  0  0  0  0  0
  -23.3886  -29.1081   15.2441 C   0  0  0  0  0  0  0  0  0  0  0  0
  -29.0025  -22.5227   24.9681 C   0  0  0  0  0  0  0  0  0  0  0  0
  -21.3552  -28.8576   19.7869 C   0  0  1  0  0  0  0  0  0  0  0  0
  -21.1408  -28.3596   16.0352 C   0  0  2  0  0  0  0  0  0  0  0  0
  -20.1543  -28.4978   20.7066 C   0  0  0  0  0  0  0  0  0  0  0  0
  -26.8992  -10.2277   21.0949 N   0  0  0  0  0  0  0  0  0  0  0  0
  -28.0277  -10.7630   21.5910 N   0  0  0  0  0  0  0  0  0  0  0  0
  -23.3122  -30.1873   20.5121 N   0  0  0  0  0  0  0  0  0  0  0  0
  -29.3252  -13.9529   19.9246 N   0  0  0  0  0  0  0  0  0  0  0  0
  -30.0459  -15.6580   21.4393 N   0  0  0  0  0  0  0  0  0  0  0  0
  -29.3608  -10.8839   23.5451 N   0  0  0  0  0  0  0  0  0  0  0  0
  -25.9267   -8.2277   24.7892 N   0  0  0  0  0  0  0  0  0  0  0  0
  -24.2696  -32.4512   23.2055 N   0  0  0  0  0  0  0  0  0  0  0  0
  -21.0250  -28.9125   18.3669 N   0  0  0  0  0  0  0  0  0  0  0  0
  -22.2351  -28.1951   15.0370 N   0  3  0  0  0  0  0  0  0  0  0  0
  -27.8667   -9.2200   25.5037 O   0  0  0  0  0  0  0  0  0  0  0  0
  -23.3531  -30.3151   23.0651 O   0  0  0  0  0  0  0  0  0  0  0  0
  -21.2679  -31.2125   20.0581 O   0  0  0  0  0  0  0  0  0  0  0  0
  -22.5550  -27.3079   17.6878 O   0  0  0  0  0  0  0  0  0  0  0  0
  -31.4447  -14.8507   19.7941 O   0  0  0  0  0  0  0  0  0  0  0  0
  -21.6353   -6.6789   21.5922 O   0  0  0  0  0  0  0  0  0  0  0  0
  -28.6105  -27.0242   20.7981 O   0  0  0  0  0  0  0  0  0  1  0  0
  -29.1531  -23.0784   23.6633 O   0  0  0  0  0  0  0  0  0  0  0  0
  -21.4883   -1.5418   23.5901 F   0  0  0  0  0  0  0  0  0  0  0  0
  -21.1047   -4.5284   19.9380 F   0  0  0  0  0  0  0  0  0  0  0  0
  1  2  1  0  0  0  0
  1  5  2  0  0  0  0
  2  6  2  0  0  0  0
  3  8  2  0  0  0  0
  3 17  1  0  0  0  0
  4  9  1  0  0  0  0
  4 17  2  0  0  0  0
  5 19  1  0  0  0  0
  6 21  1  0  0  0  0
  7 10  2  0  0  0  0
  7 20  1  0  0  0  0
  8 26  1  0  0  0  0
  9 26  2  0  0  0  0
 10 27  1  0  0  0  0
 11 12  2  0  0  0  0
 11 28  1  0  0  0  0
 12 30  1  0  0  0  0
 13 22  1  0  0  0  0
 13 25  2  0  0  0  0
 14 22  2  0  0  0  0
 14 29  1  0  0  0  0
 15 23  1  0  0  0  0
 15 27  2  0  0  0  0
 16 30  2  0  0  0  0
 16 31  1  0  0  0  0
 17 32  1  0  0  0  0
 18 32  1  0  0  0  0
 18 33  2  0  0  0  0
 18 34  1  0  0  0  0
 19 21  2  0  0  0  0
 19 39  1  0  0  0  0
 20 23  2  0  0  0  0
 20 40  1  0  0  0  0
 21 57  1  0  0  0  0
 22 55  1  0  0  0  0
 23 41  1  0  0  0  0
 24 25  1  0  0  0  0
 24 29  2  0  0  0  0
 24 56  1  0  0  0  0
 25 61  1  0  0  0  0
 26 86  1  0  0  0  0
 27 87  1  0  0  0  0
 28 31  2  0  0  0  0
 28 86  1  0  0  0  0
 29 88  1  0  0  0  0
 30 89  1  0  0  0  0
 31 90  1  0  0  0  0
 32 71  2  0  0  0  0
 33 72  1  0  0  0  0
 33 76  1  0  0  0  0
 34 77  1  0  0  0  0
 34 81  2  0  0  0  0
 35 58  1  0  0  0  0
 35 78  1  0  0  0  0
 35 82  2  0  0  0  0
 36 68  1  0  0  0  0
 36 73  1  0  0  0  0
 36 83  2  0  0  0  0
 37 69  1  0  0  0  0
 37 79  1  0  0  0  0
 37 84  2  0  0  0  0
 38 74  1  0  0  0  0
 38 75  1  0  0  0  0
 38 85  2  0  0  0  0
 39 42  1  0  0  0  0
 40 58  1  0  0  0  0
 41 73  1  0  0  0  0
 42 45  1  0  0  0  0
 43 46  1  0  0  0  0
 43 51  1  0  0  0  0
 44 47  1  0  0  0  0
 44 56  1  0  0  0  0
 45 57  1  0  0  0  0
 46 59  1  0  0  0  0
 47 60  1  0  0  0  0
 48 52  1  0  0  0  0
 48 55  1  0  0  0  0
 49 53  1  0  0  0  0
 49 55  1  0  0  0  0
 50 56  1  0  0  0  0
 50 60  1  0  0  0  0
 51 74  1  0  0  0  0
 52 75  1  0  0  0  0
 53 75  1  0  0  0  0
 54 59  1  0  0  0  0
 54 74  1  0  0  0  0
 57 78  1  0  0  0  0
 58 73  1  0  0  0  0
 59 72  1  0  0  0  0
 60 87  1  0  0  0  0
 62 69  1  0  0  0  0
 63 70  1  0  0  0  0
 64 70  1  0  0  0  0
 65 70  1  0  0  0  0
 66 80  1  0  0  0  0
 67 88  1  0  0  0  0
 68 70  1  0  0  0  0
 68 79  1  0  0  0  0
 69 80  1  0  0  0  0
 71 72  1  0  0  0  0
M  CHG  1  80   1
M  ISO  4  38 100  60 101  75 100  87 101
M  END
> <Batch ID>
0149

> <Smiles>
CNC(C)C(=O)NC(C(=O)N1Cc2cc([101O:1][101CH:1]3CCC(c4c(C)cc(C5CC[100N:0]([100C:0](=O)N6CCCC(n7nc(-c8ccc(Oc9ccc(F)cc9F)cc8)c(C(N)=O)c7N)C6)CC5)cc4OC)C3)ccc2CC1C(=O)NC1CCCc2ccccc21)C(C)(C)C

> <Shape>
0.303

> <Color>
0.088

> <Negative vol penalty>
0.000

$$$$

  -OEChem-04052321383D

 83 92  0     1  0  0  0  0  0999 V2000
  -19.3502  -15.5587   27.9574 C   0  0  0  0  0  0  0  0  0  0  0  0
  -19.2396  -16.9454   27.9718 C   0  0  0  0  0  0  0  0  0  0  0  0
  -27.6286  -18.2220   19.0921 C   0  0  0  0  0  0  0  0  0  0  0  0
  -29.7269  -17.5371   20.0745 C   0  0  0  0  0  0  0  0  0  0  0  0
  -20.1414  -14.9335   26.9945 C   0  0  0  0  0  0  0  0  0  0  0  0
  -19.9211  -17.7079   27.0239 C   0  0  0  0  0  0  0  0  0  0  0  0
  -19.3176  -23.7682   23.2523 C   0  0  0  0  0  0  0  0  0  0  0  0
  -27.5054  -16.9727   18.4842 C   0  0  0  0  0  0  0  0  0  0  0  0
  -29.6037  -16.2877   19.4667 C   0  0  0  0  0  0  0  0  0  0  0  0
  -20.0272  -24.9335   22.9655 C   0  0  0  0  0  0  0  0  0  0  0  0
  -29.6644  -12.7929   18.4661 C   0  0  0  0  0  0  0  0  0  0  0  0
  -29.9405  -11.6649   19.2387 C   0  0  0  0  0  0  0  0  0  0  0  0
  -21.3017  -23.7404   21.3007 C   0  0  0  0  0  0  0  0  0  0  0  0
  -28.1806  -12.2852   20.7733 C   0  0  0  0  0  0  0  0  0  0  0  0
  -28.7394  -18.5042   19.8873 C   0  0  0  0  0  0  0  0  0  0  0  0
  -28.3956  -20.1722   21.7865 C   0  0  0  0  0  0  0  0  0  0  0  0
  -20.8253  -15.6882   26.0284 C   0  0  0  0  0  0  0  0  0  0  0  0
  -19.6026  -22.5756   22.5720 C   0  0  0  0  0  0  0  0  0  0  0  0
  -20.7233  -17.0924   26.0480 C   0  0  0  0  0  0  0  0  0  0  0  0
  -20.5925  -22.5620   21.5790 C   0  0  0  0  0  0  0  0  0  0  0  0
  -28.4929  -16.0055   18.6715 C   0  0  0  0  0  0  0  0  0  0  0  0
  -21.0214  -24.9191   21.9916 C   0  0  0  0  0  0  0  0  0  0  0  0
  -28.6464  -13.6672   18.8471 C   0  0  0  0  0  0  0  0  0  0  0  0
  -29.1986  -11.4110   20.3922 C   0  0  0  0  0  0  0  0  0  0  0  0
  -27.9045  -13.4132   20.0007 C   0  0  0  0  0  0  0  0  0  0  0  0
  -28.8675  -19.7948   20.5150 C   0  0  0  0  0  0  0  0  0  0  0  0
  -28.7668  -21.4885   21.9137 C   0  0  0  0  0  0  0  0  0  0  0  0
  -27.6854  -19.4019   22.7652 C   0  0  0  0  0  0  0  0  0  0  0  0
  -20.6465  -19.6984   23.4297 C   0  0  0  0  0  0  0  0  0  0  0  0
  -20.0676  -18.9896   20.3176 C   0  0  0  0  0  0  0  0  0  0  0  0
  -19.7201  -20.1003   17.1094 C   0  0  0  0  0  0  0  0  0  0  0  0
  -29.2240  -26.6156   19.7593 C   0  0  0  0  0  0  0  0  0  0  0  0
  -21.7063  -14.9706   25.0367 C   0  0  0  0  0  0  0  0  0  0  0  0
  -18.8098  -21.3337   22.8743 C   0  0  0  0  0  0  0  0  0  0  0  0
  -20.9230  -21.3124   20.8058 C   0  0  0  0  0  0  0  0  0  0  0  0
  -22.0969  -15.8289   23.8363 C   0  0  0  0  0  0  0  0  0  0  0  0
  -24.3770  -31.1862   21.9834 C   0  0  0  0  0  0  0  0  0  0  0  0
  -31.8572  -24.3384   19.1345 C   0  0  0  0  0  0  0  0  0  0  0  0
  -22.5551  -17.2100   24.2940 C   0  0  0  0  0  0  0  0  0  0  0  0
  -25.5269  -30.1849   21.8412 C   0  0  0  0  0  0  0  0  0  0  0  0
  -31.2735  -22.9778   19.5042 C   0  0  0  0  0  0  0  0  0  0  0  0
  -23.4107  -30.9041   20.8319 C   0  0  0  0  0  0  0  0  0  0  0  0
  -25.6714  -27.3299   19.1652 C   0  0  0  0  0  0  0  0  0  0  0  0
  -30.8035  -25.2176   18.4747 C   0  0  0  0  0  0  0  0  0  0  0  0
  -26.7485  -26.2531   19.1957 C   0  0  0  0  0  0  0  0  0  0  0  0
  -27.4133  -28.0771   20.6071 C   0  0  0  0  0  0  0  0  0  0  0  0
  -28.9895  -24.0838   19.7300 C   0  0  0  0  0  0  0  0  0  0  0  0
  -21.4275  -17.9524   25.0211 C   0  0  1  0  0  0  0  0  0  0  0  0
  -19.5358  -20.0508   22.4811 C   0  0  1  0  0  0  0  0  0  0  0  0
  -25.2673  -29.4405   20.5272 C   0  0  1  0  0  0  0  0  0  0  0  0
  -25.8919  -28.0573   20.4919 C   0  0  1  0  0  0  0  0  0  0  0  0
  -30.0247  -23.1456   20.3837 C   0  0  1  0  0  0  0  0  0  0  0  0
  -23.7468  -29.4937   20.3639 C   0  0  1  0  0  0  0  0  0  0  0  0
  -19.2874  -19.2812   14.7772 C   0  0  0  0  0  0  0  0  0  0  0  0
  -22.9382  -17.9697   20.1458 C   0  0  0  0  0  0  0  0  0  0  0  0
  -22.7484  -18.0634   17.6512 C   0  0  0  0  0  0  0  0  0  0  0  0
  -21.2547  -16.5523   18.9580 C   0  0  0  0  0  0  0  0  0  0  0  0
  -17.2357  -21.6931   16.8866 C   0  0  0  0  0  0  0  0  0  0  0  0
  -21.6122  -28.3398   20.9561 C   0  0  0  0  0  0  0  0  0  0  0  0
  -21.0363  -27.2951   21.8915 C   0  0  0  0  0  0  0  0  0  1  0  0
  -20.8700  -19.0498   19.0403 C   0  0  1  0  0  0  0  0  0  0  0  0
  -18.6641  -19.8203   16.0554 C   0  0  2  0  0  0  0  0  0  0  0  0
  -21.9482  -17.9320   18.9646 C   0  0  0  0  0  0  0  0  0  0  0  0
  -29.4907  -20.7908   19.8797 N   0  0  0  0  0  0  0  0  0  0  0  0
  -29.4129  -21.8072   20.7556 N   0  0  0  0  0  0  0  0  0  0  0  0
  -20.1244  -20.1222   21.1421 N   0  0  0  0  0  0  0  0  0  0  0  0
  -29.6048  -25.3480   19.3053 N   0  0  0  0  0  0  0  0  0  0  0  0
  -27.8624  -26.8696   19.9194 N   0  0  0  0  0  0  0  0  0  0  0  0
  -28.6001  -22.3929   22.9019 N   0  0  0  0  0  0  0  0  0  0  0  0
  -27.3848  -18.0645   22.4731 N   0  0  0  0  0  0  0  0  0  0  0  0
  -20.4768  -18.4850   24.0687 N   0  0  0  0  0  0  0  0  0  0  0  0
  -19.9025  -19.0217   17.9487 N   0  0  0  0  0  0  0  0  0  0  0  0
  -23.0615  -28.5099   21.2428 N   0  3  0  0  0  0  0  0  0  0  0  0
  -17.9186  -21.0677   15.7249 N   0  3  0  0  0  0  0  0  0  0  0  0
  -27.3136  -19.8899   23.8593 O   0  0  0  0  0  0  0  0  0  0  0  0
  -21.5885  -20.4695   23.5702 O   0  0  0  0  0  0  0  0  0  0  0  0
  -19.4089  -17.9779   20.5709 O   0  0  0  0  0  0  0  0  0  0  0  0
  -20.3253  -21.1677   17.1788 O   0  0  0  0  0  0  0  0  0  0  0  0
  -30.0635  -27.5007   19.9733 O   0  0  0  0  0  0  0  0  0  0  0  0
  -28.3729  -14.7862   18.0786 O   0  0  0  0  0  0  0  0  0  0  0  0
  -21.7210  -26.0631   21.7081 O   0  0  0  0  0  0  0  0  0  1  0  0
  -29.4628  -10.3269   21.1332 F   0  0  0  0  0  0  0  0  0  0  0  0
  -26.9245  -14.2488   20.3712 F   0  0  0  0  0  0  0  0  0  0  0  0
  1  2  1  0  0  0  0
  1  5  2  0  0  0  0
  2  6  2  0  0  0  0
  3  8  2  0  0  0  0
  3 15  1  0  0  0  0
  4  9  1  0  0  0  0
  4 15  2  0  0  0  0
  5 17  1  0  0  0  0
  6 19  1  0  0  0  0
  7 10  2  0  0  0  0
  7 18  1  0  0  0  0
  8 21  1  0  0  0  0
  9 21  2  0  0  0  0
 10 22  1  0  0  0  0
 11 12  2  0  0  0  0
 11 23  1  0  0  0  0
 12 24  1  0  0  0  0
 13 20  1  0  0  0  0
 13 22  2  0  0  0  0
 14 24  2  0  0  0  0
 14 25  1  0  0  0  0
 15 26  1  0  0  0  0
 16 26  1  0  0  0  0
 16 27  2  0  0  0  0
 16 28  1  0  0  0  0
 17 19  2  0  0  0  0
 17 33  1  0  0  0  0
 18 20  2  0  0  0  0
 18 34  1  0  0  0  0
 19 48  1  0  0  0  0
 20 35  1  0  0  0  0
 21 80  1  0  0  0  0
 22 81  1  0  0  0  0
 23 25  2  0  0  0  0
 23 80  1  0  0  0  0
 24 82  1  0  0  0  0
 25 83  1  0  0  0  0
 26 64  2  0  0  0  0
 27 65  1  0  0  0  0
 27 69  1  0  0  0  0
 28 70  1  0  0  0  0
 28 75  2  0  0  0  0
 29 49  1  0  0  0  0
 29 71  1  0  0  0  0
 29 76  2  0  0  0  0
 30 61  1  0  0  0  0
 30 66  1  0  0  0  0
 30 77  2  0  0  0  0
 31 62  1  0  0  0  0
 31 72  1  0  0  0  0
 31 78  2  0  0  0  0
 32 67  1  0  0  0  0
 32 68  1  0  0  0  0
 32 79  2  0  0  0  0
 33 36  1  0  0  0  0
 34 49  1  0  0  0  0
 35 66  1  0  0  0  0
 36 39  1  0  0  0  0
 37 40  1  0  0  0  0
 37 42  1  0  0  0  0
 38 41  1  0  0  0  0
 38 44  1  0  0  0  0
 39 48  1  0  0  0  0
 40 50  1  0  0  0  0
 41 52  1  0  0  0  0
 42 53  1  0  0  0  0
 43 45  1  0  0  0  0
 43 51  1  0  0  0  0
 44 67  1  0  0  0  0
 45 68  1  0  0  0  0
 46 51  1  0  0  0  0
 46 68  1  0  0  0  0
 47 52  1  0  0  0  0
 47 67  1  0  0  0  0
 48 71  1  0  0  0  0
 49 66  1  0  0  0  0
 50 51  1  0  0  0  0
 50 53  1  0  0  0  0
 52 65  1  0  0  0  0
 53 73  1  0  0  0  0
 54 62  1  0  0  0  0
 55 63  1  0  0  0  0
 56 63  1  0  0  0  0
 57 63  1  0  0  0  0
 58 74  1  0  0  0  0
 59 60  1  0  0  0  0
 59 73  1  0  0  0  0
 60 81  1  0  0  0  0
 61 63  1  0  0  0  0
 61 72  1  0  0  0  0
 62 74  1  0  0  0  0
 64 65  1  0  0  0  0
M  CHG  2  73   1  74   1
M  ISO  4  32 100  60 101  68 100  81 101
M  END
> <Batch ID>
0149

> <Smiles>
CNC(C)C(=O)NC(C(=O)N1Cc2cc([101O:1][101CH2:1]CNC3CCCC3C3CC[100N:0]([100C:0](=O)N4CCCC(n5nc(-c6ccc(Oc7ccc(F)cc7F)cc6)c(C(N)=O)c5N)C4)C3)ccc2CC1C(=O)NC1CCCc2ccccc21)C(C)(C)C

> <Shape>
0.210

> <Color>
0.057

> <Negative vol penalty>
0.000

$$$$

  -OEChem-04052321383D

 88 97  0     1  0  0  0  0  0999 V2000
  -25.7834  -35.5209   20.0613 C   0  0  0  0  0  0  0  0  0  0  0  0
  -26.6472  -34.6840   19.3621 C   0  0  0  0  0  0  0  0  0  0  0  0
  -23.0308   -9.9554   19.9079 C   0  0  0  0  0  0  0  0  0  0  0  0
  -23.8541   -9.8313   22.1759 C   0  0  0  0  0  0  0  0  0  0  0  0
  -25.2157  -35.0905   21.2598 C   0  0  0  0  0  0  0  0  0  0  0  0
  -26.9446  -33.4165   19.8616 C   0  0  0  0  0  0  0  0  0  0  0  0
  -28.4751  -26.7702   17.6706 C   0  0  0  0  0  0  0  0  0  0  0  0
  -22.2953   -8.7877   20.1109 C   0  0  0  0  0  0  0  0  0  0  0  0
  -23.1185   -8.6636   22.3790 C   0  0  0  0  0  0  0  0  0  0  0  0
  -29.4275  -25.7684   17.8531 C   0  0  0  0  0  0  0  0  0  0  0  0
  -23.3972   -5.3803   21.6219 C   0  0  0  0  0  0  0  0  0  0  0  0
  -24.0334   -4.3167   22.2618 C   0  0  0  0  0  0  0  0  0  0  0  0
  -28.3260  -25.1013   19.8929 C   0  0  0  0  0  0  0  0  0  0  0  0
  -22.3798   -4.3866   24.0219 C   0  0  0  0  0  0  0  0  0  0  0  0
  -31.5651  -18.4431   20.2879 C   0  0  0  0  0  0  0  0  0  0  0  0
  -23.8103  -10.4771   20.9403 C   0  0  0  0  0  0  0  0  0  0  0  0
  -24.1461  -13.0059   20.9577 C   0  0  0  0  0  0  0  0  0  0  0  0
  -25.4987  -33.8134   21.7693 C   0  0  0  0  0  0  0  0  0  0  0  0
  -27.4456  -26.9523   18.6051 C   0  0  0  0  0  0  0  0  0  0  0  0
  -26.3812  -32.9691   21.0687 C   0  0  0  0  0  0  0  0  0  0  0  0
  -27.3603  -26.1044   19.7186 C   0  0  0  0  0  0  0  0  0  0  0  0
  -29.1689  -19.7994   20.2961 C   0  0  0  0  0  0  0  0  0  0  0  0
  -30.5637  -18.0341   21.1571 C   0  0  0  0  0  0  0  0  0  0  0  0
  -29.3544  -18.7226   21.1578 C   0  0  0  0  0  0  0  0  0  0  0  0
  -22.3392   -8.1419   21.3465 C   0  0  0  0  0  0  0  0  0  0  0  0
  -29.3547  -24.9357   18.9659 C   0  0  0  0  0  0  0  0  0  0  0  0
  -22.2523   -5.9472   22.1820 C   0  0  0  0  0  0  0  0  0  0  0  0
  -23.5247   -3.8198   23.4618 C   0  0  0  0  0  0  0  0  0  0  0  0
  -21.7436   -5.4503   23.3820 C   0  0  0  0  0  0  0  0  0  0  0  0
  -24.5707  -11.6830   20.7310 C   0  0  0  0  0  0  0  0  0  0  0  0
  -25.2270  -13.7780   20.6085 C   0  0  0  0  0  0  0  0  0  0  0  0
  -30.2056  -20.1638   19.4488 C   0  0  0  0  0  0  0  0  0  0  0  0
  -22.8872  -13.4932   21.4408 C   0  0  0  0  0  0  0  0  0  0  0  0
  -26.5619  -29.3172   20.5365 C   0  0  0  0  0  0  0  0  0  0  0  0
  -24.0372  -27.3683   21.1285 C   0  0  0  0  0  0  0  0  0  0  0  0
  -22.7664  -24.2012   21.1579 C   0  0  0  0  0  0  0  0  0  0  0  0
  -30.7129  -14.7987   20.7040 C   0  0  0  0  0  0  0  0  0  0  0  0
  -24.8982  -33.4105   23.0929 C   0  0  0  0  0  0  0  0  0  0  0  0
  -26.4106  -28.0203   18.3799 C   0  0  0  0  0  0  0  0  0  0  0  0
  -26.2630  -26.2454   20.7406 C   0  0  0  0  0  0  0  0  0  0  0  0
  -24.9708  -31.9098   23.3630 C   0  0  0  0  0  0  0  0  0  0  0  0
  -29.5118  -12.5537   18.2152 C   0  0  0  0  0  0  0  0  0  0  0  0
  -26.5978  -19.8033   20.0443 C   0  0  0  0  0  0  0  0  0  0  0  0
  -27.1386  -20.7006   18.9754 C   0  0  0  0  0  0  0  0  0  0  0  0
  -26.3647  -31.3772   23.0464 C   0  0  0  0  0  0  0  0  0  0  0  0
  -28.0872  -12.2316   18.6699 C   0  0  0  0  0  0  0  0  0  0  0  0
  -30.4617  -12.7068   19.4010 C   0  0  0  0  0  0  0  0  0  0  0  0
  -28.5985  -13.3513   20.8798 C   0  0  0  0  0  0  0  0  0  0  0  0
  -27.8800  -20.5557   20.2767 C   0  0  0  0  0  0  0  0  0  0  0  0
  -26.7088  -31.5778   21.5656 C   0  0  1  0  0  0  0  0  0  0  0  0
  -25.7035  -28.4471   19.6625 C   0  0  1  0  0  0  0  0  0  0  0  0
  -27.5922  -13.2428   19.7214 C   0  0  2  0  0  0  0  0  0  0  0  0
  -20.6859  -22.9186   21.7270 C   0  0  0  0  0  0  0  0  0  0  0  0
  -28.7112  -19.2359   24.2239 C   0  0  0  0  0  0  0  0  0  0  0  0
  -26.3886  -18.6902   23.4154 C   0  0  0  0  0  0  0  0  0  0  0  0
  -24.6892  -27.6329   24.0975 C   0  0  0  0  0  0  0  0  0  0  0  0
  -23.2355  -25.6395   24.5231 C   0  0  0  0  0  0  0  0  0  0  0  0
  -22.2496  -27.7159   23.5538 C   0  0  0  0  0  0  0  0  0  0  0  0
  -22.4565  -23.2427   18.3750 C   0  0  0  0  0  0  0  0  0  0  0  0
  -30.8109  -16.8740   22.0614 C   0  0  0  0  0  0  0  0  0  0  0  0
  -30.8640  -23.3883   17.9742 C   0  0  0  0  0  0  0  0  0  1  0  0
  -31.2350  -21.9452   18.2558 C   0  0  0  0  0  0  0  0  0  0  0  0
  -23.7456  -26.2677   22.1197 C   0  0  1  0  0  0  0  0  0  0  0  0
  -21.4599  -23.6351   20.6315 C   0  0  2  0  0  0  0  0  0  0  0  0
  -27.7712  -19.1938   23.0278 C   0  0  0  0  0  0  0  0  0  0  0  0
  -23.5019  -26.8123   23.5554 C   0  0  0  0  0  0  0  0  0  0  0  0
  -25.8236  -11.6148   20.2730 N   0  0  0  0  0  0  0  0  0  0  0  0
  -26.1955  -12.9047   20.2091 N   0  0  0  0  0  0  0  0  0  0  0  0
  -31.3599  -19.4835   19.4687 N   0  3  0  0  0  0  0  0  0  0  0  0
  -25.2785  -27.3085   20.4793 N   0  0  0  0  0  0  0  0  0  0  0  0
  -29.9349  -13.6808   20.3601 N   0  0  0  0  0  0  0  0  0  0  0  0
  -25.4340  -15.1120   20.6071 N   0  0  0  0  0  0  0  0  0  0  0  0
  -21.8860  -12.5634   21.7526 N   0  0  0  0  0  0  0  0  0  0  0  0
  -28.3177  -18.3260   22.0338 N   0  0  0  0  0  0  0  0  0  0  0  0
  -26.0456  -30.5805   20.7531 N   0  0  0  0  0  0  0  0  0  0  0  0
  -22.6268  -25.5095   21.5703 N   0  0  0  0  0  0  0  0  0  0  0  0
  -30.1364  -15.6755   21.6148 N   0  0  0  0  0  0  0  0  0  0  0  0
  -21.7217  -22.6658   19.5301 N   0  3  0  0  0  0  0  0  0  0  0  0
  -22.6515  -14.7178   21.5760 O   0  0  0  0  0  0  0  0  0  0  0  0
  -27.6139  -28.8745   20.9827 O   0  0  0  0  0  0  0  0  0  0  0  0
  -23.1917  -28.2448   20.9320 O   0  0  0  0  0  0  0  0  0  0  0  0
  -23.8059  -23.5469   21.2024 O   0  0  0  0  0  0  0  0  0  0  0  0
  -31.8356  -15.0031   20.2301 O   0  0  0  0  0  0  0  0  0  0  0  0
  -21.6214   -7.0026   21.5450 O   0  0  0  0  0  0  0  0  0  0  0  0
  -30.2833  -23.9575   19.1468 O   0  0  0  0  0  0  0  0  0  1  0  0
  -30.0577  -21.2190   18.5875 O   0  0  0  0  0  0  0  0  0  0  0  0
  -24.1349   -2.7974   24.0754 F   0  0  0  0  0  0  0  0  0  0  0  0
  -20.6434   -5.9900   23.9243 F   0  0  0  0  0  0  0  0  0  0  0  0
  1  2  1  0  0  0  0
  1  5  2  0  0  0  0
  2  6  2  0  0  0  0
  3  8  2  0  0  0  0
  3 16  1  0  0  0  0
  4  9  1  0  0  0  0
  4 16  2  0  0  0  0
  5 18  1  0  0  0  0
  6 20  1  0  0  0  0
  7 10  2  0  0  0  0
  7 19  1  0  0  0  0
  8 25  1  0  0  0  0
  9 25  2  0  0  0  0
 10 26  1  0  0  0  0
 11 12  2  0  0  0  0
 11 27  1  0  0  0  0
 12 28  1  0  0  0  0
 13 21  1  0  0  0  0
 13 26  2  0  0  0  0
 14 28  2  0  0  0  0
 14 29  1  0  0  0  0
 15 23  1  0  0  0  0
 15 69  2  0  0  0  0
 16 30  1  0  0  0  0
 17 30  1  0  0  0  0
 17 31  2  0  0  0  0
 17 33  1  0  0  0  0
 18 20  2  0  0  0  0
 18 38  1  0  0  0  0
 19 21  2  0  0  0  0
 19 39  1  0  0  0  0
 20 50  1  0  0  0  0
 21 40  1  0  0  0  0
 22 24  1  0  0  0  0
 22 32  2  0  0  0  0
 22 49  1  0  0  0  0
 23 24  2  0  0  0  0
 23 60  1  0  0  0  0
 24 74  1  0  0  0  0
 25 84  1  0  0  0  0
 26 85  1  0  0  0  0
 27 29  2  0  0  0  0
 27 84  1  0  0  0  0
 28 87  1  0  0  0  0
 29 88  1  0  0  0  0
 30 67  2  0  0  0  0
 31 68  1  0  0  0  0
 31 72  1  0  0  0  0
 32 69  1  0  0  0  0
 32 86  1  0  0  0  0
 33 73  1  0  0  0  0
 33 79  2  0  0  0  0
 34 51  1  0  0  0  0
 34 75  1  0  0  0  0
 34 80  2  0  0  0  0
 35 63  1  0  0  0  0
 35 70  1  0  0  0  0
 35 81  2  0  0  0  0
 36 64  1  0  0  0  0
 36 76  1  0  0  0  0
 36 82  2  0  0  0  0
 37 71  1  0  0  0  0
 37 77  1  0  0  0  0
 37 83  2  0  0  0  0
 38 41  1  0  0  0  0
 39 51  1  0  0  0  0
 40 70  1  0  0  0  0
 41 45  1  0  0  0  0
 42 46  1  0  0  0  0
 42 47  1  0  0  0  0
 43 44  1  0  0  0  0
 43 49  1  0  0  0  0
 44 49  1  0  0  0  0
 45 50  1  0  0  0  0
 46 52  1  0  0  0  0
 47 71  1  0  0  0  0
 48 52  1  0  0  0  0
 48 71  1  0  0  0  0
 50 75  1  0  0  0  0
 51 70  1  0  0  0  0
 52 68  1  0  0  0  0
 53 64  1  0  0  0  0
 54 65  1  0  0  0  0
 55 65  1  0  0  0  0
 56 66  1  0  0  0  0
 57 66  1  0  0  0  0
 58 66  1  0  0  0  0
 59 78  1  0  0  0  0
 60 77  1  0  0  0  0
 61 62  1  0  0  0  0
 61 85  1  0  0  0  0
 62 86  1  0  0  0  0
 63 66  1  0  0  0  0
 63 76  1  0  0  0  0
 64 78  1  0  0  0  0
 65 74  1  0  0  0  0
 67 68  1  0  0  0  0
M  CHG  2  69   1  78   1
M  ISO  4  37 100  61 101  77 100  85 101
M  END
> <Batch ID>
0149

> <Smiles>
CNC(C)C(=O)NC(C(=O)N1Cc2cc([101O:1][101CH2:1]COc3ncc(C[100NH:0][100C:0](=O)N4CCCC(n5nc(-c6ccc(Oc7ccc(F)cc7F)cc6)c(C(N)=O)c5N)C4)c(NC(C)C)c3C3CC3)ccc2CC1C(=O)NC1CCCc2ccccc21)C(C)(C)C

> <Shape>
0.339

> <Color>
0.193

> <Negative vol penalty>
0.000

$$$$

  -OEChem-04052321383D

 84 93  0     1  0  0  0  0  0999 V2000
  -18.8023  -28.8256   23.1078 C   0  0  0  0  0  0  0  0  0  0  0  0
  -19.9736  -28.0913   23.2637 C   0  0  0  0  0  0  0  0  0  0  0  0
  -29.3840  -23.2133   18.6172 C   0  0  0  0  0  0  0  0  0  0  0  0
  -27.8230  -23.1999   20.4611 C   0  0  0  0  0  0  0  0  0  0  0  0
  -17.6340  -28.1912   22.6874 C   0  0  0  0  0  0  0  0  0  0  0  0
  -19.9771  -26.7220   23.0004 C   0  0  0  0  0  0  0  0  0  0  0  0
  -28.6428  -13.5287   17.7404 C   0  0  0  0  0  0  0  0  0  0  0  0
  -24.2360  -21.5256   20.5155 C   0  0  0  0  0  0  0  0  0  0  0  0
  -27.4965  -13.6556   18.5201 C   0  0  0  0  0  0  0  0  0  0  0  0
  -29.4530  -24.6047   18.6856 C   0  0  0  0  0  0  0  0  0  0  0  0
  -27.8921  -24.5914   20.5297 C   0  0  0  0  0  0  0  0  0  0  0  0
  -24.7052  -20.2594   20.8625 C   0  0  0  0  0  0  0  0  0  0  0  0
  -26.5971  -27.2349   18.8667 C   0  0  0  0  0  0  0  0  0  0  0  0
  -25.3995  -27.9374   19.0007 C   0  0  0  0  0  0  0  0  0  0  0  0
  -22.6473  -19.2850   20.0656 C   0  0  0  0  0  0  0  0  0  0  0  0
  -28.8544  -14.3934   20.3753 C   0  0  0  0  0  0  0  0  0  0  0  0
  -26.1793  -28.8682   21.0894 C   0  0  0  0  0  0  0  0  0  0  0  0
  -28.5689  -22.5109   19.5049 C   0  0  0  0  0  0  0  0  0  0  0  0
  -28.0763  -20.2963   18.3384 C   0  0  0  0  0  0  0  0  0  0  0  0
  -17.6255  -26.8152   22.4095 C   0  0  0  0  0  0  0  0  0  0  0  0
  -22.9624  -21.6824   19.9500 C   0  0  0  0  0  0  0  0  0  0  0  0
  -18.8073  -26.0684   22.5772 C   0  0  0  0  0  0  0  0  0  0  0  0
  -29.9068  -13.8476   18.2645 C   0  0  0  0  0  0  0  0  0  0  0  0
  -22.1653  -20.5540   19.7099 C   0  0  0  0  0  0  0  0  0  0  0  0
  -27.6036  -14.0812   19.8385 C   0  0  0  0  0  0  0  0  0  0  0  0
  -30.0191  -14.3042   19.5950 C   0  0  0  0  0  0  0  0  0  0  0  0
  -28.7071  -25.2938   19.6419 C   0  0  0  0  0  0  0  0  0  0  0  0
  -23.9097  -19.1392   20.6402 C   0  0  0  0  0  0  0  0  0  0  0  0
  -27.5857  -27.3490   19.8441 C   0  0  0  0  0  0  0  0  0  0  0  0
  -25.1906  -28.7540   20.1120 C   0  0  0  0  0  0  0  0  0  0  0  0
  -27.3768  -28.1656   20.9554 C   0  0  0  0  0  0  0  0  0  0  0  0
  -28.4968  -21.0735   19.4343 C   0  0  0  0  0  0  0  0  0  0  0  0
  -28.1912  -18.9987   18.7736 C   0  0  0  0  0  0  0  0  0  0  0  0
  -27.6226  -20.7103   17.0429 C   0  0  0  0  0  0  0  0  0  0  0  0
  -20.2970  -23.1870   20.8077 C   0  0  0  0  0  0  0  0  0  0  0  0
  -19.2988  -22.2803   17.8575 C   0  0  0  0  0  0  0  0  0  0  0  0
  -19.6019  -20.1193   15.2336 C   0  0  0  0  0  0  0  0  0  0  0  0
  -31.5237  -15.2112   21.3920 C   0  0  0  0  0  0  0  0  0  0  0  0
  -16.3269  -26.1647   22.0032 C   0  0  0  0  0  0  0  0  0  0  0  0
  -22.4816  -23.0522   19.5566 C   0  0  0  0  0  0  0  0  0  0  0  0
  -31.1153  -13.6293   17.3890 C   0  0  0  0  0  0  0  0  0  0  0  0
  -20.7987  -20.6665   19.0868 C   0  0  0  0  0  0  0  0  0  0  0  0
  -16.5064  -24.7808   21.3844 C   0  0  0  0  0  0  0  0  0  0  0  0
  -32.3578  -14.3198   17.9306 C   0  0  0  0  0  0  0  0  0  0  0  0
  -29.0157  -17.0885   23.3693 C   0  0  0  0  0  0  0  0  0  0  0  0
  -17.4665  -23.9420   22.2219 C   0  0  0  0  0  0  0  0  0  0  0  0
  -28.6917  -18.2748   22.4636 C   0  0  0  0  0  0  0  0  0  0  0  0
  -32.4752  -14.0859   19.4265 C   0  0  0  0  0  0  0  0  0  0  0  0
  -30.4343  -16.5750   23.1430 C   0  0  0  0  0  0  0  0  0  0  0  0
  -30.3920  -17.4073   20.8080 C   0  0  0  0  0  0  0  0  0  0  0  0
  -18.8571  -24.5859   22.2776 C   0  0  1  0  0  0  0  0  0  0  0  0
  -20.9621  -23.1475   19.4609 C   0  0  1  0  0  0  0  0  0  0  0  0
  -28.9556  -17.9200   20.9912 C   0  0  2  0  0  0  0  0  0  0  0  0
  -18.6234  -19.6072   12.9802 C   0  0  0  0  0  0  0  0  0  0  0  0
  -16.8591  -21.0358   19.2025 C   0  0  0  0  0  0  0  0  0  0  0  0
  -16.4358  -19.7557   17.0929 C   0  0  0  0  0  0  0  0  0  0  0  0
  -16.3698  -22.2493   17.0712 C   0  0  0  0  0  0  0  0  0  0  0  0
  -22.1904  -20.5823   13.8755 C   0  0  0  0  0  0  0  0  0  0  0  0
  -26.3810  -14.1973   20.6854 C   0  0  0  0  0  0  0  0  0  0  0  0
  -24.2940  -15.4879   21.1516 C   0  0  0  0  0  0  0  0  0  0  0  0
  -23.5491  -16.7462   20.7515 C   0  0  0  0  0  0  0  0  0  1  0  0
  -18.5953  -21.0702   17.2920 C   0  0  1  0  0  0  0  0  0  0  0  0
  -19.7065  -20.3590   13.7382 C   0  0  2  0  0  0  0  0  0  0  0  0
  -17.0899  -21.0255   17.6782 C   0  0  0  0  0  0  0  0  0  0  0  0
  -28.8521  -20.3316   20.4865 N   0  0  0  0  0  0  0  0  0  0  0  0
  -28.6551  -19.0746   20.0539 N   0  0  0  0  0  0  0  0  0  0  0  0
  -31.3134  -14.6264   20.1330 N   0  0  0  0  0  0  0  0  0  0  0  0
  -20.3707  -22.0280   18.7254 N   0  0  0  0  0  0  0  0  0  0  0  0
  -30.6950  -16.2998   21.7293 N   0  0  0  0  0  0  0  0  0  0  0  0
  -27.9396  -17.8115   18.1822 N   0  0  0  0  0  0  0  0  0  0  0  0
  -26.2527  -20.9409   16.8569 N   0  0  0  0  0  0  0  0  0  0  0  0
  -19.5766  -24.3419   21.0459 N   0  0  0  0  0  0  0  0  0  0  0  0
  -18.8431  -21.0889   15.8544 N   0  0  0  0  0  0  0  0  0  0  0  0
  -21.0336  -19.9072   13.2327 N   0  3  0  0  0  0  0  0  0  0  0  0
  -25.5459  -15.3854   20.3572 N   0  3  0  0  0  0  0  0  0  0  0  0
  -28.4065  -20.8552   16.0744 O   0  0  0  0  0  0  0  0  0  0  0  0
  -20.4266  -22.2391   21.5735 O   0  0  0  0  0  0  0  0  0  0  0  0
  -18.9160  -23.4078   17.5354 O   0  0  0  0  0  0  0  0  0  0  0  0
  -20.1367  -19.1653   15.7943 O   0  0  0  0  0  0  0  0  0  0  0  0
  -32.4381  -14.8271   22.1315 O   0  0  0  0  0  0  0  0  0  0  0  0
  -28.7744  -26.6516   19.7092 O   0  0  0  0  0  0  0  0  0  0  0  0
  -24.3728  -17.8810   20.9844 O   0  0  0  0  0  0  0  0  0  1  0  0
  -24.0412  -29.4298   20.2398 F   0  0  0  0  0  0  0  0  0  0  0  0
  -28.3234  -28.2802   21.8971 F   0  0  0  0  0  0  0  0  0  0  0  0
  1  2  1  0  0  0  0
  1  5  2  0  0  0  0
  2  6  2  0  0  0  0
  3 10  2  0  0  0  0
  3 18  1  0  0  0  0
  4 11  1  0  0  0  0
  4 18  2  0  0  0  0
  5 20  1  0  0  0  0
  6 22  1  0  0  0  0
  7  9  2  0  0  0  0
  7 23  1  0  0  0  0
  8 12  2  0  0  0  0
  8 21  1  0  0  0  0
  9 25  1  0  0  0  0
 10 27  1  0  0  0  0
 11 27  2  0  0  0  0
 12 28  1  0  0  0  0
 13 14  2  0  0  0  0
 13 29  1  0  0  0  0
 14 30  1  0  0  0  0
 15 24  1  0  0  0  0
 15 28  2  0  0  0  0
 16 25  2  0  0  0  0
 16 26  1  0  0  0  0
 17 30  2  0  0  0  0
 17 31  1  0  0  0  0
 18 32  1  0  0  0  0
 19 32  1  0  0  0  0
 19 33  2  0  0  0  0
 19 34  1  0  0  0  0
 20 22  2  0  0  0  0
 20 39  1  0  0  0  0
 21 24  2  0  0  0  0
 21 40  1  0  0  0  0
 22 51  1  0  0  0  0
 23 26  2  0  0  0  0
 23 41  1  0  0  0  0
 24 42  1  0  0  0  0
 25 59  1  0  0  0  0
 26 67  1  0  0  0  0
 27 81  1  0  0  0  0
 28 82  1  0  0  0  0
 29 31  2  0  0  0  0
 29 81  1  0  0  0  0
 30 83  1  0  0  0  0
 31 84  1  0  0  0  0
 32 65  2  0  0  0  0
 33 66  1  0  0  0  0
 33 70  1  0  0  0  0
 34 71  1  0  0  0  0
 34 76  2  0  0  0  0
 35 52  1  0  0  0  0
 35 72  1  0  0  0  0
 35 77  2  0  0  0  0
 36 62  1  0  0  0  0
 36 68  1  0  0  0  0
 36 78  2  0  0  0  0
 37 63  1  0  0  0  0
 37 73  1  0  0  0  0
 37 79  2  0  0  0  0
 38 67  1  0  0  0  0
 38 69  1  0  0  0  0
 38 80  2  0  0  0  0
 39 43  1  0  0  0  0
 40 52  1  0  0  0  0
 41 44  1  0  0  0  0
 42 68  1  0  0  0  0
 43 46  1  0  0  0  0
 44 48  1  0  0  0  0
 45 47  1  0  0  0  0
 45 49  1  0  0  0  0
 46 51  1  0  0  0  0
 47 53  1  0  0  0  0
 48 67  1  0  0  0  0
 49 69  1  0  0  0  0
 50 53  1  0  0  0  0
 50 69  1  0  0  0  0
 51 72  1  0  0  0  0
 52 68  1  0  0  0  0
 53 66  1  0  0  0  0
 54 63  1  0  0  0  0
 55 64  1  0  0  0  0
 56 64  1  0  0  0  0
 57 64  1  0  0  0  0
 58 74  1  0  0  0  0
 59 75  1  0  0  0  0
 60 61  1  0  0  0  0
 60 75  1  0  0  0  0
 61 82  1  0  0  0  0
 62 64  1  0  0  0  0
 62 73  1  0  0  0  0
 63 74  1  0  0  0  0
 65 66  1  0  0  0  0
M  CHG  2  74   1  75   1
M  ISO  4  38 100  61 101  67 100  82 101
M  END
> <Batch ID>
0149

> <Smiles>
CNC(C)C(=O)NC(C(=O)N1Cc2cc([101O:1][101CH2:1]CNCc3ccc4c(c3)[100N:0]([100C:0](=O)N3CCCC(n5nc(-c6ccc(Oc7ccc(F)cc7F)cc6)c(C(N)=O)c5N)C3)CCC4)ccc2CC1C(=O)NC1CCCc2ccccc21)C(C)(C)C

> <Shape>
0.231

> <Color>
0.077

> <Negative vol penalty>
0.000

$$$$

  -OEChem-04052321383D

 83 92  0     1  0  0  0  0  0999 V2000
  -16.9024  -27.9175   24.0696 C   0  0  0  0  0  0  0  0  0  0  0  0
  -17.5804  -27.1845   23.1010 C   0  0  0  0  0  0  0  0  0  0  0  0
  -24.4815  -16.1529   22.2740 C   0  0  0  0  0  0  0  0  0  0  0  0
  -23.6287  -16.2287   20.0148 C   0  0  0  0  0  0  0  0  0  0  0  0
  -17.3077  -29.2175   24.3691 C   0  0  0  0  0  0  0  0  0  0  0  0
  -18.6636  -27.7515   22.4304 C   0  0  0  0  0  0  0  0  0  0  0  0
  -22.5920  -24.5781   22.0529 C   0  0  0  0  0  0  0  0  0  0  0  0
  -23.9395  -17.4142   22.5209 C   0  0  0  0  0  0  0  0  0  0  0  0
  -23.0867  -17.4900   20.2617 C   0  0  0  0  0  0  0  0  0  0  0  0
  -22.5169  -23.5852   21.0771 C   0  0  0  0  0  0  0  0  0  0  0  0
  -22.4704  -20.4587   23.8580 C   0  0  0  0  0  0  0  0  0  0  0  0
  -21.7848  -20.6463   25.0581 C   0  0  0  0  0  0  0  0  0  0  0  0
  -23.9222  -24.9089   19.6307 C   0  0  0  0  0  0  0  0  0  0  0  0
  -20.2197  -18.9145   24.4347 C   0  0  0  0  0  0  0  0  0  0  0  0
  -24.3261  -15.5601   21.0209 C   0  0  0  0  0  0  0  0  0  0  0  0
  -24.2619  -13.0107   20.9587 C   0  0  0  0  0  0  0  0  0  0  0  0
  -18.4024  -29.7973   23.7088 C   0  0  0  0  0  0  0  0  0  0  0  0
  -23.3250  -25.7507   21.8203 C   0  0  0  0  0  0  0  0  0  0  0  0
  -19.0831  -29.0609   22.7204 C   0  0  0  0  0  0  0  0  0  0  0  0
  -24.0071  -25.9140   20.6062 C   0  0  0  0  0  0  0  0  0  0  0  0
  -23.2421  -18.0827   21.5148 C   0  0  0  0  0  0  0  0  0  0  0  0
  -23.1796  -23.7517   19.8647 C   0  0  0  0  0  0  0  0  0  0  0  0
  -22.0307  -19.4990   22.9461 C   0  0  0  0  0  0  0  0  0  0  0  0
  -20.6595  -19.8742   25.3465 C   0  0  0  0  0  0  0  0  0  0  0  0
  -20.9054  -18.7269   23.2345 C   0  0  0  0  0  0  0  0  0  0  0  0
  -24.8863  -14.2575   20.7650 C   0  0  0  0  0  0  0  0  0  0  0  0
  -25.2050  -12.0905   20.5710 C   0  0  0  0  0  0  0  0  0  0  0  0
  -22.9470  -12.7111   21.4455 C   0  0  0  0  0  0  0  0  0  0  0  0
  -22.6148  -28.8446   21.6557 C   0  0  0  0  0  0  0  0  0  0  0  0
  -25.8339  -29.1725   21.4270 C   0  0  0  0  0  0  0  0  0  0  0  0
  -28.8365  -27.7781   20.5981 C   0  0  0  0  0  0  0  0  0  0  0  0
  -29.1068  -15.5773   18.8165 C   0  0  0  0  0  0  0  0  0  0  0  0
  -18.7740  -31.2226   24.0329 C   0  0  0  0  0  0  0  0  0  0  0  0
  -23.4181  -26.8004   22.8935 C   0  0  0  0  0  0  0  0  0  0  0  0
  -24.8242  -27.1453   20.3150 C   0  0  0  0  0  0  0  0  0  0  0  0
  -20.1652  -31.6159   23.5428 C   0  0  0  0  0  0  0  0  0  0  0  0
  -29.3255  -13.0899   21.3723 C   0  0  0  0  0  0  0  0  0  0  0  0
  -29.5282  -16.0409   15.2448 C   0  0  0  0  0  0  0  0  0  0  0  0
  -20.3727  -31.1588   22.1023 C   0  0  0  0  0  0  0  0  0  0  0  0
  -28.5626  -11.8919   20.8179 C   0  0  0  0  0  0  0  0  0  0  0  0
  -25.8881  -20.2496   18.9678 C   0  0  0  0  0  0  0  0  0  0  0  0
  -25.4874  -21.0031   16.5819 C   0  0  0  0  0  0  0  0  0  0  0  0
  -24.6375  -21.0040   19.4126 C   0  0  0  0  0  0  0  0  0  0  0  0
  -24.2380  -21.7561   17.0325 C   0  0  0  0  0  0  0  0  0  0  0  0
  -28.6091  -17.2200   15.5310 C   0  0  0  0  0  0  0  0  0  0  0  0
  -30.0635  -13.8172   20.2590 C   0  0  0  0  0  0  0  0  0  0  0  0
  -29.1394  -15.0460   16.3274 C   0  0  0  0  0  0  0  0  0  0  0  0
  -28.3220  -13.1619   18.6087 C   0  0  0  0  0  0  0  0  0  0  0  0
  -20.2783  -29.6324   21.9889 C   0  0  1  0  0  0  0  0  0  0  0  0
  -23.7708  -28.1814   22.3496 C   0  0  1  0  0  0  0  0  0  0  0  0
  -27.6221  -12.2748   19.6640 C   0  0  2  0  0  0  0  0  0  0  0  0
  -25.7721  -19.8212   17.5063 C   0  0  0  0  0  0  0  0  0  0  0  0
  -24.3368  -22.1887   18.4957 C   0  0  0  0  0  0  0  0  0  1  0  0
  -28.5583  -17.2628   17.0608 C   0  0  1  0  0  0  0  0  0  0  0  0
  -31.2875  -28.3039   20.4819 C   0  0  0  0  0  0  0  0  0  0  0  0
  -25.3622  -30.7986   18.8886 C   0  0  0  0  0  0  0  0  0  0  0  0
  -27.7794  -30.4804   18.3191 C   0  0  0  0  0  0  0  0  0  0  0  0
  -27.1399  -31.7076   20.3946 C   0  0  0  0  0  0  0  0  0  0  0  0
  -29.5030  -25.6536   22.5477 C   0  0  0  0  0  0  0  0  0  0  0  0
  -27.2251  -17.7944   17.5712 C   0  0  0  0  0  0  0  0  0  0  0  0
  -26.8275  -29.2009   20.2908 C   0  0  1  0  0  0  0  0  0  0  0  0
  -30.1638  -27.7339   21.3335 C   0  0  2  0  0  0  0  0  0  0  0  0
  -26.7604  -30.5244   19.4777 C   0  0  0  0  0  0  0  0  0  0  0  0
  -26.1298  -14.1433   20.2913 N   0  0  0  0  0  0  0  0  0  0  0  0
  -26.2946  -12.8139   20.1840 N   0  0  0  0  0  0  0  0  0  0  0  0
  -24.8793  -28.1460   21.3934 N   0  0  0  0  0  0  0  0  0  0  0  0
  -29.1630  -14.2236   19.1800 N   0  0  0  0  0  0  0  0  0  0  0  0
  -28.8144  -15.8810   17.4849 N   0  0  0  0  0  0  0  0  0  0  0  0
  -25.2003  -10.7413   20.5267 N   0  0  0  0  0  0  0  0  0  0  0  0
  -22.1068  -13.7757   21.7991 N   0  0  0  0  0  0  0  0  0  0  0  0
  -21.5009  -29.0144   22.4556 N   0  0  0  0  0  0  0  0  0  0  0  0
  -28.1328  -28.9291   20.8832 N   0  0  0  0  0  0  0  0  0  0  0  0
  -27.0478  -19.1807   17.0898 N   0  3  0  0  0  0  0  0  0  0  0  0
  -30.5112  -26.3295   21.6912 N   0  3  0  0  0  0  0  0  0  0  0  0
  -22.5353  -11.5337   21.5789 O   0  0  0  0  0  0  0  0  0  0  0  0
  -22.7257  -29.1788   20.4820 O   0  0  0  0  0  0  0  0  0  0  0  0
  -25.9065  -30.0252   22.3153 O   0  0  0  0  0  0  0  0  0  0  0  0
  -28.4630  -26.8830   19.8432 O   0  0  0  0  0  0  0  0  0  0  0  0
  -29.3183  -16.4752   19.6425 O   0  0  0  0  0  0  0  0  0  0  0  0
  -22.7129  -19.3134   21.7554 O   0  0  0  0  0  0  0  0  0  0  0  0
  -23.1070  -22.7781   18.9040 O   0  0  0  0  0  0  0  0  0  1  0  0
  -20.0021  -20.0534   26.4997 F   0  0  0  0  0  0  0  0  0  0  0  0
  -20.4788  -17.8026   22.3630 F   0  0  0  0  0  0  0  0  0  0  0  0
  1  2  1  0  0  0  0
  1  5  2  0  0  0  0
  2  6  2  0  0  0  0
  3  8  2  0  0  0  0
  3 15  1  0  0  0  0
  4  9  1  0  0  0  0
  4 15  2  0  0  0  0
  5 17  1  0  0  0  0
  6 19  1  0  0  0  0
  7 10  2  0  0  0  0
  7 18  1  0  0  0  0
  8 21  1  0  0  0  0
  9 21  2  0  0  0  0
 10 22  1  0  0  0  0
 11 12  2  0  0  0  0
 11 23  1  0  0  0  0
 12 24  1  0  0  0  0
 13 20  1  0  0  0  0
 13 22  2  0  0  0  0
 14 24  2  0  0  0  0
 14 25  1  0  0  0  0
 15 26  1  0  0  0  0
 16 26  1  0  0  0  0
 16 27  2  0  0  0  0
 16 28  1  0  0  0  0
 17 19  2  0  0  0  0
 17 33  1  0  0  0  0
 18 20  2  0  0  0  0
 18 34  1  0  0  0  0
 19 49  1  0  0  0  0
 20 35  1  0  0  0  0
 21 80  1  0  0  0  0
 22 81  1  0  0  0  0
 23 25  2  0  0  0  0
 23 80  1  0  0  0  0
 24 82  1  0  0  0  0
 25 83  1  0  0  0  0
 26 64  2  0  0  0  0
 27 65  1  0  0  0  0
 27 69  1  0  0  0  0
 28 70  1  0  0  0  0
 28 75  2  0  0  0  0
 29 50  1  0  0  0  0
 29 71  1  0  0  0  0
 29 76  2  0  0  0  0
 30 61  1  0  0  0  0
 30 66  1  0  0  0  0
 30 77  2  0  0  0  0
 31 62  1  0  0  0  0
 31 72  1  0  0  0  0
 31 78  2  0  0  0  0
 32 67  1  0  0  0  0
 32 68  1  0  0  0  0
 32 79  2  0  0  0  0
 33 36  1  0  0  0  0
 34 50  1  0  0  0  0
 35 66  1  0  0  0  0
 36 39  1  0  0  0  0
 37 40  1  0  0  0  0
 37 46  1  0  0  0  0
 38 45  1  0  0  0  0
 38 47  1  0  0  0  0
 39 49  1  0  0  0  0
 40 51  1  0  0  0  0
 41 43  1  0  0  0  0
 41 52  1  0  0  0  0
 42 44  1  0  0  0  0
 42 52  1  0  0  0  0
 43 53  1  0  0  0  0
 44 53  1  0  0  0  0
 45 54  1  0  0  0  0
 46 67  1  0  0  0  0
 47 68  1  0  0  0  0
 48 51  1  0  0  0  0
 48 67  1  0  0  0  0
 49 71  1  0  0  0  0
 50 66  1  0  0  0  0
 51 65  1  0  0  0  0
 52 73  1  0  0  0  0
 53 81  1  0  0  0  0
 54 60  1  0  0  0  0
 54 68  1  0  0  0  0
 55 62  1  0  0  0  0
 56 63  1  0  0  0  0
 57 63  1  0  0  0  0
 58 63  1  0  0  0  0
 59 74  1  0  0  0  0
 60 73  1  0  0  0  0
 61 63  1  0  0  0  0
 61 72  1  0  0  0  0
 62 74  1  0  0  0  0
 64 65  1  0  0  0  0
M  CHG  2  73   1  74   1
M  ISO  4  32 100  53 101  68 100  81 101
M  END
> <Batch ID>
0149

> <Smiles>
CNC(C)C(=O)NC(C(=O)N1Cc2cc([101O:1][101CH:1]3CCC(NCC4CCC[100N:0]4[100C:0](=O)N4CCCC(n5nc(-c6ccc(Oc7ccc(F)cc7F)cc6)c(C(N)=O)c5N)C4)CC3)ccc2CC1C(=O)NC1CCCc2ccccc21)C(C)(C)C

> <Shape>
0.220

> <Color>
0.090

> <Negative vol penalty>
0.000

$$$$

  -OEChem-04052321383D

 88 97  0     1  0  0  0  0  0999 V2000
  -21.4856   -5.5469   21.7290 C   0  0  0  0  0  0  0  0  0  0  0  0
  -22.3706   -6.0190   20.7648 C   0  0  0  0  0  0  0  0  0  0  0  0
  -21.6635  -30.0005   21.5372 C   0  0  0  0  0  0  0  0  0  0  0  0
  -22.5650  -27.7639   21.6851 C   0  0  0  0  0  0  0  0  0  0  0  0
  -20.5235   -6.4001   22.2678 C   0  0  0  0  0  0  0  0  0  0  0  0
  -22.2932   -7.3443   20.3382 C   0  0  0  0  0  0  0  0  0  0  0  0
  -27.9267  -11.7856   20.9927 C   0  0  0  0  0  0  0  0  0  0  0  0
  -20.3727  -29.4891   21.6708 C   0  0  0  0  0  0  0  0  0  0  0  0
  -21.2742  -27.2525   21.8188 C   0  0  0  0  0  0  0  0  0  0  0  0
  -29.0265  -12.6378   20.8904 C   0  0  0  0  0  0  0  0  0  0  0  0
  -18.3832  -28.3681   24.1645 C   0  0  0  0  0  0  0  0  0  0  0  0
  -17.5159  -29.0184   25.0423 C   0  0  0  0  0  0  0  0  0  0  0  0
  -27.6057  -14.3826   20.0045 C   0  0  0  0  0  0  0  0  0  0  0  0
  -30.4730  -24.5932   18.3344 C   0  0  0  0  0  0  0  0  0  0  0  0
  -29.7220  -24.5159   20.6294 C   0  0  0  0  0  0  0  0  0  0  0  0
  -15.9960  -29.4566   23.2161 C   0  0  0  0  0  0  0  0  0  0  0  0
  -22.7597  -29.1380   21.5443 C   0  0  0  0  0  0  0  0  0  0  0  0
  -24.7356  -30.5865   22.2550 C   0  0  0  0  0  0  0  0  0  0  0  0
  -20.4406   -7.7391   21.8546 C   0  0  0  0  0  0  0  0  0  0  0  0
  -26.6581  -12.2345   20.6153 C   0  0  0  0  0  0  0  0  0  0  0  0
  -21.3282   -8.2158   20.8711 C   0  0  0  0  0  0  0  0  0  0  0  0
  -26.4982  -13.5377   20.1165 C   0  0  0  0  0  0  0  0  0  0  0  0
  -30.9679  -23.2945   18.4526 C   0  0  0  0  0  0  0  0  0  0  0  0
  -30.2168  -23.2171   20.7476 C   0  0  0  0  0  0  0  0  0  0  0  0
  -30.8398  -22.6064   19.6591 C   0  0  0  0  0  0  0  0  0  0  0  0
  -29.8501  -25.2039   19.4229 C   0  0  0  0  0  0  0  0  0  0  0  0
  -20.1780  -28.1151   21.8116 C   0  0  0  0  0  0  0  0  0  0  0  0
  -28.8664  -13.9329   20.3973 C   0  0  0  0  0  0  0  0  0  0  0  0
  -18.0569  -28.2622   22.8124 C   0  0  0  0  0  0  0  0  0  0  0  0
  -16.3223  -29.5626   24.5682 C   0  0  0  0  0  0  0  0  0  0  0  0
  -16.8633  -28.8064   22.3383 C   0  0  0  0  0  0  0  0  0  0  0  0
  -24.0933  -29.6656   21.4058 C   0  0  0  0  0  0  0  0  0  0  0  0
  -25.9768  -30.7629   21.6940 C   0  0  0  0  0  0  0  0  0  0  0  0
  -24.2534  -31.2253   23.4446 C   0  0  0  0  0  0  0  0  0  0  0  0
  -23.0038  -11.4549   20.2769 C   0  0  0  0  0  0  0  0  0  0  0  0
  -23.2081  -14.3311   21.3239 C   0  0  0  0  0  0  0  0  0  0  0  0
  -23.8578  -17.3046   22.8645 C   0  0  0  0  0  0  0  0  0  0  0  0
  -29.3903  -27.3447   18.1771 C   0  0  0  0  0  0  0  0  0  0  0  0
  -19.3533   -8.6108   22.4315 C   0  0  0  0  0  0  0  0  0  0  0  0
  -25.4556  -11.3307   20.6507 C   0  0  0  0  0  0  0  0  0  0  0  0
  -25.1207  -13.9659   19.6901 C   0  0  0  0  0  0  0  0  0  0  0  0
  -19.5802  -10.1022   22.1981 C   0  0  0  0  0  0  0  0  0  0  0  0
  -28.2296  -30.6356   17.4699 C   0  0  0  0  0  0  0  0  0  0  0  0
  -19.9765  -10.3614   20.7481 C   0  0  0  0  0  0  0  0  0  0  0  0
  -27.0996  -30.8464   18.4803 C   0  0  0  0  0  0  0  0  0  0  0  0
  -30.3480  -18.1808   21.8123 C   0  0  0  0  0  0  0  0  0  0  0  0
  -30.0037  -18.3969   19.3111 C   0  0  0  0  0  0  0  0  0  0  0  0
  -30.4697  -16.6664   21.6613 C   0  0  0  0  0  0  0  0  0  0  0  0
  -30.1256  -16.8819   19.1663 C   0  0  0  0  0  0  0  0  0  0  0  0
  -28.2705  -29.1973   16.9568 C   0  0  0  0  0  0  0  0  0  0  0  0
  -27.1875  -28.3773   19.0120 C   0  0  0  0  0  0  0  0  0  0  0  0
  -21.2918   -9.6537   20.4007 C   0  0  1  0  0  0  0  0  0  0  0  0
  -24.1558  -12.0698   21.0160 C   0  0  1  0  0  0  0  0  0  0  0  0
  -27.1468  -29.7947   19.6060 C   0  0  2  0  0  0  0  0  0  0  0  0
  -30.7800  -18.8901   20.5305 C   0  0  0  0  0  0  0  0  0  0  0  0
  -29.7004  -16.1568   20.4434 C   0  0  0  0  0  0  0  0  0  1  0  0
  -31.6313  -22.6633   17.2725 C   0  0  0  0  0  0  0  0  0  0  0  0
  -30.0668  -22.5022   22.0505 C   0  0  0  0  0  0  0  0  0  0  0  0
  -32.8172  -21.1615   20.2874 C   0  0  0  0  0  0  0  0  0  0  0  0
  -22.7084  -19.3193   23.8223 C   0  0  0  0  0  0  0  0  0  0  0  0
  -22.6901  -15.3717   18.5038 C   0  0  0  0  0  0  0  0  0  0  0  0
  -22.4565  -17.6692   19.4709 C   0  0  0  0  0  0  0  0  0  0  0  0
  -20.8721  -15.8655   20.1487 C   0  0  0  0  0  0  0  0  0  0  0  0
  -24.9568  -16.7921   25.5642 C   0  0  0  0  0  0  0  0  0  0  0  0
  -31.3755  -21.1990   19.7868 C   0  0  1  0  0  0  0  0  0  0  0  0
  -23.2568  -15.7998   20.9860 C   0  0  1  0  0  0  0  0  0  0  0  0
  -23.2768  -17.9394   24.1151 C   0  0  2  0  0  0  0  0  0  0  0  0
  -22.3426  -16.1614   19.7815 C   0  0  0  0  0  0  0  0  0  0  0  0
  -24.8628  -29.2838   20.3830 N   0  0  0  0  0  0  0  0  0  0  0  0
  -26.0014  -29.9682   20.5859 N   0  0  0  0  0  0  0  0  0  0  0  0
  -24.1247  -13.5005   20.6678 N   0  0  0  0  0  0  0  0  0  0  0  0
  -28.3185  -28.2571   18.0786 N   0  0  0  0  0  0  0  0  0  0  0  0
  -27.0387  -31.5189   22.0454 N   0  0  0  0  0  0  0  0  0  0  0  0
  -24.4673  -30.5921   24.6766 N   0  0  0  0  0  0  0  0  0  0  0  0
  -29.3463  -26.5229   19.3028 N   0  0  0  0  0  0  0  0  0  0  0  0
  -22.4180  -10.3898   20.9339 N   0  0  0  0  0  0  0  0  0  0  0  0
  -22.9331  -16.5127   22.2170 N   0  0  0  0  0  0  0  0  0  0  0  0
  -30.5513  -20.3509   20.6882 N   0  3  0  0  0  0  0  0  0  0  0  0
  -24.3280  -18.0767   25.1625 N   0  3  0  0  0  0  0  0  0  0  0  0
  -23.6362  -32.3169   23.4144 O   0  0  0  0  0  0  0  0  0  0  0  0
  -22.6690  -11.9133   19.1908 O   0  0  0  0  0  0  0  0  0  0  0  0
  -22.3772  -13.9278   22.1425 O   0  0  0  0  0  0  0  0  0  0  0  0
  -25.0148  -17.4953   22.4967 O   0  0  0  0  0  0  0  0  0  0  0  0
  -30.2960  -27.3147   17.3399 O   0  0  0  0  0  0  0  0  0  0  0  0
  -18.9186  -27.6157   21.9422 O   0  0  0  0  0  0  0  0  0  0  0  0
  -29.9435  -14.7611   20.3042 O   0  0  0  0  0  0  0  0  0  1  0  0
  -15.4889  -30.1856   25.4116 F   0  0  0  0  0  0  0  0  0  0  0  0
  -16.5439  -28.7068   21.0406 F   0  0  0  0  0  0  0  0  0  0  0  0
  1  2  1  0  0  0  0
  1  5  2  0  0  0  0
  2  6  2  0  0  0  0
  3  8  2  0  0  0  0
  3 17  1  0  0  0  0
  4  9  1  0  0  0  0
  4 17  2  0  0  0  0
  5 19  1  0  0  0  0
  6 21  1  0  0  0  0
  7 10  2  0  0  0  0
  7 20  1  0  0  0  0
  8 27  1  0  0  0  0
  9 27  2  0  0  0  0
 10 28  1  0  0  0  0
 11 12  2  0  0  0  0
 11 29  1  0  0  0  0
 12 30  1  0  0  0  0
 13 22  1  0  0  0  0
 13 28  2  0  0  0  0
 14 23  2  0  0  0  0
 14 26  1  0  0  0  0
 15 24  1  0  0  0  0
 15 26  2  0  0  0  0
 16 30  2  0  0  0  0
 16 31  1  0  0  0  0
 17 32  1  0  0  0  0
 18 32  1  0  0  0  0
 18 33  2  0  0  0  0
 18 34  1  0  0  0  0
 19 21  2  0  0  0  0
 19 39  1  0  0  0  0
 20 22  2  0  0  0  0
 20 40  1  0  0  0  0
 21 52  1  0  0  0  0
 22 41  1  0  0  0  0
 23 25  1  0  0  0  0
 23 57  1  0  0  0  0
 24 25  2  0  0  0  0
 24 58  1  0  0  0  0
 25 65  1  0  0  0  0
 26 75  1  0  0  0  0
 27 85  1  0  0  0  0
 28 86  1  0  0  0  0
 29 31  2  0  0  0  0
 29 85  1  0  0  0  0
 30 87  1  0  0  0  0
 31 88  1  0  0  0  0
 32 69  2  0  0  0  0
 33 70  1  0  0  0  0
 33 73  1  0  0  0  0
 34 74  1  0  0  0  0
 34 80  2  0  0  0  0
 35 53  1  0  0  0  0
 35 76  1  0  0  0  0
 35 81  2  0  0  0  0
 36 66  1  0  0  0  0
 36 71  1  0  0  0  0
 36 82  2  0  0  0  0
 37 67  1  0  0  0  0
 37 77  1  0  0  0  0
 37 83  2  0  0  0  0
 38 72  1  0  0  0  0
 38 75  1  0  0  0  0
 38 84  2  0  0  0  0
 39 42  1  0  0  0  0
 40 53  1  0  0  0  0
 41 71  1  0  0  0  0
 42 44  1  0  0  0  0
 43 45  1  0  0  0  0
 43 50  1  0  0  0  0
 44 52  1  0  0  0  0
 45 54  1  0  0  0  0
 46 48  1  0  0  0  0
 46 55  1  0  0  0  0
 47 49  1  0  0  0  0
 47 55  1  0  0  0  0
 48 56  1  0  0  0  0
 49 56  1  0  0  0  0
 50 72  1  0  0  0  0
 51 54  1  0  0  0  0
 51 72  1  0  0  0  0
 52 76  1  0  0  0  0
 53 71  1  0  0  0  0
 54 70  1  0  0  0  0
 55 78  1  0  0  0  0
 56 86  1  0  0  0  0
 59 65  1  0  0  0  0
 60 67  1  0  0  0  0
 61 68  1  0  0  0  0
 62 68  1  0  0  0  0
 63 68  1  0  0  0  0
 64 79  1  0  0  0  0
 65 78  1  0  0  0  0
 66 68  1  0  0  0  0
 66 77  1  0  0  0  0
 67 79  1  0  0  0  0
 69 70  1  0  0  0  0
M  CHG  2  78   1  79   1
M  ISO  4  38 100  56 101  75 100  86 101
M  END
> <Batch ID>
0149

> <Smiles>
CNC(C)C(=O)NC(C(=O)N1Cc2cc([101O:1][101CH:1]3CCC(NC(C)c4c(C)cc([100NH:0][100C:0](=O)N5CCCC(n6nc(-c7ccc(Oc8ccc(F)cc8F)cc7)c(C(N)=O)c6N)C5)cc4C)CC3)ccc2CC1C(=O)NC1CCCc2ccccc21)C(C)(C)C

> <Shape>
0.319

> <Color>
0.060

> <Negative vol penalty>
0.000

$$$$

  -OEChem-04052321383D

 89 98  0     1  0  0  0  0  0999 V2000
  -18.4497  -24.9538   23.4686 C   0  0  0  0  0  0  0  0  0  0  0  0
  -19.8080  -24.6795   23.3464 C   0  0  0  0  0  0  0  0  0  0  0  0
  -22.3026  -13.7244   24.4367 C   0  0  0  0  0  0  0  0  0  0  0  0
  -21.4480  -14.7125   22.4044 C   0  0  0  0  0  0  0  0  0  0  0  0
  -17.9505  -26.1915   23.0652 C   0  0  0  0  0  0  0  0  0  0  0  0
  -20.6680  -25.6425   22.8195 C   0  0  0  0  0  0  0  0  0  0  0  0
  -26.4828  -26.6694   24.4438 C   0  0  0  0  0  0  0  0  0  0  0  0
  -21.1164  -14.0504   25.0940 C   0  0  0  0  0  0  0  0  0  0  0  0
  -20.2617  -15.0384   23.0617 C   0  0  0  0  0  0  0  0  0  0  0  0
  -27.6969  -26.2738   23.8841 C   0  0  0  0  0  0  0  0  0  0  0  0
  -19.7130  -16.7920   26.4863 C   0  0  0  0  0  0  0  0  0  0  0  0
  -19.8117  -17.3575   27.7575 C   0  0  0  0  0  0  0  0  0  0  0  0
  -27.8405  -28.3820   22.7204 C   0  0  0  0  0  0  0  0  0  0  0  0
  -26.4861  -22.6828   18.9381 C   0  0  0  0  0  0  0  0  0  0  0  0
  -27.9585  -20.8703   19.5577 C   0  0  0  0  0  0  0  0  0  0  0  0
  -18.5536  -15.5110   28.6766 C   0  0  0  0  0  0  0  0  0  0  0  0
  -22.4685  -14.0555   23.0918 C   0  0  0  0  0  0  0  0  0  0  0  0
  -23.9804  -12.5313   21.7140 C   0  0  0  0  0  0  0  0  0  0  0  0
  -18.8063  -27.1737   22.5421 C   0  0  0  0  0  0  0  0  0  0  0  0
  -25.9322  -27.9220   24.1369 C   0  0  0  0  0  0  0  0  0  0  0  0
  -20.1796  -26.8941   22.4074 C   0  0  0  0  0  0  0  0  0  0  0  0
  -26.6205  -28.7922   23.2795 C   0  0  0  0  0  0  0  0  0  0  0  0
  -25.3815  -21.9009   19.2756 C   0  0  0  0  0  0  0  0  0  0  0  0
  -25.5653  -20.6036   19.7543 C   0  0  0  0  0  0  0  0  0  0  0  0
  -26.8539  -20.0883   19.8953 C   0  0  0  0  0  0  0  0  0  0  0  0
  -20.0959  -14.7074   24.4066 C   0  0  0  0  0  0  0  0  0  0  0  0
  -28.3745  -27.1290   23.0200 C   0  0  0  0  0  0  0  0  0  0  0  0
  -19.0346  -15.5860   26.3102 C   0  0  0  0  0  0  0  0  0  0  0  0
  -27.7746  -22.1675   19.0790 C   0  0  0  0  0  0  0  0  0  0  0  0
  -19.2321  -16.7171   28.8527 C   0  0  0  0  0  0  0  0  0  0  0  0
  -18.4549  -14.9455   27.4054 C   0  0  0  0  0  0  0  0  0  0  0  0
  -23.6939  -13.7195   22.4124 C   0  0  0  0  0  0  0  0  0  0  0  0
  -25.2641  -12.7029   21.2566 C   0  0  0  0  0  0  0  0  0  0  0  0
  -23.1596  -11.3758   21.4979 C   0  0  0  0  0  0  0  0  0  0  0  0
  -23.2561  -28.9138   22.7374 C   0  0  0  0  0  0  0  0  0  0  0  0
  -24.3364  -31.8401   23.6273 C   0  0  0  0  0  0  0  0  0  0  0  0
  -26.9883  -33.8175   24.4664 C   0  0  0  0  0  0  0  0  0  0  0  0
  -28.2832  -18.1202   20.5760 C   0  0  0  0  0  0  0  0  0  0  0  0
  -18.2132  -28.4796   22.0756 C   0  0  0  0  0  0  0  0  0  0  0  0
  -24.6348  -28.3446   24.7699 C   0  0  0  0  0  0  0  0  0  0  0  0
  -26.0820  -30.1556   22.9340 C   0  0  0  0  0  0  0  0  0  0  0  0
  -19.2496  -29.5823   21.8756 C   0  0  0  0  0  0  0  0  0  0  0  0
  -29.2180  -15.1671   22.5919 C   0  0  0  0  0  0  0  0  0  0  0  0
  -23.8384  -23.9698   19.1656 C   0  0  0  0  0  0  0  0  0  0  0  0
  -23.3499  -23.1256   20.3009 C   0  0  0  0  0  0  0  0  0  0  0  0
  -20.4499  -29.0522   21.0978 C   0  0  0  0  0  0  0  0  0  0  0  0
  -28.0242  -14.2134   22.5255 C   0  0  0  0  0  0  0  0  0  0  0  0
  -29.3654  -16.0197   21.3392 C   0  0  0  0  0  0  0  0  0  0  0  0
  -26.8640  -16.1383   21.3333 C   0  0  0  0  0  0  0  0  0  0  0  0
  -24.0127  -22.4755   19.1159 C   0  0  0  0  0  0  0  0  0  0  0  0
  -21.1481  -27.9220   21.8637 C   0  0  1  0  0  0  0  0  0  0  0  0
  -23.9137  -29.4352   23.9838 C   0  0  1  0  0  0  0  0  0  0  0  0
  -26.9921  -14.6119   21.4574 C   0  0  2  0  0  0  0  0  0  0  0  0
  -24.3651  -19.3847   21.6056 C   0  0  0  0  0  0  0  0  0  0  0  0
  -24.2708  -18.5011   19.2465 C   0  0  0  0  0  0  0  0  0  0  0  0
  -27.5632  -36.1750   25.1059 C   0  0  0  0  0  0  0  0  0  0  0  0
  -24.0166  -32.7045   20.7186 C   0  0  0  0  0  0  0  0  0  0  0  0
  -25.4623  -34.6858   21.2213 C   0  0  0  0  0  0  0  0  0  0  0  0
  -23.2814  -34.4046   22.3990 C   0  0  0  0  0  0  0  0  0  0  0  0
  -28.0524  -32.9683   27.0943 C   0  0  0  0  0  0  0  0  0  0  0  0
  -30.7881  -26.3010   20.4530 C   0  0  0  0  0  0  0  0  0  0  0  0
  -30.8694  -23.9746   19.5474 C   0  0  0  0  0  0  0  0  0  0  0  0
  -29.8794  -27.2696   21.1839 C   0  0  0  0  0  0  0  0  0  1  0  0
  -30.0612  -22.6947   19.4655 C   0  0  0  0  0  0  0  0  0  0  0  0
  -24.3784  -19.7661   20.1153 C   0  0  0  0  0  0  0  0  0  0  0  0
  -25.2169  -32.8919   22.9968 C   0  0  1  0  0  0  0  0  0  0  0  0
  -27.1970  -34.7892   25.6139 C   0  0  2  0  0  0  0  0  0  0  0  0
  -24.5038  -33.6453   21.8387 C   0  0  0  0  0  0  0  0  0  0  0  0
  -24.7136  -14.5822   22.4024 N   0  0  0  0  0  0  0  0  0  0  0  0
  -25.6534  -13.9353   21.6922 N   0  0  0  0  0  0  0  0  0  0  0  0
  -24.8069  -30.5205   23.5732 N   0  0  0  0  0  0  0  0  0  0  0  0
  -28.1538  -16.8014   21.0758 N   0  0  0  0  0  0  0  0  0  0  0  0
  -26.0866  -11.9183   20.5284 N   0  0  0  0  0  0  0  0  0  0  0  0
  -21.8661  -11.3647   22.0373 N   0  0  0  0  0  0  0  0  0  0  0  0
  -27.0638  -18.7734   20.3800 N   0  0  0  0  0  0  0  0  0  0  0  0
  -21.9642  -28.4626   22.9296 N   0  0  0  0  0  0  0  0  0  0  0  0
  -25.6649  -33.7548   24.0845 N   0  0  0  0  0  0  0  0  0  0  0  0
  -28.2915  -34.3109   26.5051 N   0  3  0  0  0  0  0  0  0  0  0  0
  -30.0855  -25.0043   20.2816 N   0  3  0  0  0  0  0  0  0  0  0  0
  -23.5672  -10.3757   20.8597 O   0  0  0  0  0  0  0  0  0  0  0  0
  -23.8744  -28.9217   21.6795 O   0  0  0  0  0  0  0  0  0  0  0  0
  -23.2738  -32.1780   24.1549 O   0  0  0  0  0  0  0  0  0  0  0  0
  -27.9080  -33.1808   23.9571 O   0  0  0  0  0  0  0  0  0  0  0  0
  -29.3869  -18.6246   20.3580 O   0  0  0  0  0  0  0  0  0  0  0  0
  -18.9382  -15.0254   25.0476 O   0  0  0  0  0  0  0  0  0  0  0  0
  -29.5594  -26.7451   22.4718 O   0  0  0  0  0  0  0  0  0  1  0  0
  -28.8594  -22.9359   18.7458 O   0  0  0  0  0  0  0  0  0  0  0  0
  -19.3282  -17.2595   30.0736 F   0  0  0  0  0  0  0  0  0  0  0  0
  -17.8029  -13.7861   27.2426 F   0  0  0  0  0  0  0  0  0  0  0  0
  1  2  1  0  0  0  0
  1  5  2  0  0  0  0
  2  6  2  0  0  0  0
  3  8  2  0  0  0  0
  3 17  1  0  0  0  0
  4  9  1  0  0  0  0
  4 17  2  0  0  0  0
  5 19  1  0  0  0  0
  6 21  1  0  0  0  0
  7 10  2  0  0  0  0
  7 20  1  0  0  0  0
  8 26  1  0  0  0  0
  9 26  2  0  0  0  0
 10 27  1  0  0  0  0
 11 12  2  0  0  0  0
 11 28  1  0  0  0  0
 12 30  1  0  0  0  0
 13 22  1  0  0  0  0
 13 27  2  0  0  0  0
 14 23  1  0  0  0  0
 14 29  2  0  0  0  0
 15 25  2  0  0  0  0
 15 29  1  0  0  0  0
 16 30  2  0  0  0  0
 16 31  1  0  0  0  0
 17 32  1  0  0  0  0
 18 32  1  0  0  0  0
 18 33  2  0  0  0  0
 18 34  1  0  0  0  0
 19 21  2  0  0  0  0
 19 39  1  0  0  0  0
 20 22  2  0  0  0  0
 20 40  1  0  0  0  0
 21 51  1  0  0  0  0
 22 41  1  0  0  0  0
 23 24  2  0  0  0  0
 23 50  1  0  0  0  0
 24 25  1  0  0  0  0
 24 65  1  0  0  0  0
 25 75  1  0  0  0  0
 26 85  1  0  0  0  0
 27 86  1  0  0  0  0
 28 31  2  0  0  0  0
 28 85  1  0  0  0  0
 29 87  1  0  0  0  0
 30 88  1  0  0  0  0
 31 89  1  0  0  0  0
 32 69  2  0  0  0  0
 33 70  1  0  0  0  0
 33 73  1  0  0  0  0
 34 74  1  0  0  0  0
 34 80  2  0  0  0  0
 35 52  1  0  0  0  0
 35 76  1  0  0  0  0
 35 81  2  0  0  0  0
 36 66  1  0  0  0  0
 36 71  1  0  0  0  0
 36 82  2  0  0  0  0
 37 67  1  0  0  0  0
 37 77  1  0  0  0  0
 37 83  2  0  0  0  0
 38 72  1  0  0  0  0
 38 75  1  0  0  0  0
 38 84  2  0  0  0  0
 39 42  1  0  0  0  0
 40 52  1  0  0  0  0
 41 71  1  0  0  0  0
 42 46  1  0  0  0  0
 43 47  1  0  0  0  0
 43 48  1  0  0  0  0
 44 45  1  0  0  0  0
 44 50  1  0  0  0  0
 45 50  1  0  0  0  0
 46 51  1  0  0  0  0
 47 53  1  0  0  0  0
 48 72  1  0  0  0  0
 49 53  1  0  0  0  0
 49 72  1  0  0  0  0
 51 76  1  0  0  0  0
 52 71  1  0  0  0  0
 53 70  1  0  0  0  0
 54 65  1  0  0  0  0
 55 65  1  0  0  0  0
 56 67  1  0  0  0  0
 57 68  1  0  0  0  0
 58 68  1  0  0  0  0
 59 68  1  0  0  0  0
 60 78  1  0  0  0  0
 61 63  1  0  0  0  0
 61 79  1  0  0  0  0
 62 64  1  0  0  0  0
 62 79  1  0  0  0  0
 63 86  1  0  0  0  0
 64 87  1  0  0  0  0
 66 68  1  0  0  0  0
 66 77  1  0  0  0  0
 67 78  1  0  0  0  0
 69 70  1  0  0  0  0
M  CHG  2  78   1  79   1
M  ISO  4  38 100  63 101  75 100  86 101
M  END
> <Batch ID>
0149

> <Smiles>
CNC(C)C(=O)NC(C(=O)N1Cc2cc([101O:1][101CH2:1]CNCCOc3cc([100NH:0][100C:0](=O)N4CCCC(n5nc(-c6ccc(Oc7ccc(F)cc7F)cc6)c(C(N)=O)c5N)C4)c(C(C)C)c(C4CC4)c3)ccc2CC1C(=O)NC1CCCc2ccccc21)C(C)(C)C

> <Shape>
0.237

> <Color>
0.091

> <Negative vol penalty>
0.000

$$$$

  -OEChem-04052321383D

 91101  0     1  0  0  0  0  0999 V2000
  -24.7920  -39.0526   21.8323 C   0  0  0  0  0  0  0  0  0  0  0  0
  -24.8716  -38.3954   23.0559 C   0  0  0  0  0  0  0  0  0  0  0  0
  -23.0690   -9.8585   19.8762 C   0  0  0  0  0  0  0  0  0  0  0  0
  -23.8845   -9.7445   22.1476 C   0  0  0  0  0  0  0  0  0  0  0  0
  -24.3142  -38.3779   20.7097 C   0  0  0  0  0  0  0  0  0  0  0  0
  -24.4723  -37.0633   23.1578 C   0  0  0  0  0  0  0  0  0  0  0  0
  -29.0563  -31.9793   25.4009 C   0  0  0  0  0  0  0  0  0  0  0  0
  -22.3503   -8.6798   20.0751 C   0  0  0  0  0  0  0  0  0  0  0  0
  -23.1658   -8.5657   22.3465 C   0  0  0  0  0  0  0  0  0  0  0  0
  -29.8111  -30.9839   26.0219 C   0  0  0  0  0  0  0  0  0  0  0  0
  -23.4969   -5.2878   21.5874 C   0  0  0  0  0  0  0  0  0  0  0  0
  -24.1463   -4.2332   22.2289 C   0  0  0  0  0  0  0  0  0  0  0  0
  -29.7523  -23.0629   23.9673 C   0  0  0  0  0  0  0  0  0  0  0  0
  -28.0472  -29.3796   25.6184 C   0  0  0  0  0  0  0  0  0  0  0  0
  -31.9837  -21.3916   24.0696 C   0  0  0  0  0  0  0  0  0  0  0  0
  -22.4846   -4.2764   23.9822 C   0  0  0  0  0  0  0  0  0  0  0  0
  -23.8362  -10.3909   20.9125 C   0  0  0  0  0  0  0  0  0  0  0  0
  -24.1339  -12.9244   20.9337 C   0  0  0  0  0  0  0  0  0  0  0  0
  -23.9179  -37.0339   20.7957 C   0  0  0  0  0  0  0  0  0  0  0  0
  -27.7990  -31.6746   24.8719 C   0  0  0  0  0  0  0  0  0  0  0  0
  -23.9875  -36.3703   22.0355 C   0  0  0  0  0  0  0  0  0  0  0  0
  -30.9480  -23.5286   24.5141 C   0  0  0  0  0  0  0  0  0  0  0  0
  -27.2919  -30.3696   24.9841 C   0  0  0  0  0  0  0  0  0  0  0  0
  -29.6723  -21.7615   23.4717 C   0  0  0  0  0  0  0  0  0  0  0  0
  -32.0637  -22.6930   24.5652 C   0  0  0  0  0  0  0  0  0  0  0  0
  -30.7879  -20.9258   23.5228 C   0  0  0  0  0  0  0  0  0  0  0  0
  -22.3986   -8.0334   21.3102 C   0  0  0  0  0  0  0  0  0  0  0  0
  -29.3077  -29.6874   26.1306 C   0  0  0  0  0  0  0  0  0  0  0  0
  -22.3413   -5.8368   22.1432 C   0  0  0  0  0  0  0  0  0  0  0  0
  -23.6402   -3.7275   23.4263 C   0  0  0  0  0  0  0  0  0  0  0  0
  -21.8351   -5.3311   23.3406 C   0  0  0  0  0  0  0  0  0  0  0  0
  -24.5793  -11.6082   20.7075 C   0  0  0  0  0  0  0  0  0  0  0  0
  -25.2045  -13.7130   20.5897 C   0  0  0  0  0  0  0  0  0  0  0  0
  -22.8658  -13.3923   21.4120 C   0  0  0  0  0  0  0  0  0  0  0  0
  -24.7563  -32.9022   23.0523 C   0  0  0  0  0  0  0  0  0  0  0  0
  -25.3918  -30.1128   21.9450 C   0  0  0  0  0  0  0  0  0  0  0  0
  -26.6752  -27.2062   20.7033 C   0  0  0  0  0  0  0  0  0  0  0  0
  -30.6740  -14.8159   20.7092 C   0  0  0  0  0  0  0  0  0  0  0  0
  -23.3636  -36.3604   19.5654 C   0  0  0  0  0  0  0  0  0  0  0  0
  -26.9253  -32.7294   24.2492 C   0  0  0  0  0  0  0  0  0  0  0  0
  -25.9199  -30.0959   24.4313 C   0  0  0  0  0  0  0  0  0  0  0  0
  -23.3130  -34.8386   19.6746 C   0  0  0  0  0  0  0  0  0  0  0  0
  -29.5172  -12.5557   18.2132 C   0  0  0  0  0  0  0  0  0  0  0  0
  -30.6901  -25.0097   26.5515 C   0  0  0  0  0  0  0  0  0  0  0  0
  -30.1020  -25.9000   24.2492 C   0  0  0  0  0  0  0  0  0  0  0  0
  -22.7221  -34.4191   21.0169 C   0  0  0  0  0  0  0  0  0  0  0  0
  -28.0957  -12.2118   18.6616 C   0  0  0  0  0  0  0  0  0  0  0  0
  -30.7639  -26.4403   27.0788 C   0  0  0  0  0  0  0  0  0  0  0  0
  -30.1794  -27.3260   24.7885 C   0  0  0  0  0  0  0  0  0  0  0  0
  -30.4112  -18.0617   21.1427 C   0  0  0  0  0  0  0  0  0  0  0  0
  -30.3262  -17.2279   23.5018 C   0  0  0  0  0  0  0  0  0  0  0  0
  -30.4597  -12.7219   19.4032 C   0  0  0  0  0  0  0  0  0  0  0  0
  -31.0582  -19.3597   21.6259 C   0  0  0  0  0  0  0  0  0  0  0  0
  -30.9784  -18.5242   23.9802 C   0  0  0  0  0  0  0  0  0  0  0  0
  -28.5808  -13.3368   20.8747 C   0  0  0  0  0  0  0  0  0  0  0  0
  -31.0107  -24.9483   25.0474 C   0  0  0  0  0  0  0  0  0  0  0  0
  -23.5872  -34.9181   22.1806 C   0  0  1  0  0  0  0  0  0  0  0  0
  -26.0815  -32.1988   23.0763 C   0  0  1  0  0  0  0  0  0  0  0  0
  -27.5811  -13.2143   19.7120 C   0  0  2  0  0  0  0  0  0  0  0  0
  -30.7351  -16.8911   22.0689 C   0  0  0  0  0  0  0  0  0  0  0  0
  -29.8643  -27.3829   26.2813 C   0  0  0  0  0  0  0  0  0  1  0  0
  -28.3783  -21.2877   22.8939 C   0  0  0  0  0  0  0  0  0  0  0  0
  -33.3539  -23.1697   25.1468 C   0  0  0  0  0  0  0  0  0  0  0  0
  -26.2389  -25.4404   18.9744 C   0  0  0  0  0  0  0  0  0  0  0  0
  -23.1956  -28.9372   23.7053 C   0  0  0  0  0  0  0  0  0  0  0  0
  -23.4705  -26.7715   22.4795 C   0  0  0  0  0  0  0  0  0  0  0  0
  -22.7415  -28.8153   21.2490 C   0  0  0  0  0  0  0  0  0  0  0  0
  -29.2250  -27.7739   19.3123 C   0  0  0  0  0  0  0  0  0  0  0  0
  -25.1381  -28.6291   22.0326 C   0  0  1  0  0  0  0  0  0  0  0  0
  -26.9464  -26.7513   19.2806 C   0  0  2  0  0  0  0  0  0  0  0  0
  -23.6586  -28.3004   22.3797 C   0  0  0  0  0  0  0  0  0  0  0  0
  -25.8349  -11.5594   20.2547 N   0  0  0  0  0  0  0  0  0  0  0  0
  -26.1877  -12.8547   20.1935 N   0  0  0  0  0  0  0  0  0  0  0  0
  -30.7252  -19.6160   23.0308 N   0  0  0  0  0  0  0  0  0  0  0  0
  -25.7607  -30.7623   23.1293 N   0  0  0  0  0  0  0  0  0  0  0  0
  -29.9144  -13.6868   20.3610 N   0  0  0  0  0  0  0  0  0  0  0  0
  -25.3914  -15.0500   20.5905 N   0  0  0  0  0  0  0  0  0  0  0  0
  -21.8774  -12.4472   21.7187 N   0  0  0  0  0  0  0  0  0  0  0  0
  -24.7589  -34.0826   22.3339 N   0  0  0  0  0  0  0  0  0  0  0  0
  -25.5956  -28.0615   20.7689 N   0  0  0  0  0  0  0  0  0  0  0  0
  -30.0806  -15.6831   21.6184 N   0  0  0  0  0  0  0  0  0  0  0  0
  -28.4087  -26.5567   19.0689 N   0  3  0  0  0  0  0  0  0  0  0  0
  -22.6111  -14.6130   21.5474 O   0  0  0  0  0  0  0  0  0  0  0  0
  -23.8005  -32.4103   23.6407 O   0  0  0  0  0  0  0  0  0  0  0  0
  -25.2617  -30.6839   20.8587 O   0  0  0  0  0  0  0  0  0  0  0  0
  -27.3509  -26.8367   21.6611 O   0  0  0  0  0  0  0  0  0  0  0  0
  -31.7955  -15.0377   20.2401 O   0  0  0  0  0  0  0  0  0  0  0  0
  -21.6972   -6.8833   21.5047 O   0  0  0  0  0  0  0  0  0  0  0  0
  -30.0517  -28.7194   26.7341 O   0  0  0  0  0  0  0  0  0  1  0  0
  -24.2631   -2.7137   24.0415 F   0  0  0  0  0  0  0  0  0  0  0  0
  -20.7247   -5.8536   23.8789 F   0  0  0  0  0  0  0  0  0  0  0  0
  1  2  1  0  0  0  0
  1  5  2  0  0  0  0
  2  6  2  0  0  0  0
  3  8  2  0  0  0  0
  3 17  1  0  0  0  0
  4  9  1  0  0  0  0
  4 17  2  0  0  0  0
  5 19  1  0  0  0  0
  6 21  1  0  0  0  0
  7 10  2  0  0  0  0
  7 20  1  0  0  0  0
  8 27  1  0  0  0  0
  9 27  2  0  0  0  0
 10 28  1  0  0  0  0
 11 12  2  0  0  0  0
 11 29  1  0  0  0  0
 12 30  1  0  0  0  0
 13 22  1  0  0  0  0
 13 24  2  0  0  0  0
 14 23  1  0  0  0  0
 14 28  2  0  0  0  0
 15 25  1  0  0  0  0
 15 26  2  0  0  0  0
 16 30  2  0  0  0  0
 16 31  1  0  0  0  0
 17 32  1  0  0  0  0
 18 32  1  0  0  0  0
 18 33  2  0  0  0  0
 18 34  1  0  0  0  0
 19 21  2  0  0  0  0
 19 39  1  0  0  0  0
 20 23  2  0  0  0  0
 20 40  1  0  0  0  0
 21 57  1  0  0  0  0
 22 25  2  0  0  0  0
 22 56  1  0  0  0  0
 23 41  1  0  0  0  0
 24 26  1  0  0  0  0
 24 62  1  0  0  0  0
 25 63  1  0  0  0  0
 26 74  1  0  0  0  0
 27 88  1  0  0  0  0
 28 89  1  0  0  0  0
 29 31  2  0  0  0  0
 29 88  1  0  0  0  0
 30 90  1  0  0  0  0
 31 91  1  0  0  0  0
 32 72  2  0  0  0  0
 33 73  1  0  0  0  0
 33 77  1  0  0  0  0
 34 78  1  0  0  0  0
 34 83  2  0  0  0  0
 35 58  1  0  0  0  0
 35 79  1  0  0  0  0
 35 84  2  0  0  0  0
 36 69  1  0  0  0  0
 36 75  1  0  0  0  0
 36 85  2  0  0  0  0
 37 70  1  0  0  0  0
 37 80  1  0  0  0  0
 37 86  2  0  0  0  0
 38 76  1  0  0  0  0
 38 81  1  0  0  0  0
 38 87  2  0  0  0  0
 39 42  1  0  0  0  0
 40 58  1  0  0  0  0
 41 75  1  0  0  0  0
 42 46  1  0  0  0  0
 43 47  1  0  0  0  0
 43 52  1  0  0  0  0
 44 48  1  0  0  0  0
 44 56  1  0  0  0  0
 45 49  1  0  0  0  0
 45 56  1  0  0  0  0
 46 57  1  0  0  0  0
 47 59  1  0  0  0  0
 48 61  1  0  0  0  0
 49 61  1  0  0  0  0
 50 53  1  0  0  0  0
 50 60  1  0  0  0  0
 51 54  1  0  0  0  0
 51 60  1  0  0  0  0
 52 76  1  0  0  0  0
 53 74  1  0  0  0  0
 54 74  1  0  0  0  0
 55 59  1  0  0  0  0
 55 76  1  0  0  0  0
 57 79  1  0  0  0  0
 58 75  1  0  0  0  0
 59 73  1  0  0  0  0
 60 81  1  0  0  0  0
 61 89  1  0  0  0  0
 64 70  1  0  0  0  0
 65 71  1  0  0  0  0
 66 71  1  0  0  0  0
 67 71  1  0  0  0  0
 68 82  1  0  0  0  0
 69 71  1  0  0  0  0
 69 80  1  0  0  0  0
 70 82  1  0  0  0  0
 72 73  1  0  0  0  0
M  CHG  1  82   1
M  ISO  4  38 100  61 101  81 100  89 101
M  END
> <Batch ID>
0149

> <Smiles>
CNC(C)C(=O)NC(C(=O)N1Cc2cc([101O:1][101CH:1]3CCC(c4cc(C)c(N5CCC([100NH:0][100C:0](=O)N6CCCC(n7nc(-c8ccc(Oc9ccc(F)cc9F)cc8)c(C(N)=O)c7N)C6)CC5)cc4C)CC3)ccc2CC1C(=O)NC1CCCc2ccccc21)C(C)(C)C

> <Shape>
0.325

> <Color>
0.210

> <Negative vol penalty>
0.000

$$$$

  -OEChem-04052321383D

 88 96  0     1  0  0  0  0  0999 V2000
  -32.0808  -29.0209   14.9301 C   0  0  0  0  0  0  0  0  0  0  0  0
  -30.9927  -28.1561   14.9627 C   0  0  0  0  0  0  0  0  0  0  0  0
  -31.0274  -19.8083   18.5804 C   0  0  0  0  0  0  0  0  0  0  0  0
  -29.2917  -20.2986   20.1879 C   0  0  0  0  0  0  0  0  0  0  0  0
  -32.5596  -29.5775   16.1143 C   0  0  0  0  0  0  0  0  0  0  0  0
  -30.3756  -27.8570   16.1779 C   0  0  0  0  0  0  0  0  0  0  0  0
  -25.8353  -24.0051   17.4724 C   0  0  0  0  0  0  0  0  0  0  0  0
  -30.8024  -21.0382   17.9622 C   0  0  0  0  0  0  0  0  0  0  0  0
  -29.0666  -21.5286   19.5697 C   0  0  0  0  0  0  0  0  0  0  0  0
  -25.6949  -22.6745   17.8645 C   0  0  0  0  0  0  0  0  0  0  0  0
  -30.9316  -24.2039   16.1798 C   0  0  0  0  0  0  0  0  0  0  0  0
  -32.0452  -24.9696   15.8346 C   0  0  0  0  0  0  0  0  0  0  0  0
  -25.5124  -23.3780   20.1647 C   0  0  0  0  0  0  0  0  0  0  0  0
  -21.6662  -18.1547   18.1015 C   0  0  0  0  0  0  0  0  0  0  0  0
  -22.6256  -17.1647   20.0855 C   0  0  0  0  0  0  0  0  0  0  0  0
  -32.7117  -25.0467   18.1556 C   0  0  0  0  0  0  0  0  0  0  0  0
  -30.2720  -19.4385   19.6932 C   0  0  0  0  0  0  0  0  0  0  0  0
  -31.3997  -17.8955   21.3829 C   0  0  0  0  0  0  0  0  0  0  0  0
  -31.9553  -29.2747   17.3456 C   0  0  0  0  0  0  0  0  0  0  0  0
  -25.8263  -25.0329   18.4262 C   0  0  0  0  0  0  0  0  0  0  0  0
  -30.8292  -28.4274   17.3810 C   0  0  0  0  0  0  0  0  0  0  0  0
  -25.6504  -24.7210   19.7818 C   0  0  0  0  0  0  0  0  0  0  0  0
  -20.9839  -16.9668   17.8386 C   0  0  0  0  0  0  0  0  0  0  0  0
  -21.1225  -15.8779   18.6993 C   0  0  0  0  0  0  0  0  0  0  0  0
  -29.8220  -21.8984   18.4568 C   0  0  0  0  0  0  0  0  0  0  0  0
  -25.5363  -22.3606   19.2111 C   0  0  0  0  0  0  0  0  0  0  0  0
  -30.7080  -23.8597   17.5129 C   0  0  0  0  0  0  0  0  0  0  0  0
  -22.4871  -18.2537   19.2249 C   0  0  0  0  0  0  0  0  0  0  0  0
  -21.9433  -15.9768   19.8228 C   0  0  0  0  0  0  0  0  0  0  0  0
  -32.9353  -25.3909   16.8225 C   0  0  0  0  0  0  0  0  0  0  0  0
  -31.5980  -24.2810   18.5008 C   0  0  0  0  0  0  0  0  0  0  0  0
  -30.5036  -18.1678   20.3319 C   0  0  0  0  0  0  0  0  0  0  0  0
  -31.2450  -16.5527   21.6268 C   0  0  0  0  0  0  0  0  0  0  0  0
  -32.2921  -18.7774   22.0768 C   0  0  0  0  0  0  0  0  0  0  0  0
  -27.9132  -27.2381   19.3673 C   0  0  0  0  0  0  0  0  0  0  0  0
  -25.4122  -28.2855   21.1478 C   0  0  0  0  0  0  0  0  0  0  0  0
  -22.4496  -27.5720   22.6842 C   0  0  0  0  0  0  0  0  0  0  0  0
  -26.7287  -12.7333   20.6959 C   0  0  0  0  0  0  0  0  0  0  0  0
  -32.5095  -29.9113   18.5958 C   0  0  0  0  0  0  0  0  0  0  0  0
  -25.9522  -26.4652   17.9843 C   0  0  0  0  0  0  0  0  0  0  0  0
  -25.6135  -25.7891   20.8431 C   0  0  0  0  0  0  0  0  0  0  0  0
  -32.0769  -29.1936   19.8702 C   0  0  0  0  0  0  0  0  0  0  0  0
  -30.0519  -12.4642   19.4468 C   0  0  0  0  0  0  0  0  0  0  0  0
  -30.5714  -28.9750   19.8582 C   0  0  0  0  0  0  0  0  0  0  0  0
  -30.6254  -13.8709   19.6268 C   0  0  0  0  0  0  0  0  0  0  0  0
  -28.5750  -12.5021   19.0606 C   0  0  0  0  0  0  0  0  0  0  0  0
  -28.2914  -14.6962   20.1466 C   0  0  0  0  0  0  0  0  0  0  0  0
  -30.1611  -28.0635   18.6946 C   0  0  1  0  0  0  0  0  0  0  0  0
  -26.4440  -27.3913   19.0923 C   0  0  1  0  0  0  0  0  0  0  0  0
  -29.7640  -14.7084   20.5911 C   0  0  2  0  0  0  0  0  0  0  0  0
  -20.1115  -16.8860   16.6290 C   0  0  0  0  0  0  0  0  0  0  0  0
  -19.3932  -14.2469   19.5379 C   0  0  0  0  0  0  0  0  0  0  0  0
  -21.3497  -13.4220   18.1789 C   0  0  0  0  0  0  0  0  0  0  0  0
  -20.6587  -28.6220   24.0941 C   0  0  0  0  0  0  0  0  0  0  0  0
  -27.2445  -28.1350   23.5830 C   0  0  0  0  0  0  0  0  0  0  0  0
  -25.2089  -28.2592   25.0353 C   0  0  0  0  0  0  0  0  0  0  0  0
  -25.7688  -30.1528   23.5110 C   0  0  0  0  0  0  0  0  0  0  0  0
  -20.3769  -27.0682   20.6326 C   0  0  0  0  0  0  0  0  0  0  0  0
  -23.6095  -13.3429   21.6495 C   0  0  0  0  0  0  0  0  0  0  0  0
  -24.9335  -13.1157   22.3664 C   0  0  0  0  0  0  0  0  0  0  0  0
  -23.3373  -14.8139   21.3590 C   0  0  0  0  0  0  0  0  0  0  0  0
  -24.6231  -20.8112   20.7672 C   0  0  0  0  0  0  0  0  0  1  0  0
  -23.9743  -19.4458   20.6471 C   0  0  0  0  0  0  0  0  0  0  0  0
  -20.3928  -14.6022   18.4230 C   0  0  0  0  0  0  0  0  0  0  0  0
  -24.8897  -27.9931   22.5337 C   0  0  1  0  0  0  0  0  0  0  0  0
  -21.1138  -28.2932   22.6808 C   0  0  2  0  0  0  0  0  0  0  0  0
  -25.7805  -28.6145   23.6462 C   0  0  0  0  0  0  0  0  0  0  0  0
  -29.8296  -17.0850   19.9353 N   0  0  0  0  0  0  0  0  0  0  0  0
  -30.3026  -16.1192   20.7412 N   0  0  0  0  0  0  0  0  0  0  0  0
  -25.7470  -27.1739   20.3616 N   0  0  0  0  0  0  0  0  0  0  0  0
  -27.8136  -13.3107   20.0158 N   0  0  0  0  0  0  0  0  0  0  0  0
  -31.8246  -15.7122   22.5100 N   0  0  0  0  0  0  0  0  0  0  0  0
  -32.3251  -20.1269   21.6997 N   0  0  0  0  0  0  0  0  0  0  0  0
  -28.7185  -28.0500   18.5916 N   0  0  0  0  0  0  0  0  0  0  0  0
  -23.5044  -28.4502   22.5525 N   0  0  0  0  0  0  0  0  0  0  0  0
  -26.0653  -13.5671   21.5878 N   0  0  0  0  0  0  0  0  0  0  0  0
  -20.0701  -27.4473   22.0358 N   0  3  0  0  0  0  0  0  0  0  0  0
  -33.0500  -18.3772   22.9928 O   0  0  0  0  0  0  0  0  0  0  0  0
  -28.2884  -26.4432   20.2212 O   0  0  0  0  0  0  0  0  0  0  0  0
  -25.5126  -29.4567   20.7740 O   0  0  0  0  0  0  0  0  0  0  0  0
  -22.5476  -26.3521   22.7966 O   0  0  0  0  0  0  0  0  0  0  0  0
  -26.3805  -11.5601   20.5251 O   0  0  0  0  0  0  0  0  0  0  0  0
  -29.6023  -23.0988   17.8540 O   0  0  0  0  0  0  0  0  0  0  0  0
  -25.3996  -21.0627   19.5966 O   0  0  0  0  0  0  0  0  0  1  0  0
  -23.1566  -19.4207   19.4835 O   0  0  0  0  0  0  0  0  0  0  0  0
  -22.0910  -14.9237   20.6748 O   0  0  0  0  0  0  0  0  0  0  0  0
  -34.0055  -26.1249   16.4906 F   0  0  0  0  0  0  0  0  0  0  0  0
  -31.3891  -23.9524   19.7831 F   0  0  0  0  0  0  0  0  0  0  0  0
  1  2  1  0  0  0  0
  1  5  2  0  0  0  0
  2  6  2  0  0  0  0
  3  8  2  0  0  0  0
  3 17  1  0  0  0  0
  4  9  1  0  0  0  0
  4 17  2  0  0  0  0
  5 19  1  0  0  0  0
  6 21  1  0  0  0  0
  7 10  2  0  0  0  0
  7 20  1  0  0  0  0
  8 25  1  0  0  0  0
  9 25  2  0  0  0  0
 10 26  1  0  0  0  0
 11 12  2  0  0  0  0
 11 27  1  0  0  0  0
 12 30  1  0  0  0  0
 13 22  1  0  0  0  0
 13 26  2  0  0  0  0
 14 23  2  0  0  0  0
 14 28  1  0  0  0  0
 15 28  2  0  0  0  0
 15 29  1  0  0  0  0
 16 30  2  0  0  0  0
 16 31  1  0  0  0  0
 17 32  1  0  0  0  0
 18 32  1  0  0  0  0
 18 33  2  0  0  0  0
 18 34  1  0  0  0  0
 19 21  2  0  0  0  0
 19 39  1  0  0  0  0
 20 22  2  0  0  0  0
 20 40  1  0  0  0  0
 21 48  1  0  0  0  0
 22 41  1  0  0  0  0
 23 24  1  0  0  0  0
 23 51  1  0  0  0  0
 24 29  2  0  0  0  0
 24 64  1  0  0  0  0
 25 83  1  0  0  0  0
 26 84  1  0  0  0  0
 27 31  2  0  0  0  0
 27 83  1  0  0  0  0
 28 85  1  0  0  0  0
 29 86  1  0  0  0  0
 30 87  1  0  0  0  0
 31 88  1  0  0  0  0
 32 68  2  0  0  0  0
 33 69  1  0  0  0  0
 33 72  1  0  0  0  0
 34 73  1  0  0  0  0
 34 78  2  0  0  0  0
 35 49  1  0  0  0  0
 35 74  1  0  0  0  0
 35 79  2  0  0  0  0
 36 65  1  0  0  0  0
 36 70  1  0  0  0  0
 36 80  2  0  0  0  0
 37 66  1  0  0  0  0
 37 75  1  0  0  0  0
 37 81  2  0  0  0  0
 38 71  1  0  0  0  0
 38 76  1  0  0  0  0
 38 82  2  0  0  0  0
 39 42  1  0  0  0  0
 40 49  1  0  0  0  0
 41 70  1  0  0  0  0
 42 44  1  0  0  0  0
 43 45  1  0  0  0  0
 43 46  1  0  0  0  0
 44 48  1  0  0  0  0
 45 50  1  0  0  0  0
 46 71  1  0  0  0  0
 47 50  1  0  0  0  0
 47 71  1  0  0  0  0
 48 74  1  0  0  0  0
 49 70  1  0  0  0  0
 50 69  1  0  0  0  0
 52 64  1  0  0  0  0
 53 64  1  0  0  0  0
 54 66  1  0  0  0  0
 55 67  1  0  0  0  0
 56 67  1  0  0  0  0
 57 67  1  0  0  0  0
 58 77  1  0  0  0  0
 59 60  1  0  0  0  0
 59 61  1  0  0  0  0
 60 76  1  0  0  0  0
 61 86  1  0  0  0  0
 62 63  1  0  0  0  0
 62 84  1  0  0  0  0
 63 85  1  0  0  0  0
 65 67  1  0  0  0  0
 65 75  1  0  0  0  0
 66 77  1  0  0  0  0
 68 69  1  0  0  0  0
M  CHG  1  77   1
M  ISO  4  38 100  62 101  76 100  84 101
M  END
> <Batch ID>
0149

> <Smiles>
CNC(C)C(=O)NC(C(=O)N1Cc2cc([101O:1][101CH2:1]COc3cc(C)c(C(C)C)c(OCCC[100NH:0][100C:0](=O)N4CCCC(n5nc(-c6ccc(Oc7ccc(F)cc7F)cc6)c(C(N)=O)c5N)C4)c3)ccc2CC1C(=O)NC1CCCc2ccccc21)C(C)(C)C

> <Shape>
0.216

> <Color>
0.070

> <Negative vol penalty>
0.000

$$$$

  -OEChem-04052321383D

 87 95  0     1  0  0  0  0  0999 V2000
  -20.4362   -9.8747   20.0564 C   0  0  0  0  0  0  0  0  0  0  0  0
  -20.4515  -11.2414   20.3159 C   0  0  0  0  0  0  0  0  0  0  0  0
  -22.9746  -25.5946   19.5838 C   0  0  0  0  0  0  0  0  0  0  0  0
  -23.2113  -25.9321   21.9644 C   0  0  0  0  0  0  0  0  0  0  0  0
  -21.5677   -9.1037   20.3192 C   0  0  0  0  0  0  0  0  0  0  0  0
  -21.5981  -11.8377   20.8394 C   0  0  0  0  0  0  0  0  0  0  0  0
  -23.6909  -17.4686   19.6481 C   0  0  0  0  0  0  0  0  0  0  0  0
  -21.5884  -25.6859   19.7087 C   0  0  0  0  0  0  0  0  0  0  0  0
  -21.8251  -26.0234   22.0893 C   0  0  0  0  0  0  0  0  0  0  0  0
  -23.5836  -18.6748   20.3389 C   0  0  0  0  0  0  0  0  0  0  0  0
  -19.4242  -28.3392   21.5474 C   0  0  0  0  0  0  0  0  0  0  0  0
  -18.9127  -29.3676   22.3387 C   0  0  0  0  0  0  0  0  0  0  0  0
  -25.7406  -18.2831   21.3455 C   0  0  0  0  0  0  0  0  0  0  0  0
  -24.5063  -18.9854   26.1168 C   0  0  0  0  0  0  0  0  0  0  0  0
  -17.8564  -27.7372   23.7749 C   0  0  0  0  0  0  0  0  0  0  0  0
  -27.1062  -18.4356   26.7362 C   0  0  0  0  0  0  0  0  0  0  0  0
  -23.7861  -25.7176   20.7117 C   0  0  0  0  0  0  0  0  0  0  0  0
  -26.1218  -26.6755   20.3445 C   0  0  0  0  0  0  0  0  0  0  0  0
  -22.7320   -9.6925   20.8371 C   0  0  0  0  0  0  0  0  0  0  0  0
  -24.8209  -16.6540   19.8094 C   0  0  0  0  0  0  0  0  0  0  0  0
  -22.7459  -11.0736   21.1107 C   0  0  0  0  0  0  0  0  0  0  0  0
  -25.8610  -17.0682   20.6536 C   0  0  0  0  0  0  0  0  0  0  0  0
  -25.4649  -19.9838   25.9841 C   0  0  0  0  0  0  0  0  0  0  0  0
  -21.0136  -25.9003   20.9614 C   0  0  0  0  0  0  0  0  0  0  0  0
  -24.6073  -19.0808   21.1900 C   0  0  0  0  0  0  0  0  0  0  0  0
  -19.1517  -27.0097   21.8697 C   0  0  0  0  0  0  0  0  0  0  0  0
  -26.7919  -19.7118   26.2976 C   0  0  0  0  0  0  0  0  0  0  0  0
  -18.1288  -29.0667   23.4525 C   0  0  0  0  0  0  0  0  0  0  0  0
  -18.3679  -26.7087   22.9835 C   0  0  0  0  0  0  0  0  0  0  0  0
  -25.2181  -25.6228   20.5834 C   0  0  0  0  0  0  0  0  0  0  0  0
  -24.9229  -17.7417   26.5632 C   0  0  0  0  0  0  0  0  0  0  0  0
  -27.3536  -26.0691   20.3088 C   0  0  0  0  0  0  0  0  0  0  0  0
  -25.8702  -28.0762   20.1705 C   0  0  0  0  0  0  0  0  0  0  0  0
  -25.3267  -13.7088   20.8929 C   0  0  0  0  0  0  0  0  0  0  0  0
  -28.3552  -14.2745   19.8775 C   0  0  0  0  0  0  0  0  0  0  0  0
  -30.7788  -16.5549   19.1207 C   0  0  0  0  0  0  0  0  0  0  0  0
  -29.4752  -21.0033   22.6937 C   0  0  0  0  0  0  0  0  0  0  0  0
  -23.9146   -8.8101   21.1493 C   0  0  0  0  0  0  0  0  0  0  0  0
  -24.9333  -15.3685   19.0364 C   0  0  0  0  0  0  0  0  0  0  0  0
  -27.1040  -16.2398   20.8458 C   0  0  0  0  0  0  0  0  0  0  0  0
  -25.2149   -9.5836   21.3526 C   0  0  0  0  0  0  0  0  0  0  0  0
  -29.4450  -21.8988   19.2478 C   0  0  0  0  0  0  0  0  0  0  0  0
  -24.9859  -10.7811   22.2693 C   0  0  0  0  0  0  0  0  0  0  0  0
  -28.4398  -23.0497   19.1778 C   0  0  0  0  0  0  0  0  0  0  0  0
  -29.0212  -20.8405   20.2639 C   0  0  0  0  0  0  0  0  0  0  0  0
  -27.7382  -22.5082   21.5471 C   0  0  0  0  0  0  0  0  0  0  0  0
  -23.9790  -11.7612   21.6553 C   0  0  1  0  0  0  0  0  0  0  0  0
  -25.8980  -14.3718   19.6716 C   0  0  1  0  0  0  0  0  0  0  0  0
  -28.1509  -23.6278   20.5763 C   0  0  2  0  0  0  0  0  0  0  0  0
  -24.1063  -22.0015   26.5319 C   0  0  0  0  0  0  0  0  0  0  0  0
  -33.1629  -16.7147   18.3542 C   0  0  0  0  0  0  0  0  0  0  0  0
  -24.4292  -22.7203   23.4125 C   0  0  0  0  0  0  0  0  0  0  0  0
  -29.3032  -13.5020   22.6729 C   0  0  0  0  0  0  0  0  0  0  0  0
  -31.5047  -14.5716   22.1461 C   0  0  0  0  0  0  0  0  0  0  0  0
  -30.7180  -12.6175   20.8100 C   0  0  0  0  0  0  0  0  0  0  0  0
  -30.0132  -18.0223   16.6672 C   0  0  0  0  0  0  0  0  0  0  0  0
  -24.4769  -15.4841   27.1633 C   0  0  0  0  0  0  0  0  0  0  0  0
  -29.8285  -21.2944   25.1329 C   0  0  0  0  0  0  0  0  0  0  0  0
  -29.0806  -20.2026   25.8771 C   0  0  0  0  0  0  0  0  0  0  0  0
  -25.1571  -20.3376   23.1328 C   0  0  0  0  0  0  0  0  0  1  0  0
  -25.0456  -21.3645   25.4957 C   0  0  2  0  0  0  0  0  0  0  0  0
  -29.5987  -14.8630   20.4990 C   0  0  1  0  0  0  0  0  0  0  0  0
  -31.7045  -16.6814   17.9243 C   0  0  2  0  0  0  0  0  0  0  0  0
  -24.4284  -21.3280   24.0622 C   0  0  1  0  0  0  0  0  0  0  0  0
  -30.2570  -13.9034   21.5301 C   0  0  0  0  0  0  0  0  0  0  0  0
  -26.2027  -17.4399   26.8775 N   0  0  0  0  0  0  0  0  0  0  0  0
  -25.8242  -24.4375   20.6917 N   0  0  0  0  0  0  0  0  0  0  0  0
  -27.1219  -24.7417   20.5199 N   0  0  0  0  0  0  0  0  0  0  0  0
  -27.1642  -14.9881   20.0730 N   0  0  0  0  0  0  0  0  0  0  0  0
  -28.7641  -21.4537   21.5692 N   0  0  0  0  0  0  0  0  0  0  0  0
  -28.6016  -26.5471   20.1177 N   0  0  0  0  0  0  0  0  0  0  0  0
  -24.5459  -28.5305   20.2370 N   0  0  0  0  0  0  0  0  0  0  0  0
  -24.6118  -12.5570   20.6254 N   0  0  0  0  0  0  0  0  0  0  0  0
  -30.4703  -15.2384   19.3909 N   0  0  0  0  0  0  0  0  0  0  0  0
  -29.1755  -21.6423   23.8906 N   0  0  0  0  0  0  0  0  0  0  0  0
  -31.4082  -17.9321   17.1701 N   0  3  0  0  0  0  0  0  0  0  0  0
  -26.7906  -28.8983   19.9458 O   0  0  0  0  0  0  0  0  0  0  0  0
  -25.5215  -14.2048   21.9965 O   0  0  0  0  0  0  0  0  0  0  0  0
  -28.4387  -13.2242   19.2360 O   0  0  0  0  0  0  0  0  0  0  0  0
  -30.3730  -17.5265   19.7547 O   0  0  0  0  0  0  0  0  0  0  0  0
  -30.3188  -20.1023   22.6344 O   0  0  0  0  0  0  0  0  0  0  0  0
  -19.6610  -25.9897   21.0836 O   0  0  0  0  0  0  0  0  0  0  0  0
  -24.5048  -20.2574   21.8661 O   0  0  0  0  0  0  0  0  0  1  0  0
  -27.7608  -20.6555   26.1831 O   0  0  0  0  0  0  0  0  0  0  0  0
  -23.9969  -16.7412   26.7017 O   0  0  0  0  0  0  0  0  0  0  0  0
  -17.6390  -30.0543   24.2132 F   0  0  0  0  0  0  0  0  0  0  0  0
  -18.1037  -25.4333   23.2990 F   0  0  0  0  0  0  0  0  0  0  0  0
  1  2  1  0  0  0  0
  1  5  2  0  0  0  0
  2  6  2  0  0  0  0
  3  8  2  0  0  0  0
  3 17  1  0  0  0  0
  4  9  1  0  0  0  0
  4 17  2  0  0  0  0
  5 19  1  0  0  0  0
  6 21  1  0  0  0  0
  7 10  2  0  0  0  0
  7 20  1  0  0  0  0
  8 24  1  0  0  0  0
  9 24  2  0  0  0  0
 10 25  1  0  0  0  0
 11 12  2  0  0  0  0
 11 26  1  0  0  0  0
 12 28  1  0  0  0  0
 13 22  1  0  0  0  0
 13 25  2  0  0  0  0
 14 23  1  0  0  0  0
 14 31  2  0  0  0  0
 15 28  2  0  0  0  0
 15 29  1  0  0  0  0
 16 27  1  0  0  0  0
 16 66  2  0  0  0  0
 17 30  1  0  0  0  0
 18 30  1  0  0  0  0
 18 32  2  0  0  0  0
 18 33  1  0  0  0  0
 19 21  2  0  0  0  0
 19 38  1  0  0  0  0
 20 22  2  0  0  0  0
 20 39  1  0  0  0  0
 21 47  1  0  0  0  0
 22 40  1  0  0  0  0
 23 27  2  0  0  0  0
 23 61  1  0  0  0  0
 24 82  1  0  0  0  0
 25 83  1  0  0  0  0
 26 29  2  0  0  0  0
 26 82  1  0  0  0  0
 27 84  1  0  0  0  0
 28 86  1  0  0  0  0
 29 87  1  0  0  0  0
 30 67  2  0  0  0  0
 31 66  1  0  0  0  0
 31 85  1  0  0  0  0
 32 68  1  0  0  0  0
 32 71  1  0  0  0  0
 33 72  1  0  0  0  0
 33 77  2  0  0  0  0
 34 48  1  0  0  0  0
 34 73  1  0  0  0  0
 34 78  2  0  0  0  0
 35 62  1  0  0  0  0
 35 69  1  0  0  0  0
 35 79  2  0  0  0  0
 36 63  1  0  0  0  0
 36 74  1  0  0  0  0
 36 80  2  0  0  0  0
 37 70  1  0  0  0  0
 37 75  1  0  0  0  0
 37 81  2  0  0  0  0
 38 41  1  0  0  0  0
 39 48  1  0  0  0  0
 40 69  1  0  0  0  0
 41 43  1  0  0  0  0
 42 44  1  0  0  0  0
 42 45  1  0  0  0  0
 43 47  1  0  0  0  0
 44 49  1  0  0  0  0
 45 70  1  0  0  0  0
 46 49  1  0  0  0  0
 46 70  1  0  0  0  0
 47 73  1  0  0  0  0
 48 69  1  0  0  0  0
 49 68  1  0  0  0  0
 50 61  1  0  0  0  0
 51 63  1  0  0  0  0
 52 64  1  0  0  0  0
 53 65  1  0  0  0  0
 54 65  1  0  0  0  0
 55 65  1  0  0  0  0
 56 76  1  0  0  0  0
 57 85  1  0  0  0  0
 58 59  1  0  0  0  0
 58 75  1  0  0  0  0
 59 84  1  0  0  0  0
 60 64  1  0  0  0  0
 60 83  1  0  0  0  0
 61 64  1  0  0  0  0
 62 65  1  0  0  0  0
 62 74  1  0  0  0  0
 63 76  1  0  0  0  0
 67 68  1  0  0  0  0
M  CHG  1  76   1
M  ISO  4  37 100  60 101  75 100  83 101
M  END
> <Batch ID>
0149

> <Smiles>
CNC(C)C(=O)NC(C(=O)N1Cc2cc([101O:1][101CH2:1]C(C)C(C)c3cc(OC)ncc3OCC[100NH:0][100C:0](=O)N3CCCC(n4nc(-c5ccc(Oc6ccc(F)cc6F)cc5)c(C(N)=O)c4N)C3)ccc2CC1C(=O)NC1CCCc2ccccc21)C(C)(C)C

> <Shape>
0.228

> <Color>
0.046

> <Negative vol penalty>
0.000

$$$$

  -OEChem-04052321383D

 81 90  0     1  0  0  0  0  0999 V2000
  -29.1368  -29.8958   27.0698 C   0  0  0  0  0  0  0  0  0  0  0  0
  -28.7818  -28.7649   26.3414 C   0  0  0  0  0  0  0  0  0  0  0  0
  -22.8020  -10.3659   20.5823 C   0  0  0  0  0  0  0  0  0  0  0  0
  -24.5258   -9.2243   21.8321 C   0  0  0  0  0  0  0  0  0  0  0  0
  -28.2528  -30.9701   27.1618 C   0  0  0  0  0  0  0  0  0  0  0  0
  -27.5422  -28.7072   25.7055 C   0  0  0  0  0  0  0  0  0  0  0  0
  -28.6056  -19.1361   21.1933 C   0  0  0  0  0  0  0  0  0  0  0  0
  -27.8641  -26.9136   20.9807 C   0  0  0  0  0  0  0  0  0  0  0  0
  -28.6347  -20.5216   21.3656 C   0  0  0  0  0  0  0  0  0  0  0  0
  -22.0140   -9.2155   20.6182 C   0  0  0  0  0  0  0  0  0  0  0  0
  -23.7378   -8.0739   21.8681 C   0  0  0  0  0  0  0  0  0  0  0  0
  -27.9969  -25.5338   20.8311 C   0  0  0  0  0  0  0  0  0  0  0  0
  -21.0845   -6.9280   23.6195 C   0  0  0  0  0  0  0  0  0  0  0  0
  -20.9799   -6.2538   24.8361 C   0  0  0  0  0  0  0  0  0  0  0  0
  -25.6412  -25.3664   20.3392 C   0  0  0  0  0  0  0  0  0  0  0  0
  -21.9248   -4.2754   23.8210 C   0  0  0  0  0  0  0  0  0  0  0  0
  -24.0579  -10.3703   21.1891 C   0  0  0  0  0  0  0  0  0  0  0  0
  -24.8882  -12.6080   22.0895 C   0  0  0  0  0  0  0  0  0  0  0  0
  -27.0057  -30.9295   26.5187 C   0  0  0  0  0  0  0  0  0  0  0  0
  -26.6146  -27.5298   20.8211 C   0  0  0  0  0  0  0  0  0  0  0  0
  -28.2069  -18.6390   19.9650 C   0  0  0  0  0  0  0  0  0  0  0  0
  -26.6402  -29.7815   25.7901 C   0  0  0  0  0  0  0  0  0  0  0  0
  -25.4957  -26.7545   20.4848 C   0  0  0  0  0  0  0  0  0  0  0  0
  -27.8387  -19.4953   18.9226 C   0  0  0  0  0  0  0  0  0  0  0  0
  -28.2650  -21.3819   20.3187 C   0  0  0  0  0  0  0  0  0  0  0  0
  -27.8618  -20.8694   19.0836 C   0  0  0  0  0  0  0  0  0  0  0  0
  -22.4819   -8.0695   21.2612 C   0  0  0  0  0  0  0  0  0  0  0  0
  -26.8849  -24.7596   20.5132 C   0  0  0  0  0  0  0  0  0  0  0  0
  -21.6092   -6.2759   22.5036 C   0  0  0  0  0  0  0  0  0  0  0  0
  -21.4001   -4.9275   24.9369 C   0  0  0  0  0  0  0  0  0  0  0  0
  -22.0294   -4.9496   22.6044 C   0  0  0  0  0  0  0  0  0  0  0  0
  -24.8726  -11.5581   21.1518 C   0  0  0  0  0  0  0  0  0  0  0  0
  -25.8243  -13.4881   21.6040 C   0  0  0  0  0  0  0  0  0  0  0  0
  -24.1250  -12.7729   23.2920 C   0  0  0  0  0  0  0  0  0  0  0  0
  -24.6856  -29.2111   22.7068 C   0  0  0  0  0  0  0  0  0  0  0  0
  -22.9845  -29.5933   19.9713 C   0  0  0  0  0  0  0  0  0  0  0  0
  -22.2001  -28.4288   16.8608 C   0  0  0  0  0  0  0  0  0  0  0  0
  -27.8002  -16.3078   17.1490 C   0  0  0  0  0  0  0  0  0  0  0  0
  -26.0644  -32.0959   26.6860 C   0  0  0  0  0  0  0  0  0  0  0  0
  -26.4932  -29.0226   20.9596 C   0  0  0  0  0  0  0  0  0  0  0  0
  -28.0708  -17.2133   19.5388 C   0  0  0  0  0  0  0  0  0  0  0  0
  -24.1361  -27.3702   20.2828 C   0  0  0  0  0  0  0  0  0  0  0  0
  -27.4592  -18.7072   17.7146 C   0  0  0  0  0  0  0  0  0  0  0  0
  -24.9233  -32.1081   25.6720 C   0  0  0  0  0  0  0  0  0  0  0  0
  -29.2037  -12.9962   17.8704 C   0  0  0  0  0  0  0  0  0  0  0  0
  -24.2937  -30.7232   25.5602 C   0  0  0  0  0  0  0  0  0  0  0  0
  -28.1750  -12.4005   18.8340 C   0  0  0  0  0  0  0  0  0  0  0  0
  -28.5675  -13.9752   16.8857 C   0  0  0  0  0  0  0  0  0  0  0  0
  -26.7339  -14.4349   18.4648 C   0  0  0  0  0  0  0  0  0  0  0  0
  -25.3146  -29.6913   25.0657 C   0  0  1  0  0  0  0  0  0  0  0  0
  -25.0734  -29.4795   21.2802 C   0  0  1  0  0  0  0  0  0  0  0  0
  -27.3472  -13.5046   19.5198 C   0  0  1  0  0  0  0  0  0  0  0  0
  -27.4671  -21.7705   17.9635 C   0  0  0  0  0  0  0  0  0  0  0  0
  -20.7497  -28.9339   14.8762 C   0  0  0  0  0  0  0  0  0  0  0  0
  -20.5519  -28.5443   21.4853 C   0  0  0  0  0  0  0  0  0  0  0  0
  -19.4258  -28.1748   19.2799 C   0  0  0  0  0  0  0  0  0  0  0  0
  -20.0840  -30.4794   19.9717 C   0  0  0  0  0  0  0  0  0  0  0  0
  -24.5437  -28.7337   15.0794 C   0  0  0  0  0  0  0  0  0  0  0  0
  -28.3114  -22.8572   20.5535 C   0  0  0  0  0  0  0  0  0  1  0  0
  -21.8752  -28.8317   19.2870 C   0  0  1  0  0  0  0  0  0  0  0  0
  -22.1160  -29.1270   15.5155 C   0  0  2  0  0  0  0  0  0  0  0  0
  -20.5093  -28.9954   20.0116 C   0  0  0  0  0  0  0  0  0  0  0  0
  -25.7304  -11.7518   20.1465 N   0  0  0  0  0  0  0  0  0  0  0  0
  -26.2938  -12.9337   20.4497 N   0  0  0  0  0  0  0  0  0  0  0  0
  -24.0673  -28.8329   20.4353 N   0  0  0  0  0  0  0  0  0  0  0  0
  -27.6785  -17.3079   18.1170 N   0  0  0  0  0  0  0  0  0  0  0  0
  -27.7770  -14.9818   17.5925 N   0  0  0  0  0  0  0  0  0  0  0  0
  -26.2832  -14.6745   22.0560 N   0  0  0  0  0  0  0  0  0  0  0  0
  -23.2074  -11.7734   23.6433 N   0  0  0  0  0  0  0  0  0  0  0  0
  -25.5085  -29.8168   23.6370 N   0  0  0  0  0  0  0  0  0  0  0  0
  -21.8715  -29.2764   17.8975 N   0  0  0  0  0  0  0  0  0  0  0  0
  -23.1497  -28.5885   14.5868 N   0  3  0  0  0  0  0  0  0  0  0  0
  -24.2411  -13.7846   24.0244 O   0  0  0  0  0  0  0  0  0  0  0  0
  -23.7109  -28.5078   22.9459 O   0  0  0  0  0  0  0  0  0  0  0  0
  -22.8970  -30.8186   20.0835 O   0  0  0  0  0  0  0  0  0  0  0  0
  -22.5213  -27.2485   16.9797 O   0  0  0  0  0  0  0  0  0  0  0  0
  -27.9770  -16.5845   15.9557 O   0  0  0  0  0  0  0  0  0  0  0  0
  -21.7132   -6.9468   21.2967 O   0  0  0  0  0  0  0  0  0  0  0  0
  -27.0125  -23.4029   20.3662 O   0  0  0  0  0  0  0  0  0  1  0  0
  -21.3010   -4.2807   26.1056 F   0  0  0  0  0  0  0  0  0  0  0  0
  -22.5355   -4.3183   21.5361 F   0  0  0  0  0  0  0  0  0  0  0  0
  1  2  1  0  0  0  0
  1  5  2  0  0  0  0
  2  6  2  0  0  0  0
  3 10  2  0  0  0  0
  3 17  1  0  0  0  0
  4 11  1  0  0  0  0
  4 17  2  0  0  0  0
  5 19  1  0  0  0  0
  6 22  1  0  0  0  0
  7  9  2  0  0  0  0
  7 21  1  0  0  0  0
  8 12  2  0  0  0  0
  8 20  1  0  0  0  0
  9 25  1  0  0  0  0
 10 27  1  0  0  0  0
 11 27  2  0  0  0  0
 12 28  1  0  0  0  0
 13 14  2  0  0  0  0
 13 29  1  0  0  0  0
 14 30  1  0  0  0  0
 15 23  1  0  0  0  0
 15 28  2  0  0  0  0
 16 30  2  0  0  0  0
 16 31  1  0  0  0  0
 17 32  1  0  0  0  0
 18 32  1  0  0  0  0
 18 33  2  0  0  0  0
 18 34  1  0  0  0  0
 19 22  2  0  0  0  0
 19 39  1  0  0  0  0
 20 23  2  0  0  0  0
 20 40  1  0  0  0  0
 21 24  2  0  0  0  0
 21 41  1  0  0  0  0
 22 50  1  0  0  0  0
 23 42  1  0  0  0  0
 24 26  1  0  0  0  0
 24 43  1  0  0  0  0
 25 26  2  0  0  0  0
 25 59  1  0  0  0  0
 26 53  1  0  0  0  0
 27 78  1  0  0  0  0
 28 79  1  0  0  0  0
 29 31  2  0  0  0  0
 29 78  1  0  0  0  0
 30 80  1  0  0  0  0
 31 81  1  0  0  0  0
 32 63  2  0  0  0  0
 33 64  1  0  0  0  0
 33 68  1  0  0  0  0
 34 69  1  0  0  0  0
 34 73  2  0  0  0  0
 35 51  1  0  0  0  0
 35 70  1  0  0  0  0
 35 74  2  0  0  0  0
 36 60  1  0  0  0  0
 36 65  1  0  0  0  0
 36 75  2  0  0  0  0
 37 61  1  0  0  0  0
 37 71  1  0  0  0  0
 37 76  2  0  0  0  0
 38 66  1  0  0  0  0
 38 67  1  0  0  0  0
 38 77  2  0  0  0  0
 39 44  1  0  0  0  0
 40 51  1  0  0  0  0
 41 66  1  0  0  0  0
 42 65  1  0  0  0  0
 43 66  1  0  0  0  0
 44 46  1  0  0  0  0
 45 47  1  0  0  0  0
 45 48  1  0  0  0  0
 46 50  1  0  0  0  0
 47 52  1  0  0  0  0
 48 67  1  0  0  0  0
 49 52  1  0  0  0  0
 49 67  1  0  0  0  0
 50 70  1  0  0  0  0
 51 65  1  0  0  0  0
 52 64  1  0  0  0  0
 54 61  1  0  0  0  0
 55 62  1  0  0  0  0
 56 62  1  0  0  0  0
 57 62  1  0  0  0  0
 58 72  1  0  0  0  0
 59 79  1  0  0  0  0
 60 62  1  0  0  0  0
 60 71  1  0  0  0  0
 61 72  1  0  0  0  0
 63 64  1  0  0  0  0
M  CHG  1  72   1
M  ISO  4  38 100  59 101  66 100  79 101
M  END
> <Batch ID>
0149

> <Smiles>
CNC(C)C(=O)NC(C(=O)N1Cc2cc([101O:1][101CH2:1]c3ccc4c(c3C)C[100N:0]([100C:0](=O)N3CCCC(n5nc(-c6ccc(Oc7ccc(F)cc7F)cc6)c(C(N)=O)c5N)C3)C4)ccc2CC1C(=O)NC1CCCc2ccccc21)C(C)(C)C

> <Shape>
0.294

> <Color>
0.115

> <Negative vol penalty>
0.000

$$$$

  -OEChem-04052321383D

 88 97  0     1  0  0  0  0  0999 V2000
  -28.0010  -37.5984   24.0484 C   0  0  0  0  0  0  0  0  0  0  0  0
  -28.5269  -36.4503   23.4647 C   0  0  0  0  0  0  0  0  0  0  0  0
  -26.2382  -12.4444   21.6469 C   0  0  0  0  0  0  0  0  0  0  0  0
  -25.5675  -13.4002   19.5317 C   0  0  0  0  0  0  0  0  0  0  0  0
  -26.9058  -37.5039   24.9060 C   0  0  0  0  0  0  0  0  0  0  0  0
  -27.9586  -35.2069   23.7391 C   0  0  0  0  0  0  0  0  0  0  0  0
  -27.4479  -30.4640   19.8986 C   0  0  0  0  0  0  0  0  0  0  0  0
  -24.9427  -12.6151   22.1348 C   0  0  0  0  0  0  0  0  0  0  0  0
  -24.2719  -13.5708   20.0196 C   0  0  0  0  0  0  0  0  0  0  0  0
  -28.2090  -29.3082   19.7290 C   0  0  0  0  0  0  0  0  0  0  0  0
  -21.5334  -11.6583   20.5329 C   0  0  0  0  0  0  0  0  0  0  0  0
  -20.4758  -11.2868   19.7029 C   0  0  0  0  0  0  0  0  0  0  0  0
  -26.6729  -28.0968   21.1404 C   0  0  0  0  0  0  0  0  0  0  0  0
  -27.7546  -21.2526   18.6764 C   0  0  0  0  0  0  0  0  0  0  0  0
  -19.6397  -13.5529   19.7539 C   0  0  0  0  0  0  0  0  0  0  0  0
  -30.0399  -21.7040   17.2553 C   0  0  0  0  0  0  0  0  0  0  0  0
  -26.5507  -12.8370   20.3453 C   0  0  0  0  0  0  0  0  0  0  0  0
  -28.4034  -11.5365   19.1691 C   0  0  0  0  0  0  0  0  0  0  0  0
  -26.3177  -36.2598   25.1835 C   0  0  0  0  0  0  0  0  0  0  0  0
  -26.2977  -30.4475   20.7005 C   0  0  0  0  0  0  0  0  0  0  0  0
  -26.8553  -35.0956   24.6023 C   0  0  0  0  0  0  0  0  0  0  0  0
  -25.8975  -29.2531   21.3165 C   0  0  0  0  0  0  0  0  0  0  0  0
  -28.3022  -20.2224   17.9199 C   0  0  0  0  0  0  0  0  0  0  0  0
  -23.9595  -13.1782   21.3212 C   0  0  0  0  0  0  0  0  0  0  0  0
  -27.8231  -28.1251   20.3523 C   0  0  0  0  0  0  0  0  0  0  0  0
  -21.6442  -12.9772   20.9735 C   0  0  0  0  0  0  0  0  0  0  0  0
  -29.4665  -20.4442   17.1930 C   0  0  0  0  0  0  0  0  0  0  0  0
  -19.5289  -12.2340   19.3134 C   0  0  0  0  0  0  0  0  0  0  0  0
  -20.6973  -13.9244   20.5840 C   0  0  0  0  0  0  0  0  0  0  0  0
  -27.8889  -12.6616   19.8409 C   0  0  0  0  0  0  0  0  0  0  0  0
  -28.4048  -22.4761   18.6725 C   0  0  0  0  0  0  0  0  0  0  0  0
  -29.7102  -11.8641   18.9018 C   0  0  0  0  0  0  0  0  0  0  0  0
  -27.7579  -10.3054   18.8181 C   0  0  0  0  0  0  0  0  0  0  0  0
  -25.3960  -31.9363   23.3602 C   0  0  0  0  0  0  0  0  0  0  0  0
  -22.5696  -30.4603   22.7643 C   0  0  0  0  0  0  0  0  0  0  0  0
  -20.9061  -27.8813   21.2716 C   0  0  0  0  0  0  0  0  0  0  0  0
  -32.5513  -17.0944   18.2510 C   0  0  0  0  0  0  0  0  0  0  0  0
  -25.1647  -36.2023   26.1541 C   0  0  0  0  0  0  0  0  0  0  0  0
  -25.4728  -31.6961   20.8518 C   0  0  0  0  0  0  0  0  0  0  0  0
  -24.6597  -29.1776   22.1712 C   0  0  0  0  0  0  0  0  0  0  0  0
  -24.3867  -34.8900   26.0986 C   0  0  0  0  0  0  0  0  0  0  0  0
  -33.3245  -14.5132   20.5783 C   0  0  0  0  0  0  0  0  0  0  0  0
  -26.3085  -17.2685   19.0712 C   0  0  0  0  0  0  0  0  0  0  0  0
  -25.3435  -33.7021   26.0918 C   0  0  0  0  0  0  0  0  0  0  0  0
  -27.4460  -18.2512   19.2818 C   0  0  0  0  0  0  0  0  0  0  0  0
  -32.0655  -13.6444   20.5926 C   0  0  0  0  0  0  0  0  0  0  0  0
  -32.9862  -15.9947   20.4277 C   0  0  0  0  0  0  0  0  0  0  0  0
  -30.8706  -15.4512   19.2863 C   0  0  0  0  0  0  0  0  0  0  0  0
  -25.3390  -18.0448   18.2050 C   0  0  0  0  0  0  0  0  0  0  0  0
  -26.2509  -33.7316   24.8560 C   0  0  1  0  0  0  0  0  0  0  0  0
  -27.6241  -18.8777   17.8994 C   0  0  1  0  0  0  0  0  0  0  0  0
  -24.6051  -31.6906   22.1066 C   0  0  1  0  0  0  0  0  0  0  0  0
  -31.1637  -13.9440   19.3801 C   0  0  2  0  0  0  0  0  0  0  0  0
  -18.6050  -26.9195   20.9941 C   0  0  0  0  0  0  0  0  0  0  0  0
  -22.6944  -29.3491   25.6032 C   0  0  0  0  0  0  0  0  0  0  0  0
  -20.9357  -27.6889   24.9561 C   0  0  0  0  0  0  0  0  0  0  0  0
  -20.4291  -30.1304   24.8874 C   0  0  0  0  0  0  0  0  0  0  0  0
  -20.9883  -28.2306   18.3339 C   0  0  0  0  0  0  0  0  0  0  0  0
  -31.9806  -18.1050   16.0574 C   0  0  0  0  0  0  0  0  0  0  0  0
  -31.4547  -19.5118   16.2801 C   0  0  0  0  0  0  0  0  0  0  0  0
  -27.8715  -25.7497   20.2479 C   0  0  0  0  0  0  0  0  0  1  0  0
  -28.5902  -24.7415   19.3723 C   0  0  0  0  0  0  0  0  0  0  0  0
  -21.9575  -29.1320   23.1383 C   0  0  1  0  0  0  0  0  0  0  0  0
  -19.6552  -27.8528   20.4120 C   0  0  2  0  0  0  0  0  0  0  0  0
  -21.5286  -29.0767   24.6318 C   0  0  0  0  0  0  0  0  0  0  0  0
  -29.5373  -22.7294   17.9789 N   0  0  0  0  0  0  0  0  0  0  0  0
  -28.7949  -13.6314   19.9913 N   0  0  0  0  0  0  0  0  0  0  0  0
  -29.8920  -13.1166   19.4103 N   0  0  0  0  0  0  0  0  0  0  0  0
  -23.8899  -30.4266   22.2937 N   0  0  0  0  0  0  0  0  0  0  0  0
  -32.1303  -16.2111   19.2587 N   0  0  0  0  0  0  0  0  0  0  0  0
  -30.7101  -11.2002   18.2839 N   0  0  0  0  0  0  0  0  0  0  0  0
  -26.4117  -10.1334   19.1681 N   0  0  0  0  0  0  0  0  0  0  0  0
  -25.5298  -33.2719   23.6884 N   0  0  0  0  0  0  0  0  0  0  0  0
  -20.8681  -28.9046   22.1950 N   0  0  0  0  0  0  0  0  0  0  0  0
  -31.6837  -17.2370   17.1751 N   0  0  0  0  0  0  0  0  0  0  0  0
  -26.2209  -18.8799   17.3222 N   0  3  0  0  0  0  0  0  0  0  0  0
  -19.9838  -27.3894   19.0343 N   0  3  0  0  0  0  0  0  0  0  0  0
  -28.3616   -9.3786   18.2264 O   0  0  0  0  0  0  0  0  0  0  0  0
  -25.8501  -30.9845   23.9845 O   0  0  0  0  0  0  0  0  0  0  0  0
  -21.8986  -31.4890   22.8785 O   0  0  0  0  0  0  0  0  0  0  0  0
  -21.8235  -27.0741   21.1397 O   0  0  0  0  0  0  0  0  0  0  0  0
  -33.6236  -17.7063   18.3036 O   0  0  0  0  0  0  0  0  0  0  0  0
  -22.6952  -13.3446   21.7969 O   0  0  0  0  0  0  0  0  0  0  0  0
  -28.5645  -26.9957   20.1889 O   0  0  0  0  0  0  0  0  0  1  0  0
  -30.0360  -19.4680   16.4412 O   0  0  0  0  0  0  0  0  0  0  0  0
  -27.8849  -23.5068   19.4104 O   0  0  0  0  0  0  0  0  0  0  0  0
  -18.5142  -11.8775   18.5151 F   0  0  0  0  0  0  0  0  0  0  0  0
  -20.7991  -15.1932   21.0031 F   0  0  0  0  0  0  0  0  0  0  0  0
  1  2  1  0  0  0  0
  1  5  2  0  0  0  0
  2  6  2  0  0  0  0
  3  8  2  0  0  0  0
  3 17  1  0  0  0  0
  4  9  1  0  0  0  0
  4 17  2  0  0  0  0
  5 19  1  0  0  0  0
  6 21  1  0  0  0  0
  7 10  2  0  0  0  0
  7 20  1  0  0  0  0
  8 24  1  0  0  0  0
  9 24  2  0  0  0  0
 10 25  1  0  0  0  0
 11 12  2  0  0  0  0
 11 26  1  0  0  0  0
 12 28  1  0  0  0  0
 13 22  1  0  0  0  0
 13 25  2  0  0  0  0
 14 23  2  0  0  0  0
 14 31  1  0  0  0  0
 15 28  2  0  0  0  0
 15 29  1  0  0  0  0
 16 27  2  0  0  0  0
 16 66  1  0  0  0  0
 17 30  1  0  0  0  0
 18 30  1  0  0  0  0
 18 32  2  0  0  0  0
 18 33  1  0  0  0  0
 19 21  2  0  0  0  0
 19 38  1  0  0  0  0
 20 22  2  0  0  0  0
 20 39  1  0  0  0  0
 21 50  1  0  0  0  0
 22 40  1  0  0  0  0
 23 27  1  0  0  0  0
 23 51  1  0  0  0  0
 24 83  1  0  0  0  0
 25 84  1  0  0  0  0
 26 29  2  0  0  0  0
 26 83  1  0  0  0  0
 27 85  1  0  0  0  0
 28 87  1  0  0  0  0
 29 88  1  0  0  0  0
 30 67  2  0  0  0  0
 31 66  2  0  0  0  0
 31 86  1  0  0  0  0
 32 68  1  0  0  0  0
 32 71  1  0  0  0  0
 33 72  1  0  0  0  0
 33 78  2  0  0  0  0
 34 52  1  0  0  0  0
 34 73  1  0  0  0  0
 34 79  2  0  0  0  0
 35 63  1  0  0  0  0
 35 69  1  0  0  0  0
 35 80  2  0  0  0  0
 36 64  1  0  0  0  0
 36 74  1  0  0  0  0
 36 81  2  0  0  0  0
 37 70  1  0  0  0  0
 37 75  1  0  0  0  0
 37 82  2  0  0  0  0
 38 41  1  0  0  0  0
 39 52  1  0  0  0  0
 40 69  1  0  0  0  0
 41 44  1  0  0  0  0
 42 46  1  0  0  0  0
 42 47  1  0  0  0  0
 43 45  1  0  0  0  0
 43 49  1  0  0  0  0
 44 50  1  0  0  0  0
 45 51  1  0  0  0  0
 46 53  1  0  0  0  0
 47 70  1  0  0  0  0
 48 53  1  0  0  0  0
 48 70  1  0  0  0  0
 49 76  1  0  0  0  0
 50 73  1  0  0  0  0
 51 76  1  0  0  0  0
 52 69  1  0  0  0  0
 53 68  1  0  0  0  0
 54 64  1  0  0  0  0
 55 65  1  0  0  0  0
 56 65  1  0  0  0  0
 57 65  1  0  0  0  0
 58 77  1  0  0  0  0
 59 60  1  0  0  0  0
 59 75  1  0  0  0  0
 60 85  1  0  0  0  0
 61 62  1  0  0  0  0
 61 84  1  0  0  0  0
 62 86  1  0  0  0  0
 63 65  1  0  0  0  0
 63 74  1  0  0  0  0
 64 77  1  0  0  0  0
 67 68  1  0  0  0  0
M  CHG  2  76   1  77   1
M  ISO  4  37 100  61 101  75 100  84 101
M  END
> <Batch ID>
0149

> <Smiles>
CNC(C)C(=O)NC(C(=O)N1Cc2cc([101O:1][101CH2:1]COc3cc(C4CCCN4)c(OCC[100NH:0][100C:0](=O)N4CCCC(n5nc(-c6ccc(Oc7ccc(F)cc7F)cc6)c(C(N)=O)c5N)C4)cn3)ccc2CC1C(=O)NC1CCCc2ccccc21)C(C)(C)C

> <Shape>
0.291

> <Color>
0.091

> <Negative vol penalty>
0.000

$$$$

  -OEChem-04052321383D

 89 98  0     1  0  0  0  0  0999 V2000
  -25.5435  -29.1067   27.3013 C   0  0  0  0  0  0  0  0  0  0  0  0
  -25.5365  -27.7420   27.0315 C   0  0  0  0  0  0  0  0  0  0  0  0
  -23.1318   -9.7551   19.8580 C   0  0  0  0  0  0  0  0  0  0  0  0
  -23.7657   -9.8492   22.1875 C   0  0  0  0  0  0  0  0  0  0  0  0
  -26.7538  -29.7727   27.4900 C   0  0  0  0  0  0  0  0  0  0  0  0
  -26.7400  -27.0425   26.9491 C   0  0  0  0  0  0  0  0  0  0  0  0
  -26.5956  -22.6290   29.4280 C   0  0  0  0  0  0  0  0  0  0  0  0
  -22.4079   -8.5881   20.1021 C   0  0  0  0  0  0  0  0  0  0  0  0
  -23.0417   -8.6821   22.4316 C   0  0  0  0  0  0  0  0  0  0  0  0
  -25.9442  -21.5677   28.8011 C   0  0  0  0  0  0  0  0  0  0  0  0
  -21.0643   -5.9266   23.7411 C   0  0  0  0  0  0  0  0  0  0  0  0
  -20.2471   -5.8938   24.8711 C   0  0  0  0  0  0  0  0  0  0  0  0
  -28.0755  -20.6815   28.1001 C   0  0  0  0  0  0  0  0  0  0  0  0
  -25.3562  -20.4399   23.9177 C   0  0  0  0  0  0  0  0  0  0  0  0
  -18.9906   -7.7722   24.0168 C   0  0  0  0  0  0  0  0  0  0  0  0
  -23.8107  -10.3857   20.9007 C   0  0  0  0  0  0  0  0  0  0  0  0
  -24.0880  -12.9154   20.7241 C   0  0  0  0  0  0  0  0  0  0  0  0
  -27.9723  -29.0792   27.4195 C   0  0  0  0  0  0  0  0  0  0  0  0
  -27.9935  -22.7306   29.3863 C   0  0  0  0  0  0  0  0  0  0  0  0
  -27.9678  -27.7001   27.1357 C   0  0  0  0  0  0  0  0  0  0  0  0
  -28.7424  -21.7437   28.7295 C   0  0  0  0  0  0  0  0  0  0  0  0
  -25.5098  -19.2823   24.6725 C   0  0  0  0  0  0  0  0  0  0  0  0
  -26.5781  -18.4295   24.4176 C   0  0  0  0  0  0  0  0  0  0  0  0
  -22.3628   -8.0516   21.3889 C   0  0  0  0  0  0  0  0  0  0  0  0
  -26.6839  -20.5952   28.1346 C   0  0  0  0  0  0  0  0  0  0  0  0
  -20.8447   -6.8822   22.7490 C   0  0  0  0  0  0  0  0  0  0  0  0
  -19.2103   -6.8165   25.0089 C   0  0  0  0  0  0  0  0  0  0  0  0
  -19.8078   -7.8050   22.8868 C   0  0  0  0  0  0  0  0  0  0  0  0
  -24.5592  -11.5909   20.6491 C   0  0  0  0  0  0  0  0  0  0  0  0
  -26.2906  -20.6973   22.9276 C   0  0  0  0  0  0  0  0  0  0  0  0
  -27.4577  -18.7769   23.4049 C   0  0  0  0  0  0  0  0  0  0  0  0
  -25.1770  -13.6861   20.3975 C   0  0  0  0  0  0  0  0  0  0  0  0
  -22.7828  -13.4052   21.0590 C   0  0  0  0  0  0  0  0  0  0  0  0
  -30.0548  -24.8490   28.2170 C   0  0  0  0  0  0  0  0  0  0  0  0
  -32.2372  -22.9597   29.6968 C   0  0  0  0  0  0  0  0  0  0  0  0
  -33.0406  -19.8820   30.9335 C   0  0  0  0  0  0  0  0  0  0  0  0
  -30.6119  -14.8711   20.8481 C   0  0  0  0  0  0  0  0  0  0  0  0
  -29.2575  -29.8511   27.5837 C   0  0  0  0  0  0  0  0  0  0  0  0
  -28.6827  -23.8672   30.0903 C   0  0  0  0  0  0  0  0  0  0  0  0
  -30.2465  -21.7959   28.6730 C   0  0  0  0  0  0  0  0  0  0  0  0
  -30.4709  -28.9642   27.8510 C   0  0  0  0  0  0  0  0  0  0  0  0
  -29.6723  -12.3878   18.4759 C   0  0  0  0  0  0  0  0  0  0  0  0
  -30.4929  -27.7842   26.8847 C   0  0  0  0  0  0  0  0  0  0  0  0
  -27.2964  -22.9017   22.0314 C   0  0  0  0  0  0  0  0  0  0  0  0
  -26.0634  -23.2682   22.7966 C   0  0  0  0  0  0  0  0  0  0  0  0
  -28.2223  -12.0642   18.8400 C   0  0  0  0  0  0  0  0  0  0  0  0
  -30.5165  -12.6693   19.7170 C   0  0  0  0  0  0  0  0  0  0  0  0
  -28.5227  -13.3829   20.9777 C   0  0  0  0  0  0  0  0  0  0  0  0
  -29.2514  -26.9018   27.0631 C   0  0  1  0  0  0  0  0  0  0  0  0
  -26.1455  -21.9332   22.1046 C   0  0  0  0  0  0  0  0  0  0  0  0
  -30.0798  -24.1481   29.5458 C   0  0  1  0  0  0  0  0  0  0  0  0
  -27.6191  -13.1465   19.7554 C   0  0  2  0  0  0  0  0  0  0  0  0
  -26.5357  -14.6594   25.2478 C   0  0  0  0  0  0  0  0  0  0  0  0
  -34.9100  -18.6340   32.0492 C   0  0  0  0  0  0  0  0  0  0  0  0
  -31.3522  -16.8792   23.3081 C   0  0  0  0  0  0  0  0  0  0  0  0
  -33.7094  -22.7855   27.0298 C   0  0  0  0  0  0  0  0  0  0  0  0
  -34.9743  -20.8239   27.9356 C   0  0  0  0  0  0  0  0  0  0  0  0
  -35.1931  -23.0575   29.0246 C   0  0  0  0  0  0  0  0  0  0  0  0
  -31.3954  -19.3281   33.3304 C   0  0  0  0  0  0  0  0  0  0  0  0
  -24.5071  -18.9748   25.7580 C   0  0  0  0  0  0  0  0  0  0  0  0
  -26.7594  -17.1823   25.2182 C   0  0  0  0  0  0  0  0  0  0  0  0
  -26.3188  -15.9315   24.4438 C   0  0  0  0  0  0  0  0  0  0  0  0
  -29.5105  -18.1762   22.1201 C   0  0  0  0  0  0  0  0  0  0  0  0
  -24.7398  -19.8065   27.0147 C   0  0  0  0  0  0  0  0  0  1  0  0
  -33.0473  -21.7492   29.3000 C   0  0  1  0  0  0  0  0  0  0  0  0
  -33.6475  -19.4558   32.2580 C   0  0  2  0  0  0  0  0  0  0  0  0
  -30.5506  -17.0567   22.0222 C   0  0  2  0  0  0  0  0  0  0  0  0
  -34.2026  -22.1038   28.3217 C   0  0  0  0  0  0  0  0  0  0  0  0
  -25.8470  -11.5206   20.3020 N   0  0  0  0  0  0  0  0  0  0  0  0
  -27.3411  -19.8928   22.6507 N   0  0  0  0  0  0  0  0  0  0  0  0
  -26.1944  -12.8106   20.1559 N   0  0  0  0  0  0  0  0  0  0  0  0
  -30.8738  -22.9302   29.3712 N   0  0  0  0  0  0  0  0  0  0  0  0
  -29.8902  -13.7057   20.5413 N   0  0  0  0  0  0  0  0  0  0  0  0
  -25.3538  -15.0206   20.2963 N   0  0  0  0  0  0  0  0  0  0  0  0
  -21.7798  -12.4765   21.3687 N   0  0  0  0  0  0  0  0  0  0  0  0
  -28.5485  -17.9117   23.1395 N   0  0  0  0  0  0  0  0  0  0  0  0
  -29.3924  -26.0617   28.2330 N   0  0  0  0  0  0  0  0  0  0  0  0
  -33.4875  -21.1270   30.5440 N   0  0  0  0  0  0  0  0  0  0  0  0
  -29.9423  -15.8052   21.6289 N   0  0  0  0  0  0  0  0  0  0  0  0
  -32.6750  -18.6345   33.0330 N   0  3  0  0  0  0  0  0  0  0  0  0
  -22.5096  -14.6294   21.0670 O   0  0  0  0  0  0  0  0  0  0  0  0
  -30.5975  -24.3289   27.2492 O   0  0  0  0  0  0  0  0  0  0  0  0
  -32.7922  -23.8939   30.2806 O   0  0  0  0  0  0  0  0  0  0  0  0
  -32.2520  -19.1792   30.3052 O   0  0  0  0  0  0  0  0  0  0  0  0
  -31.7654  -15.0671   20.4507 O   0  0  0  0  0  0  0  0  0  0  0  0
  -21.6563   -6.9129   21.6275 O   0  0  0  0  0  0  0  0  0  0  0  0
  -26.0506  -19.5586   27.5213 O   0  0  0  0  0  0  0  0  0  1  0  0
  -18.4246   -6.7840   26.0933 F   0  0  0  0  0  0  0  0  0  0  0  0
  -19.5912   -8.7246   21.9365 F   0  0  0  0  0  0  0  0  0  0  0  0
  1  2  1  0  0  0  0
  1  5  2  0  0  0  0
  2  6  2  0  0  0  0
  3  8  2  0  0  0  0
  3 16  1  0  0  0  0
  4  9  1  0  0  0  0
  4 16  2  0  0  0  0
  5 18  1  0  0  0  0
  6 20  1  0  0  0  0
  7 10  2  0  0  0  0
  7 19  1  0  0  0  0
  8 24  1  0  0  0  0
  9 24  2  0  0  0  0
 10 25  1  0  0  0  0
 11 12  2  0  0  0  0
 11 26  1  0  0  0  0
 12 27  1  0  0  0  0
 13 21  1  0  0  0  0
 13 25  2  0  0  0  0
 14 22  2  0  0  0  0
 14 30  1  0  0  0  0
 15 27  2  0  0  0  0
 15 28  1  0  0  0  0
 16 29  1  0  0  0  0
 17 29  1  0  0  0  0
 17 32  2  0  0  0  0
 17 33  1  0  0  0  0
 18 20  2  0  0  0  0
 18 38  1  0  0  0  0
 19 21  2  0  0  0  0
 19 39  1  0  0  0  0
 20 49  1  0  0  0  0
 21 40  1  0  0  0  0
 22 23  1  0  0  0  0
 22 60  1  0  0  0  0
 23 31  2  0  0  0  0
 23 61  1  0  0  0  0
 24 86  1  0  0  0  0
 25 87  1  0  0  0  0
 26 28  2  0  0  0  0
 26 86  1  0  0  0  0
 27 88  1  0  0  0  0
 28 89  1  0  0  0  0
 29 69  2  0  0  0  0
 30 50  1  0  0  0  0
 30 70  2  0  0  0  0
 31 70  1  0  0  0  0
 31 76  1  0  0  0  0
 32 71  1  0  0  0  0
 32 74  1  0  0  0  0
 33 75  1  0  0  0  0
 33 81  2  0  0  0  0
 34 51  1  0  0  0  0
 34 77  1  0  0  0  0
 34 82  2  0  0  0  0
 35 65  1  0  0  0  0
 35 72  1  0  0  0  0
 35 83  2  0  0  0  0
 36 66  1  0  0  0  0
 36 78  1  0  0  0  0
 36 84  2  0  0  0  0
 37 73  1  0  0  0  0
 37 79  1  0  0  0  0
 37 85  2  0  0  0  0
 38 41  1  0  0  0  0
 39 51  1  0  0  0  0
 40 72  1  0  0  0  0
 41 43  1  0  0  0  0
 42 46  1  0  0  0  0
 42 47  1  0  0  0  0
 43 49  1  0  0  0  0
 44 45  1  0  0  0  0
 44 50  1  0  0  0  0
 45 50  1  0  0  0  0
 46 52  1  0  0  0  0
 47 73  1  0  0  0  0
 48 52  1  0  0  0  0
 48 73  1  0  0  0  0
 49 77  1  0  0  0  0
 51 72  1  0  0  0  0
 52 71  1  0  0  0  0
 53 62  1  0  0  0  0
 54 66  1  0  0  0  0
 55 67  1  0  0  0  0
 56 68  1  0  0  0  0
 57 68  1  0  0  0  0
 58 68  1  0  0  0  0
 59 80  1  0  0  0  0
 60 64  1  0  0  0  0
 61 62  1  0  0  0  0
 63 67  1  0  0  0  0
 63 76  1  0  0  0  0
 64 87  1  0  0  0  0
 65 68  1  0  0  0  0
 65 78  1  0  0  0  0
 66 80  1  0  0  0  0
 67 79  1  0  0  0  0
 69 71  1  0  0  0  0
M  CHG  1  80   1
M  ISO  4  37 100  64 101  79 100  87 101
M  END
> <Batch ID>
0149

> <Smiles>
CCCc1c(C[101CH2:1][101O:1]c2ccc3c(c2)CN(C(=O)C(NC(=O)C(C)NC)C(C)(C)C)C(C(=O)NC2CCCc4ccccc42)C3)cc(C2CC2)nc1NCC(C)[100NH:0][100C:0](=O)N1CCCC(n2nc(-c3ccc(Oc4ccc(F)cc4F)cc3)c(C(N)=O)c2N)C1

> <Shape>
0.163

> <Color>
0.182

> <Negative vol penalty>
0.000

$$$$

  -OEChem-04052321383D

 85 94  0     1  0  0  0  0  0999 V2000
  -18.1119  -24.8733   23.3817 C   0  0  0  0  0  0  0  0  0  0  0  0
  -19.4978  -24.7521   23.3945 C   0  0  0  0  0  0  0  0  0  0  0  0
  -23.1897  -14.3392   24.7688 C   0  0  0  0  0  0  0  0  0  0  0  0
  -22.7620  -15.8495   22.9322 C   0  0  0  0  0  0  0  0  0  0  0  0
  -17.5201  -26.0455   22.9132 C   0  0  0  0  0  0  0  0  0  0  0  0
  -20.2927  -25.8027   22.9376 C   0  0  0  0  0  0  0  0  0  0  0  0
  -24.2116  -26.7486   26.0022 C   0  0  0  0  0  0  0  0  0  0  0  0
  -22.1607  -14.9348   25.4982 C   0  0  0  0  0  0  0  0  0  0  0  0
  -21.7329  -16.4451   23.6615 C   0  0  0  0  0  0  0  0  0  0  0  0
  -25.3080  -25.8916   25.9169 C   0  0  0  0  0  0  0  0  0  0  0  0
  -21.4345  -18.6939   26.1684 C   0  0  0  0  0  0  0  0  0  0  0  0
  -21.3718  -20.0873   26.1815 C   0  0  0  0  0  0  0  0  0  0  0  0
  -26.4608  -27.5120   24.5514 C   0  0  0  0  0  0  0  0  0  0  0  0
  -27.9592  -21.0912   21.6327 C   0  0  0  0  0  0  0  0  0  0  0  0
  -30.1125  -21.8542   20.8465 C   0  0  0  0  0  0  0  0  0  0  0  0
  -19.1691  -19.9975   25.1930 C   0  0  0  0  0  0  0  0  0  0  0  0
  -23.4904  -14.7966   23.4858 C   0  0  0  0  0  0  0  0  0  0  0  0
  -24.4502  -13.0861   21.8546 C   0  0  0  0  0  0  0  0  0  0  0  0
  -18.3084  -27.1148   22.4594 C   0  0  0  0  0  0  0  0  0  0  0  0
  -24.2273  -27.9913   25.3527 C   0  0  0  0  0  0  0  0  0  0  0  0
  -19.7108  -26.9899   22.4613 C   0  0  0  0  0  0  0  0  0  0  0  0
  -25.3643  -28.3840   24.6322 C   0  0  0  0  0  0  0  0  0  0  0  0
  -29.0398  -22.9686   22.7024 C   0  0  0  0  0  0  0  0  0  0  0  0
  -27.9619  -22.0884   22.6079 C   0  0  0  0  0  0  0  0  0  0  0  0
  -30.1152  -22.8515   21.8217 C   0  0  0  0  0  0  0  0  0  0  0  0
  -21.4323  -15.9877   24.9446 C   0  0  0  0  0  0  0  0  0  0  0  0
  -26.4316  -26.2720   25.1890 C   0  0  0  0  0  0  0  0  0  0  0  0
  -20.3645  -17.9523   25.6675 C   0  0  0  0  0  0  0  0  0  0  0  0
  -29.0346  -20.9740   20.7520 C   0  0  0  0  0  0  0  0  0  0  0  0
  -20.2391  -20.7391   25.6938 C   0  0  0  0  0  0  0  0  0  0  0  0
  -19.2319  -18.6041   25.1798 C   0  0  0  0  0  0  0  0  0  0  0  0
  -24.5536  -14.1821   22.7320 C   0  0  0  0  0  0  0  0  0  0  0  0
  -25.7300  -12.8917   21.3957 C   0  0  0  0  0  0  0  0  0  0  0  0
  -23.3000  -12.3129   21.4872 C   0  0  0  0  0  0  0  0  0  0  0  0
  -22.4978  -29.3425   23.0534 C   0  0  0  0  0  0  0  0  0  0  0  0
  -24.2809  -31.9524   23.7827 C   0  0  0  0  0  0  0  0  0  0  0  0
  -27.1651  -33.2148   25.0995 C   0  0  0  0  0  0  0  0  0  0  0  0
  -30.4597  -16.5220   20.8457 C   0  0  0  0  0  0  0  0  0  0  0  0
  -17.6223  -28.3439   21.9179 C   0  0  0  0  0  0  0  0  0  0  0  0
  -23.0472  -28.9156   25.4766 C   0  0  0  0  0  0  0  0  0  0  0  0
  -25.4393  -29.7161   23.9334 C   0  0  0  0  0  0  0  0  0  0  0  0
  -18.5445  -29.5547   21.8012 C   0  0  0  0  0  0  0  0  0  0  0  0
  -30.2999  -13.4780   22.6855 C   0  0  0  0  0  0  0  0  0  0  0  0
  -19.8659  -29.1585   21.1504 C   0  0  0  0  0  0  0  0  0  0  0  0
  -28.7997  -13.2144   22.8269 C   0  0  0  0  0  0  0  0  0  0  0  0
  -29.2305  -25.4695   23.3230 C   0  0  0  0  0  0  0  0  0  0  0  0
  -30.6213  -14.9685   22.7685 C   0  0  0  0  0  0  0  0  0  0  0  0
  -28.3639  -15.5549   21.9720 C   0  0  0  0  0  0  0  0  0  0  0  0
  -29.0417  -24.0291   23.7382 C   0  0  1  0  0  0  0  0  0  0  0  0
  -20.6075  -28.1171   21.9971 C   0  0  1  0  0  0  0  0  0  0  0  0
  -22.9696  -29.9400   24.3489 C   0  0  1  0  0  0  0  0  0  0  0  0
  -27.9845  -14.0701   21.8388 C   0  0  2  0  0  0  0  0  0  0  0  0
  -27.8877  -25.0058   23.7989 C   0  0  1  0  0  0  0  0  0  1  0  0
  -26.7973  -22.1896   23.5380 C   0  0  0  0  0  0  0  0  0  0  0  0
  -31.2825  -23.7804   21.9008 C   0  0  0  0  0  0  0  0  0  0  0  0
  -28.3534  -35.3844   25.5220 C   0  0  0  0  0  0  0  0  0  0  0  0
  -25.0069  -32.1281   20.8244 C   0  0  0  0  0  0  0  0  0  0  0  0
  -26.8844  -33.6626   21.4478 C   0  0  0  0  0  0  0  0  0  0  0  0
  -24.5255  -34.3276   21.9128 C   0  0  0  0  0  0  0  0  0  0  0  0
  -27.1862  -32.7673   28.0249 C   0  0  0  0  0  0  0  0  0  0  0  0
  -30.1362  -18.0545   18.9206 C   0  0  0  0  0  0  0  0  0  0  0  0
  -30.3002  -19.4879   19.3935 C   0  0  0  0  0  0  0  0  0  0  0  0
  -25.5996  -32.5130   23.3076 C   0  0  1  0  0  0  0  0  0  0  0  0
  -27.4128  -34.3350   26.0937 C   0  0  2  0  0  0  0  0  0  0  0  0
  -25.5022  -33.1318   21.8846 C   0  0  0  0  0  0  0  0  0  0  0  0
  -25.8006  -14.6511   22.8266 N   0  0  0  0  0  0  0  0  0  0  0  0
  -26.4926  -13.8458   22.0027 N   0  0  0  0  0  0  0  0  0  0  0  0
  -24.2576  -30.5821   24.0789 N   0  0  0  0  0  0  0  0  0  0  0  0
  -29.8160  -15.7232   21.8052 N   0  0  0  0  0  0  0  0  0  0  0  0
  -26.2663  -11.9995   20.5362 N   0  0  0  0  0  0  0  0  0  0  0  0
  -22.0617  -12.6477   22.0519 N   0  0  0  0  0  0  0  0  0  0  0  0
  -21.2514  -28.7506   23.1278 N   0  0  0  0  0  0  0  0  0  0  0  0
  -26.0402  -33.4481   24.3371 N   0  0  0  0  0  0  0  0  0  0  0  0
  -29.6228  -17.1987   19.9669 N   0  0  0  0  0  0  0  0  0  0  0  0
  -28.0167  -33.7937   27.3440 N   0  3  0  0  0  0  0  0  0  0  0  0
  -23.3713  -11.3432   20.6947 O   0  0  0  0  0  0  0  0  0  0  0  0
  -23.2111  -29.4146   22.0596 O   0  0  0  0  0  0  0  0  0  0  0  0
  -23.3091  -32.7040   23.8940 O   0  0  0  0  0  0  0  0  0  0  0  0
  -27.8985  -32.2331   25.0058 O   0  0  0  0  0  0  0  0  0  0  0  0
  -31.6894  -16.6203   20.7739 O   0  0  0  0  0  0  0  0  0  0  0  0
  -20.4280  -16.5690   25.6559 O   0  0  0  0  0  0  0  0  0  0  0  0
  -27.5028  -25.4371   25.1036 O   0  0  0  0  0  0  0  0  0  1  0  0
  -29.0325  -20.0004   19.8008 O   0  0  0  0  0  0  0  0  0  0  0  0
  -20.1784  -22.0771   25.7079 F   0  0  0  0  0  0  0  0  0  0  0  0
  -18.2003  -17.8969   24.6985 F   0  0  0  0  0  0  0  0  0  0  0  0
  1  2  1  0  0  0  0
  1  5  2  0  0  0  0
  2  6  2  0  0  0  0
  3  8  2  0  0  0  0
  3 17  1  0  0  0  0
  4  9  1  0  0  0  0
  4 17  2  0  0  0  0
  5 19  1  0  0  0  0
  6 21  1  0  0  0  0
  7 10  2  0  0  0  0
  7 20  1  0  0  0  0
  8 26  1  0  0  0  0
  9 26  2  0  0  0  0
 10 27  1  0  0  0  0
 11 12  2  0  0  0  0
 11 28  1  0  0  0  0
 12 30  1  0  0  0  0
 13 22  1  0  0  0  0
 13 27  2  0  0  0  0
 14 24  2  0  0  0  0
 14 29  1  0  0  0  0
 15 25  1  0  0  0  0
 15 29  2  0  0  0  0
 16 30  2  0  0  0  0
 16 31  1  0  0  0  0
 17 32  1  0  0  0  0
 18 32  1  0  0  0  0
 18 33  2  0  0  0  0
 18 34  1  0  0  0  0
 19 21  2  0  0  0  0
 19 39  1  0  0  0  0
 20 22  2  0  0  0  0
 20 40  1  0  0  0  0
 21 50  1  0  0  0  0
 22 41  1  0  0  0  0
 23 24  1  0  0  0  0
 23 25  2  0  0  0  0
 23 49  1  0  0  0  0
 24 54  1  0  0  0  0
 25 55  1  0  0  0  0
 26 81  1  0  0  0  0
 27 82  1  0  0  0  0
 28 31  2  0  0  0  0
 28 81  1  0  0  0  0
 29 83  1  0  0  0  0
 30 84  1  0  0  0  0
 31 85  1  0  0  0  0
 32 66  2  0  0  0  0
 33 67  1  0  0  0  0
 33 70  1  0  0  0  0
 34 71  1  0  0  0  0
 34 76  2  0  0  0  0
 35 51  1  0  0  0  0
 35 72  1  0  0  0  0
 35 77  2  0  0  0  0
 36 63  1  0  0  0  0
 36 68  1  0  0  0  0
 36 78  2  0  0  0  0
 37 64  1  0  0  0  0
 37 73  1  0  0  0  0
 37 79  2  0  0  0  0
 38 69  1  0  0  0  0
 38 74  1  0  0  0  0
 38 80  2  0  0  0  0
 39 42  1  0  0  0  0
 40 51  1  0  0  0  0
 41 68  1  0  0  0  0
 42 44  1  0  0  0  0
 43 45  1  0  0  0  0
 43 47  1  0  0  0  0
 44 50  1  0  0  0  0
 45 52  1  0  0  0  0
 46 49  1  0  0  0  0
 46 53  1  0  0  0  0
 47 69  1  0  0  0  0
 48 52  1  0  0  0  0
 48 69  1  0  0  0  0
 49 53  1  0  0  0  0
 50 72  1  0  0  0  0
 51 68  1  0  0  0  0
 52 67  1  0  0  0  0
 53 82  1  0  0  0  0
 56 64  1  0  0  0  0
 57 65  1  0  0  0  0
 58 65  1  0  0  0  0
 59 65  1  0  0  0  0
 60 75  1  0  0  0  0
 61 62  1  0  0  0  0
 61 74  1  0  0  0  0
 62 83  1  0  0  0  0
 63 65  1  0  0  0  0
 63 73  1  0  0  0  0
 64 75  1  0  0  0  0
 66 67  1  0  0  0  0
M  CHG  1  75   1
M  ISO  4  38 100  53 101  74 100  82 101
M  END
> <Batch ID>
0149

> <Smiles>
CNC(C)C(=O)NC(C(=O)N1Cc2cc([101O:1][101CH:1]3CC3c3c(C)cc(OCC[100NH:0][100C:0](=O)N4CCCC(n5nc(-c6ccc(Oc7ccc(F)cc7F)cc6)c(C(N)=O)c5N)C4)cc3C)ccc2CC1C(=O)NC1CCCc2ccccc21)C(C)(C)C

> <Shape>
0.223

> <Color>
0.099

> <Negative vol penalty>
0.000

$$$$

  -OEChem-04052321383D

 84 93  0     1  0  0  0  0  0999 V2000
  -34.5579  -28.3242   21.6789 C   0  0  0  0  0  0  0  0  0  0  0  0
  -33.7592  -28.6394   20.5843 C   0  0  0  0  0  0  0  0  0  0  0  0
  -25.7913  -13.8608   20.7959 C   0  0  0  0  0  0  0  0  0  0  0  0
  -26.1391  -13.6930   18.4110 C   0  0  0  0  0  0  0  0  0  0  0  0
  -34.1320  -27.3668   22.5986 C   0  0  0  0  0  0  0  0  0  0  0  0
  -32.5343  -27.9965   20.4083 C   0  0  0  0  0  0  0  0  0  0  0  0
  -27.4171  -30.4044   18.0585 C   0  0  0  0  0  0  0  0  0  0  0  0
  -23.7674  -26.5092   13.4671 C   0  0  0  0  0  0  0  0  0  0  0  0
  -24.7756  -12.9083   20.7148 C   0  0  0  0  0  0  0  0  0  0  0  0
  -25.1234  -12.7405   18.3299 C   0  0  0  0  0  0  0  0  0  0  0  0
  -26.8499  -30.3432   16.7864 C   0  0  0  0  0  0  0  0  0  0  0  0
  -23.9453  -27.7603   14.0607 C   0  0  0  0  0  0  0  0  0  0  0  0
  -24.5285   -9.5456   20.4615 C   0  0  0  0  0  0  0  0  0  0  0  0
  -24.5172   -8.5273   21.4146 C   0  0  0  0  0  0  0  0  0  0  0  0
  -25.4442  -28.5202   17.5073 C   0  0  0  0  0  0  0  0  0  0  0  0
  -26.2037  -27.1653   14.7459 C   0  0  0  0  0  0  0  0  0  0  0  0
  -22.3251   -9.2344   22.1440 C   0  0  0  0  0  0  0  0  0  0  0  0
  -26.4731  -14.2532   19.6440 C   0  0  0  0  0  0  0  0  0  0  0  0
  -28.8931  -15.0026   19.9434 C   0  0  0  0  0  0  0  0  0  0  0  0
  -32.8969  -26.7189   22.4390 C   0  0  0  0  0  0  0  0  0  0  0  0
  -27.0091  -29.5153   19.0632 C   0  0  0  0  0  0  0  0  0  0  0  0
  -24.8079  -25.5979   13.5335 C   0  0  0  0  0  0  0  0  0  0  0  0
  -32.0920  -27.0286   21.3260 C   0  0  0  0  0  0  0  0  0  0  0  0
  -26.0060  -28.5738   18.7921 C   0  0  0  0  0  0  0  0  0  0  0  0
  -26.0154  -25.9205   14.1681 C   0  0  0  0  0  0  0  0  0  0  0  0
  -24.4416  -12.3481   19.4818 C   0  0  0  0  0  0  0  0  0  0  0  0
  -25.8654  -29.3991   16.5098 C   0  0  0  0  0  0  0  0  0  0  0  0
  -25.1545  -28.0860   14.6952 C   0  0  0  0  0  0  0  0  0  1  0  0
  -23.4382  -10.4084   20.3496 C   0  0  0  0  0  0  0  0  0  0  0  0
  -23.4155   -8.3716   22.2558 C   0  0  0  0  0  0  0  0  0  0  0  0
  -22.3365  -10.2528   21.1909 C   0  0  0  0  0  0  0  0  0  0  0  0
  -27.5220  -15.2375   19.7271 C   0  0  0  0  0  0  0  0  0  0  0  0
  -29.4609  -16.2532   19.9374 C   0  0  0  0  0  0  0  0  0  0  0  0
  -29.5910  -13.7645   20.1327 C   0  0  0  0  0  0  0  0  0  0  0  0
  -28.4450  -27.2568   20.7783 C   0  0  0  0  0  0  0  0  0  0  0  0
  -25.5946  -27.1649   22.3240 C   0  0  0  0  0  0  0  0  0  0  0  0
  -22.2358  -27.7641   22.2459 C   0  0  0  0  0  0  0  0  0  0  0  0
  -28.9682  -21.2338   17.2239 C   0  0  0  0  0  0  0  0  0  0  0  0
  -32.5004  -25.6568   23.4337 C   0  0  0  0  0  0  0  0  0  0  0  0
  -24.8639  -24.2218   12.9447 C   0  0  0  0  0  0  0  0  0  0  0  0
  -27.6118  -29.6118   20.4379 C   0  0  0  0  0  0  0  0  0  0  0  0
  -25.5185  -27.6100   19.8418 C   0  0  0  0  0  0  0  0  0  0  0  0
  -31.0191  -25.2922   23.3775 C   0  0  0  0  0  0  0  0  0  0  0  0
  -26.0383  -23.6138   13.7287 C   0  0  0  0  0  0  0  0  0  0  0  0
  -27.7725  -20.8509   20.6181 C   0  0  0  0  0  0  0  0  0  0  0  0
  -30.5746  -25.0858   21.9330 C   0  0  0  0  0  0  0  0  0  0  0  0
  -27.7210  -19.3280   20.7525 C   0  0  0  0  0  0  0  0  0  0  0  0
  -27.3546  -21.2969   19.2201 C   0  0  0  0  0  0  0  0  0  0  0  0
  -28.0892  -19.1549   18.2477 C   0  0  0  0  0  0  0  0  0  0  0  0
  -30.7457  -26.3709   21.1141 C   0  0  1  0  0  0  0  0  0  0  0  0
  -26.9836  -24.7849   14.0475 C   0  0  2  0  0  0  0  0  0  0  0  0
  -27.4862  -28.3187   21.2375 C   0  0  1  0  0  0  0  0  0  0  0  0
  -28.5224  -18.6392   19.6320 C   0  0  2  0  0  0  0  0  0  0  0  0
  -20.1639  -27.5520   23.6457 C   0  0  0  0  0  0  0  0  0  0  0  0
  -30.2759  -24.6764   16.9581 C   0  0  0  0  0  0  0  0  0  0  0  0
  -25.5417  -24.1619   21.7863 C   0  0  0  0  0  0  0  0  0  0  0  0
  -23.0984  -24.1777   22.3324 C   0  0  0  0  0  0  0  0  0  0  0  0
  -24.7671  -24.8267   24.0694 C   0  0  0  0  0  0  0  0  0  0  0  0
  -21.7614  -30.6849   22.1935 C   0  0  0  0  0  0  0  0  0  0  0  0
  -28.9859  -23.6448   15.0120 C   0  0  0  0  0  0  0  0  0  0  0  0
  -24.3055  -26.4001   22.1449 C   0  0  1  0  0  0  0  0  0  0  0  0
  -21.3132  -28.4578   23.2317 C   0  0  2  0  0  0  0  0  0  0  0  0
  -29.7634  -23.3968   16.3041 C   0  0  2  0  0  0  0  0  0  0  0  0
  -24.4385  -24.9084   22.5627 C   0  0  0  0  0  0  0  0  0  0  0  0
  -27.2361  -16.5354   19.5936 N   0  0  0  0  0  0  0  0  0  0  0  0
  -28.4353  -17.1272   19.7264 N   0  0  0  0  0  0  0  0  0  0  0  0
  -26.1430  -27.7397   21.1687 N   0  0  0  0  0  0  0  0  0  0  0  0
  -28.1680  -20.6188   18.2010 N   0  0  0  0  0  0  0  0  0  0  0  0
  -30.7324  -16.6795   20.0921 N   0  0  0  0  0  0  0  0  0  0  0  0
  -28.8547  -12.5722   20.1099 N   0  0  0  0  0  0  0  0  0  0  0  0
  -29.6760  -27.3014   21.4045 N   0  0  0  0  0  0  0  0  0  0  0  0
  -23.2867  -27.1388   22.8829 N   0  0  0  0  0  0  0  0  0  0  0  0
  -28.9825  -22.6231   17.2435 N   0  0  0  0  0  0  0  0  0  0  0  0
  -27.7719  -24.4720   15.2604 N   0  3  0  0  0  0  0  0  0  0  0  0
  -20.7425  -29.6939   22.6255 N   0  3  0  0  0  0  0  0  0  0  0  0
  -30.8285  -13.7182   20.3330 O   0  0  0  0  0  0  0  0  0  0  0  0
  -28.0935  -26.4555   19.9204 O   0  0  0  0  0  0  0  0  0  0  0  0
  -26.0929  -27.2553   23.4488 O   0  0  0  0  0  0  0  0  0  0  0  0
  -22.0416  -27.7727   21.0323 O   0  0  0  0  0  0  0  0  0  0  0  0
  -29.6261  -20.5919   16.3978 O   0  0  0  0  0  0  0  0  0  0  0  0
  -23.4507  -11.4184   19.4023 O   0  0  0  0  0  0  0  0  0  0  0  0
  -25.3106  -29.3368   15.2687 O   0  0  0  0  0  0  0  0  0  1  0  0
  -23.4041   -7.3927   23.1700 F   0  0  0  0  0  0  0  0  0  0  0  0
  -21.2857  -11.0778   21.0873 F   0  0  0  0  0  0  0  0  0  0  0  0
  1  2  1  0  0  0  0
  1  5  2  0  0  0  0
  2  6  2  0  0  0  0
  3  9  2  0  0  0  0
  3 18  1  0  0  0  0
  4 10  1  0  0  0  0
  4 18  2  0  0  0  0
  5 20  1  0  0  0  0
  6 23  1  0  0  0  0
  7 11  2  0  0  0  0
  7 21  1  0  0  0  0
  8 12  2  0  0  0  0
  8 22  1  0  0  0  0
  9 26  1  0  0  0  0
 10 26  2  0  0  0  0
 11 27  1  0  0  0  0
 12 28  1  0  0  0  0
 13 14  2  0  0  0  0
 13 29  1  0  0  0  0
 14 30  1  0  0  0  0
 15 24  1  0  0  0  0
 15 27  2  0  0  0  0
 16 25  1  0  0  0  0
 16 28  2  0  0  0  0
 17 30  2  0  0  0  0
 17 31  1  0  0  0  0
 18 32  1  0  0  0  0
 19 32  1  0  0  0  0
 19 33  2  0  0  0  0
 19 34  1  0  0  0  0
 20 23  2  0  0  0  0
 20 39  1  0  0  0  0
 21 24  2  0  0  0  0
 21 41  1  0  0  0  0
 22 25  2  0  0  0  0
 22 40  1  0  0  0  0
 23 50  1  0  0  0  0
 24 42  1  0  0  0  0
 25 51  1  0  0  0  0
 26 81  1  0  0  0  0
 27 82  1  0  0  0  0
 28 82  1  0  0  0  0
 29 31  2  0  0  0  0
 29 81  1  0  0  0  0
 30 83  1  0  0  0  0
 31 84  1  0  0  0  0
 32 65  2  0  0  0  0
 33 66  1  0  0  0  0
 33 69  1  0  0  0  0
 34 70  1  0  0  0  0
 34 76  2  0  0  0  0
 35 52  1  0  0  0  0
 35 71  1  0  0  0  0
 35 77  2  0  0  0  0
 36 61  1  0  0  0  0
 36 67  1  0  0  0  0
 36 78  2  0  0  0  0
 37 62  1  0  0  0  0
 37 72  1  0  0  0  0
 37 79  2  0  0  0  0
 38 68  1  0  0  0  0
 38 73  1  0  0  0  0
 38 80  2  0  0  0  0
 39 43  1  0  0  0  0
 40 44  1  0  0  0  0
 41 52  1  0  0  0  0
 42 67  1  0  0  0  0
 43 46  1  0  0  0  0
 44 51  1  0  0  0  0
 45 47  1  0  0  0  0
 45 48  1  0  0  0  0
 46 50  1  0  0  0  0
 47 53  1  0  0  0  0
 48 68  1  0  0  0  0
 49 53  1  0  0  0  0
 49 68  1  0  0  0  0
 50 71  1  0  0  0  0
 51 74  1  0  0  0  0
 52 67  1  0  0  0  0
 53 66  1  0  0  0  0
 54 62  1  0  0  0  0
 55 63  1  0  0  0  0
 56 64  1  0  0  0  0
 57 64  1  0  0  0  0
 58 64  1  0  0  0  0
 59 75  1  0  0  0  0
 60 63  1  0  0  0  0
 60 74  1  0  0  0  0
 61 64  1  0  0  0  0
 61 72  1  0  0  0  0
 62 75  1  0  0  0  0
 63 73  1  0  0  0  0
 65 66  1  0  0  0  0
M  CHG  2  74   1  75   1
M  ISO  4  28 101  38 100  73 100  82 101
M  END
> <Batch ID>
0149

> <Smiles>
CNC(C)C(=O)NC(C(=O)N1Cc2cc([101O:1][101c:1]3ccc4c(c3)C(NCC(C)[100NH:0][100C:0](=O)N3CCCC(n5nc(-c6ccc(Oc7ccc(F)cc7F)cc6)c(C(N)=O)c5N)C3)CC4)ccc2CC1C(=O)NC1CCCc2ccccc21)C(C)(C)C

> <Shape>
0.213

> <Color>
0.067

> <Negative vol penalty>
0.000

$$$$

  -OEChem-04052321383D

 89 98  0     1  0  0  0  0  0999 V2000
  -19.6961  -33.1446   15.7849 C   0  0  0  0  0  0  0  0  0  0  0  0
  -20.7354  -32.2198   15.7898 C   0  0  0  0  0  0  0  0  0  0  0  0
  -23.6506   -9.0402   21.3938 C   0  0  0  0  0  0  0  0  0  0  0  0
  -23.4430   -8.1633   19.1522 C   0  0  0  0  0  0  0  0  0  0  0  0
  -19.7351  -34.2400   16.6466 C   0  0  0  0  0  0  0  0  0  0  0  0
  -21.8149  -32.3905   16.6558 C   0  0  0  0  0  0  0  0  0  0  0  0
  -25.0213  -27.9870   19.4547 C   0  0  0  0  0  0  0  0  0  0  0  0
  -22.7249   -8.1004   21.8472 C   0  0  0  0  0  0  0  0  0  0  0  0
  -22.5174   -7.2234   19.6056 C   0  0  0  0  0  0  0  0  0  0  0  0
  -26.2423  -27.3828   19.1579 C   0  0  0  0  0  0  0  0  0  0  0  0
  -22.6995   -4.8163   22.6515 C   0  0  0  0  0  0  0  0  0  0  0  0
  -22.9943   -4.1329   23.8311 C   0  0  0  0  0  0  0  0  0  0  0  0
  -27.3534  -28.9002   20.6686 C   0  0  0  0  0  0  0  0  0  0  0  0
  -28.4865  -23.1186   21.8606 C   0  0  0  0  0  0  0  0  0  0  0  0
  -20.9838   -5.0117   24.8426 C   0  0  0  0  0  0  0  0  0  0  0  0
  -24.0096   -9.0717   20.0463 C   0  0  0  0  0  0  0  0  0  0  0  0
  -26.3634   -9.8935   19.5059 C   0  0  0  0  0  0  0  0  0  0  0  0
  -20.8110  -34.4190   17.5303 C   0  0  0  0  0  0  0  0  0  0  0  0
  -24.9586  -29.0611   20.3539 C   0  0  0  0  0  0  0  0  0  0  0  0
  -21.8690  -33.4900   17.5291 C   0  0  0  0  0  0  0  0  0  0  0  0
  -26.1300  -29.5145   20.9770 C   0  0  0  0  0  0  0  0  0  0  0  0
  -29.6584  -24.7366   20.5216 C   0  0  0  0  0  0  0  0  0  0  0  0
  -22.1583   -7.1920   20.9531 C   0  0  0  0  0  0  0  0  0  0  0  0
  -27.4089  -27.8413   19.7627 C   0  0  0  0  0  0  0  0  0  0  0  0
  -21.5469   -5.5975   22.5673 C   0  0  0  0  0  0  0  0  0  0  0  0
  -29.2256  -24.2925   21.7661 C   0  0  0  0  0  0  0  0  0  0  0  0
  -22.1365   -4.2306   24.9267 C   0  0  0  0  0  0  0  0  0  0  0  0
  -20.6891   -5.6951   23.6629 C   0  0  0  0  0  0  0  0  0  0  0  0
  -24.9653  -10.0426   19.5773 C   0  0  0  0  0  0  0  0  0  0  0  0
  -29.3285  -23.9766   19.4110 C   0  0  0  0  0  0  0  0  0  0  0  0
  -28.2089  -22.4311   20.6901 C   0  0  0  0  0  0  0  0  0  0  0  0
  -26.8105  -11.0880   18.9963 C   0  0  0  0  0  0  0  0  0  0  0  0
  -27.1844   -8.7752   19.8679 C   0  0  0  0  0  0  0  0  0  0  0  0
  -24.0759  -32.1080   20.1507 C   0  0  0  0  0  0  0  0  0  0  0  0
  -24.5471  -32.0535   23.3596 C   0  0  0  0  0  0  0  0  0  0  0  0
  -26.0950  -30.6094   26.0365 C   0  0  0  0  0  0  0  0  0  0  0  0
  -26.8932  -16.4491   18.7546 C   0  0  0  0  0  0  0  0  0  0  0  0
  -20.8319  -35.6440   18.4099 C   0  0  0  0  0  0  0  0  0  0  0  0
  -23.6301  -29.6845   20.6837 C   0  0  0  0  0  0  0  0  0  0  0  0
  -26.1137  -30.6513   21.9650 C   0  0  0  0  0  0  0  0  0  0  0  0
  -21.8304  -35.5505   19.5608 C   0  0  0  0  0  0  0  0  0  0  0  0
  -24.2911  -14.9507   16.9344 C   0  0  0  0  0  0  0  0  0  0  0  0
  -23.1765  -35.0375   19.0593 C   0  0  0  0  0  0  0  0  0  0  0  0
  -24.3436  -13.5150   17.4560 C   0  0  0  0  0  0  0  0  0  0  0  0
  -25.8999  -19.5723   20.0378 C   0  0  0  0  0  0  0  0  0  0  0  0
  -28.2951  -19.5797   19.2435 C   0  0  0  0  0  0  0  0  0  0  0  0
  -24.5052  -15.9743   18.0510 C   0  0  0  0  0  0  0  0  0  0  0  0
  -25.5485  -18.5921   18.9147 C   0  0  0  0  0  0  0  0  0  0  0  0
  -27.8920  -18.6251   18.1231 C   0  0  0  0  0  0  0  0  0  0  0  0
  -25.7899  -14.3163   19.3621 C   0  0  0  0  0  0  0  0  0  0  0  0
  -23.0452  -33.6273   18.4714 C   0  0  1  0  0  0  0  0  0  0  0  0
  -23.7546  -31.1061   21.2233 C   0  0  1  0  0  0  0  0  0  0  0  0
  -25.6360  -13.2638   18.2532 C   0  0  1  0  0  0  0  0  0  0  0  0
  -27.1039  -20.4422   19.6689 C   0  0  0  0  0  0  0  0  0  0  0  0
  -29.0519  -23.6320   16.9430 C   0  0  0  0  0  0  0  0  0  0  0  0
  -26.3135  -30.8077   28.5285 C   0  0  0  0  0  0  0  0  0  0  0  0
  -26.3874  -34.4612   23.0043 C   0  0  0  0  0  0  0  0  0  0  0  0
  -27.2918  -34.0203   25.2969 C   0  0  0  0  0  0  0  0  0  0  0  0
  -24.8806  -34.5848   24.9965 C   0  0  0  0  0  0  0  0  0  0  0  0
  -24.9869  -27.8989   26.4657 C   0  0  0  0  0  0  0  0  0  0  0  0
  -29.0305  -24.4613   24.1302 C   0  0  0  0  0  0  0  0  0  0  0  0
  -30.4525  -25.9928   20.3957 C   0  0  0  0  0  0  0  0  0  0  0  0
  -29.7661  -24.4040   18.0482 C   0  0  0  0  0  0  0  0  0  0  0  0
  -29.5930  -27.2564   20.5001 C   0  0  0  0  0  0  0  0  0  1  0  0
  -25.7213  -32.3131   24.2723 C   0  0  1  0  0  0  0  0  0  0  0  0
  -25.5616  -30.1505   27.3816 C   0  0  2  0  0  0  0  0  0  0  0  0
  -26.0712  -33.8247   24.3725 C   0  0  0  0  0  0  0  0  0  0  0  0
  -24.5516  -11.2376   19.1475 N   0  0  0  0  0  0  0  0  0  0  0  0
  -28.6123  -22.8312   19.4634 N   0  0  0  0  0  0  0  0  0  0  0  0
  -25.6965  -11.8504   18.8013 N   0  0  0  0  0  0  0  0  0  0  0  0
  -24.7913  -31.2322   22.2498 N   0  0  0  0  0  0  0  0  0  0  0  0
  -25.7275  -15.6704   18.8081 N   0  0  0  0  0  0  0  0  0  0  0  0
  -26.7318  -17.8206   18.5080 N   0  0  0  0  0  0  0  0  0  0  0  0
  -28.0439  -11.5502   18.7006 N   0  0  0  0  0  0  0  0  0  0  0  0
  -26.5626   -7.6264   20.3757 N   0  0  0  0  0  0  0  0  0  0  0  0
  -27.4725  -21.2650   20.7998 N   0  0  0  0  0  0  0  0  0  0  0  0
  -22.9637  -32.6440   19.5300 N   0  0  0  0  0  0  0  0  0  0  0  0
  -25.3909  -31.6903   25.5496 N   0  0  0  0  0  0  0  0  0  0  0  0
  -25.6978  -28.6725   27.5159 N   0  3  0  0  0  0  0  0  0  0  0  0
  -28.4339   -8.8002   19.7600 O   0  0  0  0  0  0  0  0  0  0  0  0
  -25.2462  -32.3761   19.9054 O   0  0  0  0  0  0  0  0  0  0  0  0
  -23.4520  -32.5549   23.6256 O   0  0  0  0  0  0  0  0  0  0  0  0
  -27.0440  -30.0659   25.4756 O   0  0  0  0  0  0  0  0  0  0  0  0
  -28.0130  -15.9484   18.9177 O   0  0  0  0  0  0  0  0  0  0  0  0
  -21.2552   -6.2747   21.3952 O   0  0  0  0  0  0  0  0  0  0  0  0
  -29.5154  -24.9920   22.8982 O   0  0  0  0  0  0  0  0  0  0  0  0
  -28.6105  -27.2498   19.4722 O   0  0  0  0  0  0  0  0  0  1  0  0
  -22.4189   -3.5730   26.0590 F   0  0  0  0  0  0  0  0  0  0  0  0
  -19.5797   -6.4430   23.5877 F   0  0  0  0  0  0  0  0  0  0  0  0
  1  2  1  0  0  0  0
  1  5  2  0  0  0  0
  2  6  2  0  0  0  0
  3  8  2  0  0  0  0
  3 16  1  0  0  0  0
  4  9  1  0  0  0  0
  4 16  2  0  0  0  0
  5 18  1  0  0  0  0
  6 20  1  0  0  0  0
  7 10  2  0  0  0  0
  7 19  1  0  0  0  0
  8 23  1  0  0  0  0
  9 23  2  0  0  0  0
 10 24  1  0  0  0  0
 11 12  2  0  0  0  0
 11 25  1  0  0  0  0
 12 27  1  0  0  0  0
 13 21  1  0  0  0  0
 13 24  2  0  0  0  0
 14 26  2  0  0  0  0
 14 31  1  0  0  0  0
 15 27  2  0  0  0  0
 15 28  1  0  0  0  0
 16 29  1  0  0  0  0
 17 29  1  0  0  0  0
 17 32  2  0  0  0  0
 17 33  1  0  0  0  0
 18 20  2  0  0  0  0
 18 38  1  0  0  0  0
 19 21  2  0  0  0  0
 19 39  1  0  0  0  0
 20 51  1  0  0  0  0
 21 40  1  0  0  0  0
 22 26  1  0  0  0  0
 22 30  2  0  0  0  0
 22 62  1  0  0  0  0
 23 85  1  0  0  0  0
 24 87  1  0  0  0  0
 25 28  2  0  0  0  0
 25 85  1  0  0  0  0
 26 86  1  0  0  0  0
 27 88  1  0  0  0  0
 28 89  1  0  0  0  0
 29 68  2  0  0  0  0
 30 63  1  0  0  0  0
 30 69  1  0  0  0  0
 31 69  2  0  0  0  0
 31 76  1  0  0  0  0
 32 70  1  0  0  0  0
 32 74  1  0  0  0  0
 33 75  1  0  0  0  0
 33 80  2  0  0  0  0
 34 52  1  0  0  0  0
 34 77  1  0  0  0  0
 34 81  2  0  0  0  0
 35 65  1  0  0  0  0
 35 71  1  0  0  0  0
 35 82  2  0  0  0  0
 36 66  1  0  0  0  0
 36 78  1  0  0  0  0
 36 83  2  0  0  0  0
 37 72  1  0  0  0  0
 37 73  1  0  0  0  0
 37 84  2  0  0  0  0
 38 41  1  0  0  0  0
 39 52  1  0  0  0  0
 40 71  1  0  0  0  0
 41 43  1  0  0  0  0
 42 44  1  0  0  0  0
 42 47  1  0  0  0  0
 43 51  1  0  0  0  0
 44 53  1  0  0  0  0
 45 48  1  0  0  0  0
 45 54  1  0  0  0  0
 46 49  1  0  0  0  0
 46 54  1  0  0  0  0
 47 72  1  0  0  0  0
 48 73  1  0  0  0  0
 49 73  1  0  0  0  0
 50 53  1  0  0  0  0
 50 72  1  0  0  0  0
 51 77  1  0  0  0  0
 52 71  1  0  0  0  0
 53 70  1  0  0  0  0
 54 76  1  0  0  0  0
 55 63  1  0  0  0  0
 56 66  1  0  0  0  0
 57 67  1  0  0  0  0
 58 67  1  0  0  0  0
 59 67  1  0  0  0  0
 60 79  1  0  0  0  0
 61 86  1  0  0  0  0
 62 64  1  0  0  0  0
 64 87  1  0  0  0  0
 65 67  1  0  0  0  0
 65 78  1  0  0  0  0
 66 79  1  0  0  0  0
 68 70  1  0  0  0  0
M  CHG  1  79   1
M  ISO  4  37 100  64 101  73 100  87 101
M  END
> <Batch ID>
0149

> <Smiles>
CCc1nc(NC2CC[100N:0]([100C:0](=O)N3CCCC(n4nc(-c5ccc(Oc6ccc(F)cc6F)cc5)c(C(N)=O)c4N)C3)CC2)cc(OC)c1C[101CH2:1][101O:1]c1ccc2c(c1)CN(C(=O)C(NC(=O)C(C)NC)C(C)(C)C)C(C(=O)NC1CCCc3ccccc31)C2

> <Shape>
0.282

> <Color>
0.104

> <Negative vol penalty>
0.000

$$$$

  -OEChem-04052321383D

 90100  0     1  0  0  0  0  0999 V2000
  -27.3339  -33.9442   26.6424 C   0  0  0  0  0  0  0  0  0  0  0  0
  -27.7645  -32.8835   25.8520 C   0  0  0  0  0  0  0  0  0  0  0  0
  -24.9633   -6.9729   19.8348 C   0  0  0  0  0  0  0  0  0  0  0  0
  -24.7133   -9.3330   20.2868 C   0  0  0  0  0  0  0  0  0  0  0  0
  -25.9920  -34.0391   27.0089 C   0  0  0  0  0  0  0  0  0  0  0  0
  -26.8537  -31.9163   25.4285 C   0  0  0  0  0  0  0  0  0  0  0  0
  -26.8876  -28.9137   20.0910 C   0  0  0  0  0  0  0  0  0  0  0  0
  -23.7441   -6.7231   20.4645 C   0  0  0  0  0  0  0  0  0  0  0  0
  -23.4940   -9.0832   20.9165 C   0  0  0  0  0  0  0  0  0  0  0  0
  -27.3477  -27.6482   19.7296 C   0  0  0  0  0  0  0  0  0  0  0  0
  -20.8684   -5.4223   22.2706 C   0  0  0  0  0  0  0  0  0  0  0  0
  -20.8043   -4.3509   23.1613 C   0  0  0  0  0  0  0  0  0  0  0  0
  -25.1191  -26.7664   20.0037 C   0  0  0  0  0  0  0  0  0  0  0  0
  -28.7869  -23.4624   17.2941 C   0  0  0  0  0  0  0  0  0  0  0  0
  -28.6503  -22.8013   19.6138 C   0  0  0  0  0  0  0  0  0  0  0  0
  -22.5182   -5.3776   24.5198 C   0  0  0  0  0  0  0  0  0  0  0  0
  -25.4480   -8.2779   19.7460 C   0  0  0  0  0  0  0  0  0  0  0  0
  -27.0486   -8.2544   17.7597 C   0  0  0  0  0  0  0  0  0  0  0  0
  -25.0624  -33.0778   26.5817 C   0  0  0  0  0  0  0  0  0  0  0  0
  -25.5397  -29.1131   20.4226 C   0  0  0  0  0  0  0  0  0  0  0  0
  -25.4984  -31.9977   25.7908 C   0  0  0  0  0  0  0  0  0  0  0  0
  -24.6439  -28.0359   20.3665 C   0  0  0  0  0  0  0  0  0  0  0  0
  -29.1199  -21.1509   17.9130 C   0  0  0  0  0  0  0  0  0  0  0  0
  -28.5848  -23.7921   18.6342 C   0  0  0  0  0  0  0  0  0  0  0  0
  -29.0544  -22.1417   16.9334 C   0  0  0  0  0  0  0  0  0  0  0  0
  -23.0093   -7.7782   21.0053 C   0  0  0  0  0  0  0  0  0  0  0  0
  -26.4640  -26.5737   19.6887 C   0  0  0  0  0  0  0  0  0  0  0  0
  -21.7575   -6.4714   22.5044 C   0  0  0  0  0  0  0  0  0  0  0  0
  -28.9179  -21.4806   19.2532 C   0  0  0  0  0  0  0  0  0  0  0  0
  -21.6291   -4.3285   24.2859 C   0  0  0  0  0  0  0  0  0  0  0  0
  -22.5824   -6.4490   23.6290 C   0  0  0  0  0  0  0  0  0  0  0  0
  -26.7077   -8.5365   19.0962 C   0  0  0  0  0  0  0  0  0  0  0  0
  -28.3464   -8.6871   17.6377 C   0  0  0  0  0  0  0  0  0  0  0  0
  -26.2623   -7.6550   16.7214 C   0  0  0  0  0  0  0  0  0  0  0  0
  -23.9877  -30.0631   23.0288 C   0  0  0  0  0  0  0  0  0  0  0  0
  -21.4126  -29.9614   21.0589 C   0  0  0  0  0  0  0  0  0  0  0  0
  -19.9680  -28.6855   18.2425 C   0  0  0  0  0  0  0  0  0  0  0  0
  -31.5705  -12.7884   20.5764 C   0  0  0  0  0  0  0  0  0  0  0  0
  -23.6313  -33.1968   27.0426 C   0  0  0  0  0  0  0  0  0  0  0  0
  -25.0538  -30.4899   20.7845 C   0  0  0  0  0  0  0  0  0  0  0  0
  -23.1831  -28.2015   20.6936 C   0  0  0  0  0  0  0  0  0  0  0  0
  -22.6596  -32.3344   26.2411 C   0  0  0  0  0  0  0  0  0  0  0  0
  -32.3351   -9.3314   20.2001 C   0  0  0  0  0  0  0  0  0  0  0  0
  -23.2146  -30.9241   26.0691 C   0  0  0  0  0  0  0  0  0  0  0  0
  -31.0104   -8.7103   19.7539 C   0  0  0  0  0  0  0  0  0  0  0  0
  -31.4962  -15.3363   18.5143 C   0  0  0  0  0  0  0  0  0  0  0  0
  -29.5967  -15.8786   20.0848 C   0  0  0  0  0  0  0  0  0  0  0  0
  -30.6381  -19.4343   16.7175 C   0  0  0  0  0  0  0  0  0  0  0  0
  -32.1191  -10.4571   21.2092 C   0  0  0  0  0  0  0  0  0  0  0  0
  -29.8597  -10.8893   20.3250 C   0  0  0  0  0  0  0  0  0  0  0  0
  -31.7258  -16.8248   18.2873 C   0  0  0  0  0  0  0  0  0  0  0  0
  -29.8346  -17.3646   19.8497 C   0  0  0  0  0  0  0  0  0  0  0  0
  -29.4058  -19.7336   17.5309 C   0  0  1  0  0  0  0  0  0  0  0  0
  -24.5359  -30.9422   25.2910 C   0  0  1  0  0  0  0  0  0  0  0  0
  -23.7650  -30.4733   21.6006 C   0  0  1  0  0  0  0  0  0  0  0  0
  -30.0228   -9.7868   19.2649 C   0  0  2  0  0  0  0  0  0  0  0  0
  -30.8769  -15.0660   19.8866 C   0  0  0  0  0  0  0  0  0  0  0  0
  -30.5839  -19.0355   18.1605 C   0  0  1  0  0  0  0  0  0  0  0  0
  -29.2675  -21.8166   15.4908 C   0  0  0  0  0  0  0  0  0  0  0  0
  -17.8414  -28.7606   16.9123 C   0  0  0  0  0  0  0  0  0  0  0  0
  -20.0596  -28.1700   23.1253 C   0  0  0  0  0  0  0  0  0  0  0  0
  -18.3958  -27.5209   21.3707 C   0  0  0  0  0  0  0  0  0  0  0  0
  -18.5669  -29.8984   22.1060 C   0  0  0  0  0  0  0  0  0  0  0  0
  -21.3609  -29.7489   15.8576 C   0  0  0  0  0  0  0  0  0  0  0  0
  -28.7586  -20.9563   21.5674 C   0  0  0  0  0  0  0  0  0  0  0  0
  -28.2968  -25.2126   19.0222 C   0  0  0  0  0  0  0  0  0  1  0  0
  -20.4011  -28.9085   20.6750 C   0  0  1  0  0  0  0  0  0  0  0  0
  -19.2290  -29.3548   17.0978 C   0  0  2  0  0  0  0  0  0  0  0  0
  -19.3837  -28.6206   21.8149 C   0  0  0  0  0  0  0  0  0  0  0  0
  -27.7084   -9.1042   19.7747 N   0  0  0  0  0  0  0  0  0  0  0  0
  -28.6908   -9.1823   18.8610 N   0  0  0  0  0  0  0  0  0  0  0  0
  -22.7576  -29.5657   21.0478 N   0  0  0  0  0  0  0  0  0  0  0  0
  -31.1739  -11.4452   20.6837 N   0  0  0  0  0  0  0  0  0  0  0  0
  -29.2153   -8.6883   16.6045 N   0  0  0  0  0  0  0  0  0  0  0  0
  -25.4928   -8.4898   15.8996 N   0  0  0  0  0  0  0  0  0  0  0  0
  -24.2867  -31.1133   23.8757 N   0  0  0  0  0  0  0  0  0  0  0  0
  -19.7910  -29.3632   19.4302 N   0  0  0  0  0  0  0  0  0  0  0  0
  -30.6163  -13.6581   20.0628 N   0  0  0  0  0  0  0  0  0  0  0  0
  -30.4262  -17.5650   18.4776 N   0  3  0  0  0  0  0  0  0  0  0  0
  -19.9857  -29.1880   15.8248 N   0  3  0  0  0  0  0  0  0  0  0  0
  -26.2299   -6.4144   16.5386 O   0  0  0  0  0  0  0  0  0  0  0  0
  -23.8937  -28.8815   23.3398 O   0  0  0  0  0  0  0  0  0  0  0  0
  -21.0242  -31.0952   21.3507 O   0  0  0  0  0  0  0  0  0  0  0  0
  -20.6325  -27.6617   18.0983 O   0  0  0  0  0  0  0  0  0  0  0  0
  -32.6937  -13.1823   20.9084 O   0  0  0  0  0  0  0  0  0  0  0  0
  -21.8194   -7.5349   21.6196 O   0  0  0  0  0  0  0  0  0  0  0  0
  -28.9780  -20.5275   20.2251 O   0  0  0  0  0  0  0  0  0  0  0  0
  -26.9105  -25.3373   19.3369 O   0  0  0  0  0  0  0  0  0  1  0  0
  -21.5664   -3.3002   25.1420 F   0  0  0  0  0  0  0  0  0  0  0  0
  -23.4377   -7.4546   23.8596 F   0  0  0  0  0  0  0  0  0  0  0  0
  1  2  1  0  0  0  0
  1  5  2  0  0  0  0
  2  6  2  0  0  0  0
  3  8  2  0  0  0  0
  3 17  1  0  0  0  0
  4  9  1  0  0  0  0
  4 17  2  0  0  0  0
  5 19  1  0  0  0  0
  6 21  1  0  0  0  0
  7 10  2  0  0  0  0
  7 20  1  0  0  0  0
  8 26  1  0  0  0  0
  9 26  2  0  0  0  0
 10 27  1  0  0  0  0
 11 12  2  0  0  0  0
 11 28  1  0  0  0  0
 12 30  1  0  0  0  0
 13 22  1  0  0  0  0
 13 27  2  0  0  0  0
 14 24  1  0  0  0  0
 14 25  2  0  0  0  0
 15 24  2  0  0  0  0
 15 29  1  0  0  0  0
 16 30  2  0  0  0  0
 16 31  1  0  0  0  0
 17 32  1  0  0  0  0
 18 32  1  0  0  0  0
 18 33  2  0  0  0  0
 18 34  1  0  0  0  0
 19 21  2  0  0  0  0
 19 39  1  0  0  0  0
 20 22  2  0  0  0  0
 20 40  1  0  0  0  0
 21 54  1  0  0  0  0
 22 41  1  0  0  0  0
 23 25  1  0  0  0  0
 23 29  2  0  0  0  0
 23 53  1  0  0  0  0
 24 66  1  0  0  0  0
 25 59  1  0  0  0  0
 26 86  1  0  0  0  0
 27 88  1  0  0  0  0
 28 31  2  0  0  0  0
 28 86  1  0  0  0  0
 29 87  1  0  0  0  0
 30 89  1  0  0  0  0
 31 90  1  0  0  0  0
 32 70  2  0  0  0  0
 33 71  1  0  0  0  0
 33 74  1  0  0  0  0
 34 75  1  0  0  0  0
 34 81  2  0  0  0  0
 35 55  1  0  0  0  0
 35 76  1  0  0  0  0
 35 82  2  0  0  0  0
 36 67  1  0  0  0  0
 36 72  1  0  0  0  0
 36 83  2  0  0  0  0
 37 68  1  0  0  0  0
 37 77  1  0  0  0  0
 37 84  2  0  0  0  0
 38 73  1  0  0  0  0
 38 78  1  0  0  0  0
 38 85  2  0  0  0  0
 39 42  1  0  0  0  0
 40 55  1  0  0  0  0
 41 72  1  0  0  0  0
 42 44  1  0  0  0  0
 43 45  1  0  0  0  0
 43 49  1  0  0  0  0
 44 54  1  0  0  0  0
 45 56  1  0  0  0  0
 46 51  1  0  0  0  0
 46 57  1  0  0  0  0
 47 52  1  0  0  0  0
 47 57  1  0  0  0  0
 48 53  1  0  0  0  0
 48 58  1  0  0  0  0
 49 73  1  0  0  0  0
 50 56  1  0  0  0  0
 50 73  1  0  0  0  0
 51 79  1  0  0  0  0
 52 79  1  0  0  0  0
 53 58  1  0  0  0  0
 54 76  1  0  0  0  0
 55 72  1  0  0  0  0
 56 71  1  0  0  0  0
 57 78  1  0  0  0  0
 58 79  1  0  0  0  0
 60 68  1  0  0  0  0
 61 69  1  0  0  0  0
 62 69  1  0  0  0  0
 63 69  1  0  0  0  0
 64 80  1  0  0  0  0
 65 87  1  0  0  0  0
 66 88  1  0  0  0  0
 67 69  1  0  0  0  0
 67 77  1  0  0  0  0
 68 80  1  0  0  0  0
 70 71  1  0  0  0  0
M  CHG  2  79   1  80   1
M  ISO  4  38 100  66 101  78 100  88 101
M  END
> <Batch ID>
0149

> <Smiles>
CNC(C)C(=O)NC(C(=O)N1Cc2cc([101O:1][101CH2:1]c3cc(C)c(C4CC4N4CCC([100NH:0][100C:0](=O)N5CCCC(n6nc(-c7ccc(Oc8ccc(F)cc8F)cc7)c(C(N)=O)c6N)C5)CC4)c(OC)c3)ccc2CC1C(=O)NC1CCCc2ccccc21)C(C)(C)C

> <Shape>
0.263

> <Color>
0.083

> <Negative vol penalty>
0.000

$$$$

  -OEChem-04052321383D

 88 98  0     1  0  0  0  0  0999 V2000
  -26.0167  -33.6807   18.5327 C   0  0  0  0  0  0  0  0  0  0  0  0
  -25.8115  -32.4042   19.0465 C   0  0  0  0  0  0  0  0  0  0  0  0
  -23.2012   -9.8207   19.9272 C   0  0  0  0  0  0  0  0  0  0  0  0
  -23.5573  -10.0027   22.3099 C   0  0  0  0  0  0  0  0  0  0  0  0
  -25.8404  -33.9193   17.1704 C   0  0  0  0  0  0  0  0  0  0  0  0
  -25.4288  -31.3658   18.1982 C   0  0  0  0  0  0  0  0  0  0  0  0
  -28.0188  -27.1000   19.0584 C   0  0  0  0  0  0  0  0  0  0  0  0
  -22.4325   -8.6745   20.1297 C   0  0  0  0  0  0  0  0  0  0  0  0
  -22.7886   -8.8565   22.5124 C   0  0  0  0  0  0  0  0  0  0  0  0
  -27.6358  -26.3333   20.1581 C   0  0  0  0  0  0  0  0  0  0  0  0
  -23.1905   -5.5094   22.2545 C   0  0  0  0  0  0  0  0  0  0  0  0
  -23.6802   -4.5485   23.1391 C   0  0  0  0  0  0  0  0  0  0  0  0
  -28.2309  -18.5658   18.7658 C   0  0  0  0  0  0  0  0  0  0  0  0
  -26.4112  -24.8573   18.6949 C   0  0  0  0  0  0  0  0  0  0  0  0
  -21.7109   -4.8105   24.5139 C   0  0  0  0  0  0  0  0  0  0  0  0
  -29.2845  -17.1219   20.3136 C   0  0  0  0  0  0  0  0  0  0  0  0
  -23.7637  -10.4847   21.0174 C   0  0  0  0  0  0  0  0  0  0  0  0
  -24.1058  -13.0010   20.7749 C   0  0  0  0  0  0  0  0  0  0  0  0
  -25.4647  -32.8811   16.3035 C   0  0  0  0  0  0  0  0  0  0  0  0
  -27.5912  -26.7568   17.7678 C   0  0  0  0  0  0  0  0  0  0  0  0
  -25.2460  -31.5910   16.8232 C   0  0  0  0  0  0  0  0  0  0  0  0
  -28.6531  -18.3221   20.0642 C   0  0  0  0  0  0  0  0  0  0  0  0
  -28.4343  -17.6096   17.7624 C   0  0  0  0  0  0  0  0  0  0  0  0
  -26.7923  -25.6198   17.5802 C   0  0  0  0  0  0  0  0  0  0  0  0
  -22.2261   -8.1924   21.4222 C   0  0  0  0  0  0  0  0  0  0  0  0
  -26.8295  -25.2134   19.9768 C   0  0  0  0  0  0  0  0  0  0  0  0
  -21.9610   -6.1210   22.4997 C   0  0  0  0  0  0  0  0  0  0  0  0
  -22.9404   -4.1990   24.2688 C   0  0  0  0  0  0  0  0  0  0  0  0
  -21.2212   -5.7715   23.6294 C   0  0  0  0  0  0  0  0  0  0  0  0
  -24.5583  -11.6684   20.8088 C   0  0  0  0  0  0  0  0  0  0  0  0
  -29.0776  -16.4124   18.1070 C   0  0  0  0  0  0  0  0  0  0  0  0
  -25.2395  -13.7430   20.5496 C   0  0  0  0  0  0  0  0  0  0  0  0
  -22.7793  -13.5217   20.9330 C   0  0  0  0  0  0  0  0  0  0  0  0
  -25.8211  -28.1739   15.5402 C   0  0  0  0  0  0  0  0  0  0  0  0
  -26.7160  -25.6168   13.7563 C   0  0  0  0  0  0  0  0  0  0  0  0
  -27.8014  -22.3825   13.6688 C   0  0  0  0  0  0  0  0  0  0  0  0
  -29.9430  -14.1904   17.3594 C   0  0  0  0  0  0  0  0  0  0  0  0
  -25.2403  -33.1977   14.8461 C   0  0  0  0  0  0  0  0  0  0  0  0
  -28.0351  -27.5788   16.5890 C   0  0  0  0  0  0  0  0  0  0  0  0
  -28.0107  -17.9310   16.3557 C   0  0  0  0  0  0  0  0  0  0  0  0
  -26.3232  -25.1970   16.2128 C   0  0  0  0  0  0  0  0  0  0  0  0
  -25.1980  -31.9601   13.9534 C   0  0  0  0  0  0  0  0  0  0  0  0
  -27.9550  -16.6891   15.4802 C   0  0  0  0  0  0  0  0  0  0  0  0
  -30.1200  -12.4795   20.6563 C   0  0  0  0  0  0  0  0  0  0  0  0
  -24.3086  -30.8861   14.5715 C   0  0  0  0  0  0  0  0  0  0  0  0
  -28.6564  -12.1440   20.9330 C   0  0  0  0  0  0  0  0  0  0  0  0
  -29.1781  -20.6350   20.8139 C   0  0  0  0  0  0  0  0  0  0  0  0
  -26.9392  -19.5902   21.3455 C   0  0  0  0  0  0  0  0  0  0  0  0
  -29.1997  -15.8467   15.6955 C   0  0  0  0  0  0  0  0  0  0  0  0
  -30.4052  -12.5681   19.1609 C   0  0  0  0  0  0  0  0  0  0  0  0
  -28.0507  -13.2106   18.7229 C   0  0  0  0  0  0  0  0  0  0  0  0
  -28.9141  -21.7098   21.8607 C   0  0  0  0  0  0  0  0  0  0  0  0
  -26.6926  -20.6728   22.3884 C   0  0  0  0  0  0  0  0  0  0  0  0
  -28.4423  -19.3227   21.1432 C   0  0  0  0  0  0  0  0  0  0  0  0
  -24.8544  -30.4330   15.9311 C   0  0  1  0  0  0  0  0  0  0  0  0
  -27.1177  -27.4321   15.3789 C   0  0  1  0  0  0  0  0  0  0  0  0
  -27.7297  -13.1446   20.2237 C   0  0  1  0  0  0  0  0  0  0  0  0
  -28.4080  -20.5509   12.0642 C   0  0  0  0  0  0  0  0  0  0  0  0
  -23.7562  -25.1270   13.2002 C   0  0  0  0  0  0  0  0  0  0  0  0
  -24.3542  -22.8215   12.4286 C   0  0  0  0  0  0  0  0  0  0  0  0
  -25.2552  -24.8111   11.2235 C   0  0  0  0  0  0  0  0  0  0  0  0
  -30.5772  -22.2514   14.6870 C   0  0  0  0  0  0  0  0  0  0  0  0
  -27.1142  -23.0719   22.9187 C   0  0  0  0  0  0  0  0  0  0  0  0
  -27.3218  -24.3835   22.1875 C   0  0  0  0  0  0  0  0  0  1  0  0
  -26.1587  -24.2350   13.5134 C   0  0  1  0  0  0  0  0  0  0  0  0
  -28.9237  -21.7172   12.8927 C   0  0  2  0  0  0  0  0  0  0  0  0
  -24.8882  -24.2574   12.6175 C   0  0  0  0  0  0  0  0  0  0  0  0
  -29.5084  -16.1772   19.3738 N   0  0  0  0  0  0  0  0  0  0  0  0
  -25.8767  -11.5666   20.6201 N   0  0  0  0  0  0  0  0  0  0  0  0
  -26.2623  -12.8446   20.4652 N   0  0  0  0  0  0  0  0  0  0  0  0
  -29.3234  -15.4229   17.0905 N   0  0  0  0  0  0  0  0  0  0  0  0
  -26.7786  -26.0367   15.0925 N   0  0  0  0  0  0  0  0  0  0  0  0
  -29.4790  -13.4733   18.4793 N   0  0  0  0  0  0  0  0  0  0  0  0
  -25.4513  -15.0696   20.4173 N   0  0  0  0  0  0  0  0  0  0  0  0
  -21.7301  -12.6201   21.1579 N   0  0  0  0  0  0  0  0  0  0  0  0
  -25.9719  -29.5311   15.7519 N   0  0  0  0  0  0  0  0  0  0  0  0
  -27.2570  -23.4411   12.9730 N   0  0  0  0  0  0  0  0  0  0  0  0
  -27.4262  -21.9309   21.9898 N   0  3  0  0  0  0  0  0  0  0  0  0
  -29.9667  -21.2057   13.8263 N   0  3  0  0  0  0  0  0  0  0  0  0
  -22.5293  -14.7487   20.8600 O   0  0  0  0  0  0  0  0  0  0  0  0
  -24.7621  -27.5606   15.4759 O   0  0  0  0  0  0  0  0  0  0  0  0
  -27.0890  -26.2958   12.7963 O   0  0  0  0  0  0  0  0  0  0  0  0
  -27.4410  -21.9988   14.7794 O   0  0  0  0  0  0  0  0  0  0  0  0
  -30.8240  -13.7406   16.6157 O   0  0  0  0  0  0  0  0  0  0  0  0
  -21.4758   -7.0742   21.6202 O   0  0  0  0  0  0  0  0  0  0  0  0
  -26.4462  -24.4489   21.0697 O   0  0  0  0  0  0  0  0  0  1  0  0
  -23.4101   -3.2751   25.1173 F   0  0  0  0  0  0  0  0  0  0  0  0
  -20.0388   -6.3546   23.8696 F   0  0  0  0  0  0  0  0  0  0  0  0
  1  2  1  0  0  0  0
  1  5  2  0  0  0  0
  2  6  2  0  0  0  0
  3  8  2  0  0  0  0
  3 17  1  0  0  0  0
  4  9  1  0  0  0  0
  4 17  2  0  0  0  0
  5 19  1  0  0  0  0
  6 21  1  0  0  0  0
  7 10  2  0  0  0  0
  7 20  1  0  0  0  0
  8 25  1  0  0  0  0
  9 25  2  0  0  0  0
 10 26  1  0  0  0  0
 11 12  2  0  0  0  0
 11 27  1  0  0  0  0
 12 28  1  0  0  0  0
 13 22  2  0  0  0  0
 13 23  1  0  0  0  0
 14 24  1  0  0  0  0
 14 26  2  0  0  0  0
 15 28  2  0  0  0  0
 15 29  1  0  0  0  0
 16 22  1  0  0  0  0
 16 68  2  0  0  0  0
 17 30  1  0  0  0  0
 18 30  1  0  0  0  0
 18 32  2  0  0  0  0
 18 33  1  0  0  0  0
 19 21  2  0  0  0  0
 19 38  1  0  0  0  0
 20 24  2  0  0  0  0
 20 39  1  0  0  0  0
 21 55  1  0  0  0  0
 22 54  1  0  0  0  0
 23 31  2  0  0  0  0
 23 40  1  0  0  0  0
 24 41  1  0  0  0  0
 25 85  1  0  0  0  0
 26 86  1  0  0  0  0
 27 29  2  0  0  0  0
 27 85  1  0  0  0  0
 28 87  1  0  0  0  0
 29 88  1  0  0  0  0
 30 69  2  0  0  0  0
 31 68  1  0  0  0  0
 31 71  1  0  0  0  0
 32 70  1  0  0  0  0
 32 74  1  0  0  0  0
 33 75  1  0  0  0  0
 33 80  2  0  0  0  0
 34 56  1  0  0  0  0
 34 76  1  0  0  0  0
 34 81  2  0  0  0  0
 35 65  1  0  0  0  0
 35 72  1  0  0  0  0
 35 82  2  0  0  0  0
 36 66  1  0  0  0  0
 36 77  1  0  0  0  0
 36 83  2  0  0  0  0
 37 71  1  0  0  0  0
 37 73  1  0  0  0  0
 37 84  2  0  0  0  0
 38 42  1  0  0  0  0
 39 56  1  0  0  0  0
 40 43  1  0  0  0  0
 41 72  1  0  0  0  0
 42 45  1  0  0  0  0
 43 49  1  0  0  0  0
 44 46  1  0  0  0  0
 44 50  1  0  0  0  0
 45 55  1  0  0  0  0
 46 57  1  0  0  0  0
 47 52  1  0  0  0  0
 47 54  1  0  0  0  0
 48 53  1  0  0  0  0
 48 54  1  0  0  0  0
 49 71  1  0  0  0  0
 50 73  1  0  0  0  0
 51 57  1  0  0  0  0
 51 73  1  0  0  0  0
 52 78  1  0  0  0  0
 53 78  1  0  0  0  0
 55 76  1  0  0  0  0
 56 72  1  0  0  0  0
 57 70  1  0  0  0  0
 58 66  1  0  0  0  0
 59 67  1  0  0  0  0
 60 67  1  0  0  0  0
 61 67  1  0  0  0  0
 62 79  1  0  0  0  0
 63 64  1  0  0  0  0
 63 78  1  0  0  0  0
 64 86  1  0  0  0  0
 65 67  1  0  0  0  0
 65 77  1  0  0  0  0
 66 79  1  0  0  0  0
 69 70  1  0  0  0  0
M  CHG  2  78   1  79   1
M  ISO  4  37 100  64 101  71 100  86 101
M  END
> <Batch ID>
0149

> <Smiles>
CNC(C)C(=O)NC(C(=O)N1Cc2cc([101O:1][101CH2:1]CN3CCC(c4cnc5c(c4)CCC[100N:0]5[100C:0](=O)N4CCCC(n5nc(-c6ccc(Oc7ccc(F)cc7F)cc6)c(C(N)=O)c5N)C4)CC3)ccc2CC1C(=O)NC1CCCc2ccccc21)C(C)(C)C

> <Shape>
0.203

> <Color>
0.175

> <Negative vol penalty>
0.000

$$$$

  -OEChem-04052321383D

 88 97  0     1  0  0  0  0  0999 V2000
  -23.9003  -32.2590   22.3291 C   0  0  0  0  0  0  0  0  0  0  0  0
  -24.5576  -31.1146   21.8892 C   0  0  0  0  0  0  0  0  0  0  0  0
  -23.0467   -9.9090   19.9515 C   0  0  0  0  0  0  0  0  0  0  0  0
  -23.8457   -9.8814   22.2314 C   0  0  0  0  0  0  0  0  0  0  0  0
  -22.6695  -32.1499   22.9750 C   0  0  0  0  0  0  0  0  0  0  0  0
  -23.9850  -29.8601   22.0959 C   0  0  0  0  0  0  0  0  0  0  0  0
  -24.3262  -25.0006   18.3844 C   0  0  0  0  0  0  0  0  0  0  0  0
  -22.2958   -8.7603   20.2007 C   0  0  0  0  0  0  0  0  0  0  0  0
  -23.0947   -8.7327   22.4807 C   0  0  0  0  0  0  0  0  0  0  0  0
  -25.1387  -23.8677   18.3947 C   0  0  0  0  0  0  0  0  0  0  0  0
  -19.8695   -7.9594   23.1293 C   0  0  0  0  0  0  0  0  0  0  0  0
  -19.1323   -7.9130   24.3124 C   0  0  0  0  0  0  0  0  0  0  0  0
  -23.4055  -22.6424   19.5408 C   0  0  0  0  0  0  0  0  0  0  0  0
  -27.5702  -19.5913   17.3258 C   0  0  0  0  0  0  0  0  0  0  0  0
  -28.7610  -17.9093   18.5865 C   0  0  0  0  0  0  0  0  0  0  0  0
  -20.3667   -5.9550   25.0048 C   0  0  0  0  0  0  0  0  0  0  0  0
  -23.8218  -10.4695   20.9668 C   0  0  0  0  0  0  0  0  0  0  0  0
  -24.1866  -12.9925   20.8704 C   0  0  0  0  0  0  0  0  0  0  0  0
  -22.0769  -30.8941   23.1811 C   0  0  0  0  0  0  0  0  0  0  0  0
  -23.0493  -24.9659   18.9630 C   0  0  0  0  0  0  0  0  0  0  0  0
  -22.7457  -29.7339   22.7463 C   0  0  0  0  0  0  0  0  0  0  0  0
  -22.5777  -23.7754   19.5343 C   0  0  0  0  0  0  0  0  0  0  0  0
  -28.0037  -19.9268   19.6787 C   0  0  0  0  0  0  0  0  0  0  0  0
  -28.2196  -18.3582   17.3819 C   0  0  0  0  0  0  0  0  0  0  0  0
  -27.4623  -20.3757   18.4742 C   0  0  0  0  0  0  0  0  0  0  0  0
  -22.3197   -8.1722   21.4653 C   0  0  0  0  0  0  0  0  0  0  0  0
  -24.6796  -22.6892   18.9755 C   0  0  0  0  0  0  0  0  0  0  0  0
  -20.8553   -7.0035   22.8838 C   0  0  0  0  0  0  0  0  0  0  0  0
  -28.6531  -18.6936   19.7349 C   0  0  0  0  0  0  0  0  0  0  0  0
  -19.3809   -6.9108   25.2502 C   0  0  0  0  0  0  0  0  0  0  0  0
  -21.1039   -6.0013   23.8216 C   0  0  0  0  0  0  0  0  0  0  0  0
  -24.5982  -11.6558   20.7098 C   0  0  0  0  0  0  0  0  0  0  0  0
  -25.2799  -13.7355   20.4972 C   0  0  0  0  0  0  0  0  0  0  0  0
  -22.9287  -13.5157   21.3171 C   0  0  0  0  0  0  0  0  0  0  0  0
  -21.6318  -26.4938   21.3630 C   0  0  0  0  0  0  0  0  0  0  0  0
  -19.0069  -24.9053   20.3097 C   0  0  0  0  0  0  0  0  0  0  0  0
  -17.7214  -22.2310   18.6238 C   0  0  0  0  0  0  0  0  0  0  0  0
  -30.7759  -14.6986   20.6031 C   0  0  0  0  0  0  0  0  0  0  0  0
  -20.7675  -30.8229   23.9262 C   0  0  0  0  0  0  0  0  0  0  0  0
  -22.1746  -26.1889   18.9200 C   0  0  0  0  0  0  0  0  0  0  0  0
  -21.2068  -23.6802   20.1507 C   0  0  0  0  0  0  0  0  0  0  0  0
  -20.0515  -29.4835   23.7726 C   0  0  0  0  0  0  0  0  0  0  0  0
  -29.5740  -12.3537   18.2086 C   0  0  0  0  0  0  0  0  0  0  0  0
  -27.1408  -20.0246   22.0399 C   0  0  0  0  0  0  0  0  0  0  0  0
  -21.0274  -28.3296   23.9796 C   0  0  0  0  0  0  0  0  0  0  0  0
  -28.1599  -19.8334   23.1587 C   0  0  0  0  0  0  0  0  0  0  0  0
  -28.1413  -12.0690   18.6627 C   0  0  0  0  0  0  0  0  0  0  0  0
  -29.2787  -21.1018   21.4832 C   0  0  0  0  0  0  0  0  0  0  0  0
  -30.5137  -12.5514   19.3960 C   0  0  0  0  0  0  0  0  0  0  0  0
  -28.6432  -13.2845   20.8236 C   0  0  0  0  0  0  0  0  0  0  0  0
  -27.8901  -20.7633   20.9131 C   0  0  1  0  0  0  0  0  0  0  0  0
  -22.1450  -28.3571   22.9300 C   0  0  1  0  0  0  0  0  0  0  0  0
  -21.0919  -26.1872   19.9947 C   0  0  1  0  0  0  0  0  0  0  0  0
  -29.0955  -21.0266   22.9977 C   0  0  2  0  0  0  0  0  0  0  0  0
  -27.6474  -13.1334   19.6609 C   0  0  2  0  0  0  0  0  0  0  0  0
  -28.3359  -17.5204   16.1536 C   0  0  0  0  0  0  0  0  0  0  0  0
  -30.4040  -20.8649   23.7519 C   0  0  0  0  0  0  0  0  0  0  0  0
  -15.5393  -21.1830   17.9625 C   0  0  0  0  0  0  0  0  0  0  0  0
  -18.6407  -23.8759   23.1586 C   0  0  0  0  0  0  0  0  0  0  0  0
  -17.0797  -22.1390   22.2561 C   0  0  0  0  0  0  0  0  0  0  0  0
  -16.5236  -24.5589   22.0160 C   0  0  0  0  0  0  0  0  0  0  0  0
  -18.3312  -22.5038   15.7406 C   0  0  0  0  0  0  0  0  0  0  0  0
  -26.7602  -21.6989   18.3870 C   0  0  0  0  0  0  0  0  0  1  0  0
  -30.8843  -16.8336   21.8637 C   0  0  0  0  0  0  0  0  0  0  0  0
  -30.5904  -17.9845   20.9181 C   0  0  0  0  0  0  0  0  0  0  0  0
  -18.3754  -23.5672   20.6091 C   0  0  1  0  0  0  0  0  0  0  0  0
  -16.6509  -22.1361   17.5517 C   0  0  2  0  0  0  0  0  0  0  0  0
  -17.6815  -23.5373   22.0001 C   0  0  0  0  0  0  0  0  0  0  0  0
  -25.8547  -11.5526   20.2688 N   0  0  0  0  0  0  0  0  0  0  0  0
  -26.2421  -12.8338   20.1489 N   0  0  0  0  0  0  0  0  0  0  0  0
  -20.3916  -24.9047   20.0895 N   0  0  0  0  0  0  0  0  0  0  0  0
  -29.9886  -13.5747   20.3033 N   0  0  0  0  0  0  0  0  0  0  0  0
  -25.5023  -15.0656   20.4361 N   0  0  0  0  0  0  0  0  0  0  0  0
  -21.9137  -12.6125   21.6611 N   0  0  0  0  0  0  0  0  0  0  0  0
  -21.6641  -27.8416   21.6661 N   0  0  0  0  0  0  0  0  0  0  0  0
  -17.4847  -23.2769   19.4907 N   0  0  0  0  0  0  0  0  0  0  0  0
  -30.2005  -15.6232   21.4661 N   0  0  0  0  0  0  0  0  0  0  0  0
  -17.2402  -21.6475   16.2730 N   0  3  0  0  0  0  0  0  0  0  0  0
  -22.7058  -14.7478   21.3928 O   0  0  0  0  0  0  0  0  0  0  0  0
  -21.9910  -25.5754   22.0905 O   0  0  0  0  0  0  0  0  0  0  0  0
  -18.2967  -25.9129   20.2657 O   0  0  0  0  0  0  0  0  0  0  0  0
  -18.6705  -21.4528   18.6882 O   0  0  0  0  0  0  0  0  0  0  0  0
  -31.9056  -14.8683   20.1321 O   0  0  0  0  0  0  0  0  0  0  0  0
  -21.5869   -7.0514   21.7090 O   0  0  0  0  0  0  0  0  0  0  0  0
  -25.4709  -21.5822   18.9874 O   0  0  0  0  0  0  0  0  0  1  0  0
  -29.1871  -18.2384   20.9028 O   0  0  0  0  0  0  0  0  0  0  0  0
  -18.6740   -6.8673   26.3871 F   0  0  0  0  0  0  0  0  0  0  0  0
  -22.0505   -5.0810   23.5918 F   0  0  0  0  0  0  0  0  0  0  0  0
  1  2  1  0  0  0  0
  1  5  2  0  0  0  0
  2  6  2  0  0  0  0
  3  8  2  0  0  0  0
  3 17  1  0  0  0  0
  4  9  1  0  0  0  0
  4 17  2  0  0  0  0
  5 19  1  0  0  0  0
  6 21  1  0  0  0  0
  7 10  2  0  0  0  0
  7 20  1  0  0  0  0
  8 26  1  0  0  0  0
  9 26  2  0  0  0  0
 10 27  1  0  0  0  0
 11 12  2  0  0  0  0
 11 28  1  0  0  0  0
 12 30  1  0  0  0  0
 13 22  1  0  0  0  0
 13 27  2  0  0  0  0
 14 24  2  0  0  0  0
 14 25  1  0  0  0  0
 15 24  1  0  0  0  0
 15 29  2  0  0  0  0
 16 30  2  0  0  0  0
 16 31  1  0  0  0  0
 17 32  1  0  0  0  0
 18 32  1  0  0  0  0
 18 33  2  0  0  0  0
 18 34  1  0  0  0  0
 19 21  2  0  0  0  0
 19 39  1  0  0  0  0
 20 22  2  0  0  0  0
 20 40  1  0  0  0  0
 21 52  1  0  0  0  0
 22 41  1  0  0  0  0
 23 25  2  0  0  0  0
 23 29  1  0  0  0  0
 23 51  1  0  0  0  0
 24 56  1  0  0  0  0
 25 63  1  0  0  0  0
 26 84  1  0  0  0  0
 27 85  1  0  0  0  0
 28 31  2  0  0  0  0
 28 84  1  0  0  0  0
 29 86  1  0  0  0  0
 30 87  1  0  0  0  0
 31 88  1  0  0  0  0
 32 69  2  0  0  0  0
 33 70  1  0  0  0  0
 33 73  1  0  0  0  0
 34 74  1  0  0  0  0
 34 79  2  0  0  0  0
 35 53  1  0  0  0  0
 35 75  1  0  0  0  0
 35 80  2  0  0  0  0
 36 66  1  0  0  0  0
 36 71  1  0  0  0  0
 36 81  2  0  0  0  0
 37 67  1  0  0  0  0
 37 76  1  0  0  0  0
 37 82  2  0  0  0  0
 38 72  1  0  0  0  0
 38 77  1  0  0  0  0
 38 83  2  0  0  0  0
 39 42  1  0  0  0  0
 40 53  1  0  0  0  0
 41 71  1  0  0  0  0
 42 45  1  0  0  0  0
 43 47  1  0  0  0  0
 43 49  1  0  0  0  0
 44 46  1  0  0  0  0
 44 51  1  0  0  0  0
 45 52  1  0  0  0  0
 46 54  1  0  0  0  0
 47 55  1  0  0  0  0
 48 51  1  0  0  0  0
 48 54  1  0  0  0  0
 49 72  1  0  0  0  0
 50 55  1  0  0  0  0
 50 72  1  0  0  0  0
 52 75  1  0  0  0  0
 53 71  1  0  0  0  0
 54 57  1  0  0  0  0
 55 70  1  0  0  0  0
 58 67  1  0  0  0  0
 59 68  1  0  0  0  0
 60 68  1  0  0  0  0
 61 68  1  0  0  0  0
 62 78  1  0  0  0  0
 63 85  1  0  0  0  0
 64 65  1  0  0  0  0
 64 77  1  0  0  0  0
 65 86  1  0  0  0  0
 66 68  1  0  0  0  0
 66 76  1  0  0  0  0
 67 78  1  0  0  0  0
 69 70  1  0  0  0  0
M  CHG  1  78   1
M  ISO  4  38 100  63 101  77 100  85 101
M  END
> <Batch ID>
0149

> <Smiles>
CNC(C)C(=O)NC(C(=O)N1Cc2cc([101O:1][101CH2:1]c3cc(C)cc(OCC[100NH:0][100C:0](=O)N4CCCC(n5nc(-c6ccc(Oc7ccc(F)cc7F)cc6)c(C(N)=O)c5N)C4)c3C3CCC(C)C3)ccc2CC1C(=O)NC1CCCc2ccccc21)C(C)(C)C

> <Shape>
0.292

> <Color>
0.195

> <Negative vol penalty>
0.000

$$$$

  -OEChem-04052321383D

 86 95  0     1  0  0  0  0  0999 V2000
  -28.4158  -33.4084   20.9342 C   0  0  0  0  0  0  0  0  0  0  0  0
  -28.3942  -32.0360   21.1609 C   0  0  0  0  0  0  0  0  0  0  0  0
  -23.0227   -9.8561   19.9521 C   0  0  0  0  0  0  0  0  0  0  0  0
  -23.7565   -9.8831   22.2538 C   0  0  0  0  0  0  0  0  0  0  0  0
  -27.3382  -34.1971   21.3350 C   0  0  0  0  0  0  0  0  0  0  0  0
  -27.2954  -31.4516   21.7897 C   0  0  0  0  0  0  0  0  0  0  0  0
  -25.7840  -27.1948   19.5004 C   0  0  0  0  0  0  0  0  0  0  0  0
  -22.2658   -8.7125   20.2069 C   0  0  0  0  0  0  0  0  0  0  0  0
  -22.9996   -8.7395   22.5086 C   0  0  0  0  0  0  0  0  0  0  0  0
  -26.5282  -26.0416   19.7451 C   0  0  0  0  0  0  0  0  0  0  0  0
  -23.2672   -5.4088   21.9930 C   0  0  0  0  0  0  0  0  0  0  0  0
  -23.8653   -4.3866   22.7298 C   0  0  0  0  0  0  0  0  0  0  0  0
  -24.8781  -25.3249   21.3521 C   0  0  0  0  0  0  0  0  0  0  0  0
  -29.9259  -22.4977   21.1225 C   0  0  0  0  0  0  0  0  0  0  0  0
  -27.9599  -21.3193   20.3588 C   0  0  0  0  0  0  0  0  0  0  0  0
  -22.1463   -4.5950   24.4146 C   0  0  0  0  0  0  0  0  0  0  0  0
  -23.7681  -10.4414   20.9756 C   0  0  0  0  0  0  0  0  0  0  0  0
  -24.1338  -12.9618   20.8304 C   0  0  0  0  0  0  0  0  0  0  0  0
  -26.2214  -33.6207   21.9604 C   0  0  0  0  0  0  0  0  0  0  0  0
  -24.5847  -27.4274   20.1890 C   0  0  0  0  0  0  0  0  0  0  0  0
  -26.2024  -32.2335   22.2006 C   0  0  0  0  0  0  0  0  0  0  0  0
  -24.1192  -26.4806   21.1126 C   0  0  0  0  0  0  0  0  0  0  0  0
  -28.6484  -22.5152   20.5628 C   0  0  0  0  0  0  0  0  0  0  0  0
  -30.5149  -21.2843   21.4782 C   0  0  0  0  0  0  0  0  0  0  0  0
  -28.5490  -20.1060   20.7145 C   0  0  0  0  0  0  0  0  0  0  0  0
  -29.8265  -20.0885   21.2743 C   0  0  0  0  0  0  0  0  0  0  0  0
  -22.2542   -8.1542   21.4851 C   0  0  0  0  0  0  0  0  0  0  0  0
  -26.0768  -25.1078   20.6731 C   0  0  0  0  0  0  0  0  0  0  0  0
  -22.1086   -6.0242   22.4671 C   0  0  0  0  0  0  0  0  0  0  0  0
  -23.3049   -3.9796   23.9405 C   0  0  0  0  0  0  0  0  0  0  0  0
  -21.5482   -5.6173   23.6778 C   0  0  0  0  0  0  0  0  0  0  0  0
  -24.5506  -11.6224   20.7130 C   0  0  0  0  0  0  0  0  0  0  0  0
  -25.2366  -13.6974   20.4710 C   0  0  0  0  0  0  0  0  0  0  0  0
  -22.8633  -13.4936   21.2287 C   0  0  0  0  0  0  0  0  0  0  0  0
  -23.5483  -29.6628   22.1971 C   0  0  0  0  0  0  0  0  0  0  0  0
  -20.7334  -28.0799   21.8918 C   0  0  0  0  0  0  0  0  0  0  0  0
  -19.1114  -25.1699   21.1517 C   0  0  0  0  0  0  0  0  0  0  0  0
  -30.7198  -14.6806   20.6926 C   0  0  0  0  0  0  0  0  0  0  0  0
  -25.1010  -34.5205   22.4185 C   0  0  0  0  0  0  0  0  0  0  0  0
  -23.7800  -28.6636   19.8941 C   0  0  0  0  0  0  0  0  0  0  0  0
  -22.8278  -26.6735   21.8633 C   0  0  0  0  0  0  0  0  0  0  0  0
  -23.8110  -33.7709   22.7412 C   0  0  0  0  0  0  0  0  0  0  0  0
  -29.5972  -12.2678   18.3410 C   0  0  0  0  0  0  0  0  0  0  0  0
  -24.1064  -32.5447   23.5990 C   0  0  0  0  0  0  0  0  0  0  0  0
  -28.1514  -11.9928   18.7579 C   0  0  0  0  0  0  0  0  0  0  0  0
  -30.5000  -12.4951   19.5516 C   0  0  0  0  0  0  0  0  0  0  0  0
  -28.5887  -13.2589   20.9042 C   0  0  0  0  0  0  0  0  0  0  0  0
  -29.9153  -17.9326   22.5685 C   0  0  0  0  0  0  0  0  0  0  0  0
  -30.9597  -17.9055   20.7442 C   0  0  0  0  0  0  0  0  0  0  0  0
  -25.0175  -31.5591   22.8574 C   0  0  1  0  0  0  0  0  0  0  0  0
  -22.8339  -29.0452   21.0284 C   0  0  1  0  0  0  0  0  0  0  0  0
  -27.6274  -13.0792   19.7167 C   0  0  2  0  0  0  0  0  0  0  0  0
  -30.8105  -16.8892   21.8851 C   0  0  0  0  0  0  0  0  0  0  0  0
  -31.8851  -21.2975   22.0744 C   0  0  0  0  0  0  0  0  0  0  0  0
  -27.4888  -18.6005   18.9931 C   0  0  0  0  0  0  0  0  0  0  0  0
  -26.4815  -18.7865   21.2965 C   0  0  0  0  0  0  0  0  0  0  0  0
  -16.8117  -24.1733   21.0268 C   0  0  0  0  0  0  0  0  0  0  0  0
  -20.6512  -27.8941   24.9362 C   0  0  0  0  0  0  0  0  0  0  0  0
  -18.9007  -26.1184   24.7111 C   0  0  0  0  0  0  0  0  0  0  0  0
  -18.4545  -28.4217   23.8636 C   0  0  0  0  0  0  0  0  0  0  0  0
  -19.3892  -24.5998   18.2609 C   0  0  0  0  0  0  0  0  0  0  0  0
  -28.0151  -23.8207   20.1808 C   0  0  0  0  0  0  0  0  0  1  0  0
  -27.7877  -18.8409   20.4838 C   0  0  0  0  0  0  0  0  0  0  0  0
  -20.0689  -26.9317   22.6123 C   0  0  1  0  0  0  0  0  0  0  0  0
  -17.9177  -24.8808   20.2595 C   0  0  2  0  0  0  0  0  0  0  0  0
  -19.5442  -27.3385   24.0183 C   0  0  0  0  0  0  0  0  0  0  0  0
  -25.8193  -11.5106   20.3103 N   0  0  0  0  0  0  0  0  0  0  0  0
  -26.2090  -12.7892   20.1715 N   0  0  0  0  0  0  0  0  0  0  0  0
  -30.4239  -18.8586   21.6345 N   0  0  0  0  0  0  0  0  0  0  0  0
  -22.0800  -27.9010   21.5448 N   0  0  0  0  0  0  0  0  0  0  0  0
  -29.9475  -13.5416   20.4154 N   0  0  0  0  0  0  0  0  0  0  0  0
  -25.4597  -15.0261   20.3850 N   0  0  0  0  0  0  0  0  0  0  0  0
  -21.8395  -12.5974   21.5649 N   0  0  0  0  0  0  0  0  0  0  0  0
  -24.2591  -30.8052   21.8824 N   0  0  0  0  0  0  0  0  0  0  0  0
  -19.0373  -26.4274   21.7124 N   0  0  0  0  0  0  0  0  0  0  0  0
  -30.1255  -15.6344   21.5123 N   0  0  0  0  0  0  0  0  0  0  0  0
  -18.3234  -24.0162   19.1155 N   0  3  0  0  0  0  0  0  0  0  0  0
  -22.6373  -14.7269   21.2691 O   0  0  0  0  0  0  0  0  0  0  0  0
  -23.4599  -29.1422   23.3030 O   0  0  0  0  0  0  0  0  0  0  0  0
  -20.0797  -29.0951   21.6396 O   0  0  0  0  0  0  0  0  0  0  0  0
  -20.0170  -24.3596   21.3359 O   0  0  0  0  0  0  0  0  0  0  0  0
  -31.8571  -14.8466   20.2384 O   0  0  0  0  0  0  0  0  0  0  0  0
  -21.5155   -7.0384   21.7341 O   0  0  0  0  0  0  0  0  0  0  0  0
  -26.8016  -23.9815   20.9143 O   0  0  0  0  0  0  0  0  0  1  0  0
  -23.8785   -2.9969   24.6472 F   0  0  0  0  0  0  0  0  0  0  0  0
  -20.4346   -6.2039   24.1378 F   0  0  0  0  0  0  0  0  0  0  0  0
  1  2  1  0  0  0  0
  1  5  2  0  0  0  0
  2  6  2  0  0  0  0
  3  8  2  0  0  0  0
  3 17  1  0  0  0  0
  4  9  1  0  0  0  0
  4 17  2  0  0  0  0
  5 19  1  0  0  0  0
  6 21  1  0  0  0  0
  7 10  2  0  0  0  0
  7 20  1  0  0  0  0
  8 27  1  0  0  0  0
  9 27  2  0  0  0  0
 10 28  1  0  0  0  0
 11 12  2  0  0  0  0
 11 29  1  0  0  0  0
 12 30  1  0  0  0  0
 13 22  1  0  0  0  0
 13 28  2  0  0  0  0
 14 23  1  0  0  0  0
 14 24  2  0  0  0  0
 15 23  2  0  0  0  0
 15 25  1  0  0  0  0
 16 30  2  0  0  0  0
 16 31  1  0  0  0  0
 17 32  1  0  0  0  0
 18 32  1  0  0  0  0
 18 33  2  0  0  0  0
 18 34  1  0  0  0  0
 19 21  2  0  0  0  0
 19 39  1  0  0  0  0
 20 22  2  0  0  0  0
 20 40  1  0  0  0  0
 21 50  1  0  0  0  0
 22 41  1  0  0  0  0
 23 62  1  0  0  0  0
 24 26  1  0  0  0  0
 24 54  1  0  0  0  0
 25 26  2  0  0  0  0
 25 63  1  0  0  0  0
 26 69  1  0  0  0  0
 27 83  1  0  0  0  0
 28 84  1  0  0  0  0
 29 31  2  0  0  0  0
 29 83  1  0  0  0  0
 30 85  1  0  0  0  0
 31 86  1  0  0  0  0
 32 67  2  0  0  0  0
 33 68  1  0  0  0  0
 33 72  1  0  0  0  0
 34 73  1  0  0  0  0
 34 78  2  0  0  0  0
 35 51  1  0  0  0  0
 35 74  1  0  0  0  0
 35 79  2  0  0  0  0
 36 64  1  0  0  0  0
 36 70  1  0  0  0  0
 36 80  2  0  0  0  0
 37 65  1  0  0  0  0
 37 75  1  0  0  0  0
 37 81  2  0  0  0  0
 38 71  1  0  0  0  0
 38 76  1  0  0  0  0
 38 82  2  0  0  0  0
 39 42  1  0  0  0  0
 40 51  1  0  0  0  0
 41 70  1  0  0  0  0
 42 44  1  0  0  0  0
 43 45  1  0  0  0  0
 43 46  1  0  0  0  0
 44 50  1  0  0  0  0
 45 52  1  0  0  0  0
 46 71  1  0  0  0  0
 47 52  1  0  0  0  0
 47 71  1  0  0  0  0
 48 53  1  0  0  0  0
 48 69  1  0  0  0  0
 49 53  1  0  0  0  0
 49 69  1  0  0  0  0
 50 74  1  0  0  0  0
 51 70  1  0  0  0  0
 52 68  1  0  0  0  0
 53 76  1  0  0  0  0
 55 63  1  0  0  0  0
 56 63  1  0  0  0  0
 57 65  1  0  0  0  0
 58 66  1  0  0  0  0
 59 66  1  0  0  0  0
 60 66  1  0  0  0  0
 61 77  1  0  0  0  0
 62 84  1  0  0  0  0
 64 66  1  0  0  0  0
 64 75  1  0  0  0  0
 65 77  1  0  0  0  0
 67 68  1  0  0  0  0
M  CHG  1  77   1
M  ISO  4  38 100  62 101  76 100  84 101
M  END
> <Batch ID>
0149

> <Smiles>
CNC(C)C(=O)NC(C(=O)N1Cc2cc([101O:1][101CH2:1]c3cc(C)c(N4CC([100NH:0][100C:0](=O)N5CCCC(n6nc(-c7ccc(Oc8ccc(F)cc8F)cc7)c(C(N)=O)c6N)C5)C4)c(C(C)C)c3)ccc2CC1C(=O)NC1CCCc2ccccc21)C(C)(C)C

> <Shape>
0.387

> <Color>
0.221

> <Negative vol penalty>
0.000

$$$$

  -OEChem-04052321383D

 93103  0     1  0  0  0  0  0999 V2000
  -20.7647  -38.9845   23.4715 C   0  0  0  0  0  0  0  0  0  0  0  0
  -21.7717  -38.9595   22.5119 C   0  0  0  0  0  0  0  0  0  0  0  0
  -24.5342   -8.7952   22.1889 C   0  0  0  0  0  0  0  0  0  0  0  0
  -23.3906  -10.5551   20.9921 C   0  0  0  0  0  0  0  0  0  0  0  0
  -20.8561  -38.1677   24.5977 C   0  0  0  0  0  0  0  0  0  0  0  0
  -22.8713  -38.1184   22.6786 C   0  0  0  0  0  0  0  0  0  0  0  0
  -25.6918  -32.5770   17.9495 C   0  0  0  0  0  0  0  0  0  0  0  0
  -23.4395   -7.9527   21.9961 C   0  0  0  0  0  0  0  0  0  0  0  0
  -22.2958   -9.7125   20.7992 C   0  0  0  0  0  0  0  0  0  0  0  0
  -26.1898  -31.4652   17.2697 C   0  0  0  0  0  0  0  0  0  0  0  0
  -20.3772   -7.4983   23.3527 C   0  0  0  0  0  0  0  0  0  0  0  0
  -19.9326   -6.7542   24.4454 C   0  0  0  0  0  0  0  0  0  0  0  0
  -28.5854  -22.7864   17.9508 C   0  0  0  0  0  0  0  0  0  0  0  0
  -27.6912  -23.6892   20.0055 C   0  0  0  0  0  0  0  0  0  0  0  0
  -27.0073  -30.5453   19.3514 C   0  0  0  0  0  0  0  0  0  0  0  0
  -20.3542   -4.7115   23.2260 C   0  0  0  0  0  0  0  0  0  0  0  0
  -24.5097  -10.0965   21.6870 C   0  0  0  0  0  0  0  0  0  0  0  0
  -26.1837  -11.3871   23.1153 C   0  0  0  0  0  0  0  0  0  0  0  0
  -21.9527  -37.3090   24.7735 C   0  0  0  0  0  0  0  0  0  0  0  0
  -25.8362  -32.6699   19.3365 C   0  0  0  0  0  0  0  0  0  0  0  0
  -22.9782  -37.2903   23.8089 C   0  0  0  0  0  0  0  0  0  0  0  0
  -28.0977  -23.8685   18.6833 C   0  0  0  0  0  0  0  0  0  0  0  0
  -26.4995  -31.6506   20.0393 C   0  0  0  0  0  0  0  0  0  0  0  0
  -28.2600  -21.3455   19.8626 C   0  0  0  0  0  0  0  0  0  0  0  0
  -22.3203   -8.4113   21.3012 C   0  0  0  0  0  0  0  0  0  0  0  0
  -26.8461  -30.4520   17.9689 C   0  0  0  0  0  0  0  0  0  0  0  0
  -20.8102   -6.8491   22.1965 C   0  0  0  0  0  0  0  0  0  0  0  0
  -28.6665  -21.5248   18.5404 C   0  0  0  0  0  0  0  0  0  0  0  0
  -27.7723  -22.4277   20.5952 C   0  0  0  0  0  0  0  0  0  0  0  0
  -19.9212   -5.3608   24.3822 C   0  0  0  0  0  0  0  0  0  0  0  0
  -20.7987   -5.4557   22.1332 C   0  0  0  0  0  0  0  0  0  0  0  0
  -25.6401  -10.9675   21.8863 C   0  0  0  0  0  0  0  0  0  0  0  0
  -27.2361  -12.1976   22.7663 C   0  0  0  0  0  0  0  0  0  0  0  0
  -25.7739  -11.0722   24.4527 C   0  0  0  0  0  0  0  0  0  0  0  0
  -25.1816  -34.6516   22.4542 C   0  0  0  0  0  0  0  0  0  0  0  0
  -24.7172  -31.7023   23.1591 C   0  0  0  0  0  0  0  0  0  0  0  0
  -23.8996  -28.4003   23.4141 C   0  0  0  0  0  0  0  0  0  0  0  0
  -29.5459  -16.1282   19.7271 C   0  0  0  0  0  0  0  0  0  0  0  0
  -22.0307  -36.4792   26.0305 C   0  0  0  0  0  0  0  0  0  0  0  0
  -25.3698  -33.8783   20.1019 C   0  0  0  0  0  0  0  0  0  0  0  0
  -26.6622  -31.8095   21.5263 C   0  0  0  0  0  0  0  0  0  0  0  0
  -23.0452  -35.3416   25.9473 C   0  0  0  0  0  0  0  0  0  0  0  0
  -29.4615  -12.9810   18.3003 C   0  0  0  0  0  0  0  0  0  0  0  0
  -28.9091  -26.2659   18.7554 C   0  0  0  0  0  0  0  0  0  0  0  0
  -26.5566  -25.7428   17.9611 C   0  0  0  0  0  0  0  0  0  0  0  0
  -24.3642  -35.8437   25.3684 C   0  0  0  0  0  0  0  0  0  0  0  0
  -28.5060  -12.1990   19.2013 C   0  0  0  0  0  0  0  0  0  0  0  0
  -28.8187  -27.6403   18.0973 C   0  0  0  0  0  0  0  0  0  0  0  0
  -26.4787  -27.1196   17.3067 C   0  0  0  0  0  0  0  0  0  0  0  0
  -27.4526  -18.9445   19.7926 C   0  0  0  0  0  0  0  0  0  0  0  0
  -29.8001  -19.4665   20.5841 C   0  0  0  0  0  0  0  0  0  0  0  0
  -28.9497  -14.3966   18.0607 C   0  0  0  0  0  0  0  0  0  0  0  0
  -27.5719  -17.5551   20.4255 C   0  0  0  0  0  0  0  0  0  0  0  0
  -29.8540  -18.0799   21.2187 C   0  0  0  0  0  0  0  0  0  0  0  0
  -27.7562  -14.4027   20.2271 C   0  0  0  0  0  0  0  0  0  0  0  0
  -28.0094  -25.2412   18.0417 C   0  0  0  0  0  0  0  0  0  0  0  0
  -28.3488  -19.9738   20.5046 C   0  0  0  0  0  0  0  0  0  0  0  0
  -24.1745  -36.3731   23.9418 C   0  0  1  0  0  0  0  0  0  0  0  0
  -24.8453  -33.5366   21.5081 C   0  0  1  0  0  0  0  0  0  0  0  0
  -28.2298  -12.9623   20.5088 C   0  0  1  0  0  0  0  0  0  0  0  0
  -27.3750  -28.1327   18.0148 C   0  0  0  0  0  0  0  0  0  1  0  0
  -28.0381  -22.2855   24.1870 C   0  0  0  0  0  0  0  0  0  0  0  0
  -23.0052  -26.2962   24.4486 C   0  0  0  0  0  0  0  0  0  0  0  0
  -27.4759  -31.6002   24.4564 C   0  0  0  0  0  0  0  0  0  0  0  0
  -26.8879  -29.3417   25.3629 C   0  0  0  0  0  0  0  0  0  0  0  0
  -25.5641  -31.3420   26.0478 C   0  0  0  0  0  0  0  0  0  0  0  0
  -21.1621  -28.9414   22.4282 C   0  0  0  0  0  0  0  0  0  0  0  0
  -29.5383  -20.7527   16.4668 C   0  0  0  0  0  0  0  0  0  0  0  0
  -28.0528  -23.0416   22.8756 C   0  0  0  0  0  0  0  0  0  0  0  0
  -25.3028  -30.4252   23.7062 C   0  0  1  0  0  0  0  0  0  0  0  0
  -22.6758  -27.7065   23.9846 C   0  0  2  0  0  0  0  0  0  0  0  0
  -26.3066  -30.6824   24.8653 C   0  0  0  0  0  0  0  0  0  0  0  0
  -26.2931  -11.4702   20.8352 N   0  0  0  0  0  0  0  0  0  0  0  0
  -27.2579  -12.2140   21.4027 N   0  0  0  0  0  0  0  0  0  0  0  0
  -25.4158  -32.3226   22.1161 N   0  0  0  0  0  0  0  0  0  0  0  0
  -28.6962  -15.0866   19.3254 N   0  0  0  0  0  0  0  0  0  0  0  0
  -28.9798  -17.1435   20.5127 N   0  0  0  0  0  0  0  0  0  0  0  0
  -28.1358  -12.8909   23.4960 N   0  0  0  0  0  0  0  0  0  0  0  0
  -26.3349   -9.9495   25.0765 N   0  0  0  0  0  0  0  0  0  0  0  0
  -24.0778  -35.2751   23.0040 N   0  0  0  0  0  0  0  0  0  0  0  0
  -24.1706  -29.5811   24.0725 N   0  0  0  0  0  0  0  0  0  0  0  0
  -21.6007  -27.6238   22.9559 N   0  3  0  0  0  0  0  0  0  0  0  0
  -24.9229  -11.7564   25.0701 O   0  0  0  0  0  0  0  0  0  0  0  0
  -26.3560  -34.9260   22.6716 O   0  0  0  0  0  0  0  0  0  0  0  0
  -23.6720  -32.1434   23.6451 O   0  0  0  0  0  0  0  0  0  0  0  0
  -24.5523  -27.9388   22.4805 O   0  0  0  0  0  0  0  0  0  0  0  0
  -30.7402  -16.1501   19.4041 O   0  0  0  0  0  0  0  0  0  0  0  0
  -21.2520   -7.5893   21.1127 O   0  0  0  0  0  0  0  0  0  0  0  0
  -27.3290  -29.3602   17.2954 O   0  0  0  0  0  0  0  0  0  1  0  0
  -29.1456  -20.4789   17.8102 O   0  0  0  0  0  0  0  0  0  0  0  0
  -27.3705  -22.2718   21.8878 O   0  0  0  0  0  0  0  0  0  0  0  0
  -19.4957   -4.6463   25.4322 F   0  0  0  0  0  0  0  0  0  0  0  0
  -21.2146   -4.8264   21.0256 F   0  0  0  0  0  0  0  0  0  0  0  0
  1  2  1  0  0  0  0
  1  5  2  0  0  0  0
  2  6  2  0  0  0  0
  3  8  2  0  0  0  0
  3 17  1  0  0  0  0
  4  9  1  0  0  0  0
  4 17  2  0  0  0  0
  5 19  1  0  0  0  0
  6 21  1  0  0  0  0
  7 10  2  0  0  0  0
  7 20  1  0  0  0  0
  8 25  1  0  0  0  0
  9 25  2  0  0  0  0
 10 26  1  0  0  0  0
 11 12  2  0  0  0  0
 11 27  1  0  0  0  0
 12 30  1  0  0  0  0
 13 22  1  0  0  0  0
 13 28  2  0  0  0  0
 14 22  2  0  0  0  0
 14 29  1  0  0  0  0
 15 23  1  0  0  0  0
 15 26  2  0  0  0  0
 16 30  2  0  0  0  0
 16 31  1  0  0  0  0
 17 32  1  0  0  0  0
 18 32  1  0  0  0  0
 18 33  2  0  0  0  0
 18 34  1  0  0  0  0
 19 21  2  0  0  0  0
 19 39  1  0  0  0  0
 20 23  2  0  0  0  0
 20 40  1  0  0  0  0
 21 58  1  0  0  0  0
 22 56  1  0  0  0  0
 23 41  1  0  0  0  0
 24 28  1  0  0  0  0
 24 29  2  0  0  0  0
 24 57  1  0  0  0  0
 25 88  1  0  0  0  0
 26 89  1  0  0  0  0
 27 31  2  0  0  0  0
 27 88  1  0  0  0  0
 28 90  1  0  0  0  0
 29 91  1  0  0  0  0
 30 92  1  0  0  0  0
 31 93  1  0  0  0  0
 32 73  2  0  0  0  0
 33 74  1  0  0  0  0
 33 78  1  0  0  0  0
 34 79  1  0  0  0  0
 34 83  2  0  0  0  0
 35 59  1  0  0  0  0
 35 80  1  0  0  0  0
 35 84  2  0  0  0  0
 36 70  1  0  0  0  0
 36 75  1  0  0  0  0
 36 85  2  0  0  0  0
 37 71  1  0  0  0  0
 37 81  1  0  0  0  0
 37 86  2  0  0  0  0
 38 76  1  0  0  0  0
 38 77  1  0  0  0  0
 38 87  2  0  0  0  0
 39 42  1  0  0  0  0
 40 59  1  0  0  0  0
 41 75  1  0  0  0  0
 42 46  1  0  0  0  0
 43 47  1  0  0  0  0
 43 52  1  0  0  0  0
 44 48  1  0  0  0  0
 44 56  1  0  0  0  0
 45 49  1  0  0  0  0
 45 56  1  0  0  0  0
 46 58  1  0  0  0  0
 47 60  1  0  0  0  0
 48 61  1  0  0  0  0
 49 61  1  0  0  0  0
 50 53  1  0  0  0  0
 50 57  1  0  0  0  0
 51 54  1  0  0  0  0
 51 57  1  0  0  0  0
 52 76  1  0  0  0  0
 53 77  1  0  0  0  0
 54 77  1  0  0  0  0
 55 60  1  0  0  0  0
 55 76  1  0  0  0  0
 58 80  1  0  0  0  0
 59 75  1  0  0  0  0
 60 74  1  0  0  0  0
 61 89  1  0  0  0  0
 62 69  1  0  0  0  0
 63 71  1  0  0  0  0
 64 72  1  0  0  0  0
 65 72  1  0  0  0  0
 66 72  1  0  0  0  0
 67 82  1  0  0  0  0
 68 90  1  0  0  0  0
 69 91  1  0  0  0  0
 70 72  1  0  0  0  0
 70 81  1  0  0  0  0
 71 82  1  0  0  0  0
 73 74  1  0  0  0  0
M  CHG  1  82   1
M  ISO  4  38 100  61 101  77 100  89 101
M  END
> <Batch ID>
0149

> <Smiles>
CCOc1cc(C2CC[101CH:1]([101O:1]c3ccc4c(c3)CN(C(=O)C(NC(=O)C(C)NC)C(C)(C)C)C(C(=O)NC3CCCc5ccccc53)C4)CC2)cc(OC)c1C1CC[100N:0]([100C:0](=O)N2CCCC(n3nc(-c4ccc(Oc5ccc(F)cc5F)cc4)c(C(N)=O)c3N)C2)CC1

> <Shape>
0.284

> <Color>
0.101

> <Negative vol penalty>
0.000

$$$$

  -OEChem-04052321383D

 89 98  0     1  0  0  0  0  0999 V2000
  -17.6977  -25.2043   23.2080 C   0  0  0  0  0  0  0  0  0  0  0  0
  -18.6180  -25.3317   22.1724 C   0  0  0  0  0  0  0  0  0  0  0  0
  -22.5659  -10.5959   21.4676 C   0  0  0  0  0  0  0  0  0  0  0  0
  -24.0433   -9.4589   23.0043 C   0  0  0  0  0  0  0  0  0  0  0  0
  -17.3160  -26.3267   23.9417 C   0  0  0  0  0  0  0  0  0  0  0  0
  -19.1562  -26.5818   21.8693 C   0  0  0  0  0  0  0  0  0  0  0  0
  -24.1625  -26.4131   21.1258 C   0  0  0  0  0  0  0  0  0  0  0  0
  -22.0074   -9.3721   21.0990 C   0  0  0  0  0  0  0  0  0  0  0  0
  -23.4848   -8.2350   22.6357 C   0  0  0  0  0  0  0  0  0  0  0  0
  -24.6076  -25.9313   19.8956 C   0  0  0  0  0  0  0  0  0  0  0  0
  -20.6856   -6.4695   23.3199 C   0  0  0  0  0  0  0  0  0  0  0  0
  -20.3639   -5.5727   24.3386 C   0  0  0  0  0  0  0  0  0  0  0  0
  -24.9440  -28.1963   19.1368 C   0  0  0  0  0  0  0  0  0  0  0  0
  -27.6185  -23.9050   17.0894 C   0  0  0  0  0  0  0  0  0  0  0  0
  -21.8768   -3.9478   23.3859 C   0  0  0  0  0  0  0  0  0  0  0  0
  -23.5840  -10.6393   22.4202 C   0  0  0  0  0  0  0  0  0  0  0  0
  -23.7369  -12.7538   23.8390 C   0  0  0  0  0  0  0  0  0  0  0  0
  -17.8570  -27.5896   23.6537 C   0  0  0  0  0  0  0  0  0  0  0  0
  -24.0944  -27.7928   21.3673 C   0  0  0  0  0  0  0  0  0  0  0  0
  -18.7803  -27.7224   22.5990 C   0  0  0  0  0  0  0  0  0  0  0  0
  -24.5001  -28.6931   20.3718 C   0  0  0  0  0  0  0  0  0  0  0  0
  -28.0510  -25.2246   17.0197 C   0  0  0  0  0  0  0  0  0  0  0  0
  -29.1631  -25.6255   17.7517 C   0  0  0  0  0  0  0  0  0  0  0  0
  -22.4668   -8.1916   21.6831 C   0  0  0  0  0  0  0  0  0  0  0  0
  -24.9957  -26.8229   18.8998 C   0  0  0  0  0  0  0  0  0  0  0  0
  -21.6029   -6.1055   22.3341 C   0  0  0  0  0  0  0  0  0  0  0  0
  -20.9595   -4.3118   24.3717 C   0  0  0  0  0  0  0  0  0  0  0  0
  -22.1985   -4.8446   22.3672 C   0  0  0  0  0  0  0  0  0  0  0  0
  -24.1617  -11.9032   22.8009 C   0  0  0  0  0  0  0  0  0  0  0  0
  -29.8027  -24.6758   18.5320 C   0  0  0  0  0  0  0  0  0  0  0  0
  -28.3273  -23.0323   17.8992 C   0  0  0  0  0  0  0  0  0  0  0  0
  -24.6064  -13.8159   23.7902 C   0  0  0  0  0  0  0  0  0  0  0  0
  -22.6532  -12.5978   24.7648 C   0  0  0  0  0  0  0  0  0  0  0  0
  -21.7577  -29.8388   22.0436 C   0  0  0  0  0  0  0  0  0  0  0  0
  -24.2155  -31.9265   22.3949 C   0  0  0  0  0  0  0  0  0  0  0  0
  -27.4326  -32.7696   21.6290 C   0  0  0  0  0  0  0  0  0  0  0  0
  -27.3921  -17.5961   21.1910 C   0  0  0  0  0  0  0  0  0  0  0  0
  -17.3782  -28.7818   24.4437 C   0  0  0  0  0  0  0  0  0  0  0  0
  -23.6373  -28.2960   22.7091 C   0  0  0  0  0  0  0  0  0  0  0  0
  -24.4650  -30.1832   20.5882 C   0  0  0  0  0  0  0  0  0  0  0  0
  -18.2778  -30.0070   24.3028 C   0  0  0  0  0  0  0  0  0  0  0  0
  -28.9240  -14.4370   21.2424 C   0  0  0  0  0  0  0  0  0  0  0  0
  -18.6294  -30.2455   22.8378 C   0  0  0  0  0  0  0  0  0  0  0  0
  -27.7803  -13.5533   21.7395 C   0  0  0  0  0  0  0  0  0  0  0  0
  -28.1499  -19.3177   18.2162 C   0  0  0  0  0  0  0  0  0  0  0  0
  -28.1028  -20.8463   20.2234 C   0  0  0  0  0  0  0  0  0  0  0  0
  -28.4414  -15.4919   20.2451 C   0  0  0  0  0  0  0  0  0  0  0  0
  -28.6995  -18.1972   19.1039 C   0  0  0  0  0  0  0  0  0  0  0  0
  -28.6778  -19.7084   21.0623 C   0  0  0  0  0  0  0  0  0  0  0  0
  -26.1779  -15.4377   21.2413 C   0  0  0  0  0  0  0  0  0  0  0  0
  -19.4051  -29.0574   22.2561 C   0  0  1  0  0  0  0  0  0  0  0  0
  -23.1215  -29.7311   22.6650 C   0  0  1  0  0  0  0  0  0  0  0  0
  -26.6226  -14.4055   22.2891 C   0  0  1  0  0  0  0  0  0  0  0  0
  -28.5232  -20.6993   18.7587 C   0  0  0  0  0  0  0  0  0  0  0  0
  -29.6468  -27.0358   17.6989 C   0  0  0  0  0  0  0  0  0  0  0  0
  -32.2630  -24.2774   18.9086 C   0  0  0  0  0  0  0  0  0  0  0  0
  -30.7699  -24.8689   20.8518 C   0  0  0  0  0  0  0  0  0  0  0  0
  -29.1516  -34.5522   22.0344 C   0  0  0  0  0  0  0  0  0  0  0  0
  -22.7755  -33.7595   20.4260 C   0  0  0  0  0  0  0  0  0  0  0  0
  -24.9176  -35.0245   20.1446 C   0  0  0  0  0  0  0  0  0  0  0  0
  -23.8099  -34.9320   22.3778 C   0  0  0  0  0  0  0  0  0  0  0  0
  -29.2826  -30.8545   22.9209 C   0  0  0  0  0  0  0  0  0  0  0  0
  -27.3078  -26.1891   16.1559 C   0  0  0  0  0  0  0  0  0  0  0  0
  -26.3897  -27.1192   16.9537 C   0  0  0  0  0  0  0  0  0  1  0  0
  -31.0023  -25.0483   19.3405 C   0  0  0  0  0  0  0  0  0  0  0  0
  -24.9583  -32.8675   21.4774 C   0  0  1  0  0  0  0  0  0  0  0  0
  -28.5913  -33.2177   22.5013 C   0  0  2  0  0  0  0  0  0  0  0  0
  -24.1143  -34.1179   21.1014 C   0  0  0  0  0  0  0  0  0  0  0  0
  -25.2188  -12.3835   22.1407 N   0  0  0  0  0  0  0  0  0  0  0  0
  -29.4120  -23.3849   18.6250 N   0  0  0  0  0  0  0  0  0  0  0  0
  -25.4655  -13.5475   22.7655 N   0  0  0  0  0  0  0  0  0  0  0  0
  -24.0046  -30.6262   21.9145 N   0  0  0  0  0  0  0  0  0  0  0  0
  -27.3115  -16.2519   20.7977 N   0  0  0  0  0  0  0  0  0  0  0  0
  -28.3104  -18.4058   20.5060 N   0  0  0  0  0  0  0  0  0  0  0  0
  -24.7122  -14.9439   24.5242 N   0  0  0  0  0  0  0  0  0  0  0  0
  -21.8588  -11.4466   24.6756 N   0  0  0  0  0  0  0  0  0  0  0  0
  -27.8855  -21.7225   17.9598 N   0  0  0  0  0  0  0  0  0  0  0  0
  -20.7862  -29.0959   22.6867 N   0  0  0  0  0  0  0  0  0  0  0  0
  -26.2194  -33.1759   22.1431 N   0  0  0  0  0  0  0  0  0  0  0  0
  -29.6877  -32.2090   22.4645 N   0  3  0  0  0  0  0  0  0  0  0  0
  -22.3868  -13.4617   25.6344 O   0  0  0  0  0  0  0  0  0  0  0  0
  -21.5983  -30.5450   21.0549 O   0  0  0  0  0  0  0  0  0  0  0  0
  -23.8427  -32.3281   23.5000 O   0  0  0  0  0  0  0  0  0  0  0  0
  -27.5883  -32.1268   20.5931 O   0  0  0  0  0  0  0  0  0  0  0  0
  -26.6850  -18.0468   22.1009 O   0  0  0  0  0  0  0  0  0  0  0  0
  -21.9218   -6.9972   21.3239 O   0  0  0  0  0  0  0  0  0  0  0  0
  -25.4385  -26.3460   17.6743 O   0  0  0  0  0  0  0  0  0  1  0  0
  -20.6516   -3.4513   25.3509 F   0  0  0  0  0  0  0  0  0  0  0  0
  -23.0813   -4.4896   21.4236 F   0  0  0  0  0  0  0  0  0  0  0  0
  1  2  1  0  0  0  0
  1  5  2  0  0  0  0
  2  6  2  0  0  0  0
  3  8  2  0  0  0  0
  3 16  1  0  0  0  0
  4  9  1  0  0  0  0
  4 16  2  0  0  0  0
  5 18  1  0  0  0  0
  6 20  1  0  0  0  0
  7 10  2  0  0  0  0
  7 19  1  0  0  0  0
  8 24  1  0  0  0  0
  9 24  2  0  0  0  0
 10 25  1  0  0  0  0
 11 12  2  0  0  0  0
 11 26  1  0  0  0  0
 12 27  1  0  0  0  0
 13 21  1  0  0  0  0
 13 25  2  0  0  0  0
 14 22  1  0  0  0  0
 14 31  2  0  0  0  0
 15 27  2  0  0  0  0
 15 28  1  0  0  0  0
 16 29  1  0  0  0  0
 17 29  1  0  0  0  0
 17 32  2  0  0  0  0
 17 33  1  0  0  0  0
 18 20  2  0  0  0  0
 18 38  1  0  0  0  0
 19 21  2  0  0  0  0
 19 39  1  0  0  0  0
 20 51  1  0  0  0  0
 21 40  1  0  0  0  0
 22 23  2  0  0  0  0
 22 63  1  0  0  0  0
 23 30  1  0  0  0  0
 23 55  1  0  0  0  0
 24 86  1  0  0  0  0
 25 87  1  0  0  0  0
 26 28  2  0  0  0  0
 26 86  1  0  0  0  0
 27 88  1  0  0  0  0
 28 89  1  0  0  0  0
 29 69  2  0  0  0  0
 30 65  1  0  0  0  0
 30 70  2  0  0  0  0
 31 70  1  0  0  0  0
 31 77  1  0  0  0  0
 32 71  1  0  0  0  0
 32 75  1  0  0  0  0
 33 76  1  0  0  0  0
 33 81  2  0  0  0  0
 34 52  1  0  0  0  0
 34 78  1  0  0  0  0
 34 82  2  0  0  0  0
 35 66  1  0  0  0  0
 35 72  1  0  0  0  0
 35 83  2  0  0  0  0
 36 67  1  0  0  0  0
 36 79  1  0  0  0  0
 36 84  2  0  0  0  0
 37 73  1  0  0  0  0
 37 74  1  0  0  0  0
 37 85  2  0  0  0  0
 38 41  1  0  0  0  0
 39 52  1  0  0  0  0
 40 72  1  0  0  0  0
 41 43  1  0  0  0  0
 42 44  1  0  0  0  0
 42 47  1  0  0  0  0
 43 51  1  0  0  0  0
 44 53  1  0  0  0  0
 45 48  1  0  0  0  0
 45 54  1  0  0  0  0
 46 49  1  0  0  0  0
 46 54  1  0  0  0  0
 47 73  1  0  0  0  0
 48 74  1  0  0  0  0
 49 74  1  0  0  0  0
 50 53  1  0  0  0  0
 50 73  1  0  0  0  0
 51 78  1  0  0  0  0
 52 72  1  0  0  0  0
 53 71  1  0  0  0  0
 54 77  1  0  0  0  0
 56 65  1  0  0  0  0
 57 65  1  0  0  0  0
 58 67  1  0  0  0  0
 59 68  1  0  0  0  0
 60 68  1  0  0  0  0
 61 68  1  0  0  0  0
 62 80  1  0  0  0  0
 63 64  1  0  0  0  0
 64 87  1  0  0  0  0
 66 68  1  0  0  0  0
 66 79  1  0  0  0  0
 67 80  1  0  0  0  0
 69 71  1  0  0  0  0
M  CHG  1  80   1
M  ISO  4  37 100  64 101  74 100  87 101
M  END
> <Batch ID>
0149

> <Smiles>
CNC(C)C(=O)NC(C(=O)N1Cc2cc([101O:1][101CH2:1]Cc3cc(NC4CC[100N:0]([100C:0](=O)N5CCCC(n6nc(-c7ccc(Oc8ccc(F)cc8F)cc7)c(C(N)=O)c6N)C5)CC4)nc(C(C)C)c3C)ccc2CC1C(=O)NC1CCCc2ccccc21)C(C)(C)C

> <Shape>
0.298

> <Color>
0.100

> <Negative vol penalty>
0.000

$$$$

  -OEChem-04052321383D

 81 90  0     1  0  0  0  0  0999 V2000
  -28.1213  -36.3649   18.9512 C   0  0  0  0  0  0  0  0  0  0  0  0
  -28.4228  -35.0276   19.1880 C   0  0  0  0  0  0  0  0  0  0  0  0
  -27.4749  -11.0900   20.5870 C   0  0  0  0  0  0  0  0  0  0  0  0
  -26.8488  -12.6604   18.8611 C   0  0  0  0  0  0  0  0  0  0  0  0
  -27.2006  -37.0252   19.7638 C   0  0  0  0  0  0  0  0  0  0  0  0
  -27.8044  -34.3500   20.2382 C   0  0  0  0  0  0  0  0  0  0  0  0
  -26.1880  -29.7430   18.8937 C   0  0  0  0  0  0  0  0  0  0  0  0
  -26.3441  -10.3250   20.3012 C   0  0  0  0  0  0  0  0  0  0  0  0
  -25.7180  -11.8954   18.5753 C   0  0  0  0  0  0  0  0  0  0  0  0
  -27.1438  -28.7313   18.8132 C   0  0  0  0  0  0  0  0  0  0  0  0
  -23.0328  -10.4283   20.9714 C   0  0  0  0  0  0  0  0  0  0  0  0
  -22.2753   -9.9659   22.0474 C   0  0  0  0  0  0  0  0  0  0  0  0
  -26.4688  -27.9291   20.9858 C   0  0  0  0  0  0  0  0  0  0  0  0
  -28.5273  -20.7061   19.6098 C   0  0  0  0  0  0  0  0  0  0  0  0
  -22.6716   -7.6877   21.3473 C   0  0  0  0  0  0  0  0  0  0  0  0
  -29.1518  -22.9402   21.0467 C   0  0  0  0  0  0  0  0  0  0  0  0
  -27.7272  -12.2578   19.8670 C   0  0  0  0  0  0  0  0  0  0  0  0
  -30.1732  -12.9253   19.5858 C   0  0  0  0  0  0  0  0  0  0  0  0
  -26.5635  -36.3527   20.8186 C   0  0  0  0  0  0  0  0  0  0  0  0
  -25.3714  -29.8622   20.0275 C   0  0  0  0  0  0  0  0  0  0  0  0
  -26.8754  -35.0023   21.0665 C   0  0  0  0  0  0  0  0  0  0  0  0
  -25.5016  -28.9417   21.0771 C   0  0  0  0  0  0  0  0  0  0  0  0
  -28.7180  -23.1000   19.7405 C   0  0  0  0  0  0  0  0  0  0  0  0
  -28.4018  -21.9567   19.0152 C   0  0  0  0  0  0  0  0  0  0  0  0
  -25.4657  -10.7276   19.2953 C   0  0  0  0  0  0  0  0  0  0  0  0
  -27.2863  -27.8258   19.8606 C   0  0  0  0  0  0  0  0  0  0  0  0
  -23.6098   -9.5205   20.0833 C   0  0  0  0  0  0  0  0  0  0  0  0
  -22.0947   -8.5956   22.2354 C   0  0  0  0  0  0  0  0  0  0  0  0
  -23.4292   -8.1503   20.2712 C   0  0  0  0  0  0  0  0  0  0  0  0
  -28.8948  -13.0487   20.1622 C   0  0  0  0  0  0  0  0  0  0  0  0
  -28.9698  -20.6534   20.9217 C   0  0  0  0  0  0  0  0  0  0  0  0
  -30.9221  -13.8995   20.1994 C   0  0  0  0  0  0  0  0  0  0  0  0
  -30.6419  -12.0117   18.5851 C   0  0  0  0  0  0  0  0  0  0  0  0
  -24.9291  -32.0925   22.2488 C   0  0  0  0  0  0  0  0  0  0  0  0
  -22.5501  -30.1085   23.2114 C   0  0  0  0  0  0  0  0  0  0  0  0
  -21.2685  -26.9466   23.2901 C   0  0  0  0  0  0  0  0  0  0  0  0
  -29.5190  -19.0854   22.8154 C   0  0  0  0  0  0  0  0  0  0  0  0
  -25.6107  -37.1215   21.6994 C   0  0  0  0  0  0  0  0  0  0  0  0
  -24.3270  -30.9429   20.0873 C   0  0  0  0  0  0  0  0  0  0  0  0
  -24.6358  -29.0140   22.3074 C   0  0  0  0  0  0  0  0  0  0  0  0
  -24.7197  -36.2279   22.5584 C   0  0  0  0  0  0  0  0  0  0  0  0
  -31.2428  -16.3479   24.3027 C   0  0  0  0  0  0  0  0  0  0  0  0
  -25.5463  -35.1333   23.2257 C   0  0  0  0  0  0  0  0  0  0  0  0
  -30.9577  -15.1814   23.3540 C   0  0  0  0  0  0  0  0  0  0  0  0
  -27.2870  -24.8950   18.5546 C   0  0  0  0  0  0  0  0  0  0  0  0
  -30.0373  -17.2763   24.4383 C   0  0  0  0  0  0  0  0  0  0  0  0
  -29.2026  -16.6032   22.2204 C   0  0  0  0  0  0  0  0  0  0  0  0
  -28.6027  -24.4566   19.1541 C   0  0  1  0  0  0  0  0  0  0  0  0
  -26.2070  -34.2263   22.1806 C   0  0  1  0  0  0  0  0  0  0  0  0
  -23.8999  -31.2829   21.5119 C   0  0  1  0  0  0  0  0  0  0  0  0
  -30.4094  -15.6763   22.0012 C   0  0  2  0  0  0  0  0  0  0  0  0
  -27.7467  -25.4926   19.8492 C   0  0  1  0  0  0  0  0  0  1  0  0
  -27.9272  -22.0464   17.6024 C   0  0  0  0  0  0  0  0  0  0  0  0
  -19.3289  -25.6289   24.1841 C   0  0  0  0  0  0  0  0  0  0  0  0
  -23.7930  -30.1736   25.9972 C   0  0  0  0  0  0  0  0  0  0  0  0
  -22.4283  -28.1563   26.5772 C   0  0  0  0  0  0  0  0  0  0  0  0
  -21.2951  -30.2929   25.9663 C   0  0  0  0  0  0  0  0  0  0  0  0
  -20.3888  -26.1767   20.5712 C   0  0  0  0  0  0  0  0  0  0  0  0
  -22.4501  -28.9439   24.1668 C   0  0  1  0  0  0  0  0  0  0  0  0
  -19.8749  -26.4171   23.0037 C   0  0  2  0  0  0  0  0  0  0  0  0
  -22.5094  -29.3912   25.6547 C   0  0  0  0  0  0  0  0  0  0  0  0
  -29.2863  -21.7420   21.6582 N   0  0  0  0  0  0  0  0  0  0  0  0
  -28.8315  -14.0244   21.0722 N   0  0  0  0  0  0  0  0  0  0  0  0
  -30.0796  -14.5228   21.0723 N   0  0  0  0  0  0  0  0  0  0  0  0
  -23.6334  -30.0922   22.3215 N   0  0  0  0  0  0  0  0  0  0  0  0
  -29.5754  -17.7082   23.1173 N   0  0  0  0  0  0  0  0  0  0  0  0
  -32.2124  -14.2752   20.0721 N   0  0  0  0  0  0  0  0  0  0  0  0
  -29.7406  -11.0750   18.0609 N   0  0  0  0  0  0  0  0  0  0  0  0
  -29.0958  -19.3744   21.5185 N   0  0  0  0  0  0  0  0  0  0  0  0
  -25.2426  -33.2926   21.6397 N   0  0  0  0  0  0  0  0  0  0  0  0
  -21.2331  -28.2243   23.8072 N   0  0  0  0  0  0  0  0  0  0  0  0
  -19.8952  -25.5238   21.8110 N   0  3  0  0  0  0  0  0  0  0  0  0
  -31.8291  -12.0147   18.1800 O   0  0  0  0  0  0  0  0  0  0  0  0
  -25.4026  -31.6609   23.2934 O   0  0  0  0  0  0  0  0  0  0  0  0
  -21.6944  -30.9962   23.2484 O   0  0  0  0  0  0  0  0  0  0  0  0
  -22.2864  -26.2907   23.0799 O   0  0  0  0  0  0  0  0  0  0  0  0
  -29.8497  -19.9440   23.6372 O   0  0  0  0  0  0  0  0  0  0  0  0
  -24.3623   -9.9813   19.0160 O   0  0  0  0  0  0  0  0  0  0  0  0
  -28.2189  -26.8377   19.7849 O   0  0  0  0  0  0  0  0  0  1  0  0
  -21.3684   -8.1515   23.2696 F   0  0  0  0  0  0  0  0  0  0  0  0
  -23.9820   -7.2733   19.4220 F   0  0  0  0  0  0  0  0  0  0  0  0
  1  2  1  0  0  0  0
  1  5  2  0  0  0  0
  2  6  2  0  0  0  0
  3  8  2  0  0  0  0
  3 17  1  0  0  0  0
  4  9  1  0  0  0  0
  4 17  2  0  0  0  0
  5 19  1  0  0  0  0
  6 21  1  0  0  0  0
  7 10  2  0  0  0  0
  7 20  1  0  0  0  0
  8 25  1  0  0  0  0
  9 25  2  0  0  0  0
 10 26  1  0  0  0  0
 11 12  2  0  0  0  0
 11 27  1  0  0  0  0
 12 28  1  0  0  0  0
 13 22  1  0  0  0  0
 13 26  2  0  0  0  0
 14 24  1  0  0  0  0
 14 31  2  0  0  0  0
 15 28  2  0  0  0  0
 15 29  1  0  0  0  0
 16 23  1  0  0  0  0
 16 62  2  0  0  0  0
 17 30  1  0  0  0  0
 18 30  1  0  0  0  0
 18 32  2  0  0  0  0
 18 33  1  0  0  0  0
 19 21  2  0  0  0  0
 19 38  1  0  0  0  0
 20 22  2  0  0  0  0
 20 39  1  0  0  0  0
 21 49  1  0  0  0  0
 22 40  1  0  0  0  0
 23 24  2  0  0  0  0
 23 48  1  0  0  0  0
 24 53  1  0  0  0  0
 25 78  1  0  0  0  0
 26 79  1  0  0  0  0
 27 29  2  0  0  0  0
 27 78  1  0  0  0  0
 28 80  1  0  0  0  0
 29 81  1  0  0  0  0
 30 63  2  0  0  0  0
 31 62  1  0  0  0  0
 31 69  1  0  0  0  0
 32 64  1  0  0  0  0
 32 67  1  0  0  0  0
 33 68  1  0  0  0  0
 33 73  2  0  0  0  0
 34 50  1  0  0  0  0
 34 70  1  0  0  0  0
 34 74  2  0  0  0  0
 35 59  1  0  0  0  0
 35 65  1  0  0  0  0
 35 75  2  0  0  0  0
 36 60  1  0  0  0  0
 36 71  1  0  0  0  0
 36 76  2  0  0  0  0
 37 66  1  0  0  0  0
 37 69  1  0  0  0  0
 37 77  2  0  0  0  0
 38 41  1  0  0  0  0
 39 50  1  0  0  0  0
 40 65  1  0  0  0  0
 41 43  1  0  0  0  0
 42 44  1  0  0  0  0
 42 46  1  0  0  0  0
 43 49  1  0  0  0  0
 44 51  1  0  0  0  0
 45 48  1  0  0  0  0
 45 52  1  0  0  0  0
 46 66  1  0  0  0  0
 47 51  1  0  0  0  0
 47 66  1  0  0  0  0
 48 52  1  0  0  0  0
 49 70  1  0  0  0  0
 50 65  1  0  0  0  0
 51 64  1  0  0  0  0
 52 79  1  0  0  0  0
 54 60  1  0  0  0  0
 55 61  1  0  0  0  0
 56 61  1  0  0  0  0
 57 61  1  0  0  0  0
 58 72  1  0  0  0  0
 59 61  1  0  0  0  0
 59 71  1  0  0  0  0
 60 72  1  0  0  0  0
 63 64  1  0  0  0  0
M  CHG  1  72   1
M  ISO  4  37 100  52 101  69 100  79 101
M  END
> <Batch ID>
0149

> <Smiles>
CNC(C)C(=O)NC(C(=O)N1Cc2cc([101O:1][101CH:1]3CC3c3cnc([100NH:0][100C:0](=O)N4CCCC(n5nc(-c6ccc(Oc7ccc(F)cc7F)cc6)c(C(N)=O)c5N)C4)cc3C)ccc2CC1C(=O)NC1CCCc2ccccc21)C(C)(C)C

> <Shape>
0.300

> <Color>
0.084

> <Negative vol penalty>
0.000

$$$$

  -OEChem-04052321383D

 90100  0     1  0  0  0  0  0999 V2000
  -24.3678  -35.6628   15.5194 C   0  0  0  0  0  0  0  0  0  0  0  0
  -24.5355  -34.2825   15.5638 C   0  0  0  0  0  0  0  0  0  0  0  0
  -25.9472  -11.1150   20.1209 C   0  0  0  0  0  0  0  0  0  0  0  0
  -25.9805  -13.5123   19.8223 C   0  0  0  0  0  0  0  0  0  0  0  0
  -24.7754  -36.4484   16.5968 C   0  0  0  0  0  0  0  0  0  0  0  0
  -25.1119  -33.6870   16.6852 C   0  0  0  0  0  0  0  0  0  0  0  0
  -23.7248  -28.2208   19.0732 C   0  0  0  0  0  0  0  0  0  0  0  0
  -24.5534  -11.1403   20.1682 C   0  0  0  0  0  0  0  0  0  0  0  0
  -24.5867  -13.5375   19.8696 C   0  0  0  0  0  0  0  0  0  0  0  0
  -24.3219  -26.9665   18.9545 C   0  0  0  0  0  0  0  0  0  0  0  0
  -21.9900  -11.3541   17.9736 C   0  0  0  0  0  0  0  0  0  0  0  0
  -21.2988  -10.3932   17.2357 C   0  0  0  0  0  0  0  0  0  0  0  0
  -25.5293  -27.3537   21.0067 C   0  0  0  0  0  0  0  0  0  0  0  0
  -27.5118  -23.1249   18.4307 C   0  0  0  0  0  0  0  0  0  0  0  0
  -25.4480  -22.0571   19.0921 C   0  0  0  0  0  0  0  0  0  0  0  0
  -20.2810   -9.5669   19.2651 C   0  0  0  0  0  0  0  0  0  0  0  0
  -26.6608  -12.3011   19.9480 C   0  0  0  0  0  0  0  0  0  0  0  0
  -28.9103  -12.1225   18.7583 C   0  0  0  0  0  0  0  0  0  0  0  0
  -25.3483  -35.8613   17.7360 C   0  0  0  0  0  0  0  0  0  0  0  0
  -24.0343  -29.0568   20.1556 C   0  0  0  0  0  0  0  0  0  0  0  0
  -25.5288  -34.4655   17.7783 C   0  0  0  0  0  0  0  0  0  0  0  0
  -24.9328  -28.6171   21.1382 C   0  0  0  0  0  0  0  0  0  0  0  0
  -26.1526  -23.2062   18.7333 C   0  0  0  0  0  0  0  0  0  0  0  0
  -28.1664  -21.8945   18.4868 C   0  0  0  0  0  0  0  0  0  0  0  0
  -26.1027  -20.8266   19.1482 C   0  0  0  0  0  0  0  0  0  0  0  0
  -27.4619  -20.7453   18.8455 C   0  0  0  0  0  0  0  0  0  0  0  0
  -23.8731  -12.3515   20.0425 C   0  0  0  0  0  0  0  0  0  0  0  0
  -25.2265  -26.5340   19.9198 C   0  0  0  0  0  0  0  0  0  0  0  0
  -21.8267  -11.4214   19.3573 C   0  0  0  0  0  0  0  0  0  0  0  0
  -20.4443   -9.4996   17.8815 C   0  0  0  0  0  0  0  0  0  0  0  0
  -20.9722  -10.5278   20.0030 C   0  0  0  0  0  0  0  0  0  0  0  0
  -28.1006  -12.2757   19.8997 C   0  0  0  0  0  0  0  0  0  0  0  0
  -30.1955  -12.1656   19.2407 C   0  0  0  0  0  0  0  0  0  0  0  0
  -28.5342  -11.9562   17.3847 C   0  0  0  0  0  0  0  0  0  0  0  0
  -25.3514  -31.9334   20.4633 C   0  0  0  0  0  0  0  0  0  0  0  0
  -24.5571  -31.5343   23.5830 C   0  0  0  0  0  0  0  0  0  0  0  0
  -23.8544  -29.3887   26.1421 C   0  0  0  0  0  0  0  0  0  0  0  0
  -30.5529  -15.9736   22.5777 C   0  0  0  0  0  0  0  0  0  0  0  0
  -25.8167  -36.7560   18.8561 C   0  0  0  0  0  0  0  0  0  0  0  0
  -23.3614  -30.3960   20.2833 C   0  0  0  0  0  0  0  0  0  0  0  0
  -25.2835  -29.4683   22.3302 C   0  0  0  0  0  0  0  0  0  0  0  0
  -26.0756  -36.0110   20.1631 C   0  0  0  0  0  0  0  0  0  0  0  0
  -30.0156  -12.6737   23.8382 C   0  0  0  0  0  0  0  0  0  0  0  0
  -33.1889  -18.2292   21.5226 C   0  0  0  0  0  0  0  0  0  0  0  0
  -26.8876  -34.7458   19.9045 C   0  0  0  0  0  0  0  0  0  0  0  0
  -28.6523  -17.6183   17.0479 C   0  0  0  0  0  0  0  0  0  0  0  0
  -27.9324  -18.7534   16.3748 C   0  0  0  0  0  0  0  0  0  0  0  0
  -30.8453  -11.7698   22.9332 C   0  0  0  0  0  0  0  0  0  0  0  0
  -32.0214  -18.8637   20.7801 C   0  0  0  0  0  0  0  0  0  0  0  0
  -30.7190  -14.0043   24.0570 C   0  0  0  0  0  0  0  0  0  0  0  0
  -32.7705  -16.7700   21.6149 C   0  0  0  0  0  0  0  0  0  0  0  0
  -31.7735  -13.8733   21.8082 C   0  0  0  0  0  0  0  0  0  0  0  0
  -26.1273  -33.7802   18.9874 C   0  0  1  0  0  0  0  0  0  0  0  0
  -24.1404  -31.3753   21.1559 C   0  0  1  0  0  0  0  0  0  0  0  0
  -28.8013  -19.0195   17.5726 C   0  0  0  0  0  0  0  0  0  0  0  0
  -31.2146  -12.4463   21.6032 C   0  0  2  0  0  0  0  0  0  0  0  0
  -30.8034  -18.1295   21.3474 C   0  0  1  0  0  0  0  0  0  0  0  0
  -29.6227  -21.8347   18.1591 C   0  0  0  0  0  0  0  0  0  0  0  0
  -25.3255  -19.6108   19.5352 C   0  0  0  0  0  0  0  0  0  0  0  0
  -23.2809  -29.3570   28.5850 C   0  0  0  0  0  0  0  0  0  0  0  0
  -27.4675  -32.1388   24.2716 C   0  0  0  0  0  0  0  0  0  0  0  0
  -27.0561  -31.1775   26.5465 C   0  0  0  0  0  0  0  0  0  0  0  0
  -25.7929  -33.1947   25.7997 C   0  0  0  0  0  0  0  0  0  0  0  0
  -21.2527  -28.0732   25.6329 C   0  0  0  0  0  0  0  0  0  0  0  0
  -25.4526  -24.5216   18.6727 C   0  0  0  0  0  0  0  0  0  1  0  0
  -29.6804  -18.0154   20.3245 C   0  0  0  0  0  0  0  0  0  0  0  0
  -28.1715  -19.4124   18.9066 C   0  0  1  0  0  0  0  0  0  0  0  0
  -25.2395  -30.9427   24.7927 C   0  0  1  0  0  0  0  0  0  0  0  0
  -22.7338  -29.3749   27.1661 C   0  0  2  0  0  0  0  0  0  0  0  0
  -26.3841  -31.8479   25.3293 C   0  0  0  0  0  0  0  0  0  0  0  0
  -28.8119  -12.4062   21.0226 N   0  0  0  0  0  0  0  0  0  0  0  0
  -30.0820  -12.3350   20.5893 N   0  0  0  0  0  0  0  0  0  0  0  0
  -24.6041  -30.7722   22.4071 N   0  0  0  0  0  0  0  0  0  0  0  0
  -31.0309  -14.6726   22.7934 N   0  0  0  0  0  0  0  0  0  0  0  0
  -31.3160  -16.8209   21.7710 N   0  0  0  0  0  0  0  0  0  0  0  0
  -31.4004  -12.0746   18.6387 N   0  0  0  0  0  0  0  0  0  0  0  0
  -27.1702  -11.9344   17.0634 N   0  0  0  0  0  0  0  0  0  0  0  0
  -25.1028  -33.0783   19.7307 N   0  0  0  0  0  0  0  0  0  0  0  0
  -24.1855  -30.6729   25.7646 N   0  0  0  0  0  0  0  0  0  0  0  0
  -21.8753  -28.1713   26.9782 N   0  3  0  0  0  0  0  0  0  0  0  0
  -29.2354  -19.3744   19.9500 N   0  3  0  0  0  0  0  0  0  0  0  0
  -29.3824  -11.8142   16.4715 O   0  0  0  0  0  0  0  0  0  0  0  0
  -26.4316  -31.3679   20.5858 O   0  0  0  0  0  0  0  0  0  0  0  0
  -23.9967  -32.6290   23.6797 O   0  0  0  0  0  0  0  0  0  0  0  0
  -24.3857  -28.3631   25.7221 O   0  0  0  0  0  0  0  0  0  0  0  0
  -29.4962  -16.3648   23.0910 O   0  0  0  0  0  0  0  0  0  0  0  0
  -22.5130  -12.3764   20.0884 O   0  0  0  0  0  0  0  0  0  0  0  0
  -25.8152  -25.3020   19.8052 O   0  0  0  0  0  0  0  0  0  1  0  0
  -19.7795   -8.5778   17.1725 F   0  0  0  0  0  0  0  0  0  0  0  0
  -20.8104  -10.5883   21.3319 F   0  0  0  0  0  0  0  0  0  0  0  0
  1  2  1  0  0  0  0
  1  5  2  0  0  0  0
  2  6  2  0  0  0  0
  3  8  2  0  0  0  0
  3 17  1  0  0  0  0
  4  9  1  0  0  0  0
  4 17  2  0  0  0  0
  5 19  1  0  0  0  0
  6 21  1  0  0  0  0
  7 10  2  0  0  0  0
  7 20  1  0  0  0  0
  8 27  1  0  0  0  0
  9 27  2  0  0  0  0
 10 28  1  0  0  0  0
 11 12  2  0  0  0  0
 11 29  1  0  0  0  0
 12 30  1  0  0  0  0
 13 22  1  0  0  0  0
 13 28  2  0  0  0  0
 14 23  1  0  0  0  0
 14 24  2  0  0  0  0
 15 23  2  0  0  0  0
 15 25  1  0  0  0  0
 16 30  2  0  0  0  0
 16 31  1  0  0  0  0
 17 32  1  0  0  0  0
 18 32  1  0  0  0  0
 18 33  2  0  0  0  0
 18 34  1  0  0  0  0
 19 21  2  0  0  0  0
 19 39  1  0  0  0  0
 20 22  2  0  0  0  0
 20 40  1  0  0  0  0
 21 53  1  0  0  0  0
 22 41  1  0  0  0  0
 23 65  1  0  0  0  0
 24 26  1  0  0  0  0
 24 58  1  0  0  0  0
 25 26  2  0  0  0  0
 25 59  1  0  0  0  0
 26 67  1  0  0  0  0
 27 87  1  0  0  0  0
 28 88  1  0  0  0  0
 29 31  2  0  0  0  0
 29 87  1  0  0  0  0
 30 89  1  0  0  0  0
 31 90  1  0  0  0  0
 32 71  2  0  0  0  0
 33 72  1  0  0  0  0
 33 76  1  0  0  0  0
 34 77  1  0  0  0  0
 34 82  2  0  0  0  0
 35 54  1  0  0  0  0
 35 78  1  0  0  0  0
 35 83  2  0  0  0  0
 36 68  1  0  0  0  0
 36 73  1  0  0  0  0
 36 84  2  0  0  0  0
 37 69  1  0  0  0  0
 37 79  1  0  0  0  0
 37 85  2  0  0  0  0
 38 74  1  0  0  0  0
 38 75  1  0  0  0  0
 38 86  2  0  0  0  0
 39 42  1  0  0  0  0
 40 54  1  0  0  0  0
 41 73  1  0  0  0  0
 42 45  1  0  0  0  0
 43 48  1  0  0  0  0
 43 50  1  0  0  0  0
 44 49  1  0  0  0  0
 44 51  1  0  0  0  0
 45 53  1  0  0  0  0
 46 47  1  0  0  0  0
 46 55  1  0  0  0  0
 47 55  1  0  0  0  0
 48 56  1  0  0  0  0
 49 57  1  0  0  0  0
 50 74  1  0  0  0  0
 51 75  1  0  0  0  0
 52 56  1  0  0  0  0
 52 74  1  0  0  0  0
 53 78  1  0  0  0  0
 54 73  1  0  0  0  0
 55 67  1  0  0  0  0
 56 72  1  0  0  0  0
 57 66  1  0  0  0  0
 57 75  1  0  0  0  0
 60 69  1  0  0  0  0
 61 70  1  0  0  0  0
 62 70  1  0  0  0  0
 63 70  1  0  0  0  0
 64 80  1  0  0  0  0
 65 88  1  0  0  0  0
 66 81  1  0  0  0  0
 67 81  1  0  0  0  0
 68 70  1  0  0  0  0
 68 79  1  0  0  0  0
 69 80  1  0  0  0  0
 71 72  1  0  0  0  0
M  CHG  2  80   1  81   1
M  ISO  4  38 100  65 101  75 100  88 101
M  END
> <Batch ID>
0149

> <Smiles>
CNC(C)C(=O)NC(C(=O)N1Cc2cc([101O:1][101CH2:1]c3cc(C)c(C(NCC4CCC[100N:0]4[100C:0](=O)N4CCCC(n5nc(-c6ccc(Oc7ccc(F)cc7F)cc6)c(C(N)=O)c5N)C4)C4CC4)c(C)c3)ccc2CC1C(=O)NC1CCCc2ccccc21)C(C)(C)C

> <Shape>
0.255

> <Color>
0.066

> <Negative vol penalty>
0.000

$$$$

  -OEChem-04052321383D

 89 98  0     1  0  0  0  0  0999 V2000
  -26.5312  -35.9973   22.3862 C   0  0  0  0  0  0  0  0  0  0  0  0
  -27.2680  -34.8572   22.6907 C   0  0  0  0  0  0  0  0  0  0  0  0
  -24.0428   -9.6244   22.4830 C   0  0  0  0  0  0  0  0  0  0  0  0
  -23.4489   -9.7670   20.1455 C   0  0  0  0  0  0  0  0  0  0  0  0
  -25.1510  -35.9076   22.2105 C   0  0  0  0  0  0  0  0  0  0  0  0
  -26.6248  -33.6269   22.8208 C   0  0  0  0  0  0  0  0  0  0  0  0
  -28.4439  -28.0336   18.6617 C   0  0  0  0  0  0  0  0  0  0  0  0
  -23.7681   -8.2569   22.4694 C   0  0  0  0  0  0  0  0  0  0  0  0
  -23.1742   -8.3995   20.1319 C   0  0  0  0  0  0  0  0  0  0  0  0
  -28.8781  -26.8577   18.0494 C   0  0  0  0  0  0  0  0  0  0  0  0
  -21.0407   -6.2635   22.5792 C   0  0  0  0  0  0  0  0  0  0  0  0
  -20.2980   -5.7419   23.6384 C   0  0  0  0  0  0  0  0  0  0  0  0
  -27.0977  -25.6263   19.1275 C   0  0  0  0  0  0  0  0  0  0  0  0
  -31.6350  -18.0935   20.6213 C   0  0  0  0  0  0  0  0  0  0  0  0
  -22.1327   -4.2747   24.2025 C   0  0  0  0  0  0  0  0  0  0  0  0
  -23.8831  -10.3794   21.3210 C   0  0  0  0  0  0  0  0  0  0  0  0
  -23.5486  -12.7753   22.1307 C   0  0  0  0  0  0  0  0  0  0  0  0
  -24.4919  -34.6738   22.3289 C   0  0  0  0  0  0  0  0  0  0  0  0
  -27.3243  -28.0131   19.4981 C   0  0  0  0  0  0  0  0  0  0  0  0
  -25.2343  -33.5208   22.6478 C   0  0  0  0  0  0  0  0  0  0  0  0
  -26.6506  -26.8034   19.7337 C   0  0  0  0  0  0  0  0  0  0  0  0
  -30.7707  -17.3734   21.4459 C   0  0  0  0  0  0  0  0  0  0  0  0
  -31.1947  -19.2629   20.0012 C   0  0  0  0  0  0  0  0  0  0  0  0
  -29.4660  -17.8225   21.6503 C   0  0  0  0  0  0  0  0  0  0  0  0
  -29.0257  -18.9918   21.0302 C   0  0  0  0  0  0  0  0  0  0  0  0
  -29.8900  -19.7120   20.2057 C   0  0  0  0  0  0  0  0  0  0  0  0
  -23.3338   -7.6445   21.2939 C   0  0  0  0  0  0  0  0  0  0  0  0
  -28.2068  -25.6570   18.2820 C   0  0  0  0  0  0  0  0  0  0  0  0
  -22.3295   -5.7906   22.3316 C   0  0  0  0  0  0  0  0  0  0  0  0
  -20.8440   -4.7475   24.4500 C   0  0  0  0  0  0  0  0  0  0  0  0
  -22.8755   -4.7963   23.1433 C   0  0  0  0  0  0  0  0  0  0  0  0
  -24.1661  -11.7922   21.3346 C   0  0  0  0  0  0  0  0  0  0  0  0
  -24.1678  -13.9473   21.7709 C   0  0  0  0  0  0  0  0  0  0  0  0
  -22.5083  -12.6411   23.1082 C   0  0  0  0  0  0  0  0  0  0  0  0
  -24.9852  -29.9603   21.6920 C   0  0  0  0  0  0  0  0  0  0  0  0
  -23.2718  -27.9666   20.1108 C   0  0  0  0  0  0  0  0  0  0  0  0
  -21.7025  -25.9229   17.8752 C   0  0  0  0  0  0  0  0  0  0  0  0
  -29.5404  -15.1674   19.4262 C   0  0  0  0  0  0  0  0  0  0  0  0
  -22.9919  -34.6346   22.1768 C   0  0  0  0  0  0  0  0  0  0  0  0
  -26.8581  -29.2440   20.2271 C   0  0  0  0  0  0  0  0  0  0  0  0
  -25.4720  -26.8225   20.6682 C   0  0  0  0  0  0  0  0  0  0  0  0
  -22.4380  -33.2284   21.9624 C   0  0  0  0  0  0  0  0  0  0  0  0
  -26.3653  -16.0386   18.0711 C   0  0  0  0  0  0  0  0  0  0  0  0
  -23.0566  -32.2532   22.9590 C   0  0  0  0  0  0  0  0  0  0  0  0
  -25.3859  -15.1378   18.8257 C   0  0  0  0  0  0  0  0  0  0  0  0
  -28.9363  -22.1416   17.5251 C   0  0  0  0  0  0  0  0  0  0  0  0
  -29.1286  -23.3263   19.7175 C   0  0  0  0  0  0  0  0  0  0  0  0
  -27.6864  -15.3258   17.7909 C   0  0  0  0  0  0  0  0  0  0  0  0
  -28.8306  -20.8048   18.2538 C   0  0  0  0  0  0  0  0  0  0  0  0
  -29.0182  -21.9919   20.4485 C   0  0  0  0  0  0  0  0  0  0  0  0
  -27.3609  -13.8435   19.7327 C   0  0  0  0  0  0  0  0  0  0  0  0
  -24.5761  -32.1638   22.7726 C   0  0  1  0  0  0  0  0  0  0  0  0
  -25.3283  -29.3091   20.3844 C   0  0  1  0  0  0  0  0  0  0  0  0
  -26.0345  -14.5372   20.0873 C   0  0  2  0  0  0  0  0  0  0  0  0
  -28.4109  -23.2929   18.3731 C   0  0  0  0  0  0  0  0  0  1  0  0
  -28.5415  -17.0476   22.5352 C   0  0  0  0  0  0  0  0  0  0  0  0
  -27.6247  -19.4703   21.2520 C   0  0  0  0  0  0  0  0  0  0  0  0
  -33.1582  -20.8203   19.9270 C   0  0  0  0  0  0  0  0  0  0  0  0
  -19.4201  -25.1336   17.1932 C   0  0  0  0  0  0  0  0  0  0  0  0
  -23.1759  -26.1438   22.5546 C   0  0  0  0  0  0  0  0  0  0  0  0
  -21.4559  -24.7635   21.3693 C   0  0  0  0  0  0  0  0  0  0  0  0
  -20.9771  -27.1498   21.9162 C   0  0  0  0  0  0  0  0  0  0  0  0
  -22.0063  -27.0331   15.1487 C   0  0  0  0  0  0  0  0  0  0  0  0
  -31.2668  -16.1243   22.0979 C   0  0  0  0  0  0  0  0  0  0  0  0
  -32.1436  -20.0129   19.1236 C   0  0  0  0  0  0  0  0  0  0  0  0
  -31.3009  -14.9151   21.1571 C   0  0  0  0  0  0  0  0  0  0  0  0
  -22.6227  -26.6062   20.0754 C   0  0  1  0  0  0  0  0  0  0  0  0
  -20.5189  -26.1576   16.9542 C   0  0  2  0  0  0  0  0  0  0  0  0
  -22.0834  -26.1705   21.4671 C   0  0  0  0  0  0  0  0  0  0  0  0
  -25.1055  -12.2958   20.5296 N   0  0  0  0  0  0  0  0  0  0  0  0
  -25.0827  -13.6082   20.8180 N   0  0  0  0  0  0  0  0  0  0  0  0
  -29.4496  -20.8862   19.5817 N   0  0  0  0  0  0  0  0  0  0  0  0
  -24.6404  -28.0071   20.4037 N   0  0  0  0  0  0  0  0  0  0  0  0
  -28.2499  -14.7808   19.0284 N   0  0  0  0  0  0  0  0  0  0  0  0
  -24.0134  -15.2246   22.1798 N   0  0  0  0  0  0  0  0  0  0  0  0
  -21.9842  -11.3649   23.3552 N   0  0  0  0  0  0  0  0  0  0  0  0
  -24.8973  -31.3379   21.6285 N   0  0  0  0  0  0  0  0  0  0  0  0
  -21.6047  -26.6666   19.0322 N   0  0  0  0  0  0  0  0  0  0  0  0
  -29.9960  -14.6093   20.6143 N   0  0  0  0  0  0  0  0  0  0  0  0
  -20.9452  -26.0655   15.5291 N   0  3  0  0  0  0  0  0  0  0  0  0
  -22.0455  -13.6261   23.7320 O   0  0  0  0  0  0  0  0  0  0  0  0
  -24.8111  -29.2649   22.6859 O   0  0  0  0  0  0  0  0  0  0  0  0
  -22.5852  -28.9684   19.8908 O   0  0  0  0  0  0  0  0  0  0  0  0
  -22.6201  -25.1537   17.5979 O   0  0  0  0  0  0  0  0  0  0  0  0
  -30.2329  -15.9558   18.7738 O   0  0  0  0  0  0  0  0  0  0  0  0
  -23.0659   -6.3101   21.2802 O   0  0  0  0  0  0  0  0  0  0  0  0
  -28.6333  -24.5136   17.6775 O   0  0  0  0  0  0  0  0  0  1  0  0
  -20.1312   -4.2478   25.4680 F   0  0  0  0  0  0  0  0  0  0  0  0
  -24.1135   -4.3389   22.9111 F   0  0  0  0  0  0  0  0  0  0  0  0
  1  2  1  0  0  0  0
  1  5  2  0  0  0  0
  2  6  2  0  0  0  0
  3  8  2  0  0  0  0
  3 16  1  0  0  0  0
  4  9  1  0  0  0  0
  4 16  2  0  0  0  0
  5 18  1  0  0  0  0
  6 20  1  0  0  0  0
  7 10  2  0  0  0  0
  7 19  1  0  0  0  0
  8 27  1  0  0  0  0
  9 27  2  0  0  0  0
 10 28  1  0  0  0  0
 11 12  2  0  0  0  0
 11 29  1  0  0  0  0
 12 30  1  0  0  0  0
 13 21  1  0  0  0  0
 13 28  2  0  0  0  0
 14 22  2  0  0  0  0
 14 23  1  0  0  0  0
 15 30  2  0  0  0  0
 15 31  1  0  0  0  0
 16 32  1  0  0  0  0
 17 32  1  0  0  0  0
 17 33  2  0  0  0  0
 17 34  1  0  0  0  0
 18 20  2  0  0  0  0
 18 39  1  0  0  0  0
 19 21  2  0  0  0  0
 19 40  1  0  0  0  0
 20 52  1  0  0  0  0
 21 41  1  0  0  0  0
 22 24  1  0  0  0  0
 22 64  1  0  0  0  0
 23 26  2  0  0  0  0
 23 65  1  0  0  0  0
 24 25  2  0  0  0  0
 24 56  1  0  0  0  0
 25 26  1  0  0  0  0
 25 57  1  0  0  0  0
 26 72  1  0  0  0  0
 27 86  1  0  0  0  0
 28 87  1  0  0  0  0
 29 31  2  0  0  0  0
 29 86  1  0  0  0  0
 30 88  1  0  0  0  0
 31 89  1  0  0  0  0
 32 70  2  0  0  0  0
 33 71  1  0  0  0  0
 33 75  1  0  0  0  0
 34 76  1  0  0  0  0
 34 81  2  0  0  0  0
 35 53  1  0  0  0  0
 35 77  1  0  0  0  0
 35 82  2  0  0  0  0
 36 67  1  0  0  0  0
 36 73  1  0  0  0  0
 36 83  2  0  0  0  0
 37 68  1  0  0  0  0
 37 78  1  0  0  0  0
 37 84  2  0  0  0  0
 38 74  1  0  0  0  0
 38 79  1  0  0  0  0
 38 85  2  0  0  0  0
 39 42  1  0  0  0  0
 40 53  1  0  0  0  0
 41 73  1  0  0  0  0
 42 44  1  0  0  0  0
 43 45  1  0  0  0  0
 43 48  1  0  0  0  0
 44 52  1  0  0  0  0
 45 54  1  0  0  0  0
 46 49  1  0  0  0  0
 46 55  1  0  0  0  0
 47 50  1  0  0  0  0
 47 55  1  0  0  0  0
 48 74  1  0  0  0  0
 49 72  1  0  0  0  0
 50 72  1  0  0  0  0
 51 54  1  0  0  0  0
 51 74  1  0  0  0  0
 52 77  1  0  0  0  0
 53 73  1  0  0  0  0
 54 71  1  0  0  0  0
 55 87  1  0  0  0  0
 58 65  1  0  0  0  0
 59 68  1  0  0  0  0
 60 69  1  0  0  0  0
 61 69  1  0  0  0  0
 62 69  1  0  0  0  0
 63 80  1  0  0  0  0
 64 66  1  0  0  0  0
 66 79  1  0  0  0  0
 67 69  1  0  0  0  0
 67 78  1  0  0  0  0
 68 80  1  0  0  0  0
 70 71  1  0  0  0  0
M  CHG  1  80   1
M  ISO  4  38 100  55 101  79 100  87 101
M  END
> <Batch ID>
0149

> <Smiles>
CCc1cc(CC[100NH:0][100C:0](=O)N2CCCC(n3nc(-c4ccc(Oc5ccc(F)cc5F)cc4)c(C(N)=O)c3N)C2)c(C)c(C)c1N1CC[101CH:1]([101O:1]c2ccc3c(c2)CN(C(=O)C(NC(=O)C(C)NC)C(C)(C)C)C(C(=O)NC2CCCc4ccccc42)C3)CC1

> <Shape>
0.310

> <Color>
0.068

> <Negative vol penalty>
0.000

$$$$

  -OEChem-04052321383D

 87 96  0     1  0  0  0  0  0999 V2000
  -16.8758  -23.0873   14.0249 C   0  0  0  0  0  0  0  0  0  0  0  0
  -18.0309  -22.8349   14.7581 C   0  0  0  0  0  0  0  0  0  0  0  0
  -23.0709   -9.8754   19.9365 C   0  0  0  0  0  0  0  0  0  0  0  0
  -23.8417   -9.8672   22.2262 C   0  0  0  0  0  0  0  0  0  0  0  0
  -16.8209  -24.1869   13.1695 C   0  0  0  0  0  0  0  0  0  0  0  0
  -19.1321  -23.6815   14.6355 C   0  0  0  0  0  0  0  0  0  0  0  0
  -21.1844  -24.8603   19.1125 C   0  0  0  0  0  0  0  0  0  0  0  0
  -22.3279   -8.7208   20.1824 C   0  0  0  0  0  0  0  0  0  0  0  0
  -23.0986   -8.7127   22.4722 C   0  0  0  0  0  0  0  0  0  0  0  0
  -21.9983  -23.9004   19.7123 C   0  0  0  0  0  0  0  0  0  0  0  0
  -19.8731   -7.9118   23.0848 C   0  0  0  0  0  0  0  0  0  0  0  0
  -19.1217   -7.8644   24.2590 C   0  0  0  0  0  0  0  0  0  0  0  0
  -29.5742  -20.0225   19.0924 C   0  0  0  0  0  0  0  0  0  0  0  0
  -27.7252  -21.2972   18.2020 C   0  0  0  0  0  0  0  0  0  0  0  0
  -23.9530  -25.0739   18.9241 C   0  0  0  0  0  0  0  0  0  0  0  0
  -27.3378  -19.6513   19.9277 C   0  0  0  0  0  0  0  0  0  0  0  0
  -20.3661   -5.9219   24.9769 C   0  0  0  0  0  0  0  0  0  0  0  0
  -23.8279  -10.4486   20.9584 C   0  0  0  0  0  0  0  0  0  0  0  0
  -24.1698  -12.9744   20.8532 C   0  0  0  0  0  0  0  0  0  0  0  0
  -17.9185  -25.0529   13.0436 C   0  0  0  0  0  0  0  0  0  0  0  0
  -21.7494  -25.9301   18.4034 C   0  0  0  0  0  0  0  0  0  0  0  0
  -19.0922  -24.7930   13.7766 C   0  0  0  0  0  0  0  0  0  0  0  0
  -29.0870  -20.9959   18.2204 C   0  0  0  0  0  0  0  0  0  0  0  0
  -23.1441  -26.0475   18.3183 C   0  0  0  0  0  0  0  0  0  0  0  0
  -28.6996  -19.3501   19.9461 C   0  0  0  0  0  0  0  0  0  0  0  0
  -22.3417   -8.1395   21.4503 C   0  0  0  0  0  0  0  0  0  0  0  0
  -23.3827  -24.0055   19.6157 C   0  0  0  0  0  0  0  0  0  0  0  0
  -20.8710   -6.9641   22.8566 C   0  0  0  0  0  0  0  0  0  0  0  0
  -26.8505  -20.6248   19.0557 C   0  0  0  0  0  0  0  0  0  0  0  0
  -19.3682   -6.8695   25.2051 C   0  0  0  0  0  0  0  0  0  0  0  0
  -21.1175   -5.9692   23.8027 C   0  0  0  0  0  0  0  0  0  0  0  0
  -24.5960  -11.6409   20.7048 C   0  0  0  0  0  0  0  0  0  0  0  0
  -25.2605  -13.7259   20.4896 C   0  0  0  0  0  0  0  0  0  0  0  0
  -22.9015  -13.4878   21.2815 C   0  0  0  0  0  0  0  0  0  0  0  0
  -21.6396  -26.9300   15.3881 C   0  0  0  0  0  0  0  0  0  0  0  0
  -23.3120  -29.4454   16.5706 C   0  0  0  0  0  0  0  0  0  0  0  0
  -25.3839  -30.6655   18.9924 C   0  0  0  0  0  0  0  0  0  0  0  0
  -30.7453  -14.7424   20.6586 C   0  0  0  0  0  0  0  0  0  0  0  0
  -17.8289  -26.2017   12.0706 C   0  0  0  0  0  0  0  0  0  0  0  0
  -20.8582  -26.9719   17.7847 C   0  0  0  0  0  0  0  0  0  0  0  0
  -23.8007  -27.1879   17.5857 C   0  0  0  0  0  0  0  0  0  0  0  0
  -18.9056  -27.2633   12.2807 C   0  0  0  0  0  0  0  0  0  0  0  0
  -29.5958  -12.3737   18.2618 C   0  0  0  0  0  0  0  0  0  0  0  0
  -31.2100  -22.4317   17.8957 C   0  0  0  0  0  0  0  0  0  0  0  0
  -30.0650  -23.2211   17.3425 C   0  0  0  0  0  0  0  0  0  0  0  0
  -20.2730  -26.6098   12.4535 C   0  0  0  0  0  0  0  0  0  0  0  0
  -28.1603  -12.0776   18.6996 C   0  0  0  0  0  0  0  0  0  0  0  0
  -30.5186  -12.5865   19.4597 C   0  0  0  0  0  0  0  0  0  0  0  0
  -28.6237  -13.3090   20.8601 C   0  0  0  0  0  0  0  0  0  0  0  0
  -30.0213  -21.7153   17.3091 C   0  0  0  0  0  0  0  0  0  0  0  0
  -20.2987  -25.7024   13.6894 C   0  0  1  0  0  0  0  0  0  0  0  0
  -21.5323  -27.7378   16.6506 C   0  0  1  0  0  0  0  0  0  0  0  0
  -27.6439  -13.1423   19.6859 C   0  0  2  0  0  0  0  0  0  0  0  0
  -26.6116  -32.7469   19.6694 C   0  0  0  0  0  0  0  0  0  0  0  0
  -30.4189  -17.2697   23.3306 C   0  0  0  0  0  0  0  0  0  0  0  0
  -25.3935  -28.9200   14.4024 C   0  0  0  0  0  0  0  0  0  0  0  0
  -26.9915  -30.3579   15.6856 C   0  0  0  0  0  0  0  0  0  0  0  0
  -24.8786  -31.3363   14.7906 C   0  0  0  0  0  0  0  0  0  0  0  0
  -23.9047  -30.8457   21.5494 C   0  0  0  0  0  0  0  0  0  0  0  0
  -30.5763  -18.0100   20.8990 C   0  0  0  0  0  0  0  0  0  0  0  0
  -23.6566  -21.7460   20.3054 C   0  0  0  0  0  0  0  0  0  1  0  0
  -24.8037  -20.7552   20.2596 C   0  0  0  0  0  0  0  0  0  0  0  0
  -24.7757  -29.7597   16.7644 C   0  0  1  0  0  0  0  0  0  0  0  0
  -25.3307  -31.9401   19.8152 C   0  0  2  0  0  0  0  0  0  0  0  0
  -30.8176  -16.8848   21.9092 C   0  0  2  0  0  0  0  0  0  0  0  0
  -25.4977  -30.0708   15.4230 C   0  0  0  0  0  0  0  0  0  0  0  0
  -25.8589  -11.5475   20.2799 N   0  0  0  0  0  0  0  0  0  0  0  0
  -26.2355  -12.8318   20.1581 N   0  0  0  0  0  0  0  0  0  0  0  0
  -22.8865  -28.1777   16.9923 N   0  0  0  0  0  0  0  0  0  0  0  0
  -29.9726  -13.6094   20.3550 N   0  0  0  0  0  0  0  0  0  0  0  0
  -25.4709  -15.0578   20.4243 N   0  0  0  0  0  0  0  0  0  0  0  0
  -21.8909  -12.5767   21.6176 N   0  0  0  0  0  0  0  0  0  0  0  0
  -29.1930  -18.3665   20.8283 N   0  0  0  0  0  0  0  0  0  0  0  0
  -20.4249  -26.4934   14.8947 N   0  0  0  0  0  0  0  0  0  0  0  0
  -24.8350  -30.8428   17.7400 N   0  0  0  0  0  0  0  0  0  0  0  0
  -30.1504  -15.6658   21.5095 N   0  0  0  0  0  0  0  0  0  0  0  0
  -25.1398  -31.6179   21.2577 N   0  3  0  0  0  0  0  0  0  0  0  0
  -22.6658  -14.7180   21.3479 O   0  0  0  0  0  0  0  0  0  0  0  0
  -22.7425  -26.7197   14.8973 O   0  0  0  0  0  0  0  0  0  0  0  0
  -22.5719  -30.2960   16.0703 O   0  0  0  0  0  0  0  0  0  0  0  0
  -25.8677  -29.6185   19.4168 O   0  0  0  0  0  0  0  0  0  0  0  0
  -31.8792  -14.9205   20.2008 O   0  0  0  0  0  0  0  0  0  0  0  0
  -21.6166   -7.0130   21.6908 O   0  0  0  0  0  0  0  0  0  0  0  0
  -24.1795  -23.0695   20.1998 O   0  0  0  0  0  0  0  0  0  1  0  0
  -25.5132  -20.9220   19.0380 O   0  0  0  0  0  0  0  0  0  0  0  0
  -18.6476   -6.8251   26.3333 F   0  0  0  0  0  0  0  0  0  0  0  0
  -22.0755   -5.0568   23.5896 F   0  0  0  0  0  0  0  0  0  0  0  0
  1  2  1  0  0  0  0
  1  5  2  0  0  0  0
  2  6  2  0  0  0  0
  3  8  2  0  0  0  0
  3 18  1  0  0  0  0
  4  9  1  0  0  0  0
  4 18  2  0  0  0  0
  5 20  1  0  0  0  0
  6 22  1  0  0  0  0
  7 10  2  0  0  0  0
  7 21  1  0  0  0  0
  8 26  1  0  0  0  0
  9 26  2  0  0  0  0
 10 27  1  0  0  0  0
 11 12  2  0  0  0  0
 11 28  1  0  0  0  0
 12 30  1  0  0  0  0
 13 23  2  0  0  0  0
 13 25  1  0  0  0  0
 14 23  1  0  0  0  0
 14 29  2  0  0  0  0
 15 24  1  0  0  0  0
 15 27  2  0  0  0  0
 16 25  2  0  0  0  0
 16 29  1  0  0  0  0
 17 30  2  0  0  0  0
 17 31  1  0  0  0  0
 18 32  1  0  0  0  0
 19 32  1  0  0  0  0
 19 33  2  0  0  0  0
 19 34  1  0  0  0  0
 20 22  2  0  0  0  0
 20 39  1  0  0  0  0
 21 24  2  0  0  0  0
 21 40  1  0  0  0  0
 22 51  1  0  0  0  0
 23 50  1  0  0  0  0
 24 41  1  0  0  0  0
 25 73  1  0  0  0  0
 26 83  1  0  0  0  0
 27 84  1  0  0  0  0
 28 31  2  0  0  0  0
 28 83  1  0  0  0  0
 29 85  1  0  0  0  0
 30 86  1  0  0  0  0
 31 87  1  0  0  0  0
 32 67  2  0  0  0  0
 33 68  1  0  0  0  0
 33 71  1  0  0  0  0
 34 72  1  0  0  0  0
 34 78  2  0  0  0  0
 35 52  1  0  0  0  0
 35 74  1  0  0  0  0
 35 79  2  0  0  0  0
 36 63  1  0  0  0  0
 36 69  1  0  0  0  0
 36 80  2  0  0  0  0
 37 64  1  0  0  0  0
 37 75  1  0  0  0  0
 37 81  2  0  0  0  0
 38 70  1  0  0  0  0
 38 76  1  0  0  0  0
 38 82  2  0  0  0  0
 39 42  1  0  0  0  0
 40 52  1  0  0  0  0
 41 69  1  0  0  0  0
 42 46  1  0  0  0  0
 43 47  1  0  0  0  0
 43 48  1  0  0  0  0
 44 45  1  0  0  0  0
 44 50  1  0  0  0  0
 45 50  1  0  0  0  0
 46 51  1  0  0  0  0
 47 53  1  0  0  0  0
 48 70  1  0  0  0  0
 49 53  1  0  0  0  0
 49 70  1  0  0  0  0
 51 74  1  0  0  0  0
 52 69  1  0  0  0  0
 53 68  1  0  0  0  0
 54 64  1  0  0  0  0
 55 65  1  0  0  0  0
 56 66  1  0  0  0  0
 57 66  1  0  0  0  0
 58 66  1  0  0  0  0
 59 77  1  0  0  0  0
 60 65  1  0  0  0  0
 60 73  1  0  0  0  0
 61 62  1  0  0  0  0
 61 84  1  0  0  0  0
 62 85  1  0  0  0  0
 63 66  1  0  0  0  0
 63 75  1  0  0  0  0
 64 77  1  0  0  0  0
 65 76  1  0  0  0  0
 67 68  1  0  0  0  0
M  CHG  1  77   1
M  ISO  4  38 100  61 101  76 100  84 101
M  END
> <Batch ID>
0149

> <Smiles>
CNC(C)C(=O)NC(C(=O)N1Cc2cc([101O:1][101CH2:1]COc3cc(NCC(C)[100NH:0][100C:0](=O)N4CCCC(n5nc(-c6ccc(Oc7ccc(F)cc7F)cc6)c(C(N)=O)c5N)C4)cc(C4CC4)c3)ccc2CC1C(=O)NC1CCCc2ccccc21)C(C)(C)C

> <Shape>
0.239

> <Color>
0.191

> <Negative vol penalty>
0.000

$$$$

  -OEChem-04052321383D

 88 96  0     1  0  0  0  0  0999 V2000
  -36.6778  -30.3989   28.3106 C   0  0  0  0  0  0  0  0  0  0  0  0
  -36.5955  -29.1020   27.8139 C   0  0  0  0  0  0  0  0  0  0  0  0
  -23.2062   -9.8439   19.9524 C   0  0  0  0  0  0  0  0  0  0  0  0
  -23.5723  -10.0712   22.3297 C   0  0  0  0  0  0  0  0  0  0  0  0
  -35.5215  -31.1650   28.4513 C   0  0  0  0  0  0  0  0  0  0  0  0
  -35.3564  -28.5701   27.4586 C   0  0  0  0  0  0  0  0  0  0  0  0
  -34.1984  -24.6797   22.8728 C   0  0  0  0  0  0  0  0  0  0  0  0
  -22.4406   -8.7004   20.1796 C   0  0  0  0  0  0  0  0  0  0  0  0
  -22.8066   -8.9276   22.5569 C   0  0  0  0  0  0  0  0  0  0  0  0
  -34.0297  -23.2963   22.8364 C   0  0  0  0  0  0  0  0  0  0  0  0
  -23.2138   -5.5770   22.3600 C   0  0  0  0  0  0  0  0  0  0  0  0
  -23.7092   -4.6338   23.2603 C   0  0  0  0  0  0  0  0  0  0  0  0
  -31.6381  -23.5911   22.9483 C   0  0  0  0  0  0  0  0  0  0  0  0
  -29.7505  -19.2276   25.4813 C   0  0  0  0  0  0  0  0  0  0  0  0
  -31.1887  -17.4080   24.8047 C   0  0  0  0  0  0  0  0  0  0  0  0
  -21.7453   -4.9178   24.6385 C   0  0  0  0  0  0  0  0  0  0  0  0
  -23.7722  -10.5293   21.0275 C   0  0  0  0  0  0  0  0  0  0  0  0
  -24.1085  -13.0413   20.7364 C   0  0  0  0  0  0  0  0  0  0  0  0
  -34.2688  -30.6456   28.0886 C   0  0  0  0  0  0  0  0  0  0  0  0
  -33.0869  -25.5303   22.9583 C   0  0  0  0  0  0  0  0  0  0  0  0
  -34.1820  -29.3295   27.5959 C   0  0  0  0  0  0  0  0  0  0  0  0
  -31.7953  -24.9851   22.9830 C   0  0  0  0  0  0  0  0  0  0  0  0
  -28.6889  -18.3345   25.6266 C   0  0  0  0  0  0  0  0  0  0  0  0
  -28.8773  -16.9782   25.3609 C   0  0  0  0  0  0  0  0  0  0  0  0
  -30.1272  -16.5149   24.9500 C   0  0  0  0  0  0  0  0  0  0  0  0
  -22.2407   -8.2422   21.4818 C   0  0  0  0  0  0  0  0  0  0  0  0
  -32.7495  -22.7516   22.8771 C   0  0  0  0  0  0  0  0  0  0  0  0
  -21.9842   -6.1908   22.5991 C   0  0  0  0  0  0  0  0  0  0  0  0
  -31.0004  -18.7643   25.0703 C   0  0  0  0  0  0  0  0  0  0  0  0
  -22.9749   -4.3041   24.3995 C   0  0  0  0  0  0  0  0  0  0  0  0
  -21.2499   -5.8612   23.7383 C   0  0  0  0  0  0  0  0  0  0  0  0
  -24.5637  -11.7103   20.7934 C   0  0  0  0  0  0  0  0  0  0  0  0
  -25.2397  -13.7809   20.4924 C   0  0  0  0  0  0  0  0  0  0  0  0
  -22.7817  -13.5624   20.8905 C   0  0  0  0  0  0  0  0  0  0  0  0
  -32.0546  -27.6665   25.0737 C   0  0  0  0  0  0  0  0  0  0  0  0
  -29.8089  -28.2488   22.8065 C   0  0  0  0  0  0  0  0  0  0  0  0
  -28.0489  -27.1119   20.1127 C   0  0  0  0  0  0  0  0  0  0  0  0
  -31.0507  -12.8201   21.5696 C   0  0  0  0  0  0  0  0  0  0  0  0
  -33.0410  -31.4949   28.3030 C   0  0  0  0  0  0  0  0  0  0  0  0
  -33.2846  -27.0214   22.9697 C   0  0  0  0  0  0  0  0  0  0  0  0
  -30.5682  -25.8556   23.0544 C   0  0  0  0  0  0  0  0  0  0  0  0
  -31.8120  -30.9894   27.5519 C   0  0  0  0  0  0  0  0  0  0  0  0
  -29.5380  -13.4740   18.4136 C   0  0  0  0  0  0  0  0  0  0  0  0
  -31.6521  -29.4843   27.7413 C   0  0  0  0  0  0  0  0  0  0  0  0
  -28.0506  -13.2162   18.6604 C   0  0  0  0  0  0  0  0  0  0  0  0
  -30.4169  -12.5009   19.1963 C   0  0  0  0  0  0  0  0  0  0  0  0
  -28.6554  -12.1886   20.8913 C   0  0  0  0  0  0  0  0  0  0  0  0
  -32.8592  -28.7259   27.1764 C   0  0  1  0  0  0  0  0  0  0  0  0
  -32.1054  -27.7759   23.5760 C   0  0  1  0  0  0  0  0  0  0  0  0
  -27.7300  -13.1811   20.1669 C   0  0  2  0  0  0  0  0  0  0  0  0
  -27.3607  -18.8567   26.0673 C   0  0  0  0  0  0  0  0  0  0  0  0
  -28.0075  -14.9609   26.5969 C   0  0  0  0  0  0  0  0  0  0  0  0
  -27.3578  -15.3420   24.1911 C   0  0  0  0  0  0  0  0  0  0  0  0
  -26.2568  -27.8014   18.4970 C   0  0  0  0  0  0  0  0  0  0  0  0
  -31.1469  -12.3156   25.2261 C   0  0  0  0  0  0  0  0  0  0  0  0
  -27.6964  -27.8008   24.9621 C   0  0  0  0  0  0  0  0  0  0  0  0
  -25.9927  -27.5576   23.1437 C   0  0  0  0  0  0  0  0  0  0  0  0
  -27.2228  -29.7104   23.4182 C   0  0  0  0  0  0  0  0  0  0  0  0
  -29.8700  -26.8372   17.7960 C   0  0  0  0  0  0  0  0  0  0  0  0
  -31.6002  -14.6252   24.2536 C   0  0  0  0  0  0  0  0  0  0  0  0
  -33.6215  -20.6034   23.4068 C   0  0  0  0  0  0  0  0  0  1  0  0
  -33.0221  -19.3199   23.9478 C   0  0  0  0  0  0  0  0  0  0  0  0
  -27.7357  -16.0232   25.5178 C   0  0  0  0  0  0  0  0  0  0  0  0
  -28.4394  -27.6971   22.4916 C   0  0  1  0  0  0  0  0  0  0  0  0
  -27.7528  -27.7424   18.7639 C   0  0  2  0  0  0  0  0  0  0  0  0
  -31.5284  -13.1191   23.9866 C   0  0  2  0  0  0  0  0  0  0  0  0
  -27.3609  -28.1747   23.5045 C   0  0  0  0  0  0  0  0  0  0  0  0
  -25.8814  -11.6074   20.6008 N   0  0  0  0  0  0  0  0  0  0  0  0
  -26.2638  -12.8830   20.4204 N   0  0  0  0  0  0  0  0  0  0  0  0
  -30.8138  -27.3071   23.0696 N   0  0  0  0  0  0  0  0  0  0  0  0
  -30.0633  -12.5170   20.6177 N   0  0  0  0  0  0  0  0  0  0  0  0
  -25.4484  -15.1053   20.3344 N   0  0  0  0  0  0  0  0  0  0  0  0
  -21.7351  -12.6632   21.1368 N   0  0  0  0  0  0  0  0  0  0  0  0
  -30.3381  -15.1453   24.6765 N   0  0  0  0  0  0  0  0  0  0  0  0
  -32.7747  -28.6438   25.7339 N   0  0  0  0  0  0  0  0  0  0  0  0
  -28.1613  -28.0611   21.1065 N   0  0  0  0  0  0  0  0  0  0  0  0
  -30.6299  -12.8199   22.8939 N   0  0  0  0  0  0  0  0  0  0  0  0
  -28.3943  -26.9561   17.6725 N   0  3  0  0  0  0  0  0  0  0  0  0
  -22.5290  -14.7874   20.7957 O   0  0  0  0  0  0  0  0  0  0  0  0
  -31.4086  -26.7633   25.5920 O   0  0  0  0  0  0  0  0  0  0  0  0
  -29.9824  -29.4701   22.8115 O   0  0  0  0  0  0  0  0  0  0  0  0
  -28.1649  -25.8985   20.2697 O   0  0  0  0  0  0  0  0  0  0  0  0
  -32.2195  -13.0775   21.2618 O   0  0  0  0  0  0  0  0  0  0  0  0
  -21.4934   -7.1265   21.7039 O   0  0  0  0  0  0  0  0  0  0  0  0
  -32.5820  -21.4016   22.8424 O   0  0  0  0  0  0  0  0  0  1  0  0
  -32.0433  -19.6415   24.9285 O   0  0  0  0  0  0  0  0  0  0  0  0
  -23.4500   -3.3972   25.2631 F   0  0  0  0  0  0  0  0  0  0  0  0
  -20.0675   -6.4466   23.9726 F   0  0  0  0  0  0  0  0  0  0  0  0
  1  2  1  0  0  0  0
  1  5  2  0  0  0  0
  2  6  2  0  0  0  0
  3  8  2  0  0  0  0
  3 17  1  0  0  0  0
  4  9  1  0  0  0  0
  4 17  2  0  0  0  0
  5 19  1  0  0  0  0
  6 21  1  0  0  0  0
  7 10  2  0  0  0  0
  7 20  1  0  0  0  0
  8 26  1  0  0  0  0
  9 26  2  0  0  0  0
 10 27  1  0  0  0  0
 11 12  2  0  0  0  0
 11 28  1  0  0  0  0
 12 30  1  0  0  0  0
 13 22  1  0  0  0  0
 13 27  2  0  0  0  0
 14 23  2  0  0  0  0
 14 29  1  0  0  0  0
 15 25  1  0  0  0  0
 15 29  2  0  0  0  0
 16 30  2  0  0  0  0
 16 31  1  0  0  0  0
 17 32  1  0  0  0  0
 18 32  1  0  0  0  0
 18 33  2  0  0  0  0
 18 34  1  0  0  0  0
 19 21  2  0  0  0  0
 19 39  1  0  0  0  0
 20 22  2  0  0  0  0
 20 40  1  0  0  0  0
 21 48  1  0  0  0  0
 22 41  1  0  0  0  0
 23 24  1  0  0  0  0
 23 51  1  0  0  0  0
 24 25  2  0  0  0  0
 24 63  1  0  0  0  0
 25 74  1  0  0  0  0
 26 84  1  0  0  0  0
 27 85  1  0  0  0  0
 28 31  2  0  0  0  0
 28 84  1  0  0  0  0
 29 86  1  0  0  0  0
 30 87  1  0  0  0  0
 31 88  1  0  0  0  0
 32 68  2  0  0  0  0
 33 69  1  0  0  0  0
 33 72  1  0  0  0  0
 34 73  1  0  0  0  0
 34 79  2  0  0  0  0
 35 49  1  0  0  0  0
 35 75  1  0  0  0  0
 35 80  2  0  0  0  0
 36 64  1  0  0  0  0
 36 70  1  0  0  0  0
 36 81  2  0  0  0  0
 37 65  1  0  0  0  0
 37 76  1  0  0  0  0
 37 82  2  0  0  0  0
 38 71  1  0  0  0  0
 38 77  1  0  0  0  0
 38 83  2  0  0  0  0
 39 42  1  0  0  0  0
 40 49  1  0  0  0  0
 41 70  1  0  0  0  0
 42 44  1  0  0  0  0
 43 45  1  0  0  0  0
 43 46  1  0  0  0  0
 44 48  1  0  0  0  0
 45 50  1  0  0  0  0
 46 71  1  0  0  0  0
 47 50  1  0  0  0  0
 47 71  1  0  0  0  0
 48 75  1  0  0  0  0
 49 70  1  0  0  0  0
 50 69  1  0  0  0  0
 52 63  1  0  0  0  0
 53 63  1  0  0  0  0
 54 65  1  0  0  0  0
 55 66  1  0  0  0  0
 56 67  1  0  0  0  0
 57 67  1  0  0  0  0
 58 67  1  0  0  0  0
 59 78  1  0  0  0  0
 60 66  1  0  0  0  0
 60 74  1  0  0  0  0
 61 62  1  0  0  0  0
 61 85  1  0  0  0  0
 62 86  1  0  0  0  0
 64 67  1  0  0  0  0
 64 76  1  0  0  0  0
 65 78  1  0  0  0  0
 66 77  1  0  0  0  0
 68 69  1  0  0  0  0
M  CHG  1  78   1
M  ISO  4  38 100  61 101  77 100  85 101
M  END
> <Batch ID>
0149

> <Smiles>
CNC(C)C(=O)NC(C(=O)N1Cc2cc([101O:1][101CH2:1]COc3cc(C)c(C(C)C)c(NCC(C)[100NH:0][100C:0](=O)N4CCCC(n5nc(-c6ccc(Oc7ccc(F)cc7F)cc6)c(C(N)=O)c5N)C4)c3)ccc2CC1C(=O)NC1CCCc2ccccc21)C(C)(C)C

> <Shape>
0.179

> <Color>
0.188

> <Negative vol penalty>
0.000

$$$$

  -OEChem-04052321383D

 90 99  0     1  0  0  0  0  0999 V2000
  -20.8942  -32.4270   15.9454 C   0  0  0  0  0  0  0  0  0  0  0  0
  -20.6185  -31.1517   15.4628 C   0  0  0  0  0  0  0  0  0  0  0  0
  -23.0191   -9.9721   19.9143 C   0  0  0  0  0  0  0  0  0  0  0  0
  -23.8209   -9.8581   22.1906 C   0  0  0  0  0  0  0  0  0  0  0  0
  -22.2061  -32.8990   15.9547 C   0  0  0  0  0  0  0  0  0  0  0  0
  -21.6544  -30.3480   14.9882 C   0  0  0  0  0  0  0  0  0  0  0  0
  -23.8114  -23.1630   17.1679 C   0  0  0  0  0  0  0  0  0  0  0  0
  -31.6435  -18.5208   20.4256 C   0  0  0  0  0  0  0  0  0  0  0  0
  -22.2656   -8.8168   20.1219 C   0  0  0  0  0  0  0  0  0  0  0  0
  -23.0673   -8.7028   22.3982 C   0  0  0  0  0  0  0  0  0  0  0  0
  -24.3853  -21.9585   17.5750 C   0  0  0  0  0  0  0  0  0  0  0  0
  -31.3888  -19.5972   19.5758 C   0  0  0  0  0  0  0  0  0  0  0  0
  -23.3064   -5.4089   21.6744 C   0  0  0  0  0  0  0  0  0  0  0  0
  -23.9221   -4.3427   22.3299 C   0  0  0  0  0  0  0  0  0  0  0  0
  -26.5408  -22.7005   16.7681 C   0  0  0  0  0  0  0  0  0  0  0  0
  -29.3112  -18.4645   21.0533 C   0  0  0  0  0  0  0  0  0  0  0  0
  -22.2545   -4.4524   24.0747 C   0  0  0  0  0  0  0  0  0  0  0  0
  -23.7968  -10.4927   20.9487 C   0  0  0  0  0  0  0  0  0  0  0  0
  -24.1679  -13.0166   20.9452 C   0  0  0  0  0  0  0  0  0  0  0  0
  -23.2599  -32.0971   15.4889 C   0  0  0  0  0  0  0  0  0  0  0  0
  -24.6040  -24.1483   16.5726 C   0  0  0  0  0  0  0  0  0  0  0  0
  -22.9815  -30.8102   14.9900 C   0  0  0  0  0  0  0  0  0  0  0  0
  -25.9740  -23.9140   16.3696 C   0  0  0  0  0  0  0  0  0  0  0  0
  -30.6047  -17.9544   21.1643 C   0  0  0  0  0  0  0  0  0  0  0  0
  -22.2896   -8.1822   21.3638 C   0  0  0  0  0  0  0  0  0  0  0  0
  -25.7466  -21.7277   17.3753 C   0  0  0  0  0  0  0  0  0  0  0  0
  -30.0953  -20.1073   19.4648 C   0  0  0  0  0  0  0  0  0  0  0  0
  -22.1648   -5.9970   22.2191 C   0  0  0  0  0  0  0  0  0  0  0  0
  -29.0565  -19.5409   20.2036 C   0  0  0  0  0  0  0  0  0  0  0  0
  -23.3962   -3.8644   23.5300 C   0  0  0  0  0  0  0  0  0  0  0  0
  -21.6389   -5.5187   23.4192 C   0  0  0  0  0  0  0  0  0  0  0  0
  -24.5758  -11.6858   20.7347 C   0  0  0  0  0  0  0  0  0  0  0  0
  -25.2625  -13.7702   20.5983 C   0  0  0  0  0  0  0  0  0  0  0  0
  -22.9118  -13.5260   21.4127 C   0  0  0  0  0  0  0  0  0  0  0  0
  -24.7763  -27.5814   15.0693 C   0  0  0  0  0  0  0  0  0  0  0  0
  -27.3002  -27.2288   16.7769 C   0  0  0  0  0  0  0  0  0  0  0  0
  -29.1697  -26.7611   19.2647 C   0  0  0  0  0  0  0  0  0  0  0  0
  -30.7610  -14.7153   20.7323 C   0  0  0  0  0  0  0  0  0  0  0  0
  -24.6556  -32.6685   15.4748 C   0  0  0  0  0  0  0  0  0  0  0  0
  -24.0164  -25.4361   16.0628 C   0  0  0  0  0  0  0  0  0  0  0  0
  -26.7810  -24.9887   15.6938 C   0  0  0  0  0  0  0  0  0  0  0  0
  -25.7444  -31.6126   15.3021 C   0  0  0  0  0  0  0  0  0  0  0  0
  -29.5502  -12.4636   18.2543 C   0  0  0  0  0  0  0  0  0  0  0  0
  -31.0551  -15.2380   26.6689 C   0  0  0  0  0  0  0  0  0  0  0  0
  -32.4078  -15.7734   26.2445 C   0  0  0  0  0  0  0  0  0  0  0  0
  -25.3809  -30.6503   14.1757 C   0  0  0  0  0  0  0  0  0  0  0  0
  -28.1174  -12.1658   18.6995 C   0  0  0  0  0  0  0  0  0  0  0  0
  -30.4919  -12.6148   19.4469 C   0  0  0  0  0  0  0  0  0  0  0  0
  -28.6251  -13.2992   20.9032 C   0  0  0  0  0  0  0  0  0  0  0  0
  -30.1078  -15.9540   25.7303 C   0  0  0  0  0  0  0  0  0  0  0  0
  -32.3319  -15.8071   24.7282 C   0  0  0  0  0  0  0  0  0  0  0  0
  -24.0814  -29.8992   14.4897 C   0  0  1  0  0  0  0  0  0  0  0  0
  -24.9666  -26.6368   16.2195 C   0  0  1  0  0  0  0  0  0  0  0  0
  -27.6275  -13.1937   19.7370 C   0  0  2  0  0  0  0  0  0  0  0  0
  -30.1830  -23.4031   17.8623 C   0  0  0  0  0  0  0  0  0  0  0  0
  -31.2608  -27.1022   20.6094 C   0  0  0  0  0  0  0  0  0  0  0  0
  -28.9012  -26.6348   14.2495 C   0  0  0  0  0  0  0  0  0  0  0  0
  -30.9883  -26.7647   15.6263 C   0  0  0  0  0  0  0  0  0  0  0  0
  -29.5193  -28.7680   15.3992 C   0  0  0  0  0  0  0  0  0  0  0  0
  -27.6495  -27.8033   21.5803 C   0  0  0  0  0  0  0  0  0  0  0  0
  -30.5242  -17.1184   23.5354 C   0  0  0  0  0  0  0  0  0  0  0  0
  -30.5671  -22.3683   18.8983 C   0  0  0  0  0  0  0  0  0  0  0  0
  -25.7109  -19.9099   18.9089 C   0  0  0  0  0  0  0  0  0  1  0  0
  -26.7799  -19.1314   19.6511 C   0  0  0  0  0  0  0  0  0  0  0  0
  -30.8764  -16.8019   22.0709 C   0  0  1  0  0  0  0  0  0  0  0  0
  -28.7517  -26.8229   16.8202 C   0  0  1  0  0  0  0  0  0  0  0  0
  -29.8263  -27.5526   20.3814 C   0  0  2  0  0  0  0  0  0  0  0  0
  -29.5194  -27.2294   15.5307 C   0  0  0  0  0  0  0  0  0  0  0  0
  -25.8315  -11.5959   20.2884 N   0  0  0  0  0  0  0  0  0  0  0  0
  -26.2220  -12.8797   20.2156 N   0  0  0  0  0  0  0  0  0  0  0  0
  -26.4023  -26.3086   16.2223 N   0  0  0  0  0  0  0  0  0  0  0  0
  -29.9705  -13.6051   20.3922 N   0  0  0  0  0  0  0  0  0  0  0  0
  -25.4881  -15.1012   20.5862 N   0  0  0  0  0  0  0  0  0  0  0  0
  -21.8950  -12.6132   21.7244 N   0  0  0  0  0  0  0  0  0  0  0  0
  -24.3292  -28.8355   15.4392 N   0  0  0  0  0  0  0  0  0  0  0  0
  -29.2987  -27.3936   18.0463 N   0  0  0  0  0  0  0  0  0  0  0  0
  -30.1891  -15.6087   21.6297 N   0  0  0  0  0  0  0  0  0  0  0  0
  -30.8543  -15.9550   24.4143 N   0  3  0  0  0  0  0  0  0  0  0  0
  -29.0708  -27.3773   21.6540 N   0  3  0  0  0  0  0  0  0  0  0  0
  -22.6920  -14.7550   21.5343 O   0  0  0  0  0  0  0  0  0  0  0  0
  -25.0184  -27.2020   13.9295 O   0  0  0  0  0  0  0  0  0  0  0  0
  -26.9694  -28.3334   17.2170 O   0  0  0  0  0  0  0  0  0  0  0  0
  -28.6025  -25.6873   19.4538 O   0  0  0  0  0  0  0  0  0  0  0  0
  -31.8906  -14.8995   20.2664 O   0  0  0  0  0  0  0  0  0  0  0  0
  -21.5543   -7.0549   21.5668 O   0  0  0  0  0  0  0  0  0  0  0  0
  -26.3014  -20.5513   17.7791 O   0  0  0  0  0  0  0  0  0  1  0  0
  -29.8598  -21.1590   18.6314 O   0  0  0  0  0  0  0  0  0  0  0  0
  -27.7820  -20.0338   20.1036 O   0  0  0  0  0  0  0  0  0  0  0  0
  -23.9866   -2.8394   24.1585 F   0  0  0  0  0  0  0  0  0  0  0  0
  -20.5417   -6.0787   23.9468 F   0  0  0  0  0  0  0  0  0  0  0  0
  1  2  1  0  0  0  0
  1  5  2  0  0  0  0
  2  6  2  0  0  0  0
  3  9  2  0  0  0  0
  3 18  1  0  0  0  0
  4 10  1  0  0  0  0
  4 18  2  0  0  0  0
  5 20  1  0  0  0  0
  6 22  1  0  0  0  0
  7 11  2  0  0  0  0
  7 21  1  0  0  0  0
  8 12  2  0  0  0  0
  8 24  1  0  0  0  0
  9 25  1  0  0  0  0
 10 25  2  0  0  0  0
 11 26  1  0  0  0  0
 12 27  1  0  0  0  0
 13 14  2  0  0  0  0
 13 28  1  0  0  0  0
 14 30  1  0  0  0  0
 15 23  1  0  0  0  0
 15 26  2  0  0  0  0
 16 24  2  0  0  0  0
 16 29  1  0  0  0  0
 17 30  2  0  0  0  0
 17 31  1  0  0  0  0
 18 32  1  0  0  0  0
 19 32  1  0  0  0  0
 19 33  2  0  0  0  0
 19 34  1  0  0  0  0
 20 22  2  0  0  0  0
 20 39  1  0  0  0  0
 21 23  2  0  0  0  0
 21 40  1  0  0  0  0
 22 52  1  0  0  0  0
 23 41  1  0  0  0  0
 24 65  1  0  0  0  0
 25 85  1  0  0  0  0
 26 86  1  0  0  0  0
 27 29  2  0  0  0  0
 27 87  1  0  0  0  0
 28 31  2  0  0  0  0
 28 85  1  0  0  0  0
 29 88  1  0  0  0  0
 30 89  1  0  0  0  0
 31 90  1  0  0  0  0
 32 69  2  0  0  0  0
 33 70  1  0  0  0  0
 33 73  1  0  0  0  0
 34 74  1  0  0  0  0
 34 80  2  0  0  0  0
 35 53  1  0  0  0  0
 35 75  1  0  0  0  0
 35 81  2  0  0  0  0
 36 66  1  0  0  0  0
 36 71  1  0  0  0  0
 36 82  2  0  0  0  0
 37 67  1  0  0  0  0
 37 76  1  0  0  0  0
 37 83  2  0  0  0  0
 38 72  1  0  0  0  0
 38 77  1  0  0  0  0
 38 84  2  0  0  0  0
 39 42  1  0  0  0  0
 40 53  1  0  0  0  0
 41 71  1  0  0  0  0
 42 46  1  0  0  0  0
 43 47  1  0  0  0  0
 43 48  1  0  0  0  0
 44 45  1  0  0  0  0
 44 50  1  0  0  0  0
 45 51  1  0  0  0  0
 46 52  1  0  0  0  0
 47 54  1  0  0  0  0
 48 72  1  0  0  0  0
 49 54  1  0  0  0  0
 49 72  1  0  0  0  0
 50 78  1  0  0  0  0
 51 78  1  0  0  0  0
 52 75  1  0  0  0  0
 53 71  1  0  0  0  0
 54 70  1  0  0  0  0
 55 62  1  0  0  0  0
 56 67  1  0  0  0  0
 57 68  1  0  0  0  0
 58 68  1  0  0  0  0
 59 68  1  0  0  0  0
 60 79  1  0  0  0  0
 61 65  1  0  0  0  0
 61 78  1  0  0  0  0
 62 87  1  0  0  0  0
 63 64  1  0  0  0  0
 63 86  1  0  0  0  0
 64 88  1  0  0  0  0
 65 77  1  0  0  0  0
 66 68  1  0  0  0  0
 66 76  1  0  0  0  0
 67 79  1  0  0  0  0
 69 70  1  0  0  0  0
M  CHG  2  78   1  79   1
M  ISO  4  38 100  63 101  77 100  86 101
M  END
> <Batch ID>
0149

> <Smiles>
CCOc1ccc(C(CN2CCCC2)[100NH:0][100C:0](=O)N2CCCC(n3nc(-c4ccc(Oc5ccc(F)cc5F)cc4)c(C(N)=O)c3N)C2)cc1OC[101CH2:1][101O:1]c1ccc2c(c1)CN(C(=O)C(NC(=O)C(C)NC)C(C)(C)C)C(C(=O)NC1CCCc3ccccc31)C2

> <Shape>
0.255

> <Color>
0.190

> <Negative vol penalty>
0.000

$$$$

  -OEChem-04052321383D

 82 91  0     1  0  0  0  0  0999 V2000
  -28.1324  -37.3767   23.9360 C   0  0  0  0  0  0  0  0  0  0  0  0
  -28.5744  -36.4640   22.9836 C   0  0  0  0  0  0  0  0  0  0  0  0
  -24.5417  -10.6135   23.3784 C   0  0  0  0  0  0  0  0  0  0  0  0
  -24.3806  -12.4687   24.9177 C   0  0  0  0  0  0  0  0  0  0  0  0
  -27.3655  -36.9398   25.0153 C   0  0  0  0  0  0  0  0  0  0  0  0
  -28.2506  -35.1137   23.1106 C   0  0  0  0  0  0  0  0  0  0  0  0
  -26.8011  -29.3238   19.1491 C   0  0  0  0  0  0  0  0  0  0  0  0
  -24.0975   -9.7466   24.3768 C   0  0  0  0  0  0  0  0  0  0  0  0
  -23.9364  -11.6018   25.9161 C   0  0  0  0  0  0  0  0  0  0  0  0
  -27.1990  -27.9965   18.9958 C   0  0  0  0  0  0  0  0  0  0  0  0
  -21.1542   -8.8905   25.8040 C   0  0  0  0  0  0  0  0  0  0  0  0
  -20.1786   -7.9539   25.4624 C   0  0  0  0  0  0  0  0  0  0  0  0
  -25.8016  -27.3686   20.8592 C   0  0  0  0  0  0  0  0  0  0  0  0
  -28.0835  -22.8679   21.1440 C   0  0  0  0  0  0  0  0  0  0  0  0
  -26.6554  -22.7072   19.2020 C   0  0  0  0  0  0  0  0  0  0  0  0
  -21.6823   -6.1645   26.0739 C   0  0  0  0  0  0  0  0  0  0  0  0
  -24.6833  -11.9746   23.6489 C   0  0  0  0  0  0  0  0  0  0  0  0
  -24.3528  -13.5733   21.6887 C   0  0  0  0  0  0  0  0  0  0  0  0
  -27.0240  -35.5849   25.1504 C   0  0  0  0  0  0  0  0  0  0  0  0
  -25.9073  -29.6859   20.1672 C   0  0  0  0  0  0  0  0  0  0  0  0
  -27.4795  -34.6580   24.1934 C   0  0  0  0  0  0  0  0  0  0  0  0
  -25.3919  -28.7008   21.0217 C   0  0  0  0  0  0  0  0  0  0  0  0
  -28.1592  -20.8970   19.7487 C   0  0  0  0  0  0  0  0  0  0  0  0
  -27.1062  -23.4177   20.3144 C   0  0  0  0  0  0  0  0  0  0  0  0
  -28.6100  -21.6075   20.8611 C   0  0  0  0  0  0  0  0  0  0  0  0
  -27.1819  -21.4468   18.9191 C   0  0  0  0  0  0  0  0  0  0  0  0
  -23.7948  -10.2407   25.6456 C   0  0  0  0  0  0  0  0  0  0  0  0
  -26.7016  -27.0191   19.8527 C   0  0  0  0  0  0  0  0  0  0  0  0
  -22.3939   -8.4641   26.2805 C   0  0  0  0  0  0  0  0  0  0  0  0
  -20.4427   -6.5909   25.5974 C   0  0  0  0  0  0  0  0  0  0  0  0
  -22.6579   -7.1011   26.4155 C   0  0  0  0  0  0  0  0  0  0  0  0
  -25.1427  -12.8705   22.6181 C   0  0  0  0  0  0  0  0  0  0  0  0
  -25.2573  -14.2792   20.9337 C   0  0  0  0  0  0  0  0  0  0  0  0
  -22.9287  -13.5869   21.5226 C   0  0  0  0  0  0  0  0  0  0  0  0
  -29.8021  -17.5325   20.6570 C   0  0  0  0  0  0  0  0  0  0  0  0
  -26.0539  -31.5895   22.7085 C   0  0  0  0  0  0  0  0  0  0  0  0
  -22.8980  -30.8759   22.9396 C   0  0  0  0  0  0  0  0  0  0  0  0
  -20.3564  -28.7142   22.2225 C   0  0  0  0  0  0  0  0  0  0  0  0
  -26.2327  -35.1528   26.3594 C   0  0  0  0  0  0  0  0  0  0  0  0
  -25.4672  -31.1178   20.3025 C   0  0  0  0  0  0  0  0  0  0  0  0
  -24.4142  -29.0344   22.1178 C   0  0  0  0  0  0  0  0  0  0  0  0
  -25.6175  -33.7627   26.2198 C   0  0  0  0  0  0  0  0  0  0  0  0
  -30.2924  -13.9771   20.6753 C   0  0  0  0  0  0  0  0  0  0  0  0
  -26.6469  -32.7752   25.6792 C   0  0  0  0  0  0  0  0  0  0  0  0
  -28.9416  -13.4320   21.1374 C   0  0  0  0  0  0  0  0  0  0  0  0
  -27.7845  -18.3835   19.2830 C   0  0  0  0  0  0  0  0  0  0  0  0
  -30.6211  -15.3031   21.3540 C   0  0  0  0  0  0  0  0  0  0  0  0
  -28.2141  -15.8071   21.6425 C   0  0  0  0  0  0  0  0  0  0  0  0
  -28.7238  -19.5456   19.4454 C   0  0  2  0  0  0  0  0  0  0  0  0
  -27.1280  -33.1889   24.2831 C   0  0  1  0  0  0  0  0  0  0  0  0
  -28.6500  -18.4727   20.5060 C   0  0  2  0  0  0  0  0  0  0  0  0
  -24.9504  -31.4548   21.6977 C   0  0  1  0  0  0  0  0  0  0  0  0
  -27.8314  -14.4828   20.9587 C   0  0  2  0  0  0  0  0  0  0  0  0
  -29.6556  -21.0429   21.7666 C   0  0  0  0  0  0  0  0  0  0  0  0
  -26.6808  -20.7082   17.7211 C   0  0  0  0  0  0  0  0  0  0  0  0
  -17.8944  -28.3816   22.5762 C   0  0  0  0  0  0  0  0  0  0  0  0
  -23.4293  -30.0259   25.8215 C   0  0  0  0  0  0  0  0  0  0  0  0
  -21.2213  -28.8457   25.8070 C   0  0  0  0  0  0  0  0  0  0  0  0
  -21.3142  -31.3180   25.4880 C   0  0  0  0  0  0  0  0  0  0  0  0
  -19.8133  -28.7690   19.3137 C   0  0  0  0  0  0  0  0  0  0  0  0
  -26.5399  -24.7734   20.6187 C   0  0  0  0  0  0  0  0  0  1  0  0
  -22.0931  -29.7977   23.6241 C   0  0  1  0  0  0  0  0  0  0  0  0
  -18.9668  -28.9454   21.6570 C   0  0  2  0  0  0  0  0  0  0  0  0
  -22.0344  -29.9905   25.1658 C   0  0  0  0  0  0  0  0  0  0  0  0
  -26.4485  -13.1081   22.4691 N   0  0  0  0  0  0  0  0  0  0  0  0
  -26.4862  -13.9682   21.4371 N   0  0  0  0  0  0  0  0  0  0  0  0
  -29.5323  -16.2659   21.1852 N   0  0  0  0  0  0  0  0  0  0  0  0
  -24.0192  -30.4494   22.2137 N   0  0  0  0  0  0  0  0  0  0  0  0
  -25.1135  -15.1294   19.8950 N   0  0  0  0  0  0  0  0  0  0  0  0
  -22.1481  -12.8037   22.3837 N   0  0  0  0  0  0  0  0  0  0  0  0
  -26.1393  -32.8426   23.2846 N   0  0  0  0  0  0  0  0  0  0  0  0
  -20.7875  -29.7875   22.9731 N   0  0  0  0  0  0  0  0  0  0  0  0
  -18.8345  -28.2917   20.3243 N   0  3  0  0  0  0  0  0  0  0  0  0
  -22.3663  -14.2605   20.6262 O   0  0  0  0  0  0  0  0  0  0  0  0
  -30.9128  -17.9243   20.3089 O   0  0  0  0  0  0  0  0  0  0  0  0
  -26.7737  -30.6274   22.9491 O   0  0  0  0  0  0  0  0  0  0  0  0
  -22.5410  -32.0524   23.0392 O   0  0  0  0  0  0  0  0  0  0  0  0
  -20.9942  -27.6829   22.0218 O   0  0  0  0  0  0  0  0  0  0  0  0
  -23.3611   -9.3952   26.6200 O   0  0  0  0  0  0  0  0  0  0  0  0
  -27.0889  -25.7228   19.7057 O   0  0  0  0  0  0  0  0  0  1  0  0
  -19.5052   -5.6917   25.2707 F   0  0  0  0  0  0  0  0  0  0  0  0
  -23.8466   -6.6855   26.8739 F   0  0  0  0  0  0  0  0  0  0  0  0
  1  2  1  0  0  0  0
  1  5  2  0  0  0  0
  2  6  2  0  0  0  0
  3  8  2  0  0  0  0
  3 17  1  0  0  0  0
  4  9  1  0  0  0  0
  4 17  2  0  0  0  0
  5 19  1  0  0  0  0
  6 21  1  0  0  0  0
  7 10  2  0  0  0  0
  7 20  1  0  0  0  0
  8 27  1  0  0  0  0
  9 27  2  0  0  0  0
 10 28  1  0  0  0  0
 11 12  2  0  0  0  0
 11 29  1  0  0  0  0
 12 30  1  0  0  0  0
 13 22  1  0  0  0  0
 13 28  2  0  0  0  0
 14 24  1  0  0  0  0
 14 25  2  0  0  0  0
 15 24  2  0  0  0  0
 15 26  1  0  0  0  0
 16 30  2  0  0  0  0
 16 31  1  0  0  0  0
 17 32  1  0  0  0  0
 18 32  1  0  0  0  0
 18 33  2  0  0  0  0
 18 34  1  0  0  0  0
 19 21  2  0  0  0  0
 19 39  1  0  0  0  0
 20 22  2  0  0  0  0
 20 40  1  0  0  0  0
 21 50  1  0  0  0  0
 22 41  1  0  0  0  0
 23 25  1  0  0  0  0
 23 26  2  0  0  0  0
 23 49  1  0  0  0  0
 24 61  1  0  0  0  0
 25 54  1  0  0  0  0
 26 55  1  0  0  0  0
 27 79  1  0  0  0  0
 28 80  1  0  0  0  0
 29 31  2  0  0  0  0
 29 79  1  0  0  0  0
 30 81  1  0  0  0  0
 31 82  1  0  0  0  0
 32 65  2  0  0  0  0
 33 66  1  0  0  0  0
 33 69  1  0  0  0  0
 34 70  1  0  0  0  0
 34 74  2  0  0  0  0
 35 51  1  0  0  0  0
 35 67  1  0  0  0  0
 35 75  2  0  0  0  0
 36 52  1  0  0  0  0
 36 71  1  0  0  0  0
 36 76  2  0  0  0  0
 37 62  1  0  0  0  0
 37 68  1  0  0  0  0
 37 77  2  0  0  0  0
 38 63  1  0  0  0  0
 38 72  1  0  0  0  0
 38 78  2  0  0  0  0
 39 42  1  0  0  0  0
 40 52  1  0  0  0  0
 41 68  1  0  0  0  0
 42 44  1  0  0  0  0
 43 45  1  0  0  0  0
 43 47  1  0  0  0  0
 44 50  1  0  0  0  0
 45 53  1  0  0  0  0
 46 49  1  0  0  0  0
 46 51  1  0  0  0  0
 47 67  1  0  0  0  0
 48 53  1  0  0  0  0
 48 67  1  0  0  0  0
 49 51  1  0  0  0  0
 50 71  1  0  0  0  0
 52 68  1  0  0  0  0
 53 66  1  0  0  0  0
 56 63  1  0  0  0  0
 57 64  1  0  0  0  0
 58 64  1  0  0  0  0
 59 64  1  0  0  0  0
 60 73  1  0  0  0  0
 61 80  1  0  0  0  0
 62 64  1  0  0  0  0
 62 72  1  0  0  0  0
 63 73  1  0  0  0  0
 65 66  1  0  0  0  0
M  CHG  1  73   1
M  ISO  4  35 100  51 100  61 101  80 101
M  END
> <Batch ID>
0149

> <Smiles>
CNC(C)C(=O)NC(C(=O)N1Cc2cc([101O:1][101CH2:1]c3cc(C)c(C4C[100CH:0]4[100C:0](=O)N4CCCC(n5nc(-c6ccc(Oc7ccc(F)cc7F)cc6)c(C(N)=O)c5N)C4)c(C)c3)ccc2CC1C(=O)NC1CCCc2ccccc21)C(C)(C)C

> <Shape>
0.294

> <Color>
0.138

> <Negative vol penalty>
0.000

$$$$
