
  -OEChem-04052321413D

 90100  0     1  0  0  0  0  0999 V2000
  -19.6612  -24.0271   24.6508 C   0  0  0  0  0  0  0  0  0  0  0  0
  -20.9482  -23.9988   24.1231 C   0  0  0  0  0  0  0  0  0  0  0  0
  -25.9702  -13.2567   22.2066 C   0  0  0  0  0  0  0  0  0  0  0  0
  -26.3808  -13.9624   19.9328 C   0  0  0  0  0  0  0  0  0  0  0  0
  -18.8314  -25.1198   24.4030 C   0  0  0  0  0  0  0  0  0  0  0  0
  -21.4056  -25.0627   23.3464 C   0  0  0  0  0  0  0  0  0  0  0  0
  -27.1190  -27.2545   23.1041 C   0  0  0  0  0  0  0  0  0  0  0  0
  -32.6009  -26.9039   19.8200 C   0  0  0  0  0  0  0  0  0  0  0  0
  -33.6144  -26.8724   18.8622 C   0  0  0  0  0  0  0  0  0  0  0  0
  -24.8021  -12.6143   21.7963 C   0  0  0  0  0  0  0  0  0  0  0  0
  -25.2127  -13.3200   19.5224 C   0  0  0  0  0  0  0  0  0  0  0  0
  -28.1651  -27.0491   22.2056 C   0  0  0  0  0  0  0  0  0  0  0  0
  -23.9568   -9.7186   20.2689 C   0  0  0  0  0  0  0  0  0  0  0  0
  -23.7201   -8.4321   20.7532 C   0  0  0  0  0  0  0  0  0  0  0  0
  -27.5386  -29.0581   21.0263 C   0  0  0  0  0  0  0  0  0  0  0  0
  -31.0025  -26.1969   18.1519 C   0  0  0  0  0  0  0  0  0  0  0  0
  -21.6653   -9.1932   21.7708 C   0  0  0  0  0  0  0  0  0  0  0  0
  -26.7596  -13.9309   21.2749 C   0  0  0  0  0  0  0  0  0  0  0  0
  -29.2610  -14.0467   21.7617 C   0  0  0  0  0  0  0  0  0  0  0  0
  -19.2822  -26.2020   23.6308 C   0  0  0  0  0  0  0  0  0  0  0  0
  -26.2667  -28.3591   22.9637 C   0  0  0  0  0  0  0  0  0  0  0  0
  -20.5805  -26.1702   23.0869 C   0  0  0  0  0  0  0  0  0  0  0  0
  -26.4840  -29.2766   21.9259 C   0  0  0  0  0  0  0  0  0  0  0  0
  -31.2949  -26.5660   19.4649 C   0  0  0  0  0  0  0  0  0  0  0  0
  -33.3220  -26.5033   17.5493 C   0  0  0  0  0  0  0  0  0  0  0  0
  -32.0160  -26.1655   17.1941 C   0  0  0  0  0  0  0  0  0  0  0  0
  -24.4233  -12.6459   20.4542 C   0  0  0  0  0  0  0  0  0  0  0  0
  -28.3733  -27.9494   21.1648 C   0  0  0  0  0  0  0  0  0  0  0  0
  -23.0477  -10.7424   20.5356 C   0  0  0  0  0  0  0  0  0  0  0  0
  -22.5744   -8.1694   21.5041 C   0  0  0  0  0  0  0  0  0  0  0  0
  -21.9020  -10.4797   21.2865 C   0  0  0  0  0  0  0  0  0  0  0  0
  -27.9660  -14.5952   21.6982 C   0  0  0  0  0  0  0  0  0  0  0  0
  -30.0471  -15.0747   22.2218 C   0  0  0  0  0  0  0  0  0  0  0  0
  -29.7129  -12.7261   21.4339 C   0  0  0  0  0  0  0  0  0  0  0  0
  -23.1554  -28.7390   22.4355 C   0  0  0  0  0  0  0  0  0  0  0  0
  -23.8529  -31.8704   22.9149 C   0  0  0  0  0  0  0  0  0  0  0  0
  -26.1907  -34.3564   22.8784 C   0  0  0  0  0  0  0  0  0  0  0  0
  -28.9414  -21.1004   21.9713 C   0  0  0  0  0  0  0  0  0  0  0  0
  -18.3324  -27.3395   23.3507 C   0  0  0  0  0  0  0  0  0  0  0  0
  -25.1593  -28.5810   23.9571 C   0  0  0  0  0  0  0  0  0  0  0  0
  -25.6097  -30.4894   21.7436 C   0  0  0  0  0  0  0  0  0  0  0  0
  -19.0243  -28.5965   22.8296 C   0  0  0  0  0  0  0  0  0  0  0  0
  -29.8775  -19.0275   24.8983 C   0  0  0  0  0  0  0  0  0  0  0  0
  -20.0192  -28.2409   21.7294 C   0  0  0  0  0  0  0  0  0  0  0  0
  -31.2828  -23.7175   14.2156 C   0  0  0  0  0  0  0  0  0  0  0  0
  -29.5256  -17.6168   24.4297 C   0  0  0  0  0  0  0  0  0  0  0  0
  -30.7941  -22.4761   14.9923 C   0  0  0  0  0  0  0  0  0  0  0  0
  -29.2360  -22.7295   18.9224 C   0  0  0  0  0  0  0  0  0  0  0  0
  -30.9242  -20.8557   19.0694 C   0  0  0  0  0  0  0  0  0  0  0  0
  -29.0108  -20.0829   24.2188 C   0  0  0  0  0  0  0  0  0  0  0  0
  -28.2589  -21.8674   19.7172 C   0  0  0  0  0  0  0  0  0  0  0  0
  -29.9195  -20.0385   19.8870 C   0  0  0  0  0  0  0  0  0  0  0  0
  -28.6867  -18.6047   22.2613 C   0  0  0  0  0  0  0  0  0  0  0  0
  -21.1216  -27.3164   22.2601 C   0  0  1  0  0  0  0  0  0  0  0  0
  -24.0373  -29.4609   23.4146 C   0  0  1  0  0  0  0  0  0  0  0  0
  -31.8083  -24.2691   15.5671 C   0  0  2  0  0  0  0  0  0  0  0  0
  -29.5731  -17.5219   22.8950 C   0  0  2  0  0  0  0  0  0  0  0  0
  -30.7349  -23.3753   16.2470 C   0  0  2  0  0  0  0  0  0  0  0  0
  -30.2106  -21.8435   18.1489 C   0  0  0  0  0  0  0  0  0  0  0  0
  -34.4234  -26.4781   16.5409 C   0  0  0  0  0  0  0  0  0  0  0  0
  -26.4536  -36.8194   23.2811 C   0  0  0  0  0  0  0  0  0  0  0  0
  -22.5202  -32.4489   20.2318 C   0  0  0  0  0  0  0  0  0  0  0  0
  -23.6302  -34.6930   20.2432 C   0  0  0  0  0  0  0  0  0  0  0  0
  -21.9975  -34.1020   22.0342 C   0  0  0  0  0  0  0  0  0  0  0  0
  -28.1325  -33.9092   25.0666 C   0  0  0  0  0  0  0  0  0  0  0  0
  -31.6759  -25.7636   15.7807 C   0  0  0  0  0  0  0  0  0  0  0  0
  -30.2114  -26.6002   20.4890 C   0  0  0  0  0  0  0  0  0  1  0  0
  -24.2814  -33.0176   22.0320 C   0  0  1  0  0  0  0  0  0  0  0  0
  -26.5351  -35.4302   23.8946 C   0  0  2  0  0  0  0  0  0  0  0  0
  -23.1228  -33.5416   21.1373 C   0  0  0  0  0  0  0  0  0  0  0  0
  -27.9274  -15.8724   22.0871 N   0  0  0  0  0  0  0  0  0  0  0  0
  -29.2078  -16.1350   22.3994 N   0  0  0  0  0  0  0  0  0  0  0  0
  -24.5363  -30.6592   22.7368 N   0  0  0  0  0  0  0  0  0  0  0  0
  -29.0340  -19.9432   22.7627 N   0  0  0  0  0  0  0  0  0  0  0  0
  -28.9700  -20.9219   20.5799 N   0  0  0  0  0  0  0  0  0  0  0  0
  -31.3674  -15.1661   22.4879 N   0  0  0  0  0  0  0  0  0  0  0  0
  -28.7732  -11.7929   20.9754 N   0  0  0  0  0  0  0  0  0  0  0  0
  -22.0942  -28.0734   23.0188 N   0  0  0  0  0  0  0  0  0  0  0  0
  -24.8531  -34.0244   22.9197 N   0  0  0  0  0  0  0  0  0  0  0  0
  -31.2221  -22.7028   17.4810 N   0  3  0  0  0  0  0  0  0  0  0  0
  -27.9167  -35.2267   24.4152 N   0  3  0  0  0  0  0  0  0  0  0  0
  -30.9117  -12.3789   21.5600 O   0  0  0  0  0  0  0  0  0  0  0  0
  -23.4174  -28.7838   21.2392 O   0  0  0  0  0  0  0  0  0  0  0  0
  -22.9502  -32.0446   23.7373 O   0  0  0  0  0  0  0  0  0  0  0  0
  -27.0241  -33.8643   22.1209 O   0  0  0  0  0  0  0  0  0  0  0  0
  -28.8414  -22.2245   22.4789 O   0  0  0  0  0  0  0  0  0  0  0  0
  -23.2837  -12.0189   20.0534 O   0  0  0  0  0  0  0  0  0  0  0  0
  -29.4002  -27.7497   20.2800 O   0  0  0  0  0  0  0  0  0  1  0  0
  -22.3465   -6.9336   21.9678 F   0  0  0  0  0  0  0  0  0  0  0  0
  -21.0244  -11.4589   21.5450 F   0  0  0  0  0  0  0  0  0  0  0  0
  1  2  1  0  0  0  0
  1  5  2  0  0  0  0
  2  6  2  0  0  0  0
  3 10  2  0  0  0  0
  3 18  1  0  0  0  0
  4 11  1  0  0  0  0
  4 18  2  0  0  0  0
  5 20  1  0  0  0  0
  6 22  1  0  0  0  0
  7 12  2  0  0  0  0
  7 21  1  0  0  0  0
  8  9  2  0  0  0  0
  8 24  1  0  0  0  0
  9 25  1  0  0  0  0
 10 27  1  0  0  0  0
 11 27  2  0  0  0  0
 12 28  1  0  0  0  0
 13 14  2  0  0  0  0
 13 29  1  0  0  0  0
 14 30  1  0  0  0  0
 15 23  1  0  0  0  0
 15 28  2  0  0  0  0
 16 24  2  0  0  0  0
 16 26  1  0  0  0  0
 17 30  2  0  0  0  0
 17 31  1  0  0  0  0
 18 32  1  0  0  0  0
 19 32  1  0  0  0  0
 19 33  2  0  0  0  0
 19 34  1  0  0  0  0
 20 22  2  0  0  0  0
 20 39  1  0  0  0  0
 21 23  2  0  0  0  0
 21 40  1  0  0  0  0
 22 54  1  0  0  0  0
 23 41  1  0  0  0  0
 24 67  1  0  0  0  0
 25 26  2  0  0  0  0
 25 60  1  0  0  0  0
 26 66  1  0  0  0  0
 27 87  1  0  0  0  0
 28 88  1  0  0  0  0
 29 31  2  0  0  0  0
 29 87  1  0  0  0  0
 30 89  1  0  0  0  0
 31 90  1  0  0  0  0
 32 71  2  0  0  0  0
 33 72  1  0  0  0  0
 33 76  1  0  0  0  0
 34 77  1  0  0  0  0
 34 82  2  0  0  0  0
 35 55  1  0  0  0  0
 35 78  1  0  0  0  0
 35 83  2  0  0  0  0
 36 68  1  0  0  0  0
 36 73  1  0  0  0  0
 36 84  2  0  0  0  0
 37 69  1  0  0  0  0
 37 79  1  0  0  0  0
 37 85  2  0  0  0  0
 38 74  1  0  0  0  0
 38 75  1  0  0  0  0
 38 86  2  0  0  0  0
 39 42  1  0  0  0  0
 40 55  1  0  0  0  0
 41 73  1  0  0  0  0
 42 44  1  0  0  0  0
 43 46  1  0  0  0  0
 43 50  1  0  0  0  0
 44 54  1  0  0  0  0
 45 47  1  0  0  0  0
 45 56  1  0  0  0  0
 46 57  1  0  0  0  0
 47 58  1  0  0  0  0
 48 51  1  0  0  0  0
 48 59  1  0  0  0  0
 49 52  1  0  0  0  0
 49 59  1  0  0  0  0
 50 74  1  0  0  0  0
 51 75  1  0  0  0  0
 52 75  1  0  0  0  0
 53 57  1  0  0  0  0
 53 74  1  0  0  0  0
 54 78  1  0  0  0  0
 55 73  1  0  0  0  0
 56 58  1  0  0  0  0
 56 66  1  0  0  0  0
 57 72  1  0  0  0  0
 58 80  1  0  0  0  0
 59 80  1  0  0  0  0
 61 69  1  0  0  0  0
 62 70  1  0  0  0  0
 63 70  1  0  0  0  0
 64 70  1  0  0  0  0
 65 81  1  0  0  0  0
 67 88  1  0  0  0  0
 68 70  1  0  0  0  0
 68 79  1  0  0  0  0
 69 81  1  0  0  0  0
 71 72  1  0  0  0  0
M  CHG  2  80   1  81   1
M  ISO  4  38 100  67 101  75 100  88 101
M  END
> <Batch ID>
0150

> <Smiles>
CNC(C)C(=O)NC(C(=O)N1Cc2cc([101O:1][101CH2:1]c3ccc(C)c(CC4CCC4NC4CC[100N:0]([100C:0](=O)N5CCCC(n6nc(-c7ccc(Oc8ccc(F)cc8F)cc7)c(C(N)=O)c6N)C5)CC4)c3)ccc2CC1C(=O)NC1CCCc2ccccc21)C(C)(C)C

> <Shape>
0.305

> <Color>
0.064

> <Negative vol penalty>
0.000

$$$$

  -OEChem-04052321413D

 87 96  0     1  0  0  0  0  0999 V2000
  -20.8729  -33.9356   17.3610 C   0  0  0  0  0  0  0  0  0  0  0  0
  -20.6158  -32.5686   17.3848 C   0  0  0  0  0  0  0  0  0  0  0  0
  -22.7342  -10.3258   20.1271 C   0  0  0  0  0  0  0  0  0  0  0  0
  -23.7045  -10.0684   22.3247 C   0  0  0  0  0  0  0  0  0  0  0  0
  -21.9993  -34.4432   18.0071 C   0  0  0  0  0  0  0  0  0  0  0  0
  -21.4856  -31.7082   18.0537 C   0  0  0  0  0  0  0  0  0  0  0  0
  -21.5122  -25.6117   21.8152 C   0  0  0  0  0  0  0  0  0  0  0  0
  -21.8756   -9.2563   20.3809 C   0  0  0  0  0  0  0  0  0  0  0  0
  -22.8458   -8.9988   22.5785 C   0  0  0  0  0  0  0  0  0  0  0  0
  -22.1474  -24.3712   21.8513 C   0  0  0  0  0  0  0  0  0  0  0  0
  -22.6525   -5.7173   21.7878 C   0  0  0  0  0  0  0  0  0  0  0  0
  -23.1969   -4.5738   22.3723 C   0  0  0  0  0  0  0  0  0  0  0  0
  -24.0193  -25.3699   22.9993 C   0  0  0  0  0  0  0  0  0  0  0  0
  -26.4501  -18.8251   23.6782 C   0  0  0  0  0  0  0  0  0  0  0  0
  -27.0536  -19.2648   21.3805 C   0  0  0  0  0  0  0  0  0  0  0  0
  -21.7030   -4.8247   24.2544 C   0  0  0  0  0  0  0  0  0  0  0  0
  -23.6487  -10.7319   21.0990 C   0  0  0  0  0  0  0  0  0  0  0  0
  -24.2993  -13.1985   21.1017 C   0  0  0  0  0  0  0  0  0  0  0  0
  -22.8782  -33.5897   18.6925 C   0  0  0  0  0  0  0  0  0  0  0  0
  -22.1315  -26.7448   22.3621 C   0  0  0  0  0  0  0  0  0  0  0  0
  -22.6256  -32.2047   18.7085 C   0  0  0  0  0  0  0  0  0  0  0  0
  -23.3887  -26.6232   22.9711 C   0  0  0  0  0  0  0  0  0  0  0  0
  -28.2921  -17.6354   22.6643 C   0  0  0  0  0  0  0  0  0  0  0  0
  -27.4769  -17.8854   23.7681 C   0  0  0  0  0  0  0  0  0  0  0  0
  -26.2384  -19.5148   22.4843 C   0  0  0  0  0  0  0  0  0  0  0  0
  -21.9314   -8.5928   21.6066 C   0  0  0  0  0  0  0  0  0  0  0  0
  -23.4024  -24.2507   22.4408 C   0  0  0  0  0  0  0  0  0  0  0  0
  -21.6334   -6.4146   22.4366 C   0  0  0  0  0  0  0  0  0  0  0  0
  -28.0805  -18.3251   21.4704 C   0  0  0  0  0  0  0  0  0  0  0  0
  -22.7221   -4.1275   23.6056 C   0  0  0  0  0  0  0  0  0  0  0  0
  -21.1587   -5.9683   23.6699 C   0  0  0  0  0  0  0  0  0  0  0  0
  -24.5363  -11.8363   20.8373 C   0  0  0  0  0  0  0  0  0  0  0  0
  -25.4390  -13.8346   20.6740 C   0  0  0  0  0  0  0  0  0  0  0  0
  -23.1516  -13.8322   21.6822 C   0  0  0  0  0  0  0  0  0  0  0  0
  -23.1367  -29.5297   21.2056 C   0  0  0  0  0  0  0  0  0  0  0  0
  -23.6949  -30.1839   24.3334 C   0  0  0  0  0  0  0  0  0  0  0  0
  -24.3066  -29.0024   27.4761 C   0  0  0  0  0  0  0  0  0  0  0  0
  -31.0530  -13.9604   20.6745 C   0  0  0  0  0  0  0  0  0  0  0  0
  -24.1083  -34.1792   19.3360 C   0  0  0  0  0  0  0  0  0  0  0  0
  -21.4214  -28.0705   22.3389 C   0  0  0  0  0  0  0  0  0  0  0  0
  -24.0874  -27.8049   23.5905 C   0  0  0  0  0  0  0  0  0  0  0  0
  -24.7782  -33.2442   20.3396 C   0  0  0  0  0  0  0  0  0  0  0  0
  -29.3647  -12.1438   17.9643 C   0  0  0  0  0  0  0  0  0  0  0  0
  -24.9092  -31.8407   19.7566 C   0  0  0  0  0  0  0  0  0  0  0  0
  -27.9478  -11.9727   18.5181 C   0  0  0  0  0  0  0  0  0  0  0  0
  -30.8294  -17.1161   22.4635 C   0  0  0  0  0  0  0  0  0  0  0  0
  -30.4136  -12.1901   19.0739 C   0  0  0  0  0  0  0  0  0  0  0  0
  -31.6052  -15.8339   22.2071 C   0  0  0  0  0  0  0  0  0  0  0  0
  -29.2799  -15.4417   21.7726 C   0  0  0  0  0  0  0  0  0  0  0  0
  -28.7310  -12.9849   20.6877 C   0  0  0  0  0  0  0  0  0  0  0  0
  -29.4076  -16.6170   22.7561 C   0  0  2  0  0  0  0  0  0  0  0  0
  -23.5322  -31.2422   19.4445 C   0  0  1  0  0  0  0  0  0  0  0  0
  -22.3695  -29.2586   22.4688 C   0  0  1  0  0  0  0  0  0  0  0  0
  -27.6434  -13.0211   19.6061 C   0  0  2  0  0  0  0  0  0  0  0  0
  -27.6831  -17.1601   25.0575 C   0  0  0  0  0  0  0  0  0  0  0  0
  -24.7569  -29.7788   29.8195 C   0  0  0  0  0  0  0  0  0  0  0  0
  -26.5536  -30.9011   23.5440 C   0  0  0  0  0  0  0  0  0  0  0  0
  -27.1874  -30.7397   25.9607 C   0  0  0  0  0  0  0  0  0  0  0  0
  -25.5176  -32.4393   25.2218 C   0  0  0  0  0  0  0  0  0  0  0  0
  -21.8787  -27.6626   28.5102 C   0  0  0  0  0  0  0  0  0  0  0  0
  -28.5786  -18.8444   19.2037 C   0  0  0  0  0  0  0  0  0  0  0  0
  -24.9284  -21.2067   21.2010 C   0  0  0  0  0  0  0  0  0  0  0  0
  -23.7425  -22.1326   21.4143 C   0  0  0  0  0  0  0  0  0  1  0  0
  -24.8619  -29.9981   25.2728 C   0  0  1  0  0  0  0  0  0  0  0  0
  -23.6933  -29.3508   28.8203 C   0  0  2  0  0  0  0  0  0  0  0  0
  -26.0181  -30.9974   24.9865 C   0  0  0  0  0  0  0  0  0  0  0  0
  -25.7325  -11.6189   20.2842 N   0  0  0  0  0  0  0  0  0  0  0  0
  -26.2573  -12.8530   20.1976 N   0  0  0  0  0  0  0  0  0  0  0  0
  -23.3551  -29.0810   23.5372 N   0  0  0  0  0  0  0  0  0  0  0  0
  -30.0527  -13.1808   20.0860 N   0  0  0  0  0  0  0  0  0  0  0  0
  -30.6418  -14.9325   21.5899 N   0  0  0  0  0  0  0  0  0  0  0  0
  -25.8109  -15.1323   20.6626 N   0  0  0  0  0  0  0  0  0  0  0  0
  -22.0681  -13.0302   22.0658 N   0  0  0  0  0  0  0  0  0  0  0  0
  -25.2001  -20.4650   22.3932 N   0  0  0  0  0  0  0  0  0  0  0  0
  -22.8971  -30.7757   20.6583 N   0  0  0  0  0  0  0  0  0  0  0  0
  -24.3170  -30.0857   26.6232 N   0  0  0  0  0  0  0  0  0  0  0  0
  -22.9691  -28.1746   29.3797 N   0  3  0  0  0  0  0  0  0  0  0  0
  -23.0821  -15.0746   21.8405 O   0  0  0  0  0  0  0  0  0  0  0  0
  -23.8914  -28.6725   20.7613 O   0  0  0  0  0  0  0  0  0  0  0  0
  -23.1020  -31.2654   24.3122 O   0  0  0  0  0  0  0  0  0  0  0  0
  -24.7371  -27.8822   27.2106 O   0  0  0  0  0  0  0  0  0  0  0  0
  -32.2413  -13.8289   20.3555 O   0  0  0  0  0  0  0  0  0  0  0  0
  -21.0935   -7.5492   21.8546 O   0  0  0  0  0  0  0  0  0  0  0  0
  -28.8668  -18.0941   20.3816 O   0  0  0  0  0  0  0  0  0  0  0  0
  -24.0293  -23.0327   22.4771 O   0  0  0  0  0  0  0  0  0  1  0  0
  -23.2439   -3.0285   24.1660 F   0  0  0  0  0  0  0  0  0  0  0  0
  -20.1790   -6.6333   24.2974 F   0  0  0  0  0  0  0  0  0  0  0  0
  1  2  1  0  0  0  0
  1  5  2  0  0  0  0
  2  6  2  0  0  0  0
  3  8  2  0  0  0  0
  3 17  1  0  0  0  0
  4  9  1  0  0  0  0
  4 17  2  0  0  0  0
  5 19  1  0  0  0  0
  6 21  1  0  0  0  0
  7 10  2  0  0  0  0
  7 20  1  0  0  0  0
  8 26  1  0  0  0  0
  9 26  2  0  0  0  0
 10 27  1  0  0  0  0
 11 12  2  0  0  0  0
 11 28  1  0  0  0  0
 12 30  1  0  0  0  0
 13 22  1  0  0  0  0
 13 27  2  0  0  0  0
 14 24  2  0  0  0  0
 14 25  1  0  0  0  0
 15 25  2  0  0  0  0
 15 29  1  0  0  0  0
 16 30  2  0  0  0  0
 16 31  1  0  0  0  0
 17 32  1  0  0  0  0
 18 32  1  0  0  0  0
 18 33  2  0  0  0  0
 18 34  1  0  0  0  0
 19 21  2  0  0  0  0
 19 39  1  0  0  0  0
 20 22  2  0  0  0  0
 20 40  1  0  0  0  0
 21 52  1  0  0  0  0
 22 41  1  0  0  0  0
 23 24  1  0  0  0  0
 23 29  2  0  0  0  0
 23 51  1  0  0  0  0
 24 55  1  0  0  0  0
 25 74  1  0  0  0  0
 26 83  1  0  0  0  0
 27 85  1  0  0  0  0
 28 31  2  0  0  0  0
 28 83  1  0  0  0  0
 29 84  1  0  0  0  0
 30 86  1  0  0  0  0
 31 87  1  0  0  0  0
 32 67  2  0  0  0  0
 33 68  1  0  0  0  0
 33 72  1  0  0  0  0
 34 73  1  0  0  0  0
 34 78  2  0  0  0  0
 35 53  1  0  0  0  0
 35 75  1  0  0  0  0
 35 79  2  0  0  0  0
 36 64  1  0  0  0  0
 36 69  1  0  0  0  0
 36 80  2  0  0  0  0
 37 65  1  0  0  0  0
 37 76  1  0  0  0  0
 37 81  2  0  0  0  0
 38 70  1  0  0  0  0
 38 71  1  0  0  0  0
 38 82  2  0  0  0  0
 39 42  1  0  0  0  0
 40 53  1  0  0  0  0
 41 69  1  0  0  0  0
 42 44  1  0  0  0  0
 43 45  1  0  0  0  0
 43 47  1  0  0  0  0
 44 52  1  0  0  0  0
 45 54  1  0  0  0  0
 46 48  1  0  0  0  0
 46 51  1  0  0  0  0
 47 70  1  0  0  0  0
 48 71  1  0  0  0  0
 49 51  1  0  0  0  0
 49 71  1  0  0  0  0
 50 54  1  0  0  0  0
 50 70  1  0  0  0  0
 52 75  1  0  0  0  0
 53 69  1  0  0  0  0
 54 68  1  0  0  0  0
 56 65  1  0  0  0  0
 57 66  1  0  0  0  0
 58 66  1  0  0  0  0
 59 66  1  0  0  0  0
 60 77  1  0  0  0  0
 61 84  1  0  0  0  0
 62 63  1  0  0  0  0
 62 74  1  0  0  0  0
 63 85  1  0  0  0  0
 64 66  1  0  0  0  0
 64 76  1  0  0  0  0
 65 77  1  0  0  0  0
 67 68  1  0  0  0  0
M  CHG  1  77   1
M  ISO  4  38 100  63 101  71 100  85 101
M  END
> <Batch ID>
0150

> <Smiles>
CNC(C)C(=O)NC(C(=O)N1Cc2cc([101O:1][101CH2:1]CNc3cc(C)c(C4CC[100N:0]([100C:0](=O)N5CCCC(n6nc(-c7ccc(Oc8ccc(F)cc8F)cc7)c(C(N)=O)c6N)C5)C4)c(OC)c3)ccc2CC1C(=O)NC1CCCc2ccccc21)C(C)(C)C

> <Shape>
0.302

> <Color>
0.179

> <Negative vol penalty>
0.000

$$$$

  -OEChem-04052321413D

 85 94  0     1  0  0  0  0  0999 V2000
  -19.1310  -23.8050   23.4444 C   0  0  0  0  0  0  0  0  0  0  0  0
  -20.4963  -23.8864   23.1895 C   0  0  0  0  0  0  0  0  0  0  0  0
  -21.4754  -11.4960   22.0338 C   0  0  0  0  0  0  0  0  0  0  0  0
  -21.1597  -11.6260   19.6421 C   0  0  0  0  0  0  0  0  0  0  0  0
  -18.3184  -24.9205   23.2463 C   0  0  0  0  0  0  0  0  0  0  0  0
  -21.0495  -25.0831   22.7354 C   0  0  0  0  0  0  0  0  0  0  0  0
  -25.3492  -26.2692   25.1333 C   0  0  0  0  0  0  0  0  0  0  0  0
  -20.6533  -10.3702   22.0812 C   0  0  0  0  0  0  0  0  0  0  0  0
  -20.3377  -10.5001   19.6894 C   0  0  0  0  0  0  0  0  0  0  0  0
  -26.5043  -25.5946   24.7405 C   0  0  0  0  0  0  0  0  0  0  0  0
  -18.9287   -7.2477   22.7819 C   0  0  0  0  0  0  0  0  0  0  0  0
  -19.3561   -6.1646   23.5498 C   0  0  0  0  0  0  0  0  0  0  0  0
  -26.3947  -22.0938   19.1078 C   0  0  0  0  0  0  0  0  0  0  0  0
  -27.1558  -27.4977   23.4090 C   0  0  0  0  0  0  0  0  0  0  0  0
  -28.5409  -20.3153   19.5900 C   0  0  0  0  0  0  0  0  0  0  0  0
  -21.3417   -5.9809   22.1858 C   0  0  0  0  0  0  0  0  0  0  0  0
  -21.7285  -12.1240   20.8143 C   0  0  0  0  0  0  0  0  0  0  0  0
  -23.9727  -13.3145   20.5819 C   0  0  0  0  0  0  0  0  0  0  0  0
  -18.8634  -26.1342   22.7987 C   0  0  0  0  0  0  0  0  0  0  0  0
  -25.0829  -27.5612   24.6575 C   0  0  0  0  0  0  0  0  0  0  0  0
  -20.2431  -26.2155   22.5298 C   0  0  0  0  0  0  0  0  0  0  0  0
  -27.4546  -22.4560   19.9206 C   0  0  0  0  0  0  0  0  0  0  0  0
  -25.9979  -28.1876   23.7993 C   0  0  0  0  0  0  0  0  0  0  0  0
  -28.5158  -21.5766   20.1591 C   0  0  0  0  0  0  0  0  0  0  0  0
  -26.4074  -20.8206   18.5340 C   0  0  0  0  0  0  0  0  0  0  0  0
  -20.0845   -9.8721   20.9090 C   0  0  0  0  0  0  0  0  0  0  0  0
  -27.4064  -26.2077   23.8759 C   0  0  0  0  0  0  0  0  0  0  0  0
  -19.7078   -7.6974   21.7158 C   0  0  0  0  0  0  0  0  0  0  0  0
  -27.4728  -19.9378   18.7734 C   0  0  0  0  0  0  0  0  0  0  0  0
  -20.5626   -5.5312   23.2518 C   0  0  0  0  0  0  0  0  0  0  0  0
  -20.9143   -7.0640   21.4178 C   0  0  0  0  0  0  0  0  0  0  0  0
  -22.5771  -13.2874   20.7648 C   0  0  0  0  0  0  0  0  0  0  0  0
  -24.2969  -14.6489   20.6107 C   0  0  0  0  0  0  0  0  0  0  0  0
  -24.8936  -12.2305   20.4019 C   0  0  0  0  0  0  0  0  0  0  0  0
  -22.7801  -28.8756   22.9044 C   0  0  0  0  0  0  0  0  0  0  0  0
  -24.3362  -31.6282   23.6283 C   0  0  0  0  0  0  0  0  0  0  0  0
  -27.2455  -33.1552   24.5510 C   0  0  0  0  0  0  0  0  0  0  0  0
  -23.3105  -19.9306   19.1020 C   0  0  0  0  0  0  0  0  0  0  0  0
  -17.9376  -27.2994   22.5541 C   0  0  0  0  0  0  0  0  0  0  0  0
  -23.8457  -28.2859   25.1119 C   0  0  0  0  0  0  0  0  0  0  0  0
  -25.7685  -29.5813   23.2763 C   0  0  0  0  0  0  0  0  0  0  0  0
  -27.6793  -23.7526   20.6232 C   0  0  0  0  0  0  0  0  0  0  0  0
  -29.5370  -22.2129   21.0410 C   0  0  0  0  0  0  0  0  0  0  0  0
  -18.6620  -28.6372   22.4290 C   0  0  0  0  0  0  0  0  0  0  0  0
  -21.5378  -18.6796   21.9250 C   0  0  0  0  0  0  0  0  0  0  0  0
  -19.8675  -28.5070   21.5034 C   0  0  0  0  0  0  0  0  0  0  0  0
  -21.7601  -17.1678   21.8559 C   0  0  0  0  0  0  0  0  0  0  0  0
  -21.3924  -19.2928   20.5340 C   0  0  0  0  0  0  0  0  0  0  0  0
  -22.7146  -17.4698   19.5329 C   0  0  0  0  0  0  0  0  0  0  0  0
  -20.8844  -27.5031   22.0598 C   0  0  1  0  0  0  0  0  0  0  0  0
  -23.4210  -29.3988   24.1587 C   0  0  1  0  0  0  0  0  0  0  0  0
  -22.9229  -16.8146   20.9091 C   0  0  2  0  0  0  0  0  0  0  0  0
  -28.2169  -35.4195   25.0270 C   0  0  0  0  0  0  0  0  0  0  0  0
  -24.4363  -32.2118   20.6351 C   0  0  0  0  0  0  0  0  0  0  0  0
  -26.1960  -33.9311   21.0999 C   0  0  0  0  0  0  0  0  0  0  0  0
  -23.9118  -34.1937   22.0673 C   0  0  0  0  0  0  0  0  0  0  0  0
  -27.8989  -32.4164   27.3414 C   0  0  0  0  0  0  0  0  0  0  0  0
  -28.5979  -17.8607   18.4985 C   0  0  0  0  0  0  0  0  0  0  0  0
  -25.2697  -20.4109   17.6563 C   0  0  0  0  0  0  0  0  0  0  0  0
  -29.8159  -24.6658   21.6583 C   0  0  0  0  0  0  0  0  0  0  0  0
  -29.0575  -25.8617   22.1995 C   0  0  0  0  0  0  0  0  0  1  0  0
  -25.4557  -32.4210   22.9979 C   0  0  1  0  0  0  0  0  0  0  0  0
  -27.5445  -34.1909   25.6197 C   0  0  2  0  0  0  0  0  0  0  0  0
  -25.0036  -33.1624   21.7082 C   0  0  0  0  0  0  0  0  0  0  0  0
  -22.0510  -14.5076   20.9000 N   0  0  0  0  0  0  0  0  0  0  0  0
  -23.1216  -15.3140   20.8021 N   0  0  0  0  0  0  0  0  0  0  0  0
  -24.5411  -30.2461   23.7444 N   0  0  0  0  0  0  0  0  0  0  0  0
  -22.5279  -18.9211   19.6863 N   0  0  0  0  0  0  0  0  0  0  0  0
  -25.4698  -15.3065   20.4909 N   0  0  0  0  0  0  0  0  0  0  0  0
  -24.3923  -10.9217   20.3977 N   0  0  0  0  0  0  0  0  0  0  0  0
  -21.6557  -28.1038   23.1269 N   0  0  0  0  0  0  0  0  0  0  0  0
  -25.9721  -33.2993   24.0421 N   0  0  0  0  0  0  0  0  0  0  0  0
  -24.3709  -19.4920   18.3184 N   0  0  0  0  0  0  0  0  0  0  0  0
  -28.8891  -23.5125   21.5352 N   0  3  1  0  0  0  0  0  0  0  0  0
  -28.4455  -33.6175   26.6591 N   0  3  0  0  0  0  0  0  0  0  0  0
  -26.1267  -12.4160   20.2657 O   0  0  0  0  0  0  0  0  0  0  0  0
  -23.2687  -29.1529   21.8154 O   0  0  0  0  0  0  0  0  0  0  0  0
  -23.3204  -32.2147   24.0102 O   0  0  0  0  0  0  0  0  0  0  0  0
  -28.0613  -32.3057   24.1999 O   0  0  0  0  0  0  0  0  0  0  0  0
  -23.0845  -21.1337   19.2707 O   0  0  0  0  0  0  0  0  0  0  0  0
  -19.2825   -8.7734   20.9548 O   0  0  0  0  0  0  0  0  0  0  0  0
  -27.4811  -18.6971   18.2066 O   0  0  0  0  0  0  0  0  0  0  0  0
  -28.5343  -25.5511   23.4903 O   0  0  0  0  0  0  0  0  0  1  0  0
  -20.9736   -4.4920   23.9903 F   0  0  0  0  0  0  0  0  0  0  0  0
  -21.6676   -7.4923   20.3956 F   0  0  0  0  0  0  0  0  0  0  0  0
  1  2  1  0  0  0  0
  1  5  2  0  0  0  0
  2  6  2  0  0  0  0
  3  8  2  0  0  0  0
  3 17  1  0  0  0  0
  4  9  1  0  0  0  0
  4 17  2  0  0  0  0
  5 19  1  0  0  0  0
  6 21  1  0  0  0  0
  7 10  2  0  0  0  0
  7 20  1  0  0  0  0
  8 26  1  0  0  0  0
  9 26  2  0  0  0  0
 10 27  1  0  0  0  0
 11 12  2  0  0  0  0
 11 28  1  0  0  0  0
 12 30  1  0  0  0  0
 13 22  1  0  0  0  0
 13 25  2  0  0  0  0
 14 23  1  0  0  0  0
 14 27  2  0  0  0  0
 15 24  1  0  0  0  0
 15 29  2  0  0  0  0
 16 30  2  0  0  0  0
 16 31  1  0  0  0  0
 17 32  1  0  0  0  0
 18 32  1  0  0  0  0
 18 33  2  0  0  0  0
 18 34  1  0  0  0  0
 19 21  2  0  0  0  0
 19 39  1  0  0  0  0
 20 23  2  0  0  0  0
 20 40  1  0  0  0  0
 21 50  1  0  0  0  0
 22 24  2  0  0  0  0
 22 42  1  0  0  0  0
 23 41  1  0  0  0  0
 24 43  1  0  0  0  0
 25 29  1  0  0  0  0
 25 59  1  0  0  0  0
 26 81  1  0  0  0  0
 27 83  1  0  0  0  0
 28 31  2  0  0  0  0
 28 81  1  0  0  0  0
 29 82  1  0  0  0  0
 30 84  1  0  0  0  0
 31 85  1  0  0  0  0
 32 65  2  0  0  0  0
 33 66  1  0  0  0  0
 33 69  1  0  0  0  0
 34 70  1  0  0  0  0
 34 76  2  0  0  0  0
 35 51  1  0  0  0  0
 35 71  1  0  0  0  0
 35 77  2  0  0  0  0
 36 62  1  0  0  0  0
 36 67  1  0  0  0  0
 36 78  2  0  0  0  0
 37 63  1  0  0  0  0
 37 72  1  0  0  0  0
 37 79  2  0  0  0  0
 38 68  1  0  0  0  0
 38 73  1  0  0  0  0
 38 80  2  0  0  0  0
 39 44  1  0  0  0  0
 40 51  1  0  0  0  0
 41 67  1  0  0  0  0
 42 74  1  0  0  0  0
 43 74  1  0  0  0  0
 44 46  1  0  0  0  0
 45 47  1  0  0  0  0
 45 48  1  0  0  0  0
 46 50  1  0  0  0  0
 47 52  1  0  0  0  0
 48 68  1  0  0  0  0
 49 52  1  0  0  0  0
 49 68  1  0  0  0  0
 50 71  1  0  0  0  0
 51 67  1  0  0  0  0
 52 66  1  0  0  0  0
 53 63  1  0  0  0  0
 54 64  1  0  0  0  0
 55 64  1  0  0  0  0
 56 64  1  0  0  0  0
 57 75  1  0  0  0  0
 58 82  1  0  0  0  0
 59 73  1  0  0  0  0
 60 61  1  0  0  0  0
 60 74  1  0  0  0  0
 61 83  1  0  0  0  0
 62 64  1  0  0  0  0
 62 72  1  0  0  0  0
 63 75  1  0  0  0  0
 65 66  1  0  0  0  0
M  CHG  2  74   1  75   1
M  ISO  4  38 100  61 101  73 100  83 101
M  END
> <Batch ID>
0150

> <Smiles>
CNC(C)C(=O)NC(C(=O)N1Cc2cc([101O:1][101CH2:1]CN3Cc4cc(C[100NH:0][100C:0](=O)N5CCCC(n6nc(-c7ccc(Oc8ccc(F)cc8F)cc7)c(C(N)=O)c6N)C5)c(OC)cc4C3)ccc2CC1C(=O)NC1CCCc2ccccc21)C(C)(C)C

> <Shape>
0.239

> <Color>
0.112

> <Negative vol penalty>
0.000

$$$$

  -OEChem-04052321413D

 87 96  0     1  0  0  0  0  0999 V2000
  -23.3551  -35.6797   16.0564 C   0  0  0  0  0  0  0  0  0  0  0  0
  -23.9026  -34.4054   15.9476 C   0  0  0  0  0  0  0  0  0  0  0  0
  -23.7204   -9.1534   20.7412 C   0  0  0  0  0  0  0  0  0  0  0  0
  -22.9364  -11.2912   21.5487 C   0  0  0  0  0  0  0  0  0  0  0  0
  -23.5146  -36.4074   17.2350 C   0  0  0  0  0  0  0  0  0  0  0  0
  -24.6108  -33.8584   17.0170 C   0  0  0  0  0  0  0  0  0  0  0  0
  -24.7863  -27.9695   18.6889 C   0  0  0  0  0  0  0  0  0  0  0  0
  -22.8466   -8.5036   21.6128 C   0  0  0  0  0  0  0  0  0  0  0  0
  -22.0625  -10.6415   22.4203 C   0  0  0  0  0  0  0  0  0  0  0  0
  -25.7123  -26.9544   18.4523 C   0  0  0  0  0  0  0  0  0  0  0  0
  -22.7295   -7.7239   24.8996 C   0  0  0  0  0  0  0  0  0  0  0  0
  -23.2268   -6.6441   25.6292 C   0  0  0  0  0  0  0  0  0  0  0  0
  -26.7407  -27.4030   20.5878 C   0  0  0  0  0  0  0  0  0  0  0  0
  -29.0172  -21.3160   18.4147 C   0  0  0  0  0  0  0  0  0  0  0  0
  -29.9323  -21.7124   15.8093 C   0  0  0  0  0  0  0  0  0  0  0  0
  -21.5784   -5.1988   24.6139 C   0  0  0  0  0  0  0  0  0  0  0  0
  -23.7654  -10.5472   20.7092 C   0  0  0  0  0  0  0  0  0  0  0  0
  -24.4063  -11.6228   18.4866 C   0  0  0  0  0  0  0  0  0  0  0  0
  -24.2168  -35.8652   18.3229 C   0  0  0  0  0  0  0  0  0  0  0  0
  -24.8374  -28.7174   19.8740 C   0  0  0  0  0  0  0  0  0  0  0  0
  -24.7809  -34.5800   18.2108 C   0  0  0  0  0  0  0  0  0  0  0  0
  -25.8126  -28.4253   20.8382 C   0  0  0  0  0  0  0  0  0  0  0  0
  -29.0174  -20.2570   17.5070 C   0  0  0  0  0  0  0  0  0  0  0  0
  -29.4750  -20.4551   16.2043 C   0  0  0  0  0  0  0  0  0  0  0  0
  -22.0175   -9.2476   22.4524 C   0  0  0  0  0  0  0  0  0  0  0  0
  -26.6915  -26.6730   19.4005 C   0  0  0  0  0  0  0  0  0  0  0  0
  -21.6566   -7.5411   24.0271 C   0  0  0  0  0  0  0  0  0  0  0  0
  -29.4744  -22.5733   18.0198 C   0  0  0  0  0  0  0  0  0  0  0  0
  -29.9320  -22.7714   16.7171 C   0  0  0  0  0  0  0  0  0  0  0  0
  -22.6513   -5.3816   25.4863 C   0  0  0  0  0  0  0  0  0  0  0  0
  -21.0811   -6.2786   23.8842 C   0  0  0  0  0  0  0  0  0  0  0  0
  -24.6684  -11.2190   19.8095 C   0  0  0  0  0  0  0  0  0  0  0  0
  -25.5754  -12.2103   18.0689 C   0  0  0  0  0  0  0  0  0  0  0  0
  -23.2127  -11.4797   17.7052 C   0  0  0  0  0  0  0  0  0  0  0  0
  -25.2918  -31.7848   20.5727 C   0  0  0  0  0  0  0  0  0  0  0  0
  -24.6079  -30.7974   23.5859 C   0  0  0  0  0  0  0  0  0  0  0  0
  -24.5076  -28.2407   25.8443 C   0  0  0  0  0  0  0  0  0  0  0  0
  -29.8898  -15.6131   19.0197 C   0  0  0  0  0  0  0  0  0  0  0  0
  -24.4036  -36.7084   19.5593 C   0  0  0  0  0  0  0  0  0  0  0  0
  -23.8147  -29.7912   20.1259 C   0  0  0  0  0  0  0  0  0  0  0  0
  -25.8977  -29.1855   22.1356 C   0  0  0  0  0  0  0  0  0  0  0  0
  -24.8470  -35.9080   20.7812 C   0  0  0  0  0  0  0  0  0  0  0  0
  -30.1699  -12.2741   20.1401 C   0  0  0  0  0  0  0  0  0  0  0  0
  -25.9838  -34.9594   20.4141 C   0  0  0  0  0  0  0  0  0  0  0  0
  -28.7427  -11.7366   20.0815 C   0  0  0  0  0  0  0  0  0  0  0  0
  -28.0825  -18.7787   19.4280 C   0  0  0  0  0  0  0  0  0  0  0  0
  -30.1819  -13.7290   20.5897 C   0  0  0  0  0  0  0  0  0  0  0  0
  -28.0413  -17.2724   19.6476 C   0  0  0  0  0  0  0  0  0  0  0  0
  -29.5547  -17.7745   17.8588 C   0  0  0  0  0  0  0  0  0  0  0  0
  -27.9312  -14.1074   19.6194 C   0  0  0  0  0  0  0  0  0  0  0  0
  -28.5180  -18.9024   17.9588 C   0  0  2  0  0  0  0  0  0  0  0  0
  -25.5346  -33.9426   19.3578 C   0  0  1  0  0  0  0  0  0  0  0  0
  -24.2785  -30.8318   21.1406 C   0  0  1  0  0  0  0  0  0  0  0  0
  -27.8646  -12.6274   19.1891 C   0  0  2  0  0  0  0  0  0  0  0  0
  -29.4844  -19.3363   15.2153 C   0  0  0  0  0  0  0  0  0  0  0  0
  -23.9398  -27.7484   28.2386 C   0  0  0  0  0  0  0  0  0  0  0  0
  -27.2246  -32.0938   24.4705 C   0  0  0  0  0  0  0  0  0  0  0  0
  -27.0749  -30.7816   26.5974 C   0  0  0  0  0  0  0  0  0  0  0  0
  -25.3048  -32.4466   26.0340 C   0  0  0  0  0  0  0  0  0  0  0  0
  -22.3846  -26.3300   25.0692 C   0  0  0  0  0  0  0  0  0  0  0  0
  -29.4198  -24.8898   15.7653 C   0  0  0  0  0  0  0  0  0  0  0  0
  -28.1115  -24.9970   20.3120 C   0  0  0  0  0  0  0  0  0  1  0  0
  -28.4625  -23.5733   19.9255 C   0  0  0  0  0  0  0  0  0  0  0  0
  -25.4158  -30.2725   24.7482 C   0  0  1  0  0  0  0  0  0  0  0  0
  -23.4249  -27.7901   26.8082 C   0  0  2  0  0  0  0  0  0  0  0  0
  -26.2549  -31.3854   25.4373 C   0  0  0  0  0  0  0  0  0  0  0  0
  -25.9068  -11.5240   20.2059 N   0  0  0  0  0  0  0  0  0  0  0  0
  -26.4334  -12.1256   19.1257 N   0  0  0  0  0  0  0  0  0  0  0  0
  -24.8793  -30.2302   22.3328 N   0  0  0  0  0  0  0  0  0  0  0  0
  -29.3207  -14.5646   19.7509 N   0  0  0  0  0  0  0  0  0  0  0  0
  -29.1166  -16.7534   18.8049 N   0  0  0  0  0  0  0  0  0  0  0  0
  -25.9430  -12.7857   16.9044 N   0  0  0  0  0  0  0  0  0  0  0  0
  -22.1036  -10.8518   18.2883 N   0  0  0  0  0  0  0  0  0  0  0  0
  -24.7401  -32.8979   19.9676 N   0  0  0  0  0  0  0  0  0  0  0  0
  -24.4694  -29.6029   25.6338 N   0  0  0  0  0  0  0  0  0  0  0  0
  -22.9403  -26.4289   26.4433 N   0  3  0  0  0  0  0  0  0  0  0  0
  -23.1375  -11.8816   16.5193 O   0  0  0  0  0  0  0  0  0  0  0  0
  -26.4859  -31.5299   20.6771 O   0  0  0  0  0  0  0  0  0  0  0  0
  -23.7621  -31.6732   23.7839 O   0  0  0  0  0  0  0  0  0  0  0  0
  -25.3095  -27.4627   25.3323 O   0  0  0  0  0  0  0  0  0  0  0  0
  -31.0569  -15.5516   18.6097 O   0  0  0  0  0  0  0  0  0  0  0  0
  -21.1645   -8.6140   23.3028 O   0  0  0  0  0  0  0  0  0  0  0  0
  -30.3816  -23.9944   16.3197 O   0  0  0  0  0  0  0  0  0  0  0  0
  -27.6031  -25.6764   19.1702 O   0  0  0  0  0  0  0  0  0  1  0  0
  -29.4693  -23.5994   18.9156 O   0  0  0  0  0  0  0  0  0  0  0  0
  -23.1300   -4.3445   26.1859 F   0  0  0  0  0  0  0  0  0  0  0  0
  -20.0509   -6.0966   23.0467 F   0  0  0  0  0  0  0  0  0  0  0  0
  1  2  1  0  0  0  0
  1  5  2  0  0  0  0
  2  6  2  0  0  0  0
  3  8  2  0  0  0  0
  3 17  1  0  0  0  0
  4  9  1  0  0  0  0
  4 17  2  0  0  0  0
  5 19  1  0  0  0  0
  6 21  1  0  0  0  0
  7 10  2  0  0  0  0
  7 20  1  0  0  0  0
  8 25  1  0  0  0  0
  9 25  2  0  0  0  0
 10 26  1  0  0  0  0
 11 12  2  0  0  0  0
 11 27  1  0  0  0  0
 12 30  1  0  0  0  0
 13 22  1  0  0  0  0
 13 26  2  0  0  0  0
 14 23  2  0  0  0  0
 14 28  1  0  0  0  0
 15 24  2  0  0  0  0
 15 29  1  0  0  0  0
 16 30  2  0  0  0  0
 16 31  1  0  0  0  0
 17 32  1  0  0  0  0
 18 32  1  0  0  0  0
 18 33  2  0  0  0  0
 18 34  1  0  0  0  0
 19 21  2  0  0  0  0
 19 39  1  0  0  0  0
 20 22  2  0  0  0  0
 20 40  1  0  0  0  0
 21 52  1  0  0  0  0
 22 41  1  0  0  0  0
 23 24  1  0  0  0  0
 23 51  1  0  0  0  0
 24 55  1  0  0  0  0
 25 82  1  0  0  0  0
 26 84  1  0  0  0  0
 27 31  2  0  0  0  0
 27 82  1  0  0  0  0
 28 29  2  0  0  0  0
 28 85  1  0  0  0  0
 29 83  1  0  0  0  0
 30 86  1  0  0  0  0
 31 87  1  0  0  0  0
 32 67  2  0  0  0  0
 33 68  1  0  0  0  0
 33 72  1  0  0  0  0
 34 73  1  0  0  0  0
 34 77  2  0  0  0  0
 35 53  1  0  0  0  0
 35 74  1  0  0  0  0
 35 78  2  0  0  0  0
 36 64  1  0  0  0  0
 36 69  1  0  0  0  0
 36 79  2  0  0  0  0
 37 65  1  0  0  0  0
 37 75  1  0  0  0  0
 37 80  2  0  0  0  0
 38 70  1  0  0  0  0
 38 71  1  0  0  0  0
 38 81  2  0  0  0  0
 39 42  1  0  0  0  0
 40 53  1  0  0  0  0
 41 69  1  0  0  0  0
 42 44  1  0  0  0  0
 43 45  1  0  0  0  0
 43 47  1  0  0  0  0
 44 52  1  0  0  0  0
 45 54  1  0  0  0  0
 46 48  1  0  0  0  0
 46 51  1  0  0  0  0
 47 70  1  0  0  0  0
 48 71  1  0  0  0  0
 49 51  1  0  0  0  0
 49 71  1  0  0  0  0
 50 54  1  0  0  0  0
 50 70  1  0  0  0  0
 52 74  1  0  0  0  0
 53 69  1  0  0  0  0
 54 68  1  0  0  0  0
 56 65  1  0  0  0  0
 57 66  1  0  0  0  0
 58 66  1  0  0  0  0
 59 66  1  0  0  0  0
 60 76  1  0  0  0  0
 61 83  1  0  0  0  0
 62 63  1  0  0  0  0
 62 84  1  0  0  0  0
 63 85  1  0  0  0  0
 64 66  1  0  0  0  0
 64 75  1  0  0  0  0
 65 76  1  0  0  0  0
 67 68  1  0  0  0  0
M  CHG  1  76   1
M  ISO  4  38 100  62 101  71 100  84 101
M  END
> <Batch ID>
0150

> <Smiles>
CNC(C)C(=O)NC(C(=O)N1Cc2cc([101O:1][101CH2:1]COc3cc(C4CC[100N:0]([100C:0](=O)N5CCCC(n6nc(-c7ccc(Oc8ccc(F)cc8F)cc7)c(C(N)=O)c6N)C5)C4)c(C)cc3OC)ccc2CC1C(=O)NC1CCCc2ccccc21)C(C)(C)C

> <Shape>
0.266

> <Color>
0.114

> <Negative vol penalty>
0.000

$$$$

  -OEChem-04052321413D

 89 99  0     1  0  0  0  0  0999 V2000
  -19.1348  -25.5787   25.2563 C   0  0  0  0  0  0  0  0  0  0  0  0
  -20.4304  -25.3832   24.7887 C   0  0  0  0  0  0  0  0  0  0  0  0
  -24.4591  -11.5472   24.5879 C   0  0  0  0  0  0  0  0  0  0  0  0
  -24.1228  -13.7013   25.6288 C   0  0  0  0  0  0  0  0  0  0  0  0
  -18.2768  -26.4492   24.5856 C   0  0  0  0  0  0  0  0  0  0  0  0
  -20.8684  -26.0574   23.6493 C   0  0  0  0  0  0  0  0  0  0  0  0
  -26.5169  -28.1566   22.5571 C   0  0  0  0  0  0  0  0  0  0  0  0
  -23.9603  -10.9181   25.7285 C   0  0  0  0  0  0  0  0  0  0  0  0
  -23.6239  -13.0723   26.7695 C   0  0  0  0  0  0  0  0  0  0  0  0
  -27.5831  -27.6413   21.8212 C   0  0  0  0  0  0  0  0  0  0  0  0
  -22.4390   -8.7597   28.2269 C   0  0  0  0  0  0  0  0  0  0  0  0
  -21.5235   -7.7228   28.0477 C   0  0  0  0  0  0  0  0  0  0  0  0
  -27.8967  -24.4285   18.2494 C   0  0  0  0  0  0  0  0  0  0  0  0
  -26.9159  -28.9801   19.9286 C   0  0  0  0  0  0  0  0  0  0  0  0
  -30.1249  -24.2707   19.1697 C   0  0  0  0  0  0  0  0  0  0  0  0
  -20.0207   -9.2440   26.9232 C   0  0  0  0  0  0  0  0  0  0  0  0
  -24.5404  -12.9388   24.5381 C   0  0  0  0  0  0  0  0  0  0  0  0
  -24.3244  -14.0181   22.2367 C   0  0  0  0  0  0  0  0  0  0  0  0
  -18.7076  -27.1418   23.4430 C   0  0  0  0  0  0  0  0  0  0  0  0
  -25.6343  -29.0808   21.9797 C   0  0  0  0  0  0  0  0  0  0  0  0
  -20.0148  -26.9370   22.9619 C   0  0  0  0  0  0  0  0  0  0  0  0
  -27.5771  -23.1924   18.8111 C   0  0  0  0  0  0  0  0  0  0  0  0
  -25.8409  -29.5075   20.6601 C   0  0  0  0  0  0  0  0  0  0  0  0
  -28.5314  -22.4955   19.5521 C   0  0  0  0  0  0  0  0  0  0  0  0
  -29.1706  -24.9677   18.4286 C   0  0  0  0  0  0  0  0  0  0  0  0
  -23.5427  -11.6806   26.8193 C   0  0  0  0  0  0  0  0  0  0  0  0
  -27.7810  -28.0509   20.5058 C   0  0  0  0  0  0  0  0  0  0  0  0
  -22.1453  -10.0389   27.7544 C   0  0  0  0  0  0  0  0  0  0  0  0
  -29.8054  -23.0346   19.7314 C   0  0  0  0  0  0  0  0  0  0  0  0
  -20.3143   -7.9649   27.3958 C   0  0  0  0  0  0  0  0  0  0  0  0
  -20.9362  -10.2810   27.1024 C   0  0  0  0  0  0  0  0  0  0  0  0
  -25.0562  -13.5892   23.3603 C   0  0  0  0  0  0  0  0  0  0  0  0
  -25.2668  -14.5690   21.4031 C   0  0  0  0  0  0  0  0  0  0  0  0
  -22.9186  -13.9267   21.9704 C   0  0  0  0  0  0  0  0  0  0  0  0
  -22.5220  -29.1092   21.3345 C   0  0  0  0  0  0  0  0  0  0  0  0
  -23.1178  -32.1890   20.5086 C   0  0  0  0  0  0  0  0  0  0  0  0
  -25.3805  -34.5260   19.4764 C   0  0  0  0  0  0  0  0  0  0  0  0
  -29.7412  -17.8056   20.6275 C   0  0  0  0  0  0  0  0  0  0  0  0
  -17.7288  -28.0362   22.7243 C   0  0  0  0  0  0  0  0  0  0  0  0
  -24.5048  -29.6474   22.7955 C   0  0  0  0  0  0  0  0  0  0  0  0
  -24.9338  -30.5129   20.0006 C   0  0  0  0  0  0  0  0  0  0  0  0
  -18.3912  -28.9981   21.7413 C   0  0  0  0  0  0  0  0  0  0  0  0
  -30.3029  -14.4454   21.5636 C   0  0  0  0  0  0  0  0  0  0  0  0
  -25.0679  -23.5820   18.3359 C   0  0  0  0  0  0  0  0  0  0  0  0
  -25.1545  -22.8788   19.6543 C   0  0  0  0  0  0  0  0  0  0  0  0
  -19.4140  -28.2623   20.8815 C   0  0  0  0  0  0  0  0  0  0  0  0
  -28.9423  -13.9593   22.0553 C   0  0  0  0  0  0  0  0  0  0  0  0
  -28.3457  -21.0278   21.6878 C   0  0  0  0  0  0  0  0  0  0  0  0
  -30.5397  -15.8933   21.9713 C   0  0  0  0  0  0  0  0  0  0  0  0
  -28.3353  -19.5213   21.9098 C   0  0  0  0  0  0  0  0  0  0  0  0
  -29.0693  -19.9915   19.6777 C   0  0  0  0  0  0  0  0  0  0  0  0
  -28.1049  -16.3627   21.9328 C   0  0  0  0  0  0  0  0  0  0  0  0
  -26.2070  -22.6357   18.6058 C   0  0  0  0  0  0  0  0  0  0  0  0
  -28.1921  -21.1540   20.1634 C   0  0  2  0  0  0  0  0  0  0  0  0
  -20.5347  -27.6690   21.7438 C   0  0  1  0  0  0  0  0  0  0  0  0
  -23.3660  -30.1946   21.9405 C   0  0  1  0  0  0  0  0  0  0  0  0
  -27.8240  -14.8914   21.5638 C   0  0  2  0  0  0  0  0  0  0  0  0
  -29.4314  -26.2649   16.2883 C   0  0  0  0  0  0  0  0  0  0  0  0
  -25.5630  -36.9490   18.8496 C   0  0  0  0  0  0  0  0  0  0  0  0
  -21.8120  -31.5886   17.8171 C   0  0  0  0  0  0  0  0  0  0  0  0
  -22.8541  -33.6822   16.9232 C   0  0  0  0  0  0  0  0  0  0  0  0
  -21.2109  -33.8102   18.7957 C   0  0  0  0  0  0  0  0  0  0  0  0
  -27.2991  -35.0670   21.6639 C   0  0  0  0  0  0  0  0  0  0  0  0
  -32.0253  -22.9946   20.5837 C   0  0  0  0  0  0  0  0  0  0  0  0
  -28.6407  -27.4438   18.3731 C   0  0  0  0  0  0  0  0  0  1  0  0
  -29.5124  -26.2892   17.8280 C   0  0  1  0  0  0  0  0  0  0  0  0
  -23.5260  -32.8955   19.2385 C   0  0  1  0  0  0  0  0  0  0  0  0
  -25.6761  -35.9298   19.9726 C   0  0  2  0  0  0  0  0  0  0  0  0
  -22.3669  -32.9737   18.2051 C   0  0  0  0  0  0  0  0  0  0  0  0
  -26.3626  -13.8454   23.2533 N   0  0  0  0  0  0  0  0  0  0  0  0
  -26.4593  -14.4412   22.0526 N   0  0  0  0  0  0  0  0  0  0  0  0
  -23.8399  -31.0330   20.8374 N   0  0  0  0  0  0  0  0  0  0  0  0
  -29.4554  -16.7690   21.5229 N   0  0  0  0  0  0  0  0  0  0  0  0
  -28.9876  -18.9750   20.7216 N   0  0  0  0  0  0  0  0  0  0  0  0
  -25.1835  -15.1453   20.1852 N   0  0  0  0  0  0  0  0  0  0  0  0
  -22.0933  -13.3314   22.9341 N   0  0  0  0  0  0  0  0  0  0  0  0
  -21.4718  -28.7004   22.1342 N   0  0  0  0  0  0  0  0  0  0  0  0
  -24.0529  -34.1938   19.6448 N   0  0  0  0  0  0  0  0  0  0  0  0
  -27.0545  -36.0009   20.5348 N   0  3  0  0  0  0  0  0  0  0  0  0
  -22.4116  -14.3455   20.9022 O   0  0  0  0  0  0  0  0  0  0  0  0
  -22.8019  -28.6757   20.2230 O   0  0  0  0  0  0  0  0  0  0  0  0
  -22.1970  -32.6500   21.1879 O   0  0  0  0  0  0  0  0  0  0  0  0
  -26.2404  -33.7983   18.9849 O   0  0  0  0  0  0  0  0  0  0  0  0
  -30.6604  -17.7079   19.8033 O   0  0  0  0  0  0  0  0  0  0  0  0
  -23.0556  -11.0671   27.9324 O   0  0  0  0  0  0  0  0  0  0  0  0
  -30.7506  -22.3686   20.4519 O   0  0  0  0  0  0  0  0  0  0  0  0
  -28.8274  -27.5457   19.7803 O   0  0  0  0  0  0  0  0  0  1  0  0
  -19.4359   -6.9687   27.2224 F   0  0  0  0  0  0  0  0  0  0  0  0
  -20.6490  -11.5075   26.6452 F   0  0  0  0  0  0  0  0  0  0  0  0
  1  2  1  0  0  0  0
  1  5  2  0  0  0  0
  2  6  2  0  0  0  0
  3  8  2  0  0  0  0
  3 17  1  0  0  0  0
  4  9  1  0  0  0  0
  4 17  2  0  0  0  0
  5 19  1  0  0  0  0
  6 21  1  0  0  0  0
  7 10  2  0  0  0  0
  7 20  1  0  0  0  0
  8 26  1  0  0  0  0
  9 26  2  0  0  0  0
 10 27  1  0  0  0  0
 11 12  2  0  0  0  0
 11 28  1  0  0  0  0
 12 30  1  0  0  0  0
 13 22  1  0  0  0  0
 13 25  2  0  0  0  0
 14 23  1  0  0  0  0
 14 27  2  0  0  0  0
 15 25  1  0  0  0  0
 15 29  2  0  0  0  0
 16 30  2  0  0  0  0
 16 31  1  0  0  0  0
 17 32  1  0  0  0  0
 18 32  1  0  0  0  0
 18 33  2  0  0  0  0
 18 34  1  0  0  0  0
 19 21  2  0  0  0  0
 19 39  1  0  0  0  0
 20 23  2  0  0  0  0
 20 40  1  0  0  0  0
 21 55  1  0  0  0  0
 22 24  2  0  0  0  0
 22 53  1  0  0  0  0
 23 41  1  0  0  0  0
 24 29  1  0  0  0  0
 24 54  1  0  0  0  0
 25 66  1  0  0  0  0
 26 85  1  0  0  0  0
 27 87  1  0  0  0  0
 28 31  2  0  0  0  0
 28 85  1  0  0  0  0
 29 86  1  0  0  0  0
 30 88  1  0  0  0  0
 31 89  1  0  0  0  0
 32 70  2  0  0  0  0
 33 71  1  0  0  0  0
 33 75  1  0  0  0  0
 34 76  1  0  0  0  0
 34 80  2  0  0  0  0
 35 56  1  0  0  0  0
 35 77  1  0  0  0  0
 35 81  2  0  0  0  0
 36 67  1  0  0  0  0
 36 72  1  0  0  0  0
 36 82  2  0  0  0  0
 37 68  1  0  0  0  0
 37 78  1  0  0  0  0
 37 83  2  0  0  0  0
 38 73  1  0  0  0  0
 38 74  1  0  0  0  0
 38 84  2  0  0  0  0
 39 42  1  0  0  0  0
 40 56  1  0  0  0  0
 41 72  1  0  0  0  0
 42 46  1  0  0  0  0
 43 47  1  0  0  0  0
 43 49  1  0  0  0  0
 44 45  1  0  0  0  0
 44 53  1  0  0  0  0
 45 53  1  0  0  0  0
 46 55  1  0  0  0  0
 47 57  1  0  0  0  0
 48 50  1  0  0  0  0
 48 54  1  0  0  0  0
 49 73  1  0  0  0  0
 50 74  1  0  0  0  0
 51 54  1  0  0  0  0
 51 74  1  0  0  0  0
 52 57  1  0  0  0  0
 52 73  1  0  0  0  0
 55 77  1  0  0  0  0
 56 72  1  0  0  0  0
 57 71  1  0  0  0  0
 58 66  1  0  0  0  0
 59 68  1  0  0  0  0
 60 69  1  0  0  0  0
 61 69  1  0  0  0  0
 62 69  1  0  0  0  0
 63 79  1  0  0  0  0
 64 86  1  0  0  0  0
 65 66  1  0  0  0  0
 65 87  1  0  0  0  0
 67 69  1  0  0  0  0
 67 78  1  0  0  0  0
 68 79  1  0  0  0  0
 70 71  1  0  0  0  0
M  CHG  1  79   1
M  ISO  4  38 100  65 101  74 100  87 101
M  END
> <Batch ID>
0150

> <Smiles>
CNC(C)C(=O)NC(C(=O)N1Cc2cc([101O:1][101CH2:1]C(C)c3cc(OC)c(C4CC[100N:0]([100C:0](=O)N5CCCC(n6nc(-c7ccc(Oc8ccc(F)cc8F)cc7)c(C(N)=O)c6N)C5)C4)c(C4CC4)c3)ccc2CC1C(=O)NC1CCCc2ccccc21)C(C)(C)C

> <Shape>
0.232

> <Color>
0.138

> <Negative vol penalty>
0.000

$$$$

  -OEChem-04052321413D

 91101  0     1  0  0  0  0  0999 V2000
  -23.0716  -35.2419   15.2480 C   0  0  0  0  0  0  0  0  0  0  0  0
  -23.7106  -34.0115   15.3632 C   0  0  0  0  0  0  0  0  0  0  0  0
  -22.3815  -12.3936   22.1523 C   0  0  0  0  0  0  0  0  0  0  0  0
  -22.6335  -10.4651   20.7190 C   0  0  0  0  0  0  0  0  0  0  0  0
  -23.1520  -36.1678   16.2873 C   0  0  0  0  0  0  0  0  0  0  0  0
  -24.4314  -33.7068   16.5173 C   0  0  0  0  0  0  0  0  0  0  0  0
  -29.4879  -22.2374   19.0501 C   0  0  0  0  0  0  0  0  0  0  0  0
  -24.9871  -28.2140   19.1681 C   0  0  0  0  0  0  0  0  0  0  0  0
  -29.6550  -23.6193   18.9615 C   0  0  0  0  0  0  0  0  0  0  0  0
  -21.1125  -11.9507   22.5252 C   0  0  0  0  0  0  0  0  0  0  0  0
  -21.3645  -10.0221   21.0919 C   0  0  0  0  0  0  0  0  0  0  0  0
  -25.9880  -27.2449   19.1171 C   0  0  0  0  0  0  0  0  0  0  0  0
  -18.1507  -10.7353   20.3212 C   0  0  0  0  0  0  0  0  0  0  0  0
  -17.3007  -10.2810   19.3129 C   0  0  0  0  0  0  0  0  0  0  0  0
  -26.9330  -28.1224   21.1558 C   0  0  0  0  0  0  0  0  0  0  0  0
  -17.1940   -8.1153   20.3787 C   0  0  0  0  0  0  0  0  0  0  0  0
  -23.1420  -11.6508   21.2492 C   0  0  0  0  0  0  0  0  0  0  0  0
  -25.6772  -11.8039   21.4875 C   0  0  0  0  0  0  0  0  0  0  0  0
  -23.8661  -35.8706   17.4587 C   0  0  0  0  0  0  0  0  0  0  0  0
  -24.9578  -29.1531   20.2092 C   0  0  0  0  0  0  0  0  0  0  0  0
  -24.5225  -34.6302   17.5727 C   0  0  0  0  0  0  0  0  0  0  0  0
  -29.8136  -21.5697   20.2307 C   0  0  0  0  0  0  0  0  0  0  0  0
  -25.9291  -29.1008   21.2191 C   0  0  0  0  0  0  0  0  0  0  0  0
  -30.1479  -24.3337   20.0535 C   0  0  0  0  0  0  0  0  0  0  0  0
  -30.4736  -23.6660   21.2341 C   0  0  0  0  0  0  0  0  0  0  0  0
  -30.3065  -22.2840   21.3227 C   0  0  0  0  0  0  0  0  0  0  0  0
  -20.6040  -10.7650   21.9950 C   0  0  0  0  0  0  0  0  0  0  0  0
  -26.9629  -27.2008   20.1095 C   0  0  0  0  0  0  0  0  0  0  0  0
  -18.5225   -9.8796   21.3582 C   0  0  0  0  0  0  0  0  0  0  0  0
  -16.8223   -8.9710   19.3416 C   0  0  0  0  0  0  0  0  0  0  0  0
  -18.0441   -8.5696   21.3869 C   0  0  0  0  0  0  0  0  0  0  0  0
  -24.4527  -12.1081   20.8632 C   0  0  0  0  0  0  0  0  0  0  0  0
  -26.6173  -12.4768   20.7459 C   0  0  0  0  0  0  0  0  0  0  0  0
  -25.9414  -10.9860   22.6351 C   0  0  0  0  0  0  0  0  0  0  0  0
  -25.1770  -32.3195   20.3807 C   0  0  0  0  0  0  0  0  0  0  0  0
  -24.4966  -31.8072   23.5108 C   0  0  0  0  0  0  0  0  0  0  0  0
  -24.5269  -29.6682   26.1698 C   0  0  0  0  0  0  0  0  0  0  0  0
  -28.4220  -16.8728   18.0184 C   0  0  0  0  0  0  0  0  0  0  0  0
  -23.9642  -36.9219   18.5356 C   0  0  0  0  0  0  0  0  0  0  0  0
  -23.8559  -30.1754   20.2642 C   0  0  0  0  0  0  0  0  0  0  0  0
  -25.9305  -30.0734   22.3691 C   0  0  0  0  0  0  0  0  0  0  0  0
  -24.4355  -36.3743   19.8804 C   0  0  0  0  0  0  0  0  0  0  0  0
  -26.2470  -14.8191   16.2863 C   0  0  0  0  0  0  0  0  0  0  0  0
  -25.6449  -35.4641   19.6918 C   0  0  0  0  0  0  0  0  0  0  0  0
  -29.1946  -22.0350   26.0457 C   0  0  0  0  0  0  0  0  0  0  0  0
  -30.4691  -21.2386   26.0115 C   0  0  0  0  0  0  0  0  0  0  0  0
  -25.6799  -13.8976   17.3659 C   0  0  0  0  0  0  0  0  0  0  0  0
  -28.1438  -19.6666   20.1243 C   0  0  0  0  0  0  0  0  0  0  0  0
  -30.5055  -19.3252   19.2786 C   0  0  0  0  0  0  0  0  0  0  0  0
  -26.3605  -16.2512   16.7958 C   0  0  0  0  0  0  0  0  0  0  0  0
  -27.9602  -18.1466   20.1596 C   0  0  0  0  0  0  0  0  0  0  0  0
  -30.2762  -17.8188   19.3585 C   0  0  0  0  0  0  0  0  0  0  0  0
  -26.6239  -15.4706   19.1281 C   0  0  0  0  0  0  0  0  0  0  0  0
  -29.6202  -20.0664   20.2968 C   0  0  0  0  0  0  0  0  0  0  0  0
  -25.2933  -34.2531   18.8192 C   0  0  1  0  0  0  0  0  0  0  0  0
  -24.2213  -31.4037   21.0919 C   0  0  1  0  0  0  0  0  0  0  0  0
  -30.0779  -22.0820   24.8298 C   0  0  0  0  0  0  0  0  0  0  0  0
  -26.4939  -14.0045   18.6676 C   0  0  1  0  0  0  0  0  0  0  0  0
  -31.0029  -24.4380   22.4022 C   0  0  0  0  0  0  0  0  0  0  0  0
  -23.9413  -29.5467   28.6069 C   0  0  0  0  0  0  0  0  0  0  0  0
  -26.9936  -33.4242   24.1890 C   0  0  0  0  0  0  0  0  0  0  0  0
  -26.8892  -32.4825   26.5064 C   0  0  0  0  0  0  0  0  0  0  0  0
  -25.0186  -33.8930   25.6498 C   0  0  0  0  0  0  0  0  0  0  0  0
  -31.9706  -21.0861   22.7212 C   0  0  0  0  0  0  0  0  0  0  0  0
  -22.5634  -27.5024   25.7090 C   0  0  0  0  0  0  0  0  0  0  0  0
  -30.3181  -25.8127   19.9309 C   0  0  0  0  0  0  0  0  0  0  0  0
  -29.6416  -21.4365   23.5588 C   0  0  0  0  0  0  0  0  0  0  0  0
  -29.2050  -26.5999   20.6271 C   0  0  0  0  0  0  0  0  0  1  0  0
  -25.3131  -31.5473   24.7537 C   0  0  1  0  0  0  0  0  0  0  0  0
  -23.4574  -29.3081   27.1851 C   0  0  2  0  0  0  0  0  0  0  0  0
  -26.0550  -32.8195   25.2521 C   0  0  0  0  0  0  0  0  0  0  0  0
  -24.5984  -12.9119   19.8064 N   0  0  0  0  0  0  0  0  0  0  0  0
  -25.9256  -13.1185   19.7610 N   0  0  0  0  0  0  0  0  0  0  0  0
  -24.8361  -31.0582   22.3752 N   0  0  0  0  0  0  0  0  0  0  0  0
  -27.1368  -16.3101   18.0342 N   0  0  0  0  0  0  0  0  0  0  0  0
  -28.8593  -17.4927   19.1986 N   0  0  0  0  0  0  0  0  0  0  0  0
  -27.9598  -12.5764   20.8467 N   0  0  0  0  0  0  0  0  0  0  0  0
  -24.8603  -10.3678   23.2781 N   0  0  0  0  0  0  0  0  0  0  0  0
  -24.5614  -33.2705   19.5895 N   0  0  0  0  0  0  0  0  0  0  0  0
  -24.3968  -30.9687   25.7304 N   0  0  0  0  0  0  0  0  0  0  0  0
  -30.6348  -21.6054   22.5195 N   0  0  3  0  0  0  0  0  0  0  0  0
  -23.0792  -27.8727   27.0520 N   0  3  0  0  0  0  0  0  0  0  0  0
  -27.0999  -10.8219   23.0871 O   0  0  0  0  0  0  0  0  0  0  0  0
  -26.3835  -32.1749   20.5394 O   0  0  0  0  0  0  0  0  0  0  0  0
  -23.5864  -32.6389   23.5481 O   0  0  0  0  0  0  0  0  0  0  0  0
  -25.3936  -28.8764   25.8060 O   0  0  0  0  0  0  0  0  0  0  0  0
  -29.1374  -16.8238   17.0100 O   0  0  0  0  0  0  0  0  0  0  0  0
  -19.3658  -10.3323   22.3589 O   0  0  0  0  0  0  0  0  0  0  0  0
  -27.9483  -26.2497   20.0615 O   0  0  0  0  0  0  0  0  0  1  0  0
  -16.0047   -8.5354   18.3741 F   0  0  0  0  0  0  0  0  0  0  0  0
  -18.3967   -7.7433   22.3812 F   0  0  0  0  0  0  0  0  0  0  0  0
  1  2  1  0  0  0  0
  1  5  2  0  0  0  0
  2  6  2  0  0  0  0
  3 10  2  0  0  0  0
  3 17  1  0  0  0  0
  4 11  1  0  0  0  0
  4 17  2  0  0  0  0
  5 19  1  0  0  0  0
  6 21  1  0  0  0  0
  7  9  2  0  0  0  0
  7 22  1  0  0  0  0
  8 12  2  0  0  0  0
  8 20  1  0  0  0  0
  9 24  1  0  0  0  0
 10 27  1  0  0  0  0
 11 27  2  0  0  0  0
 12 28  1  0  0  0  0
 13 14  2  0  0  0  0
 13 29  1  0  0  0  0
 14 30  1  0  0  0  0
 15 23  1  0  0  0  0
 15 28  2  0  0  0  0
 16 30  2  0  0  0  0
 16 31  1  0  0  0  0
 17 32  1  0  0  0  0
 18 32  1  0  0  0  0
 18 33  2  0  0  0  0
 18 34  1  0  0  0  0
 19 21  2  0  0  0  0
 19 39  1  0  0  0  0
 20 23  2  0  0  0  0
 20 40  1  0  0  0  0
 21 55  1  0  0  0  0
 22 26  2  0  0  0  0
 22 54  1  0  0  0  0
 23 41  1  0  0  0  0
 24 25  2  0  0  0  0
 24 66  1  0  0  0  0
 25 26  1  0  0  0  0
 25 59  1  0  0  0  0
 26 81  1  0  0  0  0
 27 88  1  0  0  0  0
 28 89  1  0  0  0  0
 29 31  2  0  0  0  0
 29 88  1  0  0  0  0
 30 90  1  0  0  0  0
 31 91  1  0  0  0  0
 32 72  2  0  0  0  0
 33 73  1  0  0  0  0
 33 77  1  0  0  0  0
 34 78  1  0  0  0  0
 34 83  2  0  0  0  0
 35 56  1  0  0  0  0
 35 79  1  0  0  0  0
 35 84  2  0  0  0  0
 36 69  1  0  0  0  0
 36 74  1  0  0  0  0
 36 85  2  0  0  0  0
 37 70  1  0  0  0  0
 37 80  1  0  0  0  0
 37 86  2  0  0  0  0
 38 75  1  0  0  0  0
 38 76  1  0  0  0  0
 38 87  2  0  0  0  0
 39 42  1  0  0  0  0
 40 56  1  0  0  0  0
 41 74  1  0  0  0  0
 42 44  1  0  0  0  0
 43 47  1  0  0  0  0
 43 50  1  0  0  0  0
 44 55  1  0  0  0  0
 45 46  1  0  0  0  0
 45 57  1  0  0  0  0
 46 57  1  0  0  0  0
 47 58  1  0  0  0  0
 48 51  1  0  0  0  0
 48 54  1  0  0  0  0
 49 52  1  0  0  0  0
 49 54  1  0  0  0  0
 50 75  1  0  0  0  0
 51 76  1  0  0  0  0
 52 76  1  0  0  0  0
 53 58  1  0  0  0  0
 53 75  1  0  0  0  0
 55 79  1  0  0  0  0
 56 74  1  0  0  0  0
 57 67  1  0  0  0  0
 58 73  1  0  0  0  0
 60 70  1  0  0  0  0
 61 71  1  0  0  0  0
 62 71  1  0  0  0  0
 63 71  1  0  0  0  0
 64 81  1  0  0  0  0
 65 82  1  0  0  0  0
 66 68  1  0  0  0  0
 67 81  1  0  0  0  0
 68 89  1  0  0  0  0
 69 71  1  0  0  0  0
 69 80  1  0  0  0  0
 70 82  1  0  0  0  0
 72 73  1  0  0  0  0
M  CHG  1  82   1
M  ISO  4  38 100  68 101  76 100  89 101
M  END
> <Batch ID>
0150

> <Smiles>
CNC(C)C(=O)NC(C(=O)N1Cc2cc([101O:1][101CH2:1]Cc3ccc(C4CC[100N:0]([100C:0](=O)N5CCCC(n6nc(-c7ccc(Oc8ccc(F)cc8F)cc7)c(C(N)=O)c6N)C5)CC4)c(N(C)CC4CC4)c3C)ccc2CC1C(=O)NC1CCCc2ccccc21)C(C)(C)C

> <Shape>
0.249

> <Color>
0.085

> <Negative vol penalty>
0.000

$$$$

  -OEChem-04052321413D

 89 99  0     1  0  0  0  0  0999 V2000
  -17.8500  -29.3185   24.6277 C   0  0  0  0  0  0  0  0  0  0  0  0
  -19.2373  -29.2627   24.5410 C   0  0  0  0  0  0  0  0  0  0  0  0
  -25.4285  -15.0325   22.2364 C   0  0  0  0  0  0  0  0  0  0  0  0
  -25.4050  -14.1630   19.9824 C   0  0  0  0  0  0  0  0  0  0  0  0
  -17.0669  -28.5930   23.7308 C   0  0  0  0  0  0  0  0  0  0  0  0
  -19.8425  -28.4803   23.5581 C   0  0  0  0  0  0  0  0  0  0  0  0
  -23.6545  -30.8771   21.2412 C   0  0  0  0  0  0  0  0  0  0  0  0
  -24.4461  -14.1122   22.6017 C   0  0  0  0  0  0  0  0  0  0  0  0
  -24.4227  -13.2425   20.3478 C   0  0  0  0  0  0  0  0  0  0  0  0
  -24.8692  -30.9486   21.9219 C   0  0  0  0  0  0  0  0  0  0  0  0
  -22.1672  -10.4235   20.7765 C   0  0  0  0  0  0  0  0  0  0  0  0
  -22.3205   -9.1054   20.3469 C   0  0  0  0  0  0  0  0  0  0  0  0
  -25.7101  -29.1131   20.6015 C   0  0  0  0  0  0  0  0  0  0  0  0
  -30.2785  -28.2690   25.1115 C   0  0  0  0  0  0  0  0  0  0  0  0
  -29.2385  -26.5528   23.7661 C   0  0  0  0  0  0  0  0  0  0  0  0
  -24.4171   -8.9607   21.5388 C   0  0  0  0  0  0  0  0  0  0  0  0
  -25.9079  -15.0580   20.9267 C   0  0  0  0  0  0  0  0  0  0  0  0
  -28.3176  -15.8301   20.6028 C   0  0  0  0  0  0  0  0  0  0  0  0
  -17.6626  -27.8090   22.7303 C   0  0  0  0  0  0  0  0  0  0  0  0
  -23.4545  -29.9144   20.2414 C   0  0  0  0  0  0  0  0  0  0  0  0
  -19.0666  -27.7425   22.6479 C   0  0  0  0  0  0  0  0  0  0  0  0
  -24.4929  -29.0332   19.9079 C   0  0  0  0  0  0  0  0  0  0  0  0
  -31.4468  -27.5099   25.1768 C   0  0  0  0  0  0  0  0  0  0  0  0
  -30.4069  -25.7937   23.8313 C   0  0  0  0  0  0  0  0  0  0  0  0
  -31.5111  -26.2723   24.5367 C   0  0  0  0  0  0  0  0  0  0  0  0
  -23.9432  -13.2172   21.6574 C   0  0  0  0  0  0  0  0  0  0  0  0
  -25.8962  -30.0646   21.6041 C   0  0  0  0  0  0  0  0  0  0  0  0
  -23.1389  -11.0103   21.5872 C   0  0  0  0  0  0  0  0  0  0  0  0
  -29.1743  -27.7904   24.4062 C   0  0  0  0  0  0  0  0  0  0  0  0
  -23.4454   -8.3739   20.7280 C   0  0  0  0  0  0  0  0  0  0  0  0
  -24.2638  -10.2789   21.9684 C   0  0  0  0  0  0  0  0  0  0  0  0
  -26.9223  -16.0089   20.5486 C   0  0  0  0  0  0  0  0  0  0  0  0
  -28.8339  -17.0154   20.1392 C   0  0  0  0  0  0  0  0  0  0  0  0
  -29.0790  -14.6941   21.0336 C   0  0  0  0  0  0  0  0  0  0  0  0
  -21.4646  -27.4667   19.8503 C   0  0  0  0  0  0  0  0  0  0  0  0
  -22.8353  -27.3258   16.9137 C   0  0  0  0  0  0  0  0  0  0  0  0
  -25.5232  -28.0349   14.9340 C   0  0  0  0  0  0  0  0  0  0  0  0
  -28.9508  -22.4858   19.8526 C   0  0  0  0  0  0  0  0  0  0  0  0
  -16.7752  -27.0049   21.8134 C   0  0  0  0  0  0  0  0  0  0  0  0
  -22.1477  -29.8678   19.4980 C   0  0  0  0  0  0  0  0  0  0  0  0
  -24.3358  -27.9946   18.8285 C   0  0  0  0  0  0  0  0  0  0  0  0
  -17.4911  -26.4960   20.5650 C   0  0  0  0  0  0  0  0  0  0  0  0
  -26.5925  -20.9277   17.8629 C   0  0  0  0  0  0  0  0  0  0  0  0
  -33.2138  -27.2056   27.0367 C   0  0  0  0  0  0  0  0  0  0  0  0
  -32.4309  -28.4342   27.3803 C   0  0  0  0  0  0  0  0  0  0  0  0
  -18.8381  -25.8830   20.9345 C   0  0  0  0  0  0  0  0  0  0  0  0
  -26.5745  -19.4893   18.3794 C   0  0  0  0  0  0  0  0  0  0  0  0
  -29.0756  -23.7577   23.1213 C   0  0  0  0  0  0  0  0  0  0  0  0
  -31.0035  -24.5683   21.6946 C   0  0  0  0  0  0  0  0  0  0  0  0
  -26.6902  -21.9202   19.0156 C   0  0  0  0  0  0  0  0  0  0  0  0
  -29.1189  -22.4184   22.3801 C   0  0  0  0  0  0  0  0  0  0  0  0
  -31.0187  -23.2059   21.0076 C   0  0  0  0  0  0  0  0  0  0  0  0
  -27.8683  -20.2658   20.4273 C   0  0  0  0  0  0  0  0  0  0  0  0
  -32.6152  -28.0431   25.9384 C   0  0  0  0  0  0  0  0  0  0  0  0
  -30.4499  -24.4510   23.1263 C   0  0  0  0  0  0  0  0  0  0  0  0
  -19.7599  -26.9248   21.5798 C   0  0  1  0  0  0  0  0  0  0  0  0
  -21.8754  -28.5125   18.8527 C   0  0  1  0  0  0  0  0  0  0  0  0
  -27.7773  -19.2172   19.3001 C   0  0  1  0  0  0  0  0  0  0  0  0
  -32.7641  -25.4574   24.6029 C   0  0  0  0  0  0  0  0  0  0  0  0
  -26.3669  -27.7630   12.5863 C   0  0  0  0  0  0  0  0  0  0  0  0
  -23.4344  -24.3865   17.4721 C   0  0  0  0  0  0  0  0  0  0  0  0
  -25.0646  -24.4300   15.5724 C   0  0  0  0  0  0  0  0  0  0  0  0
  -22.6457  -24.8671   15.1480 C   0  0  0  0  0  0  0  0  0  0  0  0
  -25.7033  -30.9621   14.5360 C   0  0  0  0  0  0  0  0  0  0  0  0
  -27.0470  -30.5924   23.6173 C   0  0  0  0  0  0  0  0  0  1  0  0
  -28.1775  -29.9496   24.3973 C   0  0  0  0  0  0  0  0  0  0  0  0
  -24.0341  -26.6211   16.3262 C   0  0  1  0  0  0  0  0  0  0  0  0
  -25.6213  -28.6658   13.5567 C   0  0  2  0  0  0  0  0  0  0  0  0
  -23.7973  -25.0944   16.1514 C   0  0  0  0  0  0  0  0  0  0  0  0
  -26.5743  -17.2130   20.0871 N   0  0  0  0  0  0  0  0  0  0  0  0
  -27.7583  -17.8016   19.8472 N   0  0  0  0  0  0  0  0  0  0  0  0
  -23.0373  -27.9847   18.1347 N   0  0  0  0  0  0  0  0  0  0  0  0
  -27.8419  -21.6263   19.8681 N   0  0  0  0  0  0  0  0  0  0  0  0
  -29.6942  -22.5861   21.0383 N   0  0  0  0  0  0  0  0  0  0  0  0
  -30.0984  -17.4515   19.9571 N   0  0  0  0  0  0  0  0  0  0  0  0
  -28.3898  -13.5582   21.4798 N   0  0  0  0  0  0  0  0  0  0  0  0
  -20.3299  -27.7902   20.5695 N   0  0  0  0  0  0  0  0  0  0  0  0
  -24.3529  -27.3220   15.0870 N   0  0  0  0  0  0  0  0  0  0  0  0
  -26.3406  -29.9687   13.6338 N   0  3  0  0  0  0  0  0  0  0  0  0
  -30.3333  -14.6926   21.0387 O   0  0  0  0  0  0  0  0  0  0  0  0
  -22.1272  -26.4415   19.9584 O   0  0  0  0  0  0  0  0  0  0  0  0
  -21.7611  -27.2988   16.3079 O   0  0  0  0  0  0  0  0  0  0  0  0
  -26.3990  -28.1589   15.7873 O   0  0  0  0  0  0  0  0  0  0  0  0
  -29.2594  -23.1257   18.8395 O   0  0  0  0  0  0  0  0  0  0  0  0
  -22.9848  -12.3188   22.0136 O   0  0  0  0  0  0  0  0  0  0  0  0
  -27.0906  -30.1322   22.2719 O   0  0  0  0  0  0  0  0  0  1  0  0
  -28.0342  -28.5311   24.3422 O   0  0  0  0  0  0  0  0  0  0  0  0
  -23.5918   -7.1076   20.3166 F   0  0  0  0  0  0  0  0  0  0  0  0
  -25.2000  -10.8368   22.7481 F   0  0  0  0  0  0  0  0  0  0  0  0
  1  2  1  0  0  0  0
  1  5  2  0  0  0  0
  2  6  2  0  0  0  0
  3  8  2  0  0  0  0
  3 17  1  0  0  0  0
  4  9  1  0  0  0  0
  4 17  2  0  0  0  0
  5 19  1  0  0  0  0
  6 21  1  0  0  0  0
  7 10  2  0  0  0  0
  7 20  1  0  0  0  0
  8 26  1  0  0  0  0
  9 26  2  0  0  0  0
 10 27  1  0  0  0  0
 11 12  2  0  0  0  0
 11 28  1  0  0  0  0
 12 30  1  0  0  0  0
 13 22  1  0  0  0  0
 13 27  2  0  0  0  0
 14 23  2  0  0  0  0
 14 29  1  0  0  0  0
 15 24  1  0  0  0  0
 15 29  2  0  0  0  0
 16 30  2  0  0  0  0
 16 31  1  0  0  0  0
 17 32  1  0  0  0  0
 18 32  1  0  0  0  0
 18 33  2  0  0  0  0
 18 34  1  0  0  0  0
 19 21  2  0  0  0  0
 19 39  1  0  0  0  0
 20 22  2  0  0  0  0
 20 40  1  0  0  0  0
 21 56  1  0  0  0  0
 22 41  1  0  0  0  0
 23 25  1  0  0  0  0
 23 54  1  0  0  0  0
 24 25  2  0  0  0  0
 24 55  1  0  0  0  0
 25 59  1  0  0  0  0
 26 85  1  0  0  0  0
 27 86  1  0  0  0  0
 28 31  2  0  0  0  0
 28 85  1  0  0  0  0
 29 87  1  0  0  0  0
 30 88  1  0  0  0  0
 31 89  1  0  0  0  0
 32 70  2  0  0  0  0
 33 71  1  0  0  0  0
 33 75  1  0  0  0  0
 34 76  1  0  0  0  0
 34 80  2  0  0  0  0
 35 57  1  0  0  0  0
 35 77  1  0  0  0  0
 35 81  2  0  0  0  0
 36 67  1  0  0  0  0
 36 72  1  0  0  0  0
 36 82  2  0  0  0  0
 37 68  1  0  0  0  0
 37 78  1  0  0  0  0
 37 83  2  0  0  0  0
 38 73  1  0  0  0  0
 38 74  1  0  0  0  0
 38 84  2  0  0  0  0
 39 42  1  0  0  0  0
 40 57  1  0  0  0  0
 41 72  1  0  0  0  0
 42 46  1  0  0  0  0
 43 47  1  0  0  0  0
 43 50  1  0  0  0  0
 44 45  1  0  0  0  0
 44 54  1  0  0  0  0
 45 54  1  0  0  0  0
 46 56  1  0  0  0  0
 47 58  1  0  0  0  0
 48 51  1  0  0  0  0
 48 55  1  0  0  0  0
 49 52  1  0  0  0  0
 49 55  1  0  0  0  0
 50 73  1  0  0  0  0
 51 74  1  0  0  0  0
 52 74  1  0  0  0  0
 53 58  1  0  0  0  0
 53 73  1  0  0  0  0
 56 77  1  0  0  0  0
 57 72  1  0  0  0  0
 58 71  1  0  0  0  0
 60 68  1  0  0  0  0
 61 69  1  0  0  0  0
 62 69  1  0  0  0  0
 63 69  1  0  0  0  0
 64 79  1  0  0  0  0
 65 66  1  0  0  0  0
 65 86  1  0  0  0  0
 66 87  1  0  0  0  0
 67 69  1  0  0  0  0
 67 78  1  0  0  0  0
 68 79  1  0  0  0  0
 70 71  1  0  0  0  0
M  CHG  1  79   1
M  ISO  4  38 100  65 101  74 100  86 101
M  END
> <Batch ID>
0150

> <Smiles>
CNC(C)C(=O)NC(C(=O)N1Cc2cc([101O:1][101CH2:1]COc3cc(C4CC4)c(C)c(C4CC[100N:0]([100C:0](=O)N5CCCC(n6nc(-c7ccc(Oc8ccc(F)cc8F)cc7)c(C(N)=O)c6N)C5)CC4)c3)ccc2CC1C(=O)NC1CCCc2ccccc21)C(C)(C)C

> <Shape>
0.265

> <Color>
0.082

> <Negative vol penalty>
0.000

$$$$

  -OEChem-04052321413D

 86 95  0     1  0  0  0  0  0999 V2000
  -24.2100  -36.1805   23.1768 C   0  0  0  0  0  0  0  0  0  0  0  0
  -24.8527  -35.0795   22.6200 C   0  0  0  0  0  0  0  0  0  0  0  0
  -23.0215   -9.8662   20.1473 C   0  0  0  0  0  0  0  0  0  0  0  0
  -23.7358  -10.0838   22.4450 C   0  0  0  0  0  0  0  0  0  0  0  0
  -23.2014  -35.9935   24.1211 C   0  0  0  0  0  0  0  0  0  0  0  0
  -24.4881  -33.7908   23.0081 C   0  0  0  0  0  0  0  0  0  0  0  0
  -30.8949  -21.4254   20.1517 C   0  0  0  0  0  0  0  0  0  0  0  0
  -24.3953  -28.7755   19.4946 C   0  0  0  0  0  0  0  0  0  0  0  0
  -22.2280   -8.7738   20.4973 C   0  0  0  0  0  0  0  0  0  0  0  0
  -22.9422   -8.9913   22.7951 C   0  0  0  0  0  0  0  0  0  0  0  0
  -30.1132  -22.5061   19.7436 C   0  0  0  0  0  0  0  0  0  0  0  0
  -25.3000  -27.7272   19.3322 C   0  0  0  0  0  0  0  0  0  0  0  0
  -19.6739   -8.3811   23.4002 C   0  0  0  0  0  0  0  0  0  0  0  0
  -18.8931   -8.4914   24.5507 C   0  0  0  0  0  0  0  0  0  0  0  0
  -28.9174  -20.3030   20.9681 C   0  0  0  0  0  0  0  0  0  0  0  0
  -24.0539  -26.4128   20.9255 C   0  0  0  0  0  0  0  0  0  0  0  0
  -20.0425   -6.5964   25.5125 C   0  0  0  0  0  0  0  0  0  0  0  0
  -23.7754  -10.5212   21.1211 C   0  0  0  0  0  0  0  0  0  0  0  0
  -24.2188  -13.0057   20.7490 C   0  0  0  0  0  0  0  0  0  0  0  0
  -30.2970  -20.3239   20.7639 C   0  0  0  0  0  0  0  0  0  0  0  0
  -22.8175  -34.7016   24.5139 C   0  0  0  0  0  0  0  0  0  0  0  0
  -23.3175  -28.6542   20.3834 C   0  0  0  0  0  0  0  0  0  0  0  0
  -23.4743  -33.5863   23.9596 C   0  0  0  0  0  0  0  0  0  0  0  0
  -23.1355  -27.4601   21.0956 C   0  0  0  0  0  0  0  0  0  0  0  0
  -28.1355  -21.3837   20.5600 C   0  0  0  0  0  0  0  0  0  0  0  0
  -22.1883   -8.3364   21.8212 C   0  0  0  0  0  0  0  0  0  0  0  0
  -25.1311  -26.5467   20.0498 C   0  0  0  0  0  0  0  0  0  0  0  0
  -28.7335  -22.4852   19.9477 C   0  0  0  0  0  0  0  0  0  0  0  0
  -20.6390   -7.3783   23.3058 C   0  0  0  0  0  0  0  0  0  0  0  0
  -19.0773   -7.5991   25.6069 C   0  0  0  0  0  0  0  0  0  0  0  0
  -20.8233   -6.4860   24.3620 C   0  0  0  0  0  0  0  0  0  0  0  0
  -24.5958  -11.6494   20.7600 C   0  0  0  0  0  0  0  0  0  0  0  0
  -25.3466  -13.6722   20.3362 C   0  0  0  0  0  0  0  0  0  0  0  0
  -22.9616  -13.6091   21.0822 C   0  0  0  0  0  0  0  0  0  0  0  0
  -22.3987  -30.1795   23.0165 C   0  0  0  0  0  0  0  0  0  0  0  0
  -19.7775  -28.2905   22.7274 C   0  0  0  0  0  0  0  0  0  0  0  0
  -18.4000  -25.4119   21.5178 C   0  0  0  0  0  0  0  0  0  0  0  0
  -30.8614  -14.5009   20.5480 C   0  0  0  0  0  0  0  0  0  0  0  0
  -21.7545  -34.5506   25.5730 C   0  0  0  0  0  0  0  0  0  0  0  0
  -22.3353  -29.7842   20.5274 C   0  0  0  0  0  0  0  0  0  0  0  0
  -21.9832  -27.2719   22.0471 C   0  0  0  0  0  0  0  0  0  0  0  0
  -21.1699  -33.1428   25.6530 C   0  0  0  0  0  0  0  0  0  0  0  0
  -29.6780  -11.9248   18.3941 C   0  0  0  0  0  0  0  0  0  0  0  0
  -31.0847  -18.8522   22.7183 C   0  0  0  0  0  0  0  0  0  0  0  0
  -22.2837  -32.1006   25.6391 C   0  0  0  0  0  0  0  0  0  0  0  0
  -28.2218  -11.7313   18.8209 C   0  0  0  0  0  0  0  0  0  0  0  0
  -30.5236  -17.4381   22.8407 C   0  0  0  0  0  0  0  0  0  0  0  0
  -30.7487  -17.8387   20.5030 C   0  0  0  0  0  0  0  0  0  0  0  0
  -30.5793  -12.2352   19.5871 C   0  0  0  0  0  0  0  0  0  0  0  0
  -28.6809  -13.1768   20.8454 C   0  0  0  0  0  0  0  0  0  0  0  0
  -31.1450  -19.1519   21.2049 C   0  0  1  0  0  0  0  0  0  0  0  0
  -23.0899  -32.1721   24.3366 C   0  0  1  0  0  0  0  0  0  0  0  0
  -21.5661  -29.7432   21.8442 C   0  0  1  0  0  0  0  0  0  0  0  0
  -27.7240  -12.9169   19.6693 C   0  0  2  0  0  0  0  0  0  0  0  0
  -30.9876  -16.7647   21.5574 C   0  0  2  0  0  0  0  0  0  0  0  0
  -26.6599  -21.3442   20.7851 C   0  0  0  0  0  0  0  0  0  0  0  0
  -16.2461  -24.1250   21.4756 C   0  0  0  0  0  0  0  0  0  0  0  0
  -20.2557  -27.4005   25.6065 C   0  0  0  0  0  0  0  0  0  0  0  0
  -18.7116  -25.4735   25.1938 C   0  0  0  0  0  0  0  0  0  0  0  0
  -17.8581  -27.8115   25.0262 C   0  0  0  0  0  0  0  0  0  0  0  0
  -18.2281  -25.5710   18.5675 C   0  0  0  0  0  0  0  0  0  0  0  0
  -27.3571  -25.8673   19.5611 C   0  0  0  0  0  0  0  0  0  1  0  0
  -28.2925  -24.8154   20.1252 C   0  0  0  0  0  0  0  0  0  0  0  0
  -19.3886  -26.9185   23.2229 C   0  0  1  0  0  0  0  0  0  0  0  0
  -17.1096  -25.1531   20.7614 C   0  0  2  0  0  0  0  0  0  0  0  0
  -19.0764  -26.9050   24.7460 C   0  0  0  0  0  0  0  0  0  0  0  0
  -25.8639  -11.4636   20.3839 N   0  0  0  0  0  0  0  0  0  0  0  0
  -26.2935  -12.7119   20.1326 N   0  0  0  0  0  0  0  0  0  0  0  0
  -21.0534  -28.4080   22.1580 N   0  0  0  0  0  0  0  0  0  0  0  0
  -30.0523  -13.3701   20.3488 N   0  0  0  0  0  0  0  0  0  0  0  0
  -25.6106  -14.9801   20.1310 N   0  0  0  0  0  0  0  0  0  0  0  0
  -21.9082  -12.7782   21.4875 N   0  0  0  0  0  0  0  0  0  0  0  0
  -22.3627  -31.5398   23.2568 N   0  0  0  0  0  0  0  0  0  0  0  0
  -18.2802  -26.4799   22.3818 N   0  0  0  0  0  0  0  0  0  0  0  0
  -30.2829  -15.5340   21.2752 N   0  0  0  0  0  0  0  0  0  0  0  0
  -17.4049  -24.6481   19.3907 N   0  3  0  0  0  0  0  0  0  0  0  0
  -22.7729  -14.8470   21.0065 O   0  0  0  0  0  0  0  0  0  0  0  0
  -23.0260  -29.3437   23.6564 O   0  0  0  0  0  0  0  0  0  0  0  0
  -18.9760  -29.2220   22.8350 O   0  0  0  0  0  0  0  0  0  0  0  0
  -19.4119  -24.7322   21.3609 O   0  0  0  0  0  0  0  0  0  0  0  0
  -32.0121  -14.5859   20.1057 O   0  0  0  0  0  0  0  0  0  0  0  0
  -21.4140   -7.2706   22.1632 O   0  0  0  0  0  0  0  0  0  0  0  0
  -26.0130  -25.5222   19.8936 O   0  0  0  0  0  0  0  0  0  1  0  0
  -27.9811  -23.5560   19.5420 O   0  0  0  0  0  0  0  0  0  0  0  0
  -18.3285   -7.7062   26.7123 F   0  0  0  0  0  0  0  0  0  0  0  0
  -21.7497   -5.5214   24.2776 F   0  0  0  0  0  0  0  0  0  0  0  0
  1  2  1  0  0  0  0
  1  5  2  0  0  0  0
  2  6  2  0  0  0  0
  3  9  2  0  0  0  0
  3 18  1  0  0  0  0
  4 10  1  0  0  0  0
  4 18  2  0  0  0  0
  5 21  1  0  0  0  0
  6 23  1  0  0  0  0
  7 11  2  0  0  0  0
  7 20  1  0  0  0  0
  8 12  2  0  0  0  0
  8 22  1  0  0  0  0
  9 26  1  0  0  0  0
 10 26  2  0  0  0  0
 11 28  1  0  0  0  0
 12 27  1  0  0  0  0
 13 14  2  0  0  0  0
 13 29  1  0  0  0  0
 14 30  1  0  0  0  0
 15 20  2  0  0  0  0
 15 25  1  0  0  0  0
 16 24  1  0  0  0  0
 16 27  2  0  0  0  0
 17 30  2  0  0  0  0
 17 31  1  0  0  0  0
 18 32  1  0  0  0  0
 19 32  1  0  0  0  0
 19 33  2  0  0  0  0
 19 34  1  0  0  0  0
 20 51  1  0  0  0  0
 21 23  2  0  0  0  0
 21 39  1  0  0  0  0
 22 24  2  0  0  0  0
 22 40  1  0  0  0  0
 23 52  1  0  0  0  0
 24 41  1  0  0  0  0
 25 28  2  0  0  0  0
 25 56  1  0  0  0  0
 26 82  1  0  0  0  0
 27 83  1  0  0  0  0
 28 84  1  0  0  0  0
 29 31  2  0  0  0  0
 29 82  1  0  0  0  0
 30 85  1  0  0  0  0
 31 86  1  0  0  0  0
 32 67  2  0  0  0  0
 33 68  1  0  0  0  0
 33 71  1  0  0  0  0
 34 72  1  0  0  0  0
 34 77  2  0  0  0  0
 35 53  1  0  0  0  0
 35 73  1  0  0  0  0
 35 78  2  0  0  0  0
 36 64  1  0  0  0  0
 36 69  1  0  0  0  0
 36 79  2  0  0  0  0
 37 65  1  0  0  0  0
 37 74  1  0  0  0  0
 37 80  2  0  0  0  0
 38 70  1  0  0  0  0
 38 75  1  0  0  0  0
 38 81  2  0  0  0  0
 39 42  1  0  0  0  0
 40 53  1  0  0  0  0
 41 69  1  0  0  0  0
 42 45  1  0  0  0  0
 43 46  1  0  0  0  0
 43 49  1  0  0  0  0
 44 47  1  0  0  0  0
 44 51  1  0  0  0  0
 45 52  1  0  0  0  0
 46 54  1  0  0  0  0
 47 55  1  0  0  0  0
 48 51  1  0  0  0  0
 48 55  1  0  0  0  0
 49 70  1  0  0  0  0
 50 54  1  0  0  0  0
 50 70  1  0  0  0  0
 52 73  1  0  0  0  0
 53 69  1  0  0  0  0
 54 68  1  0  0  0  0
 55 75  1  0  0  0  0
 57 65  1  0  0  0  0
 58 66  1  0  0  0  0
 59 66  1  0  0  0  0
 60 66  1  0  0  0  0
 61 76  1  0  0  0  0
 62 63  1  0  0  0  0
 62 83  1  0  0  0  0
 63 84  1  0  0  0  0
 64 66  1  0  0  0  0
 64 74  1  0  0  0  0
 65 76  1  0  0  0  0
 67 68  1  0  0  0  0
M  CHG  1  76   1
M  ISO  4  38 100  62 101  75 100  83 101
M  END
> <Batch ID>
0150

> <Smiles>
CNC(C)C(=O)NC(C(=O)N1Cc2cc([101O:1][101CH2:1]COc3ccc(C4CCC([100NH:0][100C:0](=O)N5CCCC(n6nc(-c7ccc(Oc8ccc(F)cc8F)cc7)c(C(N)=O)c6N)C5)C4)cc3C)ccc2CC1C(=O)NC1CCCc2ccccc21)C(C)(C)C

> <Shape>
0.359

> <Color>
0.192

> <Negative vol penalty>
0.000

$$$$

  -OEChem-04052321413D

 93103  0     1  0  0  0  0  0999 V2000
  -21.1927  -19.7423   25.9117 C   0  0  0  0  0  0  0  0  0  0  0  0
  -21.8177  -20.5257   24.9468 C   0  0  0  0  0  0  0  0  0  0  0  0
  -22.4590  -17.6205   19.2011 C   0  0  0  0  0  0  0  0  0  0  0  0
  -20.7235  -17.5732   20.8812 C   0  0  0  0  0  0  0  0  0  0  0  0
  -21.9549  -18.9254   26.7456 C   0  0  0  0  0  0  0  0  0  0  0  0
  -23.2056  -20.4934   24.8160 C   0  0  0  0  0  0  0  0  0  0  0  0
  -23.8466  -28.5774   20.9610 C   0  0  0  0  0  0  0  0  0  0  0  0
  -25.1045  -28.0681   20.6386 C   0  0  0  0  0  0  0  0  0  0  0  0
  -26.4281  -21.0091   19.6338 C   0  0  0  0  0  0  0  0  0  0  0  0
  -22.7384  -16.2771   19.4519 C   0  0  0  0  0  0  0  0  0  0  0  0
  -21.0029  -16.2298   21.1320 C   0  0  0  0  0  0  0  0  0  0  0  0
  -27.0877  -22.0858   19.0426 C   0  0  0  0  0  0  0  0  0  0  0  0
  -24.4097  -14.4717   21.7696 C   0  0  0  0  0  0  0  0  0  0  0  0
  -25.7489  -14.1001   21.8873 C   0  0  0  0  0  0  0  0  0  0  0  0
  -24.8744  -30.6166   21.7498 C   0  0  0  0  0  0  0  0  0  0  0  0
  -29.1586  -21.3592   20.0440 C   0  0  0  0  0  0  0  0  0  0  0  0
  -25.4927  -12.5859   20.0222 C   0  0  0  0  0  0  0  0  0  0  0  0
  -21.4516  -18.2686   19.9158 C   0  0  0  0  0  0  0  0  0  0  0  0
  -20.2449  -20.1744   18.7243 C   0  0  0  0  0  0  0  0  0  0  0  0
  -23.7315  -29.8517   21.5166 C   0  0  0  0  0  0  0  0  0  0  0  0
  -23.3521  -18.8757   26.6186 C   0  0  0  0  0  0  0  0  0  0  0  0
  -27.1278  -20.1040   20.4447 C   0  0  0  0  0  0  0  0  0  0  0  0
  -23.9874  -19.6760   25.6499 C   0  0  0  0  0  0  0  0  0  0  0  0
  -26.2473  -28.8330   20.8719 C   0  0  0  0  0  0  0  0  0  0  0  0
  -28.5060  -20.2704   20.6422 C   0  0  0  0  0  0  0  0  0  0  0  0
  -26.1323  -30.1073   21.4275 C   0  0  0  0  0  0  0  0  0  0  0  0
  -22.0104  -15.5818   20.4174 C   0  0  0  0  0  0  0  0  0  0  0  0
  -28.4525  -22.2626   19.2500 C   0  0  0  0  0  0  0  0  0  0  0  0
  -23.6119  -13.9003   20.7782 C   0  0  0  0  0  0  0  0  0  0  0  0
  -26.2905  -13.1572   21.0136 C   0  0  0  0  0  0  0  0  0  0  0  0
  -24.1534  -12.9575   19.9045 C   0  0  0  0  0  0  0  0  0  0  0  0
  -21.1628  -19.6564   19.6576 C   0  0  0  0  0  0  0  0  0  0  0  0
  -20.3435  -21.5370   18.8657 C   0  0  0  0  0  0  0  0  0  0  0  0
  -19.3804  -19.4854   17.8113 C   0  0  0  0  0  0  0  0  0  0  0  0
  -26.9564  -19.2300   23.4960 C   0  0  0  0  0  0  0  0  0  0  0  0
  -29.1824  -17.0505   22.5924 C   0  0  0  0  0  0  0  0  0  0  0  0
  -31.6528  -16.1665   20.4100 C   0  0  0  0  0  0  0  0  0  0  0  0
  -21.0430  -25.4403   22.9506 C   0  0  0  0  0  0  0  0  0  0  0  0
  -24.1377  -18.0131   27.5743 C   0  0  0  0  0  0  0  0  0  0  0  0
  -26.4070  -18.9326   21.0535 C   0  0  0  0  0  0  0  0  0  0  0  0
  -29.3070  -19.3153   21.4876 C   0  0  0  0  0  0  0  0  0  0  0  0
  -25.5723  -17.7532   27.1216 C   0  0  0  0  0  0  0  0  0  0  0  0
  -23.7534  -24.6132   20.6995 C   0  0  0  0  0  0  0  0  0  0  0  0
  -20.2271  -31.1740   21.1895 C   0  0  0  0  0  0  0  0  0  0  0  0
  -26.2302  -19.0503   26.6619 C   0  0  0  0  0  0  0  0  0  0  0  0
  -21.6668  -31.1237   20.7172 C   0  0  0  0  0  0  0  0  0  0  0  0
  -23.2641  -23.2902   20.1075 C   0  0  0  0  0  0  0  0  0  0  0  0
  -27.8493  -26.9858   21.3285 C   0  0  0  0  0  0  0  0  0  0  0  0
  -27.6587  -27.9765   19.0114 C   0  0  0  0  0  0  0  0  0  0  0  0
  -23.3851  -24.7281   22.1758 C   0  0  0  0  0  0  0  0  0  0  0  0
  -21.4406  -23.2447   21.8718 C   0  0  0  0  0  0  0  0  0  0  0  0
  -19.9888  -29.7928   21.7688 C   0  0  0  0  0  0  0  0  0  0  0  0
  -29.1693  -26.3369   20.9320 C   0  0  0  0  0  0  0  0  0  0  0  0
  -28.9803  -27.3203   18.6327 C   0  0  0  0  0  0  0  0  0  0  0  0
  -27.5845  -28.2657   20.5193 C   0  0  0  0  0  0  0  0  0  0  0  0
  -25.4886  -19.6496   25.4608 C   0  0  1  0  0  0  0  0  0  0  0  0
  -22.3715  -30.4018   21.8654 C   0  0  1  0  0  0  0  0  0  0  0  0
  -27.1176  -18.3647   22.2783 C   0  0  1  0  0  0  0  0  0  0  0  0
  -21.7624  -23.0778   20.3755 C   0  0  2  0  0  0  0  0  0  0  0  0
  -27.3419  -30.9443   21.6864 C   0  0  0  0  0  0  0  0  0  0  0  0
  -33.3959  -14.7222   19.3269 C   0  0  0  0  0  0  0  0  0  0  0  0
  -30.9274  -18.0705   24.8781 C   0  0  0  0  0  0  0  0  0  0  0  0
  -32.8793  -16.9268   23.8057 C   0  0  0  0  0  0  0  0  0  0  0  0
  -30.9288  -15.5859   24.5932 C   0  0  0  0  0  0  0  0  0  0  0  0
  -29.6746  -14.9576   18.5704 C   0  0  0  0  0  0  0  0  0  0  0  0
  -20.7995  -27.6680   24.0160 C   0  0  0  0  0  0  0  0  0  0  0  0
  -21.3571  -29.0562   23.7628 C   0  0  0  0  0  0  0  0  0  0  0  0
  -30.3974  -25.3067   19.0228 C   0  0  0  0  0  0  0  0  0  0  0  0
  -30.2276  -23.8408   19.3698 C   0  0  0  0  0  0  0  0  0  1  0  0
  -30.6905  -17.0260   22.5289 C   0  0  1  0  0  0  0  0  0  0  0  0
  -31.9200  -14.8734   19.6611 C   0  0  2  0  0  0  0  0  0  0  0  0
  -31.3413  -16.9216   23.9371 C   0  0  0  0  0  0  0  0  0  0  0  0
  -21.7979  -20.6121   20.3412 N   0  0  0  0  0  0  0  0  0  0  0  0
  -21.2783  -21.7443   19.8369 N   0  0  0  0  0  0  0  0  0  0  0  0
  -28.5558  -18.1892   22.0665 N   0  0  0  0  0  0  0  0  0  0  0  0
  -21.9398  -24.5345   22.3602 N   0  0  0  0  0  0  0  0  0  0  0  0
  -19.7210  -22.5661   18.2526 N   0  0  0  0  0  0  0  0  0  0  0  0
  -19.4050  -18.0841   17.7962 N   0  0  0  0  0  0  0  0  0  0  0  0
  -25.8340  -18.9396   24.2480 N   0  0  0  0  0  0  0  0  0  0  0  0
  -31.0434  -15.9363   21.6253 N   0  0  0  0  0  0  0  0  0  0  0  0
  -21.5972  -26.6353   23.3930 N   0  0  0  0  0  0  0  0  0  0  0  0
  -29.1843  -26.0532   19.4417 N   0  3  0  0  0  0  0  0  0  0  0  0
  -21.3434  -29.3478   22.2932 N   0  3  1  0  0  0  0  0  0  0  0  0
  -31.1445  -14.8418   18.3889 N   0  3  0  0  0  0  0  0  0  0  0  0
  -18.6209  -20.0946   17.0204 O   0  0  0  0  0  0  0  0  0  0  0  0
  -27.7894  -20.0960   23.7364 O   0  0  0  0  0  0  0  0  0  0  0  0
  -28.5822  -16.0914   23.0837 O   0  0  0  0  0  0  0  0  0  0  0  0
  -31.9578  -17.2701   19.9633 O   0  0  0  0  0  0  0  0  0  0  0  0
  -19.8360  -25.2040   23.0699 O   0  0  0  0  0  0  0  0  0  0  0  0
  -22.2826  -14.2709   20.6622 O   0  0  0  0  0  0  0  0  0  0  0  0
  -29.0986  -23.3130   18.6746 O   0  0  0  0  0  0  0  0  0  1  0  0
  -27.5770  -12.8016   21.1257 F   0  0  0  0  0  0  0  0  0  0  0  0
  -23.3922  -12.4060   18.9494 F   0  0  0  0  0  0  0  0  0  0  0  0
  1  2  1  0  0  0  0
  1  5  2  0  0  0  0
  2  6  2  0  0  0  0
  3 10  2  0  0  0  0
  3 18  1  0  0  0  0
  4 11  1  0  0  0  0
  4 18  2  0  0  0  0
  5 21  1  0  0  0  0
  6 23  1  0  0  0  0
  7  8  2  0  0  0  0
  7 20  1  0  0  0  0
  8 24  1  0  0  0  0
  9 12  2  0  0  0  0
  9 22  1  0  0  0  0
 10 27  1  0  0  0  0
 11 27  2  0  0  0  0
 12 28  1  0  0  0  0
 13 14  2  0  0  0  0
 13 29  1  0  0  0  0
 14 30  1  0  0  0  0
 15 20  2  0  0  0  0
 15 26  1  0  0  0  0
 16 25  1  0  0  0  0
 16 28  2  0  0  0  0
 17 30  2  0  0  0  0
 17 31  1  0  0  0  0
 18 32  1  0  0  0  0
 19 32  1  0  0  0  0
 19 33  2  0  0  0  0
 19 34  1  0  0  0  0
 20 57  1  0  0  0  0
 21 23  2  0  0  0  0
 21 39  1  0  0  0  0
 22 25  2  0  0  0  0
 22 40  1  0  0  0  0
 23 56  1  0  0  0  0
 24 26  2  0  0  0  0
 24 55  1  0  0  0  0
 25 41  1  0  0  0  0
 26 60  1  0  0  0  0
 27 90  1  0  0  0  0
 28 91  1  0  0  0  0
 29 31  2  0  0  0  0
 29 90  1  0  0  0  0
 30 92  1  0  0  0  0
 31 93  1  0  0  0  0
 32 73  2  0  0  0  0
 33 74  1  0  0  0  0
 33 77  1  0  0  0  0
 34 78  1  0  0  0  0
 34 85  2  0  0  0  0
 35 58  1  0  0  0  0
 35 79  1  0  0  0  0
 35 86  2  0  0  0  0
 36 70  1  0  0  0  0
 36 75  1  0  0  0  0
 36 87  2  0  0  0  0
 37 71  1  0  0  0  0
 37 80  1  0  0  0  0
 37 88  2  0  0  0  0
 38 76  1  0  0  0  0
 38 81  1  0  0  0  0
 38 89  2  0  0  0  0
 39 42  1  0  0  0  0
 40 58  1  0  0  0  0
 41 75  1  0  0  0  0
 42 45  1  0  0  0  0
 43 47  1  0  0  0  0
 43 50  1  0  0  0  0
 44 46  1  0  0  0  0
 44 52  1  0  0  0  0
 45 56  1  0  0  0  0
 46 57  1  0  0  0  0
 47 59  1  0  0  0  0
 48 53  1  0  0  0  0
 48 55  1  0  0  0  0
 49 54  1  0  0  0  0
 49 55  1  0  0  0  0
 50 76  1  0  0  0  0
 51 59  1  0  0  0  0
 51 76  1  0  0  0  0
 52 83  1  0  0  0  0
 53 82  1  0  0  0  0
 54 82  1  0  0  0  0
 56 79  1  0  0  0  0
 57 83  1  0  0  0  0
 58 75  1  0  0  0  0
 59 74  1  0  0  0  0
 61 71  1  0  0  0  0
 62 72  1  0  0  0  0
 63 72  1  0  0  0  0
 64 72  1  0  0  0  0
 65 84  1  0  0  0  0
 66 67  1  0  0  0  0
 66 81  1  0  0  0  0
 67 83  1  0  0  0  0
 68 69  1  0  0  0  0
 68 82  1  0  0  0  0
 69 91  1  0  0  0  0
 70 72  1  0  0  0  0
 70 80  1  0  0  0  0
 71 84  1  0  0  0  0
 73 74  1  0  0  0  0
M  CHG  3  82   1  83   1  84   1
M  ISO  4  38 100  69 101  81 100  91 101
M  END
> <Batch ID>
0150

> <Smiles>
CNC(C)C(=O)NC(C(=O)N1Cc2cc([101O:1][101CH2:1]CN3CCC(c4ccc(C5CCCN5CC[100NH:0][100C:0](=O)N5CCCC(n6nc(-c7ccc(Oc8ccc(F)cc8F)cc7)c(C(N)=O)c6N)C5)cc4C)CC3)ccc2CC1C(=O)NC1CCCc2ccccc21)C(C)(C)C

> <Shape>
0.215

> <Color>
0.066

> <Negative vol penalty>
0.000

$$$$

  -OEChem-04052321413D

 86 95  0     1  0  0  0  0  0999 V2000
  -29.0282  -34.0549   26.0713 C   0  0  0  0  0  0  0  0  0  0  0  0
  -29.1634  -32.8571   25.3768 C   0  0  0  0  0  0  0  0  0  0  0  0
  -24.6543   -9.1157   21.8368 C   0  0  0  0  0  0  0  0  0  0  0  0
  -22.9539  -10.3393   20.6333 C   0  0  0  0  0  0  0  0  0  0  0  0
  -27.7654  -34.4868   26.4747 C   0  0  0  0  0  0  0  0  0  0  0  0
  -28.0359  -32.0899   25.0860 C   0  0  0  0  0  0  0  0  0  0  0  0
  -27.0858  -28.6918   20.0804 C   0  0  0  0  0  0  0  0  0  0  0  0
  -23.6635   -8.4192   22.5286 C   0  0  0  0  0  0  0  0  0  0  0  0
  -21.9630   -9.6426   21.3251 C   0  0  0  0  0  0  0  0  0  0  0  0
  -27.2287  -27.3274   19.8320 C   0  0  0  0  0  0  0  0  0  0  0  0
  -21.5733   -5.8260   21.9463 C   0  0  0  0  0  0  0  0  0  0  0  0
  -21.7243   -4.4458   22.0798 C   0  0  0  0  0  0  0  0  0  0  0  0
  -25.3231  -19.4996   20.1855 C   0  0  0  0  0  0  0  0  0  0  0  0
  -24.8789  -27.0071   20.2738 C   0  0  0  0  0  0  0  0  0  0  0  0
  -23.0196  -19.2908   18.6257 C   0  0  0  0  0  0  0  0  0  0  0  0
  -21.7316   -4.6793   24.4845 C   0  0  0  0  0  0  0  0  0  0  0  0
  -24.2995  -10.0758   20.8891 C   0  0  0  0  0  0  0  0  0  0  0  0
  -25.9239  -10.4325   18.9548 C   0  0  0  0  0  0  0  0  0  0  0  0
  -26.6207  -33.7293   26.1803 C   0  0  0  0  0  0  0  0  0  0  0  0
  -25.8386  -29.2233   20.4387 C   0  0  0  0  0  0  0  0  0  0  0  0
  -26.7567  -32.5114   25.4870 C   0  0  0  0  0  0  0  0  0  0  0  0
  -24.4530  -20.5845   20.0779 C   0  0  0  0  0  0  0  0  0  0  0  0
  -24.7223  -28.3790   20.5238 C   0  0  0  0  0  0  0  0  0  0  0  0
  -23.3013  -20.4801   19.2980 C   0  0  0  0  0  0  0  0  0  0  0  0
  -25.0416  -18.3104   19.5130 C   0  0  0  0  0  0  0  0  0  0  0  0
  -22.3179   -8.6826   22.2728 C   0  0  0  0  0  0  0  0  0  0  0  0
  -26.1257  -26.4843   19.9315 C   0  0  0  0  0  0  0  0  0  0  0  0
  -21.5015   -6.6329   23.0818 C   0  0  0  0  0  0  0  0  0  0  0  0
  -23.8898  -18.2060   18.7332 C   0  0  0  0  0  0  0  0  0  0  0  0
  -21.8035   -3.8724   23.3489 C   0  0  0  0  0  0  0  0  0  0  0  0
  -21.5806   -6.0595   24.3509 C   0  0  0  0  0  0  0  0  0  0  0  0
  -25.3226  -10.7961   20.1746 C   0  0  0  0  0  0  0  0  0  0  0  0
  -26.8247  -11.4382   18.7027 C   0  0  0  0  0  0  0  0  0  0  0  0
  -25.6891   -9.2879   18.1238 C   0  0  0  0  0  0  0  0  0  0  0  0
  -24.6931  -30.7334   22.9903 C   0  0  0  0  0  0  0  0  0  0  0  0
  -22.0508  -31.0469   21.1350 C   0  0  0  0  0  0  0  0  0  0  0  0
  -20.1958  -29.8874   18.5155 C   0  0  0  0  0  0  0  0  0  0  0  0
  -27.1174  -17.1688   20.3699 C   0  0  0  0  0  0  0  0  0  0  0  0
  -25.2820  -34.2134   26.6782 C   0  0  0  0  0  0  0  0  0  0  0  0
  -25.6956  -30.7015   20.6773 C   0  0  0  0  0  0  0  0  0  0  0  0
  -23.3573  -28.9031   20.8851 C   0  0  0  0  0  0  0  0  0  0  0  0
  -24.0968  -33.5277   26.0033 C   0  0  0  0  0  0  0  0  0  0  0  0
  -29.5715  -14.6548   20.9484 C   0  0  0  0  0  0  0  0  0  0  0  0
  -24.3105  -32.0182   25.9543 C   0  0  0  0  0  0  0  0  0  0  0  0
  -28.8167  -13.3471   20.6986 C   0  0  0  0  0  0  0  0  0  0  0  0
  -24.8956  -21.7842   22.3156 C   0  0  0  0  0  0  0  0  0  0  0  0
  -23.7021  -22.4429   21.6977 C   0  0  0  0  0  0  0  0  0  0  0  0
  -28.6851  -15.7017   21.6208 C   0  0  0  0  0  0  0  0  0  0  0  0
  -26.6564  -14.6587   20.6903 C   0  0  0  0  0  0  0  0  0  0  0  0
  -25.5547  -31.6636   25.1312 C   0  0  1  0  0  0  0  0  0  0  0  0
  -24.4855  -31.0536   21.5370 C   0  0  1  0  0  0  0  0  0  0  0  0
  -27.4894  -13.5956   19.9557 C   0  0  2  0  0  0  0  0  0  0  0  0
  -24.7738  -21.8457   20.8036 C   0  0  0  0  0  0  0  0  0  0  0  0
  -22.3533  -21.6270   19.1667 C   0  0  0  0  0  0  0  0  0  0  0  0
  -18.0667  -30.3271   17.2621 C   0  0  0  0  0  0  0  0  0  0  0  0
  -27.1414  -22.4775   20.3200 C   0  0  0  0  0  0  0  0  0  0  0  0
  -20.4529  -29.8057   23.4188 C   0  0  0  0  0  0  0  0  0  0  0  0
  -18.5869  -29.3994   21.7998 C   0  0  0  0  0  0  0  0  0  0  0  0
  -19.3292  -31.7309   22.2852 C   0  0  0  0  0  0  0  0  0  0  0  0
  -21.6509  -30.3851   15.9868 C   0  0  0  0  0  0  0  0  0  0  0  0
  -22.8117  -16.0864   18.7620 C   0  0  0  0  0  0  0  0  0  0  0  0
  -25.3866  -24.2715   20.3927 C   0  0  0  0  0  0  0  0  0  1  0  0
  -20.8085  -30.2232   20.8959 C   0  0  1  0  0  0  0  0  0  0  0  0
  -19.5605  -30.6023   17.3366 C   0  0  2  0  0  0  0  0  0  0  0  0
  -25.6946  -22.8085   20.0522 C   0  0  2  0  0  0  0  0  0  0  0  0
  -19.8203  -30.2793   22.0950 C   0  0  0  0  0  0  0  0  0  0  0  0
  -25.8011  -11.9433   20.6636 N   0  0  0  0  0  0  0  0  0  0  0  0
  -26.7128  -12.3090   19.7464 N   0  0  0  0  0  0  0  0  0  0  0  0
  -23.2699  -30.3546   21.1152 N   0  0  0  0  0  0  0  0  0  0  0  0
  -27.4481  -15.8874   20.8592 N   0  0  0  0  0  0  0  0  0  0  0  0
  -27.6938  -11.6537   17.6924 N   0  0  0  0  0  0  0  0  0  0  0  0
  -24.7285   -8.3522   18.5312 N   0  0  0  0  0  0  0  0  0  0  0  0
  -25.9348  -17.2169   19.6325 N   0  0  0  0  0  0  0  0  0  0  0  0
  -25.2685  -31.7591   23.7158 N   0  0  0  0  0  0  0  0  0  0  0  0
  -20.2446  -30.6915   19.6345 N   0  0  0  0  0  0  0  0  0  0  0  0
  -20.1854  -30.1531   16.0604 N   0  3  0  0  0  0  0  0  0  0  0  0
  -26.3244   -9.0921   17.0600 O   0  0  0  0  0  0  0  0  0  0  0  0
  -24.3548  -29.6375   23.4219 O   0  0  0  0  0  0  0  0  0  0  0  0
  -21.9440  -32.2610   21.3249 O   0  0  0  0  0  0  0  0  0  0  0  0
  -20.6043  -28.7301   18.4512 O   0  0  0  0  0  0  0  0  0  0  0  0
  -27.8447  -18.1458   20.5658 O   0  0  0  0  0  0  0  0  0  0  0  0
  -21.3508   -8.0029   22.9475 O   0  0  0  0  0  0  0  0  0  0  0  0
  -23.5969  -17.0531   18.0676 O   0  0  0  0  0  0  0  0  0  0  0  0
  -26.2625  -25.1521   19.6901 O   0  0  0  0  0  0  0  0  0  1  0  0
  -21.9469   -2.5469   23.4771 F   0  0  0  0  0  0  0  0  0  0  0  0
  -21.5110   -6.8295   25.4455 F   0  0  0  0  0  0  0  0  0  0  0  0
  1  2  1  0  0  0  0
  1  5  2  0  0  0  0
  2  6  2  0  0  0  0
  3  8  2  0  0  0  0
  3 17  1  0  0  0  0
  4  9  1  0  0  0  0
  4 17  2  0  0  0  0
  5 19  1  0  0  0  0
  6 21  1  0  0  0  0
  7 10  2  0  0  0  0
  7 20  1  0  0  0  0
  8 26  1  0  0  0  0
  9 26  2  0  0  0  0
 10 27  1  0  0  0  0
 11 12  2  0  0  0  0
 11 28  1  0  0  0  0
 12 30  1  0  0  0  0
 13 22  1  0  0  0  0
 13 25  2  0  0  0  0
 14 23  1  0  0  0  0
 14 27  2  0  0  0  0
 15 24  1  0  0  0  0
 15 29  2  0  0  0  0
 16 30  2  0  0  0  0
 16 31  1  0  0  0  0
 17 32  1  0  0  0  0
 18 32  1  0  0  0  0
 18 33  2  0  0  0  0
 18 34  1  0  0  0  0
 19 21  2  0  0  0  0
 19 39  1  0  0  0  0
 20 23  2  0  0  0  0
 20 40  1  0  0  0  0
 21 50  1  0  0  0  0
 22 24  2  0  0  0  0
 22 53  1  0  0  0  0
 23 41  1  0  0  0  0
 24 54  1  0  0  0  0
 25 29  1  0  0  0  0
 25 73  1  0  0  0  0
 26 82  1  0  0  0  0
 27 84  1  0  0  0  0
 28 31  2  0  0  0  0
 28 82  1  0  0  0  0
 29 83  1  0  0  0  0
 30 85  1  0  0  0  0
 31 86  1  0  0  0  0
 32 67  2  0  0  0  0
 33 68  1  0  0  0  0
 33 71  1  0  0  0  0
 34 72  1  0  0  0  0
 34 77  2  0  0  0  0
 35 51  1  0  0  0  0
 35 74  1  0  0  0  0
 35 78  2  0  0  0  0
 36 63  1  0  0  0  0
 36 69  1  0  0  0  0
 36 79  2  0  0  0  0
 37 64  1  0  0  0  0
 37 75  1  0  0  0  0
 37 80  2  0  0  0  0
 38 70  1  0  0  0  0
 38 73  1  0  0  0  0
 38 81  2  0  0  0  0
 39 42  1  0  0  0  0
 40 51  1  0  0  0  0
 41 69  1  0  0  0  0
 42 44  1  0  0  0  0
 43 45  1  0  0  0  0
 43 48  1  0  0  0  0
 44 50  1  0  0  0  0
 45 52  1  0  0  0  0
 46 47  1  0  0  0  0
 46 53  1  0  0  0  0
 47 53  1  0  0  0  0
 48 70  1  0  0  0  0
 49 52  1  0  0  0  0
 49 70  1  0  0  0  0
 50 74  1  0  0  0  0
 51 69  1  0  0  0  0
 52 68  1  0  0  0  0
 53 65  1  0  0  0  0
 55 64  1  0  0  0  0
 56 65  1  0  0  0  0
 57 66  1  0  0  0  0
 58 66  1  0  0  0  0
 59 66  1  0  0  0  0
 60 76  1  0  0  0  0
 61 83  1  0  0  0  0
 62 65  1  0  0  0  0
 62 84  1  0  0  0  0
 63 66  1  0  0  0  0
 63 75  1  0  0  0  0
 64 76  1  0  0  0  0
 67 68  1  0  0  0  0
M  CHG  1  76   1
M  ISO  4  38 100  62 101  73 100  84 101
M  END
> <Batch ID>
0150

> <Smiles>
CNC(C)C(=O)NC(C(=O)N1Cc2cc([101O:1][101CH2:1]C(C)C3(c4cc([100NH:0][100C:0](=O)N5CCCC(n6nc(-c7ccc(Oc8ccc(F)cc8F)cc7)c(C(N)=O)c6N)C5)c(OC)cc4C)CC3)ccc2CC1C(=O)NC1CCCc2ccccc21)C(C)(C)C

> <Shape>
0.272

> <Color>
0.089

> <Negative vol penalty>
0.000

$$$$

  -OEChem-04052321413D

 89 98  0     1  0  0  0  0  0999 V2000
  -21.5332  -11.8293   20.9399 C   0  0  0  0  0  0  0  0  0  0  0  0
  -21.7858  -12.9312   21.7507 C   0  0  0  0  0  0  0  0  0  0  0  0
  -23.3787  -24.7159   21.6320 C   0  0  0  0  0  0  0  0  0  0  0  0
  -23.1369  -25.3590   19.3158 C   0  0  0  0  0  0  0  0  0  0  0  0
  -22.5769  -11.2284   20.2373 C   0  0  0  0  0  0  0  0  0  0  0  0
  -23.0825  -13.4322   21.8603 C   0  0  0  0  0  0  0  0  0  0  0  0
  -23.2460  -18.4841   21.5490 C   0  0  0  0  0  0  0  0  0  0  0  0
  -23.6989  -23.4168   21.2379 C   0  0  0  0  0  0  0  0  0  0  0  0
  -23.4572  -24.0599   18.9216 C   0  0  0  0  0  0  0  0  0  0  0  0
  -22.8795  -19.2042   22.6852 C   0  0  0  0  0  0  0  0  0  0  0  0
  -21.9038  -21.0638   18.7184 C   0  0  0  0  0  0  0  0  0  0  0  0
  -21.1186  -20.4751   17.7272 C   0  0  0  0  0  0  0  0  0  0  0  0
  -23.0114  -27.4441   26.3189 C   0  0  0  0  0  0  0  0  0  0  0  0
  -22.6717  -25.0591   26.5014 C   0  0  0  0  0  0  0  0  0  0  0  0
  -25.2085  -19.5312   23.2219 C   0  0  0  0  0  0  0  0  0  0  0  0
  -24.8647  -25.9308   25.9838 C   0  0  0  0  0  0  0  0  0  0  0  0
  -23.0707  -20.2334   16.3243 C   0  0  0  0  0  0  0  0  0  0  0  0
  -23.0976  -25.6871   20.6709 C   0  0  0  0  0  0  0  0  0  0  0  0
  -22.1672  -26.3585   26.5522 C   0  0  0  0  0  0  0  0  0  0  0  0
  -21.6860  -27.4301   21.8861 C   0  0  0  0  0  0  0  0  0  0  0  0
  -23.8854  -11.7283   20.3308 C   0  0  0  0  0  0  0  0  0  0  0  0
  -24.5987  -18.2725   21.2461 C   0  0  0  0  0  0  0  0  0  0  0  0
  -24.1449  -12.8366   21.1594 C   0  0  0  0  0  0  0  0  0  0  0  0
  -25.5895  -18.8103   22.0799 C   0  0  0  0  0  0  0  0  0  0  0  0
  -24.3602  -27.2302   26.0346 C   0  0  0  0  0  0  0  0  0  0  0  0
  -23.7382  -23.0888   19.8827 C   0  0  0  0  0  0  0  0  0  0  0  0
  -23.8607  -19.7254   23.5233 C   0  0  0  0  0  0  0  0  0  0  0  0
  -23.2725  -21.2373   18.5125 C   0  0  0  0  0  0  0  0  0  0  0  0
  -24.0205  -24.8452   26.2172 C   0  0  0  0  0  0  0  0  0  0  0  0
  -21.7020  -20.0599   16.5302 C   0  0  0  0  0  0  0  0  0  0  0  0
  -23.8559  -20.8221   17.3155 C   0  0  0  0  0  0  0  0  0  0  0  0
  -22.7662  -27.0291   21.0774 C   0  0  0  0  0  0  0  0  0  0  0  0
  -21.8119  -28.7948   21.9754 C   0  0  0  0  0  0  0  0  0  0  0  0
  -20.7607  -26.5815   26.8477 C   0  0  0  0  0  0  0  0  0  0  0  0
  -20.6604  -26.6395   22.5017 C   0  0  0  0  0  0  0  0  0  0  0  0
  -26.4578  -15.7108   20.9540 C   0  0  0  0  0  0  0  0  0  0  0  0
  -28.6479  -17.8938   19.9740 C   0  0  0  0  0  0  0  0  0  0  0  0
  -29.7213  -21.1333   19.9991 C   0  0  0  0  0  0  0  0  0  0  0  0
  -26.6829  -29.9244   22.8486 C   0  0  0  0  0  0  0  0  0  0  0  0
  -24.9891  -11.0163   19.5896 C   0  0  0  0  0  0  0  0  0  0  0  0
  -24.9778  -17.5163   20.0024 C   0  0  0  0  0  0  0  0  0  0  0  0
  -27.0559  -18.6285   21.7882 C   0  0  0  0  0  0  0  0  0  0  0  0
  -26.2694  -11.8386   19.4667 C   0  0  0  0  0  0  0  0  0  0  0  0
  -25.4919  -30.0899   19.4838 C   0  0  0  0  0  0  0  0  0  0  0  0
  -26.9171  -31.8845   25.8904 C   0  0  0  0  0  0  0  0  0  0  0  0
  -26.6319  -12.4657   20.8091 C   0  0  0  0  0  0  0  0  0  0  0  0
  -24.0768  -30.6461   19.5971 C   0  0  0  0  0  0  0  0  0  0  0  0
  -27.0332  -30.4923   26.4948 C   0  0  0  0  0  0  0  0  0  0  0  0
  -26.4004  -30.7194   20.5286 C   0  0  0  0  0  0  0  0  0  0  0  0
  -26.0911  -31.6352   24.6380 C   0  0  0  0  0  0  0  0  0  0  0  0
  -24.4910  -30.9869   22.0999 C   0  0  0  0  0  0  0  0  0  0  0  0
  -25.5337  -13.4245   21.2847 C   0  0  1  0  0  0  0  0  0  0  0  0
  -26.3815  -16.9224   20.0686 C   0  0  1  0  0  0  0  0  0  0  0  0
  -23.5002  -30.5055   21.0150 C   0  0  2  0  0  0  0  0  0  0  0  0
  -27.1880  -29.5885   25.2685 C   0  0  1  0  0  0  0  0  0  0  0  0
  -31.5628  -22.6050   19.1387 C   0  0  0  0  0  0  0  0  0  0  0  0
  -30.5353  -16.7645   22.0889 C   0  0  0  0  0  0  0  0  0  0  0  0
  -31.9343  -18.8260   21.8410 C   0  0  0  0  0  0  0  0  0  0  0  0
  -31.6198  -17.2931   19.8983 C   0  0  0  0  0  0  0  0  0  0  0  0
  -27.8238  -22.8073   18.4641 C   0  0  0  0  0  0  0  0  0  0  0  0
  -26.5944  -28.2053   25.5025 C   0  0  0  0  0  0  0  0  0  0  0  0
  -24.4021  -21.4482   25.0709 C   0  0  0  0  0  0  0  0  0  1  0  0
  -23.6156  -22.5469   25.7593 C   0  0  0  0  0  0  0  0  0  0  0  0
  -29.6924  -18.7419   20.6587 C   0  0  1  0  0  0  0  0  0  0  0  0
  -30.1691  -22.0547   18.8789 C   0  0  2  0  0  0  0  0  0  0  0  0
  -30.9179  -17.9083   21.1286 C   0  0  0  0  0  0  0  0  0  0  0  0
  -23.5226  -28.0561   20.6810 N   0  0  0  0  0  0  0  0  0  0  0  0
  -22.9168  -29.1159   21.2430 N   0  0  0  0  0  0  0  0  0  0  0  0
  -27.3760  -17.8764   20.5637 N   0  0  0  0  0  0  0  0  0  0  0  0
  -25.8771  -30.5473   21.8839 N   0  0  0  0  0  0  0  0  0  0  0  0
  -26.5199  -30.3126   24.1803 N   0  0  0  0  0  0  0  0  0  0  0  0
  -21.0843  -29.7396   22.6081 N   0  0  0  0  0  0  0  0  0  0  0  0
  -19.9613  -25.4645   27.0727 N   0  0  0  0  0  0  0  0  0  0  0  0
  -19.4796  -26.4016   21.7850 N   0  0  0  0  0  0  0  0  0  0  0  0
  -25.2049  -28.3167   25.8004 N   0  0  0  0  0  0  0  0  0  0  0  0
  -25.6177  -14.6819   20.5732 N   0  0  0  0  0  0  0  0  0  0  0  0
  -30.0216  -19.8153   19.7271 N   0  0  0  0  0  0  0  0  0  0  0  0
  -29.2281  -23.2025   18.7449 N   0  3  0  0  0  0  0  0  0  0  0  0
  -20.2794  -27.7276   26.8828 O   0  0  0  0  0  0  0  0  0  0  0  0
  -20.7805  -26.1722   23.6595 O   0  0  0  0  0  0  0  0  0  0  0  0
  -27.2235  -15.7090   21.9108 O   0  0  0  0  0  0  0  0  0  0  0  0
  -28.9476  -17.2754   18.9496 O   0  0  0  0  0  0  0  0  0  0  0  0
  -29.1645  -21.5422   21.0155 O   0  0  0  0  0  0  0  0  0  0  0  0
  -27.5183  -29.0667   22.5333 O   0  0  0  0  0  0  0  0  0  0  0  0
  -24.0509  -21.8212   19.4978 O   0  0  0  0  0  0  0  0  0  0  0  0
  -23.5033  -20.4330   24.6409 O   0  0  0  0  0  0  0  0  0  1  0  0
  -24.5139  -23.5774   26.1674 O   0  0  0  0  0  0  0  0  0  0  0  0
  -20.9481  -19.4932   15.5790 F   0  0  0  0  0  0  0  0  0  0  0  0
  -25.1704  -20.9851   17.1124 F   0  0  0  0  0  0  0  0  0  0  0  0
  1  2  1  0  0  0  0
  1  5  2  0  0  0  0
  2  6  2  0  0  0  0
  3  8  2  0  0  0  0
  3 18  1  0  0  0  0
  4  9  1  0  0  0  0
  4 18  2  0  0  0  0
  5 21  1  0  0  0  0
  6 23  1  0  0  0  0
  7 10  2  0  0  0  0
  7 22  1  0  0  0  0
  8 26  1  0  0  0  0
  9 26  2  0  0  0  0
 10 27  1  0  0  0  0
 11 12  2  0  0  0  0
 11 28  1  0  0  0  0
 12 30  1  0  0  0  0
 13 19  2  0  0  0  0
 13 25  1  0  0  0  0
 14 19  1  0  0  0  0
 14 29  2  0  0  0  0
 15 24  1  0  0  0  0
 15 27  2  0  0  0  0
 16 25  2  0  0  0  0
 16 29  1  0  0  0  0
 17 30  2  0  0  0  0
 17 31  1  0  0  0  0
 18 32  1  0  0  0  0
 19 34  1  0  0  0  0
 20 32  1  0  0  0  0
 20 33  2  0  0  0  0
 20 35  1  0  0  0  0
 21 23  2  0  0  0  0
 21 40  1  0  0  0  0
 22 24  2  0  0  0  0
 22 41  1  0  0  0  0
 23 52  1  0  0  0  0
 24 42  1  0  0  0  0
 25 75  1  0  0  0  0
 26 85  1  0  0  0  0
 27 86  1  0  0  0  0
 28 31  2  0  0  0  0
 28 85  1  0  0  0  0
 29 87  1  0  0  0  0
 30 88  1  0  0  0  0
 31 89  1  0  0  0  0
 32 67  2  0  0  0  0
 33 68  1  0  0  0  0
 33 72  1  0  0  0  0
 34 73  1  0  0  0  0
 34 79  2  0  0  0  0
 35 74  1  0  0  0  0
 35 80  2  0  0  0  0
 36 53  1  0  0  0  0
 36 76  1  0  0  0  0
 36 81  2  0  0  0  0
 37 64  1  0  0  0  0
 37 69  1  0  0  0  0
 37 82  2  0  0  0  0
 38 65  1  0  0  0  0
 38 77  1  0  0  0  0
 38 83  2  0  0  0  0
 39 70  1  0  0  0  0
 39 71  1  0  0  0  0
 39 84  2  0  0  0  0
 40 43  1  0  0  0  0
 41 53  1  0  0  0  0
 42 69  1  0  0  0  0
 43 46  1  0  0  0  0
 44 47  1  0  0  0  0
 44 49  1  0  0  0  0
 45 48  1  0  0  0  0
 45 50  1  0  0  0  0
 46 52  1  0  0  0  0
 47 54  1  0  0  0  0
 48 55  1  0  0  0  0
 49 70  1  0  0  0  0
 50 71  1  0  0  0  0
 51 54  1  0  0  0  0
 51 70  1  0  0  0  0
 52 76  1  0  0  0  0
 53 69  1  0  0  0  0
 54 68  1  0  0  0  0
 55 61  1  0  0  0  0
 55 71  1  0  0  0  0
 56 65  1  0  0  0  0
 57 66  1  0  0  0  0
 58 66  1  0  0  0  0
 59 66  1  0  0  0  0
 60 78  1  0  0  0  0
 61 75  1  0  0  0  0
 62 63  1  0  0  0  0
 62 86  1  0  0  0  0
 63 87  1  0  0  0  0
 64 66  1  0  0  0  0
 64 77  1  0  0  0  0
 65 78  1  0  0  0  0
 67 68  1  0  0  0  0
M  CHG  1  78   1
M  ISO  4  39 100  62 101  71 100  86 101
M  END
> <Batch ID>
0150

> <Smiles>
CNC(C)C(=O)NC(C(=O)N1Cc2cc([101O:1][101CH2:1]COc3cc(NCC4CCC[100N:0]4[100C:0](=O)N4CCCC(n5nc(-c6ccc(Oc7ccc(F)cc7F)cc6)c(C(N)=O)c5N)C4)cc(C(N)=O)c3)ccc2CC1C(=O)NC1CCCc2ccccc21)C(C)(C)C

> <Shape>
0.241

> <Color>
0.057

> <Negative vol penalty>
0.000

$$$$

  -OEChem-04052321413D

 91101  0     1  0  0  0  0  0999 V2000
  -24.9022  -38.9740   24.0543 C   0  0  0  0  0  0  0  0  0  0  0  0
  -26.1120  -38.2872   24.0499 C   0  0  0  0  0  0  0  0  0  0  0  0
  -30.0670  -11.5987   16.2945 C   0  0  0  0  0  0  0  0  0  0  0  0
  -29.1564  -13.7820   15.8036 C   0  0  0  0  0  0  0  0  0  0  0  0
  -23.7455  -38.3432   24.5104 C   0  0  0  0  0  0  0  0  0  0  0  0
  -26.1660  -36.9694   24.5026 C   0  0  0  0  0  0  0  0  0  0  0  0
  -27.6732  -21.4245   23.0401 C   0  0  0  0  0  0  0  0  0  0  0  0
  -28.7131  -30.5357   20.8767 C   0  0  0  0  0  0  0  0  0  0  0  0
  -27.5678  -20.2288   23.7506 C   0  0  0  0  0  0  0  0  0  0  0  0
  -30.4053  -11.4377   14.9509 C   0  0  0  0  0  0  0  0  0  0  0  0
  -29.4948  -13.6211   14.4600 C   0  0  0  0  0  0  0  0  0  0  0  0
  -28.9881  -29.3037   20.2829 C   0  0  0  0  0  0  0  0  0  0  0  0
  -32.2707  -13.8554   12.5469 C   0  0  0  0  0  0  0  0  0  0  0  0
  -32.8803  -14.9306   11.9004 C   0  0  0  0  0  0  0  0  0  0  0  0
  -27.4276  -28.2215   21.7801 C   0  0  0  0  0  0  0  0  0  0  0  0
  -29.2808  -19.2495   22.3564 C   0  0  0  0  0  0  0  0  0  0  0  0
  -31.0561  -15.0136   10.3185 C   0  0  0  0  0  0  0  0  0  0  0  0
  -29.4424  -12.7709   16.7208 C   0  0  0  0  0  0  0  0  0  0  0  0
  -29.8885  -13.4984   19.1249 C   0  0  0  0  0  0  0  0  0  0  0  0
  -23.7835  -37.0138   24.9599 C   0  0  0  0  0  0  0  0  0  0  0  0
  -27.7817  -30.6177   21.9156 C   0  0  0  0  0  0  0  0  0  0  0  0
  -25.0090  -36.3206   24.9664 C   0  0  0  0  0  0  0  0  0  0  0  0
  -28.5823  -21.5327   21.9877 C   0  0  0  0  0  0  0  0  0  0  0  0
  -27.1388  -29.4547   22.3705 C   0  0  0  0  0  0  0  0  0  0  0  0
  -28.3716  -19.1413   23.4088 C   0  0  0  0  0  0  0  0  0  0  0  0
  -29.3861  -20.4452   21.6459 C   0  0  0  0  0  0  0  0  0  0  0  0
  -30.1193  -12.4489   14.0337 C   0  0  0  0  0  0  0  0  0  0  0  0
  -28.3472  -28.1494   20.7336 C   0  0  0  0  0  0  0  0  0  0  0  0
  -31.0538  -13.3593   12.0792 C   0  0  0  0  0  0  0  0  0  0  0  0
  -32.2730  -15.5097   10.7862 C   0  0  0  0  0  0  0  0  0  0  0  0
  -30.4465  -13.9384   10.9650 C   0  0  0  0  0  0  0  0  0  0  0  0
  -29.0921  -12.9375   18.1085 C   0  0  0  0  0  0  0  0  0  0  0  0
  -29.1071  -13.4269   20.2522 C   0  0  0  0  0  0  0  0  0  0  0  0
  -31.2159  -14.0360   19.0561 C   0  0  0  0  0  0  0  0  0  0  0  0
  -25.9732  -32.8038   24.3704 C   0  0  0  0  0  0  0  0  0  0  0  0
  -23.9317  -30.7729   23.3132 C   0  0  0  0  0  0  0  0  0  0  0  0
  -21.9001  -28.6405   21.5918 C   0  0  0  0  0  0  0  0  0  0  0  0
  -24.3420  -13.9304   22.8999 C   0  0  0  0  0  0  0  0  0  0  0  0
  -22.5161  -36.3895   25.4879 C   0  0  0  0  0  0  0  0  0  0  0  0
  -27.4999  -31.9139   22.6257 C   0  0  0  0  0  0  0  0  0  0  0  0
  -26.1700  -29.5854   23.5138 C   0  0  0  0  0  0  0  0  0  0  0  0
  -22.5871  -34.8688   25.5999 C   0  0  0  0  0  0  0  0  0  0  0  0
  -24.7607  -11.0006   21.1125 C   0  0  0  0  0  0  0  0  0  0  0  0
  -29.7630  -23.7660   21.8161 C   0  0  0  0  0  0  0  0  0  0  0  0
  -27.3211  -23.5643   21.1562 C   0  0  0  0  0  0  0  0  0  0  0  0
  -23.8941  -34.4426   26.2609 C   0  0  0  0  0  0  0  0  0  0  0  0
  -25.9918  -11.2752   20.2491 C   0  0  0  0  0  0  0  0  0  0  0  0
  -29.8574  -25.0779   21.0414 C   0  0  0  0  0  0  0  0  0  0  0  0
  -27.4284  -24.8770   20.3845 C   0  0  0  0  0  0  0  0  0  0  0  0
  -26.7581  -15.9325   24.8699 C   0  0  0  0  0  0  0  0  0  0  0  0
  -26.5207  -16.9584   22.5808 C   0  0  0  0  0  0  0  0  0  0  0  0
  -23.8528  -12.2237   21.1733 C   0  0  0  0  0  0  0  0  0  0  0  0
  -25.3999  -15.2603   24.6890 C   0  0  0  0  0  0  0  0  0  0  0  0
  -25.1656  -16.2718   22.4454 C   0  0  0  0  0  0  0  0  0  0  0  0
  -25.7687  -13.7452   20.8129 C   0  0  0  0  0  0  0  0  0  0  0  0
  -28.6793  -22.8440   21.2295 C   0  0  0  0  0  0  0  0  0  0  0  0
  -25.1032  -34.8820   25.4264 C   0  0  1  0  0  0  0  0  0  0  0  0
  -26.0339  -32.0497   23.0746 C   0  0  1  0  0  0  0  0  0  0  0  0
  -26.8643  -17.2263   24.0523 C   0  0  0  0  0  0  0  0  0  0  0  0
  -26.7277  -12.5411   20.7228 C   0  0  2  0  0  0  0  0  0  0  0  0
  -28.5067  -25.7877   20.9668 C   0  0  0  0  0  0  0  0  0  1  0  0
  -30.3663  -20.5374   20.5227 C   0  0  0  0  0  0  0  0  0  0  0  0
  -28.6386  -18.0269   25.6540 C   0  0  0  0  0  0  0  0  0  0  0  0
  -19.5091  -27.8953   21.4331 C   0  0  0  0  0  0  0  0  0  0  0  0
  -24.2782  -29.1308   25.8603 C   0  0  0  0  0  0  0  0  0  0  0  0
  -22.3238  -27.7393   25.1445 C   0  0  0  0  0  0  0  0  0  0  0  0
  -22.0218  -30.1750   25.5907 C   0  0  0  0  0  0  0  0  0  0  0  0
  -21.6836  -29.5443   18.7819 C   0  0  0  0  0  0  0  0  0  0  0  0
  -28.2566  -17.8393   24.1822 C   0  0  2  0  0  0  0  0  0  0  0  0
  -23.2553  -29.4397   23.5099 C   0  0  1  0  0  0  0  0  0  0  0  0
  -20.5633  -28.8562   20.9056 C   0  0  2  0  0  0  0  0  0  0  0  0
  -22.9925  -29.1240   25.0094 C   0  0  0  0  0  0  0  0  0  0  0  0
  -27.8966  -12.5390   18.5510 N   0  0  0  0  0  0  0  0  0  0  0  0
  -27.9360  -12.8497   19.8579 N   0  0  0  0  0  0  0  0  0  0  0  0
  -25.3317  -30.7801   23.3279 N   0  0  0  0  0  0  0  0  0  0  0  0
  -24.5894  -13.4049   21.6228 N   0  0  0  0  0  0  0  0  0  0  0  0
  -25.0848  -15.0622   23.2750 N   0  0  0  0  0  0  0  0  0  0  0  0
  -29.3145  -13.8019   21.5323 N   0  0  0  0  0  0  0  0  0  0  0  0
  -31.8751  -14.0320   17.8193 N   0  0  0  0  0  0  0  0  0  0  0  0
  -25.2837  -33.9989   24.2941 N   0  0  0  0  0  0  0  0  0  0  0  0
  -22.0522  -29.4667   22.6852 N   0  0  0  0  0  0  0  0  0  0  0  0
  -20.6958  -28.6479   19.4359 N   0  3  0  0  0  0  0  0  0  0  0  0
  -31.8063  -14.4910   20.0650 O   0  0  0  0  0  0  0  0  0  0  0  0
  -26.5107  -32.3361   25.3674 O   0  0  0  0  0  0  0  0  0  0  0  0
  -23.2398  -31.7828   23.1562 O   0  0  0  0  0  0  0  0  0  0  0  0
  -22.7253  -27.8185   21.1994 O   0  0  0  0  0  0  0  0  0  0  0  0
  -23.5122  -13.4192   23.6623 O   0  0  0  0  0  0  0  0  0  0  0  0
  -30.4495  -12.2923   12.7226 O   0  0  0  0  0  0  0  0  0  0  0  0
  -28.6187  -26.9429   20.1426 O   0  0  0  0  0  0  0  0  0  1  0  0
  -32.8577  -16.5432   10.1664 F   0  0  0  0  0  0  0  0  0  0  0  0
  -29.2769  -13.4668   10.5117 F   0  0  0  0  0  0  0  0  0  0  0  0
  1  2  1  0  0  0  0
  1  5  2  0  0  0  0
  2  6  2  0  0  0  0
  3 10  2  0  0  0  0
  3 18  1  0  0  0  0
  4 11  1  0  0  0  0
  4 18  2  0  0  0  0
  5 20  1  0  0  0  0
  6 22  1  0  0  0  0
  7  9  2  0  0  0  0
  7 23  1  0  0  0  0
  8 12  2  0  0  0  0
  8 21  1  0  0  0  0
  9 25  1  0  0  0  0
 10 27  1  0  0  0  0
 11 27  2  0  0  0  0
 12 28  1  0  0  0  0
 13 14  2  0  0  0  0
 13 29  1  0  0  0  0
 14 30  1  0  0  0  0
 15 24  1  0  0  0  0
 15 28  2  0  0  0  0
 16 25  2  0  0  0  0
 16 26  1  0  0  0  0
 17 30  2  0  0  0  0
 17 31  1  0  0  0  0
 18 32  1  0  0  0  0
 19 32  1  0  0  0  0
 19 33  2  0  0  0  0
 19 34  1  0  0  0  0
 20 22  2  0  0  0  0
 20 39  1  0  0  0  0
 21 24  2  0  0  0  0
 21 40  1  0  0  0  0
 22 57  1  0  0  0  0
 23 26  2  0  0  0  0
 23 56  1  0  0  0  0
 24 41  1  0  0  0  0
 25 69  1  0  0  0  0
 26 62  1  0  0  0  0
 27 88  1  0  0  0  0
 28 89  1  0  0  0  0
 29 31  2  0  0  0  0
 29 88  1  0  0  0  0
 30 90  1  0  0  0  0
 31 91  1  0  0  0  0
 32 73  2  0  0  0  0
 33 74  1  0  0  0  0
 33 78  1  0  0  0  0
 34 79  1  0  0  0  0
 34 83  2  0  0  0  0
 35 58  1  0  0  0  0
 35 80  1  0  0  0  0
 35 84  2  0  0  0  0
 36 70  1  0  0  0  0
 36 75  1  0  0  0  0
 36 85  2  0  0  0  0
 37 71  1  0  0  0  0
 37 81  1  0  0  0  0
 37 86  2  0  0  0  0
 38 76  1  0  0  0  0
 38 77  1  0  0  0  0
 38 87  2  0  0  0  0
 39 42  1  0  0  0  0
 40 58  1  0  0  0  0
 41 75  1  0  0  0  0
 42 46  1  0  0  0  0
 43 47  1  0  0  0  0
 43 52  1  0  0  0  0
 44 48  1  0  0  0  0
 44 56  1  0  0  0  0
 45 49  1  0  0  0  0
 45 56  1  0  0  0  0
 46 57  1  0  0  0  0
 47 60  1  0  0  0  0
 48 61  1  0  0  0  0
 49 61  1  0  0  0  0
 50 53  1  0  0  0  0
 50 59  1  0  0  0  0
 51 54  1  0  0  0  0
 51 59  1  0  0  0  0
 52 76  1  0  0  0  0
 53 77  1  0  0  0  0
 54 77  1  0  0  0  0
 55 60  1  0  0  0  0
 55 76  1  0  0  0  0
 57 80  1  0  0  0  0
 58 75  1  0  0  0  0
 59 69  1  0  0  0  0
 60 74  1  0  0  0  0
 61 89  1  0  0  0  0
 63 69  1  0  0  0  0
 64 71  1  0  0  0  0
 65 72  1  0  0  0  0
 66 72  1  0  0  0  0
 67 72  1  0  0  0  0
 68 82  1  0  0  0  0
 70 72  1  0  0  0  0
 70 81  1  0  0  0  0
 71 82  1  0  0  0  0
 73 74  1  0  0  0  0
M  CHG  1  82   1
M  ISO  4  38 100  61 101  77 100  89 101
M  END
> <Batch ID>
0150

> <Smiles>
CNC(C)C(=O)NC(C(=O)N1Cc2cc([101O:1][101CH:1]3CCC(c4ccc(C(C)C5CC[100N:0]([100C:0](=O)N6CCCC(n7nc(-c8ccc(Oc9ccc(F)cc9F)cc8)c(C(N)=O)c7N)C6)CC5)cc4C)CC3)ccc2CC1C(=O)NC1CCCc2ccccc21)C(C)(C)C

> <Shape>
0.248

> <Color>
0.109

> <Negative vol penalty>
0.000

$$$$

  -OEChem-04052321413D

 90 99  0     1  0  0  0  0  0999 V2000
  -28.5113  -32.0840   20.4311 C   0  0  0  0  0  0  0  0  0  0  0  0
  -28.2422  -30.7206   20.3683 C   0  0  0  0  0  0  0  0  0  0  0  0
  -23.0638   -9.9244   19.9619 C   0  0  0  0  0  0  0  0  0  0  0  0
  -23.8289   -9.9361   22.2535 C   0  0  0  0  0  0  0  0  0  0  0  0
  -27.7683  -32.9016   21.2817 C   0  0  0  0  0  0  0  0  0  0  0  0
  -27.2307  -30.1736   21.1570 C   0  0  0  0  0  0  0  0  0  0  0  0
  -24.2966  -26.9430   18.5880 C   0  0  0  0  0  0  0  0  0  0  0  0
  -22.3175   -8.7740   20.2169 C   0  0  0  0  0  0  0  0  0  0  0  0
  -23.0825   -8.7857   22.5086 C   0  0  0  0  0  0  0  0  0  0  0  0
  -24.8031  -25.6637   18.3632 C   0  0  0  0  0  0  0  0  0  0  0  0
  -19.8537   -7.9981   23.1207 C   0  0  0  0  0  0  0  0  0  0  0  0
  -19.0993   -7.9636   24.2934 C   0  0  0  0  0  0  0  0  0  0  0  0
  -28.3364  -19.4637   24.2897 C   0  0  0  0  0  0  0  0  0  0  0  0
  -29.3779  -18.9410   22.1733 C   0  0  0  0  0  0  0  0  0  0  0  0
  -23.4830  -24.8248   20.1996 C   0  0  0  0  0  0  0  0  0  0  0  0
  -20.3372   -6.0251   25.0327 C   0  0  0  0  0  0  0  0  0  0  0  0
  -23.8196  -10.5055   20.9802 C   0  0  0  0  0  0  0  0  0  0  0  0
  -24.1678  -13.0293   20.8520 C   0  0  0  0  0  0  0  0  0  0  0  0
  -26.7407  -32.3659   22.0740 C   0  0  0  0  0  0  0  0  0  0  0  0
  -23.3862  -27.1753   19.6290 C   0  0  0  0  0  0  0  0  0  0  0  0
  -26.4741  -30.9845   22.0200 C   0  0  0  0  0  0  0  0  0  0  0  0
  -28.5672  -19.7700   22.9486 C   0  0  0  0  0  0  0  0  0  0  0  0
  -22.9644  -26.1075   20.4340 C   0  0  0  0  0  0  0  0  0  0  0  0
  -28.9165  -18.3284   24.8556 C   0  0  0  0  0  0  0  0  0  0  0  0
  -29.9580  -17.8056   22.7392 C   0  0  0  0  0  0  0  0  0  0  0  0
  -29.7273  -17.4993   24.0804 C   0  0  0  0  0  0  0  0  0  0  0  0
  -22.3268   -8.2046   21.4902 C   0  0  0  0  0  0  0  0  0  0  0  0
  -24.3985  -24.6049   19.1708 C   0  0  0  0  0  0  0  0  0  0  0  0
  -20.8498   -7.0461   22.9039 C   0  0  0  0  0  0  0  0  0  0  0  0
  -19.3411   -6.9771   25.2494 C   0  0  0  0  0  0  0  0  0  0  0  0
  -21.0916   -6.0596   23.8600 C   0  0  0  0  0  0  0  0  0  0  0  0
  -24.5912  -11.6936   20.7173 C   0  0  0  0  0  0  0  0  0  0  0  0
  -25.2611  -13.7749   20.4841 C   0  0  0  0  0  0  0  0  0  0  0  0
  -22.8996  -13.5497   21.2723 C   0  0  0  0  0  0  0  0  0  0  0  0
  -23.3988  -28.9510   22.2654 C   0  0  0  0  0  0  0  0  0  0  0  0
  -20.3167  -27.9622   22.4780 C   0  0  0  0  0  0  0  0  0  0  0  0
  -17.9585  -25.6334   21.6644 C   0  0  0  0  0  0  0  0  0  0  0  0
  -30.7479  -14.7800   20.6571 C   0  0  0  0  0  0  0  0  0  0  0  0
  -25.9961  -33.2814   23.0133 C   0  0  0  0  0  0  0  0  0  0  0  0
  -22.8287  -28.5560   19.8416 C   0  0  0  0  0  0  0  0  0  0  0  0
  -21.9737  -26.3002   21.5519 C   0  0  0  0  0  0  0  0  0  0  0  0
  -24.6921  -32.6859   23.5380 C   0  0  0  0  0  0  0  0  0  0  0  0
  -29.5987  -12.3915   18.2799 C   0  0  0  0  0  0  0  0  0  0  0  0
  -24.9100  -31.2492   24.0022 C   0  0  0  0  0  0  0  0  0  0  0  0
  -28.1614  -12.1029   18.7170 C   0  0  0  0  0  0  0  0  0  0  0  0
  -28.9524  -21.9988   21.7809 C   0  0  0  0  0  0  0  0  0  0  0  0
  -30.5191  -12.6135   19.4781 C   0  0  0  0  0  0  0  0  0  0  0  0
  -28.6224  -13.3536   20.8668 C   0  0  0  0  0  0  0  0  0  0  0  0
  -28.0996  -22.9452   20.9566 C   0  0  0  0  0  0  0  0  0  0  0  0
  -27.9394  -21.0002   22.3358 C   0  0  1  0  0  0  0  0  0  0  0  0
  -25.3684  -30.3580   22.8415 C   0  0  1  0  0  0  0  0  0  0  0  0
  -22.3000  -28.7758   21.2557 C   0  0  1  0  0  0  0  0  0  0  0  0
  -27.6451  -13.1781   19.6919 C   0  0  2  0  0  0  0  0  0  0  0  0
  -27.0492  -20.7265   21.1168 C   0  0  1  0  0  0  0  0  0  0  0  0
  -28.6527  -18.0221   26.2937 C   0  0  0  0  0  0  0  0  0  0  0  0
  -30.3487  -16.2819   24.6873 C   0  0  0  0  0  0  0  0  0  0  0  0
  -15.5369  -25.0762   22.0151 C   0  0  0  0  0  0  0  0  0  0  0  0
  -25.6717  -18.7309   21.7685 C   0  0  0  0  0  0  0  0  0  0  0  0
  -25.0949  -21.0026   22.6688 C   0  0  0  0  0  0  0  0  0  0  0  0
  -20.9476  -27.0128   25.3083 C   0  0  0  0  0  0  0  0  0  0  0  0
  -18.8467  -25.6526   25.2455 C   0  0  0  0  0  0  0  0  0  0  0  0
  -18.7280  -28.1370   25.0555 C   0  0  0  0  0  0  0  0  0  0  0  0
  -17.3823  -25.7920   18.7658 C   0  0  0  0  0  0  0  0  0  0  0  0
  -30.8222  -16.9340   21.8876 C   0  0  0  0  0  0  0  0  0  0  0  0
  -26.8909  -22.0187   18.9441 C   0  0  0  0  0  0  0  0  0  0  0  0
  -26.2077  -23.2620   18.4096 C   0  0  0  0  0  0  0  0  0  1  0  0
  -19.6124  -26.7861   23.1101 C   0  0  1  0  0  0  0  0  0  0  0  0
  -16.5485  -25.7752   21.1202 C   0  0  2  0  0  0  0  0  0  0  0  0
  -25.6559  -20.2314   21.4734 C   0  0  0  0  0  0  0  0  0  0  0  0
  -19.5539  -26.8935   24.6601 C   0  0  0  0  0  0  0  0  0  0  0  0
  -25.8549  -11.5932   20.2964 N   0  0  0  0  0  0  0  0  0  0  0  0
  -26.2349  -12.8754   20.1635 N   0  0  0  0  0  0  0  0  0  0  0  0
  -21.4621  -27.6700   21.7240 N   0  0  0  0  0  0  0  0  0  0  0  0
  -29.9732  -13.6460   20.3623 N   0  0  0  0  0  0  0  0  0  0  0  0
  -25.4748  -15.1056   20.4067 N   0  0  0  0  0  0  0  0  0  0  0  0
  -21.8861  -12.6442   21.6145 N   0  0  0  0  0  0  0  0  0  0  0  0
  -24.2454  -30.0098   21.9977 N   0  0  0  0  0  0  0  0  0  0  0  0
  -18.3056  -26.6992   22.4673 N   0  0  0  0  0  0  0  0  0  0  0  0
  -30.1531  -15.7129   21.4978 N   0  0  0  0  0  0  0  0  0  0  0  0
  -26.9533  -22.0928   20.4396 N   0  3  2  0  0  0  0  0  0  0  0  0
  -16.4577  -25.1823   19.7559 N   0  3  0  0  0  0  0  0  0  0  0  0
  -22.6667  -14.7811   21.3265 O   0  0  0  0  0  0  0  0  0  0  0  0
  -23.4722  -28.1833   23.2178 O   0  0  0  0  0  0  0  0  0  0  0  0
  -19.8631  -29.0977   22.6411 O   0  0  0  0  0  0  0  0  0  0  0  0
  -18.6785  -24.6714   21.4062 O   0  0  0  0  0  0  0  0  0  0  0  0
  -31.8833  -14.9512   20.2005 O   0  0  0  0  0  0  0  0  0  0  0  0
  -21.5985   -7.0821   21.7395 O   0  0  0  0  0  0  0  0  0  0  0  0
  -24.8919  -23.3553   18.9539 O   0  0  0  0  0  0  0  0  0  1  0  0
  -18.6176   -6.9450   26.3763 F   0  0  0  0  0  0  0  0  0  0  0  0
  -22.0481   -5.1430   23.6579 F   0  0  0  0  0  0  0  0  0  0  0  0
  1  2  1  0  0  0  0
  1  5  2  0  0  0  0
  2  6  2  0  0  0  0
  3  8  2  0  0  0  0
  3 17  1  0  0  0  0
  4  9  1  0  0  0  0
  4 17  2  0  0  0  0
  5 19  1  0  0  0  0
  6 21  1  0  0  0  0
  7 10  2  0  0  0  0
  7 20  1  0  0  0  0
  8 27  1  0  0  0  0
  9 27  2  0  0  0  0
 10 28  1  0  0  0  0
 11 12  2  0  0  0  0
 11 29  1  0  0  0  0
 12 30  1  0  0  0  0
 13 22  1  0  0  0  0
 13 24  2  0  0  0  0
 14 22  2  0  0  0  0
 14 25  1  0  0  0  0
 15 23  1  0  0  0  0
 15 28  2  0  0  0  0
 16 30  2  0  0  0  0
 16 31  1  0  0  0  0
 17 32  1  0  0  0  0
 18 32  1  0  0  0  0
 18 33  2  0  0  0  0
 18 34  1  0  0  0  0
 19 21  2  0  0  0  0
 19 39  1  0  0  0  0
 20 23  2  0  0  0  0
 20 40  1  0  0  0  0
 21 51  1  0  0  0  0
 22 50  1  0  0  0  0
 23 41  1  0  0  0  0
 24 26  1  0  0  0  0
 24 55  1  0  0  0  0
 25 26  2  0  0  0  0
 25 64  1  0  0  0  0
 26 56  1  0  0  0  0
 27 87  1  0  0  0  0
 28 88  1  0  0  0  0
 29 31  2  0  0  0  0
 29 87  1  0  0  0  0
 30 89  1  0  0  0  0
 31 90  1  0  0  0  0
 32 71  2  0  0  0  0
 33 72  1  0  0  0  0
 33 75  1  0  0  0  0
 34 76  1  0  0  0  0
 34 82  2  0  0  0  0
 35 52  1  0  0  0  0
 35 77  1  0  0  0  0
 35 83  2  0  0  0  0
 36 67  1  0  0  0  0
 36 73  1  0  0  0  0
 36 84  2  0  0  0  0
 37 68  1  0  0  0  0
 37 78  1  0  0  0  0
 37 85  2  0  0  0  0
 38 74  1  0  0  0  0
 38 79  1  0  0  0  0
 38 86  2  0  0  0  0
 39 42  1  0  0  0  0
 40 52  1  0  0  0  0
 41 73  1  0  0  0  0
 42 44  1  0  0  0  0
 43 45  1  0  0  0  0
 43 47  1  0  0  0  0
 44 51  1  0  0  0  0
 45 53  1  0  0  0  0
 46 49  1  0  0  0  0
 46 50  1  0  0  0  0
 47 74  1  0  0  0  0
 48 53  1  0  0  0  0
 48 74  1  0  0  0  0
 49 80  1  0  0  0  0
 50 54  1  0  0  0  0
 51 77  1  0  0  0  0
 52 73  1  0  0  0  0
 53 72  1  0  0  0  0
 54 69  1  0  0  0  0
 54 80  1  0  0  0  0
 57 68  1  0  0  0  0
 58 69  1  0  0  0  0
 59 69  1  0  0  0  0
 60 70  1  0  0  0  0
 61 70  1  0  0  0  0
 62 70  1  0  0  0  0
 63 81  1  0  0  0  0
 64 79  1  0  0  0  0
 65 66  1  0  0  0  0
 65 80  1  0  0  0  0
 66 88  1  0  0  0  0
 67 70  1  0  0  0  0
 67 78  1  0  0  0  0
 68 81  1  0  0  0  0
 71 72  1  0  0  0  0
M  CHG  2  80   1  81   1
M  ISO  4  38 100  66 101  79 100  88 101
M  END
> <Batch ID>
0150

> <Smiles>
CNC(C)C(=O)NC(C(=O)N1Cc2cc([101O:1][101CH2:1]CN3CCC(c4cc(C)c(C)c(C[100NH:0][100C:0](=O)N5CCCC(n6nc(-c7ccc(Oc8ccc(F)cc8F)cc7)c(C(N)=O)c6N)C5)c4)C3C(C)C)ccc2CC1C(=O)NC1CCCc2ccccc21)C(C)(C)C

> <Shape>
0.328

> <Color>
0.199

> <Negative vol penalty>
0.000

$$$$

  -OEChem-04052321413D

 89 99  0     1  0  0  0  0  0999 V2000
  -29.2200  -24.8725   17.3295 C   0  0  0  0  0  0  0  0  0  0  0  0
  -27.8499  -25.0838   17.4459 C   0  0  0  0  0  0  0  0  0  0  0  0
  -26.8216  -13.3746   21.4052 C   0  0  0  0  0  0  0  0  0  0  0  0
  -24.4923  -13.7968   20.9227 C   0  0  0  0  0  0  0  0  0  0  0  0
  -30.0720  -25.2423   18.3694 C   0  0  0  0  0  0  0  0  0  0  0  0
  -27.3308  -25.6642   18.6027 C   0  0  0  0  0  0  0  0  0  0  0  0
  -22.5331  -29.4509   18.9880 C   0  0  0  0  0  0  0  0  0  0  0  0
  -26.4902  -12.1146   21.9031 C   0  0  0  0  0  0  0  0  0  0  0  0
  -24.1608  -12.5366   21.4205 C   0  0  0  0  0  0  0  0  0  0  0  0
  -21.1961  -29.2399   19.3220 C   0  0  0  0  0  0  0  0  0  0  0  0
  -24.2636   -9.3322   20.3522 C   0  0  0  0  0  0  0  0  0  0  0  0
  -23.3713   -8.5582   19.6104 C   0  0  0  0  0  0  0  0  0  0  0  0
  -21.6664  -29.8974   21.5948 C   0  0  0  0  0  0  0  0  0  0  0  0
  -21.8502   -8.5135   21.4870 C   0  0  0  0  0  0  0  0  0  0  0  0
  -25.8227  -14.2158   20.9150 C   0  0  0  0  0  0  0  0  0  0  0  0
  -26.4987  -15.8469   19.0739 C   0  0  0  0  0  0  0  0  0  0  0  0
  -29.5642  -25.8363   19.5355 C   0  0  0  0  0  0  0  0  0  0  0  0
  -23.4507  -29.8770   19.9590 C   0  0  0  0  0  0  0  0  0  0  0  0
  -28.1767  -26.0410   19.6597 C   0  0  0  0  0  0  0  0  0  0  0  0
  -23.0140  -30.1156   21.2700 C   0  0  0  0  0  0  0  0  0  0  0  0
  -25.1598  -11.6955   21.9107 C   0  0  0  0  0  0  0  0  0  0  0  0
  -20.7631  -29.4604   20.6262 C   0  0  0  0  0  0  0  0  0  0  0  0
  -23.9494   -9.6968   21.6614 C   0  0  0  0  0  0  0  0  0  0  0  0
  -22.1646   -8.1488   20.1778 C   0  0  0  0  0  0  0  0  0  0  0  0
  -22.7426   -9.2874   22.2288 C   0  0  0  0  0  0  0  0  0  0  0  0
  -26.1644  -15.5178   20.4012 C   0  0  0  0  0  0  0  0  0  0  0  0
  -26.7365  -17.1993   19.1050 C   0  0  0  0  0  0  0  0  0  0  0  0
  -26.5865  -15.0055   17.9163 C   0  0  0  0  0  0  0  0  0  0  0  0
  -26.0979  -28.6608   21.2307 C   0  0  0  0  0  0  0  0  0  0  0  0
  -26.2621  -31.5550   22.6863 C   0  0  0  0  0  0  0  0  0  0  0  0
  -24.6269  -34.3394   23.7911 C   0  0  0  0  0  0  0  0  0  0  0  0
  -24.8630  -21.5865   22.7235 C   0  0  0  0  0  0  0  0  0  0  0  0
  -30.5192  -26.1759   20.6523 C   0  0  0  0  0  0  0  0  0  0  0  0
  -24.8839  -30.1257   19.5765 C   0  0  0  0  0  0  0  0  0  0  0  0
  -23.9549  -30.5929   22.3448 C   0  0  0  0  0  0  0  0  0  0  0  0
  -29.9295  -27.1280   21.6896 C   0  0  0  0  0  0  0  0  0  0  0  0
  -28.2345  -20.6714   22.0361 C   0  0  0  0  0  0  0  0  0  0  0  0
  -28.5287  -26.6780   22.0920 C   0  0  0  0  0  0  0  0  0  0  0  0
  -17.1441  -20.0765   22.0575 C   0  0  0  0  0  0  0  0  0  0  0  0
  -18.5298  -19.5113   22.1989 C   0  0  0  0  0  0  0  0  0  0  0  0
  -20.9039  -23.3003   20.7999 C   0  0  0  0  0  0  0  0  0  0  0  0
  -28.1164  -19.2766   21.4194 C   0  0  0  0  0  0  0  0  0  0  0  0
  -22.3887  -22.9500   20.9420 C   0  0  0  0  0  0  0  0  0  0  0  0
  -16.9125  -25.0763   20.1964 C   0  0  0  0  0  0  0  0  0  0  0  0
  -16.8572  -25.0790   22.7261 C   0  0  0  0  0  0  0  0  0  0  0  0
  -21.1468  -21.4394   22.3267 C   0  0  0  0  0  0  0  0  0  0  0  0
  -27.2031  -20.8891   23.1410 C   0  0  0  0  0  0  0  0  0  0  0  0
  -25.6890  -19.2283   22.1295 C   0  0  0  0  0  0  0  0  0  0  0  0
  -17.9968  -24.0055   20.2312 C   0  0  0  0  0  0  0  0  0  0  0  0
  -17.9418  -24.0081   22.7409 C   0  0  0  0  0  0  0  0  0  0  0  0
  -27.5783  -26.6905   20.8886 C   0  0  1  0  0  0  0  0  0  0  0  0
  -25.8386  -30.0656   20.7649 C   0  0  1  0  0  0  0  0  0  0  0  0
  -18.2822  -20.9701   22.4660 C   0  0  0  0  0  0  0  0  0  0  0  0
  -20.1765  -22.5480   21.9218 C   0  0  2  0  0  0  0  0  0  0  0  0
  -26.6720  -18.9816   20.9722 C   0  0  2  0  0  0  0  0  0  0  0  0
  -22.4945  -22.1412   22.2320 C   0  0  1  0  0  0  0  0  0  0  0  0
  -16.8726  -25.9338   21.4600 C   0  0  0  0  0  0  0  0  0  0  0  0
  -25.0224  -36.5163   24.9750 C   0  0  0  0  0  0  0  0  0  0  0  0
  -26.4885  -30.0675   25.3407 C   0  0  0  0  0  0  0  0  0  0  0  0
  -25.9263  -32.2092   26.5091 C   0  0  0  0  0  0  0  0  0  0  0  0
  -27.9955  -32.0516   25.1249 C   0  0  0  0  0  0  0  0  0  0  0  0
  -23.6812  -35.9085   21.4668 C   0  0  0  0  0  0  0  0  0  0  0  0
  -17.9010  -28.0415   22.3278 C   0  0  0  0  0  0  0  0  0  0  0  0
  -19.1829  -28.8499   22.2954 C   0  0  0  0  0  0  0  0  0  1  0  0
  -25.7423  -32.1316   23.9810 C   0  0  1  0  0  0  0  0  0  0  0  0
  -24.9311  -35.8176   23.6274 C   0  0  2  0  0  0  0  0  0  0  0  0
  -18.8111  -22.0241   21.5066 C   0  0  2  0  0  0  0  0  0  0  0  0
  -26.5206  -31.6041   25.2194 C   0  0  0  0  0  0  0  0  0  0  0  0
  -26.1868  -16.5758   21.2161 N   0  0  0  0  0  0  0  0  0  0  0  0
  -26.5382  -17.5830   20.3986 N   0  0  0  0  0  0  0  0  0  0  0  0
  -25.3477  -30.8156   21.9228 N   0  0  0  0  0  0  0  0  0  0  0  0
  -25.8543  -20.5939   22.6516 N   0  0  0  0  0  0  0  0  0  0  0  0
  -27.0939  -18.0858   18.1516 N   0  0  0  0  0  0  0  0  0  0  0  0
  -26.3097  -13.6392   18.0610 N   0  0  0  0  0  0  0  0  0  0  0  0
  -27.1560  -28.0426   20.5921 N   0  0  0  0  0  0  0  0  0  0  0  0
  -25.7785  -33.5817   23.8258 N   0  0  0  0  0  0  0  0  0  0  0  0
  -23.6142  -21.2263   22.2322 N   0  0  0  0  0  0  0  0  0  0  0  0
  -17.8446  -23.1764   21.4841 N   0  3  0  0  0  0  0  0  0  0  0  0
  -18.0642  -26.8300   21.4851 N   0  3  0  0  0  0  0  0  0  0  0  0
  -23.8639  -36.4804   22.8257 N   0  3  0  0  0  0  0  0  0  0  0  0
  -26.9170  -15.4490   16.7905 O   0  0  0  0  0  0  0  0  0  0  0  0
  -25.3912  -28.1743   22.1057 O   0  0  0  0  0  0  0  0  0  0  0  0
  -27.4343  -31.7594   22.3608 O   0  0  0  0  0  0  0  0  0  0  0  0
  -23.4824  -33.9010   23.8830 O   0  0  0  0  0  0  0  0  0  0  0  0
  -25.0766  -22.7123   23.1860 O   0  0  0  0  0  0  0  0  0  0  0  0
  -24.8360  -10.4659   22.3962 O   0  0  0  0  0  0  0  0  0  0  0  0
  -19.4588  -29.2546   20.9551 O   0  0  0  0  0  0  0  0  0  1  0  0
  -21.3070   -7.4069   19.4649 F   0  0  0  0  0  0  0  0  0  0  0  0
  -22.4346   -9.6356   23.4856 F   0  0  0  0  0  0  0  0  0  0  0  0
  1  2  1  0  0  0  0
  1  5  2  0  0  0  0
  2  6  2  0  0  0  0
  3  8  2  0  0  0  0
  3 15  1  0  0  0  0
  4  9  1  0  0  0  0
  4 15  2  0  0  0  0
  5 17  1  0  0  0  0
  6 19  1  0  0  0  0
  7 10  2  0  0  0  0
  7 18  1  0  0  0  0
  8 21  1  0  0  0  0
  9 21  2  0  0  0  0
 10 22  1  0  0  0  0
 11 12  2  0  0  0  0
 11 23  1  0  0  0  0
 12 24  1  0  0  0  0
 13 20  1  0  0  0  0
 13 22  2  0  0  0  0
 14 24  2  0  0  0  0
 14 25  1  0  0  0  0
 15 26  1  0  0  0  0
 16 26  1  0  0  0  0
 16 27  2  0  0  0  0
 16 28  1  0  0  0  0
 17 19  2  0  0  0  0
 17 33  1  0  0  0  0
 18 20  2  0  0  0  0
 18 34  1  0  0  0  0
 19 51  1  0  0  0  0
 20 35  1  0  0  0  0
 21 86  1  0  0  0  0
 22 87  1  0  0  0  0
 23 25  2  0  0  0  0
 23 86  1  0  0  0  0
 24 88  1  0  0  0  0
 25 89  1  0  0  0  0
 26 69  2  0  0  0  0
 27 70  1  0  0  0  0
 27 73  1  0  0  0  0
 28 74  1  0  0  0  0
 28 81  2  0  0  0  0
 29 52  1  0  0  0  0
 29 75  1  0  0  0  0
 29 82  2  0  0  0  0
 30 65  1  0  0  0  0
 30 71  1  0  0  0  0
 30 83  2  0  0  0  0
 31 66  1  0  0  0  0
 31 76  1  0  0  0  0
 31 84  2  0  0  0  0
 32 72  1  0  0  0  0
 32 77  1  0  0  0  0
 32 85  2  0  0  0  0
 33 36  1  0  0  0  0
 34 52  1  0  0  0  0
 35 71  1  0  0  0  0
 36 38  1  0  0  0  0
 37 42  1  0  0  0  0
 37 47  1  0  0  0  0
 38 51  1  0  0  0  0
 39 40  1  0  0  0  0
 39 53  1  0  0  0  0
 40 53  1  0  0  0  0
 41 43  1  0  0  0  0
 41 54  1  0  0  0  0
 42 55  1  0  0  0  0
 43 56  1  0  0  0  0
 44 49  1  0  0  0  0
 44 57  1  0  0  0  0
 45 50  1  0  0  0  0
 45 57  1  0  0  0  0
 46 54  1  0  0  0  0
 46 56  1  0  0  0  0
 47 72  1  0  0  0  0
 48 55  1  0  0  0  0
 48 72  1  0  0  0  0
 49 78  1  0  0  0  0
 50 78  1  0  0  0  0
 51 75  1  0  0  0  0
 52 71  1  0  0  0  0
 53 67  1  0  0  0  0
 54 67  1  0  0  0  0
 55 70  1  0  0  0  0
 56 77  1  0  0  0  0
 57 79  1  0  0  0  0
 58 66  1  0  0  0  0
 59 68  1  0  0  0  0
 60 68  1  0  0  0  0
 61 68  1  0  0  0  0
 62 80  1  0  0  0  0
 63 64  1  0  0  0  0
 63 79  1  0  0  0  0
 64 87  1  0  0  0  0
 65 68  1  0  0  0  0
 65 76  1  0  0  0  0
 66 80  1  0  0  0  0
 67 78  1  0  0  0  0
 69 70  1  0  0  0  0
M  CHG  3  78   1  79   1  80   1
M  ISO  4  32 100  64 101  77 100  87 101
M  END
> <Batch ID>
0150

> <Smiles>
CNC(C)C(=O)NC(C(=O)N1Cc2cc([101O:1][101CH2:1]CNC3CCN(C(C4CC4)C4CCC([100NH:0][100C:0](=O)N5CCCC(n6nc(-c7ccc(Oc8ccc(F)cc8F)cc7)c(C(N)=O)c6N)C5)C4)CC3)ccc2CC1C(=O)NC1CCCc2ccccc21)C(C)(C)C

> <Shape>
0.291

> <Color>
0.073

> <Negative vol penalty>
0.000

$$$$

  -OEChem-04052321413D

 92102  0     1  0  0  0  0  0999 V2000
  -17.1811  -26.2849   20.9415 C   0  0  0  0  0  0  0  0  0  0  0  0
  -17.2765  -24.9664   20.5079 C   0  0  0  0  0  0  0  0  0  0  0  0
  -25.3485  -27.0792   19.4289 C   0  0  0  0  0  0  0  0  0  0  0  0
  -27.0597  -27.7064   21.0149 C   0  0  0  0  0  0  0  0  0  0  0  0
  -18.1966  -26.8361   21.7217 C   0  0  0  0  0  0  0  0  0  0  0  0
  -18.3881  -24.1987   20.8534 C   0  0  0  0  0  0  0  0  0  0  0  0
  -20.2613  -17.4524   22.3684 C   0  0  0  0  0  0  0  0  0  0  0  0
  -24.6767  -28.2754   19.6807 C   0  0  0  0  0  0  0  0  0  0  0  0
  -26.3879  -28.9027   21.2667 C   0  0  0  0  0  0  0  0  0  0  0  0
  -21.1868  -16.4808   21.9902 C   0  0  0  0  0  0  0  0  0  0  0  0
  -24.9377  -31.9596   22.5939 C   0  0  0  0  0  0  0  0  0  0  0  0
  -24.7950  -32.3556   23.9237 C   0  0  0  0  0  0  0  0  0  0  0  0
  -25.3798  -14.0648   21.0371 C   0  0  0  0  0  0  0  0  0  0  0  0
  -22.8420  -17.5140   23.4086 C   0  0  0  0  0  0  0  0  0  0  0  0
  -23.5732  -30.3257   24.3971 C   0  0  0  0  0  0  0  0  0  0  0  0
  -26.5400  -26.7947   20.0961 C   0  0  0  0  0  0  0  0  0  0  0  0
  -28.2228  -25.3276   18.8618 C   0  0  0  0  0  0  0  0  0  0  0  0
  -19.3166  -26.0718   22.0851 C   0  0  0  0  0  0  0  0  0  0  0  0
  -20.6230  -18.4702   23.2627 C   0  0  0  0  0  0  0  0  0  0  0  0
  -19.4202  -24.7407   21.6381 C   0  0  0  0  0  0  0  0  0  0  0  0
  -26.4366  -13.1876   20.7955 C   0  0  0  0  0  0  0  0  0  0  0  0
  -21.9185  -18.4959   23.7986 C   0  0  0  0  0  0  0  0  0  0  0  0
  -26.1912  -11.8447   20.4716 C   0  0  0  0  0  0  0  0  0  0  0  0
  -24.8644  -11.3786   20.4172 C   0  0  0  0  0  0  0  0  0  0  0  0
  -24.0670  -13.6086   20.9631 C   0  0  0  0  0  0  0  0  0  0  0  0
  -25.1964  -29.1872   20.5995 C   0  0  0  0  0  0  0  0  0  0  0  0
  -22.4783  -16.5132   22.5080 C   0  0  0  0  0  0  0  0  0  0  0  0
  -24.3981  -30.7467   22.1656 C   0  0  0  0  0  0  0  0  0  0  0  0
  -23.8099  -12.2738   20.6522 C   0  0  0  0  0  0  0  0  0  0  0  0
  -24.1128  -31.5387   24.8253 C   0  0  0  0  0  0  0  0  0  0  0  0
  -23.7159  -29.9298   23.0672 C   0  0  0  0  0  0  0  0  0  0  0  0
  -27.2341  -25.5589   19.8369 C   0  0  0  0  0  0  0  0  0  0  0  0
  -28.5602  -24.0059   19.0218 C   0  0  0  0  0  0  0  0  0  0  0  0
  -28.7860  -26.2271   17.8978 C   0  0  0  0  0  0  0  0  0  0  0  0
  -20.7970  -21.6400   23.1021 C   0  0  0  0  0  0  0  0  0  0  0  0
  -21.4424  -21.3757   26.2701 C   0  0  0  0  0  0  0  0  0  0  0  0
  -22.5991  -19.4517   28.8405 C   0  0  0  0  0  0  0  0  0  0  0  0
  -29.9037  -19.7967   22.2506 C   0  0  0  0  0  0  0  0  0  0  0  0
  -20.4114  -26.7257   22.8904 C   0  0  0  0  0  0  0  0  0  0  0  0
  -19.6050  -19.4953   23.6813 C   0  0  0  0  0  0  0  0  0  0  0  0
  -27.3615  -10.9191   20.2503 C   0  0  0  0  0  0  0  0  0  0  0  0
  -24.5450   -9.9506   20.0511 C   0  0  0  0  0  0  0  0  0  0  0  0
  -22.3508  -19.5556   24.7776 C   0  0  0  0  0  0  0  0  0  0  0  0
  -21.3777  -25.7296   23.5262 C   0  0  0  0  0  0  0  0  0  0  0  0
  -26.9774   -9.6183   19.5478 C   0  0  0  0  0  0  0  0  0  0  0  0
  -25.7397   -9.0096   20.1943 C   0  0  0  0  0  0  0  0  0  0  0  0
  -26.3635  -20.3509   21.7434 C   0  0  0  0  0  0  0  0  0  0  0  0
  -21.8041  -24.6758   22.5091 C   0  0  0  0  0  0  0  0  0  0  0  0
  -26.3608  -21.7466   21.1172 C   0  0  0  0  0  0  0  0  0  0  0  0
  -28.0430  -14.8499   19.8771 C   0  0  0  0  0  0  0  0  0  0  0  0
  -28.0926  -14.2351   22.3278 C   0  0  0  0  0  0  0  0  0  0  0  0
  -27.4378  -20.2302   22.8201 C   0  0  0  0  0  0  0  0  0  0  0  0
  -28.8136  -21.9611   21.7316 C   0  0  0  0  0  0  0  0  0  0  0  0
  -29.4251  -15.4752   20.0160 C   0  0  0  0  0  0  0  0  0  0  0  0
  -29.4744  -14.8648   22.4479 C   0  0  0  0  0  0  0  0  0  0  0  0
  -27.8285  -13.7253   20.9023 C   0  0  0  0  0  0  0  0  0  0  0  0
  -20.5986  -23.8683   22.0130 C   0  0  1  0  0  0  0  0  0  0  0  0
  -20.2340  -20.7843   24.2014 C   0  0  1  0  0  0  0  0  0  0  0  0
  -27.7642  -22.1402   20.6195 C   0  0  2  0  0  0  0  0  0  0  0  0
  -23.0421  -19.5225   31.3095 C   0  0  0  0  0  0  0  0  0  0  0  0
  -23.9522  -23.0372   25.7698 C   0  0  0  0  0  0  0  0  0  0  0  0
  -24.8126  -22.2802   27.9957 C   0  0  0  0  0  0  0  0  0  0  0  0
  -22.7139  -23.6220   27.8624 C   0  0  0  0  0  0  0  0  0  0  0  0
  -20.6815  -17.2593   29.3648 C   0  0  0  0  0  0  0  0  0  0  0  0
  -21.8820  -11.9422   19.2996 C   0  0  0  0  0  0  0  0  0  0  0  0
  -22.9431  -14.5691   21.2195 C   0  0  0  0  0  0  0  0  0  1  0  0
  -30.8579  -17.5811   22.8317 C   0  0  0  0  0  0  0  0  0  0  0  0
  -30.9118  -16.7118   21.5893 C   0  0  0  0  0  0  0  0  0  0  0  0
  -22.6956  -21.2128   27.0959 C   0  0  1  0  0  0  0  0  0  0  0  0
  -22.0368  -19.1738   30.2229 C   0  0  2  0  0  0  0  0  0  0  0  0
  -23.5363  -22.5191   27.1610 C   0  0  0  0  0  0  0  0  0  0  0  0
  -26.9610  -24.4713   20.5625 N   0  0  0  0  0  0  0  0  0  0  0  0
  -27.7831  -23.5437   20.0429 N   0  0  0  0  0  0  0  0  0  0  0  0
  -21.3212  -20.5394   25.1512 N   0  0  0  0  0  0  0  0  0  0  0  0
  -28.7522  -20.6009   22.2768 N   0  0  0  0  0  0  0  0  0  0  0  0
  -29.4428  -23.2054   18.3871 N   0  0  0  0  0  0  0  0  0  0  0  0
  -28.3256  -27.5506   17.8700 N   0  0  0  0  0  0  0  0  0  0  0  0
  -20.2074  -22.8856   23.0008 N   0  0  0  0  0  0  0  0  0  0  0  0
  -22.2648  -20.7139   28.3974 N   0  0  0  0  0  0  0  0  0  0  0  0
  -29.7632  -18.5250   22.7927 N   0  0  0  0  0  0  0  0  0  0  0  0
  -29.6126  -15.9711   21.4297 N   0  3  0  0  0  0  0  0  0  0  0  0
  -21.6804  -17.7330   30.3571 N   0  3  0  0  0  0  0  0  0  0  0  0
  -29.6595  -25.8636   17.0742 O   0  0  0  0  0  0  0  0  0  0  0  0
  -21.7005  -21.2031   22.3989 O   0  0  0  0  0  0  0  0  0  0  0  0
  -20.5986  -22.2091   26.6094 O   0  0  0  0  0  0  0  0  0  0  0  0
  -23.2711  -18.6325   28.2177 O   0  0  0  0  0  0  0  0  0  0  0  0
  -30.9770  -20.1816   21.7741 O   0  0  0  0  0  0  0  0  0  0  0  0
  -24.5413  -30.3546   20.8452 O   0  0  0  0  0  0  0  0  0  0  0  0
  -22.5149  -11.8459   20.5722 O   0  0  0  0  0  0  0  0  0  0  0  0
  -23.3839  -15.5664   22.1400 O   0  0  0  0  0  0  0  0  0  1  0  0
  -23.9771  -31.9183   26.1027 F   0  0  0  0  0  0  0  0  0  0  0  0
  -23.1964  -28.7629   22.6619 F   0  0  0  0  0  0  0  0  0  0  0  0
  1  2  1  0  0  0  0
  1  5  2  0  0  0  0
  2  6  2  0  0  0  0
  3  8  2  0  0  0  0
  3 16  1  0  0  0  0
  4  9  1  0  0  0  0
  4 16  2  0  0  0  0
  5 18  1  0  0  0  0
  6 20  1  0  0  0  0
  7 10  2  0  0  0  0
  7 19  1  0  0  0  0
  8 26  1  0  0  0  0
  9 26  2  0  0  0  0
 10 27  1  0  0  0  0
 11 12  2  0  0  0  0
 11 28  1  0  0  0  0
 12 30  1  0  0  0  0
 13 21  2  0  0  0  0
 13 25  1  0  0  0  0
 14 22  1  0  0  0  0
 14 27  2  0  0  0  0
 15 30  2  0  0  0  0
 15 31  1  0  0  0  0
 16 32  1  0  0  0  0
 17 32  1  0  0  0  0
 17 33  2  0  0  0  0
 17 34  1  0  0  0  0
 18 20  2  0  0  0  0
 18 39  1  0  0  0  0
 19 22  2  0  0  0  0
 19 40  1  0  0  0  0
 20 57  1  0  0  0  0
 21 23  1  0  0  0  0
 21 56  1  0  0  0  0
 22 43  1  0  0  0  0
 23 24  2  0  0  0  0
 23 41  1  0  0  0  0
 24 29  1  0  0  0  0
 24 42  1  0  0  0  0
 25 29  2  0  0  0  0
 25 66  1  0  0  0  0
 26 88  1  0  0  0  0
 27 90  1  0  0  0  0
 28 31  2  0  0  0  0
 28 88  1  0  0  0  0
 29 89  1  0  0  0  0
 30 91  1  0  0  0  0
 31 92  1  0  0  0  0
 32 72  2  0  0  0  0
 33 73  1  0  0  0  0
 33 76  1  0  0  0  0
 34 77  1  0  0  0  0
 34 83  2  0  0  0  0
 35 58  1  0  0  0  0
 35 78  1  0  0  0  0
 35 84  2  0  0  0  0
 36 69  1  0  0  0  0
 36 74  1  0  0  0  0
 36 85  2  0  0  0  0
 37 70  1  0  0  0  0
 37 79  1  0  0  0  0
 37 86  2  0  0  0  0
 38 75  1  0  0  0  0
 38 80  1  0  0  0  0
 38 87  2  0  0  0  0
 39 44  1  0  0  0  0
 40 58  1  0  0  0  0
 41 45  1  0  0  0  0
 42 46  1  0  0  0  0
 43 74  1  0  0  0  0
 44 48  1  0  0  0  0
 45 46  1  0  0  0  0
 47 49  1  0  0  0  0
 47 52  1  0  0  0  0
 48 57  1  0  0  0  0
 49 59  1  0  0  0  0
 50 54  1  0  0  0  0
 50 56  1  0  0  0  0
 51 55  1  0  0  0  0
 51 56  1  0  0  0  0
 52 75  1  0  0  0  0
 53 59  1  0  0  0  0
 53 75  1  0  0  0  0
 54 81  1  0  0  0  0
 55 81  1  0  0  0  0
 57 78  1  0  0  0  0
 58 74  1  0  0  0  0
 59 73  1  0  0  0  0
 60 70  1  0  0  0  0
 61 71  1  0  0  0  0
 62 71  1  0  0  0  0
 63 71  1  0  0  0  0
 64 82  1  0  0  0  0
 65 89  1  0  0  0  0
 66 90  1  0  0  0  0
 67 68  1  0  0  0  0
 67 80  1  0  0  0  0
 68 81  1  0  0  0  0
 69 71  1  0  0  0  0
 69 79  1  0  0  0  0
 70 82  1  0  0  0  0
 72 73  1  0  0  0  0
M  CHG  2  81   1  82   1
M  ISO  4  38 100  66 101  80 100  90 101
M  END
> <Batch ID>
0150

> <Smiles>
CNC(C)C(=O)NC(C(=O)N1Cc2cc([101O:1][101CH2:1]c3cc(C4CCN(CC[100NH:0][100C:0](=O)N5CCCC(n6nc(-c7ccc(Oc8ccc(F)cc8F)cc7)c(C(N)=O)c6N)C5)CC4)c4c(c3OC)CCCC4)ccc2CC1C(=O)NC1CCCc2ccccc21)C(C)(C)C

> <Shape>
0.230

> <Color>
0.044

> <Negative vol penalty>
0.000

$$$$

  -OEChem-04052321413D

 87 96  0     1  0  0  0  0  0999 V2000
  -29.3138  -33.4893   15.0855 C   0  0  0  0  0  0  0  0  0  0  0  0
  -29.3689  -32.1196   15.3223 C   0  0  0  0  0  0  0  0  0  0  0  0
  -23.2295   -9.9684   21.6361 C   0  0  0  0  0  0  0  0  0  0  0  0
  -23.9191  -11.0550   23.6808 C   0  0  0  0  0  0  0  0  0  0  0  0
  -29.1783  -34.3754   16.1534 C   0  0  0  0  0  0  0  0  0  0  0  0
  -29.2897  -31.6350   16.6274 C   0  0  0  0  0  0  0  0  0  0  0  0
  -26.6377  -26.4306   18.4678 C   0  0  0  0  0  0  0  0  0  0  0  0
  -30.6091  -19.7116   21.5656 C   0  0  0  0  0  0  0  0  0  0  0  0
  -22.5393   -9.0100   22.3782 C   0  0  0  0  0  0  0  0  0  0  0  0
  -23.2288  -10.0967   24.4229 C   0  0  0  0  0  0  0  0  0  0  0  0
  -27.1527  -25.1695   18.7649 C   0  0  0  0  0  0  0  0  0  0  0  0
  -31.0348  -18.6043   22.2992 C   0  0  0  0  0  0  0  0  0  0  0  0
  -23.2738   -6.2209   24.1404 C   0  0  0  0  0  0  0  0  0  0  0  0
  -23.4220   -4.8846   23.7692 C   0  0  0  0  0  0  0  0  0  0  0  0
  -27.2142  -25.7525   21.1049 C   0  0  0  0  0  0  0  0  0  0  0  0
  -28.6417  -18.4942   20.8697 C   0  0  0  0  0  0  0  0  0  0  0  0
  -21.0436   -4.7310   23.3728 C   0  0  0  0  0  0  0  0  0  0  0  0
  -23.9195  -10.9909   22.2874 C   0  0  0  0  0  0  0  0  0  0  0  0
  -24.1334  -13.2054   21.0393 C   0  0  0  0  0  0  0  0  0  0  0  0
  -29.0877  -33.9009   17.4715 C   0  0  0  0  0  0  0  0  0  0  0  0
  -26.4170  -27.3676   19.4875 C   0  0  0  0  0  0  0  0  0  0  0  0
  -29.1543  -32.5156   17.7142 C   0  0  0  0  0  0  0  0  0  0  0  0
  -26.6939  -27.0239   20.8184 C   0  0  0  0  0  0  0  0  0  0  0  0
  -29.4125  -19.6566   20.8509 C   0  0  0  0  0  0  0  0  0  0  0  0
  -22.5389   -9.0742   23.7716 C   0  0  0  0  0  0  0  0  0  0  0  0
  -27.4437  -24.8313   20.0832 C   0  0  0  0  0  0  0  0  0  0  0  0
  -30.2641  -17.4419   22.3180 C   0  0  0  0  0  0  0  0  0  0  0  0
  -22.0106   -6.8123   24.1279 C   0  0  0  0  0  0  0  0  0  0  0  0
  -29.0674  -17.3868   21.6033 C   0  0  0  0  0  0  0  0  0  0  0  0
  -22.3069   -4.1396   23.3854 C   0  0  0  0  0  0  0  0  0  0  0  0
  -20.8955   -6.0674   23.7441 C   0  0  0  0  0  0  0  0  0  0  0  0
  -24.6332  -11.9808   21.5214 C   0  0  0  0  0  0  0  0  0  0  0  0
  -25.1956  -13.7740   20.3799 C   0  0  0  0  0  0  0  0  0  0  0  0
  -22.8260  -13.7779   21.1755 C   0  0  0  0  0  0  0  0  0  0  0  0
  -27.5549  -30.2577   20.1630 C   0  0  0  0  0  0  0  0  0  0  0  0
  -25.3122  -30.1664   22.5048 C   0  0  0  0  0  0  0  0  0  0  0  0
  -23.3371  -28.2820   24.5529 C   0  0  0  0  0  0  0  0  0  0  0  0
  -31.1274  -13.1450   20.8997 C   0  0  0  0  0  0  0  0  0  0  0  0
  -28.9897  -34.8997   18.5974 C   0  0  0  0  0  0  0  0  0  0  0  0
  -25.8360  -28.7142   19.1536 C   0  0  0  0  0  0  0  0  0  0  0  0
  -26.4560  -27.9866   21.9520 C   0  0  0  0  0  0  0  0  0  0  0  0
  -28.5358  -34.2851   19.9190 C   0  0  0  0  0  0  0  0  0  0  0  0
  -29.1662  -12.6135   17.9760 C   0  0  0  0  0  0  0  0  0  0  0  0
  -29.3058  -32.9991   20.2019 C   0  0  0  0  0  0  0  0  0  0  0  0
  -27.7370  -12.5016   18.5096 C   0  0  0  0  0  0  0  0  0  0  0  0
  -27.8845  -22.0645   18.5128 C   0  0  0  0  0  0  0  0  0  0  0  0
  -30.1762  -11.9809   18.9308 C   0  0  0  0  0  0  0  0  0  0  0  0
  -27.7573  -20.7904   19.3477 C   0  0  0  0  0  0  0  0  0  0  0  0
  -28.6812  -12.3636   20.8523 C   0  0  0  0  0  0  0  0  0  0  0  0
  -29.7269  -22.0147   20.0493 C   0  0  0  0  0  0  0  0  0  0  0  0
  -29.0467  -31.9502   19.1137 C   0  0  1  0  0  0  0  0  0  0  0  0
  -26.1338  -29.7724   20.2115 C   0  0  1  0  0  0  0  0  0  0  0  0
  -27.6328  -13.0371   19.9503 C   0  0  2  0  0  0  0  0  0  0  0  0
  -28.7446  -22.9738   19.3783 C   0  0  2  0  0  0  0  0  0  1  0  0
  -21.6371  -28.4898   26.3871 C   0  0  0  0  0  0  0  0  0  0  0  0
  -27.5352  -30.8291   24.4869 C   0  0  0  0  0  0  0  0  0  0  0  0
  -26.0122  -30.0950   26.3335 C   0  0  0  0  0  0  0  0  0  0  0  0
  -25.3811  -32.0325   24.8946 C   0  0  0  0  0  0  0  0  0  0  0  0
  -21.2589  -26.9285   22.9381 C   0  0  0  0  0  0  0  0  0  0  0  0
  -27.3166  -16.1515   22.6350 C   0  0  0  0  0  0  0  0  0  0  0  0
  -31.9307  -14.3103   22.9383 C   0  0  0  0  0  0  0  0  0  0  0  0
  -31.9521  -15.8062   22.6797 C   0  0  0  0  0  0  0  0  0  0  0  0
  -25.2820  -29.6942   23.9383 C   0  0  1  0  0  0  0  0  0  0  0  0
  -21.8590  -28.3704   24.8873 C   0  0  2  0  0  0  0  0  0  0  0  0
  -26.0591  -30.6450   24.8920 C   0  0  0  0  0  0  0  0  0  0  0  0
  -25.9132  -11.7823   21.1957 N   0  0  0  0  0  0  0  0  0  0  0  0
  -26.2268  -12.8897   20.5019 N   0  0  0  0  0  0  0  0  0  0  0  0
  -28.9919  -20.7516   20.1257 N   0  0  3  0  0  0  0  0  0  0  0  0
  -25.8925  -29.2931   21.5739 N   0  0  0  0  0  0  0  0  0  0  0  0
  -30.0257  -12.5330   20.2792 N   0  0  0  0  0  0  0  0  0  0  0  0
  -25.3389  -14.9391   19.7132 N   0  0  0  0  0  0  0  0  0  0  0  0
  -21.8529  -13.0601   21.8843 N   0  0  0  0  0  0  0  0  0  0  0  0
  -27.7558  -31.3263   19.3102 N   0  0  0  0  0  0  0  0  0  0  0  0
  -23.8746  -29.5226   24.2820 N   0  0  0  0  0  0  0  0  0  0  0  0
  -30.8972  -13.6475   22.1745 N   0  0  0  0  0  0  0  0  0  0  0  0
  -21.1446  -27.1560   24.4017 N   0  3  0  0  0  0  0  0  0  0  0  0
  -22.5247  -14.8853   20.6693 O   0  0  0  0  0  0  0  0  0  0  0  0
  -28.4060  -29.7046   20.8496 O   0  0  0  0  0  0  0  0  0  0  0  0
  -24.8320  -31.2664   22.2202 O   0  0  0  0  0  0  0  0  0  0  0  0
  -23.9542  -27.2192   24.5376 O   0  0  0  0  0  0  0  0  0  0  0  0
  -32.2326  -13.2414   20.3556 O   0  0  0  0  0  0  0  0  0  0  0  0
  -21.8652   -8.1394   24.4960 O   0  0  0  0  0  0  0  0  0  0  0  0
  -27.9470  -23.6013   20.3759 O   0  0  0  0  0  0  0  0  0  1  0  0
  -28.3061  -16.2572   21.6133 O   0  0  0  0  0  0  0  0  0  0  0  0
  -30.6907  -16.3670   23.0381 O   0  0  0  0  0  0  0  0  0  0  0  0
  -22.4495   -2.8568   23.0274 F   0  0  0  0  0  0  0  0  0  0  0  0
  -19.6795   -6.6304   23.7290 F   0  0  0  0  0  0  0  0  0  0  0  0
  1  2  1  0  0  0  0
  1  5  2  0  0  0  0
  2  6  2  0  0  0  0
  3  9  2  0  0  0  0
  3 18  1  0  0  0  0
  4 10  1  0  0  0  0
  4 18  2  0  0  0  0
  5 20  1  0  0  0  0
  6 22  1  0  0  0  0
  7 11  2  0  0  0  0
  7 21  1  0  0  0  0
  8 12  2  0  0  0  0
  8 24  1  0  0  0  0
  9 25  1  0  0  0  0
 10 25  2  0  0  0  0
 11 26  1  0  0  0  0
 12 27  1  0  0  0  0
 13 14  2  0  0  0  0
 13 28  1  0  0  0  0
 14 30  1  0  0  0  0
 15 23  1  0  0  0  0
 15 26  2  0  0  0  0
 16 24  2  0  0  0  0
 16 29  1  0  0  0  0
 17 30  2  0  0  0  0
 17 31  1  0  0  0  0
 18 32  1  0  0  0  0
 19 32  1  0  0  0  0
 19 33  2  0  0  0  0
 19 34  1  0  0  0  0
 20 22  2  0  0  0  0
 20 39  1  0  0  0  0
 21 23  2  0  0  0  0
 21 40  1  0  0  0  0
 22 51  1  0  0  0  0
 23 41  1  0  0  0  0
 24 68  1  0  0  0  0
 25 82  1  0  0  0  0
 26 83  1  0  0  0  0
 27 29  2  0  0  0  0
 27 85  1  0  0  0  0
 28 31  2  0  0  0  0
 28 82  1  0  0  0  0
 29 84  1  0  0  0  0
 30 86  1  0  0  0  0
 31 87  1  0  0  0  0
 32 66  2  0  0  0  0
 33 67  1  0  0  0  0
 33 71  1  0  0  0  0
 34 72  1  0  0  0  0
 34 77  2  0  0  0  0
 35 52  1  0  0  0  0
 35 73  1  0  0  0  0
 35 78  2  0  0  0  0
 36 63  1  0  0  0  0
 36 69  1  0  0  0  0
 36 79  2  0  0  0  0
 37 64  1  0  0  0  0
 37 74  1  0  0  0  0
 37 80  2  0  0  0  0
 38 70  1  0  0  0  0
 38 75  1  0  0  0  0
 38 81  2  0  0  0  0
 39 42  1  0  0  0  0
 40 52  1  0  0  0  0
 41 69  1  0  0  0  0
 42 44  1  0  0  0  0
 43 45  1  0  0  0  0
 43 47  1  0  0  0  0
 44 51  1  0  0  0  0
 45 53  1  0  0  0  0
 46 48  1  0  0  0  0
 46 54  1  0  0  0  0
 47 70  1  0  0  0  0
 48 68  1  0  0  0  0
 49 53  1  0  0  0  0
 49 70  1  0  0  0  0
 50 54  1  0  0  0  0
 50 68  1  0  0  0  0
 51 73  1  0  0  0  0
 52 69  1  0  0  0  0
 53 67  1  0  0  0  0
 54 83  1  0  0  0  0
 55 64  1  0  0  0  0
 56 65  1  0  0  0  0
 57 65  1  0  0  0  0
 58 65  1  0  0  0  0
 59 76  1  0  0  0  0
 60 84  1  0  0  0  0
 61 62  1  0  0  0  0
 61 75  1  0  0  0  0
 62 85  1  0  0  0  0
 63 65  1  0  0  0  0
 63 74  1  0  0  0  0
 64 76  1  0  0  0  0
 66 67  1  0  0  0  0
M  CHG  1  76   1
M  ISO  4  38 100  54 101  75 100  83 101
M  END
> <Batch ID>
0150

> <Smiles>
CNC(C)C(=O)NC(C(=O)N1Cc2cc([101O:1][101CH:1]3CCN(c4ccc(OCC[100NH:0][100C:0](=O)N5CCCC(n6nc(-c7ccc(Oc8ccc(F)cc8F)cc7)c(C(N)=O)c6N)C5)c(OC)c4)C3)ccc2CC1C(=O)NC1CCCc2ccccc21)C(C)(C)C

> <Shape>
0.317

> <Color>
0.156

> <Negative vol penalty>
0.000

$$$$

  -OEChem-04052321413D

 87 97  0     1  0  0  0  0  0999 V2000
  -30.1376  -28.7837   21.4278 C   0  0  0  0  0  0  0  0  0  0  0  0
  -31.3070  -28.0662   21.1970 C   0  0  0  0  0  0  0  0  0  0  0  0
  -23.1683   -9.8391   19.9153 C   0  0  0  0  0  0  0  0  0  0  0  0
  -23.8341   -9.8981   22.2370 C   0  0  0  0  0  0  0  0  0  0  0  0
  -28.8992  -28.1980   21.1685 C   0  0  0  0  0  0  0  0  0  0  0  0
  -31.2386  -26.7623   20.7077 C   0  0  0  0  0  0  0  0  0  0  0  0
  -35.1669  -24.0620   16.8630 C   0  0  0  0  0  0  0  0  0  0  0  0
  -22.4473   -8.6687   20.1517 C   0  0  0  0  0  0  0  0  0  0  0  0
  -23.1130   -8.7277   22.4735 C   0  0  0  0  0  0  0  0  0  0  0  0
  -36.2366  -23.1926   17.0724 C   0  0  0  0  0  0  0  0  0  0  0  0
  -21.1525   -5.9533   23.7686 C   0  0  0  0  0  0  0  0  0  0  0  0
  -20.3508   -5.9039   24.9090 C   0  0  0  0  0  0  0  0  0  0  0  0
  -36.1783  -17.6019   20.6811 C   0  0  0  0  0  0  0  0  0  0  0  0
  -34.3870  -18.7193   19.5067 C   0  0  0  0  0  0  0  0  0  0  0  0
  -34.7901  -21.3147   16.6248 C   0  0  0  0  0  0  0  0  0  0  0  0
  -19.0835   -7.7951   24.1002 C   0  0  0  0  0  0  0  0  0  0  0  0
  -23.8617  -10.4538   20.9579 C   0  0  0  0  0  0  0  0  0  0  0  0
  -24.1377  -12.9858   20.8153 C   0  0  0  0  0  0  0  0  0  0  0  0
  -28.8158  -26.8897   20.6667 C   0  0  0  0  0  0  0  0  0  0  0  0
  -33.8961  -23.5628   16.5431 C   0  0  0  0  0  0  0  0  0  0  0  0
  -29.9978  -26.1581   20.4427 C   0  0  0  0  0  0  0  0  0  0  0  0
  -35.7440  -18.5965   19.8049 C   0  0  0  0  0  0  0  0  0  0  0  0
  -33.7066  -22.1800   16.4093 C   0  0  0  0  0  0  0  0  0  0  0  0
  -33.8985  -16.8528   20.9608 C   0  0  0  0  0  0  0  0  0  0  0  0
  -35.2555  -16.7300   21.2590 C   0  0  0  0  0  0  0  0  0  0  0  0
  -22.4196   -8.1130   21.4308 C   0  0  0  0  0  0  0  0  0  0  0  0
  -36.0476  -21.8186   16.9561 C   0  0  0  0  0  0  0  0  0  0  0  0
  -20.9197   -6.9238   22.7940 C   0  0  0  0  0  0  0  0  0  0  0  0
  -33.4642  -17.8474   20.0846 C   0  0  0  0  0  0  0  0  0  0  0  0
  -19.3163   -6.8247   25.0748 C   0  0  0  0  0  0  0  0  0  0  0  0
  -19.8852   -7.8446   22.9598 C   0  0  0  0  0  0  0  0  0  0  0  0
  -24.6072  -11.6625   20.7141 C   0  0  0  0  0  0  0  0  0  0  0  0
  -25.2224  -13.7611   20.4854 C   0  0  0  0  0  0  0  0  0  0  0  0
  -22.8374  -13.4708   21.1753 C   0  0  0  0  0  0  0  0  0  0  0  0
  -30.5818  -14.8964   21.0873 C   0  0  0  0  0  0  0  0  0  0  0  0
  -31.0345  -23.6620   17.9233 C   0  0  0  0  0  0  0  0  0  0  0  0
  -30.0884  -22.2306   15.1704 C   0  0  0  0  0  0  0  0  0  0  0  0
  -30.9189  -20.3352   12.4566 C   0  0  0  0  0  0  0  0  0  0  0  0
  -27.4531  -26.2821   20.4464 C   0  0  0  0  0  0  0  0  0  0  0  0
  -32.7589  -24.5152   16.2940 C   0  0  0  0  0  0  0  0  0  0  0  0
  -32.3667  -21.5945   16.0478 C   0  0  0  0  0  0  0  0  0  0  0  0
  -27.4785  -25.0291   19.5748 C   0  0  0  0  0  0  0  0  0  0  0  0
  -29.6836  -12.5169   18.4743 C   0  0  0  0  0  0  0  0  0  0  0  0
  -28.5897  -24.0869   20.0267 C   0  0  0  0  0  0  0  0  0  0  0  0
  -28.2479  -12.1661   18.8622 C   0  0  0  0  0  0  0  0  0  0  0  0
  -33.1034  -14.4391   21.4265 C   0  0  0  0  0  0  0  0  0  0  0  0
  -37.8979  -18.9598   18.4248 C   0  0  0  0  0  0  0  0  0  0  0  0
  -30.5540  -12.7649   19.7033 C   0  0  0  0  0  0  0  0  0  0  0  0
  -28.5700  -13.4539   21.0175 C   0  0  0  0  0  0  0  0  0  0  0  0
  -36.7245  -19.5238   19.1914 C   0  0  1  0  0  0  0  0  0  0  0  0
  -32.9043  -15.9213   21.5773 C   0  0  2  0  0  0  0  0  0  0  0  0
  -29.9654  -24.7501   19.8889 C   0  0  1  0  0  0  0  0  0  0  0  0
  -31.9997  -15.1200   20.6708 C   0  0  2  0  0  0  0  0  0  0  0  0
  -31.3885  -23.8706   16.4780 C   0  0  1  0  0  0  0  0  0  0  0  0
  -27.6553  -13.2305   19.8019 C   0  0  2  0  0  0  0  0  0  0  0  0
  -36.7883  -19.6416   17.6843 C   0  0  1  0  0  0  0  0  0  1  0  0
  -36.9762  -15.1991   24.3575 C   0  0  0  0  0  0  0  0  0  0  0  0
  -29.9241  -19.2975   10.3997 C   0  0  0  0  0  0  0  0  0  0  0  0
  -28.8196  -20.0503   16.8869 C   0  0  0  0  0  0  0  0  0  0  0  0
  -28.6948  -18.6105   14.8425 C   0  0  0  0  0  0  0  0  0  0  0  0
  -27.4434  -20.7669   14.9255 C   0  0  0  0  0  0  0  0  0  0  0  0
  -32.6866  -21.8996   10.6714 C   0  0  0  0  0  0  0  0  0  0  0  0
  -31.3722  -18.8472   20.6138 C   0  0  0  0  0  0  0  0  0  0  0  0
  -35.7475  -15.6746   22.1949 C   0  0  0  0  0  0  0  0  0  0  0  0
  -36.5054  -16.2724   23.3889 C   0  0  0  0  0  0  0  0  0  0  0  0
  -29.9611  -20.8029   14.6967 C   0  0  1  0  0  0  0  0  0  0  0  0
  -30.6310  -20.5140   10.9769 C   0  0  2  0  0  0  0  0  0  0  0  0
  -28.7547  -20.0683   15.3466 C   0  0  0  0  0  0  0  0  0  0  0  0
  -25.8901  -11.5970   20.3483 N   0  0  0  0  0  0  0  0  0  0  0  0
  -26.2361  -12.8890   20.2168 N   0  0  0  0  0  0  0  0  0  0  0  0
  -29.9399  -13.7555   20.5944 N   0  0  0  0  0  0  0  0  0  0  0  0
  -31.2845  -22.5664   15.8204 N   0  0  0  0  0  0  0  0  0  0  0  0
  -25.3985  -15.0969   20.4017 N   0  0  0  0  0  0  0  0  0  0  0  0
  -21.8384  -12.5379   21.4848 N   0  0  0  0  0  0  0  0  0  0  0  0
  -30.3957  -24.7392   18.5072 N   0  0  0  0  0  0  0  0  0  0  0  0
  -29.9121  -20.8590   13.2397 N   0  0  0  0  0  0  0  0  0  0  0  0
  -31.9000  -20.7215   10.2236 N   0  3  0  0  0  0  0  0  0  0  0  0
  -22.5649  -14.6949   21.2054 O   0  0  0  0  0  0  0  0  0  0  0  0
  -30.0648  -15.7240   21.8333 O   0  0  0  0  0  0  0  0  0  0  0  0
  -31.3186  -22.6016   18.4679 O   0  0  0  0  0  0  0  0  0  0  0  0
  -29.1638  -23.0208   14.9647 O   0  0  0  0  0  0  0  0  0  0  0  0
  -31.9335  -19.7826   12.8757 O   0  0  0  0  0  0  0  0  0  0  0  0
  -21.7159   -6.9711   21.6620 O   0  0  0  0  0  0  0  0  0  0  0  0
  -37.0897  -20.9678   17.1607 O   0  0  0  0  0  0  0  0  0  1  0  0
  -32.1427  -17.9836   19.7807 O   0  0  0  0  0  0  0  0  0  0  0  0
  -18.5456   -6.7761   26.1692 F   0  0  0  0  0  0  0  0  0  0  0  0
  -19.6560   -8.7784   22.0264 F   0  0  0  0  0  0  0  0  0  0  0  0
  1  2  1  0  0  0  0
  1  5  2  0  0  0  0
  2  6  2  0  0  0  0
  3  8  2  0  0  0  0
  3 17  1  0  0  0  0
  4  9  1  0  0  0  0
  4 17  2  0  0  0  0
  5 19  1  0  0  0  0
  6 21  1  0  0  0  0
  7 10  2  0  0  0  0
  7 20  1  0  0  0  0
  8 26  1  0  0  0  0
  9 26  2  0  0  0  0
 10 27  1  0  0  0  0
 11 12  2  0  0  0  0
 11 28  1  0  0  0  0
 12 30  1  0  0  0  0
 13 22  2  0  0  0  0
 13 25  1  0  0  0  0
 14 22  1  0  0  0  0
 14 29  2  0  0  0  0
 15 23  1  0  0  0  0
 15 27  2  0  0  0  0
 16 30  2  0  0  0  0
 16 31  1  0  0  0  0
 17 32  1  0  0  0  0
 18 32  1  0  0  0  0
 18 33  2  0  0  0  0
 18 34  1  0  0  0  0
 19 21  2  0  0  0  0
 19 39  1  0  0  0  0
 20 23  2  0  0  0  0
 20 40  1  0  0  0  0
 21 52  1  0  0  0  0
 22 50  1  0  0  0  0
 23 41  1  0  0  0  0
 24 25  2  0  0  0  0
 24 29  1  0  0  0  0
 24 51  1  0  0  0  0
 25 64  1  0  0  0  0
 26 83  1  0  0  0  0
 27 84  1  0  0  0  0
 28 31  2  0  0  0  0
 28 83  1  0  0  0  0
 29 85  1  0  0  0  0
 30 86  1  0  0  0  0
 31 87  1  0  0  0  0
 32 69  2  0  0  0  0
 33 70  1  0  0  0  0
 33 73  1  0  0  0  0
 34 74  1  0  0  0  0
 34 78  2  0  0  0  0
 35 53  1  0  0  0  0
 35 71  1  0  0  0  0
 35 79  2  0  0  0  0
 36 54  1  0  0  0  0
 36 75  1  0  0  0  0
 36 80  2  0  0  0  0
 37 66  1  0  0  0  0
 37 72  1  0  0  0  0
 37 81  2  0  0  0  0
 38 67  1  0  0  0  0
 38 76  1  0  0  0  0
 38 82  2  0  0  0  0
 39 42  1  0  0  0  0
 40 54  1  0  0  0  0
 41 72  1  0  0  0  0
 42 44  1  0  0  0  0
 43 45  1  0  0  0  0
 43 48  1  0  0  0  0
 44 52  1  0  0  0  0
 45 55  1  0  0  0  0
 46 51  1  0  0  0  0
 46 53  1  0  0  0  0
 47 50  1  0  0  0  0
 47 56  1  0  0  0  0
 48 71  1  0  0  0  0
 49 55  1  0  0  0  0
 49 71  1  0  0  0  0
 50 56  1  0  0  0  0
 51 53  1  0  0  0  0
 52 75  1  0  0  0  0
 54 72  1  0  0  0  0
 55 70  1  0  0  0  0
 56 84  1  0  0  0  0
 57 65  1  0  0  0  0
 58 67  1  0  0  0  0
 59 68  1  0  0  0  0
 60 68  1  0  0  0  0
 61 68  1  0  0  0  0
 62 77  1  0  0  0  0
 63 85  1  0  0  0  0
 64 65  1  0  0  0  0
 66 68  1  0  0  0  0
 66 76  1  0  0  0  0
 67 77  1  0  0  0  0
 69 70  1  0  0  0  0
M  CHG  1  77   1
M  ISO  4  35 100  53 100  56 101  84 101
M  END
> <Batch ID>
0150

> <Smiles>
CCCc1cc(C2C[101CH:1]2[101O:1]c2ccc3c(c2)CN(C(=O)C(NC(=O)C(C)NC)C(C)(C)C)C(C(=O)NC2CCCc4ccccc42)C3)cc(OC)c1C1C[100CH:0]1[100C:0](=O)N1CCCC(n2nc(-c3ccc(Oc4ccc(F)cc4F)cc3)c(C(N)=O)c2N)C1

> <Shape>
0.217

> <Color>
0.175

> <Negative vol penalty>
0.000

$$$$

  -OEChem-04052321413D

 85 94  0     1  0  0  0  0  0999 V2000
  -31.2242  -33.4661   15.1244 C   0  0  0  0  0  0  0  0  0  0  0  0
  -30.8185  -32.1491   15.3149 C   0  0  0  0  0  0  0  0  0  0  0  0
  -22.8651  -10.2333   19.9153 C   0  0  0  0  0  0  0  0  0  0  0  0
  -23.9269   -9.5410   21.9721 C   0  0  0  0  0  0  0  0  0  0  0  0
  -31.2586  -34.3469   16.2046 C   0  0  0  0  0  0  0  0  0  0  0  0
  -30.4479  -31.7119   16.5861 C   0  0  0  0  0  0  0  0  0  0  0  0
  -29.8314  -19.2123   21.7745 C   0  0  0  0  0  0  0  0  0  0  0  0
  -26.1057  -27.6139   17.9492 C   0  0  0  0  0  0  0  0  0  0  0  0
  -30.0910  -17.9397   22.2830 C   0  0  0  0  0  0  0  0  0  0  0  0
  -22.0417   -9.1084   19.9617 C   0  0  0  0  0  0  0  0  0  0  0  0
  -23.1035   -8.4161   22.0186 C   0  0  0  0  0  0  0  0  0  0  0  0
  -26.1610  -26.2540   18.2512 C   0  0  0  0  0  0  0  0  0  0  0  0
  -22.9537   -5.3758   20.5473 C   0  0  0  0  0  0  0  0  0  0  0  0
  -23.5466   -4.1509   20.8535 C   0  0  0  0  0  0  0  0  0  0  0  0
  -26.1459  -26.7822   20.6049 C   0  0  0  0  0  0  0  0  0  0  0  0
  -32.1166  -17.8286   20.9709 C   0  0  0  0  0  0  0  0  0  0  0  0
  -22.1227   -3.9470   22.7947 C   0  0  0  0  0  0  0  0  0  0  0  0
  -23.8078  -10.4496   20.9204 C   0  0  0  0  0  0  0  0  0  0  0  0
  -24.4018  -12.8772   21.4318 C   0  0  0  0  0  0  0  0  0  0  0  0
  -30.8790  -33.9229   17.4878 C   0  0  0  0  0  0  0  0  0  0  0  0
  -26.0810  -28.5703   18.9744 C   0  0  0  0  0  0  0  0  0  0  0  0
  -30.4785  -32.5876   17.6848 C   0  0  0  0  0  0  0  0  0  0  0  0
  -30.7143  -19.7931   20.8641 C   0  0  0  0  0  0  0  0  0  0  0  0
  -26.0876  -28.1536   20.3133 C   0  0  0  0  0  0  0  0  0  0  0  0
  -31.2336  -17.2479   21.8813 C   0  0  0  0  0  0  0  0  0  0  0  0
  -31.8570  -19.1013   20.4623 C   0  0  0  0  0  0  0  0  0  0  0  0
  -22.1608   -8.1998   21.0133 C   0  0  0  0  0  0  0  0  0  0  0  0
  -26.1841  -25.8380   19.5792 C   0  0  0  0  0  0  0  0  0  0  0  0
  -21.9454   -5.8863   21.3649 C   0  0  0  0  0  0  0  0  0  0  0  0
  -23.1311   -3.4364   21.9771 C   0  0  0  0  0  0  0  0  0  0  0  0
  -21.5299   -5.1719   22.4885 C   0  0  0  0  0  0  0  0  0  0  0  0
  -24.6591  -11.6111   20.8727 C   0  0  0  0  0  0  0  0  0  0  0  0
  -25.5090  -13.6248   21.1129 C   0  0  0  0  0  0  0  0  0  0  0  0
  -23.2638  -13.3364   22.1733 C   0  0  0  0  0  0  0  0  0  0  0  0
  -27.9904  -30.9485   19.8701 C   0  0  0  0  0  0  0  0  0  0  0  0
  -25.5903  -31.5685   21.9624 C   0  0  0  0  0  0  0  0  0  0  0  0
  -22.9098  -30.4037   23.7245 C   0  0  0  0  0  0  0  0  0  0  0  0
  -31.0450  -14.1837   20.6826 C   0  0  0  0  0  0  0  0  0  0  0  0
  -30.9777  -34.8987   18.6336 C   0  0  0  0  0  0  0  0  0  0  0  0
  -25.9943  -30.0324   18.6322 C   0  0  0  0  0  0  0  0  0  0  0  0
  -26.0422  -29.1396   21.4509 C   0  0  0  0  0  0  0  0  0  0  0  0
  -30.2111  -34.4570   19.8776 C   0  0  0  0  0  0  0  0  0  0  0  0
  -29.3408  -12.6523   17.9573 C   0  0  0  0  0  0  0  0  0  0  0  0
  -30.5005  -32.9925   20.1910 C   0  0  0  0  0  0  0  0  0  0  0  0
  -27.9525  -12.3440   18.5208 C   0  0  0  0  0  0  0  0  0  0  0  0
  -30.3661  -21.3626   18.8402 C   0  0  0  0  0  0  0  0  0  0  0  0
  -30.4316  -12.4633   19.0091 C   0  0  0  0  0  0  0  0  0  0  0  0
  -28.8273  -12.8966   20.8291 C   0  0  0  0  0  0  0  0  0  0  0  0
  -30.4186  -21.1470   20.3366 C   0  0  1  0  0  0  0  0  0  0  0  0
  -30.0452  -32.0824   19.0439 C   0  0  1  0  0  0  0  0  0  0  0  0
  -26.4924  -30.9391   19.7534 C   0  0  1  0  0  0  0  0  0  0  0  0
  -27.6885  -13.1270   19.8210 C   0  0  2  0  0  0  0  0  0  0  0  0
  -29.0991  -21.3959   19.6387 C   0  0  1  0  0  0  0  0  0  0  0  0
  -32.8189  -19.7018   19.4900 C   0  0  0  0  0  0  0  0  0  0  0  0
  -21.1713  -31.1362   25.3793 C   0  0  0  0  0  0  0  0  0  0  0  0
  -27.6772  -31.4872   24.1870 C   0  0  0  0  0  0  0  0  0  0  0  0
  -25.8074  -31.2703   25.8378 C   0  0  0  0  0  0  0  0  0  0  0  0
  -25.9811  -33.3111   24.4138 C   0  0  0  0  0  0  0  0  0  0  0  0
  -20.7014  -29.7831   21.8545 C   0  0  0  0  0  0  0  0  0  0  0  0
  -31.5117  -15.8874   22.4258 C   0  0  0  0  0  0  0  0  0  0  0  0
  -27.4606  -22.7439   20.9566 C   0  0  0  0  0  0  0  0  0  0  0  0
  -26.8951  -24.1441   21.0895 C   0  0  0  0  0  0  0  0  0  1  0  0
  -25.2557  -31.1271   23.3668 C   0  0  1  0  0  0  0  0  0  0  0  0
  -21.5076  -30.9558   23.9072 C   0  0  2  0  0  0  0  0  0  0  0  0
  -26.1832  -31.7802   24.4301 C   0  0  0  0  0  0  0  0  0  0  0  0
  -25.8372  -11.5540   20.2459 N   0  0  0  0  0  0  0  0  0  0  0  0
  -26.3300  -12.7936   20.4092 N   0  0  0  0  0  0  0  0  0  0  0  0
  -25.9643  -30.5582   21.0650 N   0  0  0  0  0  0  0  0  0  0  0  0
  -30.1218  -13.2333   20.2162 N   0  0  0  0  0  0  0  0  0  0  0  0
  -25.8506  -14.9056   21.3685 N   0  0  0  0  0  0  0  0  0  0  0  0
  -22.2148  -12.4380   22.4116 N   0  0  0  0  0  0  0  0  0  0  0  0
  -28.6101  -31.9000   19.0827 N   0  0  0  0  0  0  0  0  0  0  0  0
  -23.8371  -31.4102   23.5565 N   0  0  0  0  0  0  0  0  0  0  0  0
  -30.6706  -14.8740   21.8289 N   0  0  0  0  0  0  0  0  0  0  0  0
  -28.4493  -22.7177   19.8494 N   0  3  0  0  0  0  0  0  0  0  0  0
  -20.5047  -30.0320   23.3058 N   0  3  0  0  0  0  0  0  0  0  0  0
  -23.1724  -14.5134   22.5975 O   0  0  0  0  0  0  0  0  0  0  0  0
  -28.5430  -30.1524   20.6202 O   0  0  0  0  0  0  0  0  0  0  0  0
  -25.5156  -32.7646   21.6705 O   0  0  0  0  0  0  0  0  0  0  0  0
  -23.1582  -29.2001   23.7338 O   0  0  0  0  0  0  0  0  0  0  0  0
  -32.1208  -14.4047   20.1161 O   0  0  0  0  0  0  0  0  0  0  0  0
  -21.3573   -7.1022   21.0591 O   0  0  0  0  0  0  0  0  0  0  0  0
  -26.2387  -24.5113   19.8767 O   0  0  0  0  0  0  0  0  0  1  0  0
  -23.6994   -2.2594   22.2701 F   0  0  0  0  0  0  0  0  0  0  0  0
  -20.5609   -5.6567   23.2770 F   0  0  0  0  0  0  0  0  0  0  0  0
  1  2  1  0  0  0  0
  1  5  2  0  0  0  0
  2  6  2  0  0  0  0
  3 10  2  0  0  0  0
  3 18  1  0  0  0  0
  4 11  1  0  0  0  0
  4 18  2  0  0  0  0
  5 20  1  0  0  0  0
  6 22  1  0  0  0  0
  7  9  2  0  0  0  0
  7 23  1  0  0  0  0
  8 12  2  0  0  0  0
  8 21  1  0  0  0  0
  9 25  1  0  0  0  0
 10 27  1  0  0  0  0
 11 27  2  0  0  0  0
 12 28  1  0  0  0  0
 13 14  2  0  0  0  0
 13 29  1  0  0  0  0
 14 30  1  0  0  0  0
 15 24  1  0  0  0  0
 15 28  2  0  0  0  0
 16 25  2  0  0  0  0
 16 26  1  0  0  0  0
 17 30  2  0  0  0  0
 17 31  1  0  0  0  0
 18 32  1  0  0  0  0
 19 32  1  0  0  0  0
 19 33  2  0  0  0  0
 19 34  1  0  0  0  0
 20 22  2  0  0  0  0
 20 39  1  0  0  0  0
 21 24  2  0  0  0  0
 21 40  1  0  0  0  0
 22 50  1  0  0  0  0
 23 26  2  0  0  0  0
 23 49  1  0  0  0  0
 24 41  1  0  0  0  0
 25 60  1  0  0  0  0
 26 54  1  0  0  0  0
 27 82  1  0  0  0  0
 28 83  1  0  0  0  0
 29 31  2  0  0  0  0
 29 82  1  0  0  0  0
 30 84  1  0  0  0  0
 31 85  1  0  0  0  0
 32 66  2  0  0  0  0
 33 67  1  0  0  0  0
 33 70  1  0  0  0  0
 34 71  1  0  0  0  0
 34 77  2  0  0  0  0
 35 51  1  0  0  0  0
 35 72  1  0  0  0  0
 35 78  2  0  0  0  0
 36 63  1  0  0  0  0
 36 68  1  0  0  0  0
 36 79  2  0  0  0  0
 37 64  1  0  0  0  0
 37 73  1  0  0  0  0
 37 80  2  0  0  0  0
 38 69  1  0  0  0  0
 38 74  1  0  0  0  0
 38 81  2  0  0  0  0
 39 42  1  0  0  0  0
 40 51  1  0  0  0  0
 41 68  1  0  0  0  0
 42 44  1  0  0  0  0
 43 45  1  0  0  0  0
 43 47  1  0  0  0  0
 44 50  1  0  0  0  0
 45 52  1  0  0  0  0
 46 49  1  0  0  0  0
 46 53  1  0  0  0  0
 47 69  1  0  0  0  0
 48 52  1  0  0  0  0
 48 69  1  0  0  0  0
 49 53  1  0  0  0  0
 50 72  1  0  0  0  0
 51 68  1  0  0  0  0
 52 67  1  0  0  0  0
 53 75  1  0  0  0  0
 55 64  1  0  0  0  0
 56 65  1  0  0  0  0
 57 65  1  0  0  0  0
 58 65  1  0  0  0  0
 59 76  1  0  0  0  0
 60 74  1  0  0  0  0
 61 62  1  0  0  0  0
 61 75  1  0  0  0  0
 62 83  1  0  0  0  0
 63 65  1  0  0  0  0
 63 73  1  0  0  0  0
 64 76  1  0  0  0  0
 66 67  1  0  0  0  0
M  CHG  2  75   1  76   1
M  ISO  4  38 100  62 101  74 100  83 101
M  END
> <Batch ID>
0150

> <Smiles>
CNC(C)C(=O)NC(C(=O)N1Cc2cc([101O:1][101CH2:1]CNC3CC3c3ccc(C[100NH:0][100C:0](=O)N4CCCC(n5nc(-c6ccc(Oc7ccc(F)cc7F)cc6)c(C(N)=O)c5N)C4)cc3C)ccc2CC1C(=O)NC1CCCc2ccccc21)C(C)(C)C

> <Shape>
0.329

> <Color>
0.173

> <Negative vol penalty>
0.000

$$$$

  -OEChem-04052321413D

 87 96  0     1  0  0  0  0  0999 V2000
  -15.0436  -23.4476   25.1583 C   0  0  0  0  0  0  0  0  0  0  0  0
  -16.3060  -23.1137   24.6786 C   0  0  0  0  0  0  0  0  0  0  0  0
  -22.6655  -10.1902   20.1927 C   0  0  0  0  0  0  0  0  0  0  0  0
  -24.3233   -9.4312   21.7779 C   0  0  0  0  0  0  0  0  0  0  0  0
  -14.2483  -24.3512   24.4548 C   0  0  0  0  0  0  0  0  0  0  0  0
  -16.7735  -23.6823   23.4943 C   0  0  0  0  0  0  0  0  0  0  0  0
  -21.5717  -25.2602   23.8586 C   0  0  0  0  0  0  0  0  0  0  0  0
  -21.9357   -9.0188   20.3951 C   0  0  0  0  0  0  0  0  0  0  0  0
  -23.5935   -8.2599   21.9803 C   0  0  0  0  0  0  0  0  0  0  0  0
  -22.5691  -24.2895   23.7777 C   0  0  0  0  0  0  0  0  0  0  0  0
  -20.8524   -7.3024   23.7094 C   0  0  0  0  0  0  0  0  0  0  0  0
  -20.6714   -6.8724   25.0239 C   0  0  0  0  0  0  0  0  0  0  0  0
  -22.9414  -24.8732   21.4669 C   0  0  0  0  0  0  0  0  0  0  0  0
  -26.8838  -21.6893   23.9005 C   0  0  0  0  0  0  0  0  0  0  0  0
  -26.4327  -19.3904   22.3859 C   0  0  0  0  0  0  0  0  0  0  0  0
  -21.8018   -4.8019   24.5024 C   0  0  0  0  0  0  0  0  0  0  0  0
  -23.8594  -10.3964   20.8841 C   0  0  0  0  0  0  0  0  0  0  0  0
  -24.1833  -12.9267   20.9029 C   0  0  0  0  0  0  0  0  0  0  0  0
  -14.7102  -24.9386   23.2663 C   0  0  0  0  0  0  0  0  0  0  0  0
  -21.2436  -26.0386   22.7392 C   0  0  0  0  0  0  0  0  0  0  0  0
  -15.9831  -24.5936   22.7735 C   0  0  0  0  0  0  0  0  0  0  0  0
  -21.9412  -25.8549   21.5369 C   0  0  0  0  0  0  0  0  0  0  0  0
  -27.9316  -20.8039   23.6479 C   0  0  0  0  0  0  0  0  0  0  0  0
  -25.6105  -21.4253   23.3959 C   0  0  0  0  0  0  0  0  0  0  0  0
  -27.7061  -19.6544   22.8906 C   0  0  0  0  0  0  0  0  0  0  0  0
  -22.3997   -8.0537   21.2889 C   0  0  0  0  0  0  0  0  0  0  0  0
  -23.2521  -24.0938   22.5809 C   0  0  0  0  0  0  0  0  0  0  0  0
  -21.5081   -6.4821   22.7913 C   0  0  0  0  0  0  0  0  0  0  0  0
  -25.3850  -20.2759   22.6385 C   0  0  0  0  0  0  0  0  0  0  0  0
  -21.1461   -5.6222   25.4204 C   0  0  0  0  0  0  0  0  0  0  0  0
  -21.9828   -5.2318   23.1878 C   0  0  0  0  0  0  0  0  0  0  0  0
  -24.6140  -11.6059   20.6750 C   0  0  0  0  0  0  0  0  0  0  0  0
  -25.2603  -13.7041   20.5534 C   0  0  0  0  0  0  0  0  0  0  0  0
  -22.9225  -13.4077   21.3874 C   0  0  0  0  0  0  0  0  0  0  0  0
  -18.6294  -26.4436   20.9769 C   0  0  0  0  0  0  0  0  0  0  0  0
  -20.4150  -28.7508   19.5588 C   0  0  0  0  0  0  0  0  0  0  0  0
  -23.5155  -29.9708   18.8204 C   0  0  0  0  0  0  0  0  0  0  0  0
  -30.7413  -14.7505   20.6455 C   0  0  0  0  0  0  0  0  0  0  0  0
  -13.7956  -25.8739   22.5157 C   0  0  0  0  0  0  0  0  0  0  0  0
  -20.1836  -27.1000   22.8504 C   0  0  0  0  0  0  0  0  0  0  0  0
  -21.6409  -26.6783   20.3120 C   0  0  0  0  0  0  0  0  0  0  0  0
  -14.5152  -26.7178   21.4667 C   0  0  0  0  0  0  0  0  0  0  0  0
  -29.5490  -12.5016   18.1560 C   0  0  0  0  0  0  0  0  0  0  0  0
  -15.4500  -25.8484   20.6317 C   0  0  0  0  0  0  0  0  0  0  0  0
  -28.1263  -12.1725   18.6116 C   0  0  0  0  0  0  0  0  0  0  0  0
  -30.5280  -18.0094   21.0863 C   0  0  0  0  0  0  0  0  0  0  0  0
  -30.4459  -17.1656   23.4426 C   0  0  0  0  0  0  0  0  0  0  0  0
  -30.4991  -12.6585   19.3413 C   0  0  0  0  0  0  0  0  0  0  0  0
  -29.0919  -18.5169   21.2182 C   0  0  0  0  0  0  0  0  0  0  0  0
  -29.0052  -17.6612   23.5689 C   0  0  0  0  0  0  0  0  0  0  0  0
  -28.6339  -13.2931   20.8219 C   0  0  0  0  0  0  0  0  0  0  0  0
  -16.5353  -25.2082   21.5056 C   0  0  1  0  0  0  0  0  0  0  0  0
  -19.5781  -27.4831   21.5035 C   0  0  1  0  0  0  0  0  0  0  0  0
  -27.6273  -13.1807   19.6642 C   0  0  2  0  0  0  0  0  0  0  0  0
  -30.8306  -16.8254   22.0042 C   0  0  0  0  0  0  0  0  0  0  0  0
  -29.2856  -21.1101   24.2007 C   0  0  0  0  0  0  0  0  0  0  0  0
  -24.6560  -31.8534   17.6152 C   0  0  0  0  0  0  0  0  0  0  0  0
  -19.7960  -27.4125   16.8874 C   0  0  0  0  0  0  0  0  0  0  0  0
  -21.6773  -28.7188   15.8763 C   0  0  0  0  0  0  0  0  0  0  0  0
  -19.7128  -29.9117   16.8463 C   0  0  0  0  0  0  0  0  0  0  0  0
  -24.8087  -30.9308   21.3033 C   0  0  0  0  0  0  0  0  0  0  0  0
  -24.0070  -18.8064   21.3746 C   0  0  0  0  0  0  0  0  0  0  0  0
  -24.4957  -22.3891   23.6779 C   0  0  0  0  0  0  0  0  0  1  0  0
  -21.3728  -28.7959   18.3928 C   0  0  1  0  0  0  0  0  0  0  0  0
  -24.1060  -31.3636   18.9458 C   0  0  2  0  0  0  0  0  0  0  0  0
  -20.6443  -28.6927   17.0231 C   0  0  0  0  0  0  0  0  0  0  0  0
  -25.8668  -11.5440   20.2160 N   0  0  0  0  0  0  0  0  0  0  0  0
  -26.2326  -12.8356   20.1527 N   0  0  0  0  0  0  0  0  0  0  0  0
  -28.7472  -18.7548   22.6263 N   0  0  0  0  0  0  0  0  0  0  0  0
  -20.5917  -27.6991   20.4691 N   0  0  0  0  0  0  0  0  0  0  0  0
  -29.9684  -13.6293   20.3014 N   0  0  0  0  0  0  0  0  0  0  0  0
  -25.4610  -15.0391   20.5528 N   0  0  0  0  0  0  0  0  0  0  0  0
  -21.9259  -12.4730   21.6993 N   0  0  0  0  0  0  0  0  0  0  0  0
  -17.5671  -26.1737   21.8184 N   0  0  0  0  0  0  0  0  0  0  0  0
  -22.1621  -30.0114   18.5597 N   0  0  0  0  0  0  0  0  0  0  0  0
  -30.1614  -15.6240   21.5573 N   0  0  0  0  0  0  0  0  0  0  0  0
  -25.2138  -31.3687   19.9427 N   0  3  0  0  0  0  0  0  0  0  0  0
  -22.6811  -14.6311   21.5236 O   0  0  0  0  0  0  0  0  0  0  0  0
  -18.8444  -25.9260   19.8872 O   0  0  0  0  0  0  0  0  0  0  0  0
  -19.5466  -29.6208   19.6620 O   0  0  0  0  0  0  0  0  0  0  0  0
  -24.1882  -28.9489   18.9379 O   0  0  0  0  0  0  0  0  0  0  0  0
  -31.8628  -14.9606   20.1708 O   0  0  0  0  0  0  0  0  0  0  0  0
  -21.6877   -6.9107   21.4869 O   0  0  0  0  0  0  0  0  0  0  0  0
  -24.1477  -20.0031   22.1375 O   0  0  0  0  0  0  0  0  0  0  0  0
  -24.2256  -23.1465   22.4990 O   0  0  0  0  0  0  0  0  0  1  0  0
  -20.9735   -5.2101   26.6832 F   0  0  0  0  0  0  0  0  0  0  0  0
  -22.6146   -4.4398   22.3106 F   0  0  0  0  0  0  0  0  0  0  0  0
  1  2  1  0  0  0  0
  1  5  2  0  0  0  0
  2  6  2  0  0  0  0
  3  8  2  0  0  0  0
  3 17  1  0  0  0  0
  4  9  1  0  0  0  0
  4 17  2  0  0  0  0
  5 19  1  0  0  0  0
  6 21  1  0  0  0  0
  7 10  2  0  0  0  0
  7 20  1  0  0  0  0
  8 26  1  0  0  0  0
  9 26  2  0  0  0  0
 10 27  1  0  0  0  0
 11 12  2  0  0  0  0
 11 28  1  0  0  0  0
 12 30  1  0  0  0  0
 13 22  1  0  0  0  0
 13 27  2  0  0  0  0
 14 23  2  0  0  0  0
 14 24  1  0  0  0  0
 15 25  2  0  0  0  0
 15 29  1  0  0  0  0
 16 30  2  0  0  0  0
 16 31  1  0  0  0  0
 17 32  1  0  0  0  0
 18 32  1  0  0  0  0
 18 33  2  0  0  0  0
 18 34  1  0  0  0  0
 19 21  2  0  0  0  0
 19 39  1  0  0  0  0
 20 22  2  0  0  0  0
 20 40  1  0  0  0  0
 21 52  1  0  0  0  0
 22 41  1  0  0  0  0
 23 25  1  0  0  0  0
 23 56  1  0  0  0  0
 24 29  2  0  0  0  0
 24 63  1  0  0  0  0
 25 69  1  0  0  0  0
 26 83  1  0  0  0  0
 27 85  1  0  0  0  0
 28 31  2  0  0  0  0
 28 83  1  0  0  0  0
 29 84  1  0  0  0  0
 30 86  1  0  0  0  0
 31 87  1  0  0  0  0
 32 67  2  0  0  0  0
 33 68  1  0  0  0  0
 33 72  1  0  0  0  0
 34 73  1  0  0  0  0
 34 78  2  0  0  0  0
 35 53  1  0  0  0  0
 35 74  1  0  0  0  0
 35 79  2  0  0  0  0
 36 64  1  0  0  0  0
 36 70  1  0  0  0  0
 36 80  2  0  0  0  0
 37 65  1  0  0  0  0
 37 75  1  0  0  0  0
 37 81  2  0  0  0  0
 38 71  1  0  0  0  0
 38 76  1  0  0  0  0
 38 82  2  0  0  0  0
 39 42  1  0  0  0  0
 40 53  1  0  0  0  0
 41 70  1  0  0  0  0
 42 44  1  0  0  0  0
 43 45  1  0  0  0  0
 43 48  1  0  0  0  0
 44 52  1  0  0  0  0
 45 54  1  0  0  0  0
 46 49  1  0  0  0  0
 46 55  1  0  0  0  0
 47 50  1  0  0  0  0
 47 55  1  0  0  0  0
 48 71  1  0  0  0  0
 49 69  1  0  0  0  0
 50 69  1  0  0  0  0
 51 54  1  0  0  0  0
 51 71  1  0  0  0  0
 52 74  1  0  0  0  0
 53 70  1  0  0  0  0
 54 68  1  0  0  0  0
 55 76  1  0  0  0  0
 57 65  1  0  0  0  0
 58 66  1  0  0  0  0
 59 66  1  0  0  0  0
 60 66  1  0  0  0  0
 61 77  1  0  0  0  0
 62 84  1  0  0  0  0
 63 85  1  0  0  0  0
 64 66  1  0  0  0  0
 64 75  1  0  0  0  0
 65 77  1  0  0  0  0
 67 68  1  0  0  0  0
M  CHG  1  77   1
M  ISO  4  38 100  63 101  76 100  85 101
M  END
> <Batch ID>
0150

> <Smiles>
CNC(C)C(=O)NC(C(=O)N1Cc2cc([101O:1][101CH2:1]c3cc(C)c(N4CCC([100NH:0][100C:0](=O)N5CCCC(n6nc(-c7ccc(Oc8ccc(F)cc8F)cc7)c(C(N)=O)c6N)C5)CC4)cc3OC)ccc2CC1C(=O)NC1CCCc2ccccc21)C(C)(C)C

> <Shape>
0.273

> <Color>
0.196

> <Negative vol penalty>
0.000

$$$$

  -OEChem-04052321413D

 87 96  0     1  0  0  0  0  0999 V2000
  -21.2478  -30.2860   14.6976 C   0  0  0  0  0  0  0  0  0  0  0  0
  -22.4810  -29.8627   15.1827 C   0  0  0  0  0  0  0  0  0  0  0  0
  -23.2076  -14.3504   23.6139 C   0  0  0  0  0  0  0  0  0  0  0  0
  -24.3639  -12.3185   24.2234 C   0  0  0  0  0  0  0  0  0  0  0  0
  -20.6120  -31.3837   15.2762 C   0  0  0  0  0  0  0  0  0  0  0  0
  -23.0797  -30.5375   16.2459 C   0  0  0  0  0  0  0  0  0  0  0  0
  -24.9702  -27.3856   19.7297 C   0  0  0  0  0  0  0  0  0  0  0  0
  -22.6123  -14.3899   24.8747 C   0  0  0  0  0  0  0  0  0  0  0  0
  -23.7687  -12.3580   25.4843 C   0  0  0  0  0  0  0  0  0  0  0  0
  -26.1894  -26.7743   19.4406 C   0  0  0  0  0  0  0  0  0  0  0  0
  -20.7715  -11.5936   26.8494 C   0  0  0  0  0  0  0  0  0  0  0  0
  -20.2413  -10.4060   27.3532 C   0  0  0  0  0  0  0  0  0  0  0  0
  -27.3222  -28.3924   20.8254 C   0  0  0  0  0  0  0  0  0  0  0  0
  -31.3293  -22.9003   21.6326 C   0  0  0  0  0  0  0  0  0  0  0  0
  -21.7429  -10.5365   29.2414 C   0  0  0  0  0  0  0  0  0  0  0  0
  -24.0833  -13.3147   23.2882 C   0  0  0  0  0  0  0  0  0  0  0  0
  -24.0465  -13.1950   20.7402 C   0  0  0  0  0  0  0  0  0  0  0  0
  -21.1987  -32.0664   16.3534 C   0  0  0  0  0  0  0  0  0  0  0  0
  -24.9190  -28.5134   20.5615 C   0  0  0  0  0  0  0  0  0  0  0  0
  -22.4518  -31.6462   16.8386 C   0  0  0  0  0  0  0  0  0  0  0  0
  -26.1008  -29.0146   21.1256 C   0  0  0  0  0  0  0  0  0  0  0  0
  -31.6663  -20.7046   20.6342 C   0  0  0  0  0  0  0  0  0  0  0  0
  -30.6396  -20.9721   19.7112 C   0  0  0  0  0  0  0  0  0  0  0  0
  -32.0014  -21.6794   21.5894 C   0  0  0  0  0  0  0  0  0  0  0  0
  -29.9728  -22.2081   19.7654 C   0  0  0  0  0  0  0  0  0  0  0  0
  -22.8929  -13.3938   25.8099 C   0  0  0  0  0  0  0  0  0  0  0  0
  -27.3660  -27.2795   19.9861 C   0  0  0  0  0  0  0  0  0  0  0  0
  -21.7876  -12.2527   27.5415 C   0  0  0  0  0  0  0  0  0  0  0  0
  -30.3147  -23.1647   20.7203 C   0  0  0  0  0  0  0  0  0  0  0  0
  -20.7269   -9.8774   28.5493 C   0  0  0  0  0  0  0  0  0  0  0  0
  -22.2732  -11.7242   28.7375 C   0  0  0  0  0  0  0  0  0  0  0  0
  -24.6981  -13.2730   21.9857 C   0  0  0  0  0  0  0  0  0  0  0  0
  -25.0657  -13.1837   19.8196 C   0  0  0  0  0  0  0  0  0  0  0  0
  -22.6452  -13.1380   20.4422 C   0  0  0  0  0  0  0  0  0  0  0  0
  -24.0015  -31.5341   20.1910 C   0  0  0  0  0  0  0  0  0  0  0  0
  -24.5518  -31.6843   23.3843 C   0  0  0  0  0  0  0  0  0  0  0  0
  -27.0465  -30.4628   25.6868 C   0  0  0  0  0  0  0  0  0  0  0  0
  -30.6972  -15.2138   19.9462 C   0  0  0  0  0  0  0  0  0  0  0  0
  -20.4956  -33.2766   16.9154 C   0  0  0  0  0  0  0  0  0  0  0  0
  -23.5928  -29.1451   20.8851 C   0  0  0  0  0  0  0  0  0  0  0  0
  -32.4223  -19.4000   20.6183 C   0  0  0  0  0  0  0  0  0  0  0  0
  -30.2423  -19.9678   18.6589 C   0  0  0  0  0  0  0  0  0  0  0  0
  -26.0975  -30.2108   22.0408 C   0  0  0  0  0  0  0  0  0  0  0  0
  -21.0216  -33.7065   18.2824 C   0  0  0  0  0  0  0  0  0  0  0  0
  -31.5413  -18.1911   20.9385 C   0  0  0  0  0  0  0  0  0  0  0  0
  -29.6581  -18.6816   19.2460 C   0  0  0  0  0  0  0  0  0  0  0  0
  -29.6393  -11.8736   19.3129 C   0  0  0  0  0  0  0  0  0  0  0  0
  -22.5468  -33.7314   18.2837 C   0  0  0  0  0  0  0  0  0  0  0  0
  -28.1942  -11.8465   19.8137 C   0  0  0  0  0  0  0  0  0  0  0  0
  -30.5246  -12.7548   20.1914 C   0  0  0  0  0  0  0  0  0  0  0  0
  -28.5830  -14.1023   20.8902 C   0  0  0  0  0  0  0  0  0  0  0  0
  -23.1216  -32.3371   18.0066 C   0  0  1  0  0  0  0  0  0  0  0  0
  -23.7165  -30.5986   21.3318 C   0  0  1  0  0  0  0  0  0  0  0  0
  -27.6398  -13.2712   20.0038 C   0  0  2  0  0  0  0  0  0  0  0  0
  -30.7141  -17.6876   19.7480 C   0  0  2  0  0  0  0  0  0  0  0  0
  -33.0778  -21.4661   22.6075 C   0  0  0  0  0  0  0  0  0  0  0  0
  -28.8669  -22.5464   18.8117 C   0  0  0  0  0  0  0  0  0  0  0  0
  -26.8848  -29.9230   28.1322 C   0  0  0  0  0  0  0  0  0  0  0  0
  -25.5436  -34.5420   23.7845 C   0  0  0  0  0  0  0  0  0  0  0  0
  -26.9226  -33.7202   25.7058 C   0  0  0  0  0  0  0  0  0  0  0  0
  -24.4365  -33.5319   25.7866 C   0  0  0  0  0  0  0  0  0  0  0  0
  -28.0538  -27.7121   25.2648 C   0  0  0  0  0  0  0  0  0  0  0  0
  -29.5729  -26.7607   20.7048 C   0  0  0  0  0  0  0  0  0  1  0  0
  -30.4605  -25.5355   20.6028 C   0  0  0  0  0  0  0  0  0  0  0  0
  -25.7453  -32.0103   24.2493 C   0  0  1  0  0  0  0  0  0  0  0  0
  -26.8703  -29.3630   26.7183 C   0  0  2  0  0  0  0  0  0  0  0  0
  -25.6650  -33.4397   24.8556 C   0  0  0  0  0  0  0  0  0  0  0  0
  -26.0283  -13.3085   21.8704 N   0  0  0  0  0  0  0  0  0  0  0  0
  -26.2208  -13.2525   20.5415 N   0  0  0  0  0  0  0  0  0  0  0  0
  -24.7767  -30.7973   22.3220 N   0  0  0  0  0  0  0  0  0  0  0  0
  -29.9436  -14.0924   20.3302 N   0  0  0  0  0  0  0  0  0  0  0  0
  -25.0776  -13.1215   18.4712 N   0  0  0  0  0  0  0  0  0  0  0  0
  -22.0301  -11.8813   20.3605 N   0  0  0  0  0  0  0  0  0  0  0  0
  -23.0448  -31.5135   19.1941 N   0  0  0  0  0  0  0  0  0  0  0  0
  -25.8337  -30.9444   25.2415 N   0  0  0  0  0  0  0  0  0  0  0  0
  -30.0695  -16.4433   20.1045 N   0  0  0  0  0  0  0  0  0  0  0  0
  -27.9663  -28.3603   26.5987 N   0  3  0  0  0  0  0  0  0  0  0  0
  -21.9624  -14.1702   20.2376 O   0  0  0  0  0  0  0  0  0  0  0  0
  -25.0135  -32.2246   20.2143 O   0  0  0  0  0  0  0  0  0  0  0  0
  -23.4586  -32.1922   23.6459 O   0  0  0  0  0  0  0  0  0  0  0  0
  -28.1497  -30.8578   25.3161 O   0  0  0  0  0  0  0  0  0  0  0  0
  -31.8425  -15.1254   19.4906 O   0  0  0  0  0  0  0  0  0  0  0  0
  -22.3124  -13.4321   27.0404 O   0  0  0  0  0  0  0  0  0  0  0  0
  -28.5575  -26.6851   19.7050 O   0  0  0  0  0  0  0  0  0  1  0  0
  -29.6649  -24.3695   20.7782 O   0  0  0  0  0  0  0  0  0  0  0  0
  -20.2165   -8.7377   29.0338 F   0  0  0  0  0  0  0  0  0  0  0  0
  -23.2483  -12.3535   29.4075 F   0  0  0  0  0  0  0  0  0  0  0  0
  1  2  1  0  0  0  0
  1  5  2  0  0  0  0
  2  6  2  0  0  0  0
  3  8  2  0  0  0  0
  3 16  1  0  0  0  0
  4  9  1  0  0  0  0
  4 16  2  0  0  0  0
  5 18  1  0  0  0  0
  6 20  1  0  0  0  0
  7 10  2  0  0  0  0
  7 19  1  0  0  0  0
  8 26  1  0  0  0  0
  9 26  2  0  0  0  0
 10 27  1  0  0  0  0
 11 12  2  0  0  0  0
 11 28  1  0  0  0  0
 12 30  1  0  0  0  0
 13 21  1  0  0  0  0
 13 27  2  0  0  0  0
 14 24  2  0  0  0  0
 14 29  1  0  0  0  0
 15 30  2  0  0  0  0
 15 31  1  0  0  0  0
 16 32  1  0  0  0  0
 17 32  1  0  0  0  0
 17 33  2  0  0  0  0
 17 34  1  0  0  0  0
 18 20  2  0  0  0  0
 18 39  1  0  0  0  0
 19 21  2  0  0  0  0
 19 40  1  0  0  0  0
 20 52  1  0  0  0  0
 21 43  1  0  0  0  0
 22 23  2  0  0  0  0
 22 24  1  0  0  0  0
 22 41  1  0  0  0  0
 23 25  1  0  0  0  0
 23 42  1  0  0  0  0
 24 56  1  0  0  0  0
 25 29  2  0  0  0  0
 25 57  1  0  0  0  0
 26 83  1  0  0  0  0
 27 84  1  0  0  0  0
 28 31  2  0  0  0  0
 28 83  1  0  0  0  0
 29 85  1  0  0  0  0
 30 86  1  0  0  0  0
 31 87  1  0  0  0  0
 32 68  2  0  0  0  0
 33 69  1  0  0  0  0
 33 72  1  0  0  0  0
 34 73  1  0  0  0  0
 34 78  2  0  0  0  0
 35 53  1  0  0  0  0
 35 74  1  0  0  0  0
 35 79  2  0  0  0  0
 36 65  1  0  0  0  0
 36 70  1  0  0  0  0
 36 80  2  0  0  0  0
 37 66  1  0  0  0  0
 37 75  1  0  0  0  0
 37 81  2  0  0  0  0
 38 71  1  0  0  0  0
 38 76  1  0  0  0  0
 38 82  2  0  0  0  0
 39 44  1  0  0  0  0
 40 53  1  0  0  0  0
 41 45  1  0  0  0  0
 42 46  1  0  0  0  0
 43 70  1  0  0  0  0
 44 48  1  0  0  0  0
 45 55  1  0  0  0  0
 46 55  1  0  0  0  0
 47 49  1  0  0  0  0
 47 50  1  0  0  0  0
 48 52  1  0  0  0  0
 49 54  1  0  0  0  0
 50 71  1  0  0  0  0
 51 54  1  0  0  0  0
 51 71  1  0  0  0  0
 52 74  1  0  0  0  0
 53 70  1  0  0  0  0
 54 69  1  0  0  0  0
 55 76  1  0  0  0  0
 58 66  1  0  0  0  0
 59 67  1  0  0  0  0
 60 67  1  0  0  0  0
 61 67  1  0  0  0  0
 62 77  1  0  0  0  0
 63 64  1  0  0  0  0
 63 84  1  0  0  0  0
 64 85  1  0  0  0  0
 65 67  1  0  0  0  0
 65 75  1  0  0  0  0
 66 77  1  0  0  0  0
 68 69  1  0  0  0  0
M  CHG  1  77   1
M  ISO  4  38 100  63 101  76 100  84 101
M  END
> <Batch ID>
0150

> <Smiles>
CNC(C)C(=O)NC(C(=O)N1Cc2cc([101O:1][101CH2:1]COc3cc(C)c4c(c3C)CCC([100NH:0][100C:0](=O)N3CCCC(n5nc(-c6ccc(Oc7ccc(F)cc7F)cc6)c(C(N)=O)c5N)C3)CC4)ccc2CC1C(=O)NC1CCCc2ccccc21)C(C)(C)C

> <Shape>
0.266

> <Color>
0.121

> <Negative vol penalty>
0.000

$$$$

  -OEChem-04052321413D

 90100  0     1  0  0  0  0  0999 V2000
  -27.6381  -37.8185   23.0092 C   0  0  0  0  0  0  0  0  0  0  0  0
  -28.1983  -36.7993   22.2457 C   0  0  0  0  0  0  0  0  0  0  0  0
  -24.2718   -9.6295   21.8292 C   0  0  0  0  0  0  0  0  0  0  0  0
  -24.8343  -11.0889   23.6706 C   0  0  0  0  0  0  0  0  0  0  0  0
  -26.7774  -37.5075   24.0610 C   0  0  0  0  0  0  0  0  0  0  0  0
  -27.8989  -35.4684   22.5344 C   0  0  0  0  0  0  0  0  0  0  0  0
  -27.0113  -29.1238   19.3290 C   0  0  0  0  0  0  0  0  0  0  0  0
  -23.9710   -8.6083   22.7304 C   0  0  0  0  0  0  0  0  0  0  0  0
  -24.5335  -10.0677   24.5719 C   0  0  0  0  0  0  0  0  0  0  0  0
  -27.4575  -27.8053   19.4081 C   0  0  0  0  0  0  0  0  0  0  0  0
  -22.7094   -5.7319   24.5608 C   0  0  0  0  0  0  0  0  0  0  0  0
  -21.5390   -5.0035   24.3485 C   0  0  0  0  0  0  0  0  0  0  0  0
  -28.0264  -21.4853   19.7512 C   0  0  0  0  0  0  0  0  0  0  0  0
  -25.8953  -27.3904   21.1988 C   0  0  0  0  0  0  0  0  0  0  0  0
  -29.9798  -23.4483   20.0883 C   0  0  0  0  0  0  0  0  0  0  0  0
  -20.2400   -7.0298   24.5577 C   0  0  0  0  0  0  0  0  0  0  0  0
  -24.7035  -10.8698   22.2993 C   0  0  0  0  0  0  0  0  0  0  0  0
  -24.1346  -12.9009   20.8645 C   0  0  0  0  0  0  0  0  0  0  0  0
  -26.4597  -36.1725   24.3566 C   0  0  0  0  0  0  0  0  0  0  0  0
  -26.0097  -29.5893   20.1930 C   0  0  0  0  0  0  0  0  0  0  0  0
  -27.0341  -35.1392   23.5920 C   0  0  0  0  0  0  0  0  0  0  0  0
  -29.3234  -21.1233   20.1148 C   0  0  0  0  0  0  0  0  0  0  0  0
  -25.4363  -28.7145   21.1269 C   0  0  0  0  0  0  0  0  0  0  0  0
  -27.7060  -22.8288   19.5561 C   0  0  0  0  0  0  0  0  0  0  0  0
  -28.6828  -23.8103   19.7247 C   0  0  0  0  0  0  0  0  0  0  0  0
  -24.1018   -8.8274   24.1018 C   0  0  0  0  0  0  0  0  0  0  0  0
  -26.9015  -26.9392   20.3451 C   0  0  0  0  0  0  0  0  0  0  0  0
  -22.6452   -7.1093   24.7716 C   0  0  0  0  0  0  0  0  0  0  0  0
  -30.3001  -22.1048   20.2834 C   0  0  0  0  0  0  0  0  0  0  0  0
  -20.3043   -5.6524   24.3469 C   0  0  0  0  0  0  0  0  0  0  0  0
  -21.4105   -7.7582   24.7701 C   0  0  0  0  0  0  0  0  0  0  0  0
  -25.0149  -11.9249   21.3688 C   0  0  0  0  0  0  0  0  0  0  0  0
  -24.9105  -13.6623   20.0251 C   0  0  0  0  0  0  0  0  0  0  0  0
  -22.7401  -13.1013   21.1310 C   0  0  0  0  0  0  0  0  0  0  0  0
  -25.8476  -31.8367   22.4350 C   0  0  0  0  0  0  0  0  0  0  0  0
  -22.7044  -31.0354   22.4605 C   0  0  0  0  0  0  0  0  0  0  0  0
  -20.3064  -28.6930   21.8209 C   0  0  0  0  0  0  0  0  0  0  0  0
  -29.5592  -16.3282   18.8209 C   0  0  0  0  0  0  0  0  0  0  0  0
  -25.5614  -35.8835   25.5332 C   0  0  0  0  0  0  0  0  0  0  0  0
  -25.5206  -31.0069   20.0769 C   0  0  0  0  0  0  0  0  0  0  0  0
  -24.3441  -29.1594   22.0636 C   0  0  0  0  0  0  0  0  0  0  0  0
  -25.0004  -34.4638   25.5369 C   0  0  0  0  0  0  0  0  0  0  0  0
  -29.5644  -12.9095   18.2306 C   0  0  0  0  0  0  0  0  0  0  0  0
  -26.1048  -33.4526   25.2465 C   0  0  0  0  0  0  0  0  0  0  0  0
  -27.1850  -20.6135   23.8037 C   0  0  0  0  0  0  0  0  0  0  0  0
  -28.3322  -20.8077   24.7556 C   0  0  0  0  0  0  0  0  0  0  0  0
  -28.3195  -12.4107   18.9611 C   0  0  0  0  0  0  0  0  0  0  0  0
  -30.2807  -13.9753   19.0499 C   0  0  0  0  0  0  0  0  0  0  0  0
  -29.4274  -18.7958   19.0811 C   0  0  0  0  0  0  0  0  0  0  0  0
  -29.0243  -17.4685   21.0466 C   0  0  0  0  0  0  0  0  0  0  0  0
  -28.1524  -14.6796   20.1085 C   0  0  0  0  0  0  0  0  0  0  0  0
  -29.6517  -19.6644   20.3235 C   0  0  2  0  0  0  0  0  0  0  0  0
  -26.7141  -33.6843   23.8585 C   0  0  1  0  0  0  0  0  0  0  0  0
  -24.8563  -31.5161   21.3523 C   0  0  1  0  0  0  0  0  0  0  0  0
  -28.5988  -20.5847   23.2928 C   0  0  0  0  0  0  0  0  0  0  0  0
  -28.8065  -18.9442   21.3906 C   0  0  2  0  0  0  0  0  0  0  0  0
  -27.3960  -13.5839   19.3288 C   0  0  2  0  0  0  0  0  0  0  0  0
  -26.3111  -23.1917   19.1648 C   0  0  0  0  0  0  0  0  0  0  0  0
  -17.8308  -28.3142   21.9793 C   0  0  0  0  0  0  0  0  0  0  0  0
  -22.9628  -30.6227   25.4726 C   0  0  0  0  0  0  0  0  0  0  0  0
  -20.7995  -29.3638   25.4154 C   0  0  0  0  0  0  0  0  0  0  0  0
  -20.8592  -31.7681   24.7533 C   0  0  0  0  0  0  0  0  0  0  0  0
  -20.0599  -28.3149   18.8959 C   0  0  0  0  0  0  0  0  0  0  0  0
  -32.5065  -22.8349   20.7882 C   0  0  0  0  0  0  0  0  0  0  0  0
  -28.3630  -25.2546   19.5192 C   0  0  0  0  0  0  0  0  0  1  0  0
  -21.8628  -30.0329   23.2125 C   0  0  1  0  0  0  0  0  0  0  0  0
  -18.9757  -28.7856   21.0963 C   0  0  2  0  0  0  0  0  0  0  0  0
  -29.2156  -19.2781   22.8177 C   0  0  1  0  0  0  0  0  0  0  0  0
  -21.6430  -30.4387   24.6973 C   0  0  0  0  0  0  0  0  0  0  0  0
  -26.2551  -12.0523   20.8896 N   0  0  0  0  0  0  0  0  0  0  0  0
  -26.1597  -13.1172   20.0754 N   0  0  0  0  0  0  0  0  0  0  0  0
  -23.9043  -30.5566   21.9156 N   0  0  0  0  0  0  0  0  0  0  0  0
  -29.3824  -15.0715   19.4096 N   0  0  0  0  0  0  0  0  0  0  0  0
  -29.2299  -17.4429   19.5950 N   0  0  0  0  0  0  0  0  0  0  0  0
  -24.6393  -14.7382   19.2561 N   0  0  0  0  0  0  0  0  0  0  0  0
  -22.0973  -12.2278   22.0188 N   0  0  0  0  0  0  0  0  0  0  0  0
  -25.8412  -33.1609   22.8296 N   0  0  0  0  0  0  0  0  0  0  0  0
  -20.6308  -29.8781   22.4467 N   0  0  0  0  0  0  0  0  0  0  0  0
  -18.9965  -27.9458   19.8654 N   0  3  0  0  0  0  0  0  0  0  0  0
  -22.0798  -14.0175   20.5852 O   0  0  0  0  0  0  0  0  0  0  0  0
  -26.5643  -30.9480   22.8804 O   0  0  0  0  0  0  0  0  0  0  0  0
  -22.3083  -32.1988   22.3542 O   0  0  0  0  0  0  0  0  0  0  0  0
  -20.9881  -27.6704   21.8337 O   0  0  0  0  0  0  0  0  0  0  0  0
  -30.0262  -16.4449   17.6811 O   0  0  0  0  0  0  0  0  0  0  0  0
  -30.6347  -19.3766   22.8875 O   0  0  0  0  0  0  0  0  0  0  0  0
  -23.8082   -7.8312   24.9815 O   0  0  0  0  0  0  0  0  0  0  0  0
  -31.5719  -21.7682   20.6376 O   0  0  0  0  0  0  0  0  0  0  0  0
  -27.3388  -25.6428   20.4254 O   0  0  0  0  0  0  0  0  0  1  0  0
  -19.1805   -4.9531   24.1415 F   0  0  0  0  0  0  0  0  0  0  0  0
  -21.3425   -9.0814   24.9709 F   0  0  0  0  0  0  0  0  0  0  0  0
  1  2  1  0  0  0  0
  1  5  2  0  0  0  0
  2  6  2  0  0  0  0
  3  8  2  0  0  0  0
  3 17  1  0  0  0  0
  4  9  1  0  0  0  0
  4 17  2  0  0  0  0
  5 19  1  0  0  0  0
  6 21  1  0  0  0  0
  7 10  2  0  0  0  0
  7 20  1  0  0  0  0
  8 26  1  0  0  0  0
  9 26  2  0  0  0  0
 10 27  1  0  0  0  0
 11 12  2  0  0  0  0
 11 28  1  0  0  0  0
 12 30  1  0  0  0  0
 13 22  2  0  0  0  0
 13 24  1  0  0  0  0
 14 23  1  0  0  0  0
 14 27  2  0  0  0  0
 15 25  1  0  0  0  0
 15 29  2  0  0  0  0
 16 30  2  0  0  0  0
 16 31  1  0  0  0  0
 17 32  1  0  0  0  0
 18 32  1  0  0  0  0
 18 33  2  0  0  0  0
 18 34  1  0  0  0  0
 19 21  2  0  0  0  0
 19 39  1  0  0  0  0
 20 23  2  0  0  0  0
 20 40  1  0  0  0  0
 21 53  1  0  0  0  0
 22 29  1  0  0  0  0
 22 52  1  0  0  0  0
 23 41  1  0  0  0  0
 24 25  2  0  0  0  0
 24 58  1  0  0  0  0
 25 65  1  0  0  0  0
 26 86  1  0  0  0  0
 27 88  1  0  0  0  0
 28 31  2  0  0  0  0
 28 86  1  0  0  0  0
 29 87  1  0  0  0  0
 30 89  1  0  0  0  0
 31 90  1  0  0  0  0
 32 70  2  0  0  0  0
 33 71  1  0  0  0  0
 33 75  1  0  0  0  0
 34 76  1  0  0  0  0
 34 80  2  0  0  0  0
 35 54  1  0  0  0  0
 35 77  1  0  0  0  0
 35 81  2  0  0  0  0
 36 66  1  0  0  0  0
 36 72  1  0  0  0  0
 36 82  2  0  0  0  0
 37 67  1  0  0  0  0
 37 78  1  0  0  0  0
 37 83  2  0  0  0  0
 38 73  1  0  0  0  0
 38 74  1  0  0  0  0
 38 84  2  0  0  0  0
 39 42  1  0  0  0  0
 40 54  1  0  0  0  0
 41 72  1  0  0  0  0
 42 44  1  0  0  0  0
 43 47  1  0  0  0  0
 43 48  1  0  0  0  0
 44 53  1  0  0  0  0
 45 46  1  0  0  0  0
 45 55  1  0  0  0  0
 46 55  1  0  0  0  0
 47 57  1  0  0  0  0
 48 73  1  0  0  0  0
 49 52  1  0  0  0  0
 49 74  1  0  0  0  0
 50 56  1  0  0  0  0
 50 74  1  0  0  0  0
 51 57  1  0  0  0  0
 51 73  1  0  0  0  0
 52 56  1  0  0  0  0
 53 77  1  0  0  0  0
 54 72  1  0  0  0  0
 55 68  1  0  0  0  0
 56 68  1  0  0  0  0
 57 71  1  0  0  0  0
 59 67  1  0  0  0  0
 60 69  1  0  0  0  0
 61 69  1  0  0  0  0
 62 69  1  0  0  0  0
 63 79  1  0  0  0  0
 64 87  1  0  0  0  0
 65 88  1  0  0  0  0
 66 69  1  0  0  0  0
 66 78  1  0  0  0  0
 67 79  1  0  0  0  0
 68 85  1  0  0  0  0
 70 71  1  0  0  0  0
M  CHG  1  79   1
M  ISO  4  38 100  65 101  74 100  88 101
M  END
> <Batch ID>
0150

> <Smiles>
CNC(C)C(=O)NC(C(=O)N1Cc2cc([101O:1][101CH2:1]c3cc(OC)c(C4C[100N:0]([100C:0](=O)N5CCCC(n6nc(-c7ccc(Oc8ccc(F)cc8F)cc7)c(C(N)=O)c6N)C5)CC4C(O)C4CC4)cc3C)ccc2CC1C(=O)NC1CCCc2ccccc21)C(C)(C)C

> <Shape>
0.355

> <Color>
0.119

> <Negative vol penalty>
0.000

$$$$

  -OEChem-04052321413D

 88 99  0     1  0  0  0  0  0999 V2000
  -29.2219  -37.0999   23.1649 C   0  0  0  0  0  0  0  0  0  0  0  0
  -29.5301  -35.8764   22.5788 C   0  0  0  0  0  0  0  0  0  0  0  0
  -21.4876  -12.8384   23.3820 C   0  0  0  0  0  0  0  0  0  0  0  0
  -20.7007  -12.9828   21.1023 C   0  0  0  0  0  0  0  0  0  0  0  0
  -28.2273  -37.1740   24.1392 C   0  0  0  0  0  0  0  0  0  0  0  0
  -28.8445  -34.7260   22.9674 C   0  0  0  0  0  0  0  0  0  0  0  0
  -27.3118  -29.9774   19.4168 C   0  0  0  0  0  0  0  0  0  0  0  0
  -20.1733  -12.9245   23.8411 C   0  0  0  0  0  0  0  0  0  0  0  0
  -19.3864  -13.0689   21.5614 C   0  0  0  0  0  0  0  0  0  0  0  0
  -27.8975  -28.7281   19.2169 C   0  0  0  0  0  0  0  0  0  0  0  0
  -17.5055  -10.8712   24.1570 C   0  0  0  0  0  0  0  0  0  0  0  0
  -17.1104   -9.9875   25.1613 C   0  0  0  0  0  0  0  0  0  0  0  0
  -26.3904  -27.7689   20.8379 C   0  0  0  0  0  0  0  0  0  0  0  0
  -30.3351  -22.5618   20.9686 C   0  0  0  0  0  0  0  0  0  0  0  0
  -28.2489  -21.9594   19.9094 C   0  0  0  0  0  0  0  0  0  0  0  0
  -16.6007  -11.8564   26.6052 C   0  0  0  0  0  0  0  0  0  0  0  0
  -21.7513  -12.8676   22.0126 C   0  0  0  0  0  0  0  0  0  0  0  0
  -23.8227  -11.6091   21.2169 C   0  0  0  0  0  0  0  0  0  0  0  0
  -27.5225  -36.0256   24.5331 C   0  0  0  0  0  0  0  0  0  0  0  0
  -26.2665  -30.1342   20.3383 C   0  0  0  0  0  0  0  0  0  0  0  0
  -27.8405  -34.7846   23.9489 C   0  0  0  0  0  0  0  0  0  0  0  0
  -25.7914  -29.0207   21.0458 C   0  0  0  0  0  0  0  0  0  0  0  0
  -30.2840  -21.3958   21.7325 C   0  0  0  0  0  0  0  0  0  0  0  0
  -28.1978  -20.7934   20.6733 C   0  0  0  0  0  0  0  0  0  0  0  0
  -29.2154  -20.5116   21.5848 C   0  0  0  0  0  0  0  0  0  0  0  0
  -19.1227  -13.0397   22.9308 C   0  0  0  0  0  0  0  0  0  0  0  0
  -27.4388  -27.6242   19.9296 C   0  0  0  0  0  0  0  0  0  0  0  0
  -17.4482  -12.2475   24.3768 C   0  0  0  0  0  0  0  0  0  0  0  0
  -29.3176  -22.8436   20.0571 C   0  0  0  0  0  0  0  0  0  0  0  0
  -16.6580  -10.4801   26.3854 C   0  0  0  0  0  0  0  0  0  0  0  0
  -16.9958  -12.7401   25.6009 C   0  0  0  0  0  0  0  0  0  0  0  0
  -23.1088  -12.7792   21.5377 C   0  0  0  0  0  0  0  0  0  0  0  0
  -25.0578  -12.0588   20.8183 C   0  0  0  0  0  0  0  0  0  0  0  0
  -23.4067  -10.2382   21.2742 C   0  0  0  0  0  0  0  0  0  0  0  0
  -25.8650  -31.8059   23.0118 C   0  0  0  0  0  0  0  0  0  0  0  0
  -22.8264  -30.6922   22.7903 C   0  0  0  0  0  0  0  0  0  0  0  0
  -20.6942  -28.3077   21.6009 C   0  0  0  0  0  0  0  0  0  0  0  0
  -27.9939  -17.0744   22.1625 C   0  0  0  0  0  0  0  0  0  0  0  0
  -26.4884  -36.1470   25.6241 C   0  0  0  0  0  0  0  0  0  0  0  0
  -25.6274  -31.4833   20.5228 C   0  0  0  0  0  0  0  0  0  0  0  0
  -24.6583  -29.1320   22.0318 C   0  0  0  0  0  0  0  0  0  0  0  0
  -25.5504  -34.9458   25.7107 C   0  0  0  0  0  0  0  0  0  0  0  0
  -27.2199  -15.8174   18.8179 C   0  0  0  0  0  0  0  0  0  0  0  0
  -31.0431  -20.8741   24.1461 C   0  0  0  0  0  0  0  0  0  0  0  0
  -31.7173  -22.1492   23.7465 C   0  0  0  0  0  0  0  0  0  0  0  0
  -25.6449  -20.3977   20.6635 C   0  0  0  0  0  0  0  0  0  0  0  0
  -26.2208  -19.4816   21.6975 C   0  0  0  0  0  0  0  0  0  0  0  0
  -26.3434  -33.6440   25.6528 C   0  0  0  0  0  0  0  0  0  0  0  0
  -26.1085  -14.8121   19.1164 C   0  0  0  0  0  0  0  0  0  0  0  0
  -27.1583  -17.0187   19.7570 C   0  0  0  0  0  0  0  0  0  0  0  0
  -30.2002  -18.1981   22.2755 C   0  0  0  0  0  0  0  0  0  0  0  0
  -26.0684  -15.6410   21.5084 C   0  0  0  0  0  0  0  0  0  0  0  0
  -31.3864  -21.1181   22.7011 C   0  0  0  0  0  0  0  0  0  0  0  0
  -27.0422  -19.8641   20.4956 C   0  0  0  0  0  0  0  0  0  0  0  0
  -29.1608  -19.2524   22.4081 C   0  0  2  0  0  0  0  0  0  0  0  0
  -27.1020  -33.5187   24.3261 C   0  0  1  0  0  0  0  0  0  0  0  0
  -24.9131  -31.6278   21.8630 C   0  0  1  0  0  0  0  0  0  0  0  0
  -26.1200  -14.4021   20.5994 C   0  0  1  0  0  0  0  0  0  0  0  0
  -18.2739  -27.6449   21.6163 C   0  0  0  0  0  0  0  0  0  0  0  0
  -23.1300  -29.6591   25.6452 C   0  0  0  0  0  0  0  0  0  0  0  0
  -21.1149  -28.2227   25.2655 C   0  0  0  0  0  0  0  0  0  0  0  0
  -20.9147  -30.7063   25.1448 C   0  0  0  0  0  0  0  0  0  0  0  0
  -20.4877  -28.5559   18.6590 C   0  0  0  0  0  0  0  0  0  0  0  0
  -29.3866  -26.3821   19.3648 C   0  0  0  0  0  0  0  0  0  1  0  0
  -30.0215  -25.1091   19.8901 C   0  0  0  0  0  0  0  0  0  0  0  0
  -22.0983  -29.4663   23.2863 C   0  0  1  0  0  0  0  0  0  0  0  0
  -19.3607  -28.4162   20.8837 C   0  0  2  0  0  0  0  0  0  0  0  0
  -21.8371  -29.5116   24.8184 C   0  0  0  0  0  0  0  0  0  0  0  0
  -23.8303  -13.8889   21.3584 N   0  0  0  0  0  0  0  0  0  0  0  0
  -25.0104  -13.4180   20.9208 N   0  0  0  0  0  0  0  0  0  0  0  0
  -24.0704  -30.4735   22.1817 N   0  0  0  0  0  0  0  0  0  0  0  0
  -27.1293  -16.5896   21.1615 N   0  0  0  0  0  0  0  0  0  0  0  0
  -28.9044  -18.0238   21.7013 N   0  0  0  0  0  0  0  0  0  0  0  0
  -26.1687  -11.4202   20.3936 N   0  0  0  0  0  0  0  0  0  0  0  0
  -22.1044   -9.9527   21.7064 N   0  0  0  0  0  0  0  0  0  0  0  0
  -26.2017  -33.1221   23.2646 N   0  0  0  0  0  0  0  0  0  0  0  0
  -20.8895  -29.3543   22.4772 N   0  0  0  0  0  0  0  0  0  0  0  0
  -19.4710  -27.8734   19.5002 N   0  3  0  0  0  0  0  0  0  0  0  0
  -24.1727   -9.2934   20.9672 O   0  0  0  0  0  0  0  0  0  0  0  0
  -26.2633  -30.8223   23.6245 O   0  0  0  0  0  0  0  0  0  0  0  0
  -22.3072  -31.8023   22.9310 O   0  0  0  0  0  0  0  0  0  0  0  0
  -21.4821  -27.3847   21.4062 O   0  0  0  0  0  0  0  0  0  0  0  0
  -27.9499  -16.6980   23.3369 O   0  0  0  0  0  0  0  0  0  0  0  0
  -17.8400  -13.1236   23.3785 O   0  0  0  0  0  0  0  0  0  0  0  0
  -28.0091  -26.4038   19.7369 O   0  0  0  0  0  0  0  0  0  1  0  0
  -29.3676  -23.9887   19.3065 O   0  0  0  0  0  0  0  0  0  0  0  0
  -16.2772   -9.6314   27.3492 F   0  0  0  0  0  0  0  0  0  0  0  0
  -16.9374  -14.0613   25.8175 F   0  0  0  0  0  0  0  0  0  0  0  0
  1  2  1  0  0  0  0
  1  5  2  0  0  0  0
  2  6  2  0  0  0  0
  3  8  2  0  0  0  0
  3 17  1  0  0  0  0
  4  9  1  0  0  0  0
  4 17  2  0  0  0  0
  5 19  1  0  0  0  0
  6 21  1  0  0  0  0
  7 10  2  0  0  0  0
  7 20  1  0  0  0  0
  8 26  1  0  0  0  0
  9 26  2  0  0  0  0
 10 27  1  0  0  0  0
 11 12  2  0  0  0  0
 11 28  1  0  0  0  0
 12 30  1  0  0  0  0
 13 22  1  0  0  0  0
 13 27  2  0  0  0  0
 14 23  2  0  0  0  0
 14 29  1  0  0  0  0
 15 24  1  0  0  0  0
 15 29  2  0  0  0  0
 16 30  2  0  0  0  0
 16 31  1  0  0  0  0
 17 32  1  0  0  0  0
 18 32  1  0  0  0  0
 18 33  2  0  0  0  0
 18 34  1  0  0  0  0
 19 21  2  0  0  0  0
 19 39  1  0  0  0  0
 20 22  2  0  0  0  0
 20 40  1  0  0  0  0
 21 56  1  0  0  0  0
 22 41  1  0  0  0  0
 23 25  1  0  0  0  0
 23 53  1  0  0  0  0
 24 25  2  0  0  0  0
 24 54  1  0  0  0  0
 25 55  1  0  0  0  0
 26 84  1  0  0  0  0
 27 85  1  0  0  0  0
 28 31  2  0  0  0  0
 28 84  1  0  0  0  0
 29 86  1  0  0  0  0
 30 87  1  0  0  0  0
 31 88  1  0  0  0  0
 32 69  2  0  0  0  0
 33 70  1  0  0  0  0
 33 74  1  0  0  0  0
 34 75  1  0  0  0  0
 34 79  2  0  0  0  0
 35 57  1  0  0  0  0
 35 76  1  0  0  0  0
 35 80  2  0  0  0  0
 36 66  1  0  0  0  0
 36 71  1  0  0  0  0
 36 81  2  0  0  0  0
 37 67  1  0  0  0  0
 37 77  1  0  0  0  0
 37 82  2  0  0  0  0
 38 72  1  0  0  0  0
 38 73  1  0  0  0  0
 38 83  2  0  0  0  0
 39 42  1  0  0  0  0
 40 57  1  0  0  0  0
 41 71  1  0  0  0  0
 42 48  1  0  0  0  0
 43 49  1  0  0  0  0
 43 50  1  0  0  0  0
 44 45  1  0  0  0  0
 44 53  1  0  0  0  0
 45 53  1  0  0  0  0
 46 47  1  0  0  0  0
 46 54  1  0  0  0  0
 47 54  1  0  0  0  0
 48 56  1  0  0  0  0
 49 58  1  0  0  0  0
 50 72  1  0  0  0  0
 51 55  1  0  0  0  0
 51 73  1  0  0  0  0
 52 58  1  0  0  0  0
 52 72  1  0  0  0  0
 55 73  1  0  0  0  0
 56 76  1  0  0  0  0
 57 71  1  0  0  0  0
 58 70  1  0  0  0  0
 59 67  1  0  0  0  0
 60 68  1  0  0  0  0
 61 68  1  0  0  0  0
 62 68  1  0  0  0  0
 63 78  1  0  0  0  0
 64 65  1  0  0  0  0
 64 85  1  0  0  0  0
 65 86  1  0  0  0  0
 66 68  1  0  0  0  0
 66 77  1  0  0  0  0
 67 78  1  0  0  0  0
 69 70  1  0  0  0  0
M  CHG  1  78   1
M  ISO  4  38 100  64 101  73 100  85 101
M  END
> <Batch ID>
0150

> <Smiles>
CNC(C)C(=O)NC(C(=O)N1Cc2cc([101O:1][101CH2:1]COc3cc(C4CC4)c(C4C[100N:0]4[100C:0](=O)N4CCCC(n5nc(-c6ccc(Oc7ccc(F)cc7F)cc6)c(C(N)=O)c5N)C4)c(C4CC4)c3)ccc2CC1C(=O)NC1CCCc2ccccc21)C(C)(C)C

> <Shape>
0.288

> <Color>
0.084

> <Negative vol penalty>
0.000

$$$$

  -OEChem-04052321413D

 94104  0     1  0  0  0  0  0999 V2000
  -23.4771  -23.3262   24.8919 C   0  0  0  0  0  0  0  0  0  0  0  0
  -24.4983  -23.9894   24.2191 C   0  0  0  0  0  0  0  0  0  0  0  0
  -23.0791  -11.0819   21.4953 C   0  0  0  0  0  0  0  0  0  0  0  0
  -24.0672   -8.8852   21.3070 C   0  0  0  0  0  0  0  0  0  0  0  0
  -22.1783  -23.8322   24.8585 C   0  0  0  0  0  0  0  0  0  0  0  0
  -24.2211  -25.1585   23.5115 C   0  0  0  0  0  0  0  0  0  0  0  0
  -27.6524  -28.7899   24.3392 C   0  0  0  0  0  0  0  0  0  0  0  0
  -21.8259  -10.5432   21.2040 C   0  0  0  0  0  0  0  0  0  0  0  0
  -22.8140   -8.3465   21.0157 C   0  0  0  0  0  0  0  0  0  0  0  0
  -28.8694  -28.6808   23.6679 C   0  0  0  0  0  0  0  0  0  0  0  0
  -19.8169   -6.3357   20.5774 C   0  0  0  0  0  0  0  0  0  0  0  0
  -19.4515   -5.1549   21.2238 C   0  0  0  0  0  0  0  0  0  0  0  0
  -31.0086  -20.6385   19.6630 C   0  0  0  0  0  0  0  0  0  0  0  0
  -30.2819  -21.5161   21.7933 C   0  0  0  0  0  0  0  0  0  0  0  0
  -28.1071  -30.2866   22.0371 C   0  0  0  0  0  0  0  0  0  0  0  0
  -19.6700   -6.2580   23.3622 C   0  0  0  0  0  0  0  0  0  0  0  0
  -24.1998  -10.2529   21.5468 C   0  0  0  0  0  0  0  0  0  0  0  0
  -26.0796  -10.9629   23.1183 C   0  0  0  0  0  0  0  0  0  0  0  0
  -21.8870  -25.0135   24.1581 C   0  0  0  0  0  0  0  0  0  0  0  0
  -26.6477  -29.6414   23.8575 C   0  0  0  0  0  0  0  0  0  0  0  0
  -22.9170  -25.6802   23.4676 C   0  0  0  0  0  0  0  0  0  0  0  0
  -30.5275  -20.4285   20.9552 C   0  0  0  0  0  0  0  0  0  0  0  0
  -26.8791  -30.4066   22.7055 C   0  0  0  0  0  0  0  0  0  0  0  0
  -30.9987  -23.0238   20.0468 C   0  0  0  0  0  0  0  0  0  0  0  0
  -31.2443  -21.9362   19.2087 C   0  0  0  0  0  0  0  0  0  0  0  0
  -21.6933   -9.1755   20.9642 C   0  0  0  0  0  0  0  0  0  0  0  0
  -29.0959  -29.4270   22.5151 C   0  0  0  0  0  0  0  0  0  0  0  0
  -20.1088   -7.4777   21.3233 C   0  0  0  0  0  0  0  0  0  0  0  0
  -30.5175  -22.8138   21.3391 C   0  0  0  0  0  0  0  0  0  0  0  0
  -19.3781   -5.1161   22.6162 C   0  0  0  0  0  0  0  0  0  0  0  0
  -20.0353   -7.4388   22.7157 C   0  0  0  0  0  0  0  0  0  0  0  0
  -25.4947  -10.8089   21.8471 C   0  0  0  0  0  0  0  0  0  0  0  0
  -27.3031  -11.5339   22.8664 C   0  0  0  0  0  0  0  0  0  0  0  0
  -25.5633  -10.6202   24.4113 C   0  0  0  0  0  0  0  0  0  0  0  0
  -23.6787  -29.2333   22.7982 C   0  0  0  0  0  0  0  0  0  0  0  0
  -23.6635  -32.4768   22.7560 C   0  0  0  0  0  0  0  0  0  0  0  0
  -25.4490  -35.3805   22.5898 C   0  0  0  0  0  0  0  0  0  0  0  0
  -30.5658  -15.0960   20.2804 C   0  0  0  0  0  0  0  0  0  0  0  0
  -20.4589  -25.4962   24.1114 C   0  0  0  0  0  0  0  0  0  0  0  0
  -25.3504  -29.7679   24.6080 C   0  0  0  0  0  0  0  0  0  0  0  0
  -25.8407  -31.3506   22.1586 C   0  0  0  0  0  0  0  0  0  0  0  0
  -20.3203  -26.9446   23.6496 C   0  0  0  0  0  0  0  0  0  0  0  0
  -29.7979  -12.2171   18.5281 C   0  0  0  0  0  0  0  0  0  0  0  0
  -21.1743  -27.1938   22.4104 C   0  0  0  0  0  0  0  0  0  0  0  0
  -28.6569  -11.5953   19.3329 C   0  0  0  0  0  0  0  0  0  0  0  0
  -29.1855  -18.3045   20.6247 C   0  0  0  0  0  0  0  0  0  0  0  0
  -31.5622  -18.1771   21.4877 C   0  0  0  0  0  0  0  0  0  0  0  0
  -29.9417  -25.2259   19.5767 C   0  0  0  0  0  0  0  0  0  0  0  0
  -32.3141  -25.0983   20.4382 C   0  0  0  0  0  0  0  0  0  0  0  0
  -29.6385  -13.7302   18.4350 C   0  0  0  0  0  0  0  0  0  0  0  0
  -28.9564  -16.8696   21.1082 C   0  0  0  0  0  0  0  0  0  0  0  0
  -31.2702  -16.7600   21.9726 C   0  0  0  0  0  0  0  0  0  0  0  0
  -28.4074  -13.7988   20.5792 C   0  0  0  0  0  0  0  0  0  0  0  0
  -30.1779  -26.6746   19.1693 C   0  0  0  0  0  0  0  0  0  0  0  0
  -32.5322  -26.5479   20.0238 C   0  0  0  0  0  0  0  0  0  0  0  0
  -30.2726  -19.0170   21.4494 C   0  0  0  0  0  0  0  0  0  0  0  0
  -31.2487  -24.4171   19.5647 C   0  0  0  0  0  0  0  0  0  0  0  0
  -22.6607  -26.9646   22.7096 C   0  0  1  0  0  0  0  0  0  0  0  0
  -24.2051  -30.2793   23.7396 C   0  0  1  0  0  0  0  0  0  0  0  0
  -28.5226  -12.2665   20.7113 C   0  0  1  0  0  0  0  0  0  0  0  0
  -31.7608  -22.1343   17.8213 C   0  0  0  0  0  0  0  0  0  0  0  0
  -28.6164  -25.0462   23.4352 C   0  0  0  0  0  0  0  0  0  0  0  0
  -25.1569  -37.8723   22.5381 C   0  0  0  0  0  0  0  0  0  0  0  0
  -22.7785  -32.3101   19.8408 C   0  0  0  0  0  0  0  0  0  0  0  0
  -23.4183  -34.7167   19.5816 C   0  0  0  0  0  0  0  0  0  0  0  0
  -21.6185  -34.0720   21.1840 C   0  0  0  0  0  0  0  0  0  0  0  0
  -26.9895  -35.7294   25.0926 C   0  0  0  0  0  0  0  0  0  0  0  0
  -31.3970  -28.7559   19.7989 C   0  0  0  0  0  0  0  0  0  0  0  0
  -29.2333  -23.6967   23.1356 C   0  0  0  0  0  0  0  0  0  0  0  0
  -30.2658  -29.5295   20.4471 C   0  0  0  0  0  0  0  0  0  1  0  0
  -24.0252  -33.5345   21.7414 C   0  0  1  0  0  0  0  0  0  0  0  0
  -25.3836  -36.6519   23.4166 C   0  0  2  0  0  0  0  0  0  0  0  0
  -22.9792  -33.6392   20.5959 C   0  0  0  0  0  0  0  0  0  0  0  0
  -26.2817  -11.2470   20.8609 N   0  0  0  0  0  0  0  0  0  0  0  0
  -27.3737  -11.6819   21.5124 N   0  0  0  0  0  0  0  0  0  0  0  0
  -24.5861  -31.4346   22.9245 N   0  0  0  0  0  0  0  0  0  0  0  0
  -29.5106  -14.3295   19.7632 N   0  0  0  0  0  0  0  0  0  0  0  0
  -30.2260  -16.1316   21.1639 N   0  0  0  0  0  0  0  0  0  0  0  0
  -28.3147  -11.9190   23.6732 N   0  0  0  0  0  0  0  0  0  0  0  0
  -24.2894  -10.0412   24.4900 N   0  0  0  0  0  0  0  0  0  0  0  0
  -23.2120  -28.0945   23.4265 N   0  0  0  0  0  0  0  0  0  0  0  0
  -24.2159  -34.7713   22.4914 N   0  0  0  0  0  0  0  0  0  0  0  0
  -31.2175  -27.2885   20.0759 N   0  3  0  0  0  0  0  0  0  0  0  0
  -26.6543  -36.8452   24.1708 N   0  3  0  0  0  0  0  0  0  0  0  0
  -26.2056  -10.8366   25.4668 O   0  0  0  0  0  0  0  0  0  0  0  0
  -23.6935  -29.4443   21.5911 O   0  0  0  0  0  0  0  0  0  0  0  0
  -22.6048  -32.5756   23.3814 O   0  0  0  0  0  0  0  0  0  0  0  0
  -26.4891  -34.9708   22.0790 O   0  0  0  0  0  0  0  0  0  0  0  0
  -31.7424  -14.8687   19.9721 O   0  0  0  0  0  0  0  0  0  0  0  0
  -20.4706   -8.6494   20.6801 O   0  0  0  0  0  0  0  0  0  0  0  0
  -30.2913  -29.3212   21.8529 O   0  0  0  0  0  0  0  0  0  1  0  0
  -30.2708  -23.8639   22.1714 O   0  0  0  0  0  0  0  0  0  0  0  0
  -19.0257   -3.9825   23.2367 F   0  0  0  0  0  0  0  0  0  0  0  0
  -20.3135   -8.5330   23.4377 F   0  0  0  0  0  0  0  0  0  0  0  0
  1  2  1  0  0  0  0
  1  5  2  0  0  0  0
  2  6  2  0  0  0  0
  3  8  2  0  0  0  0
  3 17  1  0  0  0  0
  4  9  1  0  0  0  0
  4 17  2  0  0  0  0
  5 19  1  0  0  0  0
  6 21  1  0  0  0  0
  7 10  2  0  0  0  0
  7 20  1  0  0  0  0
  8 26  1  0  0  0  0
  9 26  2  0  0  0  0
 10 27  1  0  0  0  0
 11 12  2  0  0  0  0
 11 28  1  0  0  0  0
 12 30  1  0  0  0  0
 13 22  1  0  0  0  0
 13 25  2  0  0  0  0
 14 22  2  0  0  0  0
 14 29  1  0  0  0  0
 15 23  1  0  0  0  0
 15 27  2  0  0  0  0
 16 30  2  0  0  0  0
 16 31  1  0  0  0  0
 17 32  1  0  0  0  0
 18 32  1  0  0  0  0
 18 33  2  0  0  0  0
 18 34  1  0  0  0  0
 19 21  2  0  0  0  0
 19 39  1  0  0  0  0
 20 23  2  0  0  0  0
 20 40  1  0  0  0  0
 21 58  1  0  0  0  0
 22 56  1  0  0  0  0
 23 41  1  0  0  0  0
 24 25  1  0  0  0  0
 24 29  2  0  0  0  0
 24 57  1  0  0  0  0
 25 61  1  0  0  0  0
 26 90  1  0  0  0  0
 27 91  1  0  0  0  0
 28 31  2  0  0  0  0
 28 90  1  0  0  0  0
 29 92  1  0  0  0  0
 30 93  1  0  0  0  0
 31 94  1  0  0  0  0
 32 74  2  0  0  0  0
 33 75  1  0  0  0  0
 33 79  1  0  0  0  0
 34 80  1  0  0  0  0
 34 85  2  0  0  0  0
 35 59  1  0  0  0  0
 35 81  1  0  0  0  0
 35 86  2  0  0  0  0
 36 71  1  0  0  0  0
 36 76  1  0  0  0  0
 36 87  2  0  0  0  0
 37 72  1  0  0  0  0
 37 82  1  0  0  0  0
 37 88  2  0  0  0  0
 38 77  1  0  0  0  0
 38 78  1  0  0  0  0
 38 89  2  0  0  0  0
 39 42  1  0  0  0  0
 40 59  1  0  0  0  0
 41 76  1  0  0  0  0
 42 44  1  0  0  0  0
 43 45  1  0  0  0  0
 43 50  1  0  0  0  0
 44 58  1  0  0  0  0
 45 60  1  0  0  0  0
 46 51  1  0  0  0  0
 46 56  1  0  0  0  0
 47 52  1  0  0  0  0
 47 56  1  0  0  0  0
 48 54  1  0  0  0  0
 48 57  1  0  0  0  0
 49 55  1  0  0  0  0
 49 57  1  0  0  0  0
 50 77  1  0  0  0  0
 51 78  1  0  0  0  0
 52 78  1  0  0  0  0
 53 60  1  0  0  0  0
 53 77  1  0  0  0  0
 54 83  1  0  0  0  0
 55 83  1  0  0  0  0
 58 81  1  0  0  0  0
 59 76  1  0  0  0  0
 60 75  1  0  0  0  0
 62 69  1  0  0  0  0
 63 72  1  0  0  0  0
 64 73  1  0  0  0  0
 65 73  1  0  0  0  0
 66 73  1  0  0  0  0
 67 84  1  0  0  0  0
 68 70  1  0  0  0  0
 68 83  1  0  0  0  0
 69 92  1  0  0  0  0
 70 91  1  0  0  0  0
 71 73  1  0  0  0  0
 71 82  1  0  0  0  0
 72 84  1  0  0  0  0
 74 75  1  0  0  0  0
M  CHG  2  83   1  84   1
M  ISO  4  38 100  70 101  78 100  91 101
M  END
> <Batch ID>
0150

> <Smiles>
CCOc1cc(C2CC[100N:0]([100C:0](=O)N3CCCC(n4nc(-c5ccc(Oc6ccc(F)cc6F)cc5)c(C(N)=O)c4N)C3)CC2)cc(C)c1C1CCN(C[101CH2:1][101O:1]c2ccc3c(c2)CN(C(=O)C(NC(=O)C(C)NC)C(C)(C)C)C(C(=O)NC2CCCc4ccccc42)C3)CC1

> <Shape>
0.281

> <Color>
0.114

> <Negative vol penalty>
0.000

$$$$

  -OEChem-04052321413D

 93103  0     1  0  0  0  0  0999 V2000
  -19.6423  -23.7948   21.7826 C   0  0  0  0  0  0  0  0  0  0  0  0
  -20.8244  -24.2102   21.1779 C   0  0  0  0  0  0  0  0  0  0  0  0
  -20.8574  -17.8153   18.3439 C   0  0  0  0  0  0  0  0  0  0  0  0
  -22.2597  -19.7825   18.3254 C   0  0  0  0  0  0  0  0  0  0  0  0
  -18.7581  -24.7385   22.3035 C   0  0  0  0  0  0  0  0  0  0  0  0
  -21.1223  -25.5698   21.0929 C   0  0  0  0  0  0  0  0  0  0  0  0
  -25.9272  -26.5866   22.3274 C   0  0  0  0  0  0  0  0  0  0  0  0
  -19.7472  -18.6037   18.0415 C   0  0  0  0  0  0  0  0  0  0  0  0
  -21.1496  -20.5710   18.0229 C   0  0  0  0  0  0  0  0  0  0  0  0
  -26.9015  -26.3203   21.3664 C   0  0  0  0  0  0  0  0  0  0  0  0
  -19.2958  -21.3194   15.2982 C   0  0  0  0  0  0  0  0  0  0  0  0
  -19.4387  -22.2806   14.2976 C   0  0  0  0  0  0  0  0  0  0  0  0
  -26.9473  -28.6583   20.7739 C   0  0  0  0  0  0  0  0  0  0  0  0
  -32.2677  -21.7667   14.0884 C   0  0  0  0  0  0  0  0  0  0  0  0
  -33.2469  -23.8551   13.3697 C   0  0  0  0  0  0  0  0  0  0  0  0
  -18.8922  -24.0163   15.8868 C   0  0  0  0  0  0  0  0  0  0  0  0
  -22.1136  -18.4047   18.4859 C   0  0  0  0  0  0  0  0  0  0  0  0
  -23.4445  -16.7822   19.9364 C   0  0  0  0  0  0  0  0  0  0  0  0
  -19.0499  -26.1098   22.2335 C   0  0  0  0  0  0  0  0  0  0  0  0
  -25.4470  -27.8911   22.5117 C   0  0  0  0  0  0  0  0  0  0  0  0
  -20.2405  -26.5328   21.6122 C   0  0  0  0  0  0  0  0  0  0  0  0
  -25.9688  -28.9389   21.7397 C   0  0  0  0  0  0  0  0  0  0  0  0
  -31.6807  -22.4156   15.1746 C   0  0  0  0  0  0  0  0  0  0  0  0
  -32.6598  -24.5041   14.4559 C   0  0  0  0  0  0  0  0  0  0  0  0
  -31.8767  -23.7843   15.3584 C   0  0  0  0  0  0  0  0  0  0  0  0
  -19.8933  -19.9816   17.8810 C   0  0  0  0  0  0  0  0  0  0  0  0
  -27.4097  -27.3558   20.5874 C   0  0  0  0  0  0  0  0  0  0  0  0
  -18.9510  -21.7067   16.5932 C   0  0  0  0  0  0  0  0  0  0  0  0
  -33.0508  -22.4864   13.1859 C   0  0  0  0  0  0  0  0  0  0  0  0
  -19.2369  -23.6291   14.5919 C   0  0  0  0  0  0  0  0  0  0  0  0
  -18.7493  -23.0551   16.8875 C   0  0  0  0  0  0  0  0  0  0  0  0
  -23.2607  -17.5908   18.7988 C   0  0  0  0  0  0  0  0  0  0  0  0
  -24.6859  -16.2211   19.7620 C   0  0  0  0  0  0  0  0  0  0  0  0
  -22.5710  -16.5582   21.0511 C   0  0  0  0  0  0  0  0  0  0  0  0
  -22.6123  -29.2997   22.2216 C   0  0  0  0  0  0  0  0  0  0  0  0
  -24.1859  -31.8472   23.4693 C   0  0  0  0  0  0  0  0  0  0  0  0
  -27.1546  -33.4485   23.9878 C   0  0  0  0  0  0  0  0  0  0  0  0
  -29.5395  -17.7801   16.8537 C   0  0  0  0  0  0  0  0  0  0  0  0
  -18.0409  -27.0949   22.7685 C   0  0  0  0  0  0  0  0  0  0  0  0
  -24.4151  -28.1661   23.5710 C   0  0  0  0  0  0  0  0  0  0  0  0
  -25.5013  -30.3602   21.9124 C   0  0  0  0  0  0  0  0  0  0  0  0
  -18.6079  -28.4976   22.9721 C   0  0  0  0  0  0  0  0  0  0  0  0
  -27.7478  -14.8665   16.3547 C   0  0  0  0  0  0  0  0  0  0  0  0
  -19.4148  -28.9295   21.7518 C   0  0  0  0  0  0  0  0  0  0  0  0
  -26.4072  -15.1433   17.0347 C   0  0  0  0  0  0  0  0  0  0  0  0
  -29.5993  -20.9969   15.4515 C   0  0  0  0  0  0  0  0  0  0  0  0
  -31.6541  -20.5136   16.8493 C   0  0  0  0  0  0  0  0  0  0  0  0
  -31.1370  -24.6836   18.8980 C   0  0  0  0  0  0  0  0  0  0  0  0
  -29.4080  -25.7102   17.4083 C   0  0  0  0  0  0  0  0  0  0  0  0
  -28.2370  -16.0931   15.5934 C   0  0  0  0  0  0  0  0  0  0  0  0
  -28.7673  -20.1547   16.4230 C   0  0  0  0  0  0  0  0  0  0  0  0
  -30.7723  -19.7076   17.7988 C   0  0  0  0  0  0  0  0  0  0  0  0
  -32.0612  -24.5021   17.6956 C   0  0  0  0  0  0  0  0  0  0  0  0
  -30.3329  -25.5223   16.2066 C   0  0  0  0  0  0  0  0  0  0  0  0
  -27.0240  -17.6095   17.1254 C   0  0  0  0  0  0  0  0  0  0  0  0
  -30.8344  -21.6061   16.1390 C   0  0  0  0  0  0  0  0  0  0  0  0
  -20.6107  -27.9974   21.5229 C   0  0  1  0  0  0  0  0  0  0  0  0
  -23.6275  -29.4482   23.3193 C   0  0  1  0  0  0  0  0  0  0  0  0
  -30.1937  -25.8747   18.7115 C   0  0  0  0  0  0  0  0  0  0  0  0
  -26.4844  -16.4014   17.9177 C   0  0  1  0  0  0  0  0  0  0  0  0
  -32.8877  -25.9711   14.6268 C   0  0  0  0  0  0  0  0  0  0  0  0
  -28.1186  -35.5303   25.0051 C   0  0  0  0  0  0  0  0  0  0  0  0
  -30.0145  -26.2777   21.1876 C   0  0  0  0  0  0  0  0  0  0  0  0
  -23.1959  -33.4692   21.0821 C   0  0  0  0  0  0  0  0  0  0  0  0
  -24.9194  -35.1999   21.6319 C   0  0  0  0  0  0  0  0  0  0  0  0
  -23.1127  -34.6768   23.2705 C   0  0  0  0  0  0  0  0  0  0  0  0
  -28.7851  -31.8947   25.9078 C   0  0  0  0  0  0  0  0  0  0  0  0
  -33.3820  -20.4528   11.9983 C   0  0  0  0  0  0  0  0  0  0  0  0
  -24.9709  -33.0033   22.8982 C   0  0  1  0  0  0  0  0  0  0  0  0
  -27.7596  -34.0702   25.2336 C   0  0  2  0  0  0  0  0  0  0  0  0
  -29.2490  -26.0125   19.9030 C   0  0  1  0  0  0  0  0  0  1  0  0
  -24.0573  -34.0603   22.2158 C   0  0  0  0  0  0  0  0  0  0  0  0
  -24.3022  -17.5499   17.9635 N   0  0  0  0  0  0  0  0  0  0  0  0
  -25.1523  -16.7090   18.5768 N   0  0  0  0  0  0  0  0  0  0  0  0
  -31.2873  -24.4360   16.4492 N   0  0  0  0  0  0  0  0  0  0  0  0
  -24.4865  -30.5772   22.9567 N   0  0  0  0  0  0  0  0  0  0  0  0
  -28.2930  -17.2666   16.4648 N   0  0  0  0  0  0  0  0  0  0  0  0
  -29.6101  -19.1594   17.1002 N   0  0  0  0  0  0  0  0  0  0  0  0
  -25.4133  -15.3630   20.5083 N   0  0  0  0  0  0  0  0  0  0  0  0
  -22.6768  -17.4044   22.1634 N   0  0  0  0  0  0  0  0  0  0  0  0
  -21.6779  -28.3076   22.4498 N   0  0  0  0  0  0  0  0  0  0  0  0
  -25.7782  -33.5293   23.9937 N   0  0  0  0  0  0  0  0  0  0  0  0
  -28.9962  -33.3386   25.6293 N   0  3  0  0  0  0  0  0  0  0  0  0
  -21.7331  -15.6248   21.0673 O   0  0  0  0  0  0  0  0  0  0  0  0
  -22.6714  -30.0321   21.2409 O   0  0  0  0  0  0  0  0  0  0  0  0
  -23.3423  -32.0620   24.3432 O   0  0  0  0  0  0  0  0  0  0  0  0
  -27.8352  -32.9452   23.0968 O   0  0  0  0  0  0  0  0  0  0  0  0
  -30.5310  -17.0497   16.9745 O   0  0  0  0  0  0  0  0  0  0  0  0
  -18.8103  -20.7513   17.5857 O   0  0  0  0  0  0  0  0  0  0  0  0
  -33.6237  -21.8531   12.1260 O   0  0  0  0  0  0  0  0  0  0  0  0
  -28.3669  -27.0968   19.6417 O   0  0  0  0  0  0  0  0  0  1  0  0
  -19.3757  -24.5521   13.6312 F   0  0  0  0  0  0  0  0  0  0  0  0
  -18.4190  -23.4333   18.1299 F   0  0  0  0  0  0  0  0  0  0  0  0
  1  2  1  0  0  0  0
  1  5  2  0  0  0  0
  2  6  2  0  0  0  0
  3  8  2  0  0  0  0
  3 17  1  0  0  0  0
  4  9  1  0  0  0  0
  4 17  2  0  0  0  0
  5 19  1  0  0  0  0
  6 21  1  0  0  0  0
  7 10  2  0  0  0  0
  7 20  1  0  0  0  0
  8 26  1  0  0  0  0
  9 26  2  0  0  0  0
 10 27  1  0  0  0  0
 11 12  2  0  0  0  0
 11 28  1  0  0  0  0
 12 30  1  0  0  0  0
 13 22  1  0  0  0  0
 13 27  2  0  0  0  0
 14 23  1  0  0  0  0
 14 29  2  0  0  0  0
 15 24  2  0  0  0  0
 15 29  1  0  0  0  0
 16 30  2  0  0  0  0
 16 31  1  0  0  0  0
 17 32  1  0  0  0  0
 18 32  1  0  0  0  0
 18 33  2  0  0  0  0
 18 34  1  0  0  0  0
 19 21  2  0  0  0  0
 19 39  1  0  0  0  0
 20 22  2  0  0  0  0
 20 40  1  0  0  0  0
 21 57  1  0  0  0  0
 22 41  1  0  0  0  0
 23 25  2  0  0  0  0
 23 56  1  0  0  0  0
 24 25  1  0  0  0  0
 24 61  1  0  0  0  0
 25 75  1  0  0  0  0
 26 89  1  0  0  0  0
 27 91  1  0  0  0  0
 28 31  2  0  0  0  0
 28 89  1  0  0  0  0
 29 90  1  0  0  0  0
 30 92  1  0  0  0  0
 31 93  1  0  0  0  0
 32 73  2  0  0  0  0
 33 74  1  0  0  0  0
 33 79  1  0  0  0  0
 34 80  1  0  0  0  0
 34 84  2  0  0  0  0
 35 58  1  0  0  0  0
 35 81  1  0  0  0  0
 35 85  2  0  0  0  0
 36 69  1  0  0  0  0
 36 76  1  0  0  0  0
 36 86  2  0  0  0  0
 37 70  1  0  0  0  0
 37 82  1  0  0  0  0
 37 87  2  0  0  0  0
 38 77  1  0  0  0  0
 38 78  1  0  0  0  0
 38 88  2  0  0  0  0
 39 42  1  0  0  0  0
 40 58  1  0  0  0  0
 41 76  1  0  0  0  0
 42 44  1  0  0  0  0
 43 45  1  0  0  0  0
 43 50  1  0  0  0  0
 44 57  1  0  0  0  0
 45 60  1  0  0  0  0
 46 51  1  0  0  0  0
 46 56  1  0  0  0  0
 47 52  1  0  0  0  0
 47 56  1  0  0  0  0
 48 53  1  0  0  0  0
 48 59  1  0  0  0  0
 49 54  1  0  0  0  0
 49 59  1  0  0  0  0
 50 77  1  0  0  0  0
 51 78  1  0  0  0  0
 52 78  1  0  0  0  0
 53 75  1  0  0  0  0
 54 75  1  0  0  0  0
 55 60  1  0  0  0  0
 55 77  1  0  0  0  0
 57 81  1  0  0  0  0
 58 76  1  0  0  0  0
 59 71  1  0  0  0  0
 60 74  1  0  0  0  0
 62 70  1  0  0  0  0
 63 71  1  0  0  0  0
 64 72  1  0  0  0  0
 65 72  1  0  0  0  0
 66 72  1  0  0  0  0
 67 83  1  0  0  0  0
 68 90  1  0  0  0  0
 69 72  1  0  0  0  0
 69 82  1  0  0  0  0
 70 83  1  0  0  0  0
 71 91  1  0  0  0  0
 73 74  1  0  0  0  0
M  CHG  1  83   1
M  ISO  4  38 100  71 101  78 100  91 101
M  END
> <Batch ID>
0150

> <Smiles>
CNC(C)C(=O)NC(C(=O)N1Cc2cc([101O:1][101CH:1](C)C3CCN(c4c(C)cc(OC)cc4C4CC[100N:0]([100C:0](=O)N5CCCC(n6nc(-c7ccc(Oc8ccc(F)cc8F)cc7)c(C(N)=O)c6N)C5)CC4)CC3)ccc2CC1C(=O)NC1CCCc2ccccc21)C(C)(C)C

> <Shape>
0.180

> <Color>
0.111

> <Negative vol penalty>
0.000

$$$$

  -OEChem-04052321413D

 88 97  0     1  0  0  0  0  0999 V2000
  -28.9169  -34.9260   25.6410 C   0  0  0  0  0  0  0  0  0  0  0  0
  -28.7694  -33.8161   24.8152 C   0  0  0  0  0  0  0  0  0  0  0  0
  -24.3566   -9.3106   22.3752 C   0  0  0  0  0  0  0  0  0  0  0  0
  -23.7957   -9.5785   20.0405 C   0  0  0  0  0  0  0  0  0  0  0  0
  -28.0732  -35.0941   26.7382 C   0  0  0  0  0  0  0  0  0  0  0  0
  -27.7787  -32.8731   25.0869 C   0  0  0  0  0  0  0  0  0  0  0  0
  -25.2379  -31.4738   20.9358 C   0  0  0  0  0  0  0  0  0  0  0  0
  -27.6412  -22.9767   20.5095 C   0  0  0  0  0  0  0  0  0  0  0  0
  -23.2701   -8.4512   22.5377 C   0  0  0  0  0  0  0  0  0  0  0  0
  -22.7091   -8.7190   20.2030 C   0  0  0  0  0  0  0  0  0  0  0  0
  -25.8615  -30.5628   20.0845 C   0  0  0  0  0  0  0  0  0  0  0  0
  -27.6100  -24.3632   20.6588 C   0  0  0  0  0  0  0  0  0  0  0  0
  -22.5316   -5.2177   21.8805 C   0  0  0  0  0  0  0  0  0  0  0  0
  -22.7386   -4.0395   22.5977 C   0  0  0  0  0  0  0  0  0  0  0  0
  -24.5478  -28.7796   21.0402 C   0  0  0  0  0  0  0  0  0  0  0  0
  -28.8673  -24.6120   18.6108 C   0  0  0  0  0  0  0  0  0  0  0  0
  -21.0644   -4.7211   24.2007 C   0  0  0  0  0  0  0  0  0  0  0  0
  -24.6194   -9.8743   21.1266 C   0  0  0  0  0  0  0  0  0  0  0  0
  -27.0573  -10.4118   20.6017 C   0  0  0  0  0  0  0  0  0  0  0  0
  -27.0655  -34.1577   27.0179 C   0  0  0  0  0  0  0  0  0  0  0  0
  -24.2708  -31.0421   21.8549 C   0  0  0  0  0  0  0  0  0  0  0  0
  -26.9217  -33.0282   26.1896 C   0  0  0  0  0  0  0  0  0  0  0  0
  -23.9116  -29.6875   21.9004 C   0  0  0  0  0  0  0  0  0  0  0  0
  -28.8986  -23.2255   18.4616 C   0  0  0  0  0  0  0  0  0  0  0  0
  -28.2856  -22.4078   19.4109 C   0  0  0  0  0  0  0  0  0  0  0  0
  -22.4463   -8.1554   21.4516 C   0  0  0  0  0  0  0  0  0  0  0  0
  -25.5186  -29.2150   20.1385 C   0  0  0  0  0  0  0  0  0  0  0  0
  -28.2229  -25.1808   19.7095 C   0  0  0  0  0  0  0  0  0  0  0  0
  -21.5910   -6.1477   22.3233 C   0  0  0  0  0  0  0  0  0  0  0  0
  -22.0050   -3.7911   23.7578 C   0  0  0  0  0  0  0  0  0  0  0  0
  -20.8574   -5.8994   23.4834 C   0  0  0  0  0  0  0  0  0  0  0  0
  -25.7414  -10.7626   20.9583 C   0  0  0  0  0  0  0  0  0  0  0  0
  -27.7356  -11.6059   20.5748 C   0  0  0  0  0  0  0  0  0  0  0  0
  -27.6165   -9.1221   20.3198 C   0  0  0  0  0  0  0  0  0  0  0  0
  -24.0264  -31.0503   25.0241 C   0  0  0  0  0  0  0  0  0  0  0  0
  -21.0353  -29.9573   24.4069 C   0  0  0  0  0  0  0  0  0  0  0  0
  -18.9210  -28.3591   22.2570 C   0  0  0  0  0  0  0  0  0  0  0  0
  -28.2451  -16.7856   19.2502 C   0  0  0  0  0  0  0  0  0  0  0  0
  -26.2083  -34.3577   28.2426 C   0  0  0  0  0  0  0  0  0  0  0  0
  -23.5881  -32.0416   22.7479 C   0  0  0  0  0  0  0  0  0  0  0  0
  -22.8648  -29.1763   22.8550 C   0  0  0  0  0  0  0  0  0  0  0  0
  -24.9411  -33.5065   28.2447 C   0  0  0  0  0  0  0  0  0  0  0  0
  -26.3934  -16.2039   22.1781 C   0  0  0  0  0  0  0  0  0  0  0  0
  -25.2640  -32.0674   27.8554 C   0  0  0  0  0  0  0  0  0  0  0  0
  -26.1597  -14.6958   22.0951 C   0  0  0  0  0  0  0  0  0  0  0  0
  -26.2536  -16.8814   20.8139 C   0  0  0  0  0  0  0  0  0  0  0  0
  -29.4091  -20.2510   19.8731 C   0  0  0  0  0  0  0  0  0  0  0  0
  -27.0174  -20.3204   19.1514 C   0  0  0  0  0  0  0  0  0  0  0  0
  -29.5481  -18.8796   19.2176 C   0  0  0  0  0  0  0  0  0  0  0  0
  -27.2021  -18.9551   18.4984 C   0  0  0  0  0  0  0  0  0  0  0  0
  -26.8637  -14.7732   19.6731 C   0  0  0  0  0  0  0  0  0  0  0  0
  -25.8428  -31.9962   26.4372 C   0  0  1  0  0  0  0  0  0  0  0  0
  -22.9873  -31.4112   24.0006 C   0  0  1  0  0  0  0  0  0  0  0  0
  -27.0550  -14.0565   21.0188 C   0  0  2  0  0  0  0  0  0  0  0  0
  -28.6642  -22.5062   16.0730 C   0  0  0  0  0  0  0  0  0  0  0  0
  -16.5448  -27.5804   22.0458 C   0  0  0  0  0  0  0  0  0  0  0  0
  -21.6345  -27.6276   26.2841 C   0  0  0  0  0  0  0  0  0  0  0  0
  -19.6630  -26.4286   25.3125 C   0  0  0  0  0  0  0  0  0  0  0  0
  -19.3376  -28.5896   26.5154 C   0  0  0  0  0  0  0  0  0  0  0  0
  -18.4474  -30.0733   19.8914 C   0  0  0  0  0  0  0  0  0  0  0  0
  -27.4653  -28.6143   18.9116 C   0  0  0  0  0  0  0  0  0  1  0  0
  -28.2086  -27.3161   18.6625 C   0  0  0  0  0  0  0  0  0  0  0  0
  -29.5950  -22.6432   17.2748 C   0  0  1  0  0  0  0  0  0  0  0  0
  -20.4111  -28.5947   24.2264 C   0  0  1  0  0  0  0  0  0  0  0  0
  -17.5264  -28.7086   21.7697 C   0  0  2  0  0  0  0  0  0  0  0  0
  -20.2827  -27.8191   25.5678 C   0  0  0  0  0  0  0  0  0  0  0  0
  -25.5905  -12.0765   21.1448 N   0  0  0  0  0  0  0  0  0  0  0  0
  -26.8204  -12.5619   20.9045 N   0  0  0  0  0  0  0  0  0  0  0  0
  -28.3069  -21.0137   19.2772 N   0  0  0  0  0  0  0  0  0  0  0  0
  -22.2304  -30.1914   23.7121 N   0  0  0  0  0  0  0  0  0  0  0  0
  -27.0943  -16.2126   19.8118 N   0  0  0  0  0  0  0  0  0  0  0  0
  -28.2686  -18.1849   19.1415 N   0  0  0  0  0  0  0  0  0  0  0  0
  -29.0196  -11.9208   20.3017 N   0  0  0  0  0  0  0  0  0  0  0  0
  -26.7794   -8.0004   20.3930 N   0  0  0  0  0  0  0  0  0  0  0  0
  -24.7881  -32.1201   25.4540 N   0  0  0  0  0  0  0  0  0  0  0  0
  -19.1429  -28.8144   23.5395 N   0  0  0  0  0  0  0  0  0  0  0  0
  -17.5408  -28.9706   20.3027 N   0  3  0  0  0  0  0  0  0  0  0  0
  -28.8266   -8.9670   20.0282 O   0  0  0  0  0  0  0  0  0  0  0  0
  -24.1285  -29.8876   25.3974 O   0  0  0  0  0  0  0  0  0  0  0  0
  -20.4792  -30.7859   25.1320 O   0  0  0  0  0  0  0  0  0  0  0  0
  -19.7310  -27.7406   21.5701 O   0  0  0  0  0  0  0  0  0  0  0  0
  -29.1964  -16.0913   18.8711 O   0  0  0  0  0  0  0  0  0  0  0  0
  -21.3861   -7.3167   21.6097 O   0  0  0  0  0  0  0  0  0  0  0  0
  -26.1304  -28.3175   19.3035 O   0  0  0  0  0  0  0  0  0  1  0  0
  -28.1929  -26.5340   19.8556 O   0  0  0  0  0  0  0  0  0  0  0  0
  -22.2028   -2.6589   24.4456 F   0  0  0  0  0  0  0  0  0  0  0  0
  -19.9516   -6.7886   23.9131 F   0  0  0  0  0  0  0  0  0  0  0  0
  -30.6716  -23.3873   16.8642 F   0  0  0  0  0  0  0  0  0  0  0  0
  1  2  1  0  0  0  0
  1  5  2  0  0  0  0
  2  6  2  0  0  0  0
  3  9  2  0  0  0  0
  3 18  1  0  0  0  0
  4 10  1  0  0  0  0
  4 18  2  0  0  0  0
  5 20  1  0  0  0  0
  6 22  1  0  0  0  0
  7 11  2  0  0  0  0
  7 21  1  0  0  0  0
  8 12  2  0  0  0  0
  8 25  1  0  0  0  0
  9 26  1  0  0  0  0
 10 26  2  0  0  0  0
 11 27  1  0  0  0  0
 12 28  1  0  0  0  0
 13 14  2  0  0  0  0
 13 29  1  0  0  0  0
 14 30  1  0  0  0  0
 15 23  1  0  0  0  0
 15 27  2  0  0  0  0
 16 24  1  0  0  0  0
 16 28  2  0  0  0  0
 17 30  2  0  0  0  0
 17 31  1  0  0  0  0
 18 32  1  0  0  0  0
 19 32  1  0  0  0  0
 19 33  2  0  0  0  0
 19 34  1  0  0  0  0
 20 22  2  0  0  0  0
 20 39  1  0  0  0  0
 21 23  2  0  0  0  0
 21 40  1  0  0  0  0
 22 52  1  0  0  0  0
 23 41  1  0  0  0  0
 24 25  2  0  0  0  0
 24 63  1  0  0  0  0
 25 69  1  0  0  0  0
 26 83  1  0  0  0  0
 27 84  1  0  0  0  0
 28 85  1  0  0  0  0
 29 31  2  0  0  0  0
 29 83  1  0  0  0  0
 30 86  1  0  0  0  0
 31 87  1  0  0  0  0
 32 67  2  0  0  0  0
 33 68  1  0  0  0  0
 33 73  1  0  0  0  0
 34 74  1  0  0  0  0
 34 78  2  0  0  0  0
 35 53  1  0  0  0  0
 35 75  1  0  0  0  0
 35 79  2  0  0  0  0
 36 64  1  0  0  0  0
 36 70  1  0  0  0  0
 36 80  2  0  0  0  0
 37 65  1  0  0  0  0
 37 76  1  0  0  0  0
 37 81  2  0  0  0  0
 38 71  1  0  0  0  0
 38 72  1  0  0  0  0
 38 82  2  0  0  0  0
 39 42  1  0  0  0  0
 40 53  1  0  0  0  0
 41 70  1  0  0  0  0
 42 44  1  0  0  0  0
 43 45  1  0  0  0  0
 43 46  1  0  0  0  0
 44 52  1  0  0  0  0
 45 54  1  0  0  0  0
 46 71  1  0  0  0  0
 47 49  1  0  0  0  0
 47 69  1  0  0  0  0
 48 50  1  0  0  0  0
 48 69  1  0  0  0  0
 49 72  1  0  0  0  0
 50 72  1  0  0  0  0
 51 54  1  0  0  0  0
 51 71  1  0  0  0  0
 52 75  1  0  0  0  0
 53 70  1  0  0  0  0
 54 68  1  0  0  0  0
 55 63  1  0  0  0  0
 56 65  1  0  0  0  0
 57 66  1  0  0  0  0
 58 66  1  0  0  0  0
 59 66  1  0  0  0  0
 60 77  1  0  0  0  0
 61 62  1  0  0  0  0
 61 84  1  0  0  0  0
 62 85  1  0  0  0  0
 63 88  1  0  0  0  0
 64 66  1  0  0  0  0
 64 76  1  0  0  0  0
 65 77  1  0  0  0  0
 67 68  1  0  0  0  0
M  CHG  1  77   1
M  ISO  4  38 100  61 101  72 100  84 101
M  END
> <Batch ID>
0150

> <Smiles>
CNC(C)C(=O)NC(C(=O)N1Cc2cc([101O:1][101CH2:1]COc3ccc(N4CC[100N:0]([100C:0](=O)N5CCCC(n6nc(-c7ccc(Oc8ccc(F)cc8F)cc7)c(C(N)=O)c6N)C5)CC4)c(C(C)F)c3)ccc2CC1C(=O)NC1CCCc2ccccc21)C(C)(C)C

> <Shape>
0.329

> <Color>
0.095

> <Negative vol penalty>
0.000

$$$$

  -OEChem-04052321413D

 87 96  0     1  0  0  0  0  0999 V2000
  -13.7023  -19.3828   14.6780 C   0  0  0  0  0  0  0  0  0  0  0  0
  -14.8905  -19.0354   15.3127 C   0  0  0  0  0  0  0  0  0  0  0  0
  -23.0683   -9.8746   19.9524 C   0  0  0  0  0  0  0  0  0  0  0  0
  -23.8367   -9.8875   22.2429 C   0  0  0  0  0  0  0  0  0  0  0  0
  -13.3037  -18.7041   13.5272 C   0  0  0  0  0  0  0  0  0  0  0  0
  -15.6803  -18.0081   14.7975 C   0  0  0  0  0  0  0  0  0  0  0  0
  -20.5987  -19.2089   14.6853 C   0  0  0  0  0  0  0  0  0  0  0  0
  -22.3200   -8.7260   20.2099 C   0  0  0  0  0  0  0  0  0  0  0  0
  -23.0883   -8.7389   22.5004 C   0  0  0  0  0  0  0  0  0  0  0  0
  -21.2998  -19.1349   15.8881 C   0  0  0  0  0  0  0  0  0  0  0  0
  -19.3734   -7.9493   21.6753 C   0  0  0  0  0  0  0  0  0  0  0  0
  -18.0645   -7.9072   21.1950 C   0  0  0  0  0  0  0  0  0  0  0  0
  -22.1878  -16.9902   15.2317 C   0  0  0  0  0  0  0  0  0  0  0  0
  -29.4118  -19.4461   18.8035 C   0  0  0  0  0  0  0  0  0  0  0  0
  -27.3155  -18.3676   19.3321 C   0  0  0  0  0  0  0  0  0  0  0  0
  -18.6103   -5.9561   19.8788 C   0  0  0  0  0  0  0  0  0  0  0  0
  -23.8267  -10.4554   20.9689 C   0  0  0  0  0  0  0  0  0  0  0  0
  -24.1799  -12.9784   20.8372 C   0  0  0  0  0  0  0  0  0  0  0  0
  -14.0939  -17.6745   12.9922 C   0  0  0  0  0  0  0  0  0  0  0  0
  -20.6784  -18.1673   13.7498 C   0  0  0  0  0  0  0  0  0  0  0  0
  -15.2913  -17.3141   13.6392 C   0  0  0  0  0  0  0  0  0  0  0  0
  -21.4887  -17.0545   14.0167 C   0  0  0  0  0  0  0  0  0  0  0  0
  -27.5628  -19.5745   17.2538 C   0  0  0  0  0  0  0  0  0  0  0  0
  -28.8779  -19.8912   17.5941 C   0  0  0  0  0  0  0  0  0  0  0  0
  -22.3299   -8.1582   21.4839 C   0  0  0  0  0  0  0  0  0  0  0  0
  -22.0922  -18.0241   16.1627 C   0  0  0  0  0  0  0  0  0  0  0  0
  -20.3008   -6.9948   21.2572 C   0  0  0  0  0  0  0  0  0  0  0  0
  -28.6306  -18.6843   19.6724 C   0  0  0  0  0  0  0  0  0  0  0  0
  -26.7816  -18.8127   18.1228 C   0  0  0  0  0  0  0  0  0  0  0  0
  -17.6829   -6.9106   20.2968 C   0  0  0  0  0  0  0  0  0  0  0  0
  -19.9192   -5.9982   20.3590 C   0  0  0  0  0  0  0  0  0  0  0  0
  -24.6004  -11.6416   20.7034 C   0  0  0  0  0  0  0  0  0  0  0  0
  -25.2742  -13.7212   20.4668 C   0  0  0  0  0  0  0  0  0  0  0  0
  -22.9134  -13.5019   21.2587 C   0  0  0  0  0  0  0  0  0  0  0  0
  -18.5927  -16.1419   12.4648 C   0  0  0  0  0  0  0  0  0  0  0  0
  -21.1369  -15.2868   10.6432 C   0  0  0  0  0  0  0  0  0  0  0  0
  -24.5281  -15.1322   10.2931 C   0  0  0  0  0  0  0  0  0  0  0  0
  -30.7633  -14.7153   20.6308 C   0  0  0  0  0  0  0  0  0  0  0  0
  -13.5982  -16.9379   11.7730 C   0  0  0  0  0  0  0  0  0  0  0  0
  -19.9371  -18.2745   12.4454 C   0  0  0  0  0  0  0  0  0  0  0  0
  -21.6241  -15.9188   13.0367 C   0  0  0  0  0  0  0  0  0  0  0  0
  -14.6787  -16.1129   11.0786 C   0  0  0  0  0  0  0  0  0  0  0  0
  -29.6057  -12.3263   18.2581 C   0  0  0  0  0  0  0  0  0  0  0  0
  -26.3988  -19.0392   15.0104 C   0  0  0  0  0  0  0  0  0  0  0  0
  -27.6943  -19.7104   14.6765 C   0  0  0  0  0  0  0  0  0  0  0  0
  -15.4709  -15.3030   12.1001 C   0  0  0  0  0  0  0  0  0  0  0  0
  -28.1685  -12.0412   18.6975 C   0  0  0  0  0  0  0  0  0  0  0  0
  -30.5283  -12.5478   19.4547 C   0  0  0  0  0  0  0  0  0  0  0  0
  -28.6351  -13.2935   20.8452 C   0  0  0  0  0  0  0  0  0  0  0  0
  -26.9848  -20.0490   15.9591 C   0  0  0  0  0  0  0  0  0  0  0  0
  -16.1875  -16.2220   13.0968 C   0  0  1  0  0  0  0  0  0  0  0  0
  -19.6851  -16.9209   11.7884 C   0  0  1  0  0  0  0  0  0  0  0  0
  -27.6558  -13.1186   19.6719 C   0  0  2  0  0  0  0  0  0  0  0  0
  -29.7360  -20.7060   16.6825 C   0  0  0  0  0  0  0  0  0  0  0  0
  -26.3115  -14.3455    8.7126 C   0  0  0  0  0  0  0  0  0  0  0  0
  -20.6291  -12.4053   11.5085 C   0  0  0  0  0  0  0  0  0  0  0  0
  -22.9303  -11.8322   10.7057 C   0  0  0  0  0  0  0  0  0  0  0  0
  -21.2246  -12.6803    9.0951 C   0  0  0  0  0  0  0  0  0  0  0  0
  -25.6061  -17.8687    9.9636 C   0  0  0  0  0  0  0  0  0  0  0  0
  -30.8438  -16.8706   21.8585 C   0  0  0  0  0  0  0  0  0  0  0  0
  -30.5566  -18.0047   20.8908 C   0  0  0  0  0  0  0  0  0  0  0  0
  -23.1976  -19.1802   17.9227 C   0  0  0  0  0  0  0  0  0  1  0  0
  -24.4784  -18.9464   18.7001 C   0  0  0  0  0  0  0  0  0  0  0  0
  -22.2495  -14.2742   10.7687 C   0  0  1  0  0  0  0  0  0  0  0  0
  -25.4405  -15.5158    9.1420 C   0  0  2  0  0  0  0  0  0  0  0  0
  -21.7545  -12.8183   10.5390 C   0  0  0  0  0  0  0  0  0  0  0  0
  -25.8632  -11.5381   20.2809 N   0  0  0  0  0  0  0  0  0  0  0  0
  -26.2456  -12.8193   20.1459 N   0  0  0  0  0  0  0  0  0  0  0  0
  -20.8748  -16.0673   11.7781 N   0  0  0  0  0  0  0  0  0  0  0  0
  -29.9858  -13.5825   20.3384 N   0  0  0  0  0  0  0  0  0  0  0  0
  -25.4905  -15.0514   20.3875 N   0  0  0  0  0  0  0  0  0  0  0  0
  -21.8985  -12.5988   21.6034 N   0  0  0  0  0  0  0  0  0  0  0  0
  -17.3739  -16.7924   12.4956 N   0  0  0  0  0  0  0  0  0  0  0  0
  -23.2965  -14.7018    9.8470 N   0  0  0  0  0  0  0  0  0  0  0  0
  -30.1716  -15.6504   21.4712 N   0  0  0  0  0  0  0  0  0  0  0  0
  -26.3305  -16.6429    9.5400 N   0  3  0  0  0  0  0  0  0  0  0  0
  -22.6831  -14.7338   21.3118 O   0  0  0  0  0  0  0  0  0  0  0  0
  -18.8371  -15.0321   12.9235 O   0  0  0  0  0  0  0  0  0  0  0  0
  -20.5278  -15.3868    9.5753 O   0  0  0  0  0  0  0  0  0  0  0  0
  -24.8748  -15.2035   11.4701 O   0  0  0  0  0  0  0  0  0  0  0  0
  -31.8983  -14.8836   20.1722 O   0  0  0  0  0  0  0  0  0  0  0  0
  -21.5996   -7.0375   21.7355 O   0  0  0  0  0  0  0  0  0  0  0  0
  -22.7770  -17.9491   17.3363 O   0  0  0  0  0  0  0  0  0  1  0  0
  -29.1518  -18.2509   20.8527 O   0  0  0  0  0  0  0  0  0  0  0  0
  -25.4876  -18.4916   17.8069 O   0  0  0  0  0  0  0  0  0  0  0  0
  -16.4256   -6.8693   19.8369 F   0  0  0  0  0  0  0  0  0  0  0  0
  -20.8053   -5.0778   19.9547 F   0  0  0  0  0  0  0  0  0  0  0  0
  1  2  1  0  0  0  0
  1  5  2  0  0  0  0
  2  6  2  0  0  0  0
  3  8  2  0  0  0  0
  3 17  1  0  0  0  0
  4  9  1  0  0  0  0
  4 17  2  0  0  0  0
  5 19  1  0  0  0  0
  6 21  1  0  0  0  0
  7 10  2  0  0  0  0
  7 20  1  0  0  0  0
  8 25  1  0  0  0  0
  9 25  2  0  0  0  0
 10 26  1  0  0  0  0
 11 12  2  0  0  0  0
 11 27  1  0  0  0  0
 12 30  1  0  0  0  0
 13 22  1  0  0  0  0
 13 26  2  0  0  0  0
 14 24  2  0  0  0  0
 14 28  1  0  0  0  0
 15 28  2  0  0  0  0
 15 29  1  0  0  0  0
 16 30  2  0  0  0  0
 16 31  1  0  0  0  0
 17 32  1  0  0  0  0
 18 32  1  0  0  0  0
 18 33  2  0  0  0  0
 18 34  1  0  0  0  0
 19 21  2  0  0  0  0
 19 39  1  0  0  0  0
 20 22  2  0  0  0  0
 20 40  1  0  0  0  0
 21 51  1  0  0  0  0
 22 41  1  0  0  0  0
 23 24  1  0  0  0  0
 23 29  2  0  0  0  0
 23 50  1  0  0  0  0
 24 54  1  0  0  0  0
 25 82  1  0  0  0  0
 26 83  1  0  0  0  0
 27 31  2  0  0  0  0
 27 82  1  0  0  0  0
 28 84  1  0  0  0  0
 29 85  1  0  0  0  0
 30 86  1  0  0  0  0
 31 87  1  0  0  0  0
 32 67  2  0  0  0  0
 33 68  1  0  0  0  0
 33 71  1  0  0  0  0
 34 72  1  0  0  0  0
 34 77  2  0  0  0  0
 35 52  1  0  0  0  0
 35 73  1  0  0  0  0
 35 78  2  0  0  0  0
 36 64  1  0  0  0  0
 36 69  1  0  0  0  0
 36 79  2  0  0  0  0
 37 65  1  0  0  0  0
 37 74  1  0  0  0  0
 37 80  2  0  0  0  0
 38 70  1  0  0  0  0
 38 75  1  0  0  0  0
 38 81  2  0  0  0  0
 39 42  1  0  0  0  0
 40 52  1  0  0  0  0
 41 69  1  0  0  0  0
 42 46  1  0  0  0  0
 43 47  1  0  0  0  0
 43 48  1  0  0  0  0
 44 45  1  0  0  0  0
 44 50  1  0  0  0  0
 45 50  1  0  0  0  0
 46 51  1  0  0  0  0
 47 53  1  0  0  0  0
 48 70  1  0  0  0  0
 49 53  1  0  0  0  0
 49 70  1  0  0  0  0
 51 73  1  0  0  0  0
 52 69  1  0  0  0  0
 53 68  1  0  0  0  0
 55 65  1  0  0  0  0
 56 66  1  0  0  0  0
 57 66  1  0  0  0  0
 58 66  1  0  0  0  0
 59 76  1  0  0  0  0
 60 61  1  0  0  0  0
 60 75  1  0  0  0  0
 61 84  1  0  0  0  0
 62 63  1  0  0  0  0
 62 83  1  0  0  0  0
 63 85  1  0  0  0  0
 64 66  1  0  0  0  0
 64 74  1  0  0  0  0
 65 76  1  0  0  0  0
 67 68  1  0  0  0  0
M  CHG  1  76   1
M  ISO  4  38 100  62 101  75 100  83 101
M  END
> <Batch ID>
0150

> <Smiles>
CNC(C)C(=O)NC(C(=O)N1Cc2cc([101O:1][101CH2:1]COc3cc(OCC[100NH:0][100C:0](=O)N4CCCC(n5nc(-c6ccc(Oc7ccc(F)cc7F)cc6)c(C(N)=O)c5N)C4)cc(C)c3C3CC3)ccc2CC1C(=O)NC1CCCc2ccccc21)C(C)(C)C

> <Shape>
0.171

> <Color>
0.193

> <Negative vol penalty>
0.000

$$$$

  -OEChem-04052321413D

 89 99  0     1  0  0  0  0  0999 V2000
  -34.8049  -36.3598   19.9558 C   0  0  0  0  0  0  0  0  0  0  0  0
  -34.4460  -35.0354   19.7265 C   0  0  0  0  0  0  0  0  0  0  0  0
  -24.7856   -8.8061   21.6901 C   0  0  0  0  0  0  0  0  0  0  0  0
  -24.2455   -8.3286   19.3841 C   0  0  0  0  0  0  0  0  0  0  0  0
  -34.2251  -37.0656   21.0092 C   0  0  0  0  0  0  0  0  0  0  0  0
  -33.5078  -34.4157   20.5512 C   0  0  0  0  0  0  0  0  0  0  0  0
  -29.3576  -30.2240   18.9045 C   0  0  0  0  0  0  0  0  0  0  0  0
  -28.2807  -23.9219   18.6245 C   0  0  0  0  0  0  0  0  0  0  0  0
  -23.5977   -8.1969   22.0944 C   0  0  0  0  0  0  0  0  0  0  0  0
  -23.0576   -7.7194   19.7885 C   0  0  0  0  0  0  0  0  0  0  0  0
  -29.3399  -28.8333   19.0009 C   0  0  0  0  0  0  0  0  0  0  0  0
  -28.1371  -22.5536   18.8542 C   0  0  0  0  0  0  0  0  0  0  0  0
  -20.8806   -6.4478   23.7596 C   0  0  0  0  0  0  0  0  0  0  0  0
  -20.9372   -5.5720   24.8437 C   0  0  0  0  0  0  0  0  0  0  0  0
  -28.0904  -28.9977   21.0578 C   0  0  0  0  0  0  0  0  0  0  0  0
  -29.9418  -24.0413   20.3748 C   0  0  0  0  0  0  0  0  0  0  0  0
  -22.4957   -4.1766   23.6349 C   0  0  0  0  0  0  0  0  0  0  0  0
  -25.1094   -8.8720   20.3349 C   0  0  0  0  0  0  0  0  0  0  0  0
  -27.5922   -8.8885   19.7490 C   0  0  0  0  0  0  0  0  0  0  0  0
  -33.2721  -36.4572   21.8412 C   0  0  0  0  0  0  0  0  0  0  0  0
  -28.7502  -31.0137   19.8914 C   0  0  0  0  0  0  0  0  0  0  0  0
  -32.9156  -35.1136   21.6175 C   0  0  0  0  0  0  0  0  0  0  0  0
  -28.0995  -30.3982   20.9703 C   0  0  0  0  0  0  0  0  0  0  0  0
  -29.1831  -24.6658   19.3848 C   0  0  0  0  0  0  0  0  0  0  0  0
  -29.7981  -22.6730   20.6045 C   0  0  0  0  0  0  0  0  0  0  0  0
  -22.7337   -7.6536   21.1437 C   0  0  0  0  0  0  0  0  0  0  0  0
  -28.7087  -28.2200   20.0791 C   0  0  0  0  0  0  0  0  0  0  0  0
  -28.8957  -21.9292   19.8442 C   0  0  0  0  0  0  0  0  0  0  0  0
  -21.6314   -6.1880   22.6131 C   0  0  0  0  0  0  0  0  0  0  0  0
  -21.7448   -4.4364   24.7814 C   0  0  0  0  0  0  0  0  0  0  0  0
  -22.4390   -5.0524   22.5508 C   0  0  0  0  0  0  0  0  0  0  0  0
  -26.3361   -9.5016   19.9165 C   0  0  0  0  0  0  0  0  0  0  0  0
  -28.4199   -9.9068   19.3434 C   0  0  0  0  0  0  0  0  0  0  0  0
  -27.9765   -7.5208   19.9426 C   0  0  0  0  0  0  0  0  0  0  0  0
  -29.7740  -33.1990   21.9602 C   0  0  0  0  0  0  0  0  0  0  0  0
  -26.6075  -33.5298   22.5813 C   0  0  0  0  0  0  0  0  0  0  0  0
  -23.4860  -32.1512   22.5322 C   0  0  0  0  0  0  0  0  0  0  0  0
  -28.4457  -15.6263   20.1646 C   0  0  0  0  0  0  0  0  0  0  0  0
  -32.7078  -37.2459   22.9963 C   0  0  0  0  0  0  0  0  0  0  0  0
  -28.7549  -32.5119   19.7590 C   0  0  0  0  0  0  0  0  0  0  0  0
  -27.4151  -31.2003   22.0457 C   0  0  0  0  0  0  0  0  0  0  0  0
  -31.4443  -36.6318   23.5936 C   0  0  0  0  0  0  0  0  0  0  0  0
  -28.3726  -14.0794   17.0144 C   0  0  0  0  0  0  0  0  0  0  0  0
  -31.6282  -35.1325   23.8056 C   0  0  0  0  0  0  0  0  0  0  0  0
  -29.1696  -22.0405   23.8727 C   0  0  0  0  0  0  0  0  0  0  0  0
  -30.5834  -21.7482   24.2916 C   0  0  0  0  0  0  0  0  0  0  0  0
  -27.9606  -12.6550   17.3854 C   0  0  0  0  0  0  0  0  0  0  0  0
  -30.1812  -18.7882   19.3055 C   0  0  0  0  0  0  0  0  0  0  0  0
  -27.7660  -18.9454   18.5629 C   0  0  0  0  0  0  0  0  0  0  0  0
  -27.6082  -15.1267   17.8261 C   0  0  0  0  0  0  0  0  0  0  0  0
  -29.7797  -17.6969   20.2967 C   0  0  0  0  0  0  0  0  0  0  0  0
  -27.4194  -17.8539   19.5730 C   0  0  0  0  0  0  0  0  0  0  0  0
  -27.2745  -13.5025   19.6611 C   0  0  0  0  0  0  0  0  0  0  0  0
  -31.8833  -34.4143   22.4750 C   0  0  1  0  0  0  0  0  0  0  0  0
  -28.5500  -33.2300   21.0893 C   0  0  1  0  0  0  0  0  0  0  0  0
  -30.3191  -22.5826   23.0691 C   0  0  0  0  0  0  0  0  0  0  0  0
  -28.0678  -12.4264   18.9036 C   0  0  1  0  0  0  0  0  0  0  0  0
  -29.0228  -19.7233   18.9565 C   0  0  0  0  0  0  0  0  0  0  0  0
  -32.1293  -22.1086   21.3799 C   0  0  0  0  0  0  0  0  0  0  0  0
  -21.1026  -32.6497   23.1391 C   0  0  0  0  0  0  0  0  0  0  0  0
  -27.2659  -33.0799   25.5265 C   0  0  0  0  0  0  0  0  0  0  0  0
  -24.8342  -32.6427   25.9314 C   0  0  0  0  0  0  0  0  0  0  0  0
  -25.5766  -34.8733   25.0973 C   0  0  0  0  0  0  0  0  0  0  0  0
  -22.5882  -31.8554   19.7277 C   0  0  0  0  0  0  0  0  0  0  0  0
  -29.3373  -26.1284   19.1379 C   0  0  0  0  0  0  0  0  0  1  0  0
  -30.6192  -22.0205   21.6674 C   0  0  2  0  0  0  0  0  0  0  0  0
  -25.6323  -32.8851   23.5366 C   0  0  1  0  0  0  0  0  0  0  0  0
  -22.1544  -32.6901   22.0415 C   0  0  2  0  0  0  0  0  0  0  0  0
  -25.8417  -33.3549   25.0039 C   0  0  0  0  0  0  0  0  0  0  0  0
  -26.3590  -10.8082   19.6401 N   0  0  0  0  0  0  0  0  0  0  0  0
  -27.6397  -11.0244   19.2949 N   0  0  0  0  0  0  0  0  0  0  0  0
  -27.4525  -32.6622   21.8749 N   0  0  0  0  0  0  0  0  0  0  0  0
  -27.7069  -14.8441   19.2643 N   0  0  0  0  0  0  0  0  0  0  0  0
  -28.5738  -16.9926   19.8621 N   0  0  0  0  0  0  0  0  0  0  0  0
  -29.7317   -9.9462   19.0273 N   0  0  0  0  0  0  0  0  0  0  0  0
  -27.0010   -6.6057   20.3614 N   0  0  0  0  0  0  0  0  0  0  0  0
  -30.6451  -34.2497   21.7441 N   0  0  0  0  0  0  0  0  0  0  0  0
  -24.3008  -33.1574   23.0062 N   0  0  0  0  0  0  0  0  0  0  0  0
  -21.6622  -31.8837   20.8890 N   0  3  0  0  0  0  0  0  0  0  0  0
  -29.1537   -7.1254   19.7659 O   0  0  0  0  0  0  0  0  0  0  0  0
  -29.9169  -32.2899   22.7694 O   0  0  0  0  0  0  0  0  0  0  0  0
  -26.6141  -34.7574   22.4609 O   0  0  0  0  0  0  0  0  0  0  0  0
  -23.7730  -30.9565   22.5018 O   0  0  0  0  0  0  0  0  0  0  0  0
  -28.9634  -15.1360   21.1759 O   0  0  0  0  0  0  0  0  0  0  0  0
  -21.5747   -7.0589   21.5379 O   0  0  0  0  0  0  0  0  0  0  0  0
  -28.7407  -20.5847   20.0573 O   0  0  0  0  0  0  0  0  0  0  0  0
  -28.6904  -26.8534   20.1766 O   0  0  0  0  0  0  0  0  0  1  0  0
  -21.8003   -3.5963   25.8231 F   0  0  0  0  0  0  0  0  0  0  0  0
  -23.1635   -4.7981   21.4525 F   0  0  0  0  0  0  0  0  0  0  0  0
  1  2  1  0  0  0  0
  1  5  2  0  0  0  0
  2  6  2  0  0  0  0
  3  9  2  0  0  0  0
  3 18  1  0  0  0  0
  4 10  1  0  0  0  0
  4 18  2  0  0  0  0
  5 20  1  0  0  0  0
  6 22  1  0  0  0  0
  7 11  2  0  0  0  0
  7 21  1  0  0  0  0
  8 12  2  0  0  0  0
  8 24  1  0  0  0  0
  9 26  1  0  0  0  0
 10 26  2  0  0  0  0
 11 27  1  0  0  0  0
 12 28  1  0  0  0  0
 13 14  2  0  0  0  0
 13 29  1  0  0  0  0
 14 30  1  0  0  0  0
 15 23  1  0  0  0  0
 15 27  2  0  0  0  0
 16 24  2  0  0  0  0
 16 25  1  0  0  0  0
 17 30  2  0  0  0  0
 17 31  1  0  0  0  0
 18 32  1  0  0  0  0
 19 32  1  0  0  0  0
 19 33  2  0  0  0  0
 19 34  1  0  0  0  0
 20 22  2  0  0  0  0
 20 39  1  0  0  0  0
 21 23  2  0  0  0  0
 21 40  1  0  0  0  0
 22 54  1  0  0  0  0
 23 41  1  0  0  0  0
 24 65  1  0  0  0  0
 25 28  2  0  0  0  0
 25 66  1  0  0  0  0
 26 85  1  0  0  0  0
 27 87  1  0  0  0  0
 28 86  1  0  0  0  0
 29 31  2  0  0  0  0
 29 85  1  0  0  0  0
 30 88  1  0  0  0  0
 31 89  1  0  0  0  0
 32 70  2  0  0  0  0
 33 71  1  0  0  0  0
 33 75  1  0  0  0  0
 34 76  1  0  0  0  0
 34 80  2  0  0  0  0
 35 55  1  0  0  0  0
 35 77  1  0  0  0  0
 35 81  2  0  0  0  0
 36 67  1  0  0  0  0
 36 72  1  0  0  0  0
 36 82  2  0  0  0  0
 37 68  1  0  0  0  0
 37 78  1  0  0  0  0
 37 83  2  0  0  0  0
 38 73  1  0  0  0  0
 38 74  1  0  0  0  0
 38 84  2  0  0  0  0
 39 42  1  0  0  0  0
 40 55  1  0  0  0  0
 41 72  1  0  0  0  0
 42 44  1  0  0  0  0
 43 47  1  0  0  0  0
 43 50  1  0  0  0  0
 44 54  1  0  0  0  0
 45 46  1  0  0  0  0
 45 56  1  0  0  0  0
 46 56  1  0  0  0  0
 47 57  1  0  0  0  0
 48 51  1  0  0  0  0
 48 58  1  0  0  0  0
 49 52  1  0  0  0  0
 49 58  1  0  0  0  0
 50 73  1  0  0  0  0
 51 74  1  0  0  0  0
 52 74  1  0  0  0  0
 53 57  1  0  0  0  0
 53 73  1  0  0  0  0
 54 77  1  0  0  0  0
 55 72  1  0  0  0  0
 56 66  1  0  0  0  0
 57 71  1  0  0  0  0
 58 86  1  0  0  0  0
 59 66  1  0  0  0  0
 60 68  1  0  0  0  0
 61 69  1  0  0  0  0
 62 69  1  0  0  0  0
 63 69  1  0  0  0  0
 64 79  1  0  0  0  0
 65 87  1  0  0  0  0
 67 69  1  0  0  0  0
 67 78  1  0  0  0  0
 68 79  1  0  0  0  0
 70 71  1  0  0  0  0
M  CHG  1  79   1
M  ISO  4  38 100  65 101  74 100  87 101
M  END
> <Batch ID>
0150

> <Smiles>
CNC(C)C(=O)NC(C(=O)N1Cc2cc([101O:1][101CH2:1]c3ccc(OC4CC[100N:0]([100C:0](=O)N5CCCC(n6nc(-c7ccc(Oc8ccc(F)cc8F)cc7)c(C(N)=O)c6N)C5)CC4)c(C(C)C4CC4)c3)ccc2CC1C(=O)NC1CCCc2ccccc21)C(C)(C)C

> <Shape>
0.252

> <Color>
0.096

> <Negative vol penalty>
0.000

$$$$

  -OEChem-04052321413D

 90100  0     1  0  0  0  0  0999 V2000
  -26.6967  -33.1337   28.3562 C   0  0  0  0  0  0  0  0  0  0  0  0
  -25.9753  -33.6036   27.2634 C   0  0  0  0  0  0  0  0  0  0  0  0
  -24.7839   -8.4852   21.2122 C   0  0  0  0  0  0  0  0  0  0  0  0
  -23.5231  -10.4364   21.8758 C   0  0  0  0  0  0  0  0  0  0  0  0
  -27.8168  -32.3280   28.1562 C   0  0  0  0  0  0  0  0  0  0  0  0
  -26.3743  -33.2689   25.9699 C   0  0  0  0  0  0  0  0  0  0  0  0
  -23.1813  -20.7990   18.0086 C   0  0  0  0  0  0  0  0  0  0  0  0
  -22.4231  -21.8212   17.4378 C   0  0  0  0  0  0  0  0  0  0  0  0
  -21.9275  -29.7813   21.5028 C   0  0  0  0  0  0  0  0  0  0  0  0
  -23.6386   -7.7001   21.3443 C   0  0  0  0  0  0  0  0  0  0  0  0
  -22.3777   -9.6513   22.0079 C   0  0  0  0  0  0  0  0  0  0  0  0
  -21.0625  -29.3021   20.5189 C   0  0  0  0  0  0  0  0  0  0  0  0
  -21.1291   -5.1184   21.8548 C   0  0  0  0  0  0  0  0  0  0  0  0
  -21.2527   -3.8936   22.5107 C   0  0  0  0  0  0  0  0  0  0  0  0
  -21.8726  -20.9588   20.0332 C   0  0  0  0  0  0  0  0  0  0  0  0
  -22.8784  -29.2712   18.9222 C   0  0  0  0  0  0  0  0  0  0  0  0
  -22.0010   -5.0363   24.5036 C   0  0  0  0  0  0  0  0  0  0  0  0
  -24.7262   -9.8534   21.4780 C   0  0  0  0  0  0  0  0  0  0  0  0
  -27.1242  -10.5193   22.0380 C   0  0  0  0  0  0  0  0  0  0  0  0
  -22.9060  -20.3677   19.3062 C   0  0  0  0  0  0  0  0  0  0  0  0
  -28.2241  -31.9753   26.8600 C   0  0  0  0  0  0  0  0  0  0  0  0
  -23.2764  -29.9929   21.2039 C   0  0  0  0  0  0  0  0  0  0  0  0
  -27.5018  -32.4588   25.7524 C   0  0  0  0  0  0  0  0  0  0  0  0
  -21.3897  -22.4123   18.1647 C   0  0  0  0  0  0  0  0  0  0  0  0
  -23.7523  -29.7392   19.9071 C   0  0  0  0  0  0  0  0  0  0  0  0
  -21.1144  -21.9810   19.4624 C   0  0  0  0  0  0  0  0  0  0  0  0
  -22.4355   -8.2831   21.7422 C   0  0  0  0  0  0  0  0  0  0  0  0
  -21.5367  -29.0479   19.2318 C   0  0  0  0  0  0  0  0  0  0  0  0
  -21.4416   -6.3022   22.5233 C   0  0  0  0  0  0  0  0  0  0  0  0
  -21.6886   -3.8525   23.8351 C   0  0  0  0  0  0  0  0  0  0  0  0
  -21.8775   -6.2611   23.8476 C   0  0  0  0  0  0  0  0  0  0  0  0
  -25.9091  -10.6648   21.3422 C   0  0  0  0  0  0  0  0  0  0  0  0
  -27.9207  -11.5274   21.5524 C   0  0  0  0  0  0  0  0  0  0  0  0
  -27.4994   -9.5588   23.0341 C   0  0  0  0  0  0  0  0  0  0  0  0
  -26.6527  -31.0698   22.4353 C   0  0  0  0  0  0  0  0  0  0  0  0
  -27.1013  -28.6439   20.6121 C   0  0  0  0  0  0  0  0  0  0  0  0
  -28.2611  -25.8193   19.0911 C   0  0  0  0  0  0  0  0  0  0  0  0
  -26.9051  -16.7800   19.1391 C   0  0  0  0  0  0  0  0  0  0  0  0
  -29.4692  -31.1409   26.6921 C   0  0  0  0  0  0  0  0  0  0  0  0
  -24.2309  -30.5665   22.2157 C   0  0  0  0  0  0  0  0  0  0  0  0
  -25.2035  -30.0143   19.6217 C   0  0  0  0  0  0  0  0  0  0  0  0
  -29.6062  -30.5239   25.3025 C   0  0  0  0  0  0  0  0  0  0  0  0
  -28.6465  -14.1900   17.6533 C   0  0  0  0  0  0  0  0  0  0  0  0
  -29.3232  -31.5663   24.2254 C   0  0  0  0  0  0  0  0  0  0  0  0
  -28.2694  -12.9698   18.4930 C   0  0  0  0  0  0  0  0  0  0  0  0
  -23.5901  -17.9324   19.1542 C   0  0  0  0  0  0  0  0  0  0  0  0
  -25.2135  -19.6472   20.0673 C   0  0  0  0  0  0  0  0  0  0  0  0
  -20.9902  -23.9595   16.1177 C   0  0  0  0  0  0  0  0  0  0  0  0
  -27.4351  -15.0839   17.4148 C   0  0  0  0  0  0  0  0  0  0  0  0
  -24.4506  -16.8238   19.7669 C   0  0  0  0  0  0  0  0  0  0  0  0
  -26.0185  -18.5040   20.6787 C   0  0  0  0  0  0  0  0  0  0  0  0
  -26.3805  -14.3286   19.5209 C   0  0  0  0  0  0  0  0  0  0  0  0
  -20.2219  -25.2507   15.9319 C   0  0  0  0  0  0  0  0  0  0  0  0
  -20.6220  -24.8397   18.3059 C   0  0  0  0  0  0  0  0  0  0  0  0
  -23.7312  -19.2562   19.9270 C   0  0  0  0  0  0  0  0  0  0  0  0
  -20.5816  -23.5205   17.5246 C   0  0  2  0  0  0  0  0  0  0  0  0
  -27.8887  -32.0971   24.3348 C   0  0  1  0  0  0  0  0  0  0  0  0
  -25.6573  -30.0024   22.0872 C   0  0  1  0  0  0  0  0  0  0  0  0
  -27.5731  -13.3911   19.7992 C   0  0  1  0  0  0  0  0  0  0  0  0
  -20.0132  -22.5992   20.2599 C   0  0  0  0  0  0  0  0  0  0  0  0
  -30.3244  -24.8548   18.0376 C   0  0  0  0  0  0  0  0  0  0  0  0
  -26.6249  -30.3481   18.1276 C   0  0  0  0  0  0  0  0  0  0  0  0
  -28.0304  -28.7292   16.8344 C   0  0  0  0  0  0  0  0  0  0  0  0
  -29.0319  -30.0180   18.7209 C   0  0  0  0  0  0  0  0  0  0  0  0
  -28.3820  -23.6191   21.0668 C   0  0  0  0  0  0  0  0  0  0  0  0
  -19.1890  -26.8105   17.6155 C   0  0  0  0  0  0  0  0  0  0  0  0
  -19.5987  -27.7676   18.7175 C   0  0  0  0  0  0  0  0  0  1  0  0
  -27.4090  -28.1454   19.2228 C   0  0  1  0  0  0  0  0  0  0  0  0
  -29.5158  -24.9955   19.3179 C   0  0  2  0  0  0  0  0  0  0  0  0
  -27.7511  -29.3013   18.2407 C   0  0  0  0  0  0  0  0  0  0  0  0
  -25.9273  -11.6850   20.4804 N   0  0  0  0  0  0  0  0  0  0  0  0
  -27.1636  -12.1899   20.6315 N   0  0  0  0  0  0  0  0  0  0  0  0
  -26.0339  -29.5410   20.7402 N   0  0  0  0  0  0  0  0  0  0  0  0
  -26.8001  -15.4591   18.6781 N   0  0  0  0  0  0  0  0  0  0  0  0
  -25.8432  -17.2692   19.9146 N   0  0  0  0  0  0  0  0  0  0  0  0
  -29.1878  -11.9030   21.8278 N   0  0  0  0  0  0  0  0  0  0  0  0
  -27.2591   -9.8640   24.3807 N   0  0  0  0  0  0  0  0  0  0  0  0
  -26.9527  -31.1415   23.7823 N   0  0  0  0  0  0  0  0  0  0  0  0
  -28.4686  -27.1535   19.3704 N   0  0  0  0  0  0  0  0  0  0  0  0
  -20.3438  -25.9225   17.2785 N   0  3  2  0  0  0  0  0  0  0  0  0
  -29.1596  -23.6315   19.8011 N   0  3  0  0  0  0  0  0  0  0  0  0
  -28.0470   -8.4692   22.7399 O   0  0  0  0  0  0  0  0  0  0  0  0
  -27.1166  -31.7760   21.5478 O   0  0  0  0  0  0  0  0  0  0  0  0
  -27.7905  -28.2545   21.5590 O   0  0  0  0  0  0  0  0  0  0  0  0
  -27.2037  -25.3288   18.7012 O   0  0  0  0  0  0  0  0  0  0  0  0
  -27.8896  -17.4814   18.8745 O   0  0  0  0  0  0  0  0  0  0  0  0
  -21.3176   -7.5174   21.8710 O   0  0  0  0  0  0  0  0  0  0  0  0
  -20.6816  -28.5725   18.2704 O   0  0  0  0  0  0  0  0  0  1  0  0
  -21.8058   -2.6764   24.4653 F   0  0  0  0  0  0  0  0  0  0  0  0
  -22.1780   -7.3951   24.4953 F   0  0  0  0  0  0  0  0  0  0  0  0
  1  2  1  0  0  0  0
  1  5  2  0  0  0  0
  2  6  2  0  0  0  0
  3 10  2  0  0  0  0
  3 18  1  0  0  0  0
  4 11  1  0  0  0  0
  4 18  2  0  0  0  0
  5 21  1  0  0  0  0
  6 23  1  0  0  0  0
  7  8  2  0  0  0  0
  7 20  1  0  0  0  0
  8 24  1  0  0  0  0
  9 12  2  0  0  0  0
  9 22  1  0  0  0  0
 10 27  1  0  0  0  0
 11 27  2  0  0  0  0
 12 28  1  0  0  0  0
 13 14  2  0  0  0  0
 13 29  1  0  0  0  0
 14 30  1  0  0  0  0
 15 20  2  0  0  0  0
 15 26  1  0  0  0  0
 16 25  1  0  0  0  0
 16 28  2  0  0  0  0
 17 30  2  0  0  0  0
 17 31  1  0  0  0  0
 18 32  1  0  0  0  0
 19 32  1  0  0  0  0
 19 33  2  0  0  0  0
 19 34  1  0  0  0  0
 20 55  1  0  0  0  0
 21 23  2  0  0  0  0
 21 39  1  0  0  0  0
 22 25  2  0  0  0  0
 22 40  1  0  0  0  0
 23 57  1  0  0  0  0
 24 26  2  0  0  0  0
 24 56  1  0  0  0  0
 25 41  1  0  0  0  0
 26 60  1  0  0  0  0
 27 87  1  0  0  0  0
 28 88  1  0  0  0  0
 29 31  2  0  0  0  0
 29 87  1  0  0  0  0
 30 89  1  0  0  0  0
 31 90  1  0  0  0  0
 32 71  2  0  0  0  0
 33 72  1  0  0  0  0
 33 76  1  0  0  0  0
 34 77  1  0  0  0  0
 34 82  2  0  0  0  0
 35 58  1  0  0  0  0
 35 78  1  0  0  0  0
 35 83  2  0  0  0  0
 36 68  1  0  0  0  0
 36 73  1  0  0  0  0
 36 84  2  0  0  0  0
 37 69  1  0  0  0  0
 37 79  1  0  0  0  0
 37 85  2  0  0  0  0
 38 74  1  0  0  0  0
 38 75  1  0  0  0  0
 38 86  2  0  0  0  0
 39 42  1  0  0  0  0
 40 58  1  0  0  0  0
 41 73  1  0  0  0  0
 42 44  1  0  0  0  0
 43 45  1  0  0  0  0
 43 49  1  0  0  0  0
 44 57  1  0  0  0  0
 45 59  1  0  0  0  0
 46 50  1  0  0  0  0
 46 55  1  0  0  0  0
 47 51  1  0  0  0  0
 47 55  1  0  0  0  0
 48 53  1  0  0  0  0
 48 56  1  0  0  0  0
 49 74  1  0  0  0  0
 50 75  1  0  0  0  0
 51 75  1  0  0  0  0
 52 59  1  0  0  0  0
 52 74  1  0  0  0  0
 53 80  1  0  0  0  0
 54 56  1  0  0  0  0
 54 80  1  0  0  0  0
 57 78  1  0  0  0  0
 58 73  1  0  0  0  0
 59 72  1  0  0  0  0
 61 69  1  0  0  0  0
 62 70  1  0  0  0  0
 63 70  1  0  0  0  0
 64 70  1  0  0  0  0
 65 81  1  0  0  0  0
 66 67  1  0  0  0  0
 66 80  1  0  0  0  0
 67 88  1  0  0  0  0
 68 70  1  0  0  0  0
 68 79  1  0  0  0  0
 69 81  1  0  0  0  0
 71 72  1  0  0  0  0
M  CHG  2  80   1  81   1
M  ISO  4  38 100  67 101  75 100  88 101
M  END
> <Batch ID>
0150

> <Smiles>
CNC(C)C(=O)NC(C(=O)N1Cc2cc([101O:1][101CH2:1]CN3CCC(c4ccc(C5CC[100N:0]([100C:0](=O)N6CCCC(n7nc(-c8ccc(Oc9ccc(F)cc9F)cc8)c(C(N)=O)c7N)C6)CC5)cc4C)C3)ccc2CC1C(=O)NC1CCCc2ccccc21)C(C)(C)C

> <Shape>
0.259

> <Color>
0.076

> <Negative vol penalty>
0.000

$$$$

  -OEChem-04052321413D

 88 97  0     1  0  0  0  0  0999 V2000
  -32.0479  -15.4626   19.3229 C   0  0  0  0  0  0  0  0  0  0  0  0
  -30.9898  -16.3649   19.2818 C   0  0  0  0  0  0  0  0  0  0  0  0
  -27.8063  -25.0365   19.7213 C   0  0  0  0  0  0  0  0  0  0  0  0
  -29.9877  -26.0644   19.8700 C   0  0  0  0  0  0  0  0  0  0  0  0
  -31.7944  -14.0985   19.4603 C   0  0  0  0  0  0  0  0  0  0  0  0
  -29.6774  -15.9034   19.3770 C   0  0  0  0  0  0  0  0  0  0  0  0
  -26.8648  -18.6846   22.5392 C   0  0  0  0  0  0  0  0  0  0  0  0
  -19.6329  -24.4105   22.8340 C   0  0  0  0  0  0  0  0  0  0  0  0
  -28.1715  -24.4357   18.5166 C   0  0  0  0  0  0  0  0  0  0  0  0
  -30.3529  -25.4636   18.6653 C   0  0  0  0  0  0  0  0  0  0  0  0
  -26.3928  -19.9072   22.0637 C   0  0  0  0  0  0  0  0  0  0  0  0
  -20.6930  -23.5090   22.7388 C   0  0  0  0  0  0  0  0  0  0  0  0
  -29.9928  -21.7690   17.5144 C   0  0  0  0  0  0  0  0  0  0  0  0
  -29.6736  -20.4226   17.3386 C   0  0  0  0  0  0  0  0  0  0  0  0
  -24.2441  -18.9012   21.6274 C   0  0  0  0  0  0  0  0  0  0  0  0
  -22.2372  -25.3508   22.4935 C   0  0  0  0  0  0  0  0  0  0  0  0
  -28.3356  -20.9917   15.4091 C   0  0  0  0  0  0  0  0  0  0  0  0
  -28.7144  -25.8509   20.3980 C   0  0  0  0  0  0  0  0  0  0  0  0
  -28.4975  -25.9457   22.9380 C   0  0  0  0  0  0  0  0  0  0  0  0
  -30.4787  -13.6210   19.5670 C   0  0  0  0  0  0  0  0  0  0  0  0
  -26.0320  -17.5565   22.5523 C   0  0  0  0  0  0  0  0  0  0  0  0
  -29.4060  -14.5315   19.5147 C   0  0  0  0  0  0  0  0  0  0  0  0
  -24.7072  -17.6660   22.1060 C   0  0  0  0  0  0  0  0  0  0  0  0
  -21.1771  -26.2523   22.5887 C   0  0  0  0  0  0  0  0  0  0  0  0
  -19.8749  -25.7822   22.7589 C   0  0  0  0  0  0  0  0  0  0  0  0
  -29.4448  -24.6493   17.9886 C   0  0  0  0  0  0  0  0  0  0  0  0
  -25.0832  -20.0150   21.6050 C   0  0  0  0  0  0  0  0  0  0  0  0
  -21.9952  -23.9792   22.5686 C   0  0  0  0  0  0  0  0  0  0  0  0
  -29.4832  -22.7268   16.6377 C   0  0  0  0  0  0  0  0  0  0  0  0
  -28.8451  -20.0339   16.2859 C   0  0  0  0  0  0  0  0  0  0  0  0
  -28.6547  -22.3382   15.5850 C   0  0  0  0  0  0  0  0  0  0  0  0
  -28.3375  -26.4722   21.6422 C   0  0  0  0  0  0  0  0  0  0  0  0
  -27.9857  -26.9136   23.7674 C   0  0  0  0  0  0  0  0  0  0  0  0
  -29.0585  -24.6938   23.3547 C   0  0  0  0  0  0  0  0  0  0  0  0
  -26.0998  -14.7019   21.1557 C   0  0  0  0  0  0  0  0  0  0  0  0
  -23.5138  -14.1532   23.0355 C   0  0  0  0  0  0  0  0  0  0  0  0
  -20.8912  -15.4371   24.8019 C   0  0  0  0  0  0  0  0  0  0  0  0
  -23.9933  -31.1615   23.1565 C   0  0  0  0  0  0  0  0  0  0  0  0
  -30.2522  -12.1332   19.6666 C   0  0  0  0  0  0  0  0  0  0  0  0
  -26.5481  -16.2514   23.0933 C   0  0  0  0  0  0  0  0  0  0  0  0
  -23.7666  -16.4898   22.1180 C   0  0  0  0  0  0  0  0  0  0  0  0
  -28.8487  -11.7610   20.1377 C   0  0  0  0  0  0  0  0  0  0  0  0
  -27.2980  -31.6342   24.0552 C   0  0  0  0  0  0  0  0  0  0  0  0
  -27.7996  -12.5700   19.3816 C   0  0  0  0  0  0  0  0  0  0  0  0
  -27.9696  -30.3160   23.6701 C   0  0  0  0  0  0  0  0  0  0  0  0
  -21.6827  -28.3657   23.8913 C   0  0  0  0  0  0  0  0  0  0  0  0
  -22.6570  -28.0432   21.5788 C   0  0  0  0  0  0  0  0  0  0  0  0
  -26.2933  -32.0664   22.9930 C   0  0  0  0  0  0  0  0  0  0  0  0
  -21.9965  -29.8565   23.7905 C   0  0  0  0  0  0  0  0  0  0  0  0
  -22.9470  -29.5405   21.5294 C   0  0  0  0  0  0  0  0  0  0  0  0
  -25.9014  -29.7206   22.3165 C   0  0  0  0  0  0  0  0  0  0  0  0
  -21.4646  -27.7396   22.5031 C   0  0  0  0  0  0  0  0  0  0  0  0
  -27.9696  -14.0719   19.6398 C   0  0  1  0  0  0  0  0  0  0  0  0
  -25.7702  -15.0430   22.5814 C   0  0  1  0  0  0  0  0  0  0  0  0
  -26.9217  -29.2315   23.3638 C   0  0  1  0  0  0  0  0  0  0  0  0
  -18.0056  -26.6303   24.2217 C   0  0  0  0  0  0  0  0  0  0  0  0
  -17.7090  -26.5459   21.7197 C   0  0  0  0  0  0  0  0  0  0  0  0
  -18.9287  -14.7391   26.2015 C   0  0  0  0  0  0  0  0  0  0  0  0
  -22.0113  -13.3259   20.5119 C   0  0  0  0  0  0  0  0  0  0  0  0
  -19.8725  -13.5623   21.7917 C   0  0  0  0  0  0  0  0  0  0  0  0
  -21.5730  -11.8832   22.5072 C   0  0  0  0  0  0  0  0  0  0  0  0
  -21.9184  -16.8835   27.1708 C   0  0  0  0  0  0  0  0  0  0  0  0
  -25.1858  -22.3889   21.7042 C   0  0  0  0  0  0  0  0  0  1  0  0
  -24.1516  -23.4978   21.6888 C   0  0  0  0  0  0  0  0  0  0  0  0
  -18.7238  -26.7278   22.8633 C   0  0  0  0  0  0  0  0  0  0  0  0
  -22.0236  -14.3421   22.8854 C   0  0  1  0  0  0  0  0  0  0  0  0
  -20.3906  -15.1581   26.2076 C   0  0  2  0  0  0  0  0  0  0  0  0
  -21.3882  -13.3003   21.9219 C   0  0  0  0  0  0  0  0  0  0  0  0
  -27.7685  -27.6806   21.6432 N   0  0  0  0  0  0  0  0  0  0  0  0
  -27.5664  -27.9215   22.9498 N   0  0  0  0  0  0  0  0  0  0  0  0
  -24.3200  -15.2337   22.6505 N   0  0  0  0  0  0  0  0  0  0  0  0
  -25.3200  -31.0075   22.7263 N   0  0  0  0  0  0  0  0  0  0  0  0
  -23.1094  -30.1067   22.8754 N   0  0  0  0  0  0  0  0  0  0  0  0
  -27.8580  -26.9923   25.1090 N   0  0  0  0  0  0  0  0  0  0  0  0
  -29.5380  -23.8166   22.3724 N   0  0  0  0  0  0  0  0  0  0  0  0
  -27.4360  -14.4251   20.9379 N   0  0  0  0  0  0  0  0  0  0  0  0
  -21.4715  -14.3218   24.2356 N   0  0  0  0  0  0  0  0  0  0  0  0
  -20.5272  -16.3749   27.0571 N   0  3  0  0  0  0  0  0  0  0  0  0
  -29.1174  -24.3559   24.5612 O   0  0  0  0  0  0  0  0  0  0  0  0
  -25.2076  -14.6893   20.3157 O   0  0  0  0  0  0  0  0  0  0  0  0
  -23.9462  -13.0888   23.4846 O   0  0  0  0  0  0  0  0  0  0  0  0
  -20.7754  -16.5337   24.2590 O   0  0  0  0  0  0  0  0  0  0  0  0
  -23.6201  -32.1752   23.7598 O   0  0  0  0  0  0  0  0  0  0  0  0
  -29.8016  -24.0630   16.8132 O   0  0  0  0  0  0  0  0  0  0  0  0
  -24.6169  -21.2151   21.1366 O   0  0  0  0  0  0  0  0  0  1  0  0
  -23.0297  -23.0996   22.4753 O   0  0  0  0  0  0  0  0  0  0  0  0
  -28.5400  -18.7408   16.1162 F   0  0  0  0  0  0  0  0  0  0  0  0
  -28.1631  -23.2537   14.7388 F   0  0  0  0  0  0  0  0  0  0  0  0
  1  2  1  0  0  0  0
  1  5  2  0  0  0  0
  2  6  2  0  0  0  0
  3  9  2  0  0  0  0
  3 18  1  0  0  0  0
  4 10  1  0  0  0  0
  4 18  2  0  0  0  0
  5 20  1  0  0  0  0
  6 22  1  0  0  0  0
  7 11  2  0  0  0  0
  7 21  1  0  0  0  0
  8 12  2  0  0  0  0
  8 25  1  0  0  0  0
  9 26  1  0  0  0  0
 10 26  2  0  0  0  0
 11 27  1  0  0  0  0
 12 28  1  0  0  0  0
 13 14  2  0  0  0  0
 13 29  1  0  0  0  0
 14 30  1  0  0  0  0
 15 23  1  0  0  0  0
 15 27  2  0  0  0  0
 16 24  1  0  0  0  0
 16 28  2  0  0  0  0
 17 30  2  0  0  0  0
 17 31  1  0  0  0  0
 18 32  1  0  0  0  0
 19 32  1  0  0  0  0
 19 33  2  0  0  0  0
 19 34  1  0  0  0  0
 20 22  2  0  0  0  0
 20 39  1  0  0  0  0
 21 23  2  0  0  0  0
 21 40  1  0  0  0  0
 22 53  1  0  0  0  0
 23 41  1  0  0  0  0
 24 25  2  0  0  0  0
 24 52  1  0  0  0  0
 25 65  1  0  0  0  0
 26 84  1  0  0  0  0
 27 85  1  0  0  0  0
 28 86  1  0  0  0  0
 29 31  2  0  0  0  0
 29 84  1  0  0  0  0
 30 87  1  0  0  0  0
 31 88  1  0  0  0  0
 32 69  2  0  0  0  0
 33 70  1  0  0  0  0
 33 74  1  0  0  0  0
 34 75  1  0  0  0  0
 34 79  2  0  0  0  0
 35 54  1  0  0  0  0
 35 76  1  0  0  0  0
 35 80  2  0  0  0  0
 36 66  1  0  0  0  0
 36 71  1  0  0  0  0
 36 81  2  0  0  0  0
 37 67  1  0  0  0  0
 37 77  1  0  0  0  0
 37 82  2  0  0  0  0
 38 72  1  0  0  0  0
 38 73  1  0  0  0  0
 38 83  2  0  0  0  0
 39 42  1  0  0  0  0
 40 54  1  0  0  0  0
 41 71  1  0  0  0  0
 42 44  1  0  0  0  0
 43 45  1  0  0  0  0
 43 48  1  0  0  0  0
 44 53  1  0  0  0  0
 45 55  1  0  0  0  0
 46 49  1  0  0  0  0
 46 52  1  0  0  0  0
 47 50  1  0  0  0  0
 47 52  1  0  0  0  0
 48 72  1  0  0  0  0
 49 73  1  0  0  0  0
 50 73  1  0  0  0  0
 51 55  1  0  0  0  0
 51 72  1  0  0  0  0
 53 76  1  0  0  0  0
 54 71  1  0  0  0  0
 55 70  1  0  0  0  0
 56 65  1  0  0  0  0
 57 65  1  0  0  0  0
 58 67  1  0  0  0  0
 59 68  1  0  0  0  0
 60 68  1  0  0  0  0
 61 68  1  0  0  0  0
 62 78  1  0  0  0  0
 63 64  1  0  0  0  0
 63 85  1  0  0  0  0
 64 86  1  0  0  0  0
 66 68  1  0  0  0  0
 66 77  1  0  0  0  0
 67 78  1  0  0  0  0
 69 70  1  0  0  0  0
M  CHG  1  78   1
M  ISO  4  38 100  63 101  73 100  85 101
M  END
> <Batch ID>
0150

> <Smiles>
CNC(C)C(=O)NC(C(=O)N1Cc2cc([101O:1][101CH2:1]COc3ccc(C(C)C)c(C4CC[100N:0]([100C:0](=O)N5CCCC(n6nc(-c7ccc(Oc8ccc(F)cc8F)cc7)c(C(N)=O)c6N)C5)CC4)c3)ccc2CC1C(=O)NC1CCCc2ccccc21)C(C)(C)C

> <Shape>
0.218

> <Color>
0.049

> <Negative vol penalty>
0.000

$$$$

  -OEChem-04052321413D

 89 99  0     1  0  0  0  0  0999 V2000
  -16.8113  -26.1852   21.7772 C   0  0  0  0  0  0  0  0  0  0  0  0
  -17.9989  -26.3601   21.0741 C   0  0  0  0  0  0  0  0  0  0  0  0
  -27.6487  -12.2689   18.9707 C   0  0  0  0  0  0  0  0  0  0  0  0
  -28.5352  -13.5104   20.8441 C   0  0  0  0  0  0  0  0  0  0  0  0
  -16.4326  -27.1139   22.7457 C   0  0  0  0  0  0  0  0  0  0  0  0
  -18.8081  -27.4646   21.3383 C   0  0  0  0  0  0  0  0  0  0  0  0
  -23.7092  -26.2411   21.6954 C   0  0  0  0  0  0  0  0  0  0  0  0
  -28.9419  -11.8930   18.6078 C   0  0  0  0  0  0  0  0  0  0  0  0
  -29.8285  -13.1344   20.4813 C   0  0  0  0  0  0  0  0  0  0  0  0
  -24.4008  -26.0286   20.5037 C   0  0  0  0  0  0  0  0  0  0  0  0
  -31.8040  -10.4087   20.7780 C   0  0  0  0  0  0  0  0  0  0  0  0
  -32.6581   -9.9709   21.7901 C   0  0  0  0  0  0  0  0  0  0  0  0
  -28.8454  -22.8641   18.9659 C   0  0  0  0  0  0  0  0  0  0  0  0
  -26.9433  -23.0902   20.4634 C   0  0  0  0  0  0  0  0  0  0  0  0
  -25.3257  -28.2517   20.6510 C   0  0  0  0  0  0  0  0  0  0  0  0
  -34.1906  -11.7657   21.2733 C   0  0  0  0  0  0  0  0  0  0  0  0
  -27.4453  -13.0777   20.0888 C   0  0  0  0  0  0  0  0  0  0  0  0
  -25.2366  -12.7826   21.3307 C   0  0  0  0  0  0  0  0  0  0  0  0
  -17.2423  -28.2252   23.0287 C   0  0  0  0  0  0  0  0  0  0  0  0
  -23.8122  -27.4666   22.3693 C   0  0  0  0  0  0  0  0  0  0  0  0
  -18.4392  -28.4098   22.3106 C   0  0  0  0  0  0  0  0  0  0  0  0
  -27.8144  -23.6339   19.5071 C   0  0  0  0  0  0  0  0  0  0  0  0
  -28.9919  -21.5592   19.4067 C   0  0  0  0  0  0  0  0  0  0  0  0
  -24.6364  -28.4763   21.8524 C   0  0  0  0  0  0  0  0  0  0  0  0
  -28.1243  -21.0126   20.3626 C   0  0  0  0  0  0  0  0  0  0  0  0
  -30.0319  -12.3257   19.3631 C   0  0  0  0  0  0  0  0  0  0  0  0
  -25.2070  -27.0349   19.9798 C   0  0  0  0  0  0  0  0  0  0  0  0
  -32.1433  -11.5250   20.0134 C   0  0  0  0  0  0  0  0  0  0  0  0
  -27.0907  -21.7690   20.8928 C   0  0  0  0  0  0  0  0  0  0  0  0
  -33.8514  -10.6494   22.0379 C   0  0  0  0  0  0  0  0  0  0  0  0
  -33.3366  -12.2035   20.2611 C   0  0  0  0  0  0  0  0  0  0  0  0
  -26.1096  -13.4668   20.4639 C   0  0  0  0  0  0  0  0  0  0  0  0
  -24.1019  -13.5561   21.3562 C   0  0  0  0  0  0  0  0  0  0  0  0
  -25.4338  -11.5573   22.0488 C   0  0  0  0  0  0  0  0  0  0  0  0
  -21.7675  -29.7645   23.1710 C   0  0  0  0  0  0  0  0  0  0  0  0
  -24.3396  -30.9695   24.7376 C   0  0  0  0  0  0  0  0  0  0  0  0
  -27.7357  -31.1447   25.0261 C   0  0  0  0  0  0  0  0  0  0  0  0
  -23.1110  -19.3755   20.3545 C   0  0  0  0  0  0  0  0  0  0  0  0
  -16.7680  -29.2275   24.0511 C   0  0  0  0  0  0  0  0  0  0  0  0
  -23.0807  -27.6705   23.6677 C   0  0  0  0  0  0  0  0  0  0  0  0
  -29.9936  -20.5462   18.9488 C   0  0  0  0  0  0  0  0  0  0  0  0
  -24.7968  -29.8026   22.5480 C   0  0  0  0  0  0  0  0  0  0  0  0
  -17.8665  -30.1710   24.5343 C   0  0  0  0  0  0  0  0  0  0  0  0
  -29.9167  -19.5214   20.0895 C   0  0  0  0  0  0  0  0  0  0  0  0
  -21.6019  -16.6258   18.6697 C   0  0  0  0  0  0  0  0  0  0  0  0
  -18.6616  -30.7147   23.3515 C   0  0  0  0  0  0  0  0  0  0  0  0
  -22.5073  -15.4427   19.0167 C   0  0  0  0  0  0  0  0  0  0  0  0
  -27.4742  -25.3319   17.5896 C   0  0  0  0  0  0  0  0  0  0  0  0
  -22.4018  -17.9134   18.4848 C   0  0  0  0  0  0  0  0  0  0  0  0
  -24.1901  -17.0784   19.9607 C   0  0  0  0  0  0  0  0  0  0  0  0
  -27.6330  -25.0364   19.0627 C   0  0  1  0  0  0  0  0  0  0  0  0
  -28.4695  -19.5722   20.6232 C   0  0  1  0  0  0  0  0  0  0  0  0
  -19.3560  -29.5819   22.5861 C   0  0  1  0  0  0  0  0  0  0  0  0
  -22.8542  -29.1418   24.0012 C   0  0  1  0  0  0  0  0  0  0  0  0
  -23.4229  -15.7689   20.2118 C   0  0  2  0  0  0  0  0  0  0  0  0
  -26.2949  -25.4680   18.5035 C   0  0  1  0  0  0  0  0  0  1  0  0
  -29.5439  -32.2409   26.3774 C   0  0  0  0  0  0  0  0  0  0  0  0
  -28.7141  -17.6529   22.2217 C   0  0  0  0  0  0  0  0  0  0  0  0
  -29.3028  -19.9809   22.9548 C   0  0  0  0  0  0  0  0  0  0  0  0
  -23.8666  -33.5871   23.2428 C   0  0  0  0  0  0  0  0  0  0  0  0
  -26.1827  -34.2902   23.8826 C   0  0  0  0  0  0  0  0  0  0  0  0
  -24.4788  -33.8578   25.6524 C   0  0  0  0  0  0  0  0  0  0  0  0
  -28.7763  -28.5374   25.9634 C   0  0  0  0  0  0  0  0  0  0  0  0
  -23.9189  -20.7192   22.2783 C   0  0  0  0  0  0  0  0  0  0  0  0
  -24.8820  -21.7792   21.7745 C   0  0  0  0  0  0  0  0  0  0  0  0
  -25.4658  -31.9090   24.3796 C   0  0  1  0  0  0  0  0  0  0  0  0
  -28.6522  -31.0178   26.2296 C   0  0  2  0  0  0  0  0  0  0  0  0
  -28.3776  -19.1372   22.0778 C   0  0  0  0  0  0  0  0  0  0  0  0
  -24.9941  -33.3868   24.2750 C   0  0  0  0  0  0  0  0  0  0  0  0
  -25.5753  -14.5886   19.9739 N   0  0  0  0  0  0  0  0  0  0  0  0
  -24.3543  -14.6152   20.5347 N   0  0  0  0  0  0  0  0  0  0  0  0
  -24.0563  -29.9561   23.8111 N   0  0  0  0  0  0  0  0  0  0  0  0
  -23.2481  -18.1660   19.6535 N   0  0  0  0  0  0  0  0  0  0  0  0
  -22.9229  -13.4267   22.0007 N   0  0  0  0  0  0  0  0  0  0  0  0
  -26.6589  -10.8910   21.9096 N   0  0  0  0  0  0  0  0  0  0  0  0
  -20.5392  -29.1438   23.2951 N   0  0  0  0  0  0  0  0  0  0  0  0
  -26.5143  -31.6851   25.3690 N   0  0  0  0  0  0  0  0  0  0  0  0
  -23.9468  -19.5319   21.4535 N   0  0  0  0  0  0  0  0  0  0  0  0
  -29.5222  -29.8155   26.0937 N   0  3  0  0  0  0  0  0  0  0  0  0
  -24.5436  -11.0594   22.7790 O   0  0  0  0  0  0  0  0  0  0  0  0
  -22.0241  -30.7369   22.4709 O   0  0  0  0  0  0  0  0  0  0  0  0
  -23.7384  -31.1247   25.8035 O   0  0  0  0  0  0  0  0  0  0  0  0
  -28.0711  -30.8023   23.8944 O   0  0  0  0  0  0  0  0  0  0  0  0
  -22.2998  -20.2488   20.0285 O   0  0  0  0  0  0  0  0  0  0  0  0
  -31.2940  -11.9589   19.0094 O   0  0  0  0  0  0  0  0  0  0  0  0
  -25.8827  -26.8303   18.8164 O   0  0  0  0  0  0  0  0  0  1  0  0
  -26.2122  -21.2590   21.7934 O   0  0  0  0  0  0  0  0  0  0  0  0
  -34.6707  -10.2298   23.0109 F   0  0  0  0  0  0  0  0  0  0  0  0
  -33.6673  -13.2772   19.5307 F   0  0  0  0  0  0  0  0  0  0  0  0
  1  2  1  0  0  0  0
  1  5  2  0  0  0  0
  2  6  2  0  0  0  0
  3  8  2  0  0  0  0
  3 17  1  0  0  0  0
  4  9  1  0  0  0  0
  4 17  2  0  0  0  0
  5 19  1  0  0  0  0
  6 21  1  0  0  0  0
  7 10  2  0  0  0  0
  7 20  1  0  0  0  0
  8 26  1  0  0  0  0
  9 26  2  0  0  0  0
 10 27  1  0  0  0  0
 11 12  2  0  0  0  0
 11 28  1  0  0  0  0
 12 30  1  0  0  0  0
 13 22  1  0  0  0  0
 13 23  2  0  0  0  0
 14 22  2  0  0  0  0
 14 29  1  0  0  0  0
 15 24  1  0  0  0  0
 15 27  2  0  0  0  0
 16 30  2  0  0  0  0
 16 31  1  0  0  0  0
 17 32  1  0  0  0  0
 18 32  1  0  0  0  0
 18 33  2  0  0  0  0
 18 34  1  0  0  0  0
 19 21  2  0  0  0  0
 19 39  1  0  0  0  0
 20 24  2  0  0  0  0
 20 40  1  0  0  0  0
 21 53  1  0  0  0  0
 22 51  1  0  0  0  0
 23 25  1  0  0  0  0
 23 41  1  0  0  0  0
 24 42  1  0  0  0  0
 25 29  2  0  0  0  0
 25 52  1  0  0  0  0
 26 85  1  0  0  0  0
 27 86  1  0  0  0  0
 28 31  2  0  0  0  0
 28 85  1  0  0  0  0
 29 87  1  0  0  0  0
 30 88  1  0  0  0  0
 31 89  1  0  0  0  0
 32 70  2  0  0  0  0
 33 71  1  0  0  0  0
 33 74  1  0  0  0  0
 34 75  1  0  0  0  0
 34 80  2  0  0  0  0
 35 54  1  0  0  0  0
 35 76  1  0  0  0  0
 35 81  2  0  0  0  0
 36 66  1  0  0  0  0
 36 72  1  0  0  0  0
 36 82  2  0  0  0  0
 37 67  1  0  0  0  0
 37 77  1  0  0  0  0
 37 83  2  0  0  0  0
 38 73  1  0  0  0  0
 38 78  1  0  0  0  0
 38 84  2  0  0  0  0
 39 43  1  0  0  0  0
 40 54  1  0  0  0  0
 41 44  1  0  0  0  0
 42 72  1  0  0  0  0
 43 46  1  0  0  0  0
 44 52  1  0  0  0  0
 45 47  1  0  0  0  0
 45 49  1  0  0  0  0
 46 53  1  0  0  0  0
 47 55  1  0  0  0  0
 48 51  1  0  0  0  0
 48 56  1  0  0  0  0
 49 73  1  0  0  0  0
 50 55  1  0  0  0  0
 50 73  1  0  0  0  0
 51 56  1  0  0  0  0
 52 68  1  0  0  0  0
 53 76  1  0  0  0  0
 54 72  1  0  0  0  0
 55 71  1  0  0  0  0
 56 86  1  0  0  0  0
 57 67  1  0  0  0  0
 58 68  1  0  0  0  0
 59 68  1  0  0  0  0
 60 69  1  0  0  0  0
 61 69  1  0  0  0  0
 62 69  1  0  0  0  0
 63 79  1  0  0  0  0
 64 65  1  0  0  0  0
 64 78  1  0  0  0  0
 65 87  1  0  0  0  0
 66 69  1  0  0  0  0
 66 77  1  0  0  0  0
 67 79  1  0  0  0  0
 70 71  1  0  0  0  0
M  CHG  1  79   1
M  ISO  4  38 100  56 101  78 100  86 101
M  END
> <Batch ID>
0150

> <Smiles>
CNC(C)C(=O)NC(C(=O)N1Cc2cc([101O:1][101CH:1]3CC3c3cc4c(c(OCC[100NH:0][100C:0](=O)N5CCCC(n6nc(-c7ccc(Oc8ccc(F)cc8F)cc7)c(C(N)=O)c6N)C5)c3)C(C(C)C)CC4)ccc2CC1C(=O)NC1CCCc2ccccc21)C(C)(C)C

> <Shape>
0.304

> <Color>
0.060

> <Negative vol penalty>
0.000

$$$$

  -OEChem-04052321413D

 88 97  0     1  0  0  0  0  0999 V2000
  -28.4241  -37.9297   21.3148 C   0  0  0  0  0  0  0  0  0  0  0  0
  -28.8415  -36.6554   20.9444 C   0  0  0  0  0  0  0  0  0  0  0  0
  -22.2641  -13.1571   21.9820 C   0  0  0  0  0  0  0  0  0  0  0  0
  -22.4396  -14.1015   19.7652 C   0  0  0  0  0  0  0  0  0  0  0  0
  -27.4728  -38.0850   22.3223 C   0  0  0  0  0  0  0  0  0  0  0  0
  -28.3088  -35.5356   21.5821 C   0  0  0  0  0  0  0  0  0  0  0  0
  -27.1625  -30.0678   19.0729 C   0  0  0  0  0  0  0  0  0  0  0  0
  -20.9918  -13.7123   22.1179 C   0  0  0  0  0  0  0  0  0  0  0  0
  -21.1672  -14.6567   19.9010 C   0  0  0  0  0  0  0  0  0  0  0  0
  -27.8759  -28.8700   19.0678 C   0  0  0  0  0  0  0  0  0  0  0  0
  -17.8479  -13.0180   21.0850 C   0  0  0  0  0  0  0  0  0  0  0  0
  -16.8405  -12.2092   21.6108 C   0  0  0  0  0  0  0  0  0  0  0  0
  -26.5622  -28.0865   20.9331 C   0  0  0  0  0  0  0  0  0  0  0  0
  -27.1783  -20.8174   20.0033 C   0  0  0  0  0  0  0  0  0  0  0  0
  -16.5407  -13.7671   23.4329 C   0  0  0  0  0  0  0  0  0  0  0  0
  -29.2226  -20.8250   18.1960 C   0  0  0  0  0  0  0  0  0  0  0  0
  -22.9881  -13.3517   20.8057 C   0  0  0  0  0  0  0  0  0  0  0  0
  -24.6262  -11.5095   20.1496 C   0  0  0  0  0  0  0  0  0  0  0  0
  -26.9210  -36.9661   22.9660 C   0  0  0  0  0  0  0  0  0  0  0  0
  -26.1492  -30.2887   20.0168 C   0  0  0  0  0  0  0  0  0  0  0  0
  -27.3503  -35.6761   22.6000 C   0  0  0  0  0  0  0  0  0  0  0  0
  -25.8357  -29.2870   20.9465 C   0  0  0  0  0  0  0  0  0  0  0  0
  -27.5919  -19.6171   19.4362 C   0  0  0  0  0  0  0  0  0  0  0  0
  -20.4433  -14.4620   21.0774 C   0  0  0  0  0  0  0  0  0  0  0  0
  -27.5778  -27.8803   19.9998 C   0  0  0  0  0  0  0  0  0  0  0  0
  -18.2018  -14.2014   21.7332 C   0  0  0  0  0  0  0  0  0  0  0  0
  -28.6329  -19.6124   18.5145 C   0  0  0  0  0  0  0  0  0  0  0  0
  -16.1869  -12.5837   22.7847 C   0  0  0  0  0  0  0  0  0  0  0  0
  -17.5482  -14.5759   22.9071 C   0  0  0  0  0  0  0  0  0  0  0  0
  -24.3027  -12.7790   20.6650 C   0  0  0  0  0  0  0  0  0  0  0  0
  -27.8333  -21.9761   19.6183 C   0  0  0  0  0  0  0  0  0  0  0  0
  -25.9959  -11.4453   20.2297 C   0  0  0  0  0  0  0  0  0  0  0  0
  -23.7656  -10.4805   19.6436 C   0  0  0  0  0  0  0  0  0  0  0  0
  -25.6834  -32.3873   22.3583 C   0  0  0  0  0  0  0  0  0  0  0  0
  -22.7833  -30.9464   22.5458 C   0  0  0  0  0  0  0  0  0  0  0  0
  -20.8823  -28.1738   21.9578 C   0  0  0  0  0  0  0  0  0  0  0  0
  -30.2750  -15.6321   20.3358 C   0  0  0  0  0  0  0  0  0  0  0  0
  -25.9305  -37.1858   24.0819 C   0  0  0  0  0  0  0  0  0  0  0  0
  -25.3708  -31.5756   19.9920 C   0  0  0  0  0  0  0  0  0  0  0  0
  -24.7433  -29.4667   21.9677 C   0  0  0  0  0  0  0  0  0  0  0  0
  -25.1392  -35.9332   24.4493 C   0  0  0  0  0  0  0  0  0  0  0  0
  -29.6798  -13.1167   22.7843 C   0  0  0  0  0  0  0  0  0  0  0  0
  -26.0707  -34.7323   24.5794 C   0  0  0  0  0  0  0  0  0  0  0  0
  -24.9845  -17.9416   18.0683 C   0  0  0  0  0  0  0  0  0  0  0  0
  -24.6946  -17.0419   19.2372 C   0  0  0  0  0  0  0  0  0  0  0  0
  -28.2634  -12.6304   22.4723 C   0  0  0  0  0  0  0  0  0  0  0  0
  -29.8249  -14.6189   22.5510 C   0  0  0  0  0  0  0  0  0  0  0  0
  -27.9946  -14.5943   20.9009 C   0  0  0  0  0  0  0  0  0  0  0  0
  -26.7775  -34.4359   23.2511 C   0  0  1  0  0  0  0  0  0  0  0  0
  -24.7065  -31.8978   21.3270 C   0  0  1  0  0  0  0  0  0  0  0  0
  -25.4169  -18.3431   19.4512 C   0  0  0  0  0  0  0  0  0  0  0  0
  -27.8144  -13.0757   21.0676 C   0  0  2  0  0  0  0  0  0  0  0  0
  -27.0747  -18.0290   21.3243 C   0  0  0  0  0  0  0  0  0  0  0  0
  -18.5556  -27.2815   22.2541 C   0  0  0  0  0  0  0  0  0  0  0  0
  -23.3313  -30.5105   25.5156 C   0  0  0  0  0  0  0  0  0  0  0  0
  -21.4762  -28.8293   25.5398 C   0  0  0  0  0  0  0  0  0  0  0  0
  -20.9914  -31.2110   24.9784 C   0  0  0  0  0  0  0  0  0  0  0  0
  -20.5153  -27.8367   19.0405 C   0  0  0  0  0  0  0  0  0  0  0  0
  -30.5781  -16.5959   18.0690 C   0  0  0  0  0  0  0  0  0  0  0  0
  -30.4357  -18.1054   18.1477 C   0  0  0  0  0  0  0  0  0  0  0  0
  -27.5840  -25.5445   20.4468 C   0  0  0  0  0  0  0  0  0  1  0  0
  -28.1485  -24.3304   19.7349 C   0  0  0  0  0  0  0  0  0  0  0  0
  -26.9105  -18.3479   19.8266 C   0  0  2  0  0  0  0  0  0  0  0  0
  -22.2217  -29.7689   23.3054 C   0  0  1  0  0  0  0  0  0  0  0  0
  -19.5138  -28.0070   21.3223 C   0  0  2  0  0  0  0  0  0  0  0  0
  -22.0271  -30.0770   24.8169 C   0  0  0  0  0  0  0  0  0  0  0  0
  -28.8483  -22.0110   18.7260 N   0  0  0  0  0  0  0  0  0  0  0  0
  -25.3801  -13.4712   21.0447 N   0  0  0  0  0  0  0  0  0  0  0  0
  -26.3940  -12.6337   20.7677 N   0  0  0  0  0  0  0  0  0  0  0  0
  -24.0151  -30.7448   21.9071 N   0  0  0  0  0  0  0  0  0  0  0  0
  -29.3839  -14.9750   21.2003 N   0  0  0  0  0  0  0  0  0  0  0  0
  -26.8865  -10.4887   19.8919 N   0  0  0  0  0  0  0  0  0  0  0  0
  -22.3832  -10.7109   19.6331 N   0  0  0  0  0  0  0  0  0  0  0  0
  -25.8804  -33.7549   22.3423 N   0  0  0  0  0  0  0  0  0  0  0  0
  -20.9977  -29.3820   22.6121 N   0  0  0  0  0  0  0  0  0  0  0  0
  -29.7791  -15.9275   19.0718 N   0  0  0  0  0  0  0  0  0  0  0  0
  -19.6216  -27.2257   20.0578 N   0  3  0  0  0  0  0  0  0  0  0  0
  -24.2082   -9.3825   19.2286 O   0  0  0  0  0  0  0  0  0  0  0  0
  -26.2178  -31.5838   23.1137 O   0  0  0  0  0  0  0  0  0  0  0  0
  -22.1489  -32.0038   22.5141 O   0  0  0  0  0  0  0  0  0  0  0  0
  -21.7597  -27.3163   21.8845 O   0  0  0  0  0  0  0  0  0  0  0  0
  -31.4289  -15.9283   20.6641 O   0  0  0  0  0  0  0  0  0  0  0  0
  -19.2017  -15.0037   21.2094 O   0  0  0  0  0  0  0  0  0  0  0  0
  -28.2730  -26.7105   19.9974 O   0  0  0  0  0  0  0  0  0  1  0  0
  -29.0694  -18.4647   17.9360 O   0  0  0  0  0  0  0  0  0  0  0  0
  -27.4442  -23.1713   20.1635 O   0  0  0  0  0  0  0  0  0  0  0  0
  -15.2184  -11.8077   23.2887 F   0  0  0  0  0  0  0  0  0  0  0  0
  -17.8830  -15.7122   23.5336 F   0  0  0  0  0  0  0  0  0  0  0  0
  1  2  1  0  0  0  0
  1  5  2  0  0  0  0
  2  6  2  0  0  0  0
  3  8  2  0  0  0  0
  3 17  1  0  0  0  0
  4  9  1  0  0  0  0
  4 17  2  0  0  0  0
  5 19  1  0  0  0  0
  6 21  1  0  0  0  0
  7 10  2  0  0  0  0
  7 20  1  0  0  0  0
  8 24  1  0  0  0  0
  9 24  2  0  0  0  0
 10 25  1  0  0  0  0
 11 12  2  0  0  0  0
 11 26  1  0  0  0  0
 12 28  1  0  0  0  0
 13 22  1  0  0  0  0
 13 25  2  0  0  0  0
 14 23  2  0  0  0  0
 14 31  1  0  0  0  0
 15 28  2  0  0  0  0
 15 29  1  0  0  0  0
 16 27  2  0  0  0  0
 16 67  1  0  0  0  0
 17 30  1  0  0  0  0
 18 30  1  0  0  0  0
 18 32  2  0  0  0  0
 18 33  1  0  0  0  0
 19 21  2  0  0  0  0
 19 38  1  0  0  0  0
 20 22  2  0  0  0  0
 20 39  1  0  0  0  0
 21 49  1  0  0  0  0
 22 40  1  0  0  0  0
 23 27  1  0  0  0  0
 23 63  1  0  0  0  0
 24 83  1  0  0  0  0
 25 84  1  0  0  0  0
 26 29  2  0  0  0  0
 26 83  1  0  0  0  0
 27 85  1  0  0  0  0
 28 87  1  0  0  0  0
 29 88  1  0  0  0  0
 30 68  2  0  0  0  0
 31 67  2  0  0  0  0
 31 86  1  0  0  0  0
 32 69  1  0  0  0  0
 32 72  1  0  0  0  0
 33 73  1  0  0  0  0
 33 78  2  0  0  0  0
 34 50  1  0  0  0  0
 34 74  1  0  0  0  0
 34 79  2  0  0  0  0
 35 64  1  0  0  0  0
 35 70  1  0  0  0  0
 35 80  2  0  0  0  0
 36 65  1  0  0  0  0
 36 75  1  0  0  0  0
 36 81  2  0  0  0  0
 37 71  1  0  0  0  0
 37 76  1  0  0  0  0
 37 82  2  0  0  0  0
 38 41  1  0  0  0  0
 39 50  1  0  0  0  0
 40 70  1  0  0  0  0
 41 43  1  0  0  0  0
 42 46  1  0  0  0  0
 42 47  1  0  0  0  0
 43 49  1  0  0  0  0
 44 45  1  0  0  0  0
 44 51  1  0  0  0  0
 45 51  1  0  0  0  0
 46 52  1  0  0  0  0
 47 71  1  0  0  0  0
 48 52  1  0  0  0  0
 48 71  1  0  0  0  0
 49 74  1  0  0  0  0
 50 70  1  0  0  0  0
 51 63  1  0  0  0  0
 52 69  1  0  0  0  0
 53 63  1  0  0  0  0
 54 65  1  0  0  0  0
 55 66  1  0  0  0  0
 56 66  1  0  0  0  0
 57 66  1  0  0  0  0
 58 77  1  0  0  0  0
 59 60  1  0  0  0  0
 59 76  1  0  0  0  0
 60 85  1  0  0  0  0
 61 62  1  0  0  0  0
 61 84  1  0  0  0  0
 62 86  1  0  0  0  0
 64 66  1  0  0  0  0
 64 75  1  0  0  0  0
 65 77  1  0  0  0  0
 68 69  1  0  0  0  0
M  CHG  1  77   1
M  ISO  4  37 100  61 101  76 100  84 101
M  END
> <Batch ID>
0150

> <Smiles>
CNC(C)C(=O)NC(C(=O)N1Cc2cc([101O:1][101CH2:1]COc3cc(C(C)C4CC4)c(OCC[100NH:0][100C:0](=O)N4CCCC(n5nc(-c6ccc(Oc7ccc(F)cc7F)cc6)c(C(N)=O)c5N)C4)cn3)ccc2CC1C(=O)NC1CCCc2ccccc21)C(C)(C)C

> <Shape>
0.286

> <Color>
0.081

> <Negative vol penalty>
0.000

$$$$

  -OEChem-04052321413D

 90 99  0     1  0  0  0  0  0999 V2000
  -26.2891  -38.7846   22.5709 C   0  0  0  0  0  0  0  0  0  0  0  0
  -26.7686  -37.4929   22.3783 C   0  0  0  0  0  0  0  0  0  0  0  0
  -23.3686  -10.6031   23.0482 C   0  0  0  0  0  0  0  0  0  0  0  0
  -24.3691  -12.5580   24.0554 C   0  0  0  0  0  0  0  0  0  0  0  0
  -29.6784  -23.5130   21.4369 C   0  0  0  0  0  0  0  0  0  0  0  0
  -25.0946  -38.9879   23.2607 C   0  0  0  0  0  0  0  0  0  0  0  0
  -26.0544  -36.4038   22.8765 C   0  0  0  0  0  0  0  0  0  0  0  0
  -25.6923  -32.6223   19.5278 C   0  0  0  0  0  0  0  0  0  0  0  0
  -29.6575  -22.1184   21.4411 C   0  0  0  0  0  0  0  0  0  0  0  0
  -22.8017  -10.2607   24.2758 C   0  0  0  0  0  0  0  0  0  0  0  0
  -23.8022  -12.2156   25.2830 C   0  0  0  0  0  0  0  0  0  0  0  0
  -26.8106  -31.8057   19.3661 C   0  0  0  0  0  0  0  0  0  0  0  0
  -20.1488  -11.2088   26.1455 C   0  0  0  0  0  0  0  0  0  0  0  0
  -18.8118  -10.8114   26.1538 C   0  0  0  0  0  0  0  0  0  0  0  0
  -25.7974  -30.1456   20.7932 C   0  0  0  0  0  0  0  0  0  0  0  0
  -31.4677  -22.0863   19.8414 C   0  0  0  0  0  0  0  0  0  0  0  0
  -19.4541   -8.6700   27.0699 C   0  0  0  0  0  0  0  0  0  0  0  0
  -24.1523  -11.7518   22.9380 C   0  0  0  0  0  0  0  0  0  0  0  0
  -30.5939  -24.1944   20.6348 C   0  0  0  0  0  0  0  0  0  0  0  0
  -24.0610  -12.3793   20.4670 C   0  0  0  0  0  0  0  0  0  0  0  0
  -24.3605  -37.9002   23.7591 C   0  0  0  0  0  0  0  0  0  0  0  0
  -24.6209  -32.2107   20.3335 C   0  0  0  0  0  0  0  0  0  0  0  0
  -24.8496  -36.5929   23.5748 C   0  0  0  0  0  0  0  0  0  0  0  0
  -24.6654  -30.9577   20.9614 C   0  0  0  0  0  0  0  0  0  0  0  0
  -30.5521  -21.4050   20.6434 C   0  0  0  0  0  0  0  0  0  0  0  0
  -23.0185  -11.0670   25.3932 C   0  0  0  0  0  0  0  0  0  0  0  0
  -26.8646  -30.5684   20.0012 C   0  0  0  0  0  0  0  0  0  0  0  0
  -21.1385  -10.3369   26.5993 C   0  0  0  0  0  0  0  0  0  0  0  0
  -31.4886  -23.4810   19.8371 C   0  0  0  0  0  0  0  0  0  0  0  0
  -18.4645   -9.5420   26.6160 C   0  0  0  0  0  0  0  0  0  0  0  0
  -20.7911   -9.0675   27.0616 C   0  0  0  0  0  0  0  0  0  0  0  0
  -24.7387  -12.1057   21.6703 C   0  0  0  0  0  0  0  0  0  0  0  0
  -25.0596  -12.6602   19.5668 C   0  0  0  0  0  0  0  0  0  0  0  0
  -30.5998  -25.6871   20.6462 C   0  0  0  0  0  0  0  0  0  0  0  0
  -22.6547  -12.3796   20.1881 C   0  0  0  0  0  0  0  0  0  0  0  0
  -23.2536  -33.3134   22.9827 C   0  0  0  0  0  0  0  0  0  0  0  0
  -21.1253  -30.9335   22.4090 C   0  0  0  0  0  0  0  0  0  0  0  0
  -19.4435  -28.1275   21.4370 C   0  0  0  0  0  0  0  0  0  0  0  0
  -30.6569  -14.6935   20.1891 C   0  0  0  0  0  0  0  0  0  0  0  0
  -23.0989  -38.1724   24.5394 C   0  0  0  0  0  0  0  0  0  0  0  0
  -23.4101  -33.0916   20.4763 C   0  0  0  0  0  0  0  0  0  0  0  0
  -23.5327  -30.4606   21.8207 C   0  0  0  0  0  0  0  0  0  0  0  0
  -22.2107  -36.9426   24.7097 C   0  0  0  0  0  0  0  0  0  0  0  0
  -29.6426  -11.6598   18.6255 C   0  0  0  0  0  0  0  0  0  0  0  0
  -23.0426  -35.7388   25.1403 C   0  0  0  0  0  0  0  0  0  0  0  0
  -28.2097  -11.4548   19.1200 C   0  0  0  0  0  0  0  0  0  0  0  0
  -30.3224  -17.8719   19.4289 C   0  0  0  0  0  0  0  0  0  0  0  0
  -30.1532  -17.9288   21.9261 C   0  0  0  0  0  0  0  0  0  0  0  0
  -30.5320  -12.2666   19.7086 C   0  0  0  0  0  0  0  0  0  0  0  0
  -30.9270  -19.2759   19.4389 C   0  0  0  0  0  0  0  0  0  0  0  0
  -30.7633  -19.3297   21.9324 C   0  0  0  0  0  0  0  0  0  0  0  0
  -28.5836  -13.3070   20.8017 C   0  0  0  0  0  0  0  0  0  0  0  0
  -24.0908  -35.3844   24.0786 C   0  0  1  0  0  0  0  0  0  0  0  0
  -22.5994  -32.7938   21.7338 C   0  0  1  0  0  0  0  0  0  0  0  0
  -27.6352  -12.7491   19.7267 C   0  0  2  0  0  0  0  0  0  0  0  0
  -30.6269  -17.1173   20.7215 C   0  0  0  0  0  0  0  0  0  0  0  0
  -17.5079  -26.6675   22.0844 C   0  0  0  0  0  0  0  0  0  0  0  0
  -22.7966  -29.7172   24.6534 C   0  0  0  0  0  0  0  0  0  0  0  0
  -21.2744  -27.7298   24.6156 C   0  0  0  0  0  0  0  0  0  0  0  0
  -20.3678  -29.9823   25.1875 C   0  0  0  0  0  0  0  0  0  0  0  0
  -18.0393  -28.6596   18.8867 C   0  0  0  0  0  0  0  0  0  0  0  0
  -31.9778  -24.4461   17.7193 C   0  0  0  0  0  0  0  0  0  0  0  0
  -29.2949  -26.4206   20.9176 C   0  0  0  0  0  0  0  0  0  0  0  0
  -29.2331  -27.7714   20.2075 C   0  0  0  0  0  0  0  0  0  0  0  0
  -27.9437  -28.5149   20.5251 C   0  0  0  0  0  0  0  0  0  1  0  0
  -21.0184  -29.4785   22.7969 C   0  0  1  0  0  0  0  0  0  0  0  0
  -17.9619  -27.8552   21.2501 C   0  0  2  0  0  0  0  0  0  0  0  0
  -21.3781  -29.2351   24.2898 C   0  0  0  0  0  0  0  0  0  0  0  0
  -26.0652  -12.2037   21.5488 N   0  0  0  0  0  0  0  0  0  0  0  0
  -26.2291  -12.5420   20.2585 N   0  0  0  0  0  0  0  0  0  0  0  0
  -30.5317  -20.0045   20.6485 N   0  0  0  0  0  0  0  0  0  0  0  0
  -22.3735  -31.3610   21.9345 N   0  0  0  0  0  0  0  0  0  0  0  0
  -29.9313  -13.4919   20.2412 N   0  0  0  0  0  0  0  0  0  0  0  0
  -25.0426  -12.9942   18.2589 N   0  0  0  0  0  0  0  0  0  0  0  0
  -21.7673  -12.0689   21.2274 N   0  0  0  0  0  0  0  0  0  0  0  0
  -23.4746  -34.6774   22.9763 N   0  0  0  0  0  0  0  0  0  0  0  0
  -19.6708  -29.0564   22.4304 N   0  0  0  0  0  0  0  0  0  0  0  0
  -30.0119  -15.8088   20.7096 N   0  0  0  0  0  0  0  0  0  0  0  0
  -17.6650  -27.5650   19.8188 N   0  3  0  0  0  0  0  0  0  0  0  0
  -31.6532  -26.2845   20.4378 O   0  0  0  0  0  0  0  0  0  0  0  0
  -22.1993  -12.6315   19.0467 O   0  0  0  0  0  0  0  0  0  0  0  0
  -23.5354  -32.5347   23.8859 O   0  0  0  0  0  0  0  0  0  0  0  0
  -20.1358  -31.6622   22.5162 O   0  0  0  0  0  0  0  0  0  0  0  0
  -20.3126  -27.5692   20.7710 O   0  0  0  0  0  0  0  0  0  0  0  0
  -31.7931  -14.7681   19.7091 O   0  0  0  0  0  0  0  0  0  0  0  0
  -22.4653  -10.7333   26.5912 O   0  0  0  0  0  0  0  0  0  0  0  0
  -32.3905  -24.1287   19.0468 O   0  0  0  0  0  0  0  0  0  0  0  0
  -27.9553  -29.7697   19.8456 O   0  0  0  0  0  0  0  0  0  1  0  0
  -17.1804   -9.1610   26.6254 F   0  0  0  0  0  0  0  0  0  0  0  0
  -21.7374   -8.2259   27.4999 F   0  0  0  0  0  0  0  0  0  0  0  0
  1  2  1  0  0  0  0
  1  6  2  0  0  0  0
  2  7  2  0  0  0  0
  3 10  2  0  0  0  0
  3 18  1  0  0  0  0
  4 11  1  0  0  0  0
  4 18  2  0  0  0  0
  5  9  2  0  0  0  0
  5 19  1  0  0  0  0
  6 21  1  0  0  0  0
  7 23  1  0  0  0  0
  8 12  2  0  0  0  0
  8 22  1  0  0  0  0
  9 25  1  0  0  0  0
 10 26  1  0  0  0  0
 11 26  2  0  0  0  0
 12 27  1  0  0  0  0
 13 14  2  0  0  0  0
 13 28  1  0  0  0  0
 14 30  1  0  0  0  0
 15 24  1  0  0  0  0
 15 27  2  0  0  0  0
 16 25  2  0  0  0  0
 16 29  1  0  0  0  0
 17 30  2  0  0  0  0
 17 31  1  0  0  0  0
 18 32  1  0  0  0  0
 19 29  2  0  0  0  0
 19 34  1  0  0  0  0
 20 32  1  0  0  0  0
 20 33  2  0  0  0  0
 20 35  1  0  0  0  0
 21 23  2  0  0  0  0
 21 40  1  0  0  0  0
 22 24  2  0  0  0  0
 22 41  1  0  0  0  0
 23 53  1  0  0  0  0
 24 42  1  0  0  0  0
 25 71  1  0  0  0  0
 26 86  1  0  0  0  0
 27 88  1  0  0  0  0
 28 31  2  0  0  0  0
 28 86  1  0  0  0  0
 29 87  1  0  0  0  0
 30 89  1  0  0  0  0
 31 90  1  0  0  0  0
 32 69  2  0  0  0  0
 33 70  1  0  0  0  0
 33 74  1  0  0  0  0
 34 63  1  0  0  0  0
 34 80  2  0  0  0  0
 35 75  1  0  0  0  0
 35 81  2  0  0  0  0
 36 54  1  0  0  0  0
 36 76  1  0  0  0  0
 36 82  2  0  0  0  0
 37 66  1  0  0  0  0
 37 72  1  0  0  0  0
 37 83  2  0  0  0  0
 38 67  1  0  0  0  0
 38 77  1  0  0  0  0
 38 84  2  0  0  0  0
 39 73  1  0  0  0  0
 39 78  1  0  0  0  0
 39 85  2  0  0  0  0
 40 43  1  0  0  0  0
 41 54  1  0  0  0  0
 42 72  1  0  0  0  0
 43 45  1  0  0  0  0
 44 46  1  0  0  0  0
 44 49  1  0  0  0  0
 45 53  1  0  0  0  0
 46 55  1  0  0  0  0
 47 50  1  0  0  0  0
 47 56  1  0  0  0  0
 48 51  1  0  0  0  0
 48 56  1  0  0  0  0
 49 73  1  0  0  0  0
 50 71  1  0  0  0  0
 51 71  1  0  0  0  0
 52 55  1  0  0  0  0
 52 73  1  0  0  0  0
 53 76  1  0  0  0  0
 54 72  1  0  0  0  0
 55 70  1  0  0  0  0
 56 78  1  0  0  0  0
 57 67  1  0  0  0  0
 58 68  1  0  0  0  0
 59 68  1  0  0  0  0
 60 68  1  0  0  0  0
 61 79  1  0  0  0  0
 62 87  1  0  0  0  0
 63 64  1  0  0  0  0
 64 65  1  0  0  0  0
 65 88  1  0  0  0  0
 66 68  1  0  0  0  0
 66 77  1  0  0  0  0
 67 79  1  0  0  0  0
 69 70  1  0  0  0  0
M  CHG  1  79   1
M  ISO  4  39 100  65 101  78 100  88 101
M  END
> <Batch ID>
0150

> <Smiles>
CNC(C)C(=O)NC(C(=O)N1Cc2cc([101O:1][101CH2:1]CCC(=O)c3ccc(N4CCC([100NH:0][100C:0](=O)N5CCCC(n6nc(-c7ccc(Oc8ccc(F)cc8F)cc7)c(C(N)=O)c6N)C5)CC4)cc3OC)ccc2CC1C(=O)NC1CCCc2ccccc21)C(C)(C)C

> <Shape>
0.285

> <Color>
0.082

> <Negative vol penalty>
0.000

$$$$

  -OEChem-04052321413D

 88 97  0     1  0  0  0  0  0999 V2000
  -28.6535  -36.2952   24.3684 C   0  0  0  0  0  0  0  0  0  0  0  0
  -28.9313  -34.9911   23.9715 C   0  0  0  0  0  0  0  0  0  0  0  0
  -23.6943  -10.5197   22.5286 C   0  0  0  0  0  0  0  0  0  0  0  0
  -24.4630   -8.6801   21.1641 C   0  0  0  0  0  0  0  0  0  0  0  0
  -27.3677  -36.6369   24.7853 C   0  0  0  0  0  0  0  0  0  0  0  0
  -27.9235  -34.0276   23.9922 C   0  0  0  0  0  0  0  0  0  0  0  0
  -27.1962  -29.3762   20.0754 C   0  0  0  0  0  0  0  0  0  0  0  0
  -22.5547   -9.7911   22.8690 C   0  0  0  0  0  0  0  0  0  0  0  0
  -23.3233   -7.9514   21.5045 C   0  0  0  0  0  0  0  0  0  0  0  0
  -27.5377  -28.0264   20.1483 C   0  0  0  0  0  0  0  0  0  0  0  0
  -20.7916   -5.4667   22.3013 C   0  0  0  0  0  0  0  0  0  0  0  0
  -20.9585   -4.1275   22.6537 C   0  0  0  0  0  0  0  0  0  0  0  0
  -27.8142  -21.6914   19.7257 C   0  0  0  0  0  0  0  0  0  0  0  0
  -25.3035  -27.5078   20.8959 C   0  0  0  0  0  0  0  0  0  0  0  0
  -29.3838  -23.4237   21.2483 C   0  0  0  0  0  0  0  0  0  0  0  0
  -22.3913   -4.7876   24.4836 C   0  0  0  0  0  0  0  0  0  0  0  0
  -24.6485   -9.9642   21.6761 C   0  0  0  0  0  0  0  0  0  0  0  0
  -27.0601  -10.7303   22.0003 C   0  0  0  0  0  0  0  0  0  0  0  0
  -26.3413  -35.6793   24.8020 C   0  0  0  0  0  0  0  0  0  0  0  0
  -25.9068  -29.8040   20.4232 C   0  0  0  0  0  0  0  0  0  0  0  0
  -26.6231  -34.3564   24.4110 C   0  0  0  0  0  0  0  0  0  0  0  0
  -28.7739  -21.1781   20.5982 C   0  0  0  0  0  0  0  0  0  0  0  0
  -24.9474  -28.8633   20.8241 C   0  0  0  0  0  0  0  0  0  0  0  0
  -27.6394  -23.0708   19.6144 C   0  0  0  0  0  0  0  0  0  0  0  0
  -29.5587  -22.0443   21.3595 C   0  0  0  0  0  0  0  0  0  0  0  0
  -28.4242  -23.9369   20.3758 C   0  0  0  0  0  0  0  0  0  0  0  0
  -22.3692   -8.5069   22.3570 C   0  0  0  0  0  0  0  0  0  0  0  0
  -26.5921  -27.0924   20.5613 C   0  0  0  0  0  0  0  0  0  0  0  0
  -21.4247   -6.4664   23.0399 C   0  0  0  0  0  0  0  0  0  0  0  0
  -21.7584   -3.7879   23.7449 C   0  0  0  0  0  0  0  0  0  0  0  0
  -22.2245   -6.1269   24.1311 C   0  0  0  0  0  0  0  0  0  0  0  0
  -25.8257  -10.7166   21.3236 C   0  0  0  0  0  0  0  0  0  0  0  0
  -27.8409  -11.5949   21.2728 C   0  0  0  0  0  0  0  0  0  0  0  0
  -27.4648  -10.0244   23.1808 C   0  0  0  0  0  0  0  0  0  0  0  0
  -24.7076  -31.7379   22.6426 C   0  0  0  0  0  0  0  0  0  0  0  0
  -21.9317  -31.2047   21.0512 C   0  0  0  0  0  0  0  0  0  0  0  0
  -20.1152  -29.1761   18.9940 C   0  0  0  0  0  0  0  0  0  0  0  0
  -28.6477  -16.2395   18.4802 C   0  0  0  0  0  0  0  0  0  0  0  0
  -24.9786  -36.0846   25.3055 C   0  0  0  0  0  0  0  0  0  0  0  0
  -25.5464  -31.2602   20.3136 C   0  0  0  0  0  0  0  0  0  0  0  0
  -23.5435  -29.2685   21.1889 C   0  0  0  0  0  0  0  0  0  0  0  0
  -23.8755  -35.0939   24.9418 C   0  0  0  0  0  0  0  0  0  0  0  0
  -27.1056  -13.6857   16.7342 C   0  0  0  0  0  0  0  0  0  0  0  0
  -24.3231  -33.6654   25.2347 C   0  0  0  0  0  0  0  0  0  0  0  0
  -26.7320  -12.6770   17.8201 C   0  0  0  0  0  0  0  0  0  0  0  0
  -27.6171  -18.9261   20.4896 C   0  0  0  0  0  0  0  0  0  0  0  0
  -30.0249  -19.1482   19.7396 C   0  0  0  0  0  0  0  0  0  0  0  0
  -26.8496  -15.1130   17.2040 C   0  0  0  0  0  0  0  0  0  0  0  0
  -27.8034  -17.4079   20.5641 C   0  0  0  0  0  0  0  0  0  0  0  0
  -30.1617  -17.6329   19.8567 C   0  0  0  0  0  0  0  0  0  0  0  0
  -27.1948  -14.4676   19.5666 C   0  0  0  0  0  0  0  0  0  0  0  0
  -28.9453  -19.6744   20.7026 C   0  0  0  0  0  0  0  0  0  0  0  0
  -25.5505  -33.2890   24.3960 C   0  0  1  0  0  0  0  0  0  0  0  0
  -24.3555  -31.6482   21.1846 C   0  0  1  0  0  0  0  0  0  0  0  0
  -27.4409  -13.0043   19.1463 C   0  0  1  0  0  0  0  0  0  0  0  0
  -26.6064  -23.5972   18.6731 C   0  0  0  0  0  0  0  0  0  0  0  0
  -30.0593  -21.3174   23.7196 C   0  0  0  0  0  0  0  0  0  0  0  0
  -17.8647  -28.9868   17.9001 C   0  0  0  0  0  0  0  0  0  0  0  0
  -20.7072  -30.3738   23.7196 C   0  0  0  0  0  0  0  0  0  0  0  0
  -18.8263  -29.3181   22.4484 C   0  0  0  0  0  0  0  0  0  0  0  0
  -19.2184  -31.7759   22.2801 C   0  0  0  0  0  0  0  0  0  0  0  0
  -21.3011  -29.2134   16.2827 C   0  0  0  0  0  0  0  0  0  0  0  0
  -32.5457  -22.2838   21.2431 C   0  0  0  0  0  0  0  0  0  0  0  0
  -28.2555  -25.4173   20.2729 C   0  0  0  0  0  0  0  0  0  1  0  0
  -30.5919  -21.5178   22.3007 C   0  0  2  0  0  0  0  0  0  0  0  0
  -20.8233  -30.1843   21.1473 C   0  0  1  0  0  0  0  0  0  0  0  0
  -19.2972  -29.4749   17.7506 C   0  0  2  0  0  0  0  0  0  0  0  0
  -19.9208  -30.4053   22.3939 C   0  0  0  0  0  0  0  0  0  0  0  0
  -25.8179  -11.5098   20.2490 N   0  0  0  0  0  0  0  0  0  0  0  0
  -27.0571  -12.0300   20.2449 N   0  0  0  0  0  0  0  0  0  0  0  0
  -23.2415  -30.7047   21.0716 N   0  0  0  0  0  0  0  0  0  0  0  0
  -27.5362  -15.3834   18.4670 N   0  0  0  0  0  0  0  0  0  0  0  0
  -28.8729  -16.9710   19.6561 N   0  0  0  0  0  0  0  0  0  0  0  0
  -29.1145  -12.0180   21.4186 N   0  0  0  0  0  0  0  0  0  0  0  0
  -26.5382   -9.1767   23.8030 N   0  0  0  0  0  0  0  0  0  0  0  0
  -25.1593  -32.9829   23.0367 N   0  0  0  0  0  0  0  0  0  0  0  0
  -20.1095  -30.2360   19.8760 N   0  0  0  0  0  0  0  0  0  0  0  0
  -19.8994  -28.8079   16.5618 N   0  3  0  0  0  0  0  0  0  0  0  0
  -28.6087  -10.1545   23.6787 O   0  0  0  0  0  0  0  0  0  0  0  0
  -24.5776  -30.7511   23.3574 O   0  0  0  0  0  0  0  0  0  0  0  0
  -21.6459  -32.4007   20.9541 O   0  0  0  0  0  0  0  0  0  0  0  0
  -20.6976  -28.1078   19.1674 O   0  0  0  0  0  0  0  0  0  0  0  0
  -29.3956  -16.3440   17.5000 O   0  0  0  0  0  0  0  0  0  0  0  0
  -21.2574   -7.7956   22.6892 O   0  0  0  0  0  0  0  0  0  0  0  0
  -26.9253  -25.7650   20.6345 O   0  0  0  0  0  0  0  0  0  1  0  0
  -31.6841  -22.4414   22.3575 O   0  0  0  0  0  0  0  0  0  0  0  0
  -21.9173   -2.5019   24.0842 F   0  0  0  0  0  0  0  0  0  0  0  0
  -22.8342   -7.0830   24.8452 F   0  0  0  0  0  0  0  0  0  0  0  0
  1  2  1  0  0  0  0
  1  5  2  0  0  0  0
  2  6  2  0  0  0  0
  3  8  2  0  0  0  0
  3 17  1  0  0  0  0
  4  9  1  0  0  0  0
  4 17  2  0  0  0  0
  5 19  1  0  0  0  0
  6 21  1  0  0  0  0
  7 10  2  0  0  0  0
  7 20  1  0  0  0  0
  8 27  1  0  0  0  0
  9 27  2  0  0  0  0
 10 28  1  0  0  0  0
 11 12  2  0  0  0  0
 11 29  1  0  0  0  0
 12 30  1  0  0  0  0
 13 22  2  0  0  0  0
 13 24  1  0  0  0  0
 14 23  1  0  0  0  0
 14 28  2  0  0  0  0
 15 25  2  0  0  0  0
 15 26  1  0  0  0  0
 16 30  2  0  0  0  0
 16 31  1  0  0  0  0
 17 32  1  0  0  0  0
 18 32  1  0  0  0  0
 18 33  2  0  0  0  0
 18 34  1  0  0  0  0
 19 21  2  0  0  0  0
 19 39  1  0  0  0  0
 20 23  2  0  0  0  0
 20 40  1  0  0  0  0
 21 53  1  0  0  0  0
 22 25  1  0  0  0  0
 22 52  1  0  0  0  0
 23 41  1  0  0  0  0
 24 26  2  0  0  0  0
 24 56  1  0  0  0  0
 25 65  1  0  0  0  0
 26 64  1  0  0  0  0
 27 84  1  0  0  0  0
 28 85  1  0  0  0  0
 29 31  2  0  0  0  0
 29 84  1  0  0  0  0
 30 87  1  0  0  0  0
 31 88  1  0  0  0  0
 32 69  2  0  0  0  0
 33 70  1  0  0  0  0
 33 74  1  0  0  0  0
 34 75  1  0  0  0  0
 34 79  2  0  0  0  0
 35 54  1  0  0  0  0
 35 76  1  0  0  0  0
 35 80  2  0  0  0  0
 36 66  1  0  0  0  0
 36 71  1  0  0  0  0
 36 81  2  0  0  0  0
 37 67  1  0  0  0  0
 37 77  1  0  0  0  0
 37 82  2  0  0  0  0
 38 72  1  0  0  0  0
 38 73  1  0  0  0  0
 38 83  2  0  0  0  0
 39 42  1  0  0  0  0
 40 54  1  0  0  0  0
 41 71  1  0  0  0  0
 42 44  1  0  0  0  0
 43 45  1  0  0  0  0
 43 48  1  0  0  0  0
 44 53  1  0  0  0  0
 45 55  1  0  0  0  0
 46 49  1  0  0  0  0
 46 52  1  0  0  0  0
 47 50  1  0  0  0  0
 47 52  1  0  0  0  0
 48 72  1  0  0  0  0
 49 73  1  0  0  0  0
 50 73  1  0  0  0  0
 51 55  1  0  0  0  0
 51 72  1  0  0  0  0
 53 76  1  0  0  0  0
 54 71  1  0  0  0  0
 55 70  1  0  0  0  0
 57 65  1  0  0  0  0
 58 67  1  0  0  0  0
 59 68  1  0  0  0  0
 60 68  1  0  0  0  0
 61 68  1  0  0  0  0
 62 78  1  0  0  0  0
 63 86  1  0  0  0  0
 64 85  1  0  0  0  0
 65 86  1  0  0  0  0
 66 68  1  0  0  0  0
 66 77  1  0  0  0  0
 67 78  1  0  0  0  0
 69 70  1  0  0  0  0
M  CHG  1  78   1
M  ISO  4  38 100  64 101  73 100  85 101
M  END
> <Batch ID>
0150

> <Smiles>
CNC(C)C(=O)NC(C(=O)N1Cc2cc([101O:1][101CH2:1]c3cc(C(C)OC)c(C4CC[100N:0]([100C:0](=O)N5CCCC(n6nc(-c7ccc(Oc8ccc(F)cc8F)cc7)c(C(N)=O)c6N)C5)CC4)cc3C)ccc2CC1C(=O)NC1CCCc2ccccc21)C(C)(C)C

> <Shape>
0.309

> <Color>
0.084

> <Negative vol penalty>
0.000

$$$$

  -OEChem-04052321413D

 90 99  0     1  0  0  0  0  0999 V2000
  -17.6010  -30.8409   17.6730 C   0  0  0  0  0  0  0  0  0  0  0  0
  -18.7677  -30.1438   17.3759 C   0  0  0  0  0  0  0  0  0  0  0  0
  -23.4508  -10.2424   22.1303 C   0  0  0  0  0  0  0  0  0  0  0  0
  -24.0821   -9.2373   20.0259 C   0  0  0  0  0  0  0  0  0  0  0  0
  -17.6642  -32.0186   18.4167 C   0  0  0  0  0  0  0  0  0  0  0  0
  -19.9985  -30.6246   17.8214 C   0  0  0  0  0  0  0  0  0  0  0  0
  -24.8239  -27.3001   19.6015 C   0  0  0  0  0  0  0  0  0  0  0  0
  -29.6780  -24.2629   18.2734 C   0  0  0  0  0  0  0  0  0  0  0  0
  -22.1599   -9.7342   21.9858 C   0  0  0  0  0  0  0  0  0  0  0  0
  -22.7912   -8.7290   19.8815 C   0  0  0  0  0  0  0  0  0  0  0  0
  -25.9911  -26.9141   18.9438 C   0  0  0  0  0  0  0  0  0  0  0  0
  -29.2843  -22.9842   18.6677 C   0  0  0  0  0  0  0  0  0  0  0  0
  -20.5866   -6.7721   22.4143 C   0  0  0  0  0  0  0  0  0  0  0  0
  -19.9988   -6.1698   23.5267 C   0  0  0  0  0  0  0  0  0  0  0  0
  -27.1534  -28.7896   19.9188 C   0  0  0  0  0  0  0  0  0  0  0  0
  -18.2102   -7.7926   23.4603 C   0  0  0  0  0  0  0  0  0  0  0  0
  -24.4119   -9.9940   21.1503 C   0  0  0  0  0  0  0  0  0  0  0  0
  -26.8403   -9.8944   21.9253 C   0  0  0  0  0  0  0  0  0  0  0  0
  -18.8954  -32.5089   18.8797 C   0  0  0  0  0  0  0  0  0  0  0  0
  -24.8099  -28.4419   20.4155 C   0  0  0  0  0  0  0  0  0  0  0  0
  -20.0784  -31.8107   18.5708 C   0  0  0  0  0  0  0  0  0  0  0  0
  -25.9855  -29.1865   20.5877 C   0  0  0  0  0  0  0  0  0  0  0  0
  -30.1596  -25.1673   19.2199 C   0  0  0  0  0  0  0  0  0  0  0  0
  -30.2473  -24.7931   20.5607 C   0  0  0  0  0  0  0  0  0  0  0  0
  -21.8301   -8.9775   20.8614 C   0  0  0  0  0  0  0  0  0  0  0  0
  -27.1553  -27.6606   19.1001 C   0  0  0  0  0  0  0  0  0  0  0  0
  -29.3721  -22.6099   20.0086 C   0  0  0  0  0  0  0  0  0  0  0  0
  -19.9862   -7.8848   21.8250 C   0  0  0  0  0  0  0  0  0  0  0  0
  -29.8536  -23.5143   20.9551 C   0  0  0  0  0  0  0  0  0  0  0  0
  -18.8106   -6.6800   24.0497 C   0  0  0  0  0  0  0  0  0  0  0  0
  -18.7980   -8.3950   22.3480 C   0  0  0  0  0  0  0  0  0  0  0  0
  -25.7454  -10.5192   21.2987 C   0  0  0  0  0  0  0  0  0  0  0  0
  -27.8679  -10.7973   21.8014 C   0  0  0  0  0  0  0  0  0  0  0  0
  -26.9212   -8.6125   22.5624 C   0  0  0  0  0  0  0  0  0  0  0  0
  -23.2504  -31.2112   20.3684 C   0  0  0  0  0  0  0  0  0  0  0  0
  -24.7108  -31.6367   23.2335 C   0  0  0  0  0  0  0  0  0  0  0  0
  -27.3065  -30.8551   25.3067 C   0  0  0  0  0  0  0  0  0  0  0  0
  -28.1205  -16.5510   21.3330 C   0  0  0  0  0  0  0  0  0  0  0  0
  -18.9185  -33.8115   19.6397 C   0  0  0  0  0  0  0  0  0  0  0  0
  -23.5497  -28.8296   21.1393 C   0  0  0  0  0  0  0  0  0  0  0  0
  -26.0283  -30.4089   21.4666 C   0  0  0  0  0  0  0  0  0  0  0  0
  -20.2236  -34.0537   20.3936 C   0  0  0  0  0  0  0  0  0  0  0  0
  -29.4544  -14.3132   18.9803 C   0  0  0  0  0  0  0  0  0  0  0  0
  -21.4212  -33.7561   19.4969 C   0  0  0  0  0  0  0  0  0  0  0  0
  -28.7561  -13.0107   19.3705 C   0  0  0  0  0  0  0  0  0  0  0  0
  -30.3944  -19.4405   20.8562 C   0  0  0  0  0  0  0  0  0  0  0  0
  -28.7055  -19.4006   18.9706 C   0  0  0  0  0  0  0  0  0  0  0  0
  -28.5099  -15.5141   19.0541 C   0  0  0  0  0  0  0  0  0  0  0  0
  -29.4332  -18.6064   21.7018 C   0  0  0  0  0  0  0  0  0  0  0  0
  -27.7821  -18.5712   19.8600 C   0  0  0  0  0  0  0  0  0  0  0  0
  -27.1270  -14.3586   20.7479 C   0  0  0  0  0  0  0  0  0  0  0  0
  -21.4298  -32.2870   19.0574 C   0  0  1  0  0  0  0  0  0  0  0  0
  -23.5171  -30.3026   21.5350 C   0  0  1  0  0  0  0  0  0  0  0  0
  -28.0662  -13.1424   20.7399 C   0  0  1  0  0  0  0  0  0  0  0  0
  -29.6769  -20.2592   19.7824 C   0  0  0  0  0  0  0  0  0  0  0  0
  -28.2508  -31.3910   27.5691 C   0  0  0  0  0  0  0  0  0  0  0  0
  -25.7569  -34.2960   22.1643 C   0  0  0  0  0  0  0  0  0  0  0  0
  -27.4136  -34.3194   24.0413 C   0  0  0  0  0  0  0  0  0  0  0  0
  -24.9691  -34.3629   24.5369 C   0  0  0  0  0  0  0  0  0  0  0  0
  -27.0265  -28.0525   26.2156 C   0  0  0  0  0  0  0  0  0  0  0  0
  -28.7221  -22.7602   22.9062 C   0  0  0  0  0  0  0  0  0  0  0  0
  -30.1117  -27.1848   23.3300 C   0  0  0  0  0  0  0  0  0  0  0  0
  -30.5744  -26.5304   18.7717 C   0  0  0  0  0  0  0  0  0  0  0  0
  -30.7633  -25.7595   21.5788 C   0  0  0  0  0  0  0  0  0  0  0  0
  -29.5329  -27.6055   19.0927 C   0  0  0  0  0  0  0  0  0  1  0  0
  -26.0236  -32.2281   23.6869 C   0  0  1  0  0  0  0  0  0  0  0  0
  -27.3422  -30.4666   26.7737 C   0  0  2  0  0  0  0  0  0  0  0  0
  -26.0398  -33.7797   23.5892 C   0  0  0  0  0  0  0  0  0  0  0  0
  -26.0490  -11.7258   20.8129 N   0  0  0  0  0  0  0  0  0  0  0  0
  -27.3463  -11.8665   21.1343 N   0  0  0  0  0  0  0  0  0  0  0  0
  -24.7690  -30.7510   22.1481 N   0  0  0  0  0  0  0  0  0  0  0  0
  -27.8465  -15.5747   20.3634 N   0  0  0  0  0  0  0  0  0  0  0  0
  -28.5342  -17.8104   20.8669 N   0  0  0  0  0  0  0  0  0  0  0  0
  -29.1577  -10.7730   22.1991 N   0  0  0  0  0  0  0  0  0  0  0  0
  -25.7716   -7.8118   22.6009 N   0  0  0  0  0  0  0  0  0  0  0  0
  -21.9090  -31.4415   20.1297 N   0  0  0  0  0  0  0  0  0  0  0  0
  -26.2618  -31.7115   25.0304 N   0  0  0  0  0  0  0  0  0  0  0  0
  -27.8408  -29.0707   26.9279 N   0  3  0  0  0  0  0  0  0  0  0  0
  -27.9772   -8.1966   23.0966 O   0  0  0  0  0  0  0  0  0  0  0  0
  -24.1921  -31.6707   19.7329 O   0  0  0  0  0  0  0  0  0  0  0  0
  -23.6728  -31.9434   23.8253 O   0  0  0  0  0  0  0  0  0  0  0  0
  -28.1260  -30.4433   24.4884 O   0  0  0  0  0  0  0  0  0  0  0  0
  -28.0069  -16.3136   22.5420 O   0  0  0  0  0  0  0  0  0  0  0  0
  -20.5706   -8.4812   20.7203 O   0  0  0  0  0  0  0  0  0  0  0  0
  -28.9822  -21.3506   20.3818 O   0  0  0  0  0  0  0  0  0  0  0  0
  -29.9364  -23.1425   22.2647 O   0  0  0  0  0  0  0  0  0  0  0  0
  -28.3038  -27.2838   18.4542 O   0  0  0  0  0  0  0  0  0  1  0  0
  -29.6751  -26.2587   22.3442 O   0  0  0  0  0  0  0  0  0  0  0  0
  -18.2455   -6.1005   25.1169 F   0  0  0  0  0  0  0  0  0  0  0  0
  -18.2159   -9.4629   21.7854 F   0  0  0  0  0  0  0  0  0  0  0  0
  1  2  1  0  0  0  0
  1  5  2  0  0  0  0
  2  6  2  0  0  0  0
  3  9  2  0  0  0  0
  3 17  1  0  0  0  0
  4 10  1  0  0  0  0
  4 17  2  0  0  0  0
  5 19  1  0  0  0  0
  6 21  1  0  0  0  0
  7 11  2  0  0  0  0
  7 20  1  0  0  0  0
  8 12  2  0  0  0  0
  8 23  1  0  0  0  0
  9 25  1  0  0  0  0
 10 25  2  0  0  0  0
 11 26  1  0  0  0  0
 12 27  1  0  0  0  0
 13 14  2  0  0  0  0
 13 28  1  0  0  0  0
 14 30  1  0  0  0  0
 15 22  1  0  0  0  0
 15 26  2  0  0  0  0
 16 30  2  0  0  0  0
 16 31  1  0  0  0  0
 17 32  1  0  0  0  0
 18 32  1  0  0  0  0
 18 33  2  0  0  0  0
 18 34  1  0  0  0  0
 19 21  2  0  0  0  0
 19 39  1  0  0  0  0
 20 22  2  0  0  0  0
 20 40  1  0  0  0  0
 21 52  1  0  0  0  0
 22 41  1  0  0  0  0
 23 24  2  0  0  0  0
 23 63  1  0  0  0  0
 24 29  1  0  0  0  0
 24 64  1  0  0  0  0
 25 84  1  0  0  0  0
 26 87  1  0  0  0  0
 27 29  2  0  0  0  0
 27 85  1  0  0  0  0
 28 31  2  0  0  0  0
 28 84  1  0  0  0  0
 29 86  1  0  0  0  0
 30 89  1  0  0  0  0
 31 90  1  0  0  0  0
 32 69  2  0  0  0  0
 33 70  1  0  0  0  0
 33 74  1  0  0  0  0
 34 75  1  0  0  0  0
 34 79  2  0  0  0  0
 35 53  1  0  0  0  0
 35 76  1  0  0  0  0
 35 80  2  0  0  0  0
 36 66  1  0  0  0  0
 36 71  1  0  0  0  0
 36 81  2  0  0  0  0
 37 67  1  0  0  0  0
 37 77  1  0  0  0  0
 37 82  2  0  0  0  0
 38 72  1  0  0  0  0
 38 73  1  0  0  0  0
 38 83  2  0  0  0  0
 39 42  1  0  0  0  0
 40 53  1  0  0  0  0
 41 71  1  0  0  0  0
 42 44  1  0  0  0  0
 43 45  1  0  0  0  0
 43 48  1  0  0  0  0
 44 52  1  0  0  0  0
 45 54  1  0  0  0  0
 46 49  1  0  0  0  0
 46 55  1  0  0  0  0
 47 50  1  0  0  0  0
 47 55  1  0  0  0  0
 48 72  1  0  0  0  0
 49 73  1  0  0  0  0
 50 73  1  0  0  0  0
 51 54  1  0  0  0  0
 51 72  1  0  0  0  0
 52 76  1  0  0  0  0
 53 71  1  0  0  0  0
 54 70  1  0  0  0  0
 55 85  1  0  0  0  0
 56 67  1  0  0  0  0
 57 68  1  0  0  0  0
 58 68  1  0  0  0  0
 59 68  1  0  0  0  0
 60 78  1  0  0  0  0
 61 86  1  0  0  0  0
 62 88  1  0  0  0  0
 63 65  1  0  0  0  0
 64 88  1  0  0  0  0
 65 87  1  0  0  0  0
 66 68  1  0  0  0  0
 66 77  1  0  0  0  0
 67 78  1  0  0  0  0
 69 70  1  0  0  0  0
M  CHG  1  78   1
M  ISO  4  38 100  65 101  73 100  87 101
M  END
> <Batch ID>
0150

> <Smiles>
CNC(C)C(=O)NC(C(=O)N1Cc2cc([101O:1][101CH2:1]Cc3ccc(OC4CC[100N:0]([100C:0](=O)N5CCCC(n6nc(-c7ccc(Oc8ccc(F)cc8F)cc7)c(C(N)=O)c6N)C5)CC4)c(OC)c3COC)ccc2CC1C(=O)NC1CCCc2ccccc21)C(C)(C)C

> <Shape>
0.309

> <Color>
0.093

> <Negative vol penalty>
0.000

$$$$

  -OEChem-04052321413D

 90100  0     1  0  0  0  0  0999 V2000
  -23.5153  -23.8930   18.1855 C   0  0  0  0  0  0  0  0  0  0  0  0
  -24.4168  -22.8386   18.0931 C   0  0  0  0  0  0  0  0  0  0  0  0
  -23.4849  -27.7514   20.3270 C   0  0  0  0  0  0  0  0  0  0  0  0
  -24.8453  -26.8232   22.0947 C   0  0  0  0  0  0  0  0  0  0  0  0
  -22.4423  -23.8120   19.0705 C   0  0  0  0  0  0  0  0  0  0  0  0
  -24.2389  -21.6980   18.8770 C   0  0  0  0  0  0  0  0  0  0  0  0
  -27.2371  -17.8964   18.0043 C   0  0  0  0  0  0  0  0  0  0  0  0
  -22.3597  -27.1268   20.8649 C   0  0  0  0  0  0  0  0  0  0  0  0
  -23.7200  -26.1985   22.6327 C   0  0  0  0  0  0  0  0  0  0  0  0
  -28.5859  -17.9037   18.3573 C   0  0  0  0  0  0  0  0  0  0  0  0
  -19.0638  -26.0709   21.9773 C   0  0  0  0  0  0  0  0  0  0  0  0
  -17.8918  -26.8205   22.0779 C   0  0  0  0  0  0  0  0  0  0  0  0
  -28.0941  -16.4804   20.2418 C   0  0  0  0  0  0  0  0  0  0  0  0
  -19.0251  -28.3999   23.5126 C   0  0  0  0  0  0  0  0  0  0  0  0
  -24.7277  -27.5996   20.9419 C   0  0  0  0  0  0  0  0  0  0  0  0
  -26.0866  -29.6248   20.1940 C   0  0  0  0  0  0  0  0  0  0  0  0
  -22.2589  -22.6748   19.8743 C   0  0  0  0  0  0  0  0  0  0  0  0
  -26.3035  -17.1887   18.7750 C   0  0  0  0  0  0  0  0  0  0  0  0
  -23.1486  -21.5874   19.7588 C   0  0  0  0  0  0  0  0  0  0  0  0
  -26.7345  -16.4636   19.8950 C   0  0  0  0  0  0  0  0  0  0  0  0
  -22.4772  -26.3503   22.0177 C   0  0  0  0  0  0  0  0  0  0  0  0
  -29.0141  -17.1980   19.4778 C   0  0  0  0  0  0  0  0  0  0  0  0
  -20.2165  -26.4857   22.6445 C   0  0  0  0  0  0  0  0  0  0  0  0
  -17.8725  -27.9850   22.8455 C   0  0  0  0  0  0  0  0  0  0  0  0
  -20.1971  -27.6502   23.4121 C   0  0  0  0  0  0  0  0  0  0  0  0
  -25.8905  -28.2442   20.3864 C   0  0  0  0  0  0  0  0  0  0  0  0
  -27.3406  -29.7198   19.6417 C   0  0  0  0  0  0  0  0  0  0  0  0
  -25.2134  -30.7233   20.4883 C   0  0  0  0  0  0  0  0  0  0  0  0
  -23.7358  -17.9807   20.4730 C   0  0  0  0  0  0  0  0  0  0  0  0
  -23.4206  -14.7658   20.7690 C   0  0  0  0  0  0  0  0  0  0  0  0
  -24.9060  -11.6935   20.7320 C   0  0  0  0  0  0  0  0  0  0  0  0
  -28.8018  -24.4826   20.0510 C   0  0  0  0  0  0  0  0  0  0  0  0
  -21.0760  -22.6368   20.8094 C   0  0  0  0  0  0  0  0  0  0  0  0
  -24.8563  -17.1690   18.3655 C   0  0  0  0  0  0  0  0  0  0  0  0
  -25.7753  -15.6713   20.7440 C   0  0  0  0  0  0  0  0  0  0  0  0
  -21.2209  -21.5899   21.9091 C   0  0  0  0  0  0  0  0  0  0  0  0
  -28.5621  -26.5073   16.9981 C   0  0  0  0  0  0  0  0  0  0  0  0
  -21.6212  -20.2526   21.3042 C   0  0  0  0  0  0  0  0  0  0  0  0
  -29.1349  -27.8408   17.4621 C   0  0  0  0  0  0  0  0  0  0  0  0
  -33.0713  -19.5199   26.5876 C   0  0  0  0  0  0  0  0  0  0  0  0
  -34.2509  -18.8429   25.9532 C   0  0  0  0  0  0  0  0  0  0  0  0
  -28.5687  -21.3367   21.3236 C   0  0  0  0  0  0  0  0  0  0  0  0
  -30.5422  -21.2258   19.7380 C   0  0  0  0  0  0  0  0  0  0  0  0
  -29.2365  -25.3240   17.6867 C   0  0  0  0  0  0  0  0  0  0  0  0
  -27.9710  -22.1622   20.1811 C   0  0  0  0  0  0  0  0  0  0  0  0
  -30.1517  -22.5604   19.0839 C   0  0  0  0  0  0  0  0  0  0  0  0
  -33.6928  -19.9718   22.8448 C   0  0  0  0  0  0  0  0  0  0  0  0
  -29.7367  -26.7398   19.6729 C   0  0  0  0  0  0  0  0  0  0  0  0
  -31.6172  -20.6590   24.0000 C   0  0  0  0  0  0  0  0  0  0  0  0
  -22.9925  -20.3496   20.6237 C   0  0  1  0  0  0  0  0  0  0  0  0
  -23.9139  -16.8347   19.5177 C   0  0  1  0  0  0  0  0  0  0  0  0
  -33.0243  -20.1834   21.4719 C   0  0  2  0  0  0  0  0  0  0  0  0
  -29.1461  -27.9864   18.9912 C   0  0  2  0  0  0  0  0  0  0  0  0
  -33.6146  -20.0279   25.2806 C   0  0  0  0  0  0  0  0  0  0  0  0
  -30.0892  -21.1904   21.1943 C   0  0  0  0  0  0  0  0  0  0  0  0
  -30.4723  -19.8640   23.3556 C   0  0  1  0  0  0  0  0  0  0  0  0
  -31.7855  -19.3139   21.1720 C   0  0  1  0  0  0  0  0  0  0  0  0
  -34.0877  -19.9772   20.3782 C   0  0  0  0  0  0  0  0  0  0  0  0
  -29.1058  -20.3606   23.8385 C   0  0  0  0  0  0  0  0  0  0  0  0
  -24.3980   -9.2560   21.0446 C   0  0  0  0  0  0  0  0  0  0  0  0
  -23.2936  -15.1821   23.7890 C   0  0  0  0  0  0  0  0  0  0  0  0
  -23.7437  -12.7359   24.0750 C   0  0  0  0  0  0  0  0  0  0  0  0
  -21.6777  -13.4931   22.8999 C   0  0  0  0  0  0  0  0  0  0  0  0
  -25.7487  -11.0446   17.9701 C   0  0  0  0  0  0  0  0  0  0  0  0
  -31.9241  -17.8258   21.4972 C   0  0  0  0  0  0  0  0  0  0  0  0
  -30.6384  -17.0735   21.2105 C   0  0  0  0  0  0  0  0  0  1  0  0
  -23.9158  -13.7287   21.7478 C   0  0  1  0  0  0  0  0  0  0  0  0
  -24.5193  -10.3960   20.0454 C   0  0  2  0  0  0  0  0  0  0  0  0
  -23.1757  -13.8014   23.1133 C   0  0  0  0  0  0  0  0  0  0  0  0
  -26.9361  -27.5144   19.9886 N   0  0  0  0  0  0  0  0  0  0  0  0
  -27.8012  -28.4401   19.5405 N   0  0  0  0  0  0  0  0  0  0  0  0
  -24.3698  -15.6882   20.3063 N   0  0  0  0  0  0  0  0  0  0  0  0
  -29.2461  -25.4623   19.1476 N   0  0  0  0  0  0  0  0  0  0  0  0
  -28.9298  -23.1377   19.6695 N   0  0  0  0  0  0  0  0  0  0  0  0
  -32.8374  -19.8563   24.0259 N   0  0  2  0  0  0  0  0  0  0  0  0
  -28.0830  -30.7724   19.2376 N   0  0  0  0  0  0  0  0  0  0  0  0
  -25.2963  -31.3227   21.7524 N   0  0  0  0  0  0  0  0  0  0  0  0
  -23.2412  -19.1301   19.8868 N   0  0  0  0  0  0  0  0  0  0  0  0
  -23.7984  -12.4409   21.0723 N   0  0  0  0  0  0  0  0  0  0  0  0
  -30.5128  -19.9112   21.8177 N   0  3  2  0  0  0  0  0  0  0  0  0
  -25.5432  -10.0228   19.0287 N   0  3  0  0  0  0  0  0  0  0  0  0
  -24.3728  -31.1498   19.6606 O   0  0  0  0  0  0  0  0  0  0  0  0
  -24.0242  -17.8325   21.6547 O   0  0  0  0  0  0  0  0  0  0  0  0
  -22.2369  -14.7534   20.4221 O   0  0  0  0  0  0  0  0  0  0  0  0
  -26.0736  -12.0104   20.9483 O   0  0  0  0  0  0  0  0  0  0  0  0
  -28.3207  -24.7901   21.1498 O   0  0  0  0  0  0  0  0  0  0  0  0
  -21.3794  -25.7408   22.5430 O   0  0  0  0  0  0  0  0  0  0  0  0
  -30.3396  -17.2041   19.8275 O   0  0  0  0  0  0  0  0  0  1  0  0
  -16.7473  -28.7055   22.9408 F   0  0  0  0  0  0  0  0  0  0  0  0
  -21.3016  -28.0544   24.0543 F   0  0  0  0  0  0  0  0  0  0  0  0
  1  2  1  0  0  0  0
  1  5  2  0  0  0  0
  2  6  2  0  0  0  0
  3  8  2  0  0  0  0
  3 15  1  0  0  0  0
  4  9  1  0  0  0  0
  4 15  2  0  0  0  0
  5 17  1  0  0  0  0
  6 19  1  0  0  0  0
  7 10  2  0  0  0  0
  7 18  1  0  0  0  0
  8 21  1  0  0  0  0
  9 21  2  0  0  0  0
 10 22  1  0  0  0  0
 11 12  2  0  0  0  0
 11 23  1  0  0  0  0
 12 24  1  0  0  0  0
 13 20  1  0  0  0  0
 13 22  2  0  0  0  0
 14 24  2  0  0  0  0
 14 25  1  0  0  0  0
 15 26  1  0  0  0  0
 16 26  1  0  0  0  0
 16 27  2  0  0  0  0
 16 28  1  0  0  0  0
 17 19  2  0  0  0  0
 17 33  1  0  0  0  0
 18 20  2  0  0  0  0
 18 34  1  0  0  0  0
 19 50  1  0  0  0  0
 20 35  1  0  0  0  0
 21 87  1  0  0  0  0
 22 88  1  0  0  0  0
 23 25  2  0  0  0  0
 23 87  1  0  0  0  0
 24 89  1  0  0  0  0
 25 90  1  0  0  0  0
 26 70  2  0  0  0  0
 27 71  1  0  0  0  0
 27 76  1  0  0  0  0
 28 77  1  0  0  0  0
 28 82  2  0  0  0  0
 29 51  1  0  0  0  0
 29 78  1  0  0  0  0
 29 83  2  0  0  0  0
 30 67  1  0  0  0  0
 30 72  1  0  0  0  0
 30 84  2  0  0  0  0
 31 68  1  0  0  0  0
 31 79  1  0  0  0  0
 31 85  2  0  0  0  0
 32 73  1  0  0  0  0
 32 74  1  0  0  0  0
 32 86  2  0  0  0  0
 33 36  1  0  0  0  0
 34 51  1  0  0  0  0
 35 72  1  0  0  0  0
 36 38  1  0  0  0  0
 37 39  1  0  0  0  0
 37 44  1  0  0  0  0
 38 50  1  0  0  0  0
 39 53  1  0  0  0  0
 40 41  1  0  0  0  0
 40 54  1  0  0  0  0
 41 54  1  0  0  0  0
 42 45  1  0  0  0  0
 42 55  1  0  0  0  0
 43 46  1  0  0  0  0
 43 55  1  0  0  0  0
 44 73  1  0  0  0  0
 45 74  1  0  0  0  0
 46 74  1  0  0  0  0
 47 52  1  0  0  0  0
 47 75  1  0  0  0  0
 48 53  1  0  0  0  0
 48 73  1  0  0  0  0
 49 56  1  0  0  0  0
 49 75  1  0  0  0  0
 50 78  1  0  0  0  0
 51 72  1  0  0  0  0
 52 57  1  0  0  0  0
 52 58  1  0  0  0  0
 53 71  1  0  0  0  0
 54 75  1  0  0  0  0
 55 80  1  0  0  0  0
 56 59  1  0  0  0  0
 56 80  1  0  0  0  0
 57 65  1  0  0  0  0
 57 80  1  0  0  0  0
 60 68  1  0  0  0  0
 61 69  1  0  0  0  0
 62 69  1  0  0  0  0
 63 69  1  0  0  0  0
 64 81  1  0  0  0  0
 65 66  1  0  0  0  0
 66 88  1  0  0  0  0
 67 69  1  0  0  0  0
 67 79  1  0  0  0  0
 68 81  1  0  0  0  0
 70 71  1  0  0  0  0
M  CHG  2  80   1  81   1
M  ISO  4  32 100  66 101  74 100  88 101
M  END
> <Batch ID>
0150

> <Smiles>
CNC(C)C(=O)NC(C(=O)N1Cc2cc([101O:1][101CH2:1]CC3C(C)CN(C4CC4)CC(C)N3C3CC[100N:0]([100C:0](=O)N4CCCC(n5nc(-c6ccc(Oc7ccc(F)cc7F)cc6)c(C(N)=O)c5N)C4)CC3)ccc2CC1C(=O)NC1CCCc2ccccc21)C(C)(C)C

> <Shape>
0.241

> <Color>
0.070

> <Negative vol penalty>
0.000

$$$$

  -OEChem-04052321413D

 93102  0     1  0  0  0  0  0999 V2000
  -26.9862  -33.2421   27.0423 C   0  0  0  0  0  0  0  0  0  0  0  0
  -27.3374  -32.1494   26.2561 C   0  0  0  0  0  0  0  0  0  0  0  0
  -28.1638  -12.4669   20.8598 C   0  0  0  0  0  0  0  0  0  0  0  0
  -27.5239  -13.0831   18.6131 C   0  0  0  0  0  0  0  0  0  0  0  0
  -25.6420  -33.5192   27.2881 C   0  0  0  0  0  0  0  0  0  0  0  0
  -26.3446  -31.3325   25.7162 C   0  0  0  0  0  0  0  0  0  0  0  0
  -27.1907  -30.2024   20.8528 C   0  0  0  0  0  0  0  0  0  0  0  0
  -29.3825  -11.9863   20.3809 C   0  0  0  0  0  0  0  0  0  0  0  0
  -28.7426  -12.6026   18.1342 C   0  0  0  0  0  0  0  0  0  0  0  0
  -28.1385  -29.2159   20.5840 C   0  0  0  0  0  0  0  0  0  0  0  0
  -32.3550  -13.2680   19.4041 C   0  0  0  0  0  0  0  0  0  0  0  0
  -33.5092  -13.6127   20.1074 C   0  0  0  0  0  0  0  0  0  0  0  0
  -26.3673  -27.6095   20.2655 C   0  0  0  0  0  0  0  0  0  0  0  0
  -30.4649  -22.9200   14.8817 C   0  0  0  0  0  0  0  0  0  0  0  0
  -31.1365  -24.7035   16.3665 C   0  0  0  0  0  0  0  0  0  0  0  0
  -28.7930  -24.1956   16.0711 C   0  0  0  0  0  0  0  0  0  0  0  0
  -33.9674  -11.2735   20.5017 C   0  0  0  0  0  0  0  0  0  0  0  0
  -27.2344  -13.0152   19.9759 C   0  0  0  0  0  0  0  0  0  0  0  0
  -24.9842  -12.7829   21.1550 C   0  0  0  0  0  0  0  0  0  0  0  0
  -24.6320  -32.7110   26.7430 C   0  0  0  0  0  0  0  0  0  0  0  0
  -25.8222  -29.8968   20.8407 C   0  0  0  0  0  0  0  0  0  0  0  0
  -24.9857  -31.5984   25.9561 C   0  0  0  0  0  0  0  0  0  0  0  0
  -25.4040  -28.5945   20.5320 C   0  0  0  0  0  0  0  0  0  0  0  0
  -31.4699  -23.6838   15.4751 C   0  0  0  0  0  0  0  0  0  0  0  0
  -29.1264  -23.1759   15.1797 C   0  0  0  0  0  0  0  0  0  0  0  0
  -29.6719  -12.0541   19.0181 C   0  0  0  0  0  0  0  0  0  0  0  0
  -27.7270  -27.9186   20.2931 C   0  0  0  0  0  0  0  0  0  0  0  0
  -32.0069  -11.9261   19.2497 C   0  0  0  0  0  0  0  0  0  0  0  0
  -29.7981  -24.9594   16.6646 C   0  0  0  0  0  0  0  0  0  0  0  0
  -34.3154  -12.6154   20.6562 C   0  0  0  0  0  0  0  0  0  0  0  0
  -32.8132  -10.9288   19.7984 C   0  0  0  0  0  0  0  0  0  0  0  0
  -25.9751  -13.5113   20.4699 C   0  0  0  0  0  0  0  0  0  0  0  0
  -23.9935  -13.7010   21.4039 C   0  0  0  0  0  0  0  0  0  0  0  0
  -24.9614  -11.3999   21.5326 C   0  0  0  0  0  0  0  0  0  0  0  0
  -23.4895  -29.9646   22.9989 C   0  0  0  0  0  0  0  0  0  0  0  0
  -21.6329  -29.2261   20.4435 C   0  0  0  0  0  0  0  0  0  0  0  0
  -21.8455  -27.0464   17.5762 C   0  0  0  0  0  0  0  0  0  0  0  0
  -23.9655  -19.4551   22.1090 C   0  0  0  0  0  0  0  0  0  0  0  0
  -23.1943  -33.0226   27.0755 C   0  0  0  0  0  0  0  0  0  0  0  0
  -24.8114  -30.9784   21.1066 C   0  0  0  0  0  0  0  0  0  0  0  0
  -23.9460  -28.2196   20.4863 C   0  0  0  0  0  0  0  0  0  0  0  0
  -22.1923  -32.3269   26.1577 C   0  0  0  0  0  0  0  0  0  0  0  0
  -22.0816  -17.7222   19.6759 C   0  0  0  0  0  0  0  0  0  0  0  0
  -22.5580  -30.8561   25.9855 C   0  0  0  0  0  0  0  0  0  0  0  0
  -22.7810  -16.3637   19.6627 C   0  0  0  0  0  0  0  0  0  0  0  0
  -25.2675  -21.7126   20.4606 C   0  0  0  0  0  0  0  0  0  0  0  0
  -23.0113  -20.9778   19.6067 C   0  0  0  0  0  0  0  0  0  0  0  0
  -23.0750  -18.8786   19.8033 C   0  0  0  0  0  0  0  0  0  0  0  0
  -24.6934  -17.3946   20.9440 C   0  0  0  0  0  0  0  0  0  0  0  0
  -25.4949  -22.4908   19.1712 C   0  0  0  0  0  0  0  0  0  0  0  0
  -23.2507  -21.7586   18.3211 C   0  0  0  0  0  0  0  0  0  0  0  0
  -23.9369  -30.7033   25.3323 C   0  0  1  0  0  0  0  0  0  0  0  0
  -23.4638  -30.4356   21.5723 C   0  0  1  0  0  0  0  0  0  0  0  0
  -23.7134  -16.2131   20.8772 C   0  0  2  0  0  0  0  0  0  0  0  0
  -23.7784  -21.5823   20.7827 C   0  0  0  0  0  0  0  0  0  0  0  0
  -32.9009  -23.4100   15.1572 C   0  0  0  0  0  0  0  0  0  0  0  0
  -20.7790  -27.2211   15.3114 C   0  0  0  0  0  0  0  0  0  0  0  0
  -25.9089  -22.0317   13.6865 C   0  0  0  0  0  0  0  0  0  0  0  0
  -19.4543  -27.4654   21.6534 C   0  0  0  0  0  0  0  0  0  0  0  0
  -19.3024  -26.2667   19.4607 C   0  0  0  0  0  0  0  0  0  0  0  0
  -18.7707  -28.7005   19.5890 C   0  0  0  0  0  0  0  0  0  0  0  0
  -23.2131  -21.5509   23.1672 C   0  0  0  0  0  0  0  0  0  0  0  0
  -24.4603  -26.8601   16.2025 C   0  0  0  0  0  0  0  0  0  0  0  0
  -26.3313  -21.9493   16.1704 C   0  0  0  0  0  0  0  0  0  0  0  0
  -25.0187  -22.4928   16.7242 C   0  0  0  0  0  0  0  0  0  0  0  0
  -29.8751  -27.3726   19.4310 C   0  0  0  0  0  0  0  0  0  1  0  0
  -30.4126  -26.2490   18.5659 C   0  0  0  0  0  0  0  0  0  0  0  0
  -21.1751  -27.9449   19.7893 C   0  0  1  0  0  0  0  0  0  0  0  0
  -22.0378  -27.4641   16.1295 C   0  0  2  0  0  0  0  0  0  0  0  0
  -26.7198  -22.6107   14.8418 C   0  0  1  0  0  0  0  0  0  0  0  0
  -19.7004  -27.5959   20.1371 C   0  0  0  0  0  0  0  0  0  0  0  0
  -25.6439  -14.7934   20.2946 N   0  0  0  0  0  0  0  0  0  0  0  0
  -24.4339  -14.8777   20.8732 N   0  0  0  0  0  0  0  0  0  0  0  0
  -22.9962  -29.3108   20.7596 N   0  0  0  0  0  0  0  0  0  0  0  0
  -23.9758  -18.6718   20.9455 N   0  0  0  0  0  0  0  0  0  0  0  0
  -22.7973  -13.6085   22.0228 N   0  0  0  0  0  0  0  0  0  0  0  0
  -24.4176  -10.4711   20.6350 N   0  0  0  0  0  0  0  0  0  0  0  0
  -28.1105  -22.4033   14.5799 N   0  0  0  0  0  0  0  0  0  0  0  0
  -23.8504  -30.9412   23.9074 N   0  0  0  0  0  0  0  0  0  0  0  0
  -21.4314  -28.1014   18.3616 N   0  0  0  0  0  0  0  0  0  0  0  0
  -23.5790  -20.7972   21.9762 N   0  0  0  0  0  0  0  0  0  0  0  0
  -24.7332  -21.8334   18.0456 N   0  3  0  0  0  0  0  0  0  0  0  0
  -23.1551  -26.6949   15.5124 N   0  3  0  0  0  0  0  0  0  0  0  0
  -25.3951  -11.0019   22.6403 O   0  0  0  0  0  0  0  0  0  0  0  0
  -23.2016  -28.8016   23.2565 O   0  0  0  0  0  0  0  0  0  0  0  0
  -20.8124  -30.1215   20.6594 O   0  0  0  0  0  0  0  0  0  0  0  0
  -22.0395  -25.8983   17.9695 O   0  0  0  0  0  0  0  0  0  0  0  0
  -24.2916  -18.9843   23.2063 O   0  0  0  0  0  0  0  0  0  0  0  0
  -30.8612  -11.5855   18.5505 O   0  0  0  0  0  0  0  0  0  0  0  0
  -28.6500  -26.9536   20.0309 O   0  0  0  0  0  0  0  0  0  1  0  0
  -29.4704  -25.9612   17.5399 O   0  0  0  0  0  0  0  0  0  0  0  0
  -35.4246  -12.9465   21.3302 F   0  0  0  0  0  0  0  0  0  0  0  0
  -32.4846   -9.6379   19.6523 F   0  0  0  0  0  0  0  0  0  0  0  0
  1  2  1  0  0  0  0
  1  5  2  0  0  0  0
  2  6  2  0  0  0  0
  3  8  2  0  0  0  0
  3 18  1  0  0  0  0
  4  9  1  0  0  0  0
  4 18  2  0  0  0  0
  5 20  1  0  0  0  0
  6 22  1  0  0  0  0
  7 10  2  0  0  0  0
  7 21  1  0  0  0  0
  8 26  1  0  0  0  0
  9 26  2  0  0  0  0
 10 27  1  0  0  0  0
 11 12  2  0  0  0  0
 11 28  1  0  0  0  0
 12 30  1  0  0  0  0
 13 23  1  0  0  0  0
 13 27  2  0  0  0  0
 14 24  1  0  0  0  0
 14 25  2  0  0  0  0
 15 24  2  0  0  0  0
 15 29  1  0  0  0  0
 16 25  1  0  0  0  0
 16 29  2  0  0  0  0
 17 30  2  0  0  0  0
 17 31  1  0  0  0  0
 18 32  1  0  0  0  0
 19 32  1  0  0  0  0
 19 33  2  0  0  0  0
 19 34  1  0  0  0  0
 20 22  2  0  0  0  0
 20 39  1  0  0  0  0
 21 23  2  0  0  0  0
 21 40  1  0  0  0  0
 22 52  1  0  0  0  0
 23 41  1  0  0  0  0
 24 56  1  0  0  0  0
 25 78  1  0  0  0  0
 26 89  1  0  0  0  0
 27 90  1  0  0  0  0
 28 31  2  0  0  0  0
 28 89  1  0  0  0  0
 29 91  1  0  0  0  0
 30 92  1  0  0  0  0
 31 93  1  0  0  0  0
 32 72  2  0  0  0  0
 33 73  1  0  0  0  0
 33 76  1  0  0  0  0
 34 77  1  0  0  0  0
 34 84  2  0  0  0  0
 35 53  1  0  0  0  0
 35 79  1  0  0  0  0
 35 85  2  0  0  0  0
 36 68  1  0  0  0  0
 36 74  1  0  0  0  0
 36 86  2  0  0  0  0
 37 69  1  0  0  0  0
 37 80  1  0  0  0  0
 37 87  2  0  0  0  0
 38 75  1  0  0  0  0
 38 81  1  0  0  0  0
 38 88  2  0  0  0  0
 39 42  1  0  0  0  0
 40 53  1  0  0  0  0
 41 74  1  0  0  0  0
 42 44  1  0  0  0  0
 43 45  1  0  0  0  0
 43 48  1  0  0  0  0
 44 52  1  0  0  0  0
 45 54  1  0  0  0  0
 46 50  1  0  0  0  0
 46 55  1  0  0  0  0
 47 51  1  0  0  0  0
 47 55  1  0  0  0  0
 48 75  1  0  0  0  0
 49 54  1  0  0  0  0
 49 75  1  0  0  0  0
 50 82  1  0  0  0  0
 51 82  1  0  0  0  0
 52 79  1  0  0  0  0
 53 74  1  0  0  0  0
 54 73  1  0  0  0  0
 55 81  1  0  0  0  0
 57 69  1  0  0  0  0
 58 70  1  0  0  0  0
 59 71  1  0  0  0  0
 60 71  1  0  0  0  0
 61 71  1  0  0  0  0
 62 81  1  0  0  0  0
 63 83  1  0  0  0  0
 64 65  1  0  0  0  0
 64 70  1  0  0  0  0
 65 82  1  0  0  0  0
 66 67  1  0  0  0  0
 66 90  1  0  0  0  0
 67 91  1  0  0  0  0
 68 71  1  0  0  0  0
 68 80  1  0  0  0  0
 69 83  1  0  0  0  0
 70 78  1  0  0  0  0
 72 73  1  0  0  0  0
M  CHG  2  82   1  83   1
M  ISO  4  38 100  66 101  81 100  90 101
M  END
> <Batch ID>
0150

> <Smiles>
CNC(C)C(=O)NC(C(=O)N1Cc2cc([101O:1][101CH2:1]COc3cc(C)cc(NC(C)CCN4CCC([100N:0](C)[100C:0](=O)N5CCCC(n6nc(-c7ccc(Oc8ccc(F)cc8F)cc7)c(C(N)=O)c6N)C5)CC4)c3)ccc2CC1C(=O)NC1CCCc2ccccc21)C(C)(C)C

> <Shape>
0.242

> <Color>
0.091

> <Negative vol penalty>
0.000

$$$$

  -OEChem-04052321413D

 86 95  0     1  0  0  0  0  0999 V2000
  -33.7701  -37.3830   26.8107 C   0  0  0  0  0  0  0  0  0  0  0  0
  -34.4790  -36.2175   26.5378 C   0  0  0  0  0  0  0  0  0  0  0  0
  -22.9467   -9.9306   20.0882 C   0  0  0  0  0  0  0  0  0  0  0  0
  -23.6465  -10.0980   22.3945 C   0  0  0  0  0  0  0  0  0  0  0  0
  -32.4393  -37.3085   27.2198 C   0  0  0  0  0  0  0  0  0  0  0  0
  -33.8577  -34.9766   26.6749 C   0  0  0  0  0  0  0  0  0  0  0  0
  -33.8269  -28.4036   23.8269 C   0  0  0  0  0  0  0  0  0  0  0  0
  -22.1555   -8.8274   20.4083 C   0  0  0  0  0  0  0  0  0  0  0  0
  -22.8553   -8.9948   22.7147 C   0  0  0  0  0  0  0  0  0  0  0  0
  -33.9356  -27.0659   24.2041 C   0  0  0  0  0  0  0  0  0  0  0  0
  -23.0407   -5.6306   22.4342 C   0  0  0  0  0  0  0  0  0  0  0  0
  -23.6000   -4.6467   23.2495 C   0  0  0  0  0  0  0  0  0  0  0  0
  -31.6090  -27.0626   24.8411 C   0  0  0  0  0  0  0  0  0  0  0  0
  -29.8266  -17.7433   22.4222 C   0  0  0  0  0  0  0  0  0  0  0  0
  -21.8621   -5.0157   24.8868 C   0  0  0  0  0  0  0  0  0  0  0  0
  -32.3494  -18.4207   21.6441 C   0  0  0  0  0  0  0  0  0  0  0  0
  -23.6923  -10.5659   21.0813 C   0  0  0  0  0  0  0  0  0  0  0  0
  -24.1279  -13.0600   20.7690 C   0  0  0  0  0  0  0  0  0  0  0  0
  -31.7985  -36.0666   27.3527 C   0  0  0  0  0  0  0  0  0  0  0  0
  -32.6091  -29.0852   23.9644 C   0  0  0  0  0  0  0  0  0  0  0  0
  -32.5175  -34.8854   27.0874 C   0  0  0  0  0  0  0  0  0  0  0  0
  -31.4867  -28.4082   24.4625 C   0  0  0  0  0  0  0  0  0  0  0  0
  -30.3235  -19.0020   22.7748 C   0  0  0  0  0  0  0  0  0  0  0  0
  -31.6192  -19.3420   22.3820 C   0  0  0  0  0  0  0  0  0  0  0  0
  -22.1098   -8.3595   21.7215 C   0  0  0  0  0  0  0  0  0  0  0  0
  -32.8274  -26.3959   24.7140 C   0  0  0  0  0  0  0  0  0  0  0  0
  -21.8922   -6.3071   22.8452 C   0  0  0  0  0  0  0  0  0  0  0  0
  -23.0107   -4.3392   24.4758 C   0  0  0  0  0  0  0  0  0  0  0  0
  -21.3029   -5.9996   24.0715 C   0  0  0  0  0  0  0  0  0  0  0  0
  -24.5102  -11.7053   20.7512 C   0  0  0  0  0  0  0  0  0  0  0  0
  -30.6410  -16.8904   21.6934 C   0  0  0  0  0  0  0  0  0  0  0  0
  -25.2554  -13.7401   20.3785 C   0  0  0  0  0  0  0  0  0  0  0  0
  -22.8663  -13.6508   21.1084 C   0  0  0  0  0  0  0  0  0  0  0  0
  -31.6270  -31.6104   25.6265 C   0  0  0  0  0  0  0  0  0  0  0  0
  -28.8924  -31.1693   23.9384 C   0  0  0  0  0  0  0  0  0  0  0  0
  -26.8803  -29.0408   22.1869 C   0  0  0  0  0  0  0  0  0  0  0  0
  -30.7493  -14.6110   20.6262 C   0  0  0  0  0  0  0  0  0  0  0  0
  -30.3728  -36.0341   27.8434 C   0  0  0  0  0  0  0  0  0  0  0  0
  -32.5013  -30.5205   23.5279 C   0  0  0  0  0  0  0  0  0  0  0  0
  -30.1514  -29.0889   24.6111 C   0  0  0  0  0  0  0  0  0  0  0  0
  -29.6760  -34.6974   27.6028 C   0  0  0  0  0  0  0  0  0  0  0  0
  -29.6106  -12.0520   18.4280 C   0  0  0  0  0  0  0  0  0  0  0  0
  -30.5779  -33.5418   28.0246 C   0  0  0  0  0  0  0  0  0  0  0  0
  -28.1507  -11.8451   18.8379 C   0  0  0  0  0  0  0  0  0  0  0  0
  -30.5018  -12.3465   19.6333 C   0  0  0  0  0  0  0  0  0  0  0  0
  -28.5869  -13.2448   20.8965 C   0  0  0  0  0  0  0  0  0  0  0  0
  -29.4650  -19.9702   23.5557 C   0  0  2  0  0  0  0  0  0  0  0  0
  -31.8709  -33.5218   27.2006 C   0  0  1  0  0  0  0  0  0  0  0  0
  -31.3452  -31.2619   24.1923 C   0  0  1  0  0  0  0  0  0  0  0  0
  -30.0438  -21.4039   23.4666 C   0  0  1  0  0  0  0  0  0  0  0  0
  -27.6394  -13.0095   19.7088 C   0  0  2  0  0  0  0  0  0  0  0  0
  -31.5752  -21.3375   23.6426 C   0  0  2  0  0  0  0  0  0  0  0  0
  -29.3400  -19.5096   25.0148 C   0  0  0  0  0  0  0  0  0  0  0  0
  -29.6258  -22.0700   22.1442 C   0  0  0  0  0  0  0  0  0  0  0  0
  -24.6927  -28.9600   20.9600 C   0  0  0  0  0  0  0  0  0  0  0  0
  -27.4032  -31.1279   26.6012 C   0  0  0  0  0  0  0  0  0  0  0  0
  -25.4459  -30.1174   25.4113 C   0  0  0  0  0  0  0  0  0  0  0  0
  -26.2481  -32.3933   24.7795 C   0  0  0  0  0  0  0  0  0  0  0  0
  -28.2024  -28.3131   19.6411 C   0  0  0  0  0  0  0  0  0  0  0  0
  -33.4302  -22.8414   24.3939 C   0  0  0  0  0  0  0  0  0  0  0  0
  -33.8791  -24.2893   24.3794 C   0  0  0  0  0  0  0  0  0  1  0  0
  -27.6268  -30.3720   24.1426 C   0  0  1  0  0  0  0  0  0  0  0  0
  -26.1923  -29.1835   20.8413 C   0  0  2  0  0  0  0  0  0  0  0  0
  -26.7065  -30.9901   25.2328 C   0  0  0  0  0  0  0  0  0  0  0  0
  -31.8930  -17.1986   21.2934 N   0  0  0  0  0  0  0  0  0  0  0  0
  -25.7812  -11.5331   20.3785 N   0  0  0  0  0  0  0  0  0  0  0  0
  -26.2073  -12.7885   20.1586 N   0  0  0  0  0  0  0  0  0  0  0  0
  -30.0982  -30.4945   24.1765 N   0  0  0  0  0  0  0  0  0  0  0  0
  -29.9577  -13.4635   20.4087 N   0  0  0  0  0  0  0  0  0  0  0  0
  -25.5155  -15.0534   20.2050 N   0  0  0  0  0  0  0  0  0  0  0  0
  -21.8139  -12.8067   21.4882 N   0  0  0  0  0  0  0  0  0  0  0  0
  -30.1146  -15.6208   21.3488 N   0  0  0  0  0  0  0  0  0  0  0  0
  -31.6244  -32.9675   25.8866 N   0  0  0  0  0  0  0  0  0  0  0  0
  -27.0020  -30.2547   22.8295 N   0  0  0  0  0  0  0  0  0  0  0  0
  -32.1127  -22.7300   23.7184 N   0  3  0  0  0  0  0  0  0  0  0  0
  -26.7398  -28.1927   19.8719 N   0  3  0  0  0  0  0  0  0  0  0  0
  -22.6732  -14.8893   21.0601 O   0  0  0  0  0  0  0  0  0  0  0  0
  -31.8303  -30.7143   26.4373 O   0  0  0  0  0  0  0  0  0  0  0  0
  -28.8142  -32.3451   23.5740 O   0  0  0  0  0  0  0  0  0  0  0  0
  -27.2674  -27.9601   22.6258 O   0  0  0  0  0  0  0  0  0  0  0  0
  -31.8955  -14.7030   20.1793 O   0  0  0  0  0  0  0  0  0  0  0  0
  -32.2098  -20.5466   22.6314 O   0  0  0  0  0  0  0  0  0  0  0  0
  -21.3377   -7.2831   22.0343 O   0  0  0  0  0  0  0  0  0  0  0  0
  -32.9310  -25.0903   25.0836 O   0  0  0  0  0  0  0  0  0  1  0  0
  -23.5470   -3.3933   25.2580 F   0  0  0  0  0  0  0  0  0  0  0  0
  -20.1987   -6.6453   24.4712 F   0  0  0  0  0  0  0  0  0  0  0  0
  1  2  1  0  0  0  0
  1  5  2  0  0  0  0
  2  6  2  0  0  0  0
  3  8  2  0  0  0  0
  3 17  1  0  0  0  0
  4  9  1  0  0  0  0
  4 17  2  0  0  0  0
  5 19  1  0  0  0  0
  6 21  1  0  0  0  0
  7 10  2  0  0  0  0
  7 20  1  0  0  0  0
  8 25  1  0  0  0  0
  9 25  2  0  0  0  0
 10 26  1  0  0  0  0
 11 12  2  0  0  0  0
 11 27  1  0  0  0  0
 12 28  1  0  0  0  0
 13 22  1  0  0  0  0
 13 26  2  0  0  0  0
 14 23  1  0  0  0  0
 14 31  2  0  0  0  0
 15 28  2  0  0  0  0
 15 29  1  0  0  0  0
 16 24  1  0  0  0  0
 16 65  2  0  0  0  0
 17 30  1  0  0  0  0
 18 30  1  0  0  0  0
 18 32  2  0  0  0  0
 18 33  1  0  0  0  0
 19 21  2  0  0  0  0
 19 38  1  0  0  0  0
 20 22  2  0  0  0  0
 20 39  1  0  0  0  0
 21 48  1  0  0  0  0
 22 40  1  0  0  0  0
 23 24  2  0  0  0  0
 23 47  1  0  0  0  0
 24 82  1  0  0  0  0
 25 83  1  0  0  0  0
 26 84  1  0  0  0  0
 27 29  2  0  0  0  0
 27 83  1  0  0  0  0
 28 85  1  0  0  0  0
 29 86  1  0  0  0  0
 30 66  2  0  0  0  0
 31 65  1  0  0  0  0
 31 72  1  0  0  0  0
 32 67  1  0  0  0  0
 32 70  1  0  0  0  0
 33 71  1  0  0  0  0
 33 77  2  0  0  0  0
 34 49  1  0  0  0  0
 34 73  1  0  0  0  0
 34 78  2  0  0  0  0
 35 62  1  0  0  0  0
 35 68  1  0  0  0  0
 35 79  2  0  0  0  0
 36 63  1  0  0  0  0
 36 74  1  0  0  0  0
 36 80  2  0  0  0  0
 37 69  1  0  0  0  0
 37 72  1  0  0  0  0
 37 81  2  0  0  0  0
 38 41  1  0  0  0  0
 39 49  1  0  0  0  0
 40 68  1  0  0  0  0
 41 43  1  0  0  0  0
 42 44  1  0  0  0  0
 42 45  1  0  0  0  0
 43 48  1  0  0  0  0
 44 51  1  0  0  0  0
 45 69  1  0  0  0  0
 46 51  1  0  0  0  0
 46 69  1  0  0  0  0
 47 50  1  0  0  0  0
 47 53  1  0  0  0  0
 48 73  1  0  0  0  0
 49 68  1  0  0  0  0
 50 52  1  0  0  0  0
 50 54  1  0  0  0  0
 51 67  1  0  0  0  0
 52 75  1  0  0  0  0
 52 82  1  0  0  0  0
 55 63  1  0  0  0  0
 56 64  1  0  0  0  0
 57 64  1  0  0  0  0
 58 64  1  0  0  0  0
 59 76  1  0  0  0  0
 60 61  1  0  0  0  0
 60 75  1  0  0  0  0
 61 84  1  0  0  0  0
 62 64  1  0  0  0  0
 62 74  1  0  0  0  0
 63 76  1  0  0  0  0
 66 67  1  0  0  0  0
M  CHG  2  75   1  76   1
M  ISO  4  37 100  61 101  72 100  84 101
M  END
> <Batch ID>
0150

> <Smiles>
CNC(C)C(=O)NC(C(=O)N1Cc2cc([101O:1][101CH2:1]CNC3Oc4cnc([100NH:0][100C:0](=O)N5CCCC(n6nc(-c7ccc(Oc8ccc(F)cc8F)cc7)c(C(N)=O)c6N)C5)cc4C(C)C3C)ccc2CC1C(=O)NC1CCCc2ccccc21)C(C)(C)C

> <Shape>
0.255

> <Color>
0.202

> <Negative vol penalty>
0.000

$$$$

  -OEChem-04052321413D

 89 99  0     1  0  0  0  0  0999 V2000
  -21.1669   -8.0202   25.5895 C   0  0  0  0  0  0  0  0  0  0  0  0
  -21.2841   -9.3531   25.2086 C   0  0  0  0  0  0  0  0  0  0  0  0
  -25.0039  -30.4562   23.0057 C   0  0  0  0  0  0  0  0  0  0  0  0
  -25.9909  -31.8875   21.3282 C   0  0  0  0  0  0  0  0  0  0  0  0
  -22.2980   -7.2061   25.6308 C   0  0  0  0  0  0  0  0  0  0  0  0
  -22.5328   -9.8730   24.8697 C   0  0  0  0  0  0  0  0  0  0  0  0
  -22.3846  -12.7049   20.6741 C   0  0  0  0  0  0  0  0  0  0  0  0
  -27.9835  -18.0435   21.5434 C   0  0  0  0  0  0  0  0  0  0  0  0
  -24.8527  -31.5536   23.8532 C   0  0  0  0  0  0  0  0  0  0  0  0
  -25.8397  -32.9850   22.1757 C   0  0  0  0  0  0  0  0  0  0  0  0
  -21.8866  -14.0012   20.7981 C   0  0  0  0  0  0  0  0  0  0  0  0
  -28.2613  -16.8181   22.1490 C   0  0  0  0  0  0  0  0  0  0  0  0
  -23.3561  -35.0673   23.1330 C   0  0  0  0  0  0  0  0  0  0  0  0
  -22.8502  -36.2446   22.5822 C   0  0  0  0  0  0  0  0  0  0  0  0
  -24.1417  -14.8561   20.8508 C   0  0  0  0  0  0  0  0  0  0  0  0
  -26.1135  -16.8773   23.2539 C   0  0  0  0  0  0  0  0  0  0  0  0
  -24.8757  -37.4058   23.2036 C   0  0  0  0  0  0  0  0  0  0  0  0
  -25.5730  -30.6231   21.7431 C   0  0  0  0  0  0  0  0  0  0  0  0
  -24.8055  -29.0147   19.9179 C   0  0  0  0  0  0  0  0  0  0  0  0
  -23.5598   -7.7138   25.2830 C   0  0  0  0  0  0  0  0  0  0  0  0
  -23.7673  -12.4731   20.6484 C   0  0  0  0  0  0  0  0  0  0  0  0
  -23.6821   -9.0653   24.9077 C   0  0  0  0  0  0  0  0  0  0  0  0
  -26.7708  -18.6859   21.7931 C   0  0  0  0  0  0  0  0  0  0  0  0
  -24.6547  -13.5562   20.7238 C   0  0  0  0  0  0  0  0  0  0  0  0
  -25.8358  -18.1028   22.6483 C   0  0  0  0  0  0  0  0  0  0  0  0
  -25.2706  -32.8180   23.4382 C   0  0  0  0  0  0  0  0  0  0  0  0
  -22.7651  -15.0768   20.8894 C   0  0  0  0  0  0  0  0  0  0  0  0
  -27.3263  -16.2350   23.0042 C   0  0  0  0  0  0  0  0  0  0  0  0
  -24.6218  -35.0591   23.7192 C   0  0  0  0  0  0  0  0  0  0  0  0
  -23.6099  -37.4139   22.6175 C   0  0  0  0  0  0  0  0  0  0  0  0
  -25.3816  -36.2283   23.7545 C   0  0  0  0  0  0  0  0  0  0  0  0
  -25.7299  -29.4897   20.8674 C   0  0  0  0  0  0  0  0  0  0  0  0
  -25.4234  -27.9265   19.3517 C   0  0  0  0  0  0  0  0  0  0  0  0
  -23.5046  -29.5126   19.5780 C   0  0  0  0  0  0  0  0  0  0  0  0
  -25.8087  -10.8764   22.4889 C   0  0  0  0  0  0  0  0  0  0  0  0
  -27.9171  -11.6451   20.1467 C   0  0  0  0  0  0  0  0  0  0  0  0
  -28.7688  -13.7353   17.5869 C   0  0  0  0  0  0  0  0  0  0  0  0
  -28.3950  -23.3317   19.6319 C   0  0  0  0  0  0  0  0  0  0  0  0
  -24.7610   -6.8079   25.3884 C   0  0  0  0  0  0  0  0  0  0  0  0
  -24.2883  -11.0713   20.4872 C   0  0  0  0  0  0  0  0  0  0  0  0
  -26.1477  -13.3626   20.6805 C   0  0  0  0  0  0  0  0  0  0  0  0
  -25.9896   -7.3374   24.6532 C   0  0  0  0  0  0  0  0  0  0  0  0
  -30.1882  -26.2862   19.6937 C   0  0  0  0  0  0  0  0  0  0  0  0
  -26.2076   -8.8131   24.9720 C   0  0  0  0  0  0  0  0  0  0  0  0
  -29.1201  -27.3547   19.9252 C   0  0  0  0  0  0  0  0  0  0  0  0
  -26.9174  -21.2071   22.0026 C   0  0  0  0  0  0  0  0  0  0  0  0
  -27.1437  -20.1118   19.7314 C   0  0  0  0  0  0  0  0  0  0  0  0
  -21.9935  -18.4581   22.3334 C   0  0  0  0  0  0  0  0  0  0  0  0
  -29.9206  -25.0530   20.5487 C   0  0  0  0  0  0  0  0  0  0  0  0
  -26.6628  -22.5472   21.3066 C   0  0  0  0  0  0  0  0  0  0  0  0
  -26.8587  -21.4673   19.0911 C   0  0  0  0  0  0  0  0  0  0  0  0
  -27.4897  -25.5095   20.5637 C   0  0  0  0  0  0  0  0  0  0  0  0
  -26.4917  -20.0180   21.1228 C   0  0  0  0  0  0  0  0  0  0  0  0
  -25.0156   -9.6594   24.5090 C   0  0  1  0  0  0  0  0  0  0  0  0
  -25.7192  -10.9043   20.9893 C   0  0  1  0  0  0  0  0  0  0  0  0
  -23.4429  -18.3598   21.9452 C   0  0  2  0  0  0  0  0  0  0  0  0
  -27.7080  -26.7795   19.7164 C   0  0  1  0  0  0  0  0  0  0  0  0
  -22.6411  -17.1083   22.1840 C   0  0  2  0  0  0  0  0  0  1  0  0
  -27.9116  -13.8752   25.6644 C   0  0  0  0  0  0  0  0  0  0  0  0
  -30.5684  -14.1326   15.8837 C   0  0  0  0  0  0  0  0  0  0  0  0
  -29.7102  -12.8188   22.3186 C   0  0  0  0  0  0  0  0  0  0  0  0
  -30.9844  -14.0124   20.5242 C   0  0  0  0  0  0  0  0  0  0  0  0
  -30.9194  -11.5189   20.5572 C   0  0  0  0  0  0  0  0  0  0  0  0
  -26.8858  -13.3484   15.3367 C   0  0  0  0  0  0  0  0  0  0  0  0
  -24.5314  -18.7726   22.9314 C   0  0  0  0  0  0  0  0  0  0  0  0
  -27.0103  -14.7992   24.8736 C   0  0  0  0  0  0  0  0  0  0  0  0
  -28.8485  -12.8040   19.8849 C   0  0  1  0  0  0  0  0  0  0  0  0
  -29.2378  -13.4545   16.1707 C   0  0  2  0  0  0  0  0  0  0  0  0
  -30.0876  -12.7923   20.8240 C   0  0  0  0  0  0  0  0  0  0  0  0
  -26.8498  -28.7627   20.9053 N   0  0  0  0  0  0  0  0  0  0  0  0
  -26.6330  -27.8198   19.9726 N   0  0  0  0  0  0  0  0  0  0  0  0
  -26.6083  -11.9726   20.5282 N   0  0  0  0  0  0  0  0  0  0  0  0
  -28.5695  -24.5393   20.3246 N   0  0  0  0  0  0  0  0  0  0  0  0
  -27.2719  -22.5616   19.9693 N   0  0  0  0  0  0  0  0  0  0  0  0
  -25.0445  -27.0600   18.3884 N   0  0  0  0  0  0  0  0  0  0  0  0
  -23.0223  -30.6398   20.2570 N   0  0  0  0  0  0  0  0  0  0  0  0
  -25.0695   -9.8684   23.0780 N   0  0  0  0  0  0  0  0  0  0  0  0
  -29.1752  -12.7521   18.4640 N   0  0  0  0  0  0  0  0  0  0  0  0
  -28.2356  -13.9501   15.1853 N   0  3  0  0  0  0  0  0  0  0  0  0
  -22.7844  -28.9641   18.7097 O   0  0  0  0  0  0  0  0  0  0  0  0
  -26.4984  -11.7070   23.0685 O   0  0  0  0  0  0  0  0  0  0  0  0
  -28.3334  -10.4920   20.0105 O   0  0  0  0  0  0  0  0  0  0  0  0
  -28.1110  -14.7296   17.8859 O   0  0  0  0  0  0  0  0  0  0  0  0
  -29.1947  -22.9631   18.7625 O   0  0  0  0  0  0  0  0  0  0  0  0
  -25.1231  -33.8892   24.2649 O   0  0  0  0  0  0  0  0  0  0  0  0
  -22.2746  -16.3615   21.0130 O   0  0  0  0  0  0  0  0  0  1  0  0
  -27.5974  -15.0394   23.5955 O   0  0  0  0  0  0  0  0  0  0  0  0
  -23.1246  -38.5441   22.0872 F   0  0  0  0  0  0  0  0  0  0  0  0
  -26.5988  -36.2264   24.3152 F   0  0  0  0  0  0  0  0  0  0  0  0
  1  2  1  0  0  0  0
  1  5  2  0  0  0  0
  2  6  2  0  0  0  0
  3  9  2  0  0  0  0
  3 18  1  0  0  0  0
  4 10  1  0  0  0  0
  4 18  2  0  0  0  0
  5 20  1  0  0  0  0
  6 22  1  0  0  0  0
  7 11  2  0  0  0  0
  7 21  1  0  0  0  0
  8 12  2  0  0  0  0
  8 23  1  0  0  0  0
  9 26  1  0  0  0  0
 10 26  2  0  0  0  0
 11 27  1  0  0  0  0
 12 28  1  0  0  0  0
 13 14  2  0  0  0  0
 13 29  1  0  0  0  0
 14 30  1  0  0  0  0
 15 24  1  0  0  0  0
 15 27  2  0  0  0  0
 16 25  1  0  0  0  0
 16 28  2  0  0  0  0
 17 30  2  0  0  0  0
 17 31  1  0  0  0  0
 18 32  1  0  0  0  0
 19 32  1  0  0  0  0
 19 33  2  0  0  0  0
 19 34  1  0  0  0  0
 20 22  2  0  0  0  0
 20 39  1  0  0  0  0
 21 24  2  0  0  0  0
 21 40  1  0  0  0  0
 22 54  1  0  0  0  0
 23 25  2  0  0  0  0
 23 53  1  0  0  0  0
 24 41  1  0  0  0  0
 25 65  1  0  0  0  0
 26 85  1  0  0  0  0
 27 86  1  0  0  0  0
 28 87  1  0  0  0  0
 29 31  2  0  0  0  0
 29 85  1  0  0  0  0
 30 88  1  0  0  0  0
 31 89  1  0  0  0  0
 32 70  2  0  0  0  0
 33 71  1  0  0  0  0
 33 75  1  0  0  0  0
 34 76  1  0  0  0  0
 34 80  2  0  0  0  0
 35 55  1  0  0  0  0
 35 77  1  0  0  0  0
 35 81  2  0  0  0  0
 36 67  1  0  0  0  0
 36 72  1  0  0  0  0
 36 82  2  0  0  0  0
 37 68  1  0  0  0  0
 37 78  1  0  0  0  0
 37 83  2  0  0  0  0
 38 73  1  0  0  0  0
 38 74  1  0  0  0  0
 38 84  2  0  0  0  0
 39 42  1  0  0  0  0
 40 55  1  0  0  0  0
 41 72  1  0  0  0  0
 42 44  1  0  0  0  0
 43 45  1  0  0  0  0
 43 49  1  0  0  0  0
 44 54  1  0  0  0  0
 45 57  1  0  0  0  0
 46 50  1  0  0  0  0
 46 53  1  0  0  0  0
 47 51  1  0  0  0  0
 47 53  1  0  0  0  0
 48 56  1  0  0  0  0
 48 58  1  0  0  0  0
 49 73  1  0  0  0  0
 50 74  1  0  0  0  0
 51 74  1  0  0  0  0
 52 57  1  0  0  0  0
 52 73  1  0  0  0  0
 54 77  1  0  0  0  0
 55 72  1  0  0  0  0
 56 58  1  0  0  0  0
 56 65  1  0  0  0  0
 57 71  1  0  0  0  0
 58 86  1  0  0  0  0
 59 66  1  0  0  0  0
 60 68  1  0  0  0  0
 61 69  1  0  0  0  0
 62 69  1  0  0  0  0
 63 69  1  0  0  0  0
 64 79  1  0  0  0  0
 66 87  1  0  0  0  0
 67 69  1  0  0  0  0
 67 78  1  0  0  0  0
 68 79  1  0  0  0  0
 70 71  1  0  0  0  0
M  CHG  1  79   1
M  ISO  4  38 100  58 101  74 100  86 101
M  END
> <Batch ID>
0150

> <Smiles>
CCOc1ccc(C2CC[100N:0]([100C:0](=O)N3CCCC(n4nc(-c5ccc(Oc6ccc(F)cc6F)cc5)c(C(N)=O)c4N)C3)CC2)c(CC2C[101CH:1]2[101O:1]c2ccc3c(c2)CN(C(=O)C(NC(=O)C(C)NC)C(C)(C)C)C(C(=O)NC2CCCc4ccccc42)C3)c1

> <Shape>
0.286

> <Color>
0.052

> <Negative vol penalty>
0.000

$$$$

  -OEChem-04052321413D

 89 98  0     1  0  0  0  0  0999 V2000
  -21.5569  -12.4581   20.7527 C   0  0  0  0  0  0  0  0  0  0  0  0
  -21.6542  -13.7666   21.2150 C   0  0  0  0  0  0  0  0  0  0  0  0
  -26.2220  -26.3606   14.5357 C   0  0  0  0  0  0  0  0  0  0  0  0
  -27.4580  -28.4220   14.7808 C   0  0  0  0  0  0  0  0  0  0  0  0
  -22.7123  -11.7416   20.4431 C   0  0  0  0  0  0  0  0  0  0  0  0
  -22.9071  -14.3591   21.3691 C   0  0  0  0  0  0  0  0  0  0  0  0
  -23.0591  -19.0831   19.5509 C   0  0  0  0  0  0  0  0  0  0  0  0
  -27.1980  -25.8792   13.6632 C   0  0  0  0  0  0  0  0  0  0  0  0
  -28.4340  -27.9405   13.9084 C   0  0  0  0  0  0  0  0  0  0  0  0
  -22.4957  -20.0866   20.3378 C   0  0  0  0  0  0  0  0  0  0  0  0
  -28.0514  -26.2769   10.4170 C   0  0  0  0  0  0  0  0  0  0  0  0
  -27.6217  -25.6505    9.2471 C   0  0  0  0  0  0  0  0  0  0  0  0
  -20.5614  -24.3681   22.1461 C   0  0  0  0  0  0  0  0  0  0  0  0
  -20.1815  -25.3127   24.3370 C   0  0  0  0  0  0  0  0  0  0  0  0
  -24.6952  -20.7079   21.1096 C   0  0  0  0  0  0  0  0  0  0  0  0
  -28.7522  -23.6232    9.9174 C   0  0  0  0  0  0  0  0  0  0  0  0
  -26.3519  -27.6321   15.0945 C   0  0  0  0  0  0  0  0  0  0  0  0
  -23.9775  -28.3255   15.7181 C   0  0  0  0  0  0  0  0  0  0  0  0
  -23.9795  -12.3289   20.5844 C   0  0  0  0  0  0  0  0  0  0  0  0
  -24.4461  -18.8769   19.5458 C   0  0  0  0  0  0  0  0  0  0  0  0
  -24.0805  -13.6493   21.0625 C   0  0  0  0  0  0  0  0  0  0  0  0
  -20.1806  -25.4437   22.9483 C   0  0  0  0  0  0  0  0  0  0  0  0
  -25.2739  -19.7027   20.3198 C   0  0  0  0  0  0  0  0  0  0  0  0
  -20.9429  -23.1613   22.7325 C   0  0  0  0  0  0  0  0  0  0  0  0
  -20.9438  -23.0303   24.1212 C   0  0  0  0  0  0  0  0  0  0  0  0
  -28.3040  -26.6691   13.3496 C   0  0  0  0  0  0  0  0  0  0  0  0
  -23.3135  -20.8973   21.1195 C   0  0  0  0  0  0  0  0  0  0  0  0
  -28.8315  -25.5765   11.3371 C   0  0  0  0  0  0  0  0  0  0  0  0
  -20.5631  -24.1060   24.9235 C   0  0  0  0  0  0  0  0  0  0  0  0
  -27.9721  -24.3237    8.9973 C   0  0  0  0  0  0  0  0  0  0  0  0
  -29.1819  -24.2497   11.0872 C   0  0  0  0  0  0  0  0  0  0  0  0
  -25.3438  -28.1302   15.9954 C   0  0  0  0  0  0  0  0  0  0  0  0
  -23.4547  -28.8100   16.8921 C   0  0  0  0  0  0  0  0  0  0  0  0
  -23.2463  -28.0899   14.5075 C   0  0  0  0  0  0  0  0  0  0  0  0
  -26.3592  -16.4701   20.3528 C   0  0  0  0  0  0  0  0  0  0  0  0
  -28.6571  -18.3924   19.1092 C   0  0  0  0  0  0  0  0  0  0  0  0
  -29.6707  -21.5510   18.3074 C   0  0  0  0  0  0  0  0  0  0  0  0
  -23.0034  -28.6463   22.4522 C   0  0  0  0  0  0  0  0  0  0  0  0
  -25.2020  -11.4989   20.2822 C   0  0  0  0  0  0  0  0  0  0  0  0
  -25.0406  -17.8075   18.6709 C   0  0  0  0  0  0  0  0  0  0  0  0
  -26.7707  -19.5356   20.3340 C   0  0  0  0  0  0  0  0  0  0  0  0
  -26.4742  -12.3261   20.1169 C   0  0  0  0  0  0  0  0  0  0  0  0
  -25.7519  -30.4528   21.0886 C   0  0  0  0  0  0  0  0  0  0  0  0
  -26.5953  -13.3497   21.2413 C   0  0  0  0  0  0  0  0  0  0  0  0
  -25.7816  -30.0210   19.6215 C   0  0  0  0  0  0  0  0  0  0  0  0
  -18.3074  -27.1779   22.6189 C   0  0  0  0  0  0  0  0  0  0  0  0
  -19.7124  -29.1491   22.5928 C   0  0  0  0  0  0  0  0  0  0  0  0
  -25.3508  -29.3012   22.0079 C   0  0  0  0  0  0  0  0  0  0  0  0
  -24.1160  -28.2011   20.1806 C   0  0  0  0  0  0  0  0  0  0  0  0
  -19.7657  -26.7516   22.3121 C   0  0  1  0  0  0  0  0  0  0  0  0
  -25.4204  -14.3350   21.2193 C   0  0  1  0  0  0  0  0  0  0  0  0
  -26.4197  -17.3519   19.1377 C   0  0  1  0  0  0  0  0  0  0  0  0
  -24.4609  -29.3432   19.2095 C   0  0  2  0  0  0  0  0  0  0  0  0
  -20.6404  -27.9450   22.7408 C   0  0  1  0  0  0  0  0  0  0  0  0
  -18.3884  -28.6188   23.1447 C   0  0  1  0  0  0  0  0  0  0  0  0
  -21.3528  -21.7392   24.7552 C   0  0  0  0  0  0  0  0  0  0  0  0
  -31.6135  -22.8102   17.3393 C   0  0  0  0  0  0  0  0  0  0  0  0
  -30.1707  -18.0744   21.7394 C   0  0  0  0  0  0  0  0  0  0  0  0
  -31.5661  -20.0507   21.0949 C   0  0  0  0  0  0  0  0  0  0  0  0
  -31.6057  -17.9878   19.6930 C   0  0  0  0  0  0  0  0  0  0  0  0
  -28.0417  -22.5612   16.0524 C   0  0  0  0  0  0  0  0  0  0  0  0
  -20.1554  -25.1466   27.0227 C   0  0  0  0  0  0  0  0  0  0  0  0
  -21.3468  -22.0190   21.8475 C   0  0  0  0  0  0  0  0  0  1  0  0
  -17.1896  -29.4666   22.7456 C   0  0  0  0  0  0  0  0  0  0  0  0
  -29.5593  -19.4721   19.6565 C   0  0  1  0  0  0  0  0  0  0  0  0
  -30.2913  -22.1195   17.0440 C   0  0  2  0  0  0  0  0  0  0  0  0
  -30.6971  -18.8984   20.5474 C   0  0  0  0  0  0  0  0  0  0  0  0
  -25.6686  -28.4636   17.2473 N   0  0  0  0  0  0  0  0  0  0  0  0
  -24.4990  -28.8734   17.7671 N   0  0  0  0  0  0  0  0  0  0  0  0
  -27.3037  -18.4720   19.4666 N   0  0  0  0  0  0  0  0  0  0  0  0
  -24.0896  -28.7030   21.5634 N   0  0  0  0  0  0  0  0  0  0  0  0
  -22.2082  -29.1839   17.2510 N   0  0  0  0  0  0  0  0  0  0  0  0
  -23.1449  -29.1311   13.5748 N   0  0  0  0  0  0  0  0  0  0  0  0
  -25.6088  -15.3230   20.1787 N   0  0  0  0  0  0  0  0  0  0  0  0
  -30.0290  -20.2342   18.5045 N   0  0  0  0  0  0  0  0  0  0  0  0
  -21.8438  -28.0694   21.9490 N   0  0  0  0  0  0  0  0  0  0  0  0
  -29.3727  -23.1114   16.4167 N   0  3  0  0  0  0  0  0  0  0  0  0
  -22.6852  -26.9939   14.2675 O   0  0  0  0  0  0  0  0  0  0  0  0
  -26.9508  -16.8050   21.3724 O   0  0  0  0  0  0  0  0  0  0  0  0
  -29.1343  -17.5150   18.3853 O   0  0  0  0  0  0  0  0  0  0  0  0
  -28.9440  -22.2103   19.0475 O   0  0  0  0  0  0  0  0  0  0  0  0
  -23.0610  -29.0826   23.6069 O   0  0  0  0  0  0  0  0  0  0  0  0
  -18.4540  -28.5719   24.5712 O   0  0  0  0  0  0  0  0  0  0  0  0
  -16.0151  -28.8658   23.2633 O   0  0  0  0  0  0  0  0  0  0  0  0
  -29.2567  -26.1995   12.4984 O   0  0  0  0  0  0  0  0  0  0  0  0
  -20.5588  -23.9969   26.2816 O   0  0  0  0  0  0  0  0  0  0  0  0
  -22.7661  -21.8772   21.8891 O   0  0  0  0  0  0  0  0  0  1  0  0
  -27.5581  -23.7219    7.8746 F   0  0  0  0  0  0  0  0  0  0  0  0
  -29.9302  -23.5713   11.9680 F   0  0  0  0  0  0  0  0  0  0  0  0
  1  2  1  0  0  0  0
  1  5  2  0  0  0  0
  2  6  2  0  0  0  0
  3  8  2  0  0  0  0
  3 17  1  0  0  0  0
  4  9  1  0  0  0  0
  4 17  2  0  0  0  0
  5 19  1  0  0  0  0
  6 21  1  0  0  0  0
  7 10  2  0  0  0  0
  7 20  1  0  0  0  0
  8 26  1  0  0  0  0
  9 26  2  0  0  0  0
 10 27  1  0  0  0  0
 11 12  2  0  0  0  0
 11 28  1  0  0  0  0
 12 30  1  0  0  0  0
 13 22  2  0  0  0  0
 13 24  1  0  0  0  0
 14 22  1  0  0  0  0
 14 29  2  0  0  0  0
 15 23  1  0  0  0  0
 15 27  2  0  0  0  0
 16 30  2  0  0  0  0
 16 31  1  0  0  0  0
 17 32  1  0  0  0  0
 18 32  1  0  0  0  0
 18 33  2  0  0  0  0
 18 34  1  0  0  0  0
 19 21  2  0  0  0  0
 19 39  1  0  0  0  0
 20 23  2  0  0  0  0
 20 40  1  0  0  0  0
 21 51  1  0  0  0  0
 22 50  1  0  0  0  0
 23 41  1  0  0  0  0
 24 25  2  0  0  0  0
 24 63  1  0  0  0  0
 25 29  1  0  0  0  0
 25 56  1  0  0  0  0
 26 85  1  0  0  0  0
 27 87  1  0  0  0  0
 28 31  2  0  0  0  0
 28 85  1  0  0  0  0
 29 86  1  0  0  0  0
 30 88  1  0  0  0  0
 31 89  1  0  0  0  0
 32 68  2  0  0  0  0
 33 69  1  0  0  0  0
 33 72  1  0  0  0  0
 34 73  1  0  0  0  0
 34 78  2  0  0  0  0
 35 52  1  0  0  0  0
 35 74  1  0  0  0  0
 35 79  2  0  0  0  0
 36 65  1  0  0  0  0
 36 70  1  0  0  0  0
 36 80  2  0  0  0  0
 37 66  1  0  0  0  0
 37 75  1  0  0  0  0
 37 81  2  0  0  0  0
 38 71  1  0  0  0  0
 38 76  1  0  0  0  0
 38 82  2  0  0  0  0
 39 42  1  0  0  0  0
 40 52  1  0  0  0  0
 41 70  1  0  0  0  0
 42 44  1  0  0  0  0
 43 45  1  0  0  0  0
 43 48  1  0  0  0  0
 44 51  1  0  0  0  0
 45 53  1  0  0  0  0
 46 50  1  0  0  0  0
 46 55  1  0  0  0  0
 47 54  1  0  0  0  0
 47 55  1  0  0  0  0
 48 71  1  0  0  0  0
 49 53  1  0  0  0  0
 49 71  1  0  0  0  0
 50 54  1  0  0  0  0
 51 74  1  0  0  0  0
 52 70  1  0  0  0  0
 53 69  1  0  0  0  0
 54 76  1  0  0  0  0
 55 64  1  0  0  0  0
 55 83  1  0  0  0  0
 57 66  1  0  0  0  0
 58 67  1  0  0  0  0
 59 67  1  0  0  0  0
 60 67  1  0  0  0  0
 61 77  1  0  0  0  0
 62 86  1  0  0  0  0
 63 87  1  0  0  0  0
 64 84  1  0  0  0  0
 65 67  1  0  0  0  0
 65 75  1  0  0  0  0
 66 77  1  0  0  0  0
 68 69  1  0  0  0  0
M  CHG  1  77   1
M  ISO  4  38 100  63 101  76 100  87 101
M  END
> <Batch ID>
0150

> <Smiles>
CNC(C)C(=O)NC(C(=O)N1Cc2cc([101O:1][101CH2:1]c3cc(C4CC(O)(CO)CC4[100NH:0][100C:0](=O)N4CCCC(n5nc(-c6ccc(Oc7ccc(F)cc7F)cc6)c(C(N)=O)c5N)C4)cc(OC)c3C)ccc2CC1C(=O)NC1CCCc2ccccc21)C(C)(C)C

> <Shape>
0.195

> <Color>
0.085

> <Negative vol penalty>
0.000

$$$$

  -OEChem-04052321413D

 87 97  0     1  0  0  0  0  0999 V2000
  -27.0697  -37.5626   24.3395 C   0  0  0  0  0  0  0  0  0  0  0  0
  -27.7695  -36.5751   23.6536 C   0  0  0  0  0  0  0  0  0  0  0  0
  -23.6340  -10.5138   22.3945 C   0  0  0  0  0  0  0  0  0  0  0  0
  -24.4884   -8.6362   21.1368 C   0  0  0  0  0  0  0  0  0  0  0  0
  -25.9338  -37.2271   25.0752 C   0  0  0  0  0  0  0  0  0  0  0  0
  -27.3344  -35.2512   23.7038 C   0  0  0  0  0  0  0  0  0  0  0  0
  -27.0635  -29.3086   19.7128 C   0  0  0  0  0  0  0  0  0  0  0  0
  -22.4925   -9.7794   22.7155 C   0  0  0  0  0  0  0  0  0  0  0  0
  -23.3468   -7.9017   21.4579 C   0  0  0  0  0  0  0  0  0  0  0  0
  -27.4026  -27.9574   19.7685 C   0  0  0  0  0  0  0  0  0  0  0  0
  -22.1675   -6.1649   24.1061 C   0  0  0  0  0  0  0  0  0  0  0  0
  -22.3433   -4.8443   24.5194 C   0  0  0  0  0  0  0  0  0  0  0  0
  -25.3818  -27.5075   21.0067 C   0  0  0  0  0  0  0  0  0  0  0  0
  -28.2423  -21.6876   19.0243 C   0  0  0  0  0  0  0  0  0  0  0  0
  -21.0005   -4.0837   22.6605 C   0  0  0  0  0  0  0  0  0  0  0  0
  -24.6320   -9.9422   21.6051 C   0  0  0  0  0  0  0  0  0  0  0  0
  -27.0155  -10.7616   21.9992 C   0  0  0  0  0  0  0  0  0  0  0  0
  -25.4790  -35.9000   25.1266 C   0  0  0  0  0  0  0  0  0  0  0  0
  -25.8845  -29.7719   20.3141 C   0  0  0  0  0  0  0  0  0  0  0  0
  -26.1922  -34.8974   24.4419 C   0  0  0  0  0  0  0  0  0  0  0  0
  -25.0287  -28.8647   20.9550 C   0  0  0  0  0  0  0  0  0  0  0  0
  -28.6244  -21.1753   20.2591 C   0  0  0  0  0  0  0  0  0  0  0  0
  -22.3488   -8.4734   22.2472 C   0  0  0  0  0  0  0  0  0  0  0  0
  -26.5631  -27.0571   20.4180 C   0  0  0  0  0  0  0  0  0  0  0  0
  -21.4081   -6.4449   22.9700 C   0  0  0  0  0  0  0  0  0  0  0  0
  -21.7598   -3.8037   23.7966 C   0  0  0  0  0  0  0  0  0  0  0  0
  -28.0686  -23.0585   18.8702 C   0  0  0  0  0  0  0  0  0  0  0  0
  -20.8246   -5.4043   22.2472 C   0  0  0  0  0  0  0  0  0  0  0  0
  -25.8112  -10.7005   21.2727 C   0  0  0  0  0  0  0  0  0  0  0  0
  -28.8187  -22.0689   21.3000 C   0  0  0  0  0  0  0  0  0  0  0  0
  -28.2876  -23.8678   19.9734 C   0  0  0  0  0  0  0  0  0  0  0  0
  -27.8128  -11.6108   21.2715 C   0  0  0  0  0  0  0  0  0  0  0  0
  -27.3807  -10.1090   23.2225 C   0  0  0  0  0  0  0  0  0  0  0  0
  -25.2132  -31.8152   22.6547 C   0  0  0  0  0  0  0  0  0  0  0  0
  -22.1530  -31.2638   21.7311 C   0  0  0  0  0  0  0  0  0  0  0  0
  -19.9159  -29.1834   20.2097 C   0  0  0  0  0  0  0  0  0  0  0  0
  -28.6649  -16.1568   18.3341 C   0  0  0  0  0  0  0  0  0  0  0  0
  -24.2734  -35.5780   25.9736 C   0  0  0  0  0  0  0  0  0  0  0  0
  -25.5197  -31.2282   20.2221 C   0  0  0  0  0  0  0  0  0  0  0  0
  -23.7414  -29.3081   21.5989 C   0  0  0  0  0  0  0  0  0  0  0  0
  -23.6630  -34.2122   25.6701 C   0  0  0  0  0  0  0  0  0  0  0  0
  -27.2381  -13.5113   16.6272 C   0  0  0  0  0  0  0  0  0  0  0  0
  -24.7521  -33.1475   25.5863 C   0  0  0  0  0  0  0  0  0  0  0  0
  -28.1681  -21.0941   23.6023 C   0  0  0  0  0  0  0  0  0  0  0  0
  -28.8940  -22.3764   23.8648 C   0  0  0  0  0  0  0  0  0  0  0  0
  -26.8346  -12.5391   17.7355 C   0  0  0  0  0  0  0  0  0  0  0  0
  -27.5084  -18.9011   20.1912 C   0  0  0  0  0  0  0  0  0  0  0  0
  -29.9421  -19.1354   19.5342 C   0  0  0  0  0  0  0  0  0  0  0  0
  -26.9403  -14.9511   17.0293 C   0  0  0  0  0  0  0  0  0  0  0  0
  -27.7150  -17.3904   20.3332 C   0  0  0  0  0  0  0  0  0  0  0  0
  -30.0974  -17.6284   19.7165 C   0  0  0  0  0  0  0  0  0  0  0  0
  -27.1951  -14.4036   19.4279 C   0  0  0  0  0  0  0  0  0  0  0  0
  -28.8146  -19.6799   20.4298 C   0  0  0  0  0  0  0  0  0  0  0  0
  -25.7373  -33.4541   24.4519 C   0  0  1  0  0  0  0  0  0  0  0  0
  -29.2299  -21.5625   22.6447 C   0  0  0  0  0  0  0  0  0  0  0  0
  -24.5507  -31.6716   21.3138 C   0  0  1  0  0  0  0  0  0  0  0  0
  -27.4815  -12.9296   19.0762 C   0  0  1  0  0  0  0  0  0  0  0  0
  -17.4795  -28.9872   19.6416 C   0  0  0  0  0  0  0  0  0  0  0  0
  -21.5345  -30.5639   24.6358 C   0  0  0  0  0  0  0  0  0  0  0  0
  -19.4136  -29.4887   23.8523 C   0  0  0  0  0  0  0  0  0  0  0  0
  -19.7778  -31.9305   23.4953 C   0  0  0  0  0  0  0  0  0  0  0  0
  -20.4815  -29.0894   17.3062 C   0  0  0  0  0  0  0  0  0  0  0  0
  -28.1112  -25.3442   19.8474 C   0  0  0  0  0  0  0  0  0  1  0  0
  -21.0847  -30.2670   22.1108 C   0  0  1  0  0  0  0  0  0  0  0  0
  -18.8484  -29.4447   19.1625 C   0  0  2  0  0  0  0  0  0  0  0  0
  -20.4778  -30.5542   23.5132 C   0  0  0  0  0  0  0  0  0  0  0  0
  -25.8367  -11.4513   20.1682 N   0  0  0  0  0  0  0  0  0  0  0  0
  -28.6596  -23.4068   21.1886 N   0  0  0  0  0  0  0  0  0  0  0  0
  -27.0666  -11.9921   20.1954 N   0  0  0  0  0  0  0  0  0  0  0  0
  -23.4318  -30.7431   21.4876 N   0  0  0  0  0  0  0  0  0  0  0  0
  -27.5684  -15.2819   18.3082 N   0  0  0  0  0  0  0  0  0  0  0  0
  -28.8287  -16.9371   19.4885 N   0  0  0  0  0  0  0  0  0  0  0  0
  -29.0724  -12.0610   21.4535 N   0  0  0  0  0  0  0  0  0  0  0  0
  -26.4419   -9.2702   23.8384 N   0  0  0  0  0  0  0  0  0  0  0  0
  -25.1630  -33.0951   23.1729 N   0  0  0  0  0  0  0  0  0  0  0  0
  -20.1109  -30.2785   21.0246 N   0  0  0  0  0  0  0  0  0  0  0  0
  -19.1715  -28.7194   17.9014 N   0  3  0  0  0  0  0  0  0  0  0  0
  -28.5004  -10.2780   23.7622 O   0  0  0  0  0  0  0  0  0  0  0  0
  -25.7304  -30.8367   23.1809 O   0  0  0  0  0  0  0  0  0  0  0  0
  -21.8617  -32.4595   21.6464 O   0  0  0  0  0  0  0  0  0  0  0  0
  -20.5142  -28.1135   20.2986 O   0  0  0  0  0  0  0  0  0  0  0  0
  -29.4520  -16.2362   17.3826 O   0  0  0  0  0  0  0  0  0  0  0  0
  -21.2351   -7.7564   22.5605 O   0  0  0  0  0  0  0  0  0  0  0  0
  -26.8943  -25.7286   20.4748 O   0  0  0  0  0  0  0  0  0  1  0  0
  -21.9300   -2.5356   24.1928 F   0  0  0  0  0  0  0  0  0  0  0  0
  -27.7011  -23.5697   17.6889 F   0  0  0  0  0  0  0  0  0  0  0  0
  -20.0950   -5.6670   21.1543 F   0  0  0  0  0  0  0  0  0  0  0  0
  1  2  1  0  0  0  0
  1  5  2  0  0  0  0
  2  6  2  0  0  0  0
  3  8  2  0  0  0  0
  3 16  1  0  0  0  0
  4  9  1  0  0  0  0
  4 16  2  0  0  0  0
  5 18  1  0  0  0  0
  6 20  1  0  0  0  0
  7 10  2  0  0  0  0
  7 19  1  0  0  0  0
  8 23  1  0  0  0  0
  9 23  2  0  0  0  0
 10 24  1  0  0  0  0
 11 12  2  0  0  0  0
 11 25  1  0  0  0  0
 12 26  1  0  0  0  0
 13 21  1  0  0  0  0
 13 24  2  0  0  0  0
 14 22  2  0  0  0  0
 14 27  1  0  0  0  0
 15 26  2  0  0  0  0
 15 28  1  0  0  0  0
 16 29  1  0  0  0  0
 17 29  1  0  0  0  0
 17 32  2  0  0  0  0
 17 33  1  0  0  0  0
 18 20  2  0  0  0  0
 18 38  1  0  0  0  0
 19 21  2  0  0  0  0
 19 39  1  0  0  0  0
 20 54  1  0  0  0  0
 21 40  1  0  0  0  0
 22 30  1  0  0  0  0
 22 53  1  0  0  0  0
 23 83  1  0  0  0  0
 24 84  1  0  0  0  0
 25 28  2  0  0  0  0
 25 83  1  0  0  0  0
 26 85  1  0  0  0  0
 27 31  2  0  0  0  0
 27 86  1  0  0  0  0
 28 87  1  0  0  0  0
 29 67  2  0  0  0  0
 30 55  1  0  0  0  0
 30 68  2  0  0  0  0
 31 63  1  0  0  0  0
 31 68  1  0  0  0  0
 32 69  1  0  0  0  0
 32 73  1  0  0  0  0
 33 74  1  0  0  0  0
 33 78  2  0  0  0  0
 34 56  1  0  0  0  0
 34 75  1  0  0  0  0
 34 79  2  0  0  0  0
 35 64  1  0  0  0  0
 35 70  1  0  0  0  0
 35 80  2  0  0  0  0
 36 65  1  0  0  0  0
 36 76  1  0  0  0  0
 36 81  2  0  0  0  0
 37 71  1  0  0  0  0
 37 72  1  0  0  0  0
 37 82  2  0  0  0  0
 38 41  1  0  0  0  0
 39 56  1  0  0  0  0
 40 70  1  0  0  0  0
 41 43  1  0  0  0  0
 42 46  1  0  0  0  0
 42 49  1  0  0  0  0
 43 54  1  0  0  0  0
 44 45  1  0  0  0  0
 44 55  1  0  0  0  0
 45 55  1  0  0  0  0
 46 57  1  0  0  0  0
 47 50  1  0  0  0  0
 47 53  1  0  0  0  0
 48 51  1  0  0  0  0
 48 53  1  0  0  0  0
 49 71  1  0  0  0  0
 50 72  1  0  0  0  0
 51 72  1  0  0  0  0
 52 57  1  0  0  0  0
 52 71  1  0  0  0  0
 54 75  1  0  0  0  0
 56 70  1  0  0  0  0
 57 69  1  0  0  0  0
 58 65  1  0  0  0  0
 59 66  1  0  0  0  0
 60 66  1  0  0  0  0
 61 66  1  0  0  0  0
 62 77  1  0  0  0  0
 63 84  1  0  0  0  0
 64 66  1  0  0  0  0
 64 76  1  0  0  0  0
 65 77  1  0  0  0  0
 67 69  1  0  0  0  0
M  CHG  1  77   1
M  ISO  4  37 100  63 101  72 100  84 101
M  END
> <Batch ID>
0150

> <Smiles>
CNC(C)C(=O)NC(C(=O)N1Cc2cc([101O:1][101CH2:1]c3nc(C4CC4)c(C4CC[100N:0]([100C:0](=O)N5CCCC(n6nc(-c7ccc(Oc8ccc(F)cc8F)cc7)c(C(N)=O)c6N)C5)CC4)cc3F)ccc2CC1C(=O)NC1CCCc2ccccc21)C(C)(C)C

> <Shape>
0.326

> <Color>
0.088

> <Negative vol penalty>
0.000

$$$$

  -OEChem-04052321413D

 87 96  0     1  0  0  0  0  0999 V2000
  -18.5278  -25.6791   25.6882 C   0  0  0  0  0  0  0  0  0  0  0  0
  -19.9072  -25.6794   25.8689 C   0  0  0  0  0  0  0  0  0  0  0  0
  -25.5374  -14.2791   21.5144 C   0  0  0  0  0  0  0  0  0  0  0  0
  -26.0932  -13.3645   19.3484 C   0  0  0  0  0  0  0  0  0  0  0  0
  -17.9660  -26.3735   24.6177 C   0  0  0  0  0  0  0  0  0  0  0  0
  -20.7257  -26.3731   24.9783 C   0  0  0  0  0  0  0  0  0  0  0  0
  -25.9310  -29.3194   26.2936 C   0  0  0  0  0  0  0  0  0  0  0  0
  -24.2625  -13.7208   21.4230 C   0  0  0  0  0  0  0  0  0  0  0  0
  -24.8183  -12.8061   19.2570 C   0  0  0  0  0  0  0  0  0  0  0  0
  -27.2715  -28.9572   26.1677 C   0  0  0  0  0  0  0  0  0  0  0  0
  -20.9835  -12.2321   21.9199 C   0  0  0  0  0  0  0  0  0  0  0  0
  -20.4809  -11.5757   23.0434 C   0  0  0  0  0  0  0  0  0  0  0  0
  -27.3745  -30.0991   24.0453 C   0  0  0  0  0  0  0  0  0  0  0  0
  -28.4396  -24.0574   24.4302 C   0  0  0  0  0  0  0  0  0  0  0  0
  -29.8915  -22.7312   22.9951 C   0  0  0  0  0  0  0  0  0  0  0  0
  -22.3335  -10.0267   22.9670 C   0  0  0  0  0  0  0  0  0  0  0  0
  -26.4528  -14.1010   20.4770 C   0  0  0  0  0  0  0  0  0  0  0  0
  -28.9220  -14.0823   21.1175 C   0  0  0  0  0  0  0  0  0  0  0  0
  -18.7773  -27.0841   23.7191 C   0  0  0  0  0  0  0  0  0  0  0  0
  -25.2982  -30.0662   25.2894 C   0  0  0  0  0  0  0  0  0  0  0  0
  -20.1743  -27.0766   23.8939 C   0  0  0  0  0  0  0  0  0  0  0  0
  -26.0267  -30.4718   24.1620 C   0  0  0  0  0  0  0  0  0  0  0  0
  -27.4861  -22.6692   22.7359 C   0  0  0  0  0  0  0  0  0  0  0  0
  -29.7214  -23.6386   24.0449 C   0  0  0  0  0  0  0  0  0  0  0  0
  -27.3091  -23.5745   23.7705 C   0  0  0  0  0  0  0  0  0  0  0  0
  -28.7611  -22.2534   22.3483 C   0  0  0  0  0  0  0  0  0  0  0  0
  -23.9029  -12.9842   20.2944 C   0  0  0  0  0  0  0  0  0  0  0  0
  -27.9926  -29.3446   25.0421 C   0  0  0  0  0  0  0  0  0  0  0  0
  -22.1610  -11.7858   21.3199 C   0  0  0  0  0  0  0  0  0  0  0  0
  -21.1560  -10.4731   23.5670 C   0  0  0  0  0  0  0  0  0  0  0  0
  -22.8360  -10.6831   21.8435 C   0  0  0  0  0  0  0  0  0  0  0  0
  -27.7698  -14.6780   20.5705 C   0  0  0  0  0  0  0  0  0  0  0  0
  -29.9034  -15.0314   20.9676 C   0  0  0  0  0  0  0  0  0  0  0  0
  -29.0902  -12.7867   21.7082 C   0  0  0  0  0  0  0  0  0  0  0  0
  -22.8465  -29.5653   23.3293 C   0  0  0  0  0  0  0  0  0  0  0  0
  -23.3535  -32.6683   22.5317 C   0  0  0  0  0  0  0  0  0  0  0  0
  -25.5182  -35.3018   22.3704 C   0  0  0  0  0  0  0  0  0  0  0  0
  -29.7366  -20.9795   20.4499 C   0  0  0  0  0  0  0  0  0  0  0  0
  -18.1279  -27.7808   22.5496 C   0  0  0  0  0  0  0  0  0  0  0  0
  -23.8590  -30.4717   25.4528 C   0  0  0  0  0  0  0  0  0  0  0  0
  -26.4304  -22.0796   21.8574 C   0  0  0  0  0  0  0  0  0  0  0  0
  -25.3993  -31.2915   23.0653 C   0  0  0  0  0  0  0  0  0  0  0  0
  -19.0362  -28.8004   21.8672 C   0  0  0  0  0  0  0  0  0  0  0  0
  -31.2046  -18.6883   18.2002 C   0  0  0  0  0  0  0  0  0  0  0  0
  -20.4230  -28.2091   21.6354 C   0  0  0  0  0  0  0  0  0  0  0  0
  -30.5798  -17.3467   18.5733 C   0  0  0  0  0  0  0  0  0  0  0  0
  -27.2318  -21.0375   21.0669 C   0  0  0  0  0  0  0  0  0  0  0  0
  -30.1818  -19.8106   18.3137 C   0  0  0  0  0  0  0  0  0  0  0  0
  -28.9576  -18.5909   20.0952 C   0  0  0  0  0  0  0  0  0  0  0  0
  -21.0936  -27.8378   22.9635 C   0  0  1  0  0  0  0  0  0  0  0  0
  -23.1752  -30.7949   24.1279 C   0  0  1  0  0  0  0  0  0  0  0  0
  -29.9472  -17.4139   19.9721 C   0  0  1  0  0  0  0  0  0  0  0  0
  -25.7623  -25.5545   23.9727 C   0  0  0  0  0  0  0  0  0  0  0  0
  -25.6061  -23.6588   25.6271 C   0  0  0  0  0  0  0  0  0  0  0  0
  -25.6545  -37.6975   21.6360 C   0  0  0  0  0  0  0  0  0  0  0  0
  -23.5059  -31.7650   19.6213 C   0  0  0  0  0  0  0  0  0  0  0  0
  -24.5633  -33.9655   19.0664 C   0  0  0  0  0  0  0  0  0  0  0  0
  -22.2464  -33.8942   19.9882 C   0  0  0  0  0  0  0  0  0  0  0  0
  -26.1428  -36.2274   25.1112 C   0  0  0  0  0  0  0  0  0  0  0  0
  -30.9169  -24.1646   24.7677 C   0  0  0  0  0  0  0  0  0  0  0  0
  -31.4974  -25.4450   24.1670 C   0  0  0  0  0  0  0  0  0  0  0  0
  -30.9498  -27.8178   23.6113 C   0  0  0  0  0  0  0  0  0  0  0  0
  -29.8007  -28.8064   23.5939 C   0  0  0  0  0  0  0  0  0  1  0  0
  -25.9525  -24.0384   24.1740 C   0  0  0  0  0  0  0  0  0  0  0  0
  -24.2013  -33.3843   21.5082 C   0  0  1  0  0  0  0  0  0  0  0  0
  -25.3730  -36.7524   22.7937 C   0  0  2  0  0  0  0  0  0  0  0  0
  -23.6408  -33.2352   20.0656 C   0  0  0  0  0  0  0  0  0  0  0  0
  -27.9966  -15.9103   20.1078 N   0  0  0  0  0  0  0  0  0  0  0  0
  -29.3027  -16.0966   20.3638 N   0  0  0  0  0  0  0  0  0  0  0  0
  -28.6706  -21.3318   21.2805 N   0  0  0  0  0  0  0  0  0  0  0  0
  -23.9878  -31.6578   23.2681 N   0  0  0  0  0  0  0  0  0  0  0  0
  -29.5614  -19.8486   19.6387 N   0  0  0  0  0  0  0  0  0  0  0  0
  -31.2130  -15.0504   21.2948 N   0  0  0  0  0  0  0  0  0  0  0  0
  -27.9782  -11.9368   21.7826 N   0  0  0  0  0  0  0  0  0  0  0  0
  -21.6094  -29.0213   23.6175 N   0  0  0  0  0  0  0  0  0  0  0  0
  -24.3143  -34.7650   21.9655 N   0  0  0  0  0  0  0  0  0  0  0  0
  -26.3222  -37.0669   23.8987 N   0  3  0  0  0  0  0  0  0  0  0  0
  -30.4646  -26.5096   24.1293 N   0  3  0  0  0  0  0  0  0  0  0  0
  -30.1901  -12.4006   22.1716 O   0  0  0  0  0  0  0  0  0  0  0  0
  -23.6549  -29.1422   22.5112 O   0  0  0  0  0  0  0  0  0  0  0  0
  -22.1740  -32.9985   22.6776 O   0  0  0  0  0  0  0  0  0  0  0  0
  -26.5927  -34.7057   22.3928 O   0  0  0  0  0  0  0  0  0  0  0  0
  -30.7657  -21.6615   20.3687 O   0  0  0  0  0  0  0  0  0  0  0  0
  -22.6590  -12.4390   20.2050 O   0  0  0  0  0  0  0  0  0  0  0  0
  -29.3103  -28.9892   24.9155 O   0  0  0  0  0  0  0  0  0  1  0  0
  -20.6741   -9.8438   24.6468 F   0  0  0  0  0  0  0  0  0  0  0  0
  -23.9683  -10.2505   21.2721 F   0  0  0  0  0  0  0  0  0  0  0  0
  1  2  1  0  0  0  0
  1  5  2  0  0  0  0
  2  6  2  0  0  0  0
  3  8  2  0  0  0  0
  3 17  1  0  0  0  0
  4  9  1  0  0  0  0
  4 17  2  0  0  0  0
  5 19  1  0  0  0  0
  6 21  1  0  0  0  0
  7 10  2  0  0  0  0
  7 20  1  0  0  0  0
  8 27  1  0  0  0  0
  9 27  2  0  0  0  0
 10 28  1  0  0  0  0
 11 12  2  0  0  0  0
 11 29  1  0  0  0  0
 12 30  1  0  0  0  0
 13 22  1  0  0  0  0
 13 28  2  0  0  0  0
 14 24  1  0  0  0  0
 14 25  2  0  0  0  0
 15 24  2  0  0  0  0
 15 26  1  0  0  0  0
 16 30  2  0  0  0  0
 16 31  1  0  0  0  0
 17 32  1  0  0  0  0
 18 32  1  0  0  0  0
 18 33  2  0  0  0  0
 18 34  1  0  0  0  0
 19 21  2  0  0  0  0
 19 39  1  0  0  0  0
 20 22  2  0  0  0  0
 20 40  1  0  0  0  0
 21 50  1  0  0  0  0
 22 42  1  0  0  0  0
 23 25  1  0  0  0  0
 23 26  2  0  0  0  0
 23 41  1  0  0  0  0
 24 60  1  0  0  0  0
 25 64  1  0  0  0  0
 26 70  1  0  0  0  0
 27 84  1  0  0  0  0
 28 85  1  0  0  0  0
 29 31  2  0  0  0  0
 29 84  1  0  0  0  0
 30 86  1  0  0  0  0
 31 87  1  0  0  0  0
 32 68  2  0  0  0  0
 33 69  1  0  0  0  0
 33 73  1  0  0  0  0
 34 74  1  0  0  0  0
 34 79  2  0  0  0  0
 35 51  1  0  0  0  0
 35 75  1  0  0  0  0
 35 80  2  0  0  0  0
 36 65  1  0  0  0  0
 36 71  1  0  0  0  0
 36 81  2  0  0  0  0
 37 66  1  0  0  0  0
 37 76  1  0  0  0  0
 37 82  2  0  0  0  0
 38 70  1  0  0  0  0
 38 72  1  0  0  0  0
 38 83  2  0  0  0  0
 39 43  1  0  0  0  0
 40 51  1  0  0  0  0
 41 47  1  0  0  0  0
 42 71  1  0  0  0  0
 43 45  1  0  0  0  0
 44 46  1  0  0  0  0
 44 48  1  0  0  0  0
 45 50  1  0  0  0  0
 46 52  1  0  0  0  0
 47 70  1  0  0  0  0
 48 72  1  0  0  0  0
 49 52  1  0  0  0  0
 49 72  1  0  0  0  0
 50 75  1  0  0  0  0
 51 71  1  0  0  0  0
 52 69  1  0  0  0  0
 53 64  1  0  0  0  0
 54 64  1  0  0  0  0
 55 66  1  0  0  0  0
 56 67  1  0  0  0  0
 57 67  1  0  0  0  0
 58 67  1  0  0  0  0
 59 77  1  0  0  0  0
 60 61  1  0  0  0  0
 61 78  1  0  0  0  0
 62 63  1  0  0  0  0
 62 78  1  0  0  0  0
 63 85  1  0  0  0  0
 65 67  1  0  0  0  0
 65 76  1  0  0  0  0
 66 77  1  0  0  0  0
 68 69  1  0  0  0  0
M  CHG  2  77   1  78   1
M  ISO  4  38 100  63 101  70 100  85 101
M  END
> <Batch ID>
0150

> <Smiles>
CNC(C)C(=O)NC(C(=O)N1Cc2cc([101O:1][101CH2:1]CNCCc3cc(C(C)C)c4c(c3)[100N:0]([100C:0](=O)N3CCCC(n5nc(-c6ccc(Oc7ccc(F)cc7F)cc6)c(C(N)=O)c5N)C3)CC4)ccc2CC1C(=O)NC1CCCc2ccccc21)C(C)(C)C

> <Shape>
0.263

> <Color>
0.094

> <Negative vol penalty>
0.000

$$$$

  -OEChem-04052321413D

 88 98  0     1  0  0  0  0  0999 V2000
  -28.8575  -35.5301   26.2402 C   0  0  0  0  0  0  0  0  0  0  0  0
  -29.3264  -34.8128   25.1443 C   0  0  0  0  0  0  0  0  0  0  0  0
  -25.1599   -8.4201   22.3842 C   0  0  0  0  0  0  0  0  0  0  0  0
  -26.6927   -6.6504   21.7874 C   0  0  0  0  0  0  0  0  0  0  0  0
  -27.8909  -34.9717   27.0756 C   0  0  0  0  0  0  0  0  0  0  0  0
  -28.8298  -33.5361   24.8838 C   0  0  0  0  0  0  0  0  0  0  0  0
  -27.3171  -29.1386   19.4349 C   0  0  0  0  0  0  0  0  0  0  0  0
  -24.0897   -7.5337   22.2640 C   0  0  0  0  0  0  0  0  0  0  0  0
  -25.6224   -5.7639   21.6673 C   0  0  0  0  0  0  0  0  0  0  0  0
  -27.5737  -27.8408   18.9951 C   0  0  0  0  0  0  0  0  0  0  0  0
  -22.6732   -5.0750   24.1029 C   0  0  0  0  0  0  0  0  0  0  0  0
  -21.7049   -5.0880   25.1068 C   0  0  0  0  0  0  0  0  0  0  0  0
  -25.8480  -27.0091   20.4612 C   0  0  0  0  0  0  0  0  0  0  0  0
  -28.6262  -21.8899   22.0840 C   0  0  0  0  0  0  0  0  0  0  0  0
  -20.0191   -5.6596   23.4733 C   0  0  0  0  0  0  0  0  0  0  0  0
  -29.3729  -20.0416   20.2207 C   0  0  0  0  0  0  0  0  0  0  0  0
  -26.4614   -7.9785   22.1458 C   0  0  0  0  0  0  0  0  0  0  0  0
  -28.3254   -9.1603   23.4251 C   0  0  0  0  0  0  0  0  0  0  0  0
  -27.3752  -33.6914   26.8197 C   0  0  0  0  0  0  0  0  0  0  0  0
  -26.3297  -29.3806   20.4008 C   0  0  0  0  0  0  0  0  0  0  0  0
  -27.8564  -32.9595   25.7174 C   0  0  0  0  0  0  0  0  0  0  0  0
  -25.5790  -28.3113   20.9097 C   0  0  0  0  0  0  0  0  0  0  0  0
  -28.8675  -20.5795   22.4816 C   0  0  0  0  0  0  0  0  0  0  0  0
  -29.2484  -19.6316   21.5384 C   0  0  0  0  0  0  0  0  0  0  0  0
  -24.3209   -6.2056   21.9056 C   0  0  0  0  0  0  0  0  0  0  0  0
  -26.8412  -26.7754   19.5104 C   0  0  0  0  0  0  0  0  0  0  0  0
  -22.3145   -5.3544   22.7842 C   0  0  0  0  0  0  0  0  0  0  0  0
  -20.3778   -5.3803   24.7920 C   0  0  0  0  0  0  0  0  0  0  0  0
  -20.9874   -5.6467   22.4694 C   0  0  0  0  0  0  0  0  0  0  0  0
  -27.5674   -8.8938   22.2692 C   0  0  0  0  0  0  0  0  0  0  0  0
  -28.7788  -22.1988   20.7420 C   0  0  0  0  0  0  0  0  0  0  0  0
  -29.2485  -10.0943   23.0226 C   0  0  0  0  0  0  0  0  0  0  0  0
  -28.2060   -8.6124   24.7446 C   0  0  0  0  0  0  0  0  0  0  0  0
  -26.3172  -30.5832   23.3432 C   0  0  0  0  0  0  0  0  0  0  0  0
  -23.1004  -30.3229   23.0164 C   0  0  0  0  0  0  0  0  0  0  0  0
  -20.4577  -28.8043   21.4812 C   0  0  0  0  0  0  0  0  0  0  0  0
  -30.7209  -14.6135   20.2967 C   0  0  0  0  0  0  0  0  0  0  0  0
  -26.3659  -33.1105   27.7780 C   0  0  0  0  0  0  0  0  0  0  0  0
  -26.0467  -30.7895   20.8452 C   0  0  0  0  0  0  0  0  0  0  0  0
  -24.4942  -28.5201   21.9335 C   0  0  0  0  0  0  0  0  0  0  0  0
  -25.6186  -31.9031   27.2177 C   0  0  0  0  0  0  0  0  0  0  0  0
  -30.4987  -11.7263   18.4090 C   0  0  0  0  0  0  0  0  0  0  0  0
  -27.4045  -19.6375   24.3911 C   0  0  0  0  0  0  0  0  0  0  0  0
  -27.7911  -21.0279   24.7879 C   0  0  0  0  0  0  0  0  0  0  0  0
  -26.5933  -30.9273   26.5662 C   0  0  0  0  0  0  0  0  0  0  0  0
  -29.7795  -10.7430   19.3322 C   0  0  0  0  0  0  0  0  0  0  0  0
  -28.5551  -17.2145   21.2248 C   0  0  0  0  0  0  0  0  0  0  0  0
  -30.9866  -17.7897   21.6325 C   0  0  0  0  0  0  0  0  0  0  0  0
  -29.8846  -13.1178   18.5094 C   0  0  0  0  0  0  0  0  0  0  0  0
  -28.8623  -15.7578   21.5838 C   0  0  0  0  0  0  0  0  0  0  0  0
  -31.2301  -16.3304   22.0059 C   0  0  0  0  0  0  0  0  0  0  0  0
  -29.1486  -12.6975   20.8331 C   0  0  0  0  0  0  0  0  0  0  0  0
  -28.7136  -20.2134   23.9200 C   0  0  0  0  0  0  0  0  0  0  0  0
  -29.5268  -18.1886   21.9149 C   0  0  0  0  0  0  0  0  0  0  0  0
  -27.3242  -31.5818   25.3876 C   0  0  1  0  0  0  0  0  0  0  0  0
  -25.3698  -30.8609   22.2105 C   0  0  1  0  0  0  0  0  0  0  0  0
  -29.7350  -11.2722   20.7767 C   0  0  1  0  0  0  0  0  0  0  0  0
  -17.9486  -28.7753   21.4500 C   0  0  0  0  0  0  0  0  0  0  0  0
  -23.0886  -28.7440   25.6273 C   0  0  0  0  0  0  0  0  0  0  0  0
  -20.7839  -27.9502   25.0558 C   0  0  0  0  0  0  0  0  0  0  0  0
  -21.2154  -30.3841   25.3916 C   0  0  0  0  0  0  0  0  0  0  0  0
  -20.3678  -29.6283   18.6401 C   0  0  0  0  0  0  0  0  0  0  0  0
  -28.4235  -25.2106   18.6717 C   0  0  0  0  0  0  0  0  0  1  0  0
  -28.7172  -23.7468   18.9377 C   0  0  0  0  0  0  0  0  0  0  0  0
  -22.0800  -29.2483   23.3048 C   0  0  1  0  0  0  0  0  0  0  0  0
  -19.2059  -29.3711   20.8361 C   0  0  2  0  0  0  0  0  0  0  0  0
  -21.8137  -29.0771   24.8270 C   0  0  0  0  0  0  0  0  0  0  0  0
  -29.1471  -21.3052   19.7967 N   0  0  0  0  0  0  0  0  0  0  0  0
  -27.9735   -9.6015   21.2117 N   0  0  0  0  0  0  0  0  0  0  0  0
  -28.9967  -10.3219   21.7016 N   0  0  0  0  0  0  0  0  0  0  0  0
  -24.2594  -29.9153   22.3409 N   0  0  0  0  0  0  0  0  0  0  0  0
  -29.8571  -13.5831   19.8959 N   0  0  0  0  0  0  0  0  0  0  0  0
  -30.2768  -15.4486   21.3329 N   0  0  0  0  0  0  0  0  0  0  0  0
  -30.2427  -10.7350   23.6733 N   0  0  0  0  0  0  0  0  0  0  0  0
  -27.2031   -7.6635   24.9858 N   0  0  0  0  0  0  0  0  0  0  0  0
  -26.4626  -31.6362   24.2260 N   0  0  0  0  0  0  0  0  0  0  0  0
  -20.8950  -29.5910   22.5257 N   0  0  0  0  0  0  0  0  0  0  0  0
  -19.1989  -29.0797   19.3747 N   0  3  0  0  0  0  0  0  0  0  0  0
  -28.9555   -8.9663   25.6862 O   0  0  0  0  0  0  0  0  0  0  0  0
  -26.8737  -29.4936   23.4120 O   0  0  0  0  0  0  0  0  0  0  0  0
  -22.8741  -31.4825   23.3709 O   0  0  0  0  0  0  0  0  0  0  0  0
  -20.9918  -27.7653   21.0993 O   0  0  0  0  0  0  0  0  0  0  0  0
  -31.8243  -14.7777   19.7613 O   0  0  0  0  0  0  0  0  0  0  0  0
  -23.2768   -5.3403   21.7886 O   0  0  0  0  0  0  0  0  0  0  0  0
  -27.0918  -25.4989   19.0804 O   0  0  0  0  0  0  0  0  0  1  0  0
  -28.5463  -23.4832   20.3252 O   0  0  0  0  0  0  0  0  0  0  0  0
  -19.4478   -5.3912   25.7559 F   0  0  0  0  0  0  0  0  0  0  0  0
  -20.6365   -5.9147   21.2042 F   0  0  0  0  0  0  0  0  0  0  0  0
  1  2  1  0  0  0  0
  1  5  2  0  0  0  0
  2  6  2  0  0  0  0
  3  8  2  0  0  0  0
  3 17  1  0  0  0  0
  4  9  1  0  0  0  0
  4 17  2  0  0  0  0
  5 19  1  0  0  0  0
  6 21  1  0  0  0  0
  7 10  2  0  0  0  0
  7 20  1  0  0  0  0
  8 25  1  0  0  0  0
  9 25  2  0  0  0  0
 10 26  1  0  0  0  0
 11 12  2  0  0  0  0
 11 27  1  0  0  0  0
 12 28  1  0  0  0  0
 13 22  1  0  0  0  0
 13 26  2  0  0  0  0
 14 23  2  0  0  0  0
 14 31  1  0  0  0  0
 15 28  2  0  0  0  0
 15 29  1  0  0  0  0
 16 24  2  0  0  0  0
 16 68  1  0  0  0  0
 17 30  1  0  0  0  0
 18 30  1  0  0  0  0
 18 32  2  0  0  0  0
 18 33  1  0  0  0  0
 19 21  2  0  0  0  0
 19 38  1  0  0  0  0
 20 22  2  0  0  0  0
 20 39  1  0  0  0  0
 21 55  1  0  0  0  0
 22 40  1  0  0  0  0
 23 24  1  0  0  0  0
 23 53  1  0  0  0  0
 24 54  1  0  0  0  0
 25 84  1  0  0  0  0
 26 85  1  0  0  0  0
 27 29  2  0  0  0  0
 27 84  1  0  0  0  0
 28 87  1  0  0  0  0
 29 88  1  0  0  0  0
 30 69  2  0  0  0  0
 31 68  2  0  0  0  0
 31 86  1  0  0  0  0
 32 70  1  0  0  0  0
 32 74  1  0  0  0  0
 33 75  1  0  0  0  0
 33 79  2  0  0  0  0
 34 56  1  0  0  0  0
 34 76  1  0  0  0  0
 34 80  2  0  0  0  0
 35 65  1  0  0  0  0
 35 71  1  0  0  0  0
 35 81  2  0  0  0  0
 36 66  1  0  0  0  0
 36 77  1  0  0  0  0
 36 82  2  0  0  0  0
 37 72  1  0  0  0  0
 37 73  1  0  0  0  0
 37 83  2  0  0  0  0
 38 41  1  0  0  0  0
 39 56  1  0  0  0  0
 40 71  1  0  0  0  0
 41 45  1  0  0  0  0
 42 46  1  0  0  0  0
 42 49  1  0  0  0  0
 43 44  1  0  0  0  0
 43 53  1  0  0  0  0
 44 53  1  0  0  0  0
 45 55  1  0  0  0  0
 46 57  1  0  0  0  0
 47 50  1  0  0  0  0
 47 54  1  0  0  0  0
 48 51  1  0  0  0  0
 48 54  1  0  0  0  0
 49 72  1  0  0  0  0
 50 73  1  0  0  0  0
 51 73  1  0  0  0  0
 52 57  1  0  0  0  0
 52 72  1  0  0  0  0
 55 76  1  0  0  0  0
 56 71  1  0  0  0  0
 57 70  1  0  0  0  0
 58 66  1  0  0  0  0
 59 67  1  0  0  0  0
 60 67  1  0  0  0  0
 61 67  1  0  0  0  0
 62 78  1  0  0  0  0
 63 64  1  0  0  0  0
 63 85  1  0  0  0  0
 64 86  1  0  0  0  0
 65 67  1  0  0  0  0
 65 77  1  0  0  0  0
 66 78  1  0  0  0  0
 69 70  1  0  0  0  0
M  CHG  1  78   1
M  ISO  4  37 100  63 101  73 100  85 101
M  END
> <Batch ID>
0150

> <Smiles>
CNC(C)C(=O)NC(C(=O)N1Cc2cc([101O:1][101CH2:1]COc3cc(C4CC4)c(C4CC[100N:0]([100C:0](=O)N5CCCC(n6nc(-c7ccc(Oc8ccc(F)cc8F)cc7)c(C(N)=O)c6N)C5)CC4)cn3)ccc2CC1C(=O)NC1CCCc2ccccc21)C(C)(C)C

> <Shape>
0.297

> <Color>
0.097

> <Negative vol penalty>
0.000

$$$$

  -OEChem-04052321413D

 80 90  0     1  0  0  0  0  0999 V2000
  -30.9880  -11.1769   19.8223 C   0  0  0  0  0  0  0  0  0  0  0  0
  -30.7784  -12.5242   19.5459 C   0  0  0  0  0  0  0  0  0  0  0  0
  -20.1559  -28.3284   23.4700 C   0  0  0  0  0  0  0  0  0  0  0  0
  -21.5004  -26.3229   23.3820 C   0  0  0  0  0  0  0  0  0  0  0  0
  -29.9061  -10.3530   20.1299 C   0  0  0  0  0  0  0  0  0  0  0  0
  -29.4864  -13.0481   19.5759 C   0  0  0  0  0  0  0  0  0  0  0  0
  -29.2450  -17.4843   22.0062 C   0  0  0  0  0  0  0  0  0  0  0  0
  -19.0402  -27.5984   23.0603 C   0  0  0  0  0  0  0  0  0  0  0  0
  -20.3846  -25.5929   22.9723 C   0  0  0  0  0  0  0  0  0  0  0  0
  -29.6793  -18.6140   21.3141 C   0  0  0  0  0  0  0  0  0  0  0  0
  -17.9738  -23.2706   21.5566 C   0  0  0  0  0  0  0  0  0  0  0  0
  -18.1378  -22.3731   20.5015 C   0  0  0  0  0  0  0  0  0  0  0  0
  -27.3884  -19.1825   20.8165 C   0  0  0  0  0  0  0  0  0  0  0  0
  -18.8115  -24.1911   19.0599 C   0  0  0  0  0  0  0  0  0  0  0  0
  -21.3861  -27.6907   23.6307 C   0  0  0  0  0  0  0  0  0  0  0  0
  -22.9675  -28.6733   25.3746 C   0  0  0  0  0  0  0  0  0  0  0  0
  -28.6013  -10.8692   20.1731 C   0  0  0  0  0  0  0  0  0  0  0  0
  -27.8774  -17.1889   22.0996 C   0  0  0  0  0  0  0  0  0  0  0  0
  -28.3859  -12.2301   19.8830 C   0  0  0  0  0  0  0  0  0  0  0  0
  -26.9391  -18.0499   21.5126 C   0  0  0  0  0  0  0  0  0  0  0  0
  -19.1545  -26.2307   22.8115 C   0  0  0  0  0  0  0  0  0  0  0  0
  -28.7511  -19.4617   20.7166 C   0  0  0  0  0  0  0  0  0  0  0  0
  -18.2285  -24.6283   21.3633 C   0  0  0  0  0  0  0  0  0  0  0  0
  -18.5567  -22.8333   19.2532 C   0  0  0  0  0  0  0  0  0  0  0  0
  -18.6474  -25.0885   20.1150 C   0  0  0  0  0  0  0  0  0  0  0  0
  -22.5391  -28.4443   24.0533 C   0  0  0  0  0  0  0  0  0  0  0  0
  -24.1006  -29.4378   25.2406 C   0  0  0  0  0  0  0  0  0  0  0  0
  -22.3926  -28.2341   26.6125 C   0  0  0  0  0  0  0  0  0  0  0  0
  -26.0319  -14.7834   21.1448 C   0  0  0  0  0  0  0  0  0  0  0  0
  -23.7560  -16.3786   22.8175 C   0  0  0  0  0  0  0  0  0  0  0  0
  -22.6501  -19.3374   24.1095 C   0  0  0  0  0  0  0  0  0  0  0  0
  -28.0891  -30.0767   20.8207 C   0  0  0  0  0  0  0  0  0  0  0  0
  -27.4581   -9.9295   20.4641 C   0  0  0  0  0  0  0  0  0  0  0  0
  -27.4237  -15.9809   22.8725 C   0  0  0  0  0  0  0  0  0  0  0  0
  -25.4585  -17.7883   21.6011 C   0  0  0  0  0  0  0  0  0  0  0  0
  -26.1633  -10.6442   20.8421 C   0  0  0  0  0  0  0  0  0  0  0  0
  -26.1325  -32.6423   22.3262 C   0  0  0  0  0  0  0  0  0  0  0  0
  -25.8852  -11.7915   19.8761 C   0  0  0  0  0  0  0  0  0  0  0  0
  -25.0284  -31.8780   23.0588 C   0  0  0  0  0  0  0  0  0  0  0  0
  -30.9516  -24.4050   21.1265 C   0  0  0  0  0  0  0  0  0  0  0  0
  -26.5032  -31.9707   21.0057 C   0  0  0  0  0  0  0  0  0  0  0  0
  -25.7538  -29.7790   21.8477 C   0  0  0  0  0  0  0  0  0  0  0  0
  -27.0021  -12.8409   19.9298 C   0  0  1  0  0  0  0  0  0  0  0  0
  -26.0345  -15.4987   22.4662 C   0  0  1  0  0  0  0  0  0  0  0  0
  -30.5309  -25.6945   20.4436 C   0  0  1  0  0  0  0  0  0  0  0  0
  -29.7263  -23.5105   21.1927 C   0  0  1  0  0  0  0  0  0  0  0  0
  -29.0494  -25.6172   20.1058 C   0  0  1  0  0  0  0  0  0  0  0  0
  -28.5540  -24.2244   20.5362 C   0  0  1  0  0  0  0  0  0  0  0  0
  -29.5565  -26.6453   21.0884 C   0  0  2  0  0  0  0  0  0  0  0  0
  -29.0965  -22.9445   19.9469 C   0  0  2  0  0  0  0  0  0  0  0  0
  -25.3850  -30.3871   23.2116 C   0  0  2  0  0  0  0  0  0  0  0  0
  -20.7381  -20.3343   25.3931 C   0  0  0  0  0  0  0  0  0  0  0  0
  -22.0289  -16.2970   20.3034 C   0  0  0  0  0  0  0  0  0  0  0  0
  -20.5930  -18.0805   21.3162 C   0  0  0  0  0  0  0  0  0  0  0  0
  -20.7928  -15.8588   22.4329 C   0  0  0  0  0  0  0  0  0  0  0  0
  -24.4204  -20.1589   26.3344 C   0  0  0  0  0  0  0  0  0  0  0  0
  -29.5701  -28.0879   20.7176 C   0  0  0  0  0  0  0  0  0  0  0  0
  -28.2956  -21.6904   20.0228 C   0  0  0  0  0  0  0  0  0  1  0  0
  -22.7507  -17.4573   22.4940 C   0  0  1  0  0  0  0  0  0  0  0  0
  -22.1172  -19.6998   25.4839 C   0  0  2  0  0  0  0  0  0  0  0  0
  -21.5693  -16.9276   21.6331 C   0  0  0  0  0  0  0  0  0  0  0  0
  -23.3352  -29.0172   23.1466 N   0  0  0  0  0  0  0  0  0  0  0  0
  -24.2751  -29.6137   23.8994 N   0  0  0  0  0  0  0  0  0  0  0  0
  -25.0650  -16.5911   22.3623 N   0  0  0  0  0  0  0  0  0  0  0  0
  -26.8320  -30.5594   21.2204 N   0  0  0  0  0  0  0  0  0  0  0  0
  -24.9548  -29.9701   26.1403 N   0  0  0  0  0  0  0  0  0  0  0  0
  -21.2277  -27.4559   26.5693 N   0  0  0  0  0  0  0  0  0  0  0  0
  -26.8560  -13.6749   21.1034 N   0  0  0  0  0  0  0  0  0  0  0  0
  -22.3471  -18.0354   23.7713 N   0  0  0  0  0  0  0  0  0  0  0  0
  -28.3219  -28.7290   21.0665 N   0  0  0  0  0  0  0  0  0  0  0  0
  -23.0339  -20.6625   26.1576 N   0  3  0  0  0  0  0  0  0  0  0  0
  -22.8877  -28.5369   27.7246 O   0  0  0  0  0  0  0  0  0  0  0  0
  -25.3328  -15.2050   20.2310 O   0  0  0  0  0  0  0  0  0  0  0  0
  -23.3948  -15.3874   23.4568 O   0  0  0  0  0  0  0  0  0  0  0  0
  -23.2697  -20.1311   23.4047 O   0  0  0  0  0  0  0  0  0  0  0  0
  -28.9428  -30.7948   20.2893 O   0  0  0  0  0  0  0  0  0  0  0  0
  -18.0659  -25.5180   22.4120 O   0  0  0  0  0  0  0  0  0  0  0  0
  -29.1724  -20.5646   20.0399 O   0  0  0  0  0  0  0  0  0  1  0  0
  -18.7157  -21.9711   18.2405 F   0  0  0  0  0  0  0  0  0  0  0  0
  -18.8948  -26.3916   19.9236 F   0  0  0  0  0  0  0  0  0  0  0  0
  1  2  1  0  0  0  0
  1  5  2  0  0  0  0
  2  6  2  0  0  0  0
  3  8  2  0  0  0  0
  3 15  1  0  0  0  0
  4  9  1  0  0  0  0
  4 15  2  0  0  0  0
  5 17  1  0  0  0  0
  6 19  1  0  0  0  0
  7 10  2  0  0  0  0
  7 18  1  0  0  0  0
  8 21  1  0  0  0  0
  9 21  2  0  0  0  0
 10 22  1  0  0  0  0
 11 12  2  0  0  0  0
 11 23  1  0  0  0  0
 12 24  1  0  0  0  0
 13 20  1  0  0  0  0
 13 22  2  0  0  0  0
 14 24  2  0  0  0  0
 14 25  1  0  0  0  0
 15 26  1  0  0  0  0
 16 26  1  0  0  0  0
 16 27  2  0  0  0  0
 16 28  1  0  0  0  0
 17 19  2  0  0  0  0
 17 33  1  0  0  0  0
 18 20  2  0  0  0  0
 18 34  1  0  0  0  0
 19 43  1  0  0  0  0
 20 35  1  0  0  0  0
 21 77  1  0  0  0  0
 22 78  1  0  0  0  0
 23 25  2  0  0  0  0
 23 77  1  0  0  0  0
 24 79  1  0  0  0  0
 25 80  1  0  0  0  0
 26 62  2  0  0  0  0
 27 63  1  0  0  0  0
 27 66  1  0  0  0  0
 28 67  1  0  0  0  0
 28 72  2  0  0  0  0
 29 44  1  0  0  0  0
 29 68  1  0  0  0  0
 29 73  2  0  0  0  0
 30 59  1  0  0  0  0
 30 64  1  0  0  0  0
 30 74  2  0  0  0  0
 31 60  1  0  0  0  0
 31 69  1  0  0  0  0
 31 75  2  0  0  0  0
 32 65  1  0  0  0  0
 32 70  1  0  0  0  0
 32 76  2  0  0  0  0
 33 36  1  0  0  0  0
 34 44  1  0  0  0  0
 35 64  1  0  0  0  0
 36 38  1  0  0  0  0
 37 39  1  0  0  0  0
 37 41  1  0  0  0  0
 38 43  1  0  0  0  0
 39 51  1  0  0  0  0
 40 45  1  0  0  0  0
 40 46  1  0  0  0  0
 41 65  1  0  0  0  0
 42 51  1  0  0  0  0
 42 65  1  0  0  0  0
 43 68  1  0  0  0  0
 44 64  1  0  0  0  0
 45 47  1  0  0  0  0
 45 49  1  0  0  0  0
 46 48  1  0  0  0  0
 46 50  1  0  0  0  0
 47 48  1  0  0  0  0
 47 49  1  0  0  0  0
 48 50  1  0  0  0  0
 49 57  1  0  0  0  0
 50 58  1  0  0  0  0
 51 63  1  0  0  0  0
 52 60  1  0  0  0  0
 53 61  1  0  0  0  0
 54 61  1  0  0  0  0
 55 61  1  0  0  0  0
 56 71  1  0  0  0  0
 57 70  1  0  0  0  0
 58 78  1  0  0  0  0
 59 61  1  0  0  0  0
 59 69  1  0  0  0  0
 60 71  1  0  0  0  0
 62 63  1  0  0  0  0
M  CHG  1  71   1
M  ISO  4  32 100  58 101  70 100  78 101
M  END
> <Batch ID>
0150

> <Smiles>
CNC(C)C(=O)NC(C(=O)N1Cc2cc([101O:1][101CH2:1]C3C4CC5C(C[100NH:0][100C:0](=O)N6CCCC(n7nc(-c8ccc(Oc9ccc(F)cc9F)cc8)c(C(N)=O)c7N)C6)C5C43)ccc2CC1C(=O)NC1CCCc2ccccc21)C(C)(C)C

> <Shape>
0.232

> <Color>
0.051

> <Negative vol penalty>
0.000

$$$$

  -OEChem-04052321413D

 87 96  0     1  0  0  0  0  0999 V2000
  -32.3132  -15.3736   22.7802 C   0  0  0  0  0  0  0  0  0  0  0  0
  -31.4054  -16.4241   22.6921 C   0  0  0  0  0  0  0  0  0  0  0  0
  -27.6040  -26.9772   18.8548 C   0  0  0  0  0  0  0  0  0  0  0  0
  -28.8855  -28.1488   20.5347 C   0  0  0  0  0  0  0  0  0  0  0  0
  -32.0123  -14.1431   22.1976 C   0  0  0  0  0  0  0  0  0  0  0  0
  -30.1967  -16.2451   22.0203 C   0  0  0  0  0  0  0  0  0  0  0  0
  -24.7925  -18.7558   23.4337 C   0  0  0  0  0  0  0  0  0  0  0  0
  -20.7874  -25.3900   24.3177 C   0  0  0  0  0  0  0  0  0  0  0  0
  -28.6361  -26.0494   18.7146 C   0  0  0  0  0  0  0  0  0  0  0  0
  -29.9175  -27.2210   20.3946 C   0  0  0  0  0  0  0  0  0  0  0  0
  -24.1142  -19.8659   22.9324 C   0  0  0  0  0  0  0  0  0  0  0  0
  -20.8786  -24.0319   24.0152 C   0  0  0  0  0  0  0  0  0  0  0  0
  -29.7891  -23.3367   20.3714 C   0  0  0  0  0  0  0  0  0  0  0  0
  -29.4443  -21.9860   20.3227 C   0  0  0  0  0  0  0  0  0  0  0  0
  -19.5914  -24.3982   22.0093 C   0  0  0  0  0  0  0  0  0  0  0  0
  -22.8554  -18.4256   21.4627 C   0  0  0  0  0  0  0  0  0  0  0  0
  -30.4370  -21.8119   18.1269 C   0  0  0  0  0  0  0  0  0  0  0  0
  -27.7288  -28.0270   19.7648 C   0  0  0  0  0  0  0  0  0  0  0  0
  -26.1393  -29.8316   18.9134 C   0  0  0  0  0  0  0  0  0  0  0  0
  -30.7951  -13.9461   21.5266 C   0  0  0  0  0  0  0  0  0  0  0  0
  -24.5146  -17.4713   22.9446 C   0  0  0  0  0  0  0  0  0  0  0  0
  -29.8798  -15.0113   21.4270 C   0  0  0  0  0  0  0  0  0  0  0  0
  -20.0955  -26.2710   23.4691 C   0  0  0  0  0  0  0  0  0  0  0  0
  -19.5001  -25.7695   22.2965 C   0  0  0  0  0  0  0  0  0  0  0  0
  -23.5298  -17.3005   21.9612 C   0  0  0  0  0  0  0  0  0  0  0  0
  -29.7928  -26.1713   19.4845 C   0  0  0  0  0  0  0  0  0  0  0  0
  -23.1476  -19.7013   21.9448 C   0  0  0  0  0  0  0  0  0  0  0  0
  -20.2800  -23.5360   22.8615 C   0  0  0  0  0  0  0  0  0  0  0  0
  -30.4577  -23.9251   19.2979 C   0  0  0  0  0  0  0  0  0  0  0  0
  -29.7683  -21.2236   19.2004 C   0  0  0  0  0  0  0  0  0  0  0  0
  -30.7817  -23.1627   18.1757 C   0  0  0  0  0  0  0  0  0  0  0  0
  -26.6632  -28.9860   19.9096 C   0  0  0  0  0  0  0  0  0  0  0  0
  -25.1526  -30.5431   19.5511 C   0  0  0  0  0  0  0  0  0  0  0  0
  -26.5113  -29.9621   17.5349 C   0  0  0  0  0  0  0  0  0  0  0  0
  -26.1917  -15.2369   21.4285 C   0  0  0  0  0  0  0  0  0  0  0  0
  -23.5009  -13.4773   21.8591 C   0  0  0  0  0  0  0  0  0  0  0  0
  -20.1275  -13.4207   22.3730 C   0  0  0  0  0  0  0  0  0  0  0  0
  -21.7826  -29.4207   24.3713 C   0  0  0  0  0  0  0  0  0  0  0  0
  -30.5346  -12.6126   20.8720 C   0  0  0  0  0  0  0  0  0  0  0  0
  -25.2362  -16.2810   23.5148 C   0  0  0  0  0  0  0  0  0  0  0  0
  -18.7037  -26.6531   21.3676 C   0  0  0  0  0  0  0  0  0  0  0  0
  -23.1798  -15.9404   21.4171 C   0  0  0  0  0  0  0  0  0  0  0  0
  -29.0704  -12.3917   20.5011 C   0  0  0  0  0  0  0  0  0  0  0  0
  -23.9328  -32.2131   23.8655 C   0  0  0  0  0  0  0  0  0  0  0  0
  -28.5042  -13.6251   19.8047 C   0  0  0  0  0  0  0  0  0  0  0  0
  -24.8291  -31.7790   22.7044 C   0  0  0  0  0  0  0  0  0  0  0  0
  -18.9435  -28.4935   23.0553 C   0  0  0  0  0  0  0  0  0  0  0  0
  -23.6049  -31.0449   24.7927 C   0  0  0  0  0  0  0  0  0  0  0  0
  -23.9286  -29.4290   22.9602 C   0  0  0  0  0  0  0  0  0  0  0  0
  -28.5475  -14.8486   20.7281 C   0  0  1  0  0  0  0  0  0  0  0  0
  -20.0408  -27.7414   23.8188 C   0  0  2  0  0  0  0  0  0  0  0  0
  -25.2368  -15.0773   22.5775 C   0  0  1  0  0  0  0  0  0  0  0  0
  -18.9710  -28.1525   21.5611 C   0  0  2  0  0  0  0  0  0  0  0  0
  -24.2407  -30.5612   21.9667 C   0  0  2  0  0  0  0  0  0  0  0  0
  -18.2027  -11.8337   22.6453 C   0  0  0  0  0  0  0  0  0  0  0  0
  -17.9651  -28.6666   19.3082 C   0  0  0  0  0  0  0  0  0  0  0  0
  -23.5206  -12.9418   18.8553 C   0  0  0  0  0  0  0  0  0  0  0  0
  -21.1389  -12.1932   19.0437 C   0  0  0  0  0  0  0  0  0  0  0  0
  -22.9319  -10.9611   20.2643 C   0  0  0  0  0  0  0  0  0  0  0  0
  -19.5325  -14.4263   25.0921 C   0  0  0  0  0  0  0  0  0  0  0  0
  -21.1497  -20.5735   20.9941 C   0  0  0  0  0  0  0  0  0  1  0  0
  -20.3537  -21.8499   21.1860 C   0  0  0  0  0  0  0  0  0  0  0  0
  -22.2328  -13.2528   21.0714 C   0  0  1  0  0  0  0  0  0  0  0  0
  -19.2717  -12.6465   23.3592 C   0  0  2  0  0  0  0  0  0  0  0  0
  -17.9459  -28.9849   20.7930 C   0  0  1  0  0  0  0  0  0  0  0  0
  -22.4638  -12.3632   19.8173 C   0  0  0  0  0  0  0  0  0  0  0  0
  -26.0594  -29.1446   21.0904 N   0  0  0  0  0  0  0  0  0  0  0  0
  -25.1460  -30.0980   20.8403 N   0  0  0  0  0  0  0  0  0  0  0  0
  -23.9174  -14.8084   22.0020 N   0  0  0  0  0  0  0  0  0  0  0  0
  -23.0493  -29.9235   24.0313 N   0  0  0  0  0  0  0  0  0  0  0  0
  -24.2988  -31.4998   19.1292 N   0  0  0  0  0  0  0  0  0  0  0  0
  -27.5060  -30.8896   17.1962 N   0  0  0  0  0  0  0  0  0  0  0  0
  -27.4721  -14.7905   21.6948 N   0  0  0  0  0  0  0  0  0  0  0  0
  -21.2567  -12.7158   22.0134 N   0  0  0  0  0  0  0  0  0  0  0  0
  -21.3276  -28.3617   23.5952 N   0  0  0  0  0  0  0  0  0  0  0  0
  -18.5983  -13.5804   24.3054 N   0  3  0  0  0  0  0  0  0  0  0  0
  -25.9659  -29.2883   16.6283 O   0  0  0  0  0  0  0  0  0  0  0  0
  -25.7959  -15.7273   20.3775 O   0  0  0  0  0  0  0  0  0  0  0  0
  -24.0960  -12.5079   22.3364 O   0  0  0  0  0  0  0  0  0  0  0  0
  -19.8228  -14.5374   21.9598 O   0  0  0  0  0  0  0  0  0  0  0  0
  -21.1048  -29.8849   25.2943 O   0  0  0  0  0  0  0  0  0  0  0  0
  -16.6504  -28.7220   21.3175 O   0  0  0  0  0  0  0  0  0  0  0  0
  -30.8000  -25.2659   19.3482 O   0  0  0  0  0  0  0  0  0  0  0  0
  -22.4844  -20.7832   21.4533 O   0  0  0  0  0  0  0  0  0  1  0  0
  -20.3642  -22.2012   22.5643 O   0  0  0  0  0  0  0  0  0  0  0  0
  -29.4385  -19.9262   19.1544 F   0  0  0  0  0  0  0  0  0  0  0  0
  -31.4251  -23.7220   17.1417 F   0  0  0  0  0  0  0  0  0  0  0  0
  1  2  1  0  0  0  0
  1  5  2  0  0  0  0
  2  6  2  0  0  0  0
  3  9  2  0  0  0  0
  3 18  1  0  0  0  0
  4 10  1  0  0  0  0
  4 18  2  0  0  0  0
  5 20  1  0  0  0  0
  6 22  1  0  0  0  0
  7 11  2  0  0  0  0
  7 21  1  0  0  0  0
  8 12  2  0  0  0  0
  8 23  1  0  0  0  0
  9 26  1  0  0  0  0
 10 26  2  0  0  0  0
 11 27  1  0  0  0  0
 12 28  1  0  0  0  0
 13 14  2  0  0  0  0
 13 29  1  0  0  0  0
 14 30  1  0  0  0  0
 15 24  1  0  0  0  0
 15 28  2  0  0  0  0
 16 25  1  0  0  0  0
 16 27  2  0  0  0  0
 17 30  2  0  0  0  0
 17 31  1  0  0  0  0
 18 32  1  0  0  0  0
 19 32  1  0  0  0  0
 19 33  2  0  0  0  0
 19 34  1  0  0  0  0
 20 22  2  0  0  0  0
 20 39  1  0  0  0  0
 21 25  2  0  0  0  0
 21 40  1  0  0  0  0
 22 50  1  0  0  0  0
 23 24  2  0  0  0  0
 23 51  1  0  0  0  0
 24 41  1  0  0  0  0
 25 42  1  0  0  0  0
 26 83  1  0  0  0  0
 27 84  1  0  0  0  0
 28 85  1  0  0  0  0
 29 31  2  0  0  0  0
 29 83  1  0  0  0  0
 30 86  1  0  0  0  0
 31 87  1  0  0  0  0
 32 67  2  0  0  0  0
 33 68  1  0  0  0  0
 33 71  1  0  0  0  0
 34 72  1  0  0  0  0
 34 77  2  0  0  0  0
 35 52  1  0  0  0  0
 35 73  1  0  0  0  0
 35 78  2  0  0  0  0
 36 63  1  0  0  0  0
 36 69  1  0  0  0  0
 36 79  2  0  0  0  0
 37 64  1  0  0  0  0
 37 74  1  0  0  0  0
 37 80  2  0  0  0  0
 38 70  1  0  0  0  0
 38 75  1  0  0  0  0
 38 81  2  0  0  0  0
 39 43  1  0  0  0  0
 40 52  1  0  0  0  0
 41 53  1  0  0  0  0
 42 69  1  0  0  0  0
 43 45  1  0  0  0  0
 44 46  1  0  0  0  0
 44 48  1  0  0  0  0
 45 50  1  0  0  0  0
 46 54  1  0  0  0  0
 47 51  1  0  0  0  0
 47 53  1  0  0  0  0
 48 70  1  0  0  0  0
 49 54  1  0  0  0  0
 49 70  1  0  0  0  0
 50 73  1  0  0  0  0
 51 75  1  0  0  0  0
 52 69  1  0  0  0  0
 53 65  1  0  0  0  0
 54 68  1  0  0  0  0
 55 64  1  0  0  0  0
 56 65  1  0  0  0  0
 57 66  1  0  0  0  0
 58 66  1  0  0  0  0
 59 66  1  0  0  0  0
 60 76  1  0  0  0  0
 61 62  1  0  0  0  0
 61 84  1  0  0  0  0
 62 85  1  0  0  0  0
 63 66  1  0  0  0  0
 63 74  1  0  0  0  0
 64 76  1  0  0  0  0
 65 82  1  0  0  0  0
 67 68  1  0  0  0  0
M  CHG  1  76   1
M  ISO  4  38 100  61 101  75 100  84 101
M  END
> <Batch ID>
0150

> <Smiles>
CNC(C)C(=O)NC(C(=O)N1Cc2cc([101O:1][101CH2:1]COc3ccc4c(c3)CC(C(C)O)CC4[100NH:0][100C:0](=O)N3CCCC(n4nc(-c5ccc(Oc6ccc(F)cc6F)cc5)c(C(N)=O)c4N)C3)ccc2CC1C(=O)NC1CCCc2ccccc21)C(C)(C)C

> <Shape>
0.268

> <Color>
0.061

> <Negative vol penalty>
0.000

$$$$

  -OEChem-04052321413D

 87 96  0     1  0  0  0  0  0999 V2000
  -25.6352  -12.6884   28.8207 C   0  0  0  0  0  0  0  0  0  0  0  0
  -26.7659  -13.4990   28.8180 C   0  0  0  0  0  0  0  0  0  0  0  0
  -23.0747   -9.8682   19.9404 C   0  0  0  0  0  0  0  0  0  0  0  0
  -23.8349   -9.8759   22.2337 C   0  0  0  0  0  0  0  0  0  0  0  0
  -24.6778  -12.8262   27.8165 C   0  0  0  0  0  0  0  0  0  0  0  0
  -26.9404  -14.4471   27.8105 C   0  0  0  0  0  0  0  0  0  0  0  0
  -28.4678  -18.9296   29.6046 C   0  0  0  0  0  0  0  0  0  0  0  0
  -22.3317   -8.7145   20.1906 C   0  0  0  0  0  0  0  0  0  0  0  0
  -23.0918   -8.7223   22.4840 C   0  0  0  0  0  0  0  0  0  0  0  0
  -29.8141  -19.0540   29.9448 C   0  0  0  0  0  0  0  0  0  0  0  0
  -20.5196   -5.5623   20.1329 C   0  0  0  0  0  0  0  0  0  0  0  0
  -20.5835   -4.5318   19.1950 C   0  0  0  0  0  0  0  0  0  0  0  0
  -30.2355  -20.1666   27.8463 C   0  0  0  0  0  0  0  0  0  0  0  0
  -32.9769  -16.9749   23.1387 C   0  0  0  0  0  0  0  0  0  0  0  0
  -30.9766  -16.3332   24.3319 C   0  0  0  0  0  0  0  0  0  0  0  0
  -22.9685   -4.3633   19.5426 C   0  0  0  0  0  0  0  0  0  0  0  0
  -23.8264  -10.4488   20.9620 C   0  0  0  0  0  0  0  0  0  0  0  0
  -24.1665  -12.9742   20.8416 C   0  0  0  0  0  0  0  0  0  0  0  0
  -24.8359  -13.7831   26.8016 C   0  0  0  0  0  0  0  0  0  0  0  0
  -27.9966  -19.4139   28.3758 C   0  0  0  0  0  0  0  0  0  0  0  0
  -25.9849  -14.5969   26.7911 C   0  0  0  0  0  0  0  0  0  0  0  0
  -28.8823  -20.0494   27.4939 C   0  0  0  0  0  0  0  0  0  0  0  0
  -33.0968  -16.4203   25.4871 C   0  0  0  0  0  0  0  0  0  0  0  0
  -31.6035  -16.7320   23.1514 C   0  0  0  0  0  0  0  0  0  0  0  0
  -33.7236  -16.8190   24.3065 C   0  0  0  0  0  0  0  0  0  0  0  0
  -31.7233  -16.1774   25.4998 C   0  0  0  0  0  0  0  0  0  0  0  0
  -22.3402   -8.1416   21.4624 C   0  0  0  0  0  0  0  0  0  0  0  0
  -30.6988  -19.6700   29.0644 C   0  0  0  0  0  0  0  0  0  0  0  0
  -21.6802   -5.9934   20.7755 C   0  0  0  0  0  0  0  0  0  0  0  0
  -21.8079   -3.9323   18.8999 C   0  0  0  0  0  0  0  0  0  0  0  0
  -22.9046   -5.3939   20.4804 C   0  0  0  0  0  0  0  0  0  0  0  0
  -24.5946  -11.6402   20.7040 C   0  0  0  0  0  0  0  0  0  0  0  0
  -25.2581  -13.7244   20.4781 C   0  0  0  0  0  0  0  0  0  0  0  0
  -22.8957  -13.4892   21.2606 C   0  0  0  0  0  0  0  0  0  0  0  0
  -26.6414  -18.1004   25.8180 C   0  0  0  0  0  0  0  0  0  0  0  0
  -26.3389  -21.1893   24.8747 C   0  0  0  0  0  0  0  0  0  0  0  0
  -27.4456  -24.4096   25.1017 C   0  0  0  0  0  0  0  0  0  0  0  0
  -30.7412  -14.7472   20.6657 C   0  0  0  0  0  0  0  0  0  0  0  0
  -23.7973  -13.8628   25.7109 C   0  0  0  0  0  0  0  0  0  0  0  0
  -26.5363  -19.2958   28.0352 C   0  0  0  0  0  0  0  0  0  0  0  0
  -28.4226  -20.6042   26.1713 C   0  0  0  0  0  0  0  0  0  0  0  0
  -23.8738  -15.1474   24.8898 C   0  0  0  0  0  0  0  0  0  0  0  0
  -29.6049  -12.3616   18.2794 C   0  0  0  0  0  0  0  0  0  0  0  0
  -33.8370  -14.8906   27.5860 C   0  0  0  0  0  0  0  0  0  0  0  0
  -25.3167  -15.4417   24.4920 C   0  0  0  0  0  0  0  0  0  0  0  0
  -28.1677  -12.0670   18.7125 C   0  0  0  0  0  0  0  0  0  0  0  0
  -34.0273  -15.6890   28.8897 C   0  0  0  0  0  0  0  0  0  0  0  0
  -30.5220  -12.5832   19.4801 C   0  0  0  0  0  0  0  0  0  0  0  0
  -28.6199  -13.3132   20.8669 C   0  0  0  0  0  0  0  0  0  0  0  0
  -33.9468  -16.2430   26.8157 C   0  0  2  0  0  0  0  0  0  0  0  0
  -26.1977  -15.6538   25.7292 C   0  0  1  0  0  0  0  0  0  0  0  0
  -26.2649  -19.3657   26.5356 C   0  0  1  0  0  0  0  0  0  0  0  0
  -27.6458  -13.1378   19.6893 C   0  0  2  0  0  0  0  0  0  0  0  0
  -33.4452  -16.9047   28.1384 C   0  0  2  0  0  0  0  0  0  0  0  0
  -35.1926  -17.0845   24.2701 C   0  0  0  0  0  0  0  0  0  0  0  0
  -31.0313  -15.7488   26.7516 C   0  0  0  0  0  0  0  0  0  0  0  0
  -27.0257  -26.7063   24.1820 C   0  0  0  0  0  0  0  0  0  0  0  0
  -27.7347  -20.4021   22.2782 C   0  0  0  0  0  0  0  0  0  0  0  0
  -28.1341  -22.8340   21.8371 C   0  0  0  0  0  0  0  0  0  0  0  0
  -25.8017  -21.9629   21.9918 C   0  0  0  0  0  0  0  0  0  0  0  0
  -26.7863  -25.4871   27.7781 C   0  0  0  0  0  0  0  0  0  0  0  0
  -30.8057  -16.8979   21.9023 C   0  0  0  0  0  0  0  0  0  0  0  0
  -34.0266  -18.5711   29.8824 C   0  0  0  0  0  0  0  0  0  0  0  0
  -32.5682  -18.7835   30.2372 C   0  0  0  0  0  0  0  0  0  1  0  0
  -27.1941  -22.1571   24.0931 C   0  0  1  0  0  0  0  0  0  0  0  0
  -26.7020  -25.7192   25.2926 C   0  0  2  0  0  0  0  0  0  0  0  0
  -27.2255  -21.8269   22.5740 C   0  0  0  0  0  0  0  0  0  0  0  0
  -25.8595  -11.5452   20.2856 N   0  0  0  0  0  0  0  0  0  0  0  0
  -26.2355  -12.8290   20.1571 N   0  0  0  0  0  0  0  0  0  0  0  0
  -26.9866  -20.4588   25.8810 N   0  0  0  0  0  0  0  0  0  0  0  0
  -29.9709  -13.6114   20.3660 N   0  0  0  0  0  0  0  0  0  0  0  0
  -25.4676  -15.0560   20.4049 N   0  0  0  0  0  0  0  0  0  0  0  0
  -21.8844  -12.5794   21.5981 N   0  0  0  0  0  0  0  0  0  0  0  0
  -25.9857  -16.9752   26.2800 N   0  0  0  0  0  0  0  0  0  0  0  0
  -26.6905  -23.4904   24.4045 N   0  0  0  0  0  0  0  0  0  0  0  0
  -30.1415  -15.6757   21.5077 N   0  0  0  0  0  0  0  0  0  0  0  0
  -34.1302  -18.1632   28.4586 N   0  3  0  0  0  0  0  0  0  0  0  0
  -27.0724  -26.3399   26.5958 N   0  3  0  0  0  0  0  0  0  0  0  0
  -22.6586  -14.7197   21.3178 O   0  0  0  0  0  0  0  0  0  0  0  0
  -27.4648  -18.1422   24.9113 O   0  0  0  0  0  0  0  0  0  0  0  0
  -25.1388  -21.0904   24.6072 O   0  0  0  0  0  0  0  0  0  0  0  0
  -28.5841  -24.2221   25.5252 O   0  0  0  0  0  0  0  0  0  0  0  0
  -31.8770  -14.9234   20.2119 O   0  0  0  0  0  0  0  0  0  0  0  0
  -21.6150   -7.0161   21.7069 O   0  0  0  0  0  0  0  0  0  0  0  0
  -32.0135  -19.7921   29.3937 O   0  0  0  0  0  0  0  0  0  1  0  0
  -21.8689   -2.9416   18.0004 F   0  0  0  0  0  0  0  0  0  0  0  0
  -24.0227   -5.8030   21.0954 F   0  0  0  0  0  0  0  0  0  0  0  0
  1  2  1  0  0  0  0
  1  5  2  0  0  0  0
  2  6  2  0  0  0  0
  3  8  2  0  0  0  0
  3 17  1  0  0  0  0
  4  9  1  0  0  0  0
  4 17  2  0  0  0  0
  5 19  1  0  0  0  0
  6 21  1  0  0  0  0
  7 10  2  0  0  0  0
  7 20  1  0  0  0  0
  8 27  1  0  0  0  0
  9 27  2  0  0  0  0
 10 28  1  0  0  0  0
 11 12  2  0  0  0  0
 11 29  1  0  0  0  0
 12 30  1  0  0  0  0
 13 22  1  0  0  0  0
 13 28  2  0  0  0  0
 14 24  1  0  0  0  0
 14 25  2  0  0  0  0
 15 24  2  0  0  0  0
 15 26  1  0  0  0  0
 16 30  2  0  0  0  0
 16 31  1  0  0  0  0
 17 32  1  0  0  0  0
 18 32  1  0  0  0  0
 18 33  2  0  0  0  0
 18 34  1  0  0  0  0
 19 21  2  0  0  0  0
 19 39  1  0  0  0  0
 20 22  2  0  0  0  0
 20 40  1  0  0  0  0
 21 51  1  0  0  0  0
 22 41  1  0  0  0  0
 23 25  1  0  0  0  0
 23 26  2  0  0  0  0
 23 50  1  0  0  0  0
 24 62  1  0  0  0  0
 25 55  1  0  0  0  0
 26 56  1  0  0  0  0
 27 84  1  0  0  0  0
 28 85  1  0  0  0  0
 29 31  2  0  0  0  0
 29 84  1  0  0  0  0
 30 86  1  0  0  0  0
 31 87  1  0  0  0  0
 32 68  2  0  0  0  0
 33 69  1  0  0  0  0
 33 72  1  0  0  0  0
 34 73  1  0  0  0  0
 34 79  2  0  0  0  0
 35 52  1  0  0  0  0
 35 74  1  0  0  0  0
 35 80  2  0  0  0  0
 36 65  1  0  0  0  0
 36 70  1  0  0  0  0
 36 81  2  0  0  0  0
 37 66  1  0  0  0  0
 37 75  1  0  0  0  0
 37 82  2  0  0  0  0
 38 71  1  0  0  0  0
 38 76  1  0  0  0  0
 38 83  2  0  0  0  0
 39 42  1  0  0  0  0
 40 52  1  0  0  0  0
 41 70  1  0  0  0  0
 42 45  1  0  0  0  0
 43 46  1  0  0  0  0
 43 48  1  0  0  0  0
 44 47  1  0  0  0  0
 44 50  1  0  0  0  0
 45 51  1  0  0  0  0
 46 53  1  0  0  0  0
 47 54  1  0  0  0  0
 48 71  1  0  0  0  0
 49 53  1  0  0  0  0
 49 71  1  0  0  0  0
 50 54  1  0  0  0  0
 51 74  1  0  0  0  0
 52 70  1  0  0  0  0
 53 69  1  0  0  0  0
 54 77  1  0  0  0  0
 57 66  1  0  0  0  0
 58 67  1  0  0  0  0
 59 67  1  0  0  0  0
 60 67  1  0  0  0  0
 61 78  1  0  0  0  0
 62 76  1  0  0  0  0
 63 64  1  0  0  0  0
 63 77  1  0  0  0  0
 64 85  1  0  0  0  0
 65 67  1  0  0  0  0
 65 75  1  0  0  0  0
 66 78  1  0  0  0  0
 68 69  1  0  0  0  0
M  CHG  2  77   1  78   1
M  ISO  4  38 100  64 101  76 100  85 101
M  END
> <Batch ID>
0150

> <Smiles>
CNC(C)C(=O)NC(C(=O)N1Cc2cc([101O:1][101CH2:1]CNC3CCC3c3c(C)cc(C[100NH:0][100C:0](=O)N4CCCC(n5nc(-c6ccc(Oc7ccc(F)cc7F)cc6)c(C(N)=O)c5N)C4)cc3C)ccc2CC1C(=O)NC1CCCc2ccccc21)C(C)(C)C

> <Shape>
0.152

> <Color>
0.187

> <Negative vol penalty>
0.000

$$$$

  -OEChem-04052321413D

 90 99  0     1  0  0  0  0  0999 V2000
  -25.6573  -37.5758   17.9756 C   0  0  0  0  0  0  0  0  0  0  0  0
  -26.2008  -36.3156   17.7478 C   0  0  0  0  0  0  0  0  0  0  0  0
  -31.6915   -7.6315   23.0048 C   0  0  0  0  0  0  0  0  0  0  0  0
  -29.3934   -6.9434   22.7179 C   0  0  0  0  0  0  0  0  0  0  0  0
  -25.3169  -37.9632   19.2709 C   0  0  0  0  0  0  0  0  0  0  0  0
  -26.4052  -35.4424   18.8156 C   0  0  0  0  0  0  0  0  0  0  0  0
  -25.8755  -29.3416   18.7355 C   0  0  0  0  0  0  0  0  0  0  0  0
  -31.7803   -6.8538   24.1593 C   0  0  0  0  0  0  0  0  0  0  0  0
  -29.4822   -6.1656   23.8724 C   0  0  0  0  0  0  0  0  0  0  0  0
  -26.8166  -28.3199   18.6169 C   0  0  0  0  0  0  0  0  0  0  0  0
  -32.1895   -3.5890   24.9381 C   0  0  0  0  0  0  0  0  0  0  0  0
  -33.3242   -2.7937   25.0983 C   0  0  0  0  0  0  0  0  0  0  0  0
  -26.8735  -28.1016   21.0186 C   0  0  0  0  0  0  0  0  0  0  0  0
  -28.9847  -22.3347   22.8804 C   0  0  0  0  0  0  0  0  0  0  0  0
  -28.9635  -21.8692   20.1299 C   0  0  0  0  0  0  0  0  0  0  0  0
  -33.8581   -3.9671   27.1417 C   0  0  0  0  0  0  0  0  0  0  0  0
  -30.4981   -7.6764   22.2841 C   0  0  0  0  0  0  0  0  0  0  0  0
  -30.6901   -8.0795   19.7725 C   0  0  0  0  0  0  0  0  0  0  0  0
  -25.5083  -37.0906   20.3538 C   0  0  0  0  0  0  0  0  0  0  0  0
  -25.4337  -29.7592   19.9992 C   0  0  0  0  0  0  0  0  0  0  0  0
  -26.0683  -35.8189   20.1268 C   0  0  0  0  0  0  0  0  0  0  0  0
  -25.9248  -29.1271   21.1505 C   0  0  0  0  0  0  0  0  0  0  0  0
  -29.5568  -21.1714   22.3655 C   0  0  0  0  0  0  0  0  0  0  0  0
  -28.4020  -23.2652   22.0201 C   0  0  0  0  0  0  0  0  0  0  0  0
  -30.6756   -6.1208   24.5931 C   0  0  0  0  0  0  0  0  0  0  0  0
  -27.3179  -27.7017   19.7586 C   0  0  0  0  0  0  0  0  0  0  0  0
  -31.8892   -4.5734   25.8796 C   0  0  0  0  0  0  0  0  0  0  0  0
  -29.5462  -20.9386   20.9903 C   0  0  0  0  0  0  0  0  0  0  0  0
  -28.3914  -23.0325   20.6448 C   0  0  0  0  0  0  0  0  0  0  0  0
  -34.1584   -2.9827   26.2001 C   0  0  0  0  0  0  0  0  0  0  0  0
  -32.7234   -4.7625   26.9814 C   0  0  0  0  0  0  0  0  0  0  0  0
  -30.4056   -8.4800   21.0918 C   0  0  0  0  0  0  0  0  0  0  0  0
  -30.4487   -9.1990   19.0142 C   0  0  0  0  0  0  0  0  0  0  0  0
  -31.1328   -6.8091   19.2768 C   0  0  0  0  0  0  0  0  0  0  0  0
  -25.5601  -32.4831   21.6325 C   0  0  0  0  0  0  0  0  0  0  0  0
  -23.6950  -30.8583   23.7310 C   0  0  0  0  0  0  0  0  0  0  0  0
  -22.6725  -27.8469   24.9691 C   0  0  0  0  0  0  0  0  0  0  0  0
  -30.6352  -14.8772   20.0683 C   0  0  0  0  0  0  0  0  0  0  0  0
  -25.1690  -37.5716   21.7424 C   0  0  0  0  0  0  0  0  0  0  0  0
  -24.3981  -30.8446   20.1091 C   0  0  0  0  0  0  0  0  0  0  0  0
  -25.4677  -29.5245   22.5295 C   0  0  0  0  0  0  0  0  0  0  0  0
  -25.0694  -36.4466   22.7693 C   0  0  0  0  0  0  0  0  0  0  0  0
  -27.7900  -13.1689   18.9242 C   0  0  0  0  0  0  0  0  0  0  0  0
  -26.2563  -35.4974   22.6382 C   0  0  0  0  0  0  0  0  0  0  0  0
  -28.1666  -11.7180   19.2232 C   0  0  0  0  0  0  0  0  0  0  0  0
  -30.0132  -18.2344   18.6228 C   0  0  0  0  0  0  0  0  0  0  0  0
  -28.5644  -17.9405   20.6780 C   0  0  0  0  0  0  0  0  0  0  0  0
  -28.2189  -14.1152   20.0469 C   0  0  0  0  0  0  0  0  0  0  0  0
  -30.9457  -17.1473   19.1549 C   0  0  0  0  0  0  0  0  0  0  0  0
  -29.5315  -16.8635   21.1645 C   0  0  0  0  0  0  0  0  0  0  0  0
  -30.0273  -12.5616   20.7044 C   0  0  0  0  0  0  0  0  0  0  0  0
  -26.2822  -34.8342   21.2558 C   0  0  1  0  0  0  0  0  0  0  0  0
  -24.4026  -31.5394   21.4672 C   0  0  1  0  0  0  0  0  0  0  0  0
  -29.6616  -11.5948   19.5674 C   0  0  1  0  0  0  0  0  0  0  0  0
  -29.2351  -18.9399   19.7340 C   0  0  0  0  0  0  0  0  0  0  0  0
  -30.1746  -20.1861   23.3020 C   0  0  0  0  0  0  0  0  0  0  0  0
  -28.8268  -25.3878   23.3115 C   0  0  0  0  0  0  0  0  0  0  0  0
  -26.6127  -24.2021   23.5283 C   0  0  0  0  0  0  0  0  0  0  0  0
  -21.1684  -26.8397   26.7070 C   0  0  0  0  0  0  0  0  0  0  0  0
  -25.7147  -31.5882   25.8985 C   0  0  0  0  0  0  0  0  0  0  0  0
  -24.7015  -29.8120   27.3430 C   0  0  0  0  0  0  0  0  0  0  0  0
  -23.3212  -31.7541   26.6044 C   0  0  0  0  0  0  0  0  0  0  0  0
  -21.0575  -26.4431   22.9246 C   0  0  0  0  0  0  0  0  0  0  0  0
  -28.1799  -25.8982   18.4700 C   0  0  0  0  0  0  0  0  0  1  0  0
  -28.6707  -24.5007   18.7949 C   0  0  0  0  0  0  0  0  0  0  0  0
  -27.7935  -24.5050   22.5877 C   0  0  0  0  0  0  0  0  0  0  0  0
  -23.9520  -29.9719   24.9257 C   0  0  1  0  0  0  0  0  0  0  0  0
  -21.2887  -27.2953   25.2611 C   0  0  2  0  0  0  0  0  0  0  0  0
  -24.4326  -30.7751   26.1672 C   0  0  0  0  0  0  0  0  0  0  0  0
  -30.0137   -9.7544   21.1706 N   0  0  0  0  0  0  0  0  0  0  0  0
  -30.0502  -10.1644   19.8913 N   0  0  0  0  0  0  0  0  0  0  0  0
  -24.4586  -30.5951   22.5850 N   0  0  0  0  0  0  0  0  0  0  0  0
  -29.6411  -13.9331   20.3662 N   0  0  0  0  0  0  0  0  0  0  0  0
  -30.2440  -16.2267   20.0488 N   0  0  0  0  0  0  0  0  0  0  0  0
  -30.5407   -9.4418   17.6895 N   0  0  0  0  0  0  0  0  0  0  0  0
  -31.3313   -5.7669   20.1926 N   0  0  0  0  0  0  0  0  0  0  0  0
  -25.3069  -33.7671   21.1889 N   0  0  0  0  0  0  0  0  0  0  0  0
  -22.7246  -29.2138   25.1430 N   0  0  0  0  0  0  0  0  0  0  0  0
  -20.9974  -26.1322   24.3761 N   0  3  0  0  0  0  0  0  0  0  0  0
  -31.3619   -6.6089   18.0598 O   0  0  0  0  0  0  0  0  0  0  0  0
  -26.6050  -32.0769   22.1274 O   0  0  0  0  0  0  0  0  0  0  0  0
  -22.8428  -31.7468   23.8094 O   0  0  0  0  0  0  0  0  0  0  0  0
  -23.6141  -27.1359   24.6250 O   0  0  0  0  0  0  0  0  0  0  0  0
  -31.8011  -14.5377   19.8303 O   0  0  0  0  0  0  0  0  0  0  0  0
  -30.7619   -5.3616   25.7195 O   0  0  0  0  0  0  0  0  0  0  0  0
  -30.1028  -19.8006   20.4685 O   0  0  0  0  0  0  0  0  0  0  0  0
  -28.2433  -26.6977   19.6449 O   0  0  0  0  0  0  0  0  0  1  0  0
  -27.8241  -23.9293   19.7902 O   0  0  0  0  0  0  0  0  0  0  0  0
  -35.2471   -2.2179   26.3547 F   0  0  0  0  0  0  0  0  0  0  0  0
  -32.4394   -5.7058   27.8898 F   0  0  0  0  0  0  0  0  0  0  0  0
  1  2  1  0  0  0  0
  1  5  2  0  0  0  0
  2  6  2  0  0  0  0
  3  8  2  0  0  0  0
  3 17  1  0  0  0  0
  4  9  1  0  0  0  0
  4 17  2  0  0  0  0
  5 19  1  0  0  0  0
  6 21  1  0  0  0  0
  7 10  2  0  0  0  0
  7 20  1  0  0  0  0
  8 25  1  0  0  0  0
  9 25  2  0  0  0  0
 10 26  1  0  0  0  0
 11 12  2  0  0  0  0
 11 27  1  0  0  0  0
 12 30  1  0  0  0  0
 13 22  1  0  0  0  0
 13 26  2  0  0  0  0
 14 23  2  0  0  0  0
 14 24  1  0  0  0  0
 15 28  2  0  0  0  0
 15 29  1  0  0  0  0
 16 30  2  0  0  0  0
 16 31  1  0  0  0  0
 17 32  1  0  0  0  0
 18 32  1  0  0  0  0
 18 33  2  0  0  0  0
 18 34  1  0  0  0  0
 19 21  2  0  0  0  0
 19 39  1  0  0  0  0
 20 22  2  0  0  0  0
 20 40  1  0  0  0  0
 21 52  1  0  0  0  0
 22 41  1  0  0  0  0
 23 28  1  0  0  0  0
 23 56  1  0  0  0  0
 24 29  2  0  0  0  0
 24 66  1  0  0  0  0
 25 85  1  0  0  0  0
 26 87  1  0  0  0  0
 27 31  2  0  0  0  0
 27 85  1  0  0  0  0
 28 86  1  0  0  0  0
 29 88  1  0  0  0  0
 30 89  1  0  0  0  0
 31 90  1  0  0  0  0
 32 70  2  0  0  0  0
 33 71  1  0  0  0  0
 33 75  1  0  0  0  0
 34 76  1  0  0  0  0
 34 80  2  0  0  0  0
 35 53  1  0  0  0  0
 35 77  1  0  0  0  0
 35 81  2  0  0  0  0
 36 67  1  0  0  0  0
 36 72  1  0  0  0  0
 36 82  2  0  0  0  0
 37 68  1  0  0  0  0
 37 78  1  0  0  0  0
 37 83  2  0  0  0  0
 38 73  1  0  0  0  0
 38 74  1  0  0  0  0
 38 84  2  0  0  0  0
 39 42  1  0  0  0  0
 40 53  1  0  0  0  0
 41 72  1  0  0  0  0
 42 44  1  0  0  0  0
 43 45  1  0  0  0  0
 43 48  1  0  0  0  0
 44 52  1  0  0  0  0
 45 54  1  0  0  0  0
 46 49  1  0  0  0  0
 46 55  1  0  0  0  0
 47 50  1  0  0  0  0
 47 55  1  0  0  0  0
 48 73  1  0  0  0  0
 49 74  1  0  0  0  0
 50 74  1  0  0  0  0
 51 54  1  0  0  0  0
 51 73  1  0  0  0  0
 52 77  1  0  0  0  0
 53 72  1  0  0  0  0
 54 71  1  0  0  0  0
 55 86  1  0  0  0  0
 57 66  1  0  0  0  0
 58 66  1  0  0  0  0
 59 68  1  0  0  0  0
 60 69  1  0  0  0  0
 61 69  1  0  0  0  0
 62 69  1  0  0  0  0
 63 79  1  0  0  0  0
 64 65  1  0  0  0  0
 64 87  1  0  0  0  0
 65 88  1  0  0  0  0
 67 69  1  0  0  0  0
 67 78  1  0  0  0  0
 68 79  1  0  0  0  0
 70 71  1  0  0  0  0
M  CHG  1  79   1
M  ISO  4  38 100  64 101  74 100  87 101
M  END
> <Batch ID>
0150

> <Smiles>
CNC(C)C(=O)NC(C(=O)N1Cc2cc([101O:1][101CH2:1]COc3cc(OC4CC[100N:0]([100C:0](=O)N5CCCC(n6nc(-c7ccc(Oc8ccc(F)cc8F)cc7)c(C(N)=O)c6N)C5)CC4)c(C)cc3C(C)C)ccc2CC1C(=O)NC1CCCc2ccccc21)C(C)(C)C

> <Shape>
0.215

> <Color>
0.099

> <Negative vol penalty>
0.000

$$$$

  -OEChem-04052321413D

 91100  0     1  0  0  0  0  0999 V2000
  -18.1619  -22.3888   18.7169 C   0  0  0  0  0  0  0  0  0  0  0  0
  -19.4660  -22.7706   18.4189 C   0  0  0  0  0  0  0  0  0  0  0  0
  -23.6657   -9.8024   21.9800 C   0  0  0  0  0  0  0  0  0  0  0  0
  -24.4012  -11.1676   23.8326 C   0  0  0  0  0  0  0  0  0  0  0  0
  -17.4842  -22.9933   19.7748 C   0  0  0  0  0  0  0  0  0  0  0  0
  -20.0929  -23.7581   19.1781 C   0  0  0  0  0  0  0  0  0  0  0  0
  -26.0302  -24.0563   20.6495 C   0  0  0  0  0  0  0  0  0  0  0  0
  -23.1460   -8.8674   22.8752 C   0  0  0  0  0  0  0  0  0  0  0  0
  -23.8814  -10.2326   24.7279 C   0  0  0  0  0  0  0  0  0  0  0  0
  -27.0972  -24.7686   20.1037 C   0  0  0  0  0  0  0  0  0  0  0  0
  -20.3887   -8.5297   24.8030 C   0  0  0  0  0  0  0  0  0  0  0  0
  -19.1149   -8.0234   24.5448 C   0  0  0  0  0  0  0  0  0  0  0  0
  -29.4734  -20.2569   19.6033 C   0  0  0  0  0  0  0  0  0  0  0  0
  -31.5331  -19.4404   20.5665 C   0  0  0  0  0  0  0  0  0  0  0  0
  -26.7865  -26.4928   21.7620 C   0  0  0  0  0  0  0  0  0  0  0  0
  -20.0290   -5.7909   24.4125 C   0  0  0  0  0  0  0  0  0  0  0  0
  -24.2933  -10.9524   22.4587 C   0  0  0  0  0  0  0  0  0  0  0  0
  -24.1644  -13.0282   20.9814 C   0  0  0  0  0  0  0  0  0  0  0  0
  -18.1065  -23.9819   20.5534 C   0  0  0  0  0  0  0  0  0  0  0  0
  -25.3252  -24.5630   21.7507 C   0  0  0  0  0  0  0  0  0  0  0  0
  -19.4225  -24.3774   20.2466 C   0  0  0  0  0  0  0  0  0  0  0  0
  -30.7088  -20.5048   20.2017 C   0  0  0  0  0  0  0  0  0  0  0  0
  -25.7126  -25.7837   22.3215 C   0  0  0  0  0  0  0  0  0  0  0  0
  -29.8867  -17.8802   19.7346 C   0  0  0  0  0  0  0  0  0  0  0  0
  -23.2538   -9.0826   24.2491 C   0  0  0  0  0  0  0  0  0  0  0  0
  -27.4737  -25.9884   20.6581 C   0  0  0  0  0  0  0  0  0  0  0  0
  -21.4827   -7.6665   24.8658 C   0  0  0  0  0  0  0  0  0  0  0  0
  -29.0623  -18.9446   19.3698 C   0  0  0  0  0  0  0  0  0  0  0  0
  -31.1221  -18.1280   20.3330 C   0  0  0  0  0  0  0  0  0  0  0  0
  -18.9350   -6.6540   24.3496 C   0  0  0  0  0  0  0  0  0  0  0  0
  -21.3028   -6.2972   24.6706 C   0  0  0  0  0  0  0  0  0  0  0  0
  -24.8308  -11.9183   21.5344 C   0  0  0  0  0  0  0  0  0  0  0  0
  -25.1013  -13.6231   20.1722 C   0  0  0  0  0  0  0  0  0  0  0  0
  -22.8188  -13.4810   21.1814 C   0  0  0  0  0  0  0  0  0  0  0  0
  -22.3189  -25.4537   22.2726 C   0  0  0  0  0  0  0  0  0  0  0  0
  -23.3528  -25.7656   25.3314 C   0  0  0  0  0  0  0  0  0  0  0  0
  -25.9671  -26.2514   27.4707 C   0  0  0  0  0  0  0  0  0  0  0  0
  -30.2803  -15.4420   19.2381 C   0  0  0  0  0  0  0  0  0  0  0  0
  -17.3172  -24.6403   21.6571 C   0  0  0  0  0  0  0  0  0  0  0  0
  -24.1936  -23.7696   22.3444 C   0  0  0  0  0  0  0  0  0  0  0  0
  -25.0012  -26.3615   23.5167 C   0  0  0  0  0  0  0  0  0  0  0  0
  -18.1838  -25.4128   22.6483 C   0  0  0  0  0  0  0  0  0  0  0  0
  -29.6403  -11.9914   18.6370 C   0  0  0  0  0  0  0  0  0  0  0  0
  -19.1946  -26.2832   21.9084 C   0  0  0  0  0  0  0  0  0  0  0  0
  -28.2772  -11.7561   19.2917 C   0  0  0  0  0  0  0  0  0  0  0  0
  -31.2592  -22.6776   19.1232 C   0  0  0  0  0  0  0  0  0  0  0  0
  -30.1676  -22.6154   21.4016 C   0  0  0  0  0  0  0  0  0  0  0  0
  -30.4922  -12.9742   19.4383 C   0  0  0  0  0  0  0  0  0  0  0  0
  -28.4784  -14.0195   20.3979 C   0  0  0  0  0  0  0  0  0  0  0  0
  -31.6265  -24.1385   19.3497 C   0  0  0  0  0  0  0  0  0  0  0  0
  -30.5436  -24.0767   21.6109 C   0  0  0  0  0  0  0  0  0  0  0  0
  -31.1493  -21.9112   20.4512 C   0  0  0  0  0  0  0  0  0  0  0  0
  -20.1450  -25.4273   21.0625 C   0  0  1  0  0  0  0  0  0  0  0  0
  -23.2192  -24.6267   23.1463 C   0  0  1  0  0  0  0  0  0  0  0  0
  -27.5593  -13.0864   19.5927 C   0  0  2  0  0  0  0  0  0  0  0  0
  -32.5084  -15.5523   22.4307 C   0  0  0  0  0  0  0  0  0  0  0  0
  -26.4955  -26.4980   29.9114 C   0  0  0  0  0  0  0  0  0  0  0  0
  -29.7870  -28.4572   21.1540 C   0  0  0  0  0  0  0  0  0  0  0  0
  -22.2639  -28.6154   25.2767 C   0  0  0  0  0  0  0  0  0  0  0  0
  -23.6297  -29.1021   27.3177 C   0  0  0  0  0  0  0  0  0  0  0  0
  -21.8325  -27.3744   27.4047 C   0  0  0  0  0  0  0  0  0  0  0  0
  -27.7054  -23.8562   27.4552 C   0  0  0  0  0  0  0  0  0  0  0  0
  -26.7278  -18.5882   19.6505 C   0  0  0  0  0  0  0  0  0  0  0  0
  -30.8577  -26.2496   20.4300 C   0  0  0  0  0  0  0  0  0  0  0  0
  -32.2872  -17.0076   22.0774 C   0  0  0  0  0  0  0  0  0  0  0  0
  -23.9673  -26.8798   26.1438 C   0  0  1  0  0  0  0  0  0  0  0  0
  -26.3741  -25.5315   28.7436 C   0  0  2  0  0  0  0  0  0  0  0  0
  -29.6231  -26.9524   20.9850 C   0  0  2  0  0  0  0  0  0  1  0  0
  -22.9357  -27.9832   26.5120 C   0  0  0  0  0  0  0  0  0  0  0  0
  -26.0935  -11.8121   21.1121 N   0  0  0  0  0  0  0  0  0  0  0  0
  -26.2279  -12.8628   20.2850 N   0  0  0  0  0  0  0  0  0  0  0  0
  -23.8972  -25.5513   24.0572 N   0  0  0  0  0  0  0  0  0  0  0  0
  -29.7490  -14.2124   19.6816 N   0  0  0  0  0  0  0  0  0  0  0  0
  -25.0630  -14.7171   19.3822 N   0  0  0  0  0  0  0  0  0  0  0  0
  -21.9903  -12.7527   22.0460 N   0  0  0  0  0  0  0  0  0  0  0  0
  -29.4699  -16.5470   19.4966 N   0  0  0  0  0  0  0  0  0  0  0  0
  -21.1527  -24.8129   21.9002 N   0  0  0  0  0  0  0  0  0  0  0  0
  -24.5995  -26.2447   27.2951 N   0  0  0  0  0  0  0  0  0  0  0  0
  -30.6181  -24.7932   20.2754 N   0  3  0  0  0  0  0  0  0  0  0  0
  -27.6875  -24.8523   28.5573 N   0  3  0  0  0  0  0  0  0  0  0  0
  -22.3595  -14.4918   20.5976 O   0  0  0  0  0  0  0  0  0  0  0  0
  -22.6567  -26.5897   21.9608 O   0  0  0  0  0  0  0  0  0  0  0  0
  -22.4289  -25.1050   25.8125 O   0  0  0  0  0  0  0  0  0  0  0  0
  -26.7807  -26.7712   26.7102 O   0  0  0  0  0  0  0  0  0  0  0  0
  -31.3610  -15.5063   18.6465 O   0  0  0  0  0  0  0  0  0  0  0  0
  -22.7466   -8.1706   25.1230 O   0  0  0  0  0  0  0  0  0  0  0  0
  -27.8513  -18.7249   18.7834 O   0  0  0  0  0  0  0  0  0  0  0  0
  -31.9445  -17.1034   20.6967 O   0  0  0  0  0  0  0  0  0  0  0  0
  -28.5144  -26.6860   20.1270 O   0  0  0  0  0  0  0  0  0  1  0  0
  -17.7114   -6.1679   24.1032 F   0  0  0  0  0  0  0  0  0  0  0  0
  -22.3498   -5.4629   24.7310 F   0  0  0  0  0  0  0  0  0  0  0  0
  1  2  1  0  0  0  0
  1  5  2  0  0  0  0
  2  6  2  0  0  0  0
  3  8  2  0  0  0  0
  3 17  1  0  0  0  0
  4  9  1  0  0  0  0
  4 17  2  0  0  0  0
  5 19  1  0  0  0  0
  6 21  1  0  0  0  0
  7 10  2  0  0  0  0
  7 20  1  0  0  0  0
  8 25  1  0  0  0  0
  9 25  2  0  0  0  0
 10 26  1  0  0  0  0
 11 12  2  0  0  0  0
 11 27  1  0  0  0  0
 12 30  1  0  0  0  0
 13 22  1  0  0  0  0
 13 28  2  0  0  0  0
 14 22  2  0  0  0  0
 14 29  1  0  0  0  0
 15 23  1  0  0  0  0
 15 26  2  0  0  0  0
 16 30  2  0  0  0  0
 16 31  1  0  0  0  0
 17 32  1  0  0  0  0
 18 32  1  0  0  0  0
 18 33  2  0  0  0  0
 18 34  1  0  0  0  0
 19 21  2  0  0  0  0
 19 39  1  0  0  0  0
 20 23  2  0  0  0  0
 20 40  1  0  0  0  0
 21 53  1  0  0  0  0
 22 52  1  0  0  0  0
 23 41  1  0  0  0  0
 24 28  1  0  0  0  0
 24 29  2  0  0  0  0
 24 76  1  0  0  0  0
 25 86  1  0  0  0  0
 26 89  1  0  0  0  0
 27 31  2  0  0  0  0
 27 86  1  0  0  0  0
 28 87  1  0  0  0  0
 29 88  1  0  0  0  0
 30 90  1  0  0  0  0
 31 91  1  0  0  0  0
 32 70  2  0  0  0  0
 33 71  1  0  0  0  0
 33 74  1  0  0  0  0
 34 75  1  0  0  0  0
 34 81  2  0  0  0  0
 35 54  1  0  0  0  0
 35 77  1  0  0  0  0
 35 82  2  0  0  0  0
 36 66  1  0  0  0  0
 36 72  1  0  0  0  0
 36 83  2  0  0  0  0
 37 67  1  0  0  0  0
 37 78  1  0  0  0  0
 37 84  2  0  0  0  0
 38 73  1  0  0  0  0
 38 76  1  0  0  0  0
 38 85  2  0  0  0  0
 39 42  1  0  0  0  0
 40 54  1  0  0  0  0
 41 72  1  0  0  0  0
 42 44  1  0  0  0  0
 43 45  1  0  0  0  0
 43 48  1  0  0  0  0
 44 53  1  0  0  0  0
 45 55  1  0  0  0  0
 46 50  1  0  0  0  0
 46 52  1  0  0  0  0
 47 51  1  0  0  0  0
 47 52  1  0  0  0  0
 48 73  1  0  0  0  0
 49 55  1  0  0  0  0
 49 73  1  0  0  0  0
 50 79  1  0  0  0  0
 51 79  1  0  0  0  0
 53 77  1  0  0  0  0
 54 72  1  0  0  0  0
 55 71  1  0  0  0  0
 56 65  1  0  0  0  0
 57 67  1  0  0  0  0
 58 68  1  0  0  0  0
 59 69  1  0  0  0  0
 60 69  1  0  0  0  0
 61 69  1  0  0  0  0
 62 80  1  0  0  0  0
 63 87  1  0  0  0  0
 64 68  1  0  0  0  0
 64 79  1  0  0  0  0
 65 88  1  0  0  0  0
 66 69  1  0  0  0  0
 66 78  1  0  0  0  0
 67 80  1  0  0  0  0
 68 89  1  0  0  0  0
 70 71  1  0  0  0  0
M  CHG  2  79   1  80   1
M  ISO  4  38 100  68 101  76 100  89 101
M  END
> <Batch ID>
0150

> <Smiles>
CCOc1cc(C2CCN(C[101CH:1](C)[101O:1]c3ccc4c(c3)CN(C(=O)C(NC(=O)C(C)NC)C(C)(C)C)C(C(=O)NC3CCCc5ccccc53)C4)CC2)cc(OC)c1[100NH:0][100C:0](=O)N1CCCC(n2nc(-c3ccc(Oc4ccc(F)cc4F)cc3)c(C(N)=O)c2N)C1

> <Shape>
0.221

> <Color>
0.117

> <Negative vol penalty>
0.000

$$$$

  -OEChem-04052321413D

 87 96  0     1  0  0  0  0  0999 V2000
  -20.1011  -23.6801   23.5853 C   0  0  0  0  0  0  0  0  0  0  0  0
  -21.4307  -23.9642   23.2901 C   0  0  0  0  0  0  0  0  0  0  0  0
  -24.5057   -9.1045   22.0630 C   0  0  0  0  0  0  0  0  0  0  0  0
  -24.2277   -8.6247   19.7114 C   0  0  0  0  0  0  0  0  0  0  0  0
  -19.1283  -24.6673   23.4335 C   0  0  0  0  0  0  0  0  0  0  0  0
  -21.7879  -25.2353   22.8419 C   0  0  0  0  0  0  0  0  0  0  0  0
  -25.9459  -27.0039   25.1285 C   0  0  0  0  0  0  0  0  0  0  0  0
  -23.3204   -8.4241   22.3419 C   0  0  0  0  0  0  0  0  0  0  0  0
  -23.0425   -7.9443   19.9904 C   0  0  0  0  0  0  0  0  0  0  0  0
  -27.1734  -26.5114   24.6875 C   0  0  0  0  0  0  0  0  0  0  0  0
  -22.3057   -5.2141   22.6565 C   0  0  0  0  0  0  0  0  0  0  0  0
  -22.3053   -4.3273   23.7332 C   0  0  0  0  0  0  0  0  0  0  0  0
  -27.4957  -28.5082   23.3730 C   0  0  0  0  0  0  0  0  0  0  0  0
  -29.8557  -23.8601   22.3638 C   0  0  0  0  0  0  0  0  0  0  0  0
  -29.1269  -24.4845   20.1467 C   0  0  0  0  0  0  0  0  0  0  0  0
  -20.5557   -5.6138   24.7919 C   0  0  0  0  0  0  0  0  0  0  0  0
  -24.9593   -9.2048   20.7477 C   0  0  0  0  0  0  0  0  0  0  0  0
  -27.4832   -9.3693   20.4150 C   0  0  0  0  0  0  0  0  0  0  0  0
  -19.4753  -25.9540   22.9924 C   0  0  0  0  0  0  0  0  0  0  0  0
  -25.4783  -28.2496   24.6857 C   0  0  0  0  0  0  0  0  0  0  0  0
  -20.8186  -26.2402   22.6828 C   0  0  0  0  0  0  0  0  0  0  0  0
  -26.2631  -29.0155   23.8118 C   0  0  0  0  0  0  0  0  0  0  0  0
  -29.8081  -24.7897   21.3250 C   0  0  0  0  0  0  0  0  0  0  0  0
  -29.2223  -22.6251   22.2242 C   0  0  0  0  0  0  0  0  0  0  0  0
  -28.4934  -23.2496   20.0071 C   0  0  0  0  0  0  0  0  0  0  0  0
  -22.5888   -7.8440   21.3056 C   0  0  0  0  0  0  0  0  0  0  0  0
  -27.9471  -27.2622   23.8074 C   0  0  0  0  0  0  0  0  0  0  0  0
  -21.4312   -6.3007   22.6475 C   0  0  0  0  0  0  0  0  0  0  0  0
  -28.5411  -22.3200   21.0459 C   0  0  0  0  0  0  0  0  0  0  0  0
  -21.4303   -4.5272   24.8009 C   0  0  0  0  0  0  0  0  0  0  0  0
  -20.5562   -6.5006   23.7152 C   0  0  0  0  0  0  0  0  0  0  0  0
  -26.1833   -9.9080   20.4589 C   0  0  0  0  0  0  0  0  0  0  0  0
  -28.2872  -10.4377   20.1011 C   0  0  0  0  0  0  0  0  0  0  0  0
  -27.9244   -8.0234   20.6379 C   0  0  0  0  0  0  0  0  0  0  0  0
  -22.9514  -29.2375   23.0296 C   0  0  0  0  0  0  0  0  0  0  0  0
  -24.1124  -32.1778   23.7573 C   0  0  0  0  0  0  0  0  0  0  0  0
  -26.7969  -34.1009   24.6188 C   0  0  0  0  0  0  0  0  0  0  0  0
  -27.9006  -16.1393   20.9558 C   0  0  0  0  0  0  0  0  0  0  0  0
  -18.3817  -26.9744   22.7985 C   0  0  0  0  0  0  0  0  0  0  0  0
  -24.1643  -28.7787   25.1916 C   0  0  0  0  0  0  0  0  0  0  0  0
  -25.8155  -30.3678   23.3226 C   0  0  0  0  0  0  0  0  0  0  0  0
  -18.8987  -28.4055   22.6766 C   0  0  0  0  0  0  0  0  0  0  0  0
  -28.2328  -14.6284   17.8048 C   0  0  0  0  0  0  0  0  0  0  0  0
  -20.0788  -28.4665   21.7121 C   0  0  0  0  0  0  0  0  0  0  0  0
  -27.8687  -13.1785   18.1236 C   0  0  0  0  0  0  0  0  0  0  0  0
  -29.5282  -19.4046   20.2953 C   0  0  0  0  0  0  0  0  0  0  0  0
  -27.1945  -19.4332   19.3142 C   0  0  0  0  0  0  0  0  0  0  0  0
  -27.3319  -15.6208   18.5418 C   0  0  0  0  0  0  0  0  0  0  0  0
  -29.0930  -18.2805   21.2343 C   0  0  0  0  0  0  0  0  0  0  0  0
  -26.8119  -18.3119   20.2775 C   0  0  0  0  0  0  0  0  0  0  0  0
  -26.9102  -13.9585   20.3238 C   0  0  0  0  0  0  0  0  0  0  0  0
  -21.2492  -27.6145   22.2178 C   0  0  1  0  0  0  0  0  0  0  0  0
  -23.5505  -29.8310   24.2732 C   0  0  1  0  0  0  0  0  0  0  0  0
  -27.8362  -12.9383   19.6435 C   0  0  1  0  0  0  0  0  0  0  0  0
  -28.3585  -20.2765   19.8372 C   0  0  0  0  0  0  0  0  0  0  0  0
  -29.2844  -21.6431   23.3475 C   0  0  0  0  0  0  0  0  0  0  0  0
  -27.7688  -22.9414   18.7383 C   0  0  0  0  0  0  0  0  0  0  0  0
  -27.4428  -36.4760   25.1076 C   0  0  0  0  0  0  0  0  0  0  0  0
  -24.0269  -32.8124   20.7740 C   0  0  0  0  0  0  0  0  0  0  0  0
  -25.5314  -34.7639   21.2170 C   0  0  0  0  0  0  0  0  0  0  0  0
  -23.2667  -34.6754   22.2591 C   0  0  0  0  0  0  0  0  0  0  0  0
  -27.6434  -33.4260   27.3732 C   0  0  0  0  0  0  0  0  0  0  0  0
  -30.4857  -26.1098   21.4739 C   0  0  0  0  0  0  0  0  0  0  0  0
  -29.5753  -27.1847   22.0756 C   0  0  0  0  0  0  0  0  0  1  0  0
  -25.0827  -33.1348   23.1079 C   0  0  1  0  0  0  0  0  0  0  0  0
  -26.9769  -35.1539   25.6973 C   0  0  2  0  0  0  0  0  0  0  0  0
  -24.4847  -33.8203   21.8470 C   0  0  0  0  0  0  0  0  0  0  0  0
  -26.1585  -11.2170   20.1942 N   0  0  0  0  0  0  0  0  0  0  0  0
  -27.4527  -11.5097   19.9811 N   0  0  0  0  0  0  0  0  0  0  0  0
  -24.5206  -30.8390   23.8408 N   0  0  0  0  0  0  0  0  0  0  0  0
  -27.3020  -15.3272   19.9809 N   0  0  0  0  0  0  0  0  0  0  0  0
  -27.9793  -17.5141   20.6762 N   0  0  0  0  0  0  0  0  0  0  0  0
  -29.6197  -10.5553   19.9188 N   0  0  0  0  0  0  0  0  0  0  0  0
  -26.9663   -7.0494   20.9506 N   0  0  0  0  0  0  0  0  0  0  0  0
  -21.9596  -28.3064   23.2719 N   0  0  0  0  0  0  0  0  0  0  0  0
  -25.4999  -34.0643   24.1522 N   0  0  0  0  0  0  0  0  0  0  0  0
  -27.9859  -34.7039   26.6974 N   0  3  0  0  0  0  0  0  0  0  0  0
  -29.1342   -7.6976   20.5781 O   0  0  0  0  0  0  0  0  0  0  0  0
  -23.3579  -29.5989   21.9314 O   0  0  0  0  0  0  0  0  0  0  0  0
  -23.0352  -32.6037   24.1813 O   0  0  0  0  0  0  0  0  0  0  0  0
  -27.7158  -33.3851   24.2267 O   0  0  0  0  0  0  0  0  0  0  0  0
  -28.3418  -15.6671   22.0110 O   0  0  0  0  0  0  0  0  0  0  0  0
  -21.4323   -7.1798   21.5775 O   0  0  0  0  0  0  0  0  0  0  0  0
  -27.9183  -21.1073   20.9092 O   0  0  0  0  0  0  0  0  0  0  0  0
  -29.1538  -26.7801   23.3719 O   0  0  0  0  0  0  0  0  0  1  0  0
  -21.4289   -3.6747   25.8340 F   0  0  0  0  0  0  0  0  0  0  0  0
  -19.7129   -7.5420   23.7117 F   0  0  0  0  0  0  0  0  0  0  0  0
  1  2  1  0  0  0  0
  1  5  2  0  0  0  0
  2  6  2  0  0  0  0
  3  8  2  0  0  0  0
  3 17  1  0  0  0  0
  4  9  1  0  0  0  0
  4 17  2  0  0  0  0
  5 19  1  0  0  0  0
  6 21  1  0  0  0  0
  7 10  2  0  0  0  0
  7 20  1  0  0  0  0
  8 26  1  0  0  0  0
  9 26  2  0  0  0  0
 10 27  1  0  0  0  0
 11 12  2  0  0  0  0
 11 28  1  0  0  0  0
 12 30  1  0  0  0  0
 13 22  1  0  0  0  0
 13 27  2  0  0  0  0
 14 23  1  0  0  0  0
 14 24  2  0  0  0  0
 15 23  2  0  0  0  0
 15 25  1  0  0  0  0
 16 30  2  0  0  0  0
 16 31  1  0  0  0  0
 17 32  1  0  0  0  0
 18 32  1  0  0  0  0
 18 33  2  0  0  0  0
 18 34  1  0  0  0  0
 19 21  2  0  0  0  0
 19 39  1  0  0  0  0
 20 22  2  0  0  0  0
 20 40  1  0  0  0  0
 21 52  1  0  0  0  0
 22 41  1  0  0  0  0
 23 63  1  0  0  0  0
 24 29  1  0  0  0  0
 24 56  1  0  0  0  0
 25 29  2  0  0  0  0
 25 57  1  0  0  0  0
 26 83  1  0  0  0  0
 27 85  1  0  0  0  0
 28 31  2  0  0  0  0
 28 83  1  0  0  0  0
 29 84  1  0  0  0  0
 30 86  1  0  0  0  0
 31 87  1  0  0  0  0
 32 68  2  0  0  0  0
 33 69  1  0  0  0  0
 33 73  1  0  0  0  0
 34 74  1  0  0  0  0
 34 78  2  0  0  0  0
 35 53  1  0  0  0  0
 35 75  1  0  0  0  0
 35 79  2  0  0  0  0
 36 65  1  0  0  0  0
 36 70  1  0  0  0  0
 36 80  2  0  0  0  0
 37 66  1  0  0  0  0
 37 76  1  0  0  0  0
 37 81  2  0  0  0  0
 38 71  1  0  0  0  0
 38 72  1  0  0  0  0
 38 82  2  0  0  0  0
 39 42  1  0  0  0  0
 40 53  1  0  0  0  0
 41 70  1  0  0  0  0
 42 44  1  0  0  0  0
 43 45  1  0  0  0  0
 43 48  1  0  0  0  0
 44 52  1  0  0  0  0
 45 54  1  0  0  0  0
 46 49  1  0  0  0  0
 46 55  1  0  0  0  0
 47 50  1  0  0  0  0
 47 55  1  0  0  0  0
 48 71  1  0  0  0  0
 49 72  1  0  0  0  0
 50 72  1  0  0  0  0
 51 54  1  0  0  0  0
 51 71  1  0  0  0  0
 52 75  1  0  0  0  0
 53 70  1  0  0  0  0
 54 69  1  0  0  0  0
 55 84  1  0  0  0  0
 58 66  1  0  0  0  0
 59 67  1  0  0  0  0
 60 67  1  0  0  0  0
 61 67  1  0  0  0  0
 62 77  1  0  0  0  0
 63 64  1  0  0  0  0
 64 85  1  0  0  0  0
 65 67  1  0  0  0  0
 65 76  1  0  0  0  0
 66 77  1  0  0  0  0
 68 69  1  0  0  0  0
M  CHG  1  77   1
M  ISO  4  38 100  64 101  72 100  85 101
M  END
> <Batch ID>
0150

> <Smiles>
CNC(C)C(=O)NC(C(=O)N1Cc2cc([101O:1][101CH2:1]Cc3cc(C)c(OC4CC[100N:0]([100C:0](=O)N5CCCC(n6nc(-c7ccc(Oc8ccc(F)cc8F)cc7)c(C(N)=O)c6N)C5)CC4)c(C)c3)ccc2CC1C(=O)NC1CCCc2ccccc21)C(C)(C)C

> <Shape>
0.296

> <Color>
0.106

> <Negative vol penalty>
0.000

$$$$

  -OEChem-04052321413D

 89 99  0     1  0  0  0  0  0999 V2000
  -21.8912  -11.1757   19.8202 C   0  0  0  0  0  0  0  0  0  0  0  0
  -21.5780  -12.3889   20.4246 C   0  0  0  0  0  0  0  0  0  0  0  0
  -25.5709  -25.7337   18.4591 C   0  0  0  0  0  0  0  0  0  0  0  0
  -24.7661  -25.3068   20.6968 C   0  0  0  0  0  0  0  0  0  0  0  0
  -23.2240  -10.7896   19.6840 C   0  0  0  0  0  0  0  0  0  0  0  0
  -22.5974  -13.2163   20.8942 C   0  0  0  0  0  0  0  0  0  0  0  0
  -22.6570  -19.3402   20.9065 C   0  0  0  0  0  0  0  0  0  0  0  0
  -25.5067  -24.3695   18.1757 C   0  0  0  0  0  0  0  0  0  0  0  0
  -24.7019  -23.9426   20.4134 C   0  0  0  0  0  0  0  0  0  0  0  0
  -22.3777  -20.2790   21.8987 C   0  0  0  0  0  0  0  0  0  0  0  0
  -23.1313  -22.1013   17.3724 C   0  0  0  0  0  0  0  0  0  0  0  0
  -22.5680  -21.7178   16.1554 C   0  0  0  0  0  0  0  0  0  0  0  0
  -21.7137  -28.8692   23.6873 C   0  0  0  0  0  0  0  0  0  0  0  0
  -24.7313  -20.4362   22.4040 C   0  0  0  0  0  0  0  0  0  0  0  0
  -22.3541  -26.6768   24.5224 C   0  0  0  0  0  0  0  0  0  0  0  0
  -24.6453  -20.6553   15.5286 C   0  0  0  0  0  0  0  0  0  0  0  0
  -25.2006  -26.2024   19.7196 C   0  0  0  0  0  0  0  0  0  0  0  0
  -24.2499  -28.5671   19.8297 C   0  0  0  0  0  0  0  0  0  0  0  0
  -24.2607  -11.6171   20.1435 C   0  0  0  0  0  0  0  0  0  0  0  0
  -23.9767  -18.9336   20.6626 C   0  0  0  0  0  0  0  0  0  0  0  0
  -23.9453  -12.8403   20.7652 C   0  0  0  0  0  0  0  0  0  0  0  0
  -20.6609  -28.2649   23.0238 C   0  0  0  0  0  0  0  0  0  0  0  0
  -25.0249  -19.4940   21.4064 C   0  0  0  0  0  0  0  0  0  0  0  0
  -20.4529  -26.8957   23.0994 C   0  0  0  0  0  0  0  0  0  0  0  0
  -22.5647  -28.0627   24.4458 C   0  0  0  0  0  0  0  0  0  0  0  0
  -25.0722  -23.4739   19.1528 C   0  0  0  0  0  0  0  0  0  0  0  0
  -23.4146  -20.8250   22.6496 C   0  0  0  0  0  0  0  0  0  0  0  0
  -24.4517  -21.7618   17.6676 C   0  0  0  0  0  0  0  0  0  0  0  0
  -21.2901  -26.0818   23.8412 C   0  0  0  0  0  0  0  0  0  0  0  0
  -23.3250  -20.9948   15.2335 C   0  0  0  0  0  0  0  0  0  0  0  0
  -25.2087  -21.0388   16.7457 C   0  0  0  0  0  0  0  0  0  0  0  0
  -25.2673  -27.6115   20.0131 C   0  0  0  0  0  0  0  0  0  0  0  0
  -24.8070  -29.7478   20.2563 C   0  0  0  0  0  0  0  0  0  0  0  0
  -22.9202  -28.4021   19.3195 C   0  0  0  0  0  0  0  0  0  0  0  0
  -25.5413  -16.1721   20.8352 C   0  0  0  0  0  0  0  0  0  0  0  0
  -27.9532  -17.9038   19.5290 C   0  0  0  0  0  0  0  0  0  0  0  0
  -29.9525  -20.8881   19.1910 C   0  0  0  0  0  0  0  0  0  0  0  0
  -27.2621  -28.9053   24.6182 C   0  0  0  0  0  0  0  0  0  0  0  0
  -25.6843  -11.1355   20.0166 C   0  0  0  0  0  0  0  0  0  0  0  0
  -24.2640  -17.9399   19.5706 C   0  0  0  0  0  0  0  0  0  0  0  0
  -26.4609  -19.1061   21.1700 C   0  0  0  0  0  0  0  0  0  0  0  0
  -19.6320  -28.8711   22.1467 C   0  0  0  0  0  0  0  0  0  0  0  0
  -19.2764  -26.5305   22.2760 C   0  0  0  0  0  0  0  0  0  0  0  0
  -26.7202  -12.2411   20.2035 C   0  0  0  0  0  0  0  0  0  0  0  0
  -29.1601  -28.9132   21.5909 C   0  0  0  0  0  0  0  0  0  0  0  0
  -25.9470  -31.1261   27.1654 C   0  0  0  0  0  0  0  0  0  0  0  0
  -26.3838  -13.0864   21.4278 C   0  0  0  0  0  0  0  0  0  0  0  0
  -28.5361  -30.0148   20.7414 C   0  0  0  0  0  0  0  0  0  0  0  0
  -24.9995  -29.9510   27.3619 C   0  0  0  0  0  0  0  0  0  0  0  0
  -29.1392  -29.2948   23.0629 C   0  0  0  0  0  0  0  0  0  0  0  0
  -26.3198  -31.0102   25.6955 C   0  0  0  0  0  0  0  0  0  0  0  0
  -27.0573  -30.6172   22.7419 C   0  0  0  0  0  0  0  0  0  0  0  0
  -25.0241  -13.7766   21.2650 C   0  0  1  0  0  0  0  0  0  0  0  0
  -25.5941  -17.2162   19.7560 C   0  0  1  0  0  0  0  0  0  0  0  0
  -27.1232  -30.3941   21.2133 C   0  0  2  0  0  0  0  0  0  0  0  0
  -25.6185  -28.8516   26.4944 C   0  0  1  0  0  0  0  0  0  0  0  0
  -31.8527  -21.4116   17.6378 C   0  0  0  0  0  0  0  0  0  0  0  0
  -29.7156  -16.9518   21.8306 C   0  0  0  0  0  0  0  0  0  0  0  0
  -31.3316  -18.7756   21.2555 C   0  0  0  0  0  0  0  0  0  0  0  0
  -30.8405  -16.9780   19.5971 C   0  0  0  0  0  0  0  0  0  0  0  0
  -28.6043  -23.3185   18.1741 C   0  0  0  0  0  0  0  0  0  0  0  0
  -24.5628  -27.9083   25.9323 C   0  0  0  0  0  0  0  0  0  0  0  0
  -22.0043  -22.5760   23.4247 C   0  0  0  0  0  0  0  0  0  1  0  0
  -22.2451  -23.9179   24.0888 C   0  0  0  0  0  0  0  0  0  0  0  0
  -29.0881  -18.7369   20.0740 C   0  0  1  0  0  0  0  0  0  0  0  0
  -30.3620  -21.5658   17.8959 C   0  0  2  0  0  0  0  0  0  0  0  0
  -30.2168  -17.8667   20.6953 C   0  0  0  0  0  0  0  0  0  0  0  0
  -26.3860  -28.1396   20.5168 N   0  0  0  0  0  0  0  0  0  0  0  0
  -26.0749  -29.4398   20.6534 N   0  0  0  0  0  0  0  0  0  0  0  0
  -26.6901  -18.1261   20.0955 N   0  0  0  0  0  0  0  0  0  0  0  0
  -27.7885  -29.6122   23.5269 N   0  0  0  0  0  0  0  0  0  0  0  0
  -26.3515  -29.5685   25.4439 N   0  0  0  0  0  0  0  0  0  0  0  0
  -24.3311  -31.0092   20.3265 N   0  0  0  0  0  0  0  0  0  0  0  0
  -22.5095  -27.1210   18.9266 N   0  0  0  0  0  0  0  0  0  0  0  0
  -23.6361  -28.6377   25.1315 N   0  0  0  0  0  0  0  0  0  0  0  0
  -25.1416  -14.9255   20.3929 N   0  0  0  0  0  0  0  0  0  0  0  0
  -29.5285  -19.5934   18.9782 N   0  0  0  0  0  0  0  0  0  0  0  0
  -30.0422  -23.0204   17.9488 N   0  3  0  0  0  0  0  0  0  0  0  0
  -22.1254  -29.3652   19.1998 O   0  0  0  0  0  0  0  0  0  0  0  0
  -25.8424  -16.4747   21.9839 O   0  0  0  0  0  0  0  0  0  0  0  0
  -28.1778  -17.0910   18.6287 O   0  0  0  0  0  0  0  0  0  0  0  0
  -30.0072  -21.4497   20.2829 O   0  0  0  0  0  0  0  0  0  0  0  0
  -27.5981  -27.7365   24.8510 O   0  0  0  0  0  0  0  0  0  0  0  0
  -18.6941  -27.7985   21.8894 O   0  0  0  0  0  0  0  0  0  0  0  0
  -25.0092  -22.1426   18.8766 O   0  0  0  0  0  0  0  0  0  0  0  0
  -23.1429  -21.7472   23.6257 O   0  0  0  0  0  0  0  0  0  1  0  0
  -21.0914  -24.7410   23.9094 O   0  0  0  0  0  0  0  0  0  0  0  0
  -22.7834  -20.6252   14.0655 F   0  0  0  0  0  0  0  0  0  0  0  0
  -26.4773  -20.7088   17.0241 F   0  0  0  0  0  0  0  0  0  0  0  0
  1  2  1  0  0  0  0
  1  5  2  0  0  0  0
  2  6  2  0  0  0  0
  3  8  2  0  0  0  0
  3 17  1  0  0  0  0
  4  9  1  0  0  0  0
  4 17  2  0  0  0  0
  5 19  1  0  0  0  0
  6 21  1  0  0  0  0
  7 10  2  0  0  0  0
  7 20  1  0  0  0  0
  8 26  1  0  0  0  0
  9 26  2  0  0  0  0
 10 27  1  0  0  0  0
 11 12  2  0  0  0  0
 11 28  1  0  0  0  0
 12 30  1  0  0  0  0
 13 22  2  0  0  0  0
 13 25  1  0  0  0  0
 14 23  1  0  0  0  0
 14 27  2  0  0  0  0
 15 25  2  0  0  0  0
 15 29  1  0  0  0  0
 16 30  2  0  0  0  0
 16 31  1  0  0  0  0
 17 32  1  0  0  0  0
 18 32  1  0  0  0  0
 18 33  2  0  0  0  0
 18 34  1  0  0  0  0
 19 21  2  0  0  0  0
 19 39  1  0  0  0  0
 20 23  2  0  0  0  0
 20 40  1  0  0  0  0
 21 53  1  0  0  0  0
 22 24  1  0  0  0  0
 22 42  1  0  0  0  0
 23 41  1  0  0  0  0
 24 29  2  0  0  0  0
 24 43  1  0  0  0  0
 25 75  1  0  0  0  0
 26 85  1  0  0  0  0
 27 86  1  0  0  0  0
 28 31  2  0  0  0  0
 28 85  1  0  0  0  0
 29 87  1  0  0  0  0
 30 88  1  0  0  0  0
 31 89  1  0  0  0  0
 32 68  2  0  0  0  0
 33 69  1  0  0  0  0
 33 73  1  0  0  0  0
 34 74  1  0  0  0  0
 34 79  2  0  0  0  0
 35 54  1  0  0  0  0
 35 76  1  0  0  0  0
 35 80  2  0  0  0  0
 36 65  1  0  0  0  0
 36 70  1  0  0  0  0
 36 81  2  0  0  0  0
 37 66  1  0  0  0  0
 37 77  1  0  0  0  0
 37 82  2  0  0  0  0
 38 71  1  0  0  0  0
 38 72  1  0  0  0  0
 38 83  2  0  0  0  0
 39 44  1  0  0  0  0
 40 54  1  0  0  0  0
 41 70  1  0  0  0  0
 42 84  1  0  0  0  0
 43 84  1  0  0  0  0
 44 47  1  0  0  0  0
 45 48  1  0  0  0  0
 45 50  1  0  0  0  0
 46 49  1  0  0  0  0
 46 51  1  0  0  0  0
 47 53  1  0  0  0  0
 48 55  1  0  0  0  0
 49 56  1  0  0  0  0
 50 71  1  0  0  0  0
 51 72  1  0  0  0  0
 52 55  1  0  0  0  0
 52 71  1  0  0  0  0
 53 76  1  0  0  0  0
 54 70  1  0  0  0  0
 55 69  1  0  0  0  0
 56 62  1  0  0  0  0
 56 72  1  0  0  0  0
 57 66  1  0  0  0  0
 58 67  1  0  0  0  0
 59 67  1  0  0  0  0
 60 67  1  0  0  0  0
 61 78  1  0  0  0  0
 62 75  1  0  0  0  0
 63 64  1  0  0  0  0
 63 86  1  0  0  0  0
 64 87  1  0  0  0  0
 65 67  1  0  0  0  0
 65 77  1  0  0  0  0
 66 78  1  0  0  0  0
 68 69  1  0  0  0  0
M  CHG  1  78   1
M  ISO  4  38 100  63 101  72 100  86 101
M  END
> <Batch ID>
0150

> <Smiles>
CNC(C)C(=O)NC(C(=O)N1Cc2cc([101O:1][101CH2:1]COc3cc(NCC4CCC[100N:0]4[100C:0](=O)N4CCCC(n5nc(-c6ccc(Oc7ccc(F)cc7F)cc6)c(C(N)=O)c5N)C4)cc4c3COC4)ccc2CC1C(=O)NC1CCCc2ccccc21)C(C)(C)C

> <Shape>
0.254

> <Color>
0.063

> <Negative vol penalty>
0.000

$$$$

  -OEChem-04052321413D

 90100  0     1  0  0  0  0  0999 V2000
  -17.1411  -30.5395   23.9510 C   0  0  0  0  0  0  0  0  0  0  0  0
  -18.4959  -30.8501   24.0106 C   0  0  0  0  0  0  0  0  0  0  0  0
  -25.5620  -13.6807   21.8014 C   0  0  0  0  0  0  0  0  0  0  0  0
  -24.5129  -14.6949   19.8759 C   0  0  0  0  0  0  0  0  0  0  0  0
  -16.7332  -29.2917   23.4814 C   0  0  0  0  0  0  0  0  0  0  0  0
  -19.4436  -29.9125   23.6016 C   0  0  0  0  0  0  0  0  0  0  0  0
  -24.7820  -31.0455   20.8224 C   0  0  0  0  0  0  0  0  0  0  0  0
  -24.6267  -12.6465   21.7663 C   0  0  0  0  0  0  0  0  0  0  0  0
  -23.5776  -13.6607   19.8407 C   0  0  0  0  0  0  0  0  0  0  0  0
  -26.0883  -31.1353   21.3013 C   0  0  0  0  0  0  0  0  0  0  0  0
  -22.7347   -9.5487   21.9636 C   0  0  0  0  0  0  0  0  0  0  0  0
  -23.2041   -8.2443   22.1178 C   0  0  0  0  0  0  0  0  0  0  0  0
  -26.4651  -28.8330   20.6875 C   0  0  0  0  0  0  0  0  0  0  0  0
  -24.5807   -8.5070   20.1498 C   0  0  0  0  0  0  0  0  0  0  0  0
  -29.4763  -24.5380   19.8960 C   0  0  0  0  0  0  0  0  0  0  0  0
  -25.5051  -14.7049   20.8562 C   0  0  0  0  0  0  0  0  0  0  0  0
  -27.7156  -15.8173   20.2366 C   0  0  0  0  0  0  0  0  0  0  0  0
  -17.6759  -28.3420   23.0575 C   0  0  0  0  0  0  0  0  0  0  0  0
  -24.3032  -29.8435   20.2816 C   0  0  0  0  0  0  0  0  0  0  0  0
  -19.0479  -28.6504   23.1272 C   0  0  0  0  0  0  0  0  0  0  0  0
  -25.1532  -28.7313   20.2002 C   0  0  0  0  0  0  0  0  0  0  0  0
  -29.9199  -23.0486   18.2667 C   0  0  0  0  0  0  0  0  0  0  0  0
  -29.2268  -23.2468   19.4863 C   0  0  0  0  0  0  0  0  0  0  0  0
  -23.6345  -12.6365   20.7859 C   0  0  0  0  0  0  0  0  0  0  0  0
  -26.9292  -30.0281   21.2365 C   0  0  0  0  0  0  0  0  0  0  0  0
  -23.1882  -10.3322   20.9025 C   0  0  0  0  0  0  0  0  0  0  0  0
  -24.1271   -7.7234   21.2109 C   0  0  0  0  0  0  0  0  0  0  0  0
  -24.1112   -9.8114   19.9956 C   0  0  0  0  0  0  0  0  0  0  0  0
  -26.4706  -15.7738   20.8923 C   0  0  0  0  0  0  0  0  0  0  0  0
  -30.5720  -24.2246   17.9684 C   0  0  0  0  0  0  0  0  0  0  0  0
  -28.2462  -17.0346   20.5877 C   0  0  0  0  0  0  0  0  0  0  0  0
  -28.3368  -14.8444   19.3862 C   0  0  0  0  0  0  0  0  0  0  0  0
  -21.9778  -27.8126   21.0376 C   0  0  0  0  0  0  0  0  0  0  0  0
  -22.8348  -26.3999   18.2461 C   0  0  0  0  0  0  0  0  0  0  0  0
  -25.2427  -25.8714   15.8861 C   0  0  0  0  0  0  0  0  0  0  0  0
  -27.7389  -22.5217   21.3855 C   0  0  0  0  0  0  0  0  0  0  0  0
  -17.1891  -26.9891   22.6020 C   0  0  0  0  0  0  0  0  0  0  0  0
  -22.9000  -29.7708   19.7449 C   0  0  0  0  0  0  0  0  0  0  0  0
  -24.6940  -27.4238   19.6101 C   0  0  0  0  0  0  0  0  0  0  0  0
  -18.2399  -26.1899   21.8356 C   0  0  0  0  0  0  0  0  0  0  0  0
  -26.7594  -20.3957   24.0683 C   0  0  0  0  0  0  0  0  0  0  0  0
  -29.5236  -21.8353   15.9770 C   0  0  0  0  0  0  0  0  0  0  0  0
  -28.6286  -21.1682   16.9741 C   0  0  0  0  0  0  0  0  0  0  0  0
  -19.5792  -26.2323   22.5645 C   0  0  0  0  0  0  0  0  0  0  0  0
  -26.6993  -19.0073   23.4272 C   0  0  0  0  0  0  0  0  0  0  0  0
  -29.8337  -27.4389   18.3032 C   0  0  0  0  0  0  0  0  0  0  0  0
  -30.9681  -26.9083   20.5072 C   0  0  0  0  0  0  0  0  0  0  0  0
  -26.2806  -21.4843   23.1094 C   0  0  0  0  0  0  0  0  0  0  0  0
  -26.8852  -20.1061   21.1589 C   0  0  0  0  0  0  0  0  0  0  0  0
  -30.2896  -28.8864   18.4319 C   0  0  0  0  0  0  0  0  0  0  0  0
  -31.4118  -28.3614   20.6140 C   0  0  0  0  0  0  0  0  0  0  0  0
  -29.9427  -21.7729   17.4347 C   0  0  0  0  0  0  0  0  0  0  0  0
  -20.1050  -27.6690   22.6694 C   0  0  1  0  0  0  0  0  0  0  0  0
  -22.3562  -28.3466   19.6851 C   0  0  1  0  0  0  0  0  0  0  0  0
  -27.4191  -18.9842   22.0645 C   0  0  2  0  0  0  0  0  0  0  0  0
  -30.7838  -26.4842   19.0421 C   0  0  0  0  0  0  0  0  0  0  0  0
  -31.4352  -24.5714   16.8194 C   0  0  0  0  0  0  0  0  0  0  0  0
  -25.6606  -24.6407   13.7395 C   0  0  0  0  0  0  0  0  0  0  0  0
  -31.1071  -32.4836   21.8578 C   0  0  0  0  0  0  0  0  0  0  0  0
  -23.1312  -23.7918   19.8018 C   0  0  0  0  0  0  0  0  0  0  0  0
  -24.4307  -22.8690   17.8710 C   0  0  0  0  0  0  0  0  0  0  0  0
  -22.0518  -23.5516   17.5587 C   0  0  0  0  0  0  0  0  0  0  0  0
  -25.7331  -28.3862   14.4047 C   0  0  0  0  0  0  0  0  0  0  0  0
  -30.7399  -30.7023   20.0796 C   0  0  0  0  0  0  0  0  0  0  0  0
  -28.8399  -31.3885   21.6298 C   0  0  0  0  0  0  0  0  0  1  0  0
  -23.8241  -25.3312   17.8483 C   0  0  1  0  0  0  0  0  0  0  0  0
  -25.2012  -25.9459   14.3705 C   0  0  2  0  0  0  0  0  0  0  0  0
  -30.3548  -31.2038   21.4761 C   0  0  2  0  0  0  0  0  0  0  0  0
  -23.3678  -23.9099   18.2829 C   0  0  0  0  0  0  0  0  0  0  0  0
  -26.2249  -16.8758   21.6060 N   0  0  0  0  0  0  0  0  0  0  0  0
  -30.2954  -25.1228   18.9658 N   0  0  0  0  0  0  0  0  0  0  0  0
  -27.3229  -17.6231   21.4009 N   0  0  0  0  0  0  0  0  0  0  0  0
  -23.3115  -27.4008   19.1045 N   0  0  0  0  0  0  0  0  0  0  0  0
  -27.0095  -21.4035   21.8417 N   0  0  0  0  0  0  0  0  0  0  0  0
  -29.4078  -17.6482   20.2770 N   0  0  0  0  0  0  0  0  0  0  0  0
  -27.6535  -13.6480   19.1293 N   0  0  0  0  0  0  0  0  0  0  0  0
  -28.4179  -22.3165   20.1849 N   0  0  0  0  0  0  0  0  0  0  0  0
  -20.6763  -28.0914   21.4086 N   0  0  0  0  0  0  0  0  0  0  0  0
  -24.0296  -25.4796   16.4116 N   0  0  0  0  0  0  0  0  0  0  0  0
  -30.4250  -29.2656   19.8962 N   0  3  0  0  0  0  0  0  0  0  0  0
  -26.0855  -27.0412   13.8813 N   0  3  0  0  0  0  0  0  0  0  0  0
  -29.4717  -15.0236   18.8827 O   0  0  0  0  0  0  0  0  0  0  0  0
  -22.8050  -27.1921   21.6952 O   0  0  0  0  0  0  0  0  0  0  0  0
  -21.6836  -26.3524   17.8056 O   0  0  0  0  0  0  0  0  0  0  0  0
  -26.2515  -26.1309   16.5384 O   0  0  0  0  0  0  0  0  0  0  0  0
  -27.7818  -23.5744   22.0274 O   0  0  0  0  0  0  0  0  0  0  0  0
  -22.7218  -11.6273   20.7512 O   0  0  0  0  0  0  0  0  0  0  0  0
  -28.2045  -30.1129   21.7038 O   0  0  0  0  0  0  0  0  0  1  0  0
  -24.5789   -6.4713   21.3600 F   0  0  0  0  0  0  0  0  0  0  0  0
  -24.5514  -10.5597   18.9748 F   0  0  0  0  0  0  0  0  0  0  0  0
  1  2  1  0  0  0  0
  1  5  2  0  0  0  0
  2  6  2  0  0  0  0
  3  8  2  0  0  0  0
  3 16  1  0  0  0  0
  4  9  1  0  0  0  0
  4 16  2  0  0  0  0
  5 18  1  0  0  0  0
  6 20  1  0  0  0  0
  7 10  2  0  0  0  0
  7 19  1  0  0  0  0
  8 24  1  0  0  0  0
  9 24  2  0  0  0  0
 10 25  1  0  0  0  0
 11 12  2  0  0  0  0
 11 26  1  0  0  0  0
 12 27  1  0  0  0  0
 13 21  1  0  0  0  0
 13 25  2  0  0  0  0
 14 27  2  0  0  0  0
 14 28  1  0  0  0  0
 15 23  2  0  0  0  0
 15 71  1  0  0  0  0
 16 29  1  0  0  0  0
 17 29  1  0  0  0  0
 17 31  2  0  0  0  0
 17 32  1  0  0  0  0
 18 20  2  0  0  0  0
 18 37  1  0  0  0  0
 19 21  2  0  0  0  0
 19 38  1  0  0  0  0
 20 53  1  0  0  0  0
 21 39  1  0  0  0  0
 22 23  1  0  0  0  0
 22 30  2  0  0  0  0
 22 52  1  0  0  0  0
 23 77  1  0  0  0  0
 24 87  1  0  0  0  0
 25 88  1  0  0  0  0
 26 28  2  0  0  0  0
 26 87  1  0  0  0  0
 27 89  1  0  0  0  0
 28 90  1  0  0  0  0
 29 70  2  0  0  0  0
 30 57  1  0  0  0  0
 30 71  1  0  0  0  0
 31 72  1  0  0  0  0
 31 75  1  0  0  0  0
 32 76  1  0  0  0  0
 32 82  2  0  0  0  0
 33 54  1  0  0  0  0
 33 78  1  0  0  0  0
 33 83  2  0  0  0  0
 34 66  1  0  0  0  0
 34 73  1  0  0  0  0
 34 84  2  0  0  0  0
 35 67  1  0  0  0  0
 35 79  1  0  0  0  0
 35 85  2  0  0  0  0
 36 74  1  0  0  0  0
 36 77  1  0  0  0  0
 36 86  2  0  0  0  0
 37 40  1  0  0  0  0
 38 54  1  0  0  0  0
 39 73  1  0  0  0  0
 40 44  1  0  0  0  0
 41 45  1  0  0  0  0
 41 48  1  0  0  0  0
 42 43  1  0  0  0  0
 42 52  1  0  0  0  0
 43 52  1  0  0  0  0
 44 53  1  0  0  0  0
 45 55  1  0  0  0  0
 46 50  1  0  0  0  0
 46 56  1  0  0  0  0
 47 51  1  0  0  0  0
 47 56  1  0  0  0  0
 48 74  1  0  0  0  0
 49 55  1  0  0  0  0
 49 74  1  0  0  0  0
 50 80  1  0  0  0  0
 51 80  1  0  0  0  0
 53 78  1  0  0  0  0
 54 73  1  0  0  0  0
 55 72  1  0  0  0  0
 56 71  1  0  0  0  0
 58 67  1  0  0  0  0
 59 68  1  0  0  0  0
 60 69  1  0  0  0  0
 61 69  1  0  0  0  0
 62 69  1  0  0  0  0
 63 81  1  0  0  0  0
 64 68  1  0  0  0  0
 64 80  1  0  0  0  0
 65 68  1  0  0  0  0
 65 88  1  0  0  0  0
 66 69  1  0  0  0  0
 66 79  1  0  0  0  0
 67 81  1  0  0  0  0
 70 72  1  0  0  0  0
M  CHG  2  80   1  81   1
M  ISO  4  36 100  65 101  77 100  88 101
M  END
> <Batch ID>
0150

> <Smiles>
CNC(C)C(=O)NC(C(=O)N1Cc2cc([101O:1][101CH2:1]C(C)CN3CCC(n4cc([100NH:0][100C:0](=O)N5CCCC(n6nc(-c7ccc(Oc8ccc(F)cc8F)cc7)c(C(N)=O)c6N)C5)c(C5CC5)c4C)CC3)ccc2CC1C(=O)NC1CCCc2ccccc21)C(C)(C)C

> <Shape>
0.294

> <Color>
0.060

> <Negative vol penalty>
0.000

$$$$

  -OEChem-04052321413D

 89 98  0     1  0  0  0  0  0999 V2000
  -27.4125  -34.2940   28.7637 C   0  0  0  0  0  0  0  0  0  0  0  0
  -27.2945  -33.0693   28.1143 C   0  0  0  0  0  0  0  0  0  0  0  0
  -22.5341  -10.2260   20.6493 C   0  0  0  0  0  0  0  0  0  0  0  0
  -24.4448   -9.1127   21.6224 C   0  0  0  0  0  0  0  0  0  0  0  0
  -26.6851  -35.3943   28.3118 C   0  0  0  0  0  0  0  0  0  0  0  0
  -26.4482  -32.9440   27.0132 C   0  0  0  0  0  0  0  0  0  0  0  0
  -27.3191  -29.4167   22.0831 C   0  0  0  0  0  0  0  0  0  0  0  0
  -21.8247   -9.0253   20.6685 C   0  0  0  0  0  0  0  0  0  0  0  0
  -23.7353   -7.9119   21.6417 C   0  0  0  0  0  0  0  0  0  0  0  0
  -26.8308  -28.1590   21.7315 C   0  0  0  0  0  0  0  0  0  0  0  0
  -21.3537   -6.4583   23.5483 C   0  0  0  0  0  0  0  0  0  0  0  0
  -21.4178   -5.6881   24.7095 C   0  0  0  0  0  0  0  0  0  0  0  0
  -27.3459  -20.4476   20.3678 C   0  0  0  0  0  0  0  0  0  0  0  0
  -28.1035  -21.5288   22.3912 C   0  0  0  0  0  0  0  0  0  0  0  0
  -25.0768  -29.2054   20.4480 C   0  0  0  0  0  0  0  0  0  0  0  0
  -22.3679   -3.8615   23.4453 C   0  0  0  0  0  0  0  0  0  0  0  0
  -23.8443  -10.2698   21.1261 C   0  0  0  0  0  0  0  0  0  0  0  0
  -24.2364  -12.7101   21.7573 C   0  0  0  0  0  0  0  0  0  0  0  0
  -25.8368  -35.2848   27.1987 C   0  0  0  0  0  0  0  0  0  0  0  0
  -26.6823  -30.5802   21.6279 C   0  0  0  0  0  0  0  0  0  0  0  0
  -25.7078  -34.0435   26.5468 C   0  0  0  0  0  0  0  0  0  0  0  0
  -27.4094  -21.5782   21.1822 C   0  0  0  0  0  0  0  0  0  0  0  0
  -25.5604  -30.4767   20.7931 C   0  0  0  0  0  0  0  0  0  0  0  0
  -27.9764  -19.2675   20.7623 C   0  0  0  0  0  0  0  0  0  0  0  0
  -28.7340  -20.3487   22.7857 C   0  0  0  0  0  0  0  0  0  0  0  0
  -28.6705  -19.2181   21.9712 C   0  0  0  0  0  0  0  0  0  0  0  0
  -22.4252   -7.8682   21.1648 C   0  0  0  0  0  0  0  0  0  0  0  0
  -25.7078  -28.0532   20.9162 C   0  0  0  0  0  0  0  0  0  0  0  0
  -21.7967   -5.9301   22.3357 C   0  0  0  0  0  0  0  0  0  0  0  0
  -21.9249   -4.3897   24.6580 C   0  0  0  0  0  0  0  0  0  0  0  0
  -22.3038   -4.6318   22.2842 C   0  0  0  0  0  0  0  0  0  0  0  0
  -24.5779  -11.5097   21.1060 C   0  0  0  0  0  0  0  0  0  0  0  0
  -25.2471  -13.5796   21.4268 C   0  0  0  0  0  0  0  0  0  0  0  0
  -23.1068  -13.0123   22.5869 C   0  0  0  0  0  0  0  0  0  0  0  0
  -25.2180  -33.0298   23.0275 C   0  0  0  0  0  0  0  0  0  0  0  0
  -25.1107  -34.1912   20.0006 C   0  0  0  0  0  0  0  0  0  0  0  0
  -25.1443  -33.5505   16.6487 C   0  0  0  0  0  0  0  0  0  0  0  0
  -30.6699  -14.7007   20.7333 C   0  0  0  0  0  0  0  0  0  0  0  0
  -25.0347  -36.4900   26.7759 C   0  0  0  0  0  0  0  0  0  0  0  0
  -27.2372  -31.9293   21.9943 C   0  0  0  0  0  0  0  0  0  0  0  0
  -24.8525  -31.6951   20.2614 C   0  0  0  0  0  0  0  0  0  0  0  0
  -24.4459  -36.3682   25.3728 C   0  0  0  0  0  0  0  0  0  0  0  0
  -28.9571  -13.1702   18.0129 C   0  0  0  0  0  0  0  0  0  0  0  0
  -27.7303  -24.0082   20.5473 C   0  0  0  0  0  0  0  0  0  0  0  0
  -25.6108  -23.2726   21.7329 C   0  0  0  0  0  0  0  0  0  0  0  0
  -23.7919  -35.0030   25.1850 C   0  0  0  0  0  0  0  0  0  0  0  0
  -27.6404  -12.6956   18.6302 C   0  0  0  0  0  0  0  0  0  0  0  0
  -27.0311  -25.2918   20.1073 C   0  0  0  0  0  0  0  0  0  0  0  0
  -24.9225  -24.5598   21.2863 C   0  0  0  0  0  0  0  0  0  0  0  0
  -30.1221  -13.0282   18.9900 C   0  0  0  0  0  0  0  0  0  0  0  0
  -28.5962  -13.1967   20.9180 C   0  0  0  0  0  0  0  0  0  0  0  0
  -26.7237  -22.8621   20.7522 C   0  0  0  0  0  0  0  0  0  0  0  0
  -24.8190  -33.8741   25.3337 C   0  0  1  0  0  0  0  0  0  0  0  0
  -26.2043  -33.0476   21.8941 C   0  0  1  0  0  0  0  0  0  0  0  0
  -27.3823  -13.3727   19.9897 C   0  0  2  0  0  0  0  0  0  0  0  0
  -25.9242  -25.6936   21.0806 C   0  0  0  0  0  0  0  0  0  1  0  0
  -27.8895  -18.0725   19.8694 C   0  0  0  0  0  0  0  0  0  0  0  0
  -29.4697  -20.3254   24.0861 C   0  0  0  0  0  0  0  0  0  0  0  0
  -25.0027  -34.6992   14.4221 C   0  0  0  0  0  0  0  0  0  0  0  0
  -31.0062  -16.2376   24.0737 C   0  0  0  0  0  0  0  0  0  0  0  0
  -22.1027  -34.5404   20.3748 C   0  0  0  0  0  0  0  0  0  0  0  0
  -21.8905  -34.7686   17.8907 C   0  0  0  0  0  0  0  0  0  0  0  0
  -23.2317  -36.4274   19.1837 C   0  0  0  0  0  0  0  0  0  0  0  0
  -27.8342  -32.6025   15.8582 C   0  0  0  0  0  0  0  0  0  0  0  0
  -30.6613  -17.7151   22.0283 C   0  0  0  0  0  0  0  0  0  0  0  0
  -24.1376  -34.0906   18.8508 C   0  0  1  0  0  0  0  0  0  0  0  0
  -25.9283  -34.1791   15.5109 C   0  0  2  0  0  0  0  0  0  0  0  0
  -31.0778  -16.3382   22.5531 C   0  0  2  0  0  0  0  0  0  0  0  0
  -22.8526  -34.9336   19.0864 C   0  0  0  0  0  0  0  0  0  0  0  0
  -25.7163  -11.6043   20.4139 N   0  0  0  0  0  0  0  0  0  0  0  0
  -26.0990  -12.8746   20.6284 N   0  0  0  0  0  0  0  0  0  0  0  0
  -25.4295  -32.9918   20.6529 N   0  0  0  0  0  0  0  0  0  0  0  0
  -29.8141  -13.6932   20.2584 N   0  0  0  0  0  0  0  0  0  0  0  0
  -25.4811  -14.8707   21.7440 N   0  0  0  0  0  0  0  0  0  0  0  0
  -23.2142  -12.7942   23.9672 N   0  0  0  0  0  0  0  0  0  0  0  0
  -29.3092  -18.0217   22.3712 N   0  0  0  0  0  0  0  0  0  0  0  0
  -25.6179  -33.7563   24.1328 N   0  0  0  0  0  0  0  0  0  0  0  0
  -24.8828  -34.4595   17.6520 N   0  0  0  0  0  0  0  0  0  0  0  0
  -30.3016  -15.2837   21.9396 N   0  0  0  0  0  0  0  0  0  0  0  0
  -26.8524  -33.1796   14.9043 N   0  3  0  0  0  0  0  0  0  0  0  0
  -22.0284  -13.4468   22.1161 O   0  0  0  0  0  0  0  0  0  0  0  0
  -24.1709  -32.4046   22.9074 O   0  0  0  0  0  0  0  0  0  0  0  0
  -25.5763  -35.2924   20.3041 O   0  0  0  0  0  0  0  0  0  0  0  0
  -24.7954  -32.3721   16.6460 O   0  0  0  0  0  0  0  0  0  0  0  0
  -31.6841  -15.0582   20.1245 O   0  0  0  0  0  0  0  0  0  0  0  0
  -21.7331   -6.6964   21.1839 O   0  0  0  0  0  0  0  0  0  0  0  0
  -25.2288  -26.8269   20.5720 O   0  0  0  0  0  0  0  0  0  1  0  0
  -21.9878   -3.6507   25.7734 F   0  0  0  0  0  0  0  0  0  0  0  0
  -22.7320   -4.1193   21.1223 F   0  0  0  0  0  0  0  0  0  0  0  0
  1  2  1  0  0  0  0
  1  5  2  0  0  0  0
  2  6  2  0  0  0  0
  3  8  2  0  0  0  0
  3 17  1  0  0  0  0
  4  9  1  0  0  0  0
  4 17  2  0  0  0  0
  5 19  1  0  0  0  0
  6 21  1  0  0  0  0
  7 10  2  0  0  0  0
  7 20  1  0  0  0  0
  8 27  1  0  0  0  0
  9 27  2  0  0  0  0
 10 28  1  0  0  0  0
 11 12  2  0  0  0  0
 11 29  1  0  0  0  0
 12 30  1  0  0  0  0
 13 22  1  0  0  0  0
 13 24  2  0  0  0  0
 14 22  2  0  0  0  0
 14 25  1  0  0  0  0
 15 23  1  0  0  0  0
 15 28  2  0  0  0  0
 16 30  2  0  0  0  0
 16 31  1  0  0  0  0
 17 32  1  0  0  0  0
 18 32  1  0  0  0  0
 18 33  2  0  0  0  0
 18 34  1  0  0  0  0
 19 21  2  0  0  0  0
 19 39  1  0  0  0  0
 20 23  2  0  0  0  0
 20 40  1  0  0  0  0
 21 53  1  0  0  0  0
 22 52  1  0  0  0  0
 23 41  1  0  0  0  0
 24 26  1  0  0  0  0
 24 57  1  0  0  0  0
 25 26  2  0  0  0  0
 25 58  1  0  0  0  0
 26 76  1  0  0  0  0
 27 86  1  0  0  0  0
 28 87  1  0  0  0  0
 29 31  2  0  0  0  0
 29 86  1  0  0  0  0
 30 88  1  0  0  0  0
 31 89  1  0  0  0  0
 32 70  2  0  0  0  0
 33 71  1  0  0  0  0
 33 74  1  0  0  0  0
 34 75  1  0  0  0  0
 34 81  2  0  0  0  0
 35 54  1  0  0  0  0
 35 77  1  0  0  0  0
 35 82  2  0  0  0  0
 36 66  1  0  0  0  0
 36 72  1  0  0  0  0
 36 83  2  0  0  0  0
 37 67  1  0  0  0  0
 37 78  1  0  0  0  0
 37 84  2  0  0  0  0
 38 73  1  0  0  0  0
 38 79  1  0  0  0  0
 38 85  2  0  0  0  0
 39 42  1  0  0  0  0
 40 54  1  0  0  0  0
 41 72  1  0  0  0  0
 42 46  1  0  0  0  0
 43 47  1  0  0  0  0
 43 50  1  0  0  0  0
 44 48  1  0  0  0  0
 44 52  1  0  0  0  0
 45 49  1  0  0  0  0
 45 52  1  0  0  0  0
 46 53  1  0  0  0  0
 47 55  1  0  0  0  0
 48 56  1  0  0  0  0
 49 56  1  0  0  0  0
 50 73  1  0  0  0  0
 51 55  1  0  0  0  0
 51 73  1  0  0  0  0
 53 77  1  0  0  0  0
 54 72  1  0  0  0  0
 55 71  1  0  0  0  0
 56 87  1  0  0  0  0
 59 67  1  0  0  0  0
 60 68  1  0  0  0  0
 61 69  1  0  0  0  0
 62 69  1  0  0  0  0
 63 69  1  0  0  0  0
 64 80  1  0  0  0  0
 65 68  1  0  0  0  0
 65 76  1  0  0  0  0
 66 69  1  0  0  0  0
 66 78  1  0  0  0  0
 67 80  1  0  0  0  0
 68 79  1  0  0  0  0
 70 71  1  0  0  0  0
M  CHG  1  80   1
M  ISO  4  38 100  56 101  79 100  87 101
M  END
> <Batch ID>
0150

> <Smiles>
CNC(C)C(=O)NC(C(=O)N1Cc2cc([101O:1][101CH:1]3CCC(c4cc(C)c(NCC(C)[100NH:0][100C:0](=O)N5CCCC(n6nc(-c7ccc(Oc8ccc(F)cc8F)cc7)c(C(N)=O)c6N)C5)c(C)c4)CC3)ccc2CC1C(=O)NC1CCCc2ccccc21)C(C)(C)C

> <Shape>
0.307

> <Color>
0.164

> <Negative vol penalty>
0.000

$$$$

  -OEChem-04052321413D

 91101  0     1  0  0  0  0  0999 V2000
  -24.0119  -31.3527   28.2166 C   0  0  0  0  0  0  0  0  0  0  0  0
  -24.5694  -30.7591   27.0887 C   0  0  0  0  0  0  0  0  0  0  0  0
  -23.3670  -10.4334   22.1151 C   0  0  0  0  0  0  0  0  0  0  0  0
  -24.6299   -8.7625   20.9108 C   0  0  0  0  0  0  0  0  0  0  0  0
  -22.7479  -30.9615   28.6561 C   0  0  0  0  0  0  0  0  0  0  0  0
  -23.8636  -29.7731   26.4001 C   0  0  0  0  0  0  0  0  0  0  0  0
  -24.0098  -30.4264   21.3805 C   0  0  0  0  0  0  0  0  0  0  0  0
  -22.2850   -9.5569   22.1966 C   0  0  0  0  0  0  0  0  0  0  0  0
  -23.5480   -7.8860   20.9923 C   0  0  0  0  0  0  0  0  0  0  0  0
  -25.1766  -30.0408   20.7219 C   0  0  0  0  0  0  0  0  0  0  0  0
  -21.2474   -5.0783   21.1981 C   0  0  0  0  0  0  0  0  0  0  0  0
  -21.5089   -3.7555   21.5548 C   0  0  0  0  0  0  0  0  0  0  0  0
  -24.1111  -27.9831   20.0514 C   0  0  0  0  0  0  0  0  0  0  0  0
  -30.0074  -25.5652   18.9267 C   0  0  0  0  0  0  0  0  0  0  0  0
  -28.0781  -24.3533   19.6971 C   0  0  0  0  0  0  0  0  0  0  0  0
  -22.4376   -4.5054   23.6553 C   0  0  0  0  0  0  0  0  0  0  0  0
  -24.5395  -10.0362   21.4722 C   0  0  0  0  0  0  0  0  0  0  0  0
  -26.7138  -11.0763   22.3077 C   0  0  0  0  0  0  0  0  0  0  0  0
  -22.0222  -29.9770   27.9670 C   0  0  0  0  0  0  0  0  0  0  0  0
  -22.8865  -29.5869   21.3887 C   0  0  0  0  0  0  0  0  0  0  0  0
  -22.5893  -29.3674   26.8316 C   0  0  0  0  0  0  0  0  0  0  0  0
  -22.9304  -28.3614   20.7086 C   0  0  0  0  0  0  0  0  0  0  0  0
  -22.3755   -8.2832   21.6352 C   0  0  0  0  0  0  0  0  0  0  0  0
  -25.2283  -28.8178   20.0597 C   0  0  0  0  0  0  0  0  0  0  0  0
  -21.5810   -6.1148   22.0700 C   0  0  0  0  0  0  0  0  0  0  0  0
  -28.8068  -25.5354   19.6273 C   0  0  0  0  0  0  0  0  0  0  0  0
  -22.1040   -3.4690   22.7834 C   0  0  0  0  0  0  0  0  0  0  0  0
  -22.1761   -5.8283   23.2986 C   0  0  0  0  0  0  0  0  0  0  0  0
  -25.6573  -10.9414   21.3872 C   0  0  0  0  0  0  0  0  0  0  0  0
  -30.4325  -24.3952   18.3183 C   0  0  0  0  0  0  0  0  0  0  0  0
  -28.5895  -23.2375   19.0540 C   0  0  0  0  0  0  0  0  0  0  0  0
  -27.5098  -12.0607   21.7749 C   0  0  0  0  0  0  0  0  0  0  0  0
  -26.9543  -10.3744   23.5345 C   0  0  0  0  0  0  0  0  0  0  0  0
  -21.2178  -28.0948   23.6453 C   0  0  0  0  0  0  0  0  0  0  0  0
  -19.2721  -27.3414   21.1615 C   0  0  0  0  0  0  0  0  0  0  0  0
  -18.9107  -26.8882   17.7984 C   0  0  0  0  0  0  0  0  0  0  0  0
  -28.2973  -16.8327   19.4482 C   0  0  0  0  0  0  0  0  0  0  0  0
  -20.6793  -29.5535   28.5074 C   0  0  0  0  0  0  0  0  0  0  0  0
  -21.6266  -30.0292   22.0811 C   0  0  0  0  0  0  0  0  0  0  0  0
  -21.7451  -27.4329   20.6704 C   0  0  0  0  0  0  0  0  0  0  0  0
  -19.8391  -28.7680   27.5038 C   0  0  0  0  0  0  0  0  0  0  0  0
  -27.4569  -14.2501   17.2226 C   0  0  0  0  0  0  0  0  0  0  0  0
  -20.6824  -27.6912   26.8285 C   0  0  0  0  0  0  0  0  0  0  0  0
  -31.1518  -25.1613   15.0975 C   0  0  0  0  0  0  0  0  0  0  0  0
  -32.5185  -24.5372   15.0482 C   0  0  0  0  0  0  0  0  0  0  0  0
  -26.9936  -13.1579   18.1863 C   0  0  0  0  0  0  0  0  0  0  0  0
  -27.0354  -19.9223   18.3301 C   0  0  0  0  0  0  0  0  0  0  0  0
  -29.3251  -20.1406   19.3680 C   0  0  0  0  0  0  0  0  0  0  0  0
  -26.9708  -15.6360   17.6505 C   0  0  0  0  0  0  0  0  0  0  0  0
  -27.4300  -18.5441   17.7912 C   0  0  0  0  0  0  0  0  0  0  0  0
  -29.6827  -18.7755   18.7868 C   0  0  0  0  0  0  0  0  0  0  0  0
  -26.8559  -14.8979   20.0086 C   0  0  0  0  0  0  0  0  0  0  0  0
  -21.8443  -28.3119   26.0435 C   0  0  1  0  0  0  0  0  0  0  0  0
  -20.7133  -28.8672   22.4594 C   0  0  1  0  0  0  0  0  0  0  0  0
  -31.5149  -24.0693   16.0653 C   0  0  0  0  0  0  0  0  0  0  0  0
  -27.3780  -13.5015   19.6365 C   0  0  1  0  0  0  0  0  0  0  0  0
  -28.2572  -20.8260   18.5116 C   0  0  0  0  0  0  0  0  0  0  0  0
  -32.7555  -23.4288   18.1642 C   0  0  0  0  0  0  0  0  0  0  0  0
  -17.2120  -26.2373   16.0697 C   0  0  0  0  0  0  0  0  0  0  0  0
  -19.5467  -24.4193   21.9954 C   0  0  0  0  0  0  0  0  0  0  0  0
  -18.6546  -23.7668   19.7489 C   0  0  0  0  0  0  0  0  0  0  0  0
  -17.2381  -25.0969   21.3132 C   0  0  0  0  0  0  0  0  0  0  0  0
  -19.1345  -29.5012   16.4268 C   0  0  0  0  0  0  0  0  0  0  0  0
  -27.6017  -28.9183   19.9451 C   0  0  0  0  0  0  0  0  0  1  0  0
  -28.6972  -27.9110   19.6543 C   0  0  0  0  0  0  0  0  0  0  0  0
  -31.7165  -24.3905   17.5580 C   0  0  2  0  0  0  0  0  0  0  0  0
  -19.1983  -26.2083   20.1668 C   0  0  1  0  0  0  0  0  0  0  0  0
  -17.8619  -27.3885   16.8215 C   0  0  2  0  0  0  0  0  0  0  0  0
  -18.6826  -24.8892   20.8083 C   0  0  0  0  0  0  0  0  0  0  0  0
  -25.7689  -11.7737   20.3485 N   0  0  0  0  0  0  0  0  0  0  0  0
  -29.7520  -23.2279   18.3640 N   0  0  0  0  0  0  0  0  0  0  0  0
  -26.9050  -12.4411   20.6131 N   0  0  0  0  0  0  0  0  0  0  0  0
  -20.5383  -27.9072   21.3676 N   0  0  0  0  0  0  0  0  0  0  0  0
  -27.3253  -15.9021   19.0516 N   0  0  0  0  0  0  0  0  0  0  0  0
  -28.4892  -17.9461   18.6166 N   0  0  0  0  0  0  0  0  0  0  0  0
  -28.6610  -12.6295   22.1916 N   0  0  0  0  0  0  0  0  0  0  0  0
  -26.0364   -9.3936   23.9341 N   0  0  0  0  0  0  0  0  0  0  0  0
  -27.8534  -22.0686   19.1320 N   0  0  0  0  0  0  0  0  0  0  0  0
  -21.3725  -28.8560   24.7881 N   0  0  0  0  0  0  0  0  0  0  0  0
  -18.3836  -26.6916   19.0572 N   0  0  0  0  0  0  0  0  0  0  0  0
  -18.4787  -28.3109   15.8267 N   0  3  0  0  0  0  0  0  0  0  0  0
  -27.9449  -10.6215   24.2633 O   0  0  0  0  0  0  0  0  0  0  0  0
  -21.4481  -26.8965   23.5323 O   0  0  0  0  0  0  0  0  0  0  0  0
  -18.2429  -27.7157   21.7293 O   0  0  0  0  0  0  0  0  0  0  0  0
  -20.0797  -26.6881   17.4760 O   0  0  0  0  0  0  0  0  0  0  0  0
  -28.9553  -16.6781   20.4846 O   0  0  0  0  0  0  0  0  0  0  0  0
  -21.3200   -7.4275   21.7148 O   0  0  0  0  0  0  0  0  0  0  0  0
  -26.3739  -28.4362   19.4123 O   0  0  0  0  0  0  0  0  0  1  0  0
  -28.3469  -26.6586   20.2420 O   0  0  0  0  0  0  0  0  0  0  0  0
  -22.3537   -2.1985   23.1264 F   0  0  0  0  0  0  0  0  0  0  0  0
  -22.4978   -6.8197   24.1409 F   0  0  0  0  0  0  0  0  0  0  0  0
  1  2  1  0  0  0  0
  1  5  2  0  0  0  0
  2  6  2  0  0  0  0
  3  8  2  0  0  0  0
  3 17  1  0  0  0  0
  4  9  1  0  0  0  0
  4 17  2  0  0  0  0
  5 19  1  0  0  0  0
  6 21  1  0  0  0  0
  7 10  2  0  0  0  0
  7 20  1  0  0  0  0
  8 23  1  0  0  0  0
  9 23  2  0  0  0  0
 10 24  1  0  0  0  0
 11 12  2  0  0  0  0
 11 25  1  0  0  0  0
 12 27  1  0  0  0  0
 13 22  1  0  0  0  0
 13 24  2  0  0  0  0
 14 26  2  0  0  0  0
 14 30  1  0  0  0  0
 15 26  1  0  0  0  0
 15 31  2  0  0  0  0
 16 27  2  0  0  0  0
 16 28  1  0  0  0  0
 17 29  1  0  0  0  0
 18 29  1  0  0  0  0
 18 32  2  0  0  0  0
 18 33  1  0  0  0  0
 19 21  2  0  0  0  0
 19 38  1  0  0  0  0
 20 22  2  0  0  0  0
 20 39  1  0  0  0  0
 21 53  1  0  0  0  0
 22 40  1  0  0  0  0
 23 87  1  0  0  0  0
 24 88  1  0  0  0  0
 25 28  2  0  0  0  0
 25 87  1  0  0  0  0
 26 89  1  0  0  0  0
 27 90  1  0  0  0  0
 28 91  1  0  0  0  0
 29 70  2  0  0  0  0
 30 66  1  0  0  0  0
 30 71  2  0  0  0  0
 31 71  1  0  0  0  0
 31 78  1  0  0  0  0
 32 72  1  0  0  0  0
 32 76  1  0  0  0  0
 33 77  1  0  0  0  0
 33 82  2  0  0  0  0
 34 54  1  0  0  0  0
 34 79  1  0  0  0  0
 34 83  2  0  0  0  0
 35 67  1  0  0  0  0
 35 73  1  0  0  0  0
 35 84  2  0  0  0  0
 36 68  1  0  0  0  0
 36 80  1  0  0  0  0
 36 85  2  0  0  0  0
 37 74  1  0  0  0  0
 37 75  1  0  0  0  0
 37 86  2  0  0  0  0
 38 41  1  0  0  0  0
 39 54  1  0  0  0  0
 40 73  1  0  0  0  0
 41 43  1  0  0  0  0
 42 46  1  0  0  0  0
 42 49  1  0  0  0  0
 43 53  1  0  0  0  0
 44 45  1  0  0  0  0
 44 55  1  0  0  0  0
 45 55  1  0  0  0  0
 46 56  1  0  0  0  0
 47 50  1  0  0  0  0
 47 57  1  0  0  0  0
 48 51  1  0  0  0  0
 48 57  1  0  0  0  0
 49 74  1  0  0  0  0
 50 75  1  0  0  0  0
 51 75  1  0  0  0  0
 52 56  1  0  0  0  0
 52 74  1  0  0  0  0
 53 79  1  0  0  0  0
 54 73  1  0  0  0  0
 55 66  1  0  0  0  0
 56 72  1  0  0  0  0
 57 78  1  0  0  0  0
 58 66  1  0  0  0  0
 59 68  1  0  0  0  0
 60 69  1  0  0  0  0
 61 69  1  0  0  0  0
 62 69  1  0  0  0  0
 63 81  1  0  0  0  0
 64 65  1  0  0  0  0
 64 88  1  0  0  0  0
 65 89  1  0  0  0  0
 67 69  1  0  0  0  0
 67 80  1  0  0  0  0
 68 81  1  0  0  0  0
 70 72  1  0  0  0  0
M  CHG  1  81   1
M  ISO  4  37 100  64 101  75 100  88 101
M  END
> <Batch ID>
0150

> <Smiles>
CNC(C)C(=O)NC(C(=O)N1Cc2cc([101O:1][101CH2:1]COc3cc(NC4CC[100N:0]([100C:0](=O)N5CCCC(n6nc(-c7ccc(Oc8ccc(F)cc8F)cc7)c(C(N)=O)c6N)C5)CC4)nc(C(C)C4CC4)c3)ccc2CC1C(=O)NC1CCCc2ccccc21)C(C)(C)C

> <Shape>
0.292

> <Color>
0.079

> <Negative vol penalty>
0.000

$$$$

  -OEChem-04052321413D

 86 95  0     1  0  0  0  0  0999 V2000
  -26.0839  -24.8479   28.9566 C   0  0  0  0  0  0  0  0  0  0  0  0
  -26.2625  -24.7707   27.5790 C   0  0  0  0  0  0  0  0  0  0  0  0
  -25.0326   -8.6020   22.3257 C   0  0  0  0  0  0  0  0  0  0  0  0
  -25.1157   -7.9302   20.0065 C   0  0  0  0  0  0  0  0  0  0  0  0
  -25.1075  -25.6909   29.4856 C   0  0  0  0  0  0  0  0  0  0  0  0
  -25.4639  -25.5356   26.7296 C   0  0  0  0  0  0  0  0  0  0  0  0
  -28.1310  -27.7880   23.0612 C   0  0  0  0  0  0  0  0  0  0  0  0
  -26.7566  -22.5728   19.5159 C   0  0  0  0  0  0  0  0  0  0  0  0
  -26.9587  -21.5525   20.4452 C   0  0  0  0  0  0  0  0  0  0  0  0
  -23.7343   -8.1017   22.4241 C   0  0  0  0  0  0  0  0  0  0  0  0
  -23.8174   -7.4298   20.1049 C   0  0  0  0  0  0  0  0  0  0  0  0
  -28.5156  -26.9994   21.9776 C   0  0  0  0  0  0  0  0  0  0  0  0
  -22.2473   -5.0857   22.7778 C   0  0  0  0  0  0  0  0  0  0  0  0
  -21.9323   -4.3161   23.8977 C   0  0  0  0  0  0  0  0  0  0  0  0
  -26.6844  -27.8921   20.6857 C   0  0  0  0  0  0  0  0  0  0  0  0
  -29.0719  -23.2283   19.7318 C   0  0  0  0  0  0  0  0  0  0  0  0
  -20.2160   -5.9039   24.5062 C   0  0  0  0  0  0  0  0  0  0  0  0
  -25.7233   -8.5163   21.1168 C   0  0  0  0  0  0  0  0  0  0  0  0
  -28.2642   -8.3390   21.2583 C   0  0  0  0  0  0  0  0  0  0  0  0
  -24.3030  -26.4738   28.6427 C   0  0  0  0  0  0  0  0  0  0  0  0
  -27.0119  -28.6278   22.9686 C   0  0  0  0  0  0  0  0  0  0  0  0
  -24.4748  -26.3888   27.2478 C   0  0  0  0  0  0  0  0  0  0  0  0
  -26.2892  -28.6922   21.7687 C   0  0  0  0  0  0  0  0  0  0  0  0
  -27.8132  -23.4107   19.1591 C   0  0  0  0  0  0  0  0  0  0  0  0
  -28.2174  -21.3701   21.0179 C   0  0  0  0  0  0  0  0  0  0  0  0
  -29.2741  -22.2080   20.6612 C   0  0  0  0  0  0  0  0  0  0  0  0
  -23.1267   -7.5156   21.3138 C   0  0  0  0  0  0  0  0  0  0  0  0
  -27.7905  -27.0492   20.7907 C   0  0  0  0  0  0  0  0  0  0  0  0
  -21.5466   -6.2645   22.5222 C   0  0  0  0  0  0  0  0  0  0  0  0
  -20.9167   -4.7251   24.7619 C   0  0  0  0  0  0  0  0  0  0  0  0
  -20.5310   -6.6735   23.3864 C   0  0  0  0  0  0  0  0  0  0  0  0
  -27.0642   -9.0335   21.0143 C   0  0  0  0  0  0  0  0  0  0  0  0
  -29.2508   -9.2655   21.0244 C   0  0  0  0  0  0  0  0  0  0  0  0
  -28.4687   -6.9780   21.6603 C   0  0  0  0  0  0  0  0  0  0  0  0
  -24.2201  -28.8191   24.4762 C   0  0  0  0  0  0  0  0  0  0  0  0
  -23.8943  -31.5213   22.7115 C   0  0  0  0  0  0  0  0  0  0  0  0
  -24.7695  -33.2838   19.9232 C   0  0  0  0  0  0  0  0  0  0  0  0
  -29.5001  -15.0300   21.3669 C   0  0  0  0  0  0  0  0  0  0  0  0
  -23.2288  -27.3347   29.2586 C   0  0  0  0  0  0  0  0  0  0  0  0
  -26.6259  -29.4921   24.1375 C   0  0  0  0  0  0  0  0  0  0  0  0
  -25.0921  -29.5925   21.6113 C   0  0  0  0  0  0  0  0  0  0  0  0
  -22.6768  -28.3935   28.3075 C   0  0  0  0  0  0  0  0  0  0  0  0
  -30.1842  -13.1861   18.4556 C   0  0  0  0  0  0  0  0  0  0  0  0
  -22.3730  -27.7803   26.9443 C   0  0  0  0  0  0  0  0  0  0  0  0
  -29.5729  -11.8296   18.8053 C   0  0  0  0  0  0  0  0  0  0  0  0
  -29.3116  -14.3484   18.9328 C   0  0  0  0  0  0  0  0  0  0  0  0
  -29.1048  -17.1047   19.9655 C   0  0  0  0  0  0  0  0  0  0  0  0
  -30.6342  -17.1650   21.9008 C   0  0  0  0  0  0  0  0  0  0  0  0
  -28.3543  -12.9315   20.7202 C   0  0  0  0  0  0  0  0  0  0  0  0
  -28.2819  -18.2386   20.5685 C   0  0  0  0  0  0  0  0  0  0  0  0
  -29.8233  -18.2785   22.5433 C   0  0  0  0  0  0  0  0  0  0  0  0
  -23.6449  -27.2215   26.2949 C   0  0  1  0  0  0  0  0  0  0  0  0
  -25.1640  -29.9268   24.1024 C   0  0  1  0  0  0  0  0  0  0  0  0
  -29.2378  -11.7450   20.3050 C   0  0  1  0  0  0  0  0  0  0  0  0
  -30.6303  -22.0318   21.2615 C   0  0  0  0  0  0  0  0  0  0  0  0
  -24.3094  -35.4451   18.7339 C   0  0  0  0  0  0  0  0  0  0  0  0
  -21.2219  -30.4148   21.7397 C   0  0  0  0  0  0  0  0  0  0  0  0
  -21.2738  -32.1036   19.8921 C   0  0  0  0  0  0  0  0  0  0  0  0
  -21.2086  -32.8591   22.2686 C   0  0  0  0  0  0  0  0  0  0  0  0
  -27.5916  -34.1453   20.1530 C   0  0  0  0  0  0  0  0  0  0  0  0
  -27.5967  -24.5018   18.1658 C   0  0  0  0  0  0  0  0  0  0  0  0
  -28.4103  -20.2667   22.0160 C   0  0  0  0  0  0  0  0  0  0  0  0
  -27.1625  -25.8210   18.8119 C   0  0  0  0  0  0  0  0  0  1  0  0
  -23.3344  -31.8466   21.3477 C   0  0  1  0  0  0  0  0  0  0  0  0
  -25.1985  -34.7282   19.7380 C   0  0  2  0  0  0  0  0  0  0  0  0
  -21.7811  -31.7875   21.3153 C   0  0  0  0  0  0  0  0  0  0  0  0
  -27.2677  -10.3033   20.6533 N   0  0  0  0  0  0  0  0  0  0  0  0
  -28.6069  -10.4140   20.6687 N   0  0  0  0  0  0  0  0  0  0  0  0
  -24.7506  -30.4135   22.7847 N   0  0  0  0  0  0  0  0  0  0  0  0
  -28.9842  -14.2029   20.3580 N   0  0  0  0  0  0  0  0  0  0  0  0
  -29.8071  -16.3519   21.0119 N   0  0  0  0  0  0  0  0  0  0  0  0
  -30.5977   -9.2016   21.0904 N   0  0  0  0  0  0  0  0  0  0  0  0
  -27.3453   -6.1634   21.8569 N   0  0  0  0  0  0  0  0  0  0  0  0
  -24.4396  -28.2938   25.7353 N   0  0  0  0  0  0  0  0  0  0  0  0
  -23.8910  -33.1431   20.9766 N   0  0  0  0  0  0  0  0  0  0  0  0
  -29.1586  -19.0897   21.4555 N   0  3  0  0  0  0  0  0  0  0  0  0
  -26.6051  -34.7922   19.2500 N   0  3  0  0  0  0  0  0  0  0  0  0
  -29.6132   -6.5032   21.8559 O   0  0  0  0  0  0  0  0  0  0  0  0
  -23.3556  -28.4681   23.6818 O   0  0  0  0  0  0  0  0  0  0  0  0
  -23.5889  -32.2285   23.6749 O   0  0  0  0  0  0  0  0  0  0  0  0
  -25.1705  -32.3722   19.2030 O   0  0  0  0  0  0  0  0  0  0  0  0
  -29.6755  -14.6118   22.5184 O   0  0  0  0  0  0  0  0  0  0  0  0
  -21.8599   -7.0270   21.4096 O   0  0  0  0  0  0  0  0  0  0  0  0
  -28.1707  -26.2650   19.7110 O   0  0  0  0  0  0  0  0  0  1  0  0
  -20.6134   -3.9851   25.8364 F   0  0  0  0  0  0  0  0  0  0  0  0
  -19.8536   -7.8044   23.1453 F   0  0  0  0  0  0  0  0  0  0  0  0
  1  2  1  0  0  0  0
  1  5  2  0  0  0  0
  2  6  2  0  0  0  0
  3 10  2  0  0  0  0
  3 18  1  0  0  0  0
  4 11  1  0  0  0  0
  4 18  2  0  0  0  0
  5 20  1  0  0  0  0
  6 22  1  0  0  0  0
  7 12  2  0  0  0  0
  7 21  1  0  0  0  0
  8  9  2  0  0  0  0
  8 24  1  0  0  0  0
  9 25  1  0  0  0  0
 10 27  1  0  0  0  0
 11 27  2  0  0  0  0
 12 28  1  0  0  0  0
 13 14  2  0  0  0  0
 13 29  1  0  0  0  0
 14 30  1  0  0  0  0
 15 23  1  0  0  0  0
 15 28  2  0  0  0  0
 16 24  2  0  0  0  0
 16 26  1  0  0  0  0
 17 30  2  0  0  0  0
 17 31  1  0  0  0  0
 18 32  1  0  0  0  0
 19 32  1  0  0  0  0
 19 33  2  0  0  0  0
 19 34  1  0  0  0  0
 20 22  2  0  0  0  0
 20 39  1  0  0  0  0
 21 23  2  0  0  0  0
 21 40  1  0  0  0  0
 22 52  1  0  0  0  0
 23 41  1  0  0  0  0
 24 61  1  0  0  0  0
 25 26  2  0  0  0  0
 25 62  1  0  0  0  0
 26 55  1  0  0  0  0
 27 83  1  0  0  0  0
 28 84  1  0  0  0  0
 29 31  2  0  0  0  0
 29 83  1  0  0  0  0
 30 85  1  0  0  0  0
 31 86  1  0  0  0  0
 32 67  2  0  0  0  0
 33 68  1  0  0  0  0
 33 72  1  0  0  0  0
 34 73  1  0  0  0  0
 34 78  2  0  0  0  0
 35 53  1  0  0  0  0
 35 74  1  0  0  0  0
 35 79  2  0  0  0  0
 36 64  1  0  0  0  0
 36 69  1  0  0  0  0
 36 80  2  0  0  0  0
 37 65  1  0  0  0  0
 37 75  1  0  0  0  0
 37 81  2  0  0  0  0
 38 70  1  0  0  0  0
 38 71  1  0  0  0  0
 38 82  2  0  0  0  0
 39 42  1  0  0  0  0
 40 53  1  0  0  0  0
 41 69  1  0  0  0  0
 42 44  1  0  0  0  0
 43 45  1  0  0  0  0
 43 46  1  0  0  0  0
 44 52  1  0  0  0  0
 45 54  1  0  0  0  0
 46 70  1  0  0  0  0
 47 50  1  0  0  0  0
 47 71  1  0  0  0  0
 48 51  1  0  0  0  0
 48 71  1  0  0  0  0
 49 54  1  0  0  0  0
 49 70  1  0  0  0  0
 50 76  1  0  0  0  0
 51 76  1  0  0  0  0
 52 74  1  0  0  0  0
 53 69  1  0  0  0  0
 54 68  1  0  0  0  0
 56 65  1  0  0  0  0
 57 66  1  0  0  0  0
 58 66  1  0  0  0  0
 59 66  1  0  0  0  0
 60 77  1  0  0  0  0
 61 63  1  0  0  0  0
 62 76  1  0  0  0  0
 63 84  1  0  0  0  0
 64 66  1  0  0  0  0
 64 75  1  0  0  0  0
 65 77  1  0  0  0  0
 67 68  1  0  0  0  0
M  CHG  2  76   1  77   1
M  ISO  4  38 100  63 101  71 100  84 101
M  END
> <Batch ID>
0150

> <Smiles>
CNC(C)C(=O)NC(C(=O)N1Cc2cc([101O:1][101CH2:1]Cc3ccc(CN4CC[100N:0]([100C:0](=O)N5CCCC(n6nc(-c7ccc(Oc8ccc(F)cc8F)cc7)c(C(N)=O)c6N)C5)CC4)c(C)c3)ccc2CC1C(=O)NC1CCCc2ccccc21)C(C)(C)C

> <Shape>
0.234

> <Color>
0.101

> <Negative vol penalty>
0.000

$$$$

  -OEChem-04052321413D

 85 94  0     1  0  0  0  0  0999 V2000
  -30.1761  -33.1111   29.3075 C   0  0  0  0  0  0  0  0  0  0  0  0
  -30.4328  -32.2115   28.2778 C   0  0  0  0  0  0  0  0  0  0  0  0
  -24.0695   -9.8293   22.2180 C   0  0  0  0  0  0  0  0  0  0  0  0
  -24.8590  -11.4460   23.8305 C   0  0  0  0  0  0  0  0  0  0  0  0
  -28.8609  -33.3852   29.6803 C   0  0  0  0  0  0  0  0  0  0  0  0
  -29.3744  -31.5848   27.6210 C   0  0  0  0  0  0  0  0  0  0  0  0
  -29.1127  -30.0403   21.7005 C   0  0  0  0  0  0  0  0  0  0  0  0
  -28.2229  -21.3969   16.9801 C   0  0  0  0  0  0  0  0  0  0  0  0
  -23.7257   -8.9626   23.2553 C   0  0  0  0  0  0  0  0  0  0  0  0
  -24.5151  -10.5792   24.8678 C   0  0  0  0  0  0  0  0  0  0  0  0
  -29.3342  -28.8356   21.0347 C   0  0  0  0  0  0  0  0  0  0  0  0
  -21.7104   -9.6479   26.5070 C   0  0  0  0  0  0  0  0  0  0  0  0
  -21.0384  -10.1869   27.6040 C   0  0  0  0  0  0  0  0  0  0  0  0
  -28.4460  -22.7403   17.2608 C   0  0  0  0  0  0  0  0  0  0  0  0
  -26.9640  -28.3879   21.0689 C   0  0  0  0  0  0  0  0  0  0  0  0
  -22.8387   -9.4824   29.0530 C   0  0  0  0  0  0  0  0  0  0  0  0
  -24.6362  -11.0711   22.5055 C   0  0  0  0  0  0  0  0  0  0  0  0
  -24.1784  -12.9525   20.8447 C   0  0  0  0  0  0  0  0  0  0  0  0
  -27.7855  -32.7688   29.0213 C   0  0  0  0  0  0  0  0  0  0  0  0
  -27.8141  -30.4234   22.0658 C   0  0  0  0  0  0  0  0  0  0  0  0
  -28.0436  -31.8499   27.9863 C   0  0  0  0  0  0  0  0  0  0  0  0
  -28.4284  -20.4422   17.9699 C   0  0  0  0  0  0  0  0  0  0  0  0
  -26.7285  -29.5992   21.7370 C   0  0  0  0  0  0  0  0  0  0  0  0
  -23.9485   -9.3375   24.5802 C   0  0  0  0  0  0  0  0  0  0  0  0
  -28.2601  -28.0078   20.7214 C   0  0  0  0  0  0  0  0  0  0  0  0
  -22.9466   -9.0260   26.6829 C   0  0  0  0  0  0  0  0  0  0  0  0
  -21.6025  -10.1042   28.8770 C   0  0  0  0  0  0  0  0  0  0  0  0
  -23.5107   -8.9433   27.9559 C   0  0  0  0  0  0  0  0  0  0  0  0
  -24.9922  -11.9667   21.4344 C   0  0  0  0  0  0  0  0  0  0  0  0
  -28.8706  -23.0745   18.5366 C   0  0  0  0  0  0  0  0  0  0  0  0
  -28.8541  -20.8792   19.2139 C   0  0  0  0  0  0  0  0  0  0  0  0
  -24.9745  -13.5245   19.8827 C   0  0  0  0  0  0  0  0  0  0  0  0
  -22.8240  -13.3185   21.1402 C   0  0  0  0  0  0  0  0  0  0  0  0
  -26.3373  -31.0020   24.8204 C   0  0  0  0  0  0  0  0  0  0  0  0
  -23.9056  -31.9144   22.8771 C   0  0  0  0  0  0  0  0  0  0  0  0
  -22.3965  -31.6906   19.8244 C   0  0  0  0  0  0  0  0  0  0  0  0
  -29.8791  -15.6187   18.2383 C   0  0  0  0  0  0  0  0  0  0  0  0
  -26.3825  -33.0610   29.4912 C   0  0  0  0  0  0  0  0  0  0  0  0
  -27.5892  -31.7388   22.7599 C   0  0  0  0  0  0  0  0  0  0  0  0
  -25.3129  -29.9744   22.0890 C   0  0  0  0  0  0  0  0  0  0  0  0
  -25.3061  -32.6386   28.4946 C   0  0  0  0  0  0  0  0  0  0  0  0
  -29.4615  -12.0883   18.0415 C   0  0  0  0  0  0  0  0  0  0  0  0
  -25.5815  -31.2307   27.9761 C   0  0  0  0  0  0  0  0  0  0  0  0
  -28.1986  -11.8230   18.8628 C   0  0  0  0  0  0  0  0  0  0  0  0
  -28.8971  -18.3602   16.5144 C   0  0  0  0  0  0  0  0  0  0  0  0
  -30.3015  -13.2118   18.6449 C   0  0  0  0  0  0  0  0  0  0  0  0
  -28.3097  -14.2070   19.7013 C   0  0  0  0  0  0  0  0  0  0  0  0
  -28.1929  -19.0001   17.6816 C   0  0  1  0  0  0  0  0  0  0  0  0
  -26.9215  -31.1687   27.2333 C   0  0  1  0  0  0  0  0  0  0  0  0
  -26.2791  -31.7863   23.5401 C   0  0  1  0  0  0  0  0  0  0  0  0
  -27.4019  -13.1198   19.1010 C   0  0  2  0  0  0  0  0  0  0  0  0
  -29.3154  -18.0135   17.9126 C   0  0  1  0  0  0  0  0  0  0  0  0
  -20.4032  -32.5222   18.5466 C   0  0  0  0  0  0  0  0  0  0  0  0
  -22.1144  -29.9865   24.4214 C   0  0  0  0  0  0  0  0  0  0  0  0
  -20.4552  -30.1413   22.5529 C   0  0  0  0  0  0  0  0  0  0  0  0
  -21.0496  -32.1794   23.8627 C   0  0  0  0  0  0  0  0  0  0  0  0
  -24.1013  -32.9985   17.7891 C   0  0  0  0  0  0  0  0  0  0  0  0
  -29.5044  -20.4874   21.4677 C   0  0  0  0  0  0  0  0  0  0  0  0
  -29.7216  -26.1789   20.3031 C   0  0  0  0  0  0  0  0  0  1  0  0
  -29.5317  -24.6812   20.1606 C   0  0  0  0  0  0  0  0  0  0  0  0
  -22.7297  -31.2173   22.2367 C   0  0  1  0  0  0  0  0  0  0  0  0
  -21.8681  -32.7565   18.8814 C   0  0  2  0  0  0  0  0  0  0  0  0
  -21.6140  -30.8729   23.2633 C   0  0  0  0  0  0  0  0  0  0  0  0
  -26.2116  -11.9127   20.8922 N   0  0  0  0  0  0  0  0  0  0  0  0
  -29.0812  -22.1754   19.5239 N   0  0  0  0  0  0  0  0  0  0  0  0
  -26.1700  -12.8717   19.9517 N   0  0  0  0  0  0  0  0  0  0  0  0
  -25.1451  -31.2674   22.7727 N   0  0  0  0  0  0  0  0  0  0  0  0
  -29.4874  -14.4133   18.8439 N   0  0  0  0  0  0  0  0  0  0  0  0
  -24.7614  -14.5171   18.9929 N   0  0  0  0  0  0  0  0  0  0  0  0
  -22.1526  -12.6289   22.1591 N   0  0  0  0  0  0  0  0  0  0  0  0
  -26.7896  -31.7286   25.9053 N   0  0  0  0  0  0  0  0  0  0  0  0
  -22.2908  -32.0779   21.1435 N   0  0  0  0  0  0  0  0  0  0  0  0
  -29.0483  -16.7074   18.4727 N   0  0  0  0  0  0  0  0  0  0  0  0
  -22.6465  -32.7558   17.6106 N   0  3  0  0  0  0  0  0  0  0  0  0
  -22.2213  -14.2189   20.5081 O   0  0  0  0  0  0  0  0  0  0  0  0
  -25.9958  -29.8251   24.8241 O   0  0  0  0  0  0  0  0  0  0  0  0
  -23.7322  -32.9969   23.4428 O   0  0  0  0  0  0  0  0  0  0  0  0
  -22.8536  -30.6200   19.4304 O   0  0  0  0  0  0  0  0  0  0  0  0
  -30.8913  -15.7160   17.5361 O   0  0  0  0  0  0  0  0  0  0  0  0
  -23.6128   -8.4920   25.5927 O   0  0  0  0  0  0  0  0  0  0  0  0
  -28.4735  -26.8310   20.0722 O   0  0  0  0  0  0  0  0  0  1  0  0
  -29.0683  -19.9696   20.2167 O   0  0  0  0  0  0  0  0  0  0  0  0
  -29.0971  -24.3918   18.8374 O   0  0  0  0  0  0  0  0  0  0  0  0
  -20.9578  -10.6232   29.9301 F   0  0  0  0  0  0  0  0  0  0  0  0
  -24.6985   -8.3481   28.1311 F   0  0  0  0  0  0  0  0  0  0  0  0
  1  2  1  0  0  0  0
  1  5  2  0  0  0  0
  2  6  2  0  0  0  0
  3  9  2  0  0  0  0
  3 17  1  0  0  0  0
  4 10  1  0  0  0  0
  4 17  2  0  0  0  0
  5 19  1  0  0  0  0
  6 21  1  0  0  0  0
  7 11  2  0  0  0  0
  7 20  1  0  0  0  0
  8 14  2  0  0  0  0
  8 22  1  0  0  0  0
  9 24  1  0  0  0  0
 10 24  2  0  0  0  0
 11 25  1  0  0  0  0
 12 13  2  0  0  0  0
 12 26  1  0  0  0  0
 13 27  1  0  0  0  0
 14 30  1  0  0  0  0
 15 23  1  0  0  0  0
 15 25  2  0  0  0  0
 16 27  2  0  0  0  0
 16 28  1  0  0  0  0
 17 29  1  0  0  0  0
 18 29  1  0  0  0  0
 18 32  2  0  0  0  0
 18 33  1  0  0  0  0
 19 21  2  0  0  0  0
 19 38  1  0  0  0  0
 20 23  2  0  0  0  0
 20 39  1  0  0  0  0
 21 49  1  0  0  0  0
 22 31  2  0  0  0  0
 22 48  1  0  0  0  0
 23 40  1  0  0  0  0
 24 80  1  0  0  0  0
 25 81  1  0  0  0  0
 26 28  2  0  0  0  0
 26 80  1  0  0  0  0
 27 84  1  0  0  0  0
 28 85  1  0  0  0  0
 29 64  2  0  0  0  0
 30 65  2  0  0  0  0
 30 83  1  0  0  0  0
 31 65  1  0  0  0  0
 31 82  1  0  0  0  0
 32 66  1  0  0  0  0
 32 69  1  0  0  0  0
 33 70  1  0  0  0  0
 33 75  2  0  0  0  0
 34 50  1  0  0  0  0
 34 71  1  0  0  0  0
 34 76  2  0  0  0  0
 35 61  1  0  0  0  0
 35 67  1  0  0  0  0
 35 77  2  0  0  0  0
 36 62  1  0  0  0  0
 36 72  1  0  0  0  0
 36 78  2  0  0  0  0
 37 68  1  0  0  0  0
 37 73  1  0  0  0  0
 37 79  2  0  0  0  0
 38 41  1  0  0  0  0
 39 50  1  0  0  0  0
 40 67  1  0  0  0  0
 41 43  1  0  0  0  0
 42 44  1  0  0  0  0
 42 46  1  0  0  0  0
 43 49  1  0  0  0  0
 44 51  1  0  0  0  0
 45 48  1  0  0  0  0
 45 52  1  0  0  0  0
 46 68  1  0  0  0  0
 47 51  1  0  0  0  0
 47 68  1  0  0  0  0
 48 52  1  0  0  0  0
 49 71  1  0  0  0  0
 50 67  1  0  0  0  0
 51 66  1  0  0  0  0
 52 73  1  0  0  0  0
 53 62  1  0  0  0  0
 54 63  1  0  0  0  0
 55 63  1  0  0  0  0
 56 63  1  0  0  0  0
 57 74  1  0  0  0  0
 58 82  1  0  0  0  0
 59 60  1  0  0  0  0
 59 81  1  0  0  0  0
 60 83  1  0  0  0  0
 61 63  1  0  0  0  0
 61 72  1  0  0  0  0
 62 74  1  0  0  0  0
 64 66  1  0  0  0  0
M  CHG  1  74   1
M  ISO  4  37 100  59 101  73 100  81 101
M  END
> <Batch ID>
0150

> <Smiles>
CNC(C)C(=O)NC(C(=O)N1Cc2cc([101O:1][101CH2:1]COc3ccc(C4CC4[100NH:0][100C:0](=O)N4CCCC(n5nc(-c6ccc(Oc7ccc(F)cc7F)cc6)c(C(N)=O)c5N)C4)c(OC)n3)ccc2CC1C(=O)NC1CCCc2ccccc21)C(C)(C)C

> <Shape>
0.264

> <Color>
0.135

> <Negative vol penalty>
0.000

$$$$

  -OEChem-04052321413D

 86 95  0     1  0  0  0  0  0999 V2000
  -28.6882  -33.0519   26.2268 C   0  0  0  0  0  0  0  0  0  0  0  0
  -28.8079  -32.0467   25.2725 C   0  0  0  0  0  0  0  0  0  0  0  0
  -23.0712  -10.4527   21.7501 C   0  0  0  0  0  0  0  0  0  0  0  0
  -24.7590   -8.7240   21.7536 C   0  0  0  0  0  0  0  0  0  0  0  0
  -27.4815  -33.2303   26.9020 C   0  0  0  0  0  0  0  0  0  0  0  0
  -27.7212  -31.2186   24.9937 C   0  0  0  0  0  0  0  0  0  0  0  0
  -27.0313  -30.5257   20.0249 C   0  0  0  0  0  0  0  0  0  0  0  0
  -28.6977  -21.8606   19.4821 C   0  0  0  0  0  0  0  0  0  0  0  0
  -22.0844   -9.4889   21.5437 C   0  0  0  0  0  0  0  0  0  0  0  0
  -23.7721   -7.7601   21.5472 C   0  0  0  0  0  0  0  0  0  0  0  0
  -27.8764  -29.6201   19.3849 C   0  0  0  0  0  0  0  0  0  0  0  0
  -28.7196  -23.2211   19.7886 C   0  0  0  0  0  0  0  0  0  0  0  0
  -21.6583   -4.8066   21.3815 C   0  0  0  0  0  0  0  0  0  0  0  0
  -21.7162   -3.6435   22.1492 C   0  0  0  0  0  0  0  0  0  0  0  0
  -26.1447  -27.9436   19.4837 C   0  0  0  0  0  0  0  0  0  0  0  0
  -30.7299  -23.4848   18.4746 C   0  0  0  0  0  0  0  0  0  0  0  0
  -21.5171   -4.9629   24.1633 C   0  0  0  0  0  0  0  0  0  0  0  0
  -24.4086  -10.0703   21.8550 C   0  0  0  0  0  0  0  0  0  0  0  0
  -25.9106  -11.5383   23.3029 C   0  0  0  0  0  0  0  0  0  0  0  0
  -26.3765  -32.4102   26.6244 C   0  0  0  0  0  0  0  0  0  0  0  0
  -25.7382  -30.1430   20.4095 C   0  0  0  0  0  0  0  0  0  0  0  0
  -26.4990  -31.3853   25.6668 C   0  0  0  0  0  0  0  0  0  0  0  0
  -29.6920  -21.3120   18.6719 C   0  0  0  0  0  0  0  0  0  0  0  0
  -25.2843  -28.8470   20.1261 C   0  0  0  0  0  0  0  0  0  0  0  0
  -30.7080  -22.1241   18.1682 C   0  0  0  0  0  0  0  0  0  0  0  0
  -22.4347   -8.1426   21.4423 C   0  0  0  0  0  0  0  0  0  0  0  0
  -27.4341  -28.3280   19.1168 C   0  0  0  0  0  0  0  0  0  0  0  0
  -29.7357  -24.0333   19.2848 C   0  0  0  0  0  0  0  0  0  0  0  0
  -21.5300   -6.0480   22.0047 C   0  0  0  0  0  0  0  0  0  0  0  0
  -21.6455   -3.7216   23.5401 C   0  0  0  0  0  0  0  0  0  0  0  0
  -21.4593   -6.1261   23.3956 C   0  0  0  0  0  0  0  0  0  0  0  0
  -25.4286  -11.0655   22.0676 C   0  0  0  0  0  0  0  0  0  0  0  0
  -26.8644  -12.4676   22.9664 C   0  0  0  0  0  0  0  0  0  0  0  0
  -25.5303  -11.1704   24.6354 C   0  0  0  0  0  0  0  0  0  0  0  0
  -24.2004  -29.9052   23.1812 C   0  0  0  0  0  0  0  0  0  0  0  0
  -21.6587  -29.2635   21.2706 C   0  0  0  0  0  0  0  0  0  0  0  0
  -20.5074  -28.1443   18.2592 C   0  0  0  0  0  0  0  0  0  0  0  0
  -28.5371  -16.7343   20.0803 C   0  0  0  0  0  0  0  0  0  0  0  0
  -25.1072  -32.6107   27.4139 C   0  0  0  0  0  0  0  0  0  0  0  0
  -24.8295  -31.1399   21.0751 C   0  0  0  0  0  0  0  0  0  0  0  0
  -23.8978  -28.3928   20.5002 C   0  0  0  0  0  0  0  0  0  0  0  0
  -23.8894  -31.9324   26.7917 C   0  0  0  0  0  0  0  0  0  0  0  0
  -29.0223  -13.5359   18.5350 C   0  0  0  0  0  0  0  0  0  0  0  0
  -24.2272  -30.5034   26.3786 C   0  0  0  0  0  0  0  0  0  0  0  0
  -28.1381  -12.6459   19.4050 C   0  0  0  0  0  0  0  0  0  0  0  0
  -28.3769  -19.3928   17.6175 C   0  0  0  0  0  0  0  0  0  0  0  0
  -28.4087  -14.9189   18.3074 C   0  0  0  0  0  0  0  0  0  0  0  0
  -28.3953  -17.8838   17.8139 C   0  0  0  0  0  0  0  0  0  0  0  0
  -27.1418  -14.7210   20.4281 C   0  0  0  0  0  0  0  0  0  0  0  0
  -29.6469  -19.8363   18.3541 C   0  0  2  0  0  0  0  0  0  0  0  0
  -25.3353  -30.4828   25.3188 C   0  0  1  0  0  0  0  0  0  0  0  0
  -23.7137  -30.4847   21.8831 C   0  0  1  0  0  0  0  0  0  0  0  0
  -27.7790  -13.3551   20.7209 C   0  0  1  0  0  0  0  0  0  0  0  0
  -29.6707  -18.9067   19.5876 C   0  0  2  0  0  0  0  0  0  0  0  0
  -31.7835  -21.5589   17.2998 C   0  0  0  0  0  0  0  0  0  0  0  0
  -31.0961  -18.5970   20.0380 C   0  0  0  0  0  0  0  0  0  0  0  0
  -18.3794  -27.6987   17.0060 C   0  0  0  0  0  0  0  0  0  0  0  0
  -21.2327  -26.7210   22.9029 C   0  0  0  0  0  0  0  0  0  0  0  0
  -19.7534  -25.8747   21.0688 C   0  0  0  0  0  0  0  0  0  0  0  0
  -19.1337  -27.9460   22.3131 C   0  0  0  0  0  0  0  0  0  0  0  0
  -21.2003  -30.1055   16.1538 C   0  0  0  0  0  0  0  0  0  0  0  0
  -29.6590  -27.5919   18.7117 C   0  0  0  0  0  0  0  0  0  1  0  0
  -30.3308  -26.2359   18.6140 C   0  0  0  0  0  0  0  0  0  0  0  0
  -21.0579  -28.0134   20.6746 C   0  0  1  0  0  0  0  0  0  0  0  0
  -19.4748  -28.7113   17.3017 C   0  0  2  0  0  0  0  0  0  0  0  0
  -20.3213  -27.1464   21.7344 C   0  0  0  0  0  0  0  0  0  0  0  0
  -26.0266  -11.6466   21.0242 N   0  0  0  0  0  0  0  0  0  0  0  0
  -26.8942  -12.4941   21.6031 N   0  0  0  0  0  0  0  0  0  0  0  0
  -23.0491  -29.4021   21.1548 N   0  0  0  0  0  0  0  0  0  0  0  0
  -28.0067  -15.5405   19.5747 N   0  0  0  0  0  0  0  0  0  0  0  0
  -28.9498  -17.6988   19.1565 N   0  0  0  0  0  0  0  0  0  0  0  0
  -27.6719  -13.2565   23.7066 N   0  0  0  0  0  0  0  0  0  0  0  0
  -24.5338  -10.1989   24.8017 N   0  0  0  0  0  0  0  0  0  0  0  0
  -24.7984  -30.8266   24.0195 N   0  0  0  0  0  0  0  0  0  0  0  0
  -20.2123  -28.4534   19.5702 N   0  0  0  0  0  0  0  0  0  0  0  0
  -20.1187  -29.0966   16.0142 N   0  3  0  0  0  0  0  0  0  0  0  0
  -26.0468  -11.6995   25.6487 O   0  0  0  0  0  0  0  0  0  0  0  0
  -24.0436  -28.7108   23.4061 O   0  0  0  0  0  0  0  0  0  0  0  0
  -20.9206  -30.0901   21.8125 O   0  0  0  0  0  0  0  0  0  0  0  0
  -21.4766  -27.4894   17.8822 O   0  0  0  0  0  0  0  0  0  0  0  0
  -28.6111  -16.9415   21.2985 O   0  0  0  0  0  0  0  0  0  0  0  0
  -21.4720   -7.2017   21.2411 O   0  0  0  0  0  0  0  0  0  0  0  0
  -28.2628  -27.4358   18.4886 O   0  0  0  0  0  0  0  0  0  1  0  0
  -29.7574  -25.3608   19.5842 O   0  0  0  0  0  0  0  0  0  0  0  0
  -21.6995   -2.6045   24.2771 F   0  0  0  0  0  0  0  0  0  0  0  0
  -21.3348   -7.3157   23.9999 F   0  0  0  0  0  0  0  0  0  0  0  0
  1  2  1  0  0  0  0
  1  5  2  0  0  0  0
  2  6  2  0  0  0  0
  3  9  2  0  0  0  0
  3 18  1  0  0  0  0
  4 10  1  0  0  0  0
  4 18  2  0  0  0  0
  5 20  1  0  0  0  0
  6 22  1  0  0  0  0
  7 11  2  0  0  0  0
  7 21  1  0  0  0  0
  8 12  2  0  0  0  0
  8 23  1  0  0  0  0
  9 26  1  0  0  0  0
 10 26  2  0  0  0  0
 11 27  1  0  0  0  0
 12 28  1  0  0  0  0
 13 14  2  0  0  0  0
 13 29  1  0  0  0  0
 14 30  1  0  0  0  0
 15 24  1  0  0  0  0
 15 27  2  0  0  0  0
 16 25  1  0  0  0  0
 16 28  2  0  0  0  0
 17 30  2  0  0  0  0
 17 31  1  0  0  0  0
 18 32  1  0  0  0  0
 19 32  1  0  0  0  0
 19 33  2  0  0  0  0
 19 34  1  0  0  0  0
 20 22  2  0  0  0  0
 20 39  1  0  0  0  0
 21 24  2  0  0  0  0
 21 40  1  0  0  0  0
 22 51  1  0  0  0  0
 23 25  2  0  0  0  0
 23 50  1  0  0  0  0
 24 41  1  0  0  0  0
 25 55  1  0  0  0  0
 26 82  1  0  0  0  0
 27 83  1  0  0  0  0
 28 84  1  0  0  0  0
 29 31  2  0  0  0  0
 29 82  1  0  0  0  0
 30 85  1  0  0  0  0
 31 86  1  0  0  0  0
 32 67  2  0  0  0  0
 33 68  1  0  0  0  0
 33 72  1  0  0  0  0
 34 73  1  0  0  0  0
 34 77  2  0  0  0  0
 35 52  1  0  0  0  0
 35 74  1  0  0  0  0
 35 78  2  0  0  0  0
 36 64  1  0  0  0  0
 36 69  1  0  0  0  0
 36 79  2  0  0  0  0
 37 65  1  0  0  0  0
 37 75  1  0  0  0  0
 37 80  2  0  0  0  0
 38 70  1  0  0  0  0
 38 71  1  0  0  0  0
 38 81  2  0  0  0  0
 39 42  1  0  0  0  0
 40 52  1  0  0  0  0
 41 69  1  0  0  0  0
 42 44  1  0  0  0  0
 43 45  1  0  0  0  0
 43 47  1  0  0  0  0
 44 51  1  0  0  0  0
 45 53  1  0  0  0  0
 46 48  1  0  0  0  0
 46 50  1  0  0  0  0
 47 70  1  0  0  0  0
 48 71  1  0  0  0  0
 49 53  1  0  0  0  0
 49 70  1  0  0  0  0
 50 54  1  0  0  0  0
 51 74  1  0  0  0  0
 52 69  1  0  0  0  0
 53 68  1  0  0  0  0
 54 56  1  0  0  0  0
 54 71  1  0  0  0  0
 57 65  1  0  0  0  0
 58 66  1  0  0  0  0
 59 66  1  0  0  0  0
 60 66  1  0  0  0  0
 61 76  1  0  0  0  0
 62 63  1  0  0  0  0
 62 83  1  0  0  0  0
 63 84  1  0  0  0  0
 64 66  1  0  0  0  0
 64 75  1  0  0  0  0
 65 76  1  0  0  0  0
 67 68  1  0  0  0  0
M  CHG  1  76   1
M  ISO  4  38 100  62 101  71 100  83 101
M  END
> <Batch ID>
0150

> <Smiles>
CNC(C)C(=O)NC(C(=O)N1Cc2cc([101O:1][101CH2:1]COc3ccc(C4CC[100N:0]([100C:0](=O)N5CCCC(n6nc(-c7ccc(Oc8ccc(F)cc8F)cc7)c(C(N)=O)c6N)C5)C4C)c(C)c3)ccc2CC1C(=O)NC1CCCc2ccccc21)C(C)(C)C

> <Shape>
0.363

> <Color>
0.101

> <Negative vol penalty>
0.000

$$$$

  -OEChem-04052321413D

 89 98  0     1  0  0  0  0  0999 V2000
  -23.5765   -7.8021   21.3579 C   0  0  0  0  0  0  0  0  0  0  0  0
  -24.3724   -8.9318   21.2056 C   0  0  0  0  0  0  0  0  0  0  0  0
  -22.7801  -28.3616   21.3698 C   0  0  0  0  0  0  0  0  0  0  0  0
  -22.4536  -28.5130   23.7589 C   0  0  0  0  0  0  0  0  0  0  0  0
  -22.1918   -7.9351   21.4361 C   0  0  0  0  0  0  0  0  0  0  0  0
  -23.7848  -10.1958   21.1433 C   0  0  0  0  0  0  0  0  0  0  0  0
  -26.8155  -14.0711   21.1321 C   0  0  0  0  0  0  0  0  0  0  0  0
  -21.4068  -28.1933   21.1928 C   0  0  0  0  0  0  0  0  0  0  0  0
  -21.0803  -28.3448   23.5819 C   0  0  0  0  0  0  0  0  0  0  0  0
  -27.6058  -14.4068   20.0336 C   0  0  0  0  0  0  0  0  0  0  0  0
  -18.4403  -30.2377   22.6504 C   0  0  0  0  0  0  0  0  0  0  0  0
  -17.5884  -31.0809   23.3636 C   0  0  0  0  0  0  0  0  0  0  0  0
  -30.1063  -19.7378   19.3656 C   0  0  0  0  0  0  0  0  0  0  0  0
  -29.1400  -20.1731   17.1946 C   0  0  0  0  0  0  0  0  0  0  0  0
  -26.0777  -16.1917   19.4874 C   0  0  0  0  0  0  0  0  0  0  0  0
  -16.5954  -29.1625   24.4457 C   0  0  0  0  0  0  0  0  0  0  0  0
  -23.3035  -28.5213   22.6529 C   0  0  0  0  0  0  0  0  0  0  0  0
  -25.4346  -29.9086   22.8571 C   0  0  0  0  0  0  0  0  0  0  0  0
  -21.5869   -9.2007   21.3621 C   0  0  0  0  0  0  0  0  0  0  0  0
  -25.6426  -14.7875   21.4106 C   0  0  0  0  0  0  0  0  0  0  0  0
  -22.3907  -10.3529   21.2443 C   0  0  0  0  0  0  0  0  0  0  0  0
  -29.5152  -20.6202   18.4615 C   0  0  0  0  0  0  0  0  0  0  0  0
  -25.2757  -15.8648   20.5915 C   0  0  0  0  0  0  0  0  0  0  0  0
  -29.9470  -17.9612   17.7361 C   0  0  0  0  0  0  0  0  0  0  0  0
  -20.5569  -28.1849   22.2988 C   0  0  0  0  0  0  0  0  0  0  0  0
  -27.2354  -15.4654   19.2094 C   0  0  0  0  0  0  0  0  0  0  0  0
  -18.3697  -28.8568   22.8347 C   0  0  0  0  0  0  0  0  0  0  0  0
  -30.3223  -18.4083   19.0030 C   0  0  0  0  0  0  0  0  0  0  0  0
  -29.3558  -18.8436   16.8319 C   0  0  0  0  0  0  0  0  0  0  0  0
  -16.6659  -30.5434   24.2613 C   0  0  0  0  0  0  0  0  0  0  0  0
  -17.4473  -28.3193   23.7324 C   0  0  0  0  0  0  0  0  0  0  0  0
  -24.7221  -28.6946   22.8365 C   0  0  0  0  0  0  0  0  0  0  0  0
  -26.7411  -29.5365   23.0600 C   0  0  0  0  0  0  0  0  0  0  0  0
  -24.9581  -31.2524   22.7063 C   0  0  0  0  0  0  0  0  0  0  0  0
  -22.5526  -14.0586   21.5668 C   0  0  0  0  0  0  0  0  0  0  0  0
  -22.2845  -17.1147   22.6209 C   0  0  0  0  0  0  0  0  0  0  0  0
  -23.5886  -20.2665   22.7308 C   0  0  0  0  0  0  0  0  0  0  0  0
  -29.8646  -24.6928   21.9520 C   0  0  0  0  0  0  0  0  0  0  0  0
  -20.0842   -9.2877   21.4599 C   0  0  0  0  0  0  0  0  0  0  0  0
  -24.8153  -14.4299   22.6148 C   0  0  0  0  0  0  0  0  0  0  0  0
  -24.0367  -16.6784   20.8590 C   0  0  0  0  0  0  0  0  0  0  0  0
  -19.5303  -10.6108   20.9413 C   0  0  0  0  0  0  0  0  0  0  0  0
  -29.4006  -26.1141   25.0685 C   0  0  0  0  0  0  0  0  0  0  0  0
  -20.2954  -11.7721   21.5584 C   0  0  0  0  0  0  0  0  0  0  0  0
  -28.2186  -27.0613   24.8636 C   0  0  0  0  0  0  0  0  0  0  0  0
  -28.3106  -22.1897   20.0449 C   0  0  0  0  0  0  0  0  0  0  0  0
  -30.5982  -22.8051   19.1516 C   0  0  0  0  0  0  0  0  0  0  0  0
  -29.1807  -24.7993   24.3293 C   0  0  0  0  0  0  0  0  0  0  0  0
  -28.1036  -23.6496   20.4583 C   0  0  0  0  0  0  0  0  0  0  0  0
  -30.3276  -24.2501   19.5607 C   0  0  0  0  0  0  0  0  0  0  0  0
  -27.7502  -25.9095   22.6444 C   0  0  0  0  0  0  0  0  0  0  0  0
  -29.2804  -22.0662   18.8559 C   0  0  0  0  0  0  0  0  0  0  0  0
  -21.7717  -11.7353   21.1435 C   0  0  1  0  0  0  0  0  0  0  0  0
  -23.3682  -14.9006   22.5068 C   0  0  1  0  0  0  0  0  0  0  0  0
  -27.9233  -27.2613   23.3665 C   0  0  1  0  0  0  0  0  0  0  0  0
  -31.6752  -16.1751   17.3425 C   0  0  0  0  0  0  0  0  0  0  0  0
  -23.8137  -22.6708   23.4135 C   0  0  0  0  0  0  0  0  0  0  0  0
  -20.1990  -17.5526   20.4371 C   0  0  0  0  0  0  0  0  0  0  0  0
  -20.4774  -20.0193   20.7629 C   0  0  0  0  0  0  0  0  0  0  0  0
  -19.6413  -18.6019   22.6377 C   0  0  0  0  0  0  0  0  0  0  0  0
  -25.2381  -19.5642   25.0856 C   0  0  0  0  0  0  0  0  0  0  0  0
  -31.2523  -18.1019   21.1702 C   0  0  0  0  0  0  0  0  0  0  0  0
  -29.9529  -18.5349   14.5507 C   0  0  0  0  0  0  0  0  0  0  0  0
  -29.4049  -15.5385   18.2380 C   0  0  0  0  0  0  0  0  0  1  0  0
  -30.1775  -16.5362   17.3472 C   0  0  1  0  0  0  0  0  0  0  0  0
  -22.0739  -18.4575   21.9641 C   0  0  1  0  0  0  0  0  0  0  0  0
  -23.8094  -21.2255   23.8867 C   0  0  2  0  0  0  0  0  0  0  0  0
  -20.6203  -18.6415   21.4440 C   0  0  0  0  0  0  0  0  0  0  0  0
  -25.5106  -27.6309   23.0121 N   0  0  0  0  0  0  0  0  0  0  0  0
  -26.7321  -28.1753   23.1450 N   0  0  0  0  0  0  0  0  0  0  0  0
  -23.2574  -16.2857   22.0447 N   0  0  0  0  0  0  0  0  0  0  0  0
  -28.8999  -25.0317   22.9127 N   0  0  0  0  0  0  0  0  0  0  0  0
  -29.3950  -24.3129   20.6857 N   0  0  0  0  0  0  0  0  0  0  0  0
  -27.8852  -30.2442   23.1723 N   0  0  0  0  0  0  0  0  0  0  0  0
  -23.5861  -31.4562   22.5051 N   0  0  0  0  0  0  0  0  0  0  0  0
  -22.5020  -12.7210   21.9096 N   0  0  0  0  0  0  0  0  0  0  0  0
  -22.4907  -19.4589   22.9398 N   0  0  0  0  0  0  0  0  0  0  0  0
  -25.1135  -20.9446   24.5510 N   0  3  0  0  0  0  0  0  0  0  0  0
  -25.7284  -32.2421   22.7323 O   0  0  0  0  0  0  0  0  0  0  0  0
  -22.0083  -14.5840   20.6028 O   0  0  0  0  0  0  0  0  0  0  0  0
  -21.6154  -16.8152   23.6131 O   0  0  0  0  0  0  0  0  0  0  0  0
  -24.3151  -20.2392   21.7399 O   0  0  0  0  0  0  0  0  0  0  0  0
  -31.0745  -24.7282   22.2094 O   0  0  0  0  0  0  0  0  0  0  0  0
  -19.2168  -28.0210   22.1264 O   0  0  0  0  0  0  0  0  0  0  0  0
  -30.9007  -17.5600   19.8988 O   0  0  0  0  0  0  0  0  0  0  0  0
  -28.9827  -18.4251   15.5900 O   0  0  0  0  0  0  0  0  0  0  0  0
  -28.0096  -15.7969   18.1291 O   0  0  0  0  0  0  0  0  0  1  0  0
  -15.8490  -31.3534   24.9473 F   0  0  0  0  0  0  0  0  0  0  0  0
  -17.3757  -26.9936   23.9146 F   0  0  0  0  0  0  0  0  0  0  0  0
  1  2  1  0  0  0  0
  1  5  2  0  0  0  0
  2  6  2  0  0  0  0
  3  8  2  0  0  0  0
  3 17  1  0  0  0  0
  4  9  1  0  0  0  0
  4 17  2  0  0  0  0
  5 19  1  0  0  0  0
  6 21  1  0  0  0  0
  7 10  2  0  0  0  0
  7 20  1  0  0  0  0
  8 25  1  0  0  0  0
  9 25  2  0  0  0  0
 10 26  1  0  0  0  0
 11 12  2  0  0  0  0
 11 27  1  0  0  0  0
 12 30  1  0  0  0  0
 13 22  1  0  0  0  0
 13 28  2  0  0  0  0
 14 22  2  0  0  0  0
 14 29  1  0  0  0  0
 15 23  1  0  0  0  0
 15 26  2  0  0  0  0
 16 30  2  0  0  0  0
 16 31  1  0  0  0  0
 17 32  1  0  0  0  0
 18 32  1  0  0  0  0
 18 33  2  0  0  0  0
 18 34  1  0  0  0  0
 19 21  2  0  0  0  0
 19 39  1  0  0  0  0
 20 23  2  0  0  0  0
 20 40  1  0  0  0  0
 21 53  1  0  0  0  0
 22 52  1  0  0  0  0
 23 41  1  0  0  0  0
 24 28  1  0  0  0  0
 24 29  2  0  0  0  0
 24 65  1  0  0  0  0
 25 84  1  0  0  0  0
 26 87  1  0  0  0  0
 27 31  2  0  0  0  0
 27 84  1  0  0  0  0
 28 85  1  0  0  0  0
 29 86  1  0  0  0  0
 30 88  1  0  0  0  0
 31 89  1  0  0  0  0
 32 69  2  0  0  0  0
 33 70  1  0  0  0  0
 33 74  1  0  0  0  0
 34 75  1  0  0  0  0
 34 79  2  0  0  0  0
 35 54  1  0  0  0  0
 35 76  1  0  0  0  0
 35 80  2  0  0  0  0
 36 66  1  0  0  0  0
 36 71  1  0  0  0  0
 36 81  2  0  0  0  0
 37 67  1  0  0  0  0
 37 77  1  0  0  0  0
 37 82  2  0  0  0  0
 38 72  1  0  0  0  0
 38 73  1  0  0  0  0
 38 83  2  0  0  0  0
 39 42  1  0  0  0  0
 40 54  1  0  0  0  0
 41 71  1  0  0  0  0
 42 44  1  0  0  0  0
 43 45  1  0  0  0  0
 43 48  1  0  0  0  0
 44 53  1  0  0  0  0
 45 55  1  0  0  0  0
 46 49  1  0  0  0  0
 46 52  1  0  0  0  0
 47 50  1  0  0  0  0
 47 52  1  0  0  0  0
 48 72  1  0  0  0  0
 49 73  1  0  0  0  0
 50 73  1  0  0  0  0
 51 55  1  0  0  0  0
 51 72  1  0  0  0  0
 53 76  1  0  0  0  0
 54 71  1  0  0  0  0
 55 70  1  0  0  0  0
 56 65  1  0  0  0  0
 57 67  1  0  0  0  0
 58 68  1  0  0  0  0
 59 68  1  0  0  0  0
 60 68  1  0  0  0  0
 61 78  1  0  0  0  0
 62 85  1  0  0  0  0
 63 86  1  0  0  0  0
 64 65  1  0  0  0  0
 64 87  1  0  0  0  0
 66 68  1  0  0  0  0
 66 77  1  0  0  0  0
 67 78  1  0  0  0  0
 69 70  1  0  0  0  0
M  CHG  1  78   1
M  ISO  4  38 100  64 101  73 100  87 101
M  END
> <Batch ID>
0150

> <Smiles>
CNC(C)C(=O)NC(C(=O)N1Cc2cc([101O:1][101CH2:1]C(C)c3c(OC)cc(C4CC[100N:0]([100C:0](=O)N5CCCC(n6nc(-c7ccc(Oc8ccc(F)cc8F)cc7)c(C(N)=O)c6N)C5)CC4)cc3OC)ccc2CC1C(=O)NC1CCCc2ccccc21)C(C)(C)C

> <Shape>
0.230

> <Color>
0.079

> <Negative vol penalty>
0.000

$$$$

  -OEChem-04052321413D

 89 98  0     1  0  0  0  0  0999 V2000
  -30.7151  -35.2583   24.7607 C   0  0  0  0  0  0  0  0  0  0  0  0
  -30.7025  -34.1183   23.9634 C   0  0  0  0  0  0  0  0  0  0  0  0
  -24.5817   -8.3126   21.4423 C   0  0  0  0  0  0  0  0  0  0  0  0
  -23.4989  -10.2132   22.4681 C   0  0  0  0  0  0  0  0  0  0  0  0
  -29.6866  -35.4789   25.6758 C   0  0  0  0  0  0  0  0  0  0  0  0
  -29.6619  -33.1977   24.0815 C   0  0  0  0  0  0  0  0  0  0  0  0
  -27.1735  -29.8580   19.5915 C   0  0  0  0  0  0  0  0  0  0  0  0
  -24.0435   -7.4775   22.4212 C   0  0  0  0  0  0  0  0  0  0  0  0
  -22.9606   -9.3780   23.4471 C   0  0  0  0  0  0  0  0  0  0  0  0
  -27.3723  -28.5402   19.1821 C   0  0  0  0  0  0  0  0  0  0  0  0
  -21.0734   -6.0007   23.0775 C   0  0  0  0  0  0  0  0  0  0  0  0
  -20.5086   -4.7949   22.6619 C   0  0  0  0  0  0  0  0  0  0  0  0
  -25.4734  -27.8506   20.5004 C   0  0  0  0  0  0  0  0  0  0  0  0
  -26.7970  -17.7656   21.9089 C   0  0  0  0  0  0  0  0  0  0  0  0
  -28.7703  -18.1928   20.5821 C   0  0  0  0  0  0  0  0  0  0  0  0
  -22.0929   -3.5829   24.0251 C   0  0  0  0  0  0  0  0  0  0  0  0
  -24.3095   -9.6805   21.4657 C   0  0  0  0  0  0  0  0  0  0  0  0
  -24.2894  -10.8840   19.2166 C   0  0  0  0  0  0  0  0  0  0  0  0
  -28.6278  -34.5653   25.7985 C   0  0  0  0  0  0  0  0  0  0  0  0
  -26.1280  -30.1809   20.4685 C   0  0  0  0  0  0  0  0  0  0  0  0
  -28.6190  -33.4056   25.0001 C   0  0  0  0  0  0  0  0  0  0  0  0
  -25.2619  -29.1736   20.9173 C   0  0  0  0  0  0  0  0  0  0  0  0
  -27.2534  -19.9984   21.1070 C   0  0  0  0  0  0  0  0  0  0  0  0
  -26.4435  -19.1118   21.8166 C   0  0  0  0  0  0  0  0  0  0  0  0
  -27.9605  -17.3061   21.2917 C   0  0  0  0  0  0  0  0  0  0  0  0
  -23.2329   -8.0102   23.4236 C   0  0  0  0  0  0  0  0  0  0  0  0
  -26.5240  -27.5358   19.6388 C   0  0  0  0  0  0  0  0  0  0  0  0
  -22.1481   -5.9976   23.9668 C   0  0  0  0  0  0  0  0  0  0  0  0
  -28.4168  -19.5389   20.4897 C   0  0  0  0  0  0  0  0  0  0  0  0
  -21.0183   -3.5860   23.1357 C   0  0  0  0  0  0  0  0  0  0  0  0
  -22.6578   -4.7887   24.4406 C   0  0  0  0  0  0  0  0  0  0  0  0
  -24.8657  -10.5437   20.4550 C   0  0  0  0  0  0  0  0  0  0  0  0
  -25.2053  -11.7232   18.6306 C   0  0  0  0  0  0  0  0  0  0  0  0
  -23.0379  -10.4780   18.6468 C   0  0  0  0  0  0  0  0  0  0  0  0
  -25.9533  -31.4150   23.3925 C   0  0  0  0  0  0  0  0  0  0  0  0
  -22.7653  -31.3809   22.7944 C   0  0  0  0  0  0  0  0  0  0  0  0
  -20.1594  -30.0370   21.0478 C   0  0  0  0  0  0  0  0  0  0  0  0
  -29.4396  -15.3196   20.8311 C   0  0  0  0  0  0  0  0  0  0  0  0
  -27.5631  -34.8229   26.8351 C   0  0  0  0  0  0  0  0  0  0  0  0
  -25.9106  -31.6113   20.8795 C   0  0  0  0  0  0  0  0  0  0  0  0
  -24.1123  -29.4711   21.8438 C   0  0  0  0  0  0  0  0  0  0  0  0
  -26.3022  -33.9864   26.6341 C   0  0  0  0  0  0  0  0  0  0  0  0
  -29.9026  -12.6494   18.5217 C   0  0  0  0  0  0  0  0  0  0  0  0
  -26.6653  -32.5296   26.3645 C   0  0  0  0  0  0  0  0  0  0  0  0
  -28.6085  -11.8408   18.6383 C   0  0  0  0  0  0  0  0  0  0  0  0
  -30.3429  -13.2127   19.8717 C   0  0  0  0  0  0  0  0  0  0  0  0
  -28.0241  -13.1759   20.7030 C   0  0  0  0  0  0  0  0  0  0  0  0
  -26.8803  -21.4319   21.0044 C   0  0  2  0  0  0  0  0  0  0  0  0
  -27.4945  -32.3961   25.0815 C   0  0  1  0  0  0  0  0  0  0  0  0
  -25.1276  -31.7465   22.1818 C   0  0  1  0  0  0  0  0  0  0  0  0
  -27.5059  -12.6425   19.3574 C   0  0  2  0  0  0  0  0  0  0  0  0
  -27.9595  -22.4576   20.7308 C   0  0  2  0  0  0  0  0  0  0  0  0
  -27.2867  -22.4344   22.0853 C   0  0  0  0  0  0  0  0  0  0  0  0
  -25.1926  -19.5772   22.4878 C   0  0  0  0  0  0  0  0  0  0  0  0
  -28.1292  -21.9853   23.2560 C   0  0  0  0  0  0  0  0  0  0  0  0
  -26.2835  -23.5007   22.4535 C   0  0  0  0  0  0  0  0  0  0  0  0
  -17.6664  -30.1866   20.8032 C   0  0  0  0  0  0  0  0  0  0  0  0
  -28.1549  -25.4412   17.4835 C   0  0  0  0  0  0  0  0  0  0  0  0
  -22.4191  -29.8370   25.4033 C   0  0  0  0  0  0  0  0  0  0  0  0
  -20.1198  -29.2029   24.6418 C   0  0  0  0  0  0  0  0  0  0  0  0
  -20.6955  -31.6036   25.0000 C   0  0  0  0  0  0  0  0  0  0  0  0
  -20.3697  -30.8327   18.2050 C   0  0  0  0  0  0  0  0  0  0  0  0
  -30.3897  -19.8311   19.1942 C   0  0  0  0  0  0  0  0  0  0  0  0
  -28.4774  -24.7660   19.9298 C   0  0  0  0  0  0  0  0  0  0  0  0
  -21.6494  -30.3852   23.0005 C   0  0  1  0  0  0  0  0  0  0  0  0
  -19.0107  -30.6842   20.2954 C   0  0  2  0  0  0  0  0  0  0  0  0
  -28.0552  -25.8529   18.9466 C   0  0  2  0  0  0  0  0  0  1  0  0
  -21.2437  -30.2509   24.4955 C   0  0  0  0  0  0  0  0  0  0  0  0
  -26.0558  -11.1195   20.6455 N   0  0  0  0  0  0  0  0  0  0  0  0
  -26.2346  -11.8301   19.5189 N   0  0  0  0  0  0  0  0  0  0  0  0
  -23.9449  -30.8840   22.2222 N   0  0  0  0  0  0  0  0  0  0  0  0
  -29.2489  -13.9633   20.4921 N   0  0  0  0  0  0  0  0  0  0  0  0
  -25.2225  -12.3727   17.4472 N   0  0  0  0  0  0  0  0  0  0  0  0
  -22.2179   -9.6123   19.3835 N   0  0  0  0  0  0  0  0  0  0  0  0
  -28.3192  -15.9385   21.3846 N   0  0  0  0  0  0  0  0  0  0  0  0
  -26.6418  -32.4925   23.9162 N   0  0  0  0  0  0  0  0  0  0  0  0
  -20.5624  -30.8025   22.1215 N   0  0  0  0  0  0  0  0  0  0  0  0
  -27.6443  -23.5484   19.7689 N   0  3  0  0  0  0  0  0  0  0  0  0
  -19.1064  -30.3772   18.8402 N   0  3  0  0  0  0  0  0  0  0  0  0
  -22.6654  -10.8581   17.5109 O   0  0  0  0  0  0  0  0  0  0  0  0
  -25.9637  -30.2669   23.8209 O   0  0  0  0  0  0  0  0  0  0  0  0
  -22.5939  -32.5577   23.1221 O   0  0  0  0  0  0  0  0  0  0  0  0
  -20.6477  -28.9583   20.7184 O   0  0  0  0  0  0  0  0  0  0  0  0
  -30.5087  -15.8974   20.6190 O   0  0  0  0  0  0  0  0  0  0  0  0
  -22.7072   -7.1955   24.3790 O   0  0  0  0  0  0  0  0  0  0  0  0
  -29.2212  -20.3891   19.7917 O   0  0  0  0  0  0  0  0  0  0  0  0
  -26.7162  -26.2486   19.2414 O   0  0  0  0  0  0  0  0  0  1  0  0
  -20.4748   -2.4283   22.7378 F   0  0  0  0  0  0  0  0  0  0  0  0
  -23.6893   -4.7795   25.2960 F   0  0  0  0  0  0  0  0  0  0  0  0
  1  2  1  0  0  0  0
  1  5  2  0  0  0  0
  2  6  2  0  0  0  0
  3  8  2  0  0  0  0
  3 17  1  0  0  0  0
  4  9  1  0  0  0  0
  4 17  2  0  0  0  0
  5 19  1  0  0  0  0
  6 21  1  0  0  0  0
  7 10  2  0  0  0  0
  7 20  1  0  0  0  0
  8 26  1  0  0  0  0
  9 26  2  0  0  0  0
 10 27  1  0  0  0  0
 11 12  2  0  0  0  0
 11 28  1  0  0  0  0
 12 30  1  0  0  0  0
 13 22  1  0  0  0  0
 13 27  2  0  0  0  0
 14 24  2  0  0  0  0
 14 25  1  0  0  0  0
 15 25  2  0  0  0  0
 15 29  1  0  0  0  0
 16 30  2  0  0  0  0
 16 31  1  0  0  0  0
 17 32  1  0  0  0  0
 18 32  1  0  0  0  0
 18 33  2  0  0  0  0
 18 34  1  0  0  0  0
 19 21  2  0  0  0  0
 19 39  1  0  0  0  0
 20 22  2  0  0  0  0
 20 40  1  0  0  0  0
 21 49  1  0  0  0  0
 22 41  1  0  0  0  0
 23 24  1  0  0  0  0
 23 29  2  0  0  0  0
 23 48  1  0  0  0  0
 24 54  1  0  0  0  0
 25 75  1  0  0  0  0
 26 85  1  0  0  0  0
 27 87  1  0  0  0  0
 28 31  2  0  0  0  0
 28 85  1  0  0  0  0
 29 86  1  0  0  0  0
 30 88  1  0  0  0  0
 31 89  1  0  0  0  0
 32 69  2  0  0  0  0
 33 70  1  0  0  0  0
 33 73  1  0  0  0  0
 34 74  1  0  0  0  0
 34 80  2  0  0  0  0
 35 50  1  0  0  0  0
 35 76  1  0  0  0  0
 35 81  2  0  0  0  0
 36 65  1  0  0  0  0
 36 71  1  0  0  0  0
 36 82  2  0  0  0  0
 37 66  1  0  0  0  0
 37 77  1  0  0  0  0
 37 83  2  0  0  0  0
 38 72  1  0  0  0  0
 38 75  1  0  0  0  0
 38 84  2  0  0  0  0
 39 42  1  0  0  0  0
 40 50  1  0  0  0  0
 41 71  1  0  0  0  0
 42 44  1  0  0  0  0
 43 45  1  0  0  0  0
 43 46  1  0  0  0  0
 44 49  1  0  0  0  0
 45 51  1  0  0  0  0
 46 72  1  0  0  0  0
 47 51  1  0  0  0  0
 47 72  1  0  0  0  0
 48 52  1  0  0  0  0
 48 53  1  0  0  0  0
 49 76  1  0  0  0  0
 50 71  1  0  0  0  0
 51 70  1  0  0  0  0
 52 53  1  0  0  0  0
 52 78  1  0  0  0  0
 53 55  1  0  0  0  0
 53 56  1  0  0  0  0
 57 66  1  0  0  0  0
 58 67  1  0  0  0  0
 59 68  1  0  0  0  0
 60 68  1  0  0  0  0
 61 68  1  0  0  0  0
 62 79  1  0  0  0  0
 63 86  1  0  0  0  0
 64 67  1  0  0  0  0
 64 78  1  0  0  0  0
 65 68  1  0  0  0  0
 65 77  1  0  0  0  0
 66 79  1  0  0  0  0
 67 87  1  0  0  0  0
 69 70  1  0  0  0  0
M  CHG  2  78   1  79   1
M  ISO  4  38 100  67 101  75 100  87 101
M  END
> <Batch ID>
0150

> <Smiles>
CNC(C)C(=O)NC(C(=O)N1Cc2cc([101O:1][101CH:1](C)CNC3C(c4c(C)cc([100NH:0][100C:0](=O)N5CCCC(n6nc(-c7ccc(Oc8ccc(F)cc8F)cc7)c(C(N)=O)c6N)C5)cc4OC)C3(C)C)ccc2CC1C(=O)NC1CCCc2ccccc21)C(C)(C)C

> <Shape>
0.304

> <Color>
0.102

> <Negative vol penalty>
0.000

$$$$

  -OEChem-04052321413D

 89 99  0     1  0  0  0  0  0999 V2000
  -28.2152  -36.6164   18.0815 C   0  0  0  0  0  0  0  0  0  0  0  0
  -28.6077  -35.2915   18.2428 C   0  0  0  0  0  0  0  0  0  0  0  0
  -24.3189  -11.1586   23.2603 C   0  0  0  0  0  0  0  0  0  0  0  0
  -23.0883  -10.1870   21.4222 C   0  0  0  0  0  0  0  0  0  0  0  0
  -27.2755  -37.1742   18.9474 C   0  0  0  0  0  0  0  0  0  0  0  0
  -28.0615  -34.5239   19.2709 C   0  0  0  0  0  0  0  0  0  0  0  0
  -26.8006  -28.5328   19.1212 C   0  0  0  0  0  0  0  0  0  0  0  0
  -23.6485  -10.3211   24.1518 C   0  0  0  0  0  0  0  0  0  0  0  0
  -22.4179   -9.3495   22.3137 C   0  0  0  0  0  0  0  0  0  0  0  0
  -27.4935  -27.4165   19.5877 C   0  0  0  0  0  0  0  0  0  0  0  0
  -23.0489   -6.4846   23.9914 C   0  0  0  0  0  0  0  0  0  0  0  0
  -22.9176   -5.1407   23.6418 C   0  0  0  0  0  0  0  0  0  0  0  0
  -29.1451  -22.7694   20.6216 C   0  0  0  0  0  0  0  0  0  0  0  0
  -26.1827  -27.4566   21.6124 C   0  0  0  0  0  0  0  0  0  0  0  0
  -30.3660  -24.1909   22.1467 C   0  0  0  0  0  0  0  0  0  0  0  0
  -20.5124   -5.3570   23.7130 C   0  0  0  0  0  0  0  0  0  0  0  0
  -24.0387  -11.0916   21.8954 C   0  0  0  0  0  0  0  0  0  0  0  0
  -25.9399  -11.6920   20.3040 C   0  0  0  0  0  0  0  0  0  0  0  0
  -26.7103  -36.4102   19.9806 C   0  0  0  0  0  0  0  0  0  0  0  0
  -25.7994  -29.1270   19.9028 C   0  0  0  0  0  0  0  0  0  0  0  0
  -27.1143  -35.0724   20.1522 C   0  0  0  0  0  0  0  0  0  0  0  0
  -29.7087  -21.6428   21.2204 C   0  0  0  0  0  0  0  0  0  0  0  0
  -25.4769  -28.5788   21.1525 C   0  0  0  0  0  0  0  0  0  0  0  0
  -29.4738  -24.0435   21.0847 C   0  0  0  0  0  0  0  0  0  0  0  0
  -30.6009  -21.7902   22.2824 C   0  0  0  0  0  0  0  0  0  0  0  0
  -22.6980   -9.4166   23.6785 C   0  0  0  0  0  0  0  0  0  0  0  0
  -27.1866  -26.8800   20.8347 C   0  0  0  0  0  0  0  0  0  0  0  0
  -21.9119   -7.2647   24.2019 C   0  0  0  0  0  0  0  0  0  0  0  0
  -30.9296  -23.0642   22.7456 C   0  0  0  0  0  0  0  0  0  0  0  0
  -21.6494   -4.5769   23.5026 C   0  0  0  0  0  0  0  0  0  0  0  0
  -20.6437   -6.7010   24.0627 C   0  0  0  0  0  0  0  0  0  0  0  0
  -24.7305  -11.9568   20.9741 C   0  0  0  0  0  0  0  0  0  0  0  0
  -26.1703  -12.8188   19.5531 C   0  0  0  0  0  0  0  0  0  0  0  0
  -26.7800  -10.5313   20.3557 C   0  0  0  0  0  0  0  0  0  0  0  0
  -25.3897  -31.9869   21.2283 C   0  0  0  0  0  0  0  0  0  0  0  0
  -22.4671  -30.7920   21.9720 C   0  0  0  0  0  0  0  0  0  0  0  0
  -20.5142  -28.0487   22.5266 C   0  0  0  0  0  0  0  0  0  0  0  0
  -26.2811  -18.2509   18.8457 C   0  0  0  0  0  0  0  0  0  0  0  0
  -25.7333  -37.0707   20.9208 C   0  0  0  0  0  0  0  0  0  0  0  0
  -25.0429  -30.3145   19.3738 C   0  0  0  0  0  0  0  0  0  0  0  0
  -24.3966  -29.1672   22.0215 C   0  0  0  0  0  0  0  0  0  0  0  0
  -24.9240  -36.0795   21.7531 C   0  0  0  0  0  0  0  0  0  0  0  0
  -23.1840  -16.7546   18.5030 C   0  0  0  0  0  0  0  0  0  0  0  0
  -25.8360  -35.0095   22.3448 C   0  0  0  0  0  0  0  0  0  0  0  0
  -34.8409  -22.2224   24.0846 C   0  0  0  0  0  0  0  0  0  0  0  0
  -35.5248  -23.5569   23.9792 C   0  0  0  0  0  0  0  0  0  0  0  0
  -23.3976  -15.3462   19.0571 C   0  0  0  0  0  0  0  0  0  0  0  0
  -28.1433  -19.6649   21.4631 C   0  0  0  0  0  0  0  0  0  0  0  0
  -29.0563  -20.2825   19.1839 C   0  0  0  0  0  0  0  0  0  0  0  0
  -23.9025  -17.7921   19.3579 C   0  0  0  0  0  0  0  0  0  0  0  0
  -27.7508  -18.2921   20.9095 C   0  0  0  0  0  0  0  0  0  0  0  0
  -28.6676  -18.8910   18.6929 C   0  0  0  0  0  0  0  0  0  0  0  0
  -25.5971  -16.1342   20.0631 C   0  0  0  0  0  0  0  0  0  0  0  0
  -29.3348  -20.2685   20.6979 C   0  0  0  0  0  0  0  0  0  0  0  0
  -26.5261  -34.2003   21.2401 C   0  0  1  0  0  0  0  0  0  0  0  0
  -24.3957  -31.1493   20.4745 C   0  0  1  0  0  0  0  0  0  0  0  0
  -34.0912  -23.4803   24.4259 C   0  0  0  0  0  0  0  0  0  0  0  0
  -24.8961  -15.0415   19.2305 C   0  0  1  0  0  0  0  0  0  0  0  0
  -31.2083  -20.5859   22.9283 C   0  0  0  0  0  0  0  0  0  0  0  0
  -18.1753  -27.3899   23.1534 C   0  0  0  0  0  0  0  0  0  0  0  0
  -23.0332  -31.5512   24.8725 C   0  0  0  0  0  0  0  0  0  0  0  0
  -21.1500  -30.0512   25.5597 C   0  0  0  0  0  0  0  0  0  0  0  0
  -20.7010  -32.0278   24.1056 C   0  0  0  0  0  0  0  0  0  0  0  0
  -20.1164  -26.5965   19.9787 C   0  0  0  0  0  0  0  0  0  0  0  0
  -28.8721  -25.2484   20.4441 C   0  0  0  0  0  0  0  0  0  1  0  0
  -32.9838  -23.9775   23.5214 C   0  0  0  0  0  0  0  0  0  0  0  0
  -21.8921  -30.0200   23.1349 C   0  0  1  0  0  0  0  0  0  0  0  0
  -19.1376  -27.6712   22.0099 C   0  0  2  0  0  0  0  0  0  0  0  0
  -21.7158  -30.9024   24.4029 C   0  0  0  0  0  0  0  0  0  0  0  0
  -24.2277  -13.1576   20.6753 N   0  0  0  0  0  0  0  0  0  0  0  0
  -25.1257  -13.6575   19.8094 N   0  0  0  0  0  0  0  0  0  0  0  0
  -23.6897  -30.3316   21.4630 N   0  0  0  0  0  0  0  0  0  0  0  0
  -25.3211  -17.4657   19.5017 N   0  0  0  0  0  0  0  0  0  0  0  0
  -27.5394  -18.3593   19.4568 N   0  0  0  0  0  0  0  0  0  0  0  0
  -27.1625  -13.1641   18.7054 N   0  0  0  0  0  0  0  0  0  0  0  0
  -26.3951   -9.4640   21.1786 N   0  0  0  0  0  0  0  0  0  0  0  0
  -25.6098  -33.2335   20.6743 N   0  0  0  0  0  0  0  0  0  0  0  0
  -20.6558  -29.4146   22.6516 N   0  0  0  0  0  0  0  0  0  0  0  0
  -19.2212  -26.4529   21.1556 N   0  3  0  0  0  0  0  0  0  0  0  0
  -27.8490  -10.4498   19.7045 O   0  0  0  0  0  0  0  0  0  0  0  0
  -25.9167  -31.5361   22.2385 O   0  0  0  0  0  0  0  0  0  0  0  0
  -21.8506  -31.7633   21.5269 O   0  0  0  0  0  0  0  0  0  0  0  0
  -21.3762  -27.2152   22.7961 O   0  0  0  0  0  0  0  0  0  0  0  0
  -26.0299  -18.8213   17.7767 O   0  0  0  0  0  0  0  0  0  0  0  0
  -22.0439   -8.5990   24.5482 O   0  0  0  0  0  0  0  0  0  0  0  0
  -27.8664  -25.7834   21.2958 O   0  0  0  0  0  0  0  0  0  1  0  0
  -31.7992  -23.2277   23.7820 O   0  0  0  0  0  0  0  0  0  0  0  0
  -21.5235   -3.2867   23.1653 F   0  0  0  0  0  0  0  0  0  0  0  0
  -19.5477   -7.4458   24.2625 F   0  0  0  0  0  0  0  0  0  0  0  0
  1  2  1  0  0  0  0
  1  5  2  0  0  0  0
  2  6  2  0  0  0  0
  3  8  2  0  0  0  0
  3 17  1  0  0  0  0
  4  9  1  0  0  0  0
  4 17  2  0  0  0  0
  5 19  1  0  0  0  0
  6 21  1  0  0  0  0
  7 10  2  0  0  0  0
  7 20  1  0  0  0  0
  8 26  1  0  0  0  0
  9 26  2  0  0  0  0
 10 27  1  0  0  0  0
 11 12  2  0  0  0  0
 11 28  1  0  0  0  0
 12 30  1  0  0  0  0
 13 22  1  0  0  0  0
 13 24  2  0  0  0  0
 14 23  1  0  0  0  0
 14 27  2  0  0  0  0
 15 24  1  0  0  0  0
 15 29  2  0  0  0  0
 16 30  2  0  0  0  0
 16 31  1  0  0  0  0
 17 32  1  0  0  0  0
 18 32  1  0  0  0  0
 18 33  2  0  0  0  0
 18 34  1  0  0  0  0
 19 21  2  0  0  0  0
 19 39  1  0  0  0  0
 20 23  2  0  0  0  0
 20 40  1  0  0  0  0
 21 55  1  0  0  0  0
 22 25  2  0  0  0  0
 22 54  1  0  0  0  0
 23 41  1  0  0  0  0
 24 65  1  0  0  0  0
 25 29  1  0  0  0  0
 25 59  1  0  0  0  0
 26 85  1  0  0  0  0
 27 86  1  0  0  0  0
 28 31  2  0  0  0  0
 28 85  1  0  0  0  0
 29 87  1  0  0  0  0
 30 88  1  0  0  0  0
 31 89  1  0  0  0  0
 32 70  2  0  0  0  0
 33 71  1  0  0  0  0
 33 75  1  0  0  0  0
 34 76  1  0  0  0  0
 34 80  2  0  0  0  0
 35 56  1  0  0  0  0
 35 77  1  0  0  0  0
 35 81  2  0  0  0  0
 36 67  1  0  0  0  0
 36 72  1  0  0  0  0
 36 82  2  0  0  0  0
 37 68  1  0  0  0  0
 37 78  1  0  0  0  0
 37 83  2  0  0  0  0
 38 73  1  0  0  0  0
 38 74  1  0  0  0  0
 38 84  2  0  0  0  0
 39 42  1  0  0  0  0
 40 56  1  0  0  0  0
 41 72  1  0  0  0  0
 42 44  1  0  0  0  0
 43 47  1  0  0  0  0
 43 50  1  0  0  0  0
 44 55  1  0  0  0  0
 45 46  1  0  0  0  0
 45 57  1  0  0  0  0
 46 57  1  0  0  0  0
 47 58  1  0  0  0  0
 48 51  1  0  0  0  0
 48 54  1  0  0  0  0
 49 52  1  0  0  0  0
 49 54  1  0  0  0  0
 50 73  1  0  0  0  0
 51 74  1  0  0  0  0
 52 74  1  0  0  0  0
 53 58  1  0  0  0  0
 53 73  1  0  0  0  0
 55 77  1  0  0  0  0
 56 72  1  0  0  0  0
 57 66  1  0  0  0  0
 58 71  1  0  0  0  0
 60 68  1  0  0  0  0
 61 69  1  0  0  0  0
 62 69  1  0  0  0  0
 63 69  1  0  0  0  0
 64 79  1  0  0  0  0
 65 86  1  0  0  0  0
 66 87  1  0  0  0  0
 67 69  1  0  0  0  0
 67 78  1  0  0  0  0
 68 79  1  0  0  0  0
 70 71  1  0  0  0  0
M  CHG  1  79   1
M  ISO  4  38 100  65 101  74 100  86 101
M  END
> <Batch ID>
0150

> <Smiles>
CNC(C)C(=O)NC(C(=O)N1Cc2cc([101O:1][101CH2:1]c3cc(OCC4CC4)c(C)c(C4CC[100N:0]([100C:0](=O)N5CCCC(n6nc(-c7ccc(Oc8ccc(F)cc8F)cc7)c(C(N)=O)c6N)C5)CC4)c3)ccc2CC1C(=O)NC1CCCc2ccccc21)C(C)(C)C

> <Shape>
0.270

> <Color>
0.070

> <Negative vol penalty>
0.000

$$$$

  -OEChem-04052321413D

 91101  0     1  0  0  0  0  0999 V2000
  -16.6747  -29.7338   23.3574 C   0  0  0  0  0  0  0  0  0  0  0  0
  -17.7405  -30.5295   23.7653 C   0  0  0  0  0  0  0  0  0  0  0  0
  -27.3742  -13.5724   22.5684 C   0  0  0  0  0  0  0  0  0  0  0  0
  -26.4828  -13.5819   20.3229 C   0  0  0  0  0  0  0  0  0  0  0  0
  -16.9082  -28.4354   22.9064 C   0  0  0  0  0  0  0  0  0  0  0  0
  -19.0404  -30.0268   23.7234 C   0  0  0  0  0  0  0  0  0  0  0  0
  -25.8016  -32.1172   22.6130 C   0  0  0  0  0  0  0  0  0  0  0  0
  -26.8549  -12.2936   22.7692 C   0  0  0  0  0  0  0  0  0  0  0  0
  -25.9635  -12.3029   20.5237 C   0  0  0  0  0  0  0  0  0  0  0  0
  -27.0605  -32.0527   23.2086 C   0  0  0  0  0  0  0  0  0  0  0  0
  -23.2920  -10.9118   22.0594 C   0  0  0  0  0  0  0  0  0  0  0  0
  -21.9841  -10.6701   21.6392 C   0  0  0  0  0  0  0  0  0  0  0  0
  -26.0215  -29.9161   26.5638 C   0  0  0  0  0  0  0  0  0  0  0  0
  -27.0831  -27.8517   25.8946 C   0  0  0  0  0  0  0  0  0  0  0  0
  -27.3522  -29.8226   22.3363 C   0  0  0  0  0  0  0  0  0  0  0  0
  -24.7359  -27.8729   26.4669 C   0  0  0  0  0  0  0  0  0  0  0  0
  -22.7820   -8.9452   20.1476 C   0  0  0  0  0  0  0  0  0  0  0  0
  -27.1882  -14.2166   21.3452 C   0  0  0  0  0  0  0  0  0  0  0  0
  -28.9959  -15.8700   20.6337 C   0  0  0  0  0  0  0  0  0  0  0  0
  -18.2127  -27.9198   22.8499 C   0  0  0  0  0  0  0  0  0  0  0  0
  -25.3031  -31.0290   21.8825 C   0  0  0  0  0  0  0  0  0  0  0  0
  -19.2915  -28.7197   23.2725 C   0  0  0  0  0  0  0  0  0  0  0  0
  -27.1577  -29.2209   26.1500 C   0  0  0  0  0  0  0  0  0  0  0  0
  -26.0877  -29.8769   21.7303 C   0  0  0  0  0  0  0  0  0  0  0  0
  -24.8106  -29.2421   26.7223 C   0  0  0  0  0  0  0  0  0  0  0  0
  -26.1495  -11.6588   21.7469 C   0  0  0  0  0  0  0  0  0  0  0  0
  -27.8348  -30.9042   23.0727 C   0  0  0  0  0  0  0  0  0  0  0  0
  -24.3450  -10.1702   21.5236 C   0  0  0  0  0  0  0  0  0  0  0  0
  -25.8722  -27.1776   26.0530 C   0  0  0  0  0  0  0  0  0  0  0  0
  -21.7291   -9.6868   20.6833 C   0  0  0  0  0  0  0  0  0  0  0  0
  -24.0900   -9.1869   20.5677 C   0  0  0  0  0  0  0  0  0  0  0  0
  -27.7239  -15.5379   21.1374 C   0  0  0  0  0  0  0  0  0  0  0  0
  -29.0161  -17.2433   20.6305 C   0  0  0  0  0  0  0  0  0  0  0  0
  -30.0636  -15.0136   20.2067 C   0  0  0  0  0  0  0  0  0  0  0  0
  -22.7981  -29.0935   22.1692 C   0  0  0  0  0  0  0  0  0  0  0  0
  -23.8243  -27.9780   19.3013 C   0  0  0  0  0  0  0  0  0  0  0  0
  -26.4053  -27.5724   17.1057 C   0  0  0  0  0  0  0  0  0  0  0  0
  -27.3672  -21.6815   23.5678 C   0  0  0  0  0  0  0  0  0  0  0  0
  -18.4109  -26.4941   22.3996 C   0  0  0  0  0  0  0  0  0  0  0  0
  -23.9543  -31.1245   21.2238 C   0  0  0  0  0  0  0  0  0  0  0  0
  -25.6069  -28.6888   20.9391 C   0  0  0  0  0  0  0  0  0  0  0  0
  -19.8559  -26.1666   22.0325 C   0  0  0  0  0  0  0  0  0  0  0  0
  -25.5814  -20.7894   20.6803 C   0  0  0  0  0  0  0  0  0  0  0  0
  -20.8102  -26.6926   23.1000 C   0  0  0  0  0  0  0  0  0  0  0  0
  -26.0770  -19.3626   20.4458 C   0  0  0  0  0  0  0  0  0  0  0  0
  -26.7414  -25.3356   23.6264 C   0  0  0  0  0  0  0  0  0  0  0  0
  -24.6846  -24.1330   24.4828 C   0  0  0  0  0  0  0  0  0  0  0  0
  -30.5685  -29.8492   25.4292 C   0  0  0  0  0  0  0  0  0  0  0  0
  -25.3462  -21.0776   22.1640 C   0  0  0  0  0  0  0  0  0  0  0  0
  -27.5764  -24.1049   23.9767 C   0  0  0  0  0  0  0  0  0  0  0  0
  -25.5668  -22.9323   24.8167 C   0  0  0  0  0  0  0  0  0  0  0  0
  -27.0081  -19.3568   22.7912 C   0  0  0  0  0  0  0  0  0  0  0  0
  -28.5040  -29.9702   25.9735 C   0  0  1  0  0  0  0  0  0  0  0  0
  -20.7184  -28.2187   23.2184 C   0  0  1  0  0  0  0  0  0  0  0  0
  -23.3328  -29.7617   20.9342 C   0  0  1  0  0  0  0  0  0  0  0  0
  -29.7649  -29.3592   26.6561 C   0  0  2  0  0  0  0  0  0  0  0  0
  -27.3097  -19.0559   21.3148 C   0  0  1  0  0  0  0  0  0  0  0  0
  -25.4704  -25.4454   24.4694 C   0  0  0  0  0  0  0  0  0  0  0  0
  -29.2556  -29.7900   24.6206 C   0  0  1  0  0  0  0  0  0  1  0  0
  -23.5959  -29.9856   27.1648 C   0  0  0  0  0  0  0  0  0  0  0  0
  -26.9461  -26.5892   14.8611 C   0  0  0  0  0  0  0  0  0  0  0  0
  -29.2706  -29.4074   29.1172 C   0  0  0  0  0  0  0  0  0  0  0  0
  -31.6336  -29.6564   28.3062 C   0  0  0  0  0  0  0  0  0  0  0  0
  -23.8149  -25.1833   20.5259 C   0  0  0  0  0  0  0  0  0  0  0  0
  -25.2304  -24.4145   18.6092 C   0  0  0  0  0  0  0  0  0  0  0  0
  -22.9370  -25.3004   18.1871 C   0  0  0  0  0  0  0  0  0  0  0  0
  -27.1839  -30.2088   16.0092 C   0  0  0  0  0  0  0  0  0  0  0  0
  -24.7796  -26.8980   18.8540 C   0  0  1  0  0  0  0  0  0  0  0  0
  -26.5101  -27.8363   15.6144 C   0  0  2  0  0  0  0  0  0  0  0  0
  -30.1627  -29.9464   27.9957 C   0  0  0  0  0  0  0  0  0  0  0  0
  -24.1990  -25.4705   19.0606 C   0  0  0  0  0  0  0  0  0  0  0  0
  -26.9895  -16.6137   21.4329 N   0  0  0  0  0  0  0  0  0  0  0  0
  -27.8025  -17.6351   21.1140 N   0  0  0  0  0  0  0  0  0  0  0  0
  -24.2788  -28.8283   20.3193 N   0  0  0  0  0  0  0  0  0  0  0  0
  -26.5343  -20.7326   22.9560 N   0  0  0  0  0  0  0  0  0  0  0  0
  -26.7676  -22.8865   23.9715 N   0  0  0  0  0  0  0  0  0  0  0  0
  -29.9535  -18.1419   20.2614 N   0  0  0  0  0  0  0  0  0  0  0  0
  -29.8759  -13.6264   20.2762 N   0  0  0  0  0  0  0  0  0  0  0  0
  -21.4376  -28.8538   22.1349 N   0  0  0  0  0  0  0  0  0  0  0  0
  -25.1269  -27.2074   17.4712 N   0  0  0  0  0  0  0  0  0  0  0  0
  -27.5012  -28.9169   15.3480 N   0  3  0  0  0  0  0  0  0  0  0  0
  -31.1579  -15.4650   19.7918 O   0  0  0  0  0  0  0  0  0  0  0  0
  -23.5633  -28.8145   23.0848 O   0  0  0  0  0  0  0  0  0  0  0  0
  -22.7185  -28.0685   18.7622 O   0  0  0  0  0  0  0  0  0  0  0  0
  -27.3628  -27.6759   17.8693 O   0  0  0  0  0  0  0  0  0  0  0  0
  -28.5739  -21.4692   23.7408 O   0  0  0  0  0  0  0  0  0  0  0  0
  -25.6428  -10.4108   21.9424 O   0  0  0  0  0  0  0  0  0  0  0  0
  -29.0659  -30.8382   23.6546 O   0  0  0  0  0  0  0  0  0  1  0  0
  -25.7989  -25.8328   25.8018 O   0  0  0  0  0  0  0  0  0  0  0  0
  -20.4729   -9.4538   20.2811 F   0  0  0  0  0  0  0  0  0  0  0  0
  -25.0973   -8.4704   20.0503 F   0  0  0  0  0  0  0  0  0  0  0  0
  1  2  1  0  0  0  0
  1  5  2  0  0  0  0
  2  6  2  0  0  0  0
  3  8  2  0  0  0  0
  3 18  1  0  0  0  0
  4  9  1  0  0  0  0
  4 18  2  0  0  0  0
  5 20  1  0  0  0  0
  6 22  1  0  0  0  0
  7 10  2  0  0  0  0
  7 21  1  0  0  0  0
  8 26  1  0  0  0  0
  9 26  2  0  0  0  0
 10 27  1  0  0  0  0
 11 12  2  0  0  0  0
 11 28  1  0  0  0  0
 12 30  1  0  0  0  0
 13 23  1  0  0  0  0
 13 25  2  0  0  0  0
 14 23  2  0  0  0  0
 14 29  1  0  0  0  0
 15 24  1  0  0  0  0
 15 27  2  0  0  0  0
 16 25  1  0  0  0  0
 16 29  2  0  0  0  0
 17 30  2  0  0  0  0
 17 31  1  0  0  0  0
 18 32  1  0  0  0  0
 19 32  1  0  0  0  0
 19 33  2  0  0  0  0
 19 34  1  0  0  0  0
 20 22  2  0  0  0  0
 20 39  1  0  0  0  0
 21 24  2  0  0  0  0
 21 40  1  0  0  0  0
 22 54  1  0  0  0  0
 23 53  1  0  0  0  0
 24 41  1  0  0  0  0
 25 60  1  0  0  0  0
 26 87  1  0  0  0  0
 27 88  1  0  0  0  0
 28 31  2  0  0  0  0
 28 87  1  0  0  0  0
 29 89  1  0  0  0  0
 30 90  1  0  0  0  0
 31 91  1  0  0  0  0
 32 72  2  0  0  0  0
 33 73  1  0  0  0  0
 33 77  1  0  0  0  0
 34 78  1  0  0  0  0
 34 82  2  0  0  0  0
 35 55  1  0  0  0  0
 35 79  1  0  0  0  0
 35 83  2  0  0  0  0
 36 68  1  0  0  0  0
 36 74  1  0  0  0  0
 36 84  2  0  0  0  0
 37 69  1  0  0  0  0
 37 80  1  0  0  0  0
 37 85  2  0  0  0  0
 38 75  1  0  0  0  0
 38 76  1  0  0  0  0
 38 86  2  0  0  0  0
 39 42  1  0  0  0  0
 40 55  1  0  0  0  0
 41 74  1  0  0  0  0
 42 44  1  0  0  0  0
 43 45  1  0  0  0  0
 43 49  1  0  0  0  0
 44 54  1  0  0  0  0
 45 57  1  0  0  0  0
 46 50  1  0  0  0  0
 46 58  1  0  0  0  0
 47 51  1  0  0  0  0
 47 58  1  0  0  0  0
 48 56  1  0  0  0  0
 48 59  1  0  0  0  0
 49 75  1  0  0  0  0
 50 76  1  0  0  0  0
 51 76  1  0  0  0  0
 52 57  1  0  0  0  0
 52 75  1  0  0  0  0
 53 56  1  0  0  0  0
 53 59  1  0  0  0  0
 54 79  1  0  0  0  0
 55 74  1  0  0  0  0
 56 70  1  0  0  0  0
 57 73  1  0  0  0  0
 58 89  1  0  0  0  0
 59 88  1  0  0  0  0
 61 69  1  0  0  0  0
 62 70  1  0  0  0  0
 63 70  1  0  0  0  0
 64 71  1  0  0  0  0
 65 71  1  0  0  0  0
 66 71  1  0  0  0  0
 67 81  1  0  0  0  0
 68 71  1  0  0  0  0
 68 80  1  0  0  0  0
 69 81  1  0  0  0  0
 72 73  1  0  0  0  0
M  CHG  1  81   1
M  ISO  4  38 100  59 101  76 100  88 101
M  END
> <Batch ID>
0150

> <Smiles>
CNC(C)C(=O)NC(C(=O)N1Cc2cc([101O:1][101CH:1]3CC(C(C)C)C3c3cc(C)cc(OC4CC[100N:0]([100C:0](=O)N5CCCC(n6nc(-c7ccc(Oc8ccc(F)cc8F)cc7)c(C(N)=O)c6N)C5)CC4)c3)ccc2CC1C(=O)NC1CCCc2ccccc21)C(C)(C)C

> <Shape>
0.256

> <Color>
0.119

> <Negative vol penalty>
0.000

$$$$

  -OEChem-04052321413D

 89 99  0     1  0  0  0  0  0999 V2000
  -19.3303  -25.3204   24.4047 C   0  0  0  0  0  0  0  0  0  0  0  0
  -20.6835  -25.3780   24.0870 C   0  0  0  0  0  0  0  0  0  0  0  0
  -25.3699   -9.2223   18.5223 C   0  0  0  0  0  0  0  0  0  0  0  0
  -24.7957   -8.5787   20.7791 C   0  0  0  0  0  0  0  0  0  0  0  0
  -18.4541  -26.2769   23.8935 C   0  0  0  0  0  0  0  0  0  0  0  0
  -21.1611  -26.3916   23.2570 C   0  0  0  0  0  0  0  0  0  0  0  0
  -30.3487  -24.5679   19.9014 C   0  0  0  0  0  0  0  0  0  0  0  0
  -26.6060  -29.1736   23.6025 C   0  0  0  0  0  0  0  0  0  0  0  0
  -30.1889  -23.1811   19.8537 C   0  0  0  0  0  0  0  0  0  0  0  0
  -25.5174   -7.8791   18.1767 C   0  0  0  0  0  0  0  0  0  0  0  0
  -24.9431   -7.2354   20.4335 C   0  0  0  0  0  0  0  0  0  0  0  0
  -27.8004  -28.9871   22.9079 C   0  0  0  0  0  0  0  0  0  0  0  0
  -23.5094   -5.2713   17.4018 C   0  0  0  0  0  0  0  0  0  0  0  0
  -22.9404   -4.8444   16.2020 C   0  0  0  0  0  0  0  0  0  0  0  0
  -30.6553  -23.1626   17.4665 C   0  0  0  0  0  0  0  0  0  0  0  0
  -27.1916  -30.7652   21.3956 C   0  0  0  0  0  0  0  0  0  0  0  0
  -25.1214   -4.1768   15.4053 C   0  0  0  0  0  0  0  0  0  0  0  0
  -25.0090   -9.5722   19.8235 C   0  0  0  0  0  0  0  0  0  0  0  0
  -23.6839  -11.7339   20.1037 C   0  0  0  0  0  0  0  0  0  0  0  0
  -18.9228  -27.3083   23.0646 C   0  0  0  0  0  0  0  0  0  0  0  0
  -25.6890  -30.1516   23.1916 C   0  0  0  0  0  0  0  0  0  0  0  0
  -20.2901  -27.3620   22.7331 C   0  0  0  0  0  0  0  0  0  0  0  0
  -30.6461  -25.2373   18.7255 C   0  0  0  0  0  0  0  0  0  0  0  0
  -30.7991  -24.5388   17.5203 C   0  0  0  0  0  0  0  0  0  0  0  0
  -25.9875  -30.9638   22.0883 C   0  0  0  0  0  0  0  0  0  0  0  0
  -30.3408  -22.4836   18.6452 C   0  0  0  0  0  0  0  0  0  0  0  0
  -25.3040   -6.8856   19.1323 C   0  0  0  0  0  0  0  0  0  0  0  0
  -28.0920  -29.7810   21.8025 C   0  0  0  0  0  0  0  0  0  0  0  0
  -24.8844   -5.1511   17.6034 C   0  0  0  0  0  0  0  0  0  0  0  0
  -23.7464   -4.2971   15.2037 C   0  0  0  0  0  0  0  0  0  0  0  0
  -25.6904   -4.6038   16.6051 C   0  0  0  0  0  0  0  0  0  0  0  0
  -24.8571  -10.9597   20.1812 C   0  0  0  0  0  0  0  0  0  0  0  0
  -24.0613  -12.9752   20.5546 C   0  0  0  0  0  0  0  0  0  0  0  0
  -22.3704  -11.3642   19.6636 C   0  0  0  0  0  0  0  0  0  0  0  0
  -22.6855  -30.1146   22.1517 C   0  0  0  0  0  0  0  0  0  0  0  0
  -22.9985  -33.3389   22.3196 C   0  0  0  0  0  0  0  0  0  0  0  0
  -25.0675  -36.0530   22.3154 C   0  0  0  0  0  0  0  0  0  0  0  0
  -27.3913  -17.1798   20.7503 C   0  0  0  0  0  0  0  0  0  0  0  0
  -17.9299  -28.2919   22.4977 C   0  0  0  0  0  0  0  0  0  0  0  0
  -24.4172  -30.3582   23.9677 C   0  0  0  0  0  0  0  0  0  0  0  0
  -31.1683  -25.4679   16.4056 C   0  0  0  0  0  0  0  0  0  0  0  0
  -25.0456  -32.0413   21.6189 C   0  0  0  0  0  0  0  0  0  0  0  0
  -18.5776  -29.5516   21.9285 C   0  0  0  0  0  0  0  0  0  0  0  0
  -30.7380  -26.8215   16.9930 C   0  0  0  0  0  0  0  0  0  0  0  0
  -28.2919  -14.5120   22.8480 C   0  0  0  0  0  0  0  0  0  0  0  0
  -19.7690  -29.1881   21.0481 C   0  0  0  0  0  0  0  0  0  0  0  0
  -27.3785  -13.3997   22.3335 C   0  0  0  0  0  0  0  0  0  0  0  0
  -30.2418  -18.8666   19.5596 C   0  0  0  0  0  0  0  0  0  0  0  0
  -28.3467  -20.4449   20.0934 C   0  0  0  0  0  0  0  0  0  0  0  0
  -28.8665  -15.3551   21.7082 C   0  0  0  0  0  0  0  0  0  0  0  0
  -29.7997  -17.9706   20.7204 C   0  0  0  0  0  0  0  0  0  0  0  0
  -27.9607  -19.5357   21.2568 C   0  0  0  0  0  0  0  0  0  0  0  0
  -26.9279  -14.7928   20.2784 C   0  0  0  0  0  0  0  0  0  0  0  0
  -20.8504  -28.4606   21.8560 C   0  0  1  0  0  0  0  0  0  0  0  0
  -30.9059  -26.6973   18.5174 C   0  0  1  0  0  0  0  0  0  0  0  0
  -23.3226  -31.0382   23.1510 C   0  0  1  0  0  0  0  0  0  0  0  0
  -26.2894  -13.9649   21.4044 C   0  0  1  0  0  0  0  0  0  0  0  0
  -29.8429  -20.3257   19.7920 C   0  0  0  0  0  0  0  0  0  0  0  0
  -25.0289  -38.5596   22.4292 C   0  0  0  0  0  0  0  0  0  0  0  0
  -22.0778  -33.4543   19.4129 C   0  0  0  0  0  0  0  0  0  0  0  0
  -22.9560  -35.7962   19.3006 C   0  0  0  0  0  0  0  0  0  0  0  0
  -21.1130  -35.2317   20.8841 C   0  0  0  0  0  0  0  0  0  0  0  0
  -26.6555  -36.0798   24.8127 C   0  0  0  0  0  0  0  0  0  0  0  0
  -30.2915  -29.0622   19.0153 C   0  0  0  0  0  0  0  0  0  0  0  0
  -29.2497  -29.9012   19.7286 C   0  0  0  0  0  0  0  0  0  1  0  0
  -23.4573  -34.4194   21.3704 C   0  0  1  0  0  0  0  0  0  0  0  0
  -25.1378  -37.2674   23.2236 C   0  0  2  0  0  0  0  0  0  0  0  0
  -22.4181  -34.7039   20.2494 C   0  0  0  0  0  0  0  0  0  0  0  0
  -25.9016  -11.6511   20.6447 N   0  0  0  0  0  0  0  0  0  0  0  0
  -25.3861  -12.8730   20.8624 N   0  0  0  0  0  0  0  0  0  0  0  0
  -23.8122  -32.2004   22.4068 N   0  0  0  0  0  0  0  0  0  0  0  0
  -27.7944  -15.8382   20.8268 N   0  0  0  0  0  0  0  0  0  0  0  0
  -28.3689  -18.1535   21.0035 N   0  0  0  0  0  0  0  0  0  0  0  0
  -23.3860  -14.1332   20.7138 N   0  0  0  0  0  0  0  0  0  0  0  0
  -22.1560  -10.0478   19.2329 N   0  0  0  0  0  0  0  0  0  0  0  0
  -30.1722  -21.1106   18.6226 N   0  0  0  0  0  0  0  0  0  0  0  0
  -21.6096  -29.4039   22.6486 N   0  0  0  0  0  0  0  0  0  0  0  0
  -23.7783  -35.5787   22.1959 N   0  0  0  0  0  0  0  0  0  0  0  0
  -29.9700  -27.6211   19.1973 N   0  3  0  0  0  0  0  0  0  0  0  0
  -26.4276  -37.2819   23.9701 N   0  3  0  0  0  0  0  0  0  0  0  0
  -21.4191  -12.1815   19.6371 O   0  0  0  0  0  0  0  0  0  0  0  0
  -23.1356  -30.0526   21.0136 O   0  0  0  0  0  0  0  0  0  0  0  0
  -21.9604  -33.5023   22.9655 O   0  0  0  0  0  0  0  0  0  0  0  0
  -26.0566  -35.5754   21.7640 O   0  0  0  0  0  0  0  0  0  0  0  0
  -26.2262  -17.4898   20.4718 O   0  0  0  0  0  0  0  0  0  0  0  0
  -25.4476   -5.5747   18.7954 O   0  0  0  0  0  0  0  0  0  0  0  0
  -29.2652  -29.5993   21.1175 O   0  0  0  0  0  0  0  0  0  1  0  0
  -23.1997   -3.8857   14.0522 F   0  0  0  0  0  0  0  0  0  0  0  0
  -27.0118   -4.4846   16.7935 F   0  0  0  0  0  0  0  0  0  0  0  0
  1  2  1  0  0  0  0
  1  5  2  0  0  0  0
  2  6  2  0  0  0  0
  3 10  2  0  0  0  0
  3 18  1  0  0  0  0
  4 11  1  0  0  0  0
  4 18  2  0  0  0  0
  5 20  1  0  0  0  0
  6 22  1  0  0  0  0
  7  9  2  0  0  0  0
  7 23  1  0  0  0  0
  8 12  2  0  0  0  0
  8 21  1  0  0  0  0
  9 26  1  0  0  0  0
 10 27  1  0  0  0  0
 11 27  2  0  0  0  0
 12 28  1  0  0  0  0
 13 14  2  0  0  0  0
 13 29  1  0  0  0  0
 14 30  1  0  0  0  0
 15 24  1  0  0  0  0
 15 26  2  0  0  0  0
 16 25  1  0  0  0  0
 16 28  2  0  0  0  0
 17 30  2  0  0  0  0
 17 31  1  0  0  0  0
 18 32  1  0  0  0  0
 19 32  1  0  0  0  0
 19 33  2  0  0  0  0
 19 34  1  0  0  0  0
 20 22  2  0  0  0  0
 20 39  1  0  0  0  0
 21 25  2  0  0  0  0
 21 40  1  0  0  0  0
 22 54  1  0  0  0  0
 23 24  2  0  0  0  0
 23 55  1  0  0  0  0
 24 41  1  0  0  0  0
 25 42  1  0  0  0  0
 26 76  1  0  0  0  0
 27 86  1  0  0  0  0
 28 87  1  0  0  0  0
 29 31  2  0  0  0  0
 29 86  1  0  0  0  0
 30 88  1  0  0  0  0
 31 89  1  0  0  0  0
 32 69  2  0  0  0  0
 33 70  1  0  0  0  0
 33 74  1  0  0  0  0
 34 75  1  0  0  0  0
 34 81  2  0  0  0  0
 35 56  1  0  0  0  0
 35 77  1  0  0  0  0
 35 82  2  0  0  0  0
 36 66  1  0  0  0  0
 36 71  1  0  0  0  0
 36 83  2  0  0  0  0
 37 67  1  0  0  0  0
 37 78  1  0  0  0  0
 37 84  2  0  0  0  0
 38 72  1  0  0  0  0
 38 73  1  0  0  0  0
 38 85  2  0  0  0  0
 39 43  1  0  0  0  0
 40 56  1  0  0  0  0
 41 44  1  0  0  0  0
 42 71  1  0  0  0  0
 43 46  1  0  0  0  0
 44 55  1  0  0  0  0
 45 47  1  0  0  0  0
 45 50  1  0  0  0  0
 46 54  1  0  0  0  0
 47 57  1  0  0  0  0
 48 51  1  0  0  0  0
 48 58  1  0  0  0  0
 49 52  1  0  0  0  0
 49 58  1  0  0  0  0
 50 72  1  0  0  0  0
 51 73  1  0  0  0  0
 52 73  1  0  0  0  0
 53 57  1  0  0  0  0
 53 72  1  0  0  0  0
 54 77  1  0  0  0  0
 55 79  1  0  0  0  0
 56 71  1  0  0  0  0
 57 70  1  0  0  0  0
 58 76  1  0  0  0  0
 59 67  1  0  0  0  0
 60 68  1  0  0  0  0
 61 68  1  0  0  0  0
 62 68  1  0  0  0  0
 63 80  1  0  0  0  0
 64 65  1  0  0  0  0
 64 79  1  0  0  0  0
 65 87  1  0  0  0  0
 66 68  1  0  0  0  0
 66 78  1  0  0  0  0
 67 80  1  0  0  0  0
 69 70  1  0  0  0  0
M  CHG  2  79   1  80   1
M  ISO  4  38 100  65 101  73 100  87 101
M  END
> <Batch ID>
0150

> <Smiles>
CNC(C)C(=O)NC(C(=O)N1Cc2cc([101O:1][101CH2:1]CNC3CCc4cc(NC5CC[100N:0]([100C:0](=O)N6CCCC(n7nc(-c8ccc(Oc9ccc(F)cc9F)cc8)c(C(N)=O)c7N)C6)CC5)ccc43)ccc2CC1C(=O)NC1CCCc2ccccc21)C(C)(C)C

> <Shape>
0.285

> <Color>
0.107

> <Negative vol penalty>
0.000

$$$$

  -OEChem-04052321413D

 92101  0     1  0  0  0  0  0999 V2000
  -28.1728  -21.2504   19.5466 C   0  0  0  0  0  0  0  0  0  0  0  0
  -27.4499  -22.3579   19.1180 C   0  0  0  0  0  0  0  0  0  0  0  0
  -26.1638  -14.1035   21.1835 C   0  0  0  0  0  0  0  0  0  0  0  0
  -24.1943  -13.8025   19.8169 C   0  0  0  0  0  0  0  0  0  0  0  0
  -28.7214  -21.2340   20.8272 C   0  0  0  0  0  0  0  0  0  0  0  0
  -27.2854  -23.4542   19.9654 C   0  0  0  0  0  0  0  0  0  0  0  0
  -25.1504  -27.4542   18.0562 C   0  0  0  0  0  0  0  0  0  0  0  0
  -26.3087  -12.7196   21.2795 C   0  0  0  0  0  0  0  0  0  0  0  0
  -24.3393  -12.4185   19.9129 C   0  0  0  0  0  0  0  0  0  0  0  0
  -23.7908  -27.5107   17.7527 C   0  0  0  0  0  0  0  0  0  0  0  0
  -23.6854   -9.9963   22.1792 C   0  0  0  0  0  0  0  0  0  0  0  0
  -22.5434   -9.2423   22.4492 C   0  0  0  0  0  0  0  0  0  0  0  0
  -23.4086  -28.8271   19.7377 C   0  0  0  0  0  0  0  0  0  0  0  0
  -17.6483  -22.5471   21.1618 C   0  0  0  0  0  0  0  0  0  0  0  0
  -19.1130  -23.8176   22.6031 C   0  0  0  0  0  0  0  0  0  0  0  0
  -22.8382   -8.0508   20.3682 C   0  0  0  0  0  0  0  0  0  0  0  0
  -25.1065  -14.6450   20.4523 C   0  0  0  0  0  0  0  0  0  0  0  0
  -25.5066  -16.9215   19.3727 C   0  0  0  0  0  0  0  0  0  0  0  0
  -28.5525  -22.3259   21.6946 C   0  0  0  0  0  0  0  0  0  0  0  0
  -25.6485  -28.0756   19.2104 C   0  0  0  0  0  0  0  0  0  0  0  0
  -27.8518  -23.4666   21.2529 C   0  0  0  0  0  0  0  0  0  0  0  0
  -24.7753  -28.7792   20.0522 C   0  0  0  0  0  0  0  0  0  0  0  0
  -18.3240  -24.7796   20.5322 C   0  0  0  0  0  0  0  0  0  0  0  0
  -18.3996  -22.6499   22.3326 C   0  0  0  0  0  0  0  0  0  0  0  0
  -17.6106  -23.6120   20.2616 C   0  0  0  0  0  0  0  0  0  0  0  0
  -25.3965  -11.8771   20.6442 C   0  0  0  0  0  0  0  0  0  0  0  0
  -22.9192  -28.1947   18.5950 C   0  0  0  0  0  0  0  0  0  0  0  0
  -24.4037   -9.7777   21.0037 C   0  0  0  0  0  0  0  0  0  0  0  0
  -19.0753  -24.8825   21.7029 C   0  0  0  0  0  0  0  0  0  0  0  0
  -22.1198   -8.2695   21.5437 C   0  0  0  0  0  0  0  0  0  0  0  0
  -23.9802   -8.8049   20.0982 C   0  0  0  0  0  0  0  0  0  0  0  0
  -24.9559  -16.0746   20.3532 C   0  0  0  0  0  0  0  0  0  0  0  0
  -25.0724  -18.1772   19.7205 C   0  0  0  0  0  0  0  0  0  0  0  0
  -26.3365  -16.6016   18.2481 C   0  0  0  0  0  0  0  0  0  0  0  0
  -27.1216  -27.0698   21.8414 C   0  0  0  0  0  0  0  0  0  0  0  0
  -27.3715  -30.2468   22.4468 C   0  0  0  0  0  0  0  0  0  0  0  0
  -26.1715  -33.3988   21.9253 C   0  0  0  0  0  0  0  0  0  0  0  0
  -20.3297  -20.0078   22.7225 C   0  0  0  0  0  0  0  0  0  0  0  0
  -29.1743  -22.2583   23.0672 C   0  0  0  0  0  0  0  0  0  0  0  0
  -27.1218  -28.0281   19.5095 C   0  0  0  0  0  0  0  0  0  0  0  0
  -25.2629  -29.4804   21.2928 C   0  0  0  0  0  0  0  0  0  0  0  0
  -28.5751  -23.2672   24.0416 C   0  0  0  0  0  0  0  0  0  0  0  0
  -23.7746  -20.7696   23.5288 C   0  0  0  0  0  0  0  0  0  0  0  0
  -28.5418  -24.6484   23.4046 C   0  0  0  0  0  0  0  0  0  0  0  0
  -24.5197  -19.7201   22.7020 C   0  0  0  0  0  0  0  0  0  0  0  0
  -19.4986  -26.1909   18.6173 C   0  0  0  0  0  0  0  0  0  0  0  0
  -22.4825  -20.2015   24.1084 C   0  0  0  0  0  0  0  0  0  0  0  0
  -22.2984  -18.5723   22.2685 C   0  0  0  0  0  0  0  0  0  0  0  0
  -27.6339  -24.6579   22.1682 C   0  0  1  0  0  0  0  0  0  0  0  0
  -18.2857  -25.9510   19.5468 C   0  0  2  0  0  0  0  0  0  0  0  0
  -27.4402  -28.2613   20.9831 C   0  0  1  0  0  0  0  0  0  0  0  0
  -23.6024  -19.0917   21.6363 C   0  0  2  0  0  0  0  0  0  0  0  0
  -19.3772  -27.6882   19.0077 C   0  0  2  0  0  0  0  0  0  0  0  0
  -18.6108  -28.5197   17.9792 C   0  0  0  0  0  0  0  0  0  0  0  0
  -26.5593  -35.7885   22.5855 C   0  0  0  0  0  0  0  0  0  0  0  0
  -17.8713  -29.3307   21.2061 C   0  0  0  0  0  0  0  0  0  0  0  0
  -16.5361  -27.2043   21.4703 C   0  0  0  0  0  0  0  0  0  0  0  0
  -26.0833  -29.7040   25.1590 C   0  0  0  0  0  0  0  0  0  0  0  0
  -25.6332  -32.1588   25.3584 C   0  0  0  0  0  0  0  0  0  0  0  0
  -27.9819  -31.3310   25.2128 C   0  0  0  0  0  0  0  0  0  0  0  0
  -26.7135  -34.2046   19.1296 C   0  0  0  0  0  0  0  0  0  0  0  0
  -20.5188  -26.0359   23.2001 C   0  0  0  0  0  0  0  0  0  0  0  0
  -14.7978  -24.1514   17.9820 C   0  0  0  0  0  0  0  0  0  0  0  0
  -18.4406  -21.5114   23.2948 C   0  0  0  0  0  0  0  0  0  0  0  0
  -16.7994  -23.4804   19.0147 C   0  0  0  0  0  0  0  0  0  0  0  0
  -20.6867  -28.3438   19.4011 C   0  0  0  0  0  0  0  0  0  1  0  0
  -26.5166  -31.2710   23.1533 C   0  0  1  0  0  0  0  0  0  0  0  0
  -26.8729  -34.6981   21.5729 C   0  0  2  0  0  0  0  0  0  0  0  0
  -17.4224  -28.0328   20.5542 C   0  0  0  0  0  0  0  0  0  0  0  0
  -26.5439  -31.1014   24.6986 C   0  0  0  0  0  0  0  0  0  0  0  0
  -24.2276  -16.7365   21.2562 N   0  0  0  0  0  0  0  0  0  0  0  0
  -24.3176  -18.0126   20.8446 N   0  0  0  0  0  0  0  0  0  0  0  0
  -26.7111  -29.3998   21.5456 N   0  0  0  0  0  0  0  0  0  0  0  0
  -21.6466  -19.6357   23.0401 N   0  0  0  0  0  0  0  0  0  0  0  0
  -25.2663  -19.3951   19.1715 N   0  0  0  0  0  0  0  0  0  0  0  0
  -26.6885  -15.2615   18.0372 N   0  0  0  0  0  0  0  0  0  0  0  0
  -27.7919  -25.9180   21.4761 N   0  0  0  0  0  0  0  0  0  0  0  0
  -26.9736  -32.5757   22.6872 N   0  0  0  0  0  0  0  0  0  0  0  0
  -19.7832  -21.0174   23.5053 N   0  0  0  0  0  0  0  0  0  0  0  0
  -18.6239  -27.2367   20.2177 N   0  3  1  0  0  0  0  0  0  0  0  0
  -26.4434  -35.1699   20.2261 N   0  3  0  0  0  0  0  0  0  0  0  0
  -26.7669  -17.4803   17.4631 O   0  0  0  0  0  0  0  0  0  0  0  0
  -26.3276  -27.1872   22.7674 O   0  0  0  0  0  0  0  0  0  0  0  0
  -28.5820  -30.2047   22.6805 O   0  0  0  0  0  0  0  0  0  0  0  0
  -25.0253  -33.1413   21.5642 O   0  0  0  0  0  0  0  0  0  0  0  0
  -19.6897  -19.4826   21.8051 O   0  0  0  0  0  0  0  0  0  0  0  0
  -25.5377  -10.5265   20.7375 O   0  0  0  0  0  0  0  0  0  0  0  0
  -19.7779  -26.0157   21.9815 O   0  0  0  0  0  0  0  0  0  0  0  0
  -21.5916  -28.2509   18.3015 O   0  0  0  0  0  0  0  0  0  1  0  0
  -15.6072  -24.2438   19.1463 O   0  0  0  0  0  0  0  0  0  0  0  0
  -21.0240   -7.5444   21.8038 F   0  0  0  0  0  0  0  0  0  0  0  0
  -24.6669   -8.5894   18.9678 F   0  0  0  0  0  0  0  0  0  0  0  0
  1  2  1  0  0  0  0
  1  5  2  0  0  0  0
  2  6  2  0  0  0  0
  3  8  2  0  0  0  0
  3 17  1  0  0  0  0
  4  9  1  0  0  0  0
  4 17  2  0  0  0  0
  5 19  1  0  0  0  0
  6 21  1  0  0  0  0
  7 10  2  0  0  0  0
  7 20  1  0  0  0  0
  8 26  1  0  0  0  0
  9 26  2  0  0  0  0
 10 27  1  0  0  0  0
 11 12  2  0  0  0  0
 11 28  1  0  0  0  0
 12 30  1  0  0  0  0
 13 22  1  0  0  0  0
 13 27  2  0  0  0  0
 14 24  1  0  0  0  0
 14 25  2  0  0  0  0
 15 24  2  0  0  0  0
 15 29  1  0  0  0  0
 16 30  2  0  0  0  0
 16 31  1  0  0  0  0
 17 32  1  0  0  0  0
 18 32  1  0  0  0  0
 18 33  2  0  0  0  0
 18 34  1  0  0  0  0
 19 21  2  0  0  0  0
 19 39  1  0  0  0  0
 20 22  2  0  0  0  0
 20 40  1  0  0  0  0
 21 49  1  0  0  0  0
 22 41  1  0  0  0  0
 23 25  1  0  0  0  0
 23 29  2  0  0  0  0
 23 50  1  0  0  0  0
 24 64  1  0  0  0  0
 25 65  1  0  0  0  0
 26 87  1  0  0  0  0
 27 89  1  0  0  0  0
 28 31  2  0  0  0  0
 28 87  1  0  0  0  0
 29 88  1  0  0  0  0
 30 91  1  0  0  0  0
 31 92  1  0  0  0  0
 32 71  2  0  0  0  0
 33 72  1  0  0  0  0
 33 75  1  0  0  0  0
 34 76  1  0  0  0  0
 34 82  2  0  0  0  0
 35 51  1  0  0  0  0
 35 77  1  0  0  0  0
 35 83  2  0  0  0  0
 36 67  1  0  0  0  0
 36 73  1  0  0  0  0
 36 84  2  0  0  0  0
 37 68  1  0  0  0  0
 37 78  1  0  0  0  0
 37 85  2  0  0  0  0
 38 74  1  0  0  0  0
 38 79  1  0  0  0  0
 38 86  2  0  0  0  0
 39 42  1  0  0  0  0
 40 51  1  0  0  0  0
 41 73  1  0  0  0  0
 42 44  1  0  0  0  0
 43 45  1  0  0  0  0
 43 47  1  0  0  0  0
 44 49  1  0  0  0  0
 45 52  1  0  0  0  0
 46 50  1  0  0  0  0
 46 53  1  0  0  0  0
 47 74  1  0  0  0  0
 48 52  1  0  0  0  0
 48 74  1  0  0  0  0
 49 77  1  0  0  0  0
 50 80  1  0  0  0  0
 51 73  1  0  0  0  0
 52 72  1  0  0  0  0
 53 54  1  0  0  0  0
 53 66  1  0  0  0  0
 53 80  1  0  0  0  0
 55 68  1  0  0  0  0
 56 69  1  0  0  0  0
 57 69  1  0  0  0  0
 58 70  1  0  0  0  0
 59 70  1  0  0  0  0
 60 70  1  0  0  0  0
 61 81  1  0  0  0  0
 62 88  1  0  0  0  0
 63 90  1  0  0  0  0
 64 79  1  0  0  0  0
 65 90  1  0  0  0  0
 66 89  1  0  0  0  0
 67 70  1  0  0  0  0
 67 78  1  0  0  0  0
 68 81  1  0  0  0  0
 69 80  1  0  0  0  0
 71 72  1  0  0  0  0
M  CHG  2  80   1  81   1
M  ISO  4  38 100  66 101  79 100  89 101
M  END
> <Batch ID>
0150

> <Smiles>
CNC(C)C(=O)NC(C(=O)N1Cc2cc([101O:1][101CH2:1]C3(C)CC(c4c(COC)cc(C[100NH:0][100C:0](=O)N5CCCC(n6nc(-c7ccc(Oc8ccc(F)cc8F)cc7)c(C(N)=O)c6N)C5)cc4OC)N3C(C)C)ccc2CC1C(=O)NC1CCCc2ccccc21)C(C)(C)C

> <Shape>
0.213

> <Color>
0.061

> <Negative vol penalty>
0.000

$$$$

  -OEChem-04052321413D

 87 95  0     1  0  0  0  0  0999 V2000
  -28.9321  -11.3275   18.7217 C   0  0  0  0  0  0  0  0  0  0  0  0
  -27.9909  -12.3488   18.6418 C   0  0  0  0  0  0  0  0  0  0  0  0
  -25.6154  -30.1486   20.3025 C   0  0  0  0  0  0  0  0  0  0  0  0
  -23.6273  -29.0163   21.0783 C   0  0  0  0  0  0  0  0  0  0  0  0
  -30.0481  -11.4725   19.5448 C   0  0  0  0  0  0  0  0  0  0  0  0
  -28.1645  -13.5153   19.3859 C   0  0  0  0  0  0  0  0  0  0  0  0
  -27.2425  -17.6981   16.6843 C   0  0  0  0  0  0  0  0  0  0  0  0
  -25.4369  -31.1301   21.2773 C   0  0  0  0  0  0  0  0  0  0  0  0
  -23.4487  -29.9977   22.0533 C   0  0  0  0  0  0  0  0  0  0  0  0
  -25.9070  -18.0392   16.4747 C   0  0  0  0  0  0  0  0  0  0  0  0
  -25.7064  -33.7391   23.7945 C   0  0  0  0  0  0  0  0  0  0  0  0
  -26.8256  -34.1394   24.5242 C   0  0  0  0  0  0  0  0  0  0  0  0
  -26.0495  -19.6644   18.2516 C   0  0  0  0  0  0  0  0  0  0  0  0
  -21.0127  -19.3761   15.6256 C   0  0  0  0  0  0  0  0  0  0  0  0
  -20.1749  -21.3151   14.4528 C   0  0  0  0  0  0  0  0  0  0  0  0
  -27.1124  -31.8781   25.3250 C   0  0  0  0  0  0  0  0  0  0  0  0
  -24.7106  -29.0917   20.2029 C   0  0  0  0  0  0  0  0  0  0  0  0
  -25.6238  -26.8802   19.3182 C   0  0  0  0  0  0  0  0  0  0  0  0
  -30.2405  -12.6453   20.2919 C   0  0  0  0  0  0  0  0  0  0  0  0
  -27.9897  -18.3310   17.6881 C   0  0  0  0  0  0  0  0  0  0  0  0
  -29.2834  -13.6755   20.2207 C   0  0  0  0  0  0  0  0  0  0  0  0
  -27.3950  -19.3313   18.4703 C   0  0  0  0  0  0  0  0  0  0  0  0
  -21.2206  -20.1545   16.7642 C   0  0  0  0  0  0  0  0  0  0  0  0
  -20.9055  -21.5132   16.7471 C   0  0  0  0  0  0  0  0  0  0  0  0
  -24.3535  -31.0547   22.1528 C   0  0  0  0  0  0  0  0  0  0  0  0
  -25.3095  -19.0204   17.2603 C   0  0  0  0  0  0  0  0  0  0  0  0
  -25.2901  -32.4082   23.8300 C   0  0  0  0  0  0  0  0  0  0  0  0
  -20.4899  -19.9564   14.4698 C   0  0  0  0  0  0  0  0  0  0  0  0
  -20.3827  -22.0935   15.5914 C   0  0  0  0  0  0  0  0  0  0  0  0
  -27.5286  -33.2090   25.2895 C   0  0  0  0  0  0  0  0  0  0  0  0
  -25.9931  -31.4777   24.5953 C   0  0  0  0  0  0  0  0  0  0  0  0
  -24.8941  -28.0778   19.1957 C   0  0  0  0  0  0  0  0  0  0  0  0
  -25.4920  -26.2712   18.0942 C   0  0  0  0  0  0  0  0  0  0  0  0
  -26.3553  -26.3643   20.4382 C   0  0  0  0  0  0  0  0  0  0  0  0
  -29.4681  -17.3642   20.3307 C   0  0  0  0  0  0  0  0  0  0  0  0
  -30.4983  -20.4390   20.4122 C   0  0  0  0  0  0  0  0  0  0  0  0
  -29.9989  -23.6872   19.4920 C   0  0  0  0  0  0  0  0  0  0  0  0
  -21.3533  -26.6362   13.7828 C   0  0  0  0  0  0  0  0  0  0  0  0
  -31.4382  -12.7367   21.2040 C   0  0  0  0  0  0  0  0  0  0  0  0
  -29.4368  -17.9705   17.8838 C   0  0  0  0  0  0  0  0  0  0  0  0
  -28.1595  -20.0550   19.5474 C   0  0  0  0  0  0  0  0  0  0  0  0
  -31.7402  -14.1580   21.6720 C   0  0  0  0  0  0  0  0  0  0  0  0
  -24.8409  -27.2768   13.4622 C   0  0  0  0  0  0  0  0  0  0  0  0
  -30.4629  -14.8493   22.1383 C   0  0  0  0  0  0  0  0  0  0  0  0
  -25.3159  -27.4466   14.9063 C   0  0  0  0  0  0  0  0  0  0  0  0
  -23.4434  -27.8568   13.2558 C   0  0  0  0  0  0  0  0  0  0  0  0
  -22.8948  -27.5241   15.6353 C   0  0  0  0  0  0  0  0  0  0  0  0
  -29.4494  -14.9661   20.9934 C   0  0  1  0  0  0  0  0  0  0  0  0
  -29.9558  -18.3167   19.2759 C   0  0  1  0  0  0  0  0  0  0  0  0
  -24.2766  -26.9044   15.9058 C   0  0  2  0  0  0  0  0  0  0  0  0
  -19.8587  -23.0261   18.5033 C   0  0  0  0  0  0  0  0  0  0  0  0
  -30.9891  -25.9796   19.7406 C   0  0  0  0  0  0  0  0  0  0  0  0
  -29.4183  -20.5939   23.2617 C   0  0  0  0  0  0  0  0  0  0  0  0
  -29.5631  -23.0885   23.1066 C   0  0  0  0  0  0  0  0  0  0  0  0
  -31.6321  -21.7071   22.9231 C   0  0  0  0  0  0  0  0  0  0  0  0
  -30.4075  -23.9538   16.5730 C   0  0  0  0  0  0  0  0  0  0  0  0
  -19.7492  -19.8539   12.2123 C   0  0  0  0  0  0  0  0  0  0  0  0
  -21.7879  -19.5027   18.0018 C   0  0  0  0  0  0  0  0  0  0  0  0
  -19.3013  -25.4203   14.4685 C   0  0  0  0  0  0  0  0  0  0  0  0
  -23.2691  -19.8106   18.1921 C   0  0  0  0  0  0  0  0  0  1  0  0
  -19.5399  -23.9271   14.3331 C   0  0  0  0  0  0  0  0  0  0  0  0
  -21.1254  -22.3524   17.9651 C   0  0  2  0  0  0  0  0  0  0  0  0
  -29.9798  -21.7248   21.0096 C   0  0  1  0  0  0  0  0  0  0  0  0
  -30.9359  -24.7194   18.8911 C   0  0  2  0  0  0  0  0  0  0  0  0
  -30.1331  -21.7637   22.5563 C   0  0  0  0  0  0  0  0  0  0  0  0
  -24.3400  -28.2229   17.9891 N   0  0  0  0  0  0  0  0  0  0  0  0
  -24.7217  -27.1086   17.3422 N   0  0  0  0  0  0  0  0  0  0  0  0
  -29.5697  -19.6626   19.7045 N   0  0  0  0  0  0  0  0  0  0  0  0
  -22.5056  -27.3008   14.2341 N   0  0  0  0  0  0  0  0  0  0  0  0
  -25.9612  -25.1064   17.5985 N   0  0  0  0  0  0  0  0  0  0  0  0
  -26.3879  -27.1181   21.6194 N   0  0  0  0  0  0  0  0  0  0  0  0
  -29.8154  -16.0463   20.1027 N   0  0  0  0  0  0  0  0  0  0  0  0
  -30.6693  -22.8056   20.3134 N   0  0  0  0  0  0  0  0  0  0  0  0
  -20.5209  -26.1338   14.7755 N   0  0  0  0  0  0  0  0  0  0  0  0
  -30.4834  -25.0946   17.5216 N   0  3  0  0  0  0  0  0  0  0  0  0
  -26.9757  -25.2753   20.3876 O   0  0  0  0  0  0  0  0  0  0  0  0
  -28.8255  -17.7934   21.2818 O   0  0  0  0  0  0  0  0  0  0  0  0
  -31.6852  -20.1382   20.5616 O   0  0  0  0  0  0  0  0  0  0  0  0
  -28.7922  -23.6674   19.2593 O   0  0  0  0  0  0  0  0  0  0  0  0
  -21.0887  -26.4961   12.5839 O   0  0  0  0  0  0  0  0  0  0  0  0
  -24.1791  -32.0121   23.1043 O   0  0  0  0  0  0  0  0  0  0  0  0
  -20.2864  -19.1966   13.3590 O   0  0  0  0  0  0  0  0  0  0  0  0
  -24.0060  -19.3548   17.0582 O   0  0  0  0  0  0  0  0  0  1  0  0
  -20.0690  -23.4191   15.5560 O   0  0  0  0  0  0  0  0  0  0  0  0
  -28.6043  -33.5933   25.9890 F   0  0  0  0  0  0  0  0  0  0  0  0
  -25.5987  -30.1976   24.6324 F   0  0  0  0  0  0  0  0  0  0  0  0
  -22.3685  -23.6037   17.6350 Cl  0  0  0  0  0  0  0  0  0  0  0  0
  1  2  1  0  0  0  0
  1  5  2  0  0  0  0
  2  6  2  0  0  0  0
  3  8  2  0  0  0  0
  3 17  1  0  0  0  0
  4  9  1  0  0  0  0
  4 17  2  0  0  0  0
  5 19  1  0  0  0  0
  6 21  1  0  0  0  0
  7 10  2  0  0  0  0
  7 20  1  0  0  0  0
  8 25  1  0  0  0  0
  9 25  2  0  0  0  0
 10 26  1  0  0  0  0
 11 12  2  0  0  0  0
 11 27  1  0  0  0  0
 12 30  1  0  0  0  0
 13 22  1  0  0  0  0
 13 26  2  0  0  0  0
 14 23  1  0  0  0  0
 14 28  2  0  0  0  0
 15 28  1  0  0  0  0
 15 29  2  0  0  0  0
 16 30  2  0  0  0  0
 16 31  1  0  0  0  0
 17 32  1  0  0  0  0
 18 32  1  0  0  0  0
 18 33  2  0  0  0  0
 18 34  1  0  0  0  0
 19 21  2  0  0  0  0
 19 39  1  0  0  0  0
 20 22  2  0  0  0  0
 20 40  1  0  0  0  0
 21 48  1  0  0  0  0
 22 41  1  0  0  0  0
 23 24  2  0  0  0  0
 23 58  1  0  0  0  0
 24 29  1  0  0  0  0
 24 62  1  0  0  0  0
 25 81  1  0  0  0  0
 26 83  1  0  0  0  0
 27 31  2  0  0  0  0
 27 81  1  0  0  0  0
 28 82  1  0  0  0  0
 29 84  1  0  0  0  0
 30 85  1  0  0  0  0
 31 86  1  0  0  0  0
 32 66  2  0  0  0  0
 33 67  1  0  0  0  0
 33 70  1  0  0  0  0
 34 71  1  0  0  0  0
 34 76  2  0  0  0  0
 35 49  1  0  0  0  0
 35 72  1  0  0  0  0
 35 77  2  0  0  0  0
 36 63  1  0  0  0  0
 36 68  1  0  0  0  0
 36 78  2  0  0  0  0
 37 64  1  0  0  0  0
 37 73  1  0  0  0  0
 37 79  2  0  0  0  0
 38 69  1  0  0  0  0
 38 74  1  0  0  0  0
 38 80  2  0  0  0  0
 39 42  1  0  0  0  0
 40 49  1  0  0  0  0
 41 68  1  0  0  0  0
 42 44  1  0  0  0  0
 43 45  1  0  0  0  0
 43 46  1  0  0  0  0
 44 48  1  0  0  0  0
 45 50  1  0  0  0  0
 46 69  1  0  0  0  0
 47 50  1  0  0  0  0
 47 69  1  0  0  0  0
 48 72  1  0  0  0  0
 49 68  1  0  0  0  0
 50 67  1  0  0  0  0
 51 62  1  0  0  0  0
 52 64  1  0  0  0  0
 53 65  1  0  0  0  0
 54 65  1  0  0  0  0
 55 65  1  0  0  0  0
 56 75  1  0  0  0  0
 57 82  1  0  0  0  0
 58 60  1  0  0  0  0
 59 61  1  0  0  0  0
 59 74  1  0  0  0  0
 60 83  1  0  0  0  0
 61 84  1  0  0  0  0
 62 87  1  0  0  0  0
 63 65  1  0  0  0  0
 63 73  1  0  0  0  0
 64 75  1  0  0  0  0
 66 67  1  0  0  0  0
M  CHG  1  75   1
M  ISO  4  38 100  60 101  74 100  83 101
M  END
> <Batch ID>
0150

> <Smiles>
CNC(C)C(=O)NC(C(=O)N1Cc2cc([101O:1][101CH2:1]Cc3cc(OC)cc(OCC[100NH:0][100C:0](=O)N4CCCC(n5nc(-c6ccc(Oc7ccc(F)cc7F)cc6)c(C(N)=O)c5N)C4)c3C(C)Cl)ccc2CC1C(=O)NC1CCCc2ccccc21)C(C)(C)C

> <Shape>
0.252

> <Color>
0.053

> <Negative vol penalty>
0.000

$$$$

  -OEChem-04052321413D

 84 93  0     1  0  0  0  0  0999 V2000
  -18.9571  -32.0923   16.4728 C   0  0  0  0  0  0  0  0  0  0  0  0
  -19.5350  -30.8598   16.7594 C   0  0  0  0  0  0  0  0  0  0  0  0
  -23.3067   -9.2390   20.5817 C   0  0  0  0  0  0  0  0  0  0  0  0
  -23.2529  -10.7371   22.4764 C   0  0  0  0  0  0  0  0  0  0  0  0
  -19.5937  -33.2682   16.8676 C   0  0  0  0  0  0  0  0  0  0  0  0
  -20.7507  -30.8024   17.4401 C   0  0  0  0  0  0  0  0  0  0  0  0
  -22.5116  -26.5483   21.4784 C   0  0  0  0  0  0  0  0  0  0  0  0
  -22.5196   -8.3249   21.2820 C   0  0  0  0  0  0  0  0  0  0  0  0
  -22.4657   -9.8230   23.1768 C   0  0  0  0  0  0  0  0  0  0  0  0
  -23.3142  -25.4148   21.3568 C   0  0  0  0  0  0  0  0  0  0  0  0
  -22.9538   -6.0030   23.6996 C   0  0  0  0  0  0  0  0  0  0  0  0
  -23.3296   -4.6604   23.6587 C   0  0  0  0  0  0  0  0  0  0  0  0
  -28.2992  -20.8064   19.6156 C   0  0  0  0  0  0  0  0  0  0  0  0
  -25.2119  -26.6821   22.1390 C   0  0  0  0  0  0  0  0  0  0  0  0
  -27.7457  -19.8734   21.7926 C   0  0  0  0  0  0  0  0  0  0  0  0
  -21.2017   -4.0952   22.6637 C   0  0  0  0  0  0  0  0  0  0  0  0
  -23.6735  -10.4451   21.1789 C   0  0  0  0  0  0  0  0  0  0  0  0
  -24.0413  -12.4309   19.6204 C   0  0  0  0  0  0  0  0  0  0  0  0
  -20.8130  -33.2249   17.5620 C   0  0  0  0  0  0  0  0  0  0  0  0
  -23.0564  -27.7621   21.9216 C   0  0  0  0  0  0  0  0  0  0  0  0
  -21.4049  -31.9788   17.8434 C   0  0  0  0  0  0  0  0  0  0  0  0
  -29.0038  -19.6469   19.3373 C   0  0  0  0  0  0  0  0  0  0  0  0
  -24.4135  -27.8289   22.2678 C   0  0  0  0  0  0  0  0  0  0  0  0
  -29.0872  -18.6063   20.2726 C   0  0  0  0  0  0  0  0  0  0  0  0
  -28.4693  -18.7128   21.5088 C   0  0  0  0  0  0  0  0  0  0  0  0
  -22.0991   -8.6169   22.5795 C   0  0  0  0  0  0  0  0  0  0  0  0
  -24.6652  -25.4823   21.6844 C   0  0  0  0  0  0  0  0  0  0  0  0
  -21.7020   -6.3918   23.2226 C   0  0  0  0  0  0  0  0  0  0  0  0
  -27.6607  -20.9123   20.8526 C   0  0  0  0  0  0  0  0  0  0  0  0
  -22.4535   -3.7065   23.1408 C   0  0  0  0  0  0  0  0  0  0  0  0
  -20.8260   -5.4379   22.7046 C   0  0  0  0  0  0  0  0  0  0  0  0
  -24.4870  -11.3895   20.4562 C   0  0  0  0  0  0  0  0  0  0  0  0
  -25.1936  -13.0332   19.1780 C   0  0  0  0  0  0  0  0  0  0  0  0
  -22.7050  -12.8191   19.2750 C   0  0  0  0  0  0  0  0  0  0  0  0
  -23.3978  -30.6603   20.6617 C   0  0  0  0  0  0  0  0  0  0  0  0
  -24.4650  -31.4008   23.6341 C   0  0  0  0  0  0  0  0  0  0  0  0
  -25.8531  -30.3335   26.5634 C   0  0  0  0  0  0  0  0  0  0  0  0
  -30.2983  -15.0724   20.1417 C   0  0  0  0  0  0  0  0  0  0  0  0
  -21.4872  -34.5239   17.9267 C   0  0  0  0  0  0  0  0  0  0  0  0
  -22.1714  -28.9689   22.0727 C   0  0  0  0  0  0  0  0  0  0  0  0
  -29.7952  -19.3274   18.1076 C   0  0  0  0  0  0  0  0  0  0  0  0
  -25.0426  -29.1028   22.7677 C   0  0  0  0  0  0  0  0  0  0  0  0
  -22.5869  -34.3664   18.9736 C   0  0  0  0  0  0  0  0  0  0  0  0
  -29.9422  -17.8034   18.2371 C   0  0  0  0  0  0  0  0  0  0  0  0
  -30.0225  -11.5729   19.5468 C   0  0  0  0  0  0  0  0  0  0  0  0
  -23.4949  -33.1922   18.6216 C   0  0  0  0  0  0  0  0  0  0  0  0
  -28.5225  -11.2985   19.6676 C   0  0  0  0  0  0  0  0  0  0  0  0
  -30.4839  -12.6349   20.5424 C   0  0  0  0  0  0  0  0  0  0  0  0
  -28.2287  -13.6263   20.6128 C   0  0  0  0  0  0  0  0  0  0  0  0
  -22.7104  -31.8748   18.6018 C   0  0  1  0  0  0  0  0  0  0  0  0
  -29.9500  -17.4975   19.7459 C   0  0  2  0  0  0  0  0  0  0  0  0
  -22.9442  -30.2839   22.0438 C   0  0  1  0  0  0  0  0  0  0  0  0
  -27.7059  -12.6025   19.5907 C   0  0  2  0  0  0  0  0  0  0  0  0
  -28.5714  -17.6451   22.5425 C   0  0  0  0  0  0  0  0  0  0  0  0
  -26.6423  -31.1762   28.7915 C   0  0  0  0  0  0  0  0  0  0  0  0
  -26.9755  -32.5277   22.3160 C   0  0  0  0  0  0  0  0  0  0  0  0
  -28.0930  -32.4700   24.5556 C   0  0  0  0  0  0  0  0  0  0  0  0
  -26.0816  -33.9029   24.2039 C   0  0  0  0  0  0  0  0  0  0  0  0
  -23.8990  -28.6550   28.0206 C   0  0  0  0  0  0  0  0  0  0  0  0
  -25.0967  -23.4337   20.5561 C   0  0  0  0  0  0  0  0  0  1  0  0
  -26.3516  -22.7362   20.0681 C   0  0  0  0  0  0  0  0  0  0  0  0
  -25.8097  -31.3920   24.3202 C   0  0  1  0  0  0  0  0  0  0  0  0
  -25.4750  -30.5928   28.0106 C   0  0  2  0  0  0  0  0  0  0  0  0
  -26.7289  -32.5495   23.8377 C   0  0  0  0  0  0  0  0  0  0  0  0
  -25.8187  -11.3306   20.5412 N   0  0  0  0  0  0  0  0  0  0  0  0
  -26.2196  -12.3426   19.7530 N   0  0  0  0  0  0  0  0  0  0  0  0
  -24.1373  -30.2571   22.8923 N   0  0  0  0  0  0  0  0  0  0  0  0
  -29.6702  -13.8465   20.4167 N   0  0  0  0  0  0  0  0  0  0  0  0
  -25.4192  -14.0808   18.3570 N   0  0  0  0  0  0  0  0  0  0  0  0
  -21.6366  -12.0926   19.8181 N   0  0  0  0  0  0  0  0  0  0  0  0
  -22.4766  -31.4055   19.9507 N   0  0  0  0  0  0  0  0  0  0  0  0
  -25.5368  -31.4035   25.7533 N   0  0  0  0  0  0  0  0  0  0  0  0
  -29.4534  -16.1701   20.0322 N   0  0  0  0  0  0  0  0  0  0  0  0
  -25.0544  -29.3249   28.6713 N   0  3  0  0  0  0  0  0  0  0  0  0
  -22.4659  -13.7715   18.4944 O   0  0  0  0  0  0  0  0  0  0  0  0
  -24.5025  -30.3026   20.2700 O   0  0  0  0  0  0  0  0  0  0  0  0
  -23.7295  -32.3833   23.7578 O   0  0  0  0  0  0  0  0  0  0  0  0
  -26.3799  -29.2878   26.1897 O   0  0  0  0  0  0  0  0  0  0  0  0
  -31.5210  -15.1798   19.9987 O   0  0  0  0  0  0  0  0  0  0  0  0
  -21.3308   -7.7253   23.2631 O   0  0  0  0  0  0  0  0  0  0  0  0
  -25.4510  -24.3776   21.5661 O   0  0  0  0  0  0  0  0  0  1  0  0
  -26.9519  -22.0447   21.1566 O   0  0  0  0  0  0  0  0  0  0  0  0
  -22.8151   -2.4173   23.1002 F   0  0  0  0  0  0  0  0  0  0  0  0
  -19.6225   -5.8055   22.2438 F   0  0  0  0  0  0  0  0  0  0  0  0
  1  2  1  0  0  0  0
  1  5  2  0  0  0  0
  2  6  2  0  0  0  0
  3  8  2  0  0  0  0
  3 17  1  0  0  0  0
  4  9  1  0  0  0  0
  4 17  2  0  0  0  0
  5 19  1  0  0  0  0
  6 21  1  0  0  0  0
  7 10  2  0  0  0  0
  7 20  1  0  0  0  0
  8 26  1  0  0  0  0
  9 26  2  0  0  0  0
 10 27  1  0  0  0  0
 11 12  2  0  0  0  0
 11 28  1  0  0  0  0
 12 30  1  0  0  0  0
 13 22  1  0  0  0  0
 13 29  2  0  0  0  0
 14 23  1  0  0  0  0
 14 27  2  0  0  0  0
 15 25  2  0  0  0  0
 15 29  1  0  0  0  0
 16 30  2  0  0  0  0
 16 31  1  0  0  0  0
 17 32  1  0  0  0  0
 18 32  1  0  0  0  0
 18 33  2  0  0  0  0
 18 34  1  0  0  0  0
 19 21  2  0  0  0  0
 19 39  1  0  0  0  0
 20 23  2  0  0  0  0
 20 40  1  0  0  0  0
 21 50  1  0  0  0  0
 22 24  2  0  0  0  0
 22 41  1  0  0  0  0
 23 42  1  0  0  0  0
 24 25  1  0  0  0  0
 24 51  1  0  0  0  0
 25 54  1  0  0  0  0
 26 80  1  0  0  0  0
 27 81  1  0  0  0  0
 28 31  2  0  0  0  0
 28 80  1  0  0  0  0
 29 82  1  0  0  0  0
 30 83  1  0  0  0  0
 31 84  1  0  0  0  0
 32 65  2  0  0  0  0
 33 66  1  0  0  0  0
 33 69  1  0  0  0  0
 34 70  1  0  0  0  0
 34 75  2  0  0  0  0
 35 52  1  0  0  0  0
 35 71  1  0  0  0  0
 35 76  2  0  0  0  0
 36 62  1  0  0  0  0
 36 67  1  0  0  0  0
 36 77  2  0  0  0  0
 37 63  1  0  0  0  0
 37 72  1  0  0  0  0
 37 78  2  0  0  0  0
 38 68  1  0  0  0  0
 38 73  1  0  0  0  0
 38 79  2  0  0  0  0
 39 43  1  0  0  0  0
 40 52  1  0  0  0  0
 41 44  1  0  0  0  0
 42 67  1  0  0  0  0
 43 46  1  0  0  0  0
 44 51  1  0  0  0  0
 45 47  1  0  0  0  0
 45 48  1  0  0  0  0
 46 50  1  0  0  0  0
 47 53  1  0  0  0  0
 48 68  1  0  0  0  0
 49 53  1  0  0  0  0
 49 68  1  0  0  0  0
 50 71  1  0  0  0  0
 51 73  1  0  0  0  0
 52 67  1  0  0  0  0
 53 66  1  0  0  0  0
 55 63  1  0  0  0  0
 56 64  1  0  0  0  0
 57 64  1  0  0  0  0
 58 64  1  0  0  0  0
 59 74  1  0  0  0  0
 60 61  1  0  0  0  0
 60 81  1  0  0  0  0
 61 82  1  0  0  0  0
 62 64  1  0  0  0  0
 62 72  1  0  0  0  0
 63 74  1  0  0  0  0
 65 66  1  0  0  0  0
M  CHG  1  74   1
M  ISO  4  38 100  60 101  73 100  81 101
M  END
> <Batch ID>
0150

> <Smiles>
CNC(C)C(=O)NC(C(=O)N1Cc2cc([101O:1][101CH2:1]COc3cc(C)c4c(c3)CCC4[100NH:0][100C:0](=O)N3CCCC(n4nc(-c5ccc(Oc6ccc(F)cc6F)cc5)c(C(N)=O)c4N)C3)ccc2CC1C(=O)NC1CCCc2ccccc21)C(C)(C)C

> <Shape>
0.285

> <Color>
0.097

> <Negative vol penalty>
0.000

$$$$

  -OEChem-04052321413D

 88 98  0     1  0  0  0  0  0999 V2000
  -30.0553  -36.8486   21.4904 C   0  0  0  0  0  0  0  0  0  0  0  0
  -29.9990  -35.7523   20.6358 C   0  0  0  0  0  0  0  0  0  0  0  0
  -24.6824   -8.4595   21.3235 C   0  0  0  0  0  0  0  0  0  0  0  0
  -23.2286  -10.3705   21.5911 C   0  0  0  0  0  0  0  0  0  0  0  0
  -29.6373  -36.7211   22.8144 C   0  0  0  0  0  0  0  0  0  0  0  0
  -29.5255  -34.5275   21.1051 C   0  0  0  0  0  0  0  0  0  0  0  0
  -25.9215  -28.7313   18.9299 C   0  0  0  0  0  0  0  0  0  0  0  0
  -23.9642   -7.7757   22.3044 C   0  0  0  0  0  0  0  0  0  0  0  0
  -22.5103   -9.6867   22.5720 C   0  0  0  0  0  0  0  0  0  0  0  0
  -26.0271  -27.3412   18.9119 C   0  0  0  0  0  0  0  0  0  0  0  0
  -21.0431   -6.0880   22.5313 C   0  0  0  0  0  0  0  0  0  0  0  0
  -20.6998   -4.7604   22.2762 C   0  0  0  0  0  0  0  0  0  0  0  0
  -25.2667  -22.3993   18.3672 C   0  0  0  0  0  0  0  0  0  0  0  0
  -25.2576  -27.2592   21.1967 C   0  0  0  0  0  0  0  0  0  0  0  0
  -27.2604  -21.1404   19.8582 C   0  0  0  0  0  0  0  0  0  0  0  0
  -21.9456   -4.0638   24.2256 C   0  0  0  0  0  0  0  0  0  0  0  0
  -24.3146   -9.7569   20.9668 C   0  0  0  0  0  0  0  0  0  0  0  0
  -24.8094  -10.4703   18.5681 C   0  0  0  0  0  0  0  0  0  0  0  0
  -29.1494  -35.4967   23.2975 C   0  0  0  0  0  0  0  0  0  0  0  0
  -25.4928  -29.3976   20.0869 C   0  0  0  0  0  0  0  0  0  0  0  0
  -29.1018  -34.3832   22.4371 C   0  0  0  0  0  0  0  0  0  0  0  0
  -25.2647  -21.0111   18.5025 C   0  0  0  0  0  0  0  0  0  0  0  0
  -25.1449  -28.6576   21.2260 C   0  0  0  0  0  0  0  0  0  0  0  0
  -26.2616  -20.3816   19.2480 C   0  0  0  0  0  0  0  0  0  0  0  0
  -26.2655  -23.1582   18.9774 C   0  0  0  0  0  0  0  0  0  0  0  0
  -22.8782   -8.3893   22.9287 C   0  0  0  0  0  0  0  0  0  0  0  0
  -25.6979  -26.6052   20.0464 C   0  0  0  0  0  0  0  0  0  0  0  0
  -21.8377   -6.4036   23.6334 C   0  0  0  0  0  0  0  0  0  0  0  0
  -27.2623  -22.5287   19.7229 C   0  0  0  0  0  0  0  0  0  0  0  0
  -21.1510   -3.7482   23.1234 C   0  0  0  0  0  0  0  0  0  0  0  0
  -22.2889   -5.3915   24.4806 C   0  0  0  0  0  0  0  0  0  0  0  0
  -25.0565  -10.4640   19.9540 C   0  0  0  0  0  0  0  0  0  0  0  0
  -25.7849  -11.2862   18.0492 C   0  0  0  0  0  0  0  0  0  0  0  0
  -23.7893   -9.7988   17.8170 C   0  0  0  0  0  0  0  0  0  0  0  0
  -26.7887  -31.5266   22.0597 C   0  0  0  0  0  0  0  0  0  0  0  0
  -23.8240  -31.5318   23.3760 C   0  0  0  0  0  0  0  0  0  0  0  0
  -20.8788  -29.8857   23.8886 C   0  0  0  0  0  0  0  0  0  0  0  0
  -28.7340  -16.0823   19.3829 C   0  0  0  0  0  0  0  0  0  0  0  0
  -28.7533  -35.3950   24.7492 C   0  0  0  0  0  0  0  0  0  0  0  0
  -25.3587  -30.8958   20.0815 C   0  0  0  0  0  0  0  0  0  0  0  0
  -24.6601  -29.3237   22.4868 C   0  0  0  0  0  0  0  0  0  0  0  0
  -27.9133  -34.1604   25.0663 C   0  0  0  0  0  0  0  0  0  0  0  0
  -30.1952  -12.8706   19.5630 C   0  0  0  0  0  0  0  0  0  0  0  0
  -24.4411  -19.6343   16.4776 C   0  0  0  0  0  0  0  0  0  0  0  0
  -23.4987  -20.7872   16.6292 C   0  0  0  0  0  0  0  0  0  0  0  0
  -28.5287  -32.9182   24.4299 C   0  0  0  0  0  0  0  0  0  0  0  0
  -29.0045  -11.9161   19.5836 C   0  0  0  0  0  0  0  0  0  0  0  0
  -26.2368  -18.3346   20.8476 C   0  0  0  0  0  0  0  0  0  0  0  0
  -29.8913  -14.1317   20.3606 C   0  0  0  0  0  0  0  0  0  0  0  0
  -26.6764  -16.8862   20.6808 C   0  0  0  0  0  0  0  0  0  0  0  0
  -27.5481  -18.1955   18.8730 C   0  0  0  0  0  0  0  0  0  0  0  0
  -27.4696  -13.9303   19.8659 C   0  0  0  0  0  0  0  0  0  0  0  0
  -24.1863  -20.2183   17.8417 C   0  0  0  0  0  0  0  0  0  0  0  0
  -26.2821  -18.8777   19.4101 C   0  0  2  0  0  0  0  0  0  0  0  0
  -28.5711  -33.0445   22.9022 C   0  0  1  0  0  0  0  0  0  0  0  0
  -25.4028  -31.5046   21.4797 C   0  0  1  0  0  0  0  0  0  0  0  0
  -27.7339  -12.6243   19.0885 C   0  0  2  0  0  0  0  0  0  0  0  0
  -28.9049  -24.4518   22.2909 C   0  0  0  0  0  0  0  0  0  0  0  0
  -18.6601  -30.1286   25.0358 C   0  0  0  0  0  0  0  0  0  0  0  0
  -25.1517  -30.9521   26.0614 C   0  0  0  0  0  0  0  0  0  0  0  0
  -22.9094  -30.2738   26.9447 C   0  0  0  0  0  0  0  0  0  0  0  0
  -23.2831  -32.6114   26.1581 C   0  0  0  0  0  0  0  0  0  0  0  0
  -19.4041  -29.6938   21.3299 C   0  0  0  0  0  0  0  0  0  0  0  0
  -26.2522  -24.6432   18.8218 C   0  0  0  0  0  0  0  0  0  1  0  0
  -28.3482  -23.1546   21.7439 C   0  0  0  0  0  0  0  0  0  0  0  0
  -23.1353  -30.7418   24.4626 C   0  0  1  0  0  0  0  0  0  0  0  0
  -19.4357  -30.3342   23.7439 C   0  0  2  0  0  0  0  0  0  0  0  0
  -23.6308  -31.1321   25.8837 C   0  0  0  0  0  0  0  0  0  0  0  0
  -26.1067  -11.2160   20.2940 N   0  0  0  0  0  0  0  0  0  0  0  0
  -26.5282  -11.7024   19.1143 N   0  0  0  0  0  0  0  0  0  0  0  0
  -24.5518  -30.7910   22.4340 N   0  0  0  0  0  0  0  0  0  0  0  0
  -28.6641  -14.7840   19.9001 N   0  0  0  0  0  0  0  0  0  0  0  0
  -27.6403  -16.9238   19.5830 N   0  0  0  0  0  0  0  0  0  0  0  0
  -26.0708  -11.6809   16.7903 N   0  0  0  0  0  0  0  0  0  0  0  0
  -22.8677   -9.0000   18.5075 N   0  0  0  0  0  0  0  0  0  0  0  0
  -27.2621  -32.7947   22.3379 N   0  0  0  0  0  0  0  0  0  0  0  0
  -21.7030  -30.9279   24.2572 N   0  0  0  0  0  0  0  0  0  0  0  0
  -18.7598  -29.5636   22.6622 N   0  3  0  0  0  0  0  0  0  0  0  0
  -23.7078   -9.8910   16.5687 O   0  0  0  0  0  0  0  0  0  0  0  0
  -27.3839  -30.4712   22.2426 O   0  0  0  0  0  0  0  0  0  0  0  0
  -23.7142  -32.7604   23.3594 O   0  0  0  0  0  0  0  0  0  0  0  0
  -21.2382  -28.7260   23.6978 O   0  0  0  0  0  0  0  0  0  0  0  0
  -29.7490  -16.4888   18.8011 O   0  0  0  0  0  0  0  0  0  0  0  0
  -22.1770   -7.7223   23.8857 O   0  0  0  0  0  0  0  0  0  0  0  0
  -25.8015  -25.2387   20.0316 O   0  0  0  0  0  0  0  0  0  1  0  0
  -28.2451  -23.2551   20.3250 O   0  0  0  0  0  0  0  0  0  0  0  0
  -20.8200   -2.4735   22.8792 F   0  0  0  0  0  0  0  0  0  0  0  0
  -23.0515   -5.6886   25.5417 F   0  0  0  0  0  0  0  0  0  0  0  0
  1  2  1  0  0  0  0
  1  5  2  0  0  0  0
  2  6  2  0  0  0  0
  3  8  2  0  0  0  0
  3 17  1  0  0  0  0
  4  9  1  0  0  0  0
  4 17  2  0  0  0  0
  5 19  1  0  0  0  0
  6 21  1  0  0  0  0
  7 10  2  0  0  0  0
  7 20  1  0  0  0  0
  8 26  1  0  0  0  0
  9 26  2  0  0  0  0
 10 27  1  0  0  0  0
 11 12  2  0  0  0  0
 11 28  1  0  0  0  0
 12 30  1  0  0  0  0
 13 22  2  0  0  0  0
 13 25  1  0  0  0  0
 14 23  1  0  0  0  0
 14 27  2  0  0  0  0
 15 24  2  0  0  0  0
 15 29  1  0  0  0  0
 16 30  2  0  0  0  0
 16 31  1  0  0  0  0
 17 32  1  0  0  0  0
 18 32  1  0  0  0  0
 18 33  2  0  0  0  0
 18 34  1  0  0  0  0
 19 21  2  0  0  0  0
 19 39  1  0  0  0  0
 20 23  2  0  0  0  0
 20 40  1  0  0  0  0
 21 55  1  0  0  0  0
 22 24  1  0  0  0  0
 22 53  1  0  0  0  0
 23 41  1  0  0  0  0
 24 54  1  0  0  0  0
 25 29  2  0  0  0  0
 25 64  1  0  0  0  0
 26 84  1  0  0  0  0
 27 85  1  0  0  0  0
 28 31  2  0  0  0  0
 28 84  1  0  0  0  0
 29 86  1  0  0  0  0
 30 87  1  0  0  0  0
 31 88  1  0  0  0  0
 32 69  2  0  0  0  0
 33 70  1  0  0  0  0
 33 74  1  0  0  0  0
 34 75  1  0  0  0  0
 34 79  2  0  0  0  0
 35 56  1  0  0  0  0
 35 76  1  0  0  0  0
 35 80  2  0  0  0  0
 36 66  1  0  0  0  0
 36 71  1  0  0  0  0
 36 81  2  0  0  0  0
 37 67  1  0  0  0  0
 37 77  1  0  0  0  0
 37 82  2  0  0  0  0
 38 72  1  0  0  0  0
 38 73  1  0  0  0  0
 38 83  2  0  0  0  0
 39 42  1  0  0  0  0
 40 56  1  0  0  0  0
 41 71  1  0  0  0  0
 42 46  1  0  0  0  0
 43 47  1  0  0  0  0
 43 49  1  0  0  0  0
 44 45  1  0  0  0  0
 44 53  1  0  0  0  0
 45 53  1  0  0  0  0
 46 55  1  0  0  0  0
 47 57  1  0  0  0  0
 48 50  1  0  0  0  0
 48 54  1  0  0  0  0
 49 72  1  0  0  0  0
 50 73  1  0  0  0  0
 51 54  1  0  0  0  0
 51 73  1  0  0  0  0
 52 57  1  0  0  0  0
 52 72  1  0  0  0  0
 55 76  1  0  0  0  0
 56 71  1  0  0  0  0
 57 70  1  0  0  0  0
 58 65  1  0  0  0  0
 59 67  1  0  0  0  0
 60 68  1  0  0  0  0
 61 68  1  0  0  0  0
 62 68  1  0  0  0  0
 63 78  1  0  0  0  0
 64 85  1  0  0  0  0
 65 86  1  0  0  0  0
 66 68  1  0  0  0  0
 66 77  1  0  0  0  0
 67 78  1  0  0  0  0
 69 70  1  0  0  0  0
M  CHG  1  78   1
M  ISO  4  38 100  64 101  73 100  85 101
M  END
> <Batch ID>
0150

> <Smiles>
CCOc1cc(C2CC[100N:0]([100C:0](=O)N3CCCC(n4nc(-c5ccc(Oc6ccc(F)cc6F)cc5)c(C(N)=O)c4N)C3)C2)c(C2CC2)cc1[101CH2:1][101O:1]c1ccc2c(c1)CN(C(=O)C(NC(=O)C(C)NC)C(C)(C)C)C(C(=O)NC1CCCc3ccccc31)C2

> <Shape>
0.260

> <Color>
0.099

> <Negative vol penalty>
0.000

$$$$

  -OEChem-04052321413D

 88 98  0     1  0  0  0  0  0999 V2000
  -28.5450  -37.1637   25.0212 C   0  0  0  0  0  0  0  0  0  0  0  0
  -28.9881  -36.1298   24.2026 C   0  0  0  0  0  0  0  0  0  0  0  0
  -23.9299  -12.7921   22.4192 C   0  0  0  0  0  0  0  0  0  0  0  0
  -22.4886  -13.5008   20.6144 C   0  0  0  0  0  0  0  0  0  0  0  0
  -27.5123  -36.9378   25.9303 C   0  0  0  0  0  0  0  0  0  0  0  0
  -28.3995  -34.8690   24.2934 C   0  0  0  0  0  0  0  0  0  0  0  0
  -27.4520  -30.9102   19.7178 C   0  0  0  0  0  0  0  0  0  0  0  0
  -22.8363  -12.2176   23.0669 C   0  0  0  0  0  0  0  0  0  0  0  0
  -21.3949  -12.9263   21.2621 C   0  0  0  0  0  0  0  0  0  0  0  0
  -28.1593  -29.7891   19.2859 C   0  0  0  0  0  0  0  0  0  0  0  0
  -20.0936   -9.8362   21.6844 C   0  0  0  0  0  0  0  0  0  0  0  0
  -19.2157   -9.0716   20.9162 C   0  0  0  0  0  0  0  0  0  0  0  0
  -31.1876  -23.7349   20.1655 C   0  0  0  0  0  0  0  0  0  0  0  0
  -26.6896  -28.3736   20.5725 C   0  0  0  0  0  0  0  0  0  0  0  0
  -29.6724  -24.1212   22.0077 C   0  0  0  0  0  0  0  0  0  0  0  0
  -17.4074  -10.5654   21.4959 C   0  0  0  0  0  0  0  0  0  0  0  0
  -23.7560  -13.4338   21.1929 C   0  0  0  0  0  0  0  0  0  0  0  0
  -31.1995  -22.3692   20.4674 C   0  0  0  0  0  0  0  0  0  0  0  0
  -25.7443  -13.4105   19.5948 C   0  0  0  0  0  0  0  0  0  0  0  0
  -26.9042  -35.6761   26.0255 C   0  0  0  0  0  0  0  0  0  0  0  0
  -26.3631  -30.7721   20.5905 C   0  0  0  0  0  0  0  0  0  0  0  0
  -27.3587  -34.6256   25.2056 C   0  0  0  0  0  0  0  0  0  0  0  0
  -25.9686  -29.4943   21.0121 C   0  0  0  0  0  0  0  0  0  0  0  0
  -29.6888  -22.7594   22.3108 C   0  0  0  0  0  0  0  0  0  0  0  0
  -30.4448  -21.8716   21.5362 C   0  0  0  0  0  0  0  0  0  0  0  0
  -21.5688  -12.2847   22.4884 C   0  0  0  0  0  0  0  0  0  0  0  0
  -27.7800  -28.5208   19.7155 C   0  0  0  0  0  0  0  0  0  0  0  0
  -19.6285  -10.9654   22.3584 C   0  0  0  0  0  0  0  0  0  0  0  0
  -30.4194  -24.6073   20.9361 C   0  0  0  0  0  0  0  0  0  0  0  0
  -17.8726   -9.4361   20.8219 C   0  0  0  0  0  0  0  0  0  0  0  0
  -18.2854  -11.3300   22.2641 C   0  0  0  0  0  0  0  0  0  0  0  0
  -24.8852  -14.0279   20.5236 C   0  0  0  0  0  0  0  0  0  0  0  0
  -26.6465  -14.3898   19.2579 C   0  0  0  0  0  0  0  0  0  0  0  0
  -32.0336  -21.4384   19.6680 C   0  0  0  0  0  0  0  0  0  0  0  0
  -25.7282  -12.0715   19.0825 C   0  0  0  0  0  0  0  0  0  0  0  0
  -25.7074  -31.7731   23.5353 C   0  0  0  0  0  0  0  0  0  0  0  0
  -22.7971  -30.4864   22.9057 C   0  0  0  0  0  0  0  0  0  0  0  0
  -20.9436  -28.2539   21.1092 C   0  0  0  0  0  0  0  0  0  0  0  0
  -30.0135  -18.3938   20.4230 C   0  0  0  0  0  0  0  0  0  0  0  0
  -25.8234  -35.4671   27.0565 C   0  0  0  0  0  0  0  0  0  0  0  0
  -25.5939  -31.9891   21.0261 C   0  0  0  0  0  0  0  0  0  0  0  0
  -24.7942  -29.2904   21.9328 C   0  0  0  0  0  0  0  0  0  0  0  0
  -30.4919  -20.4134   21.8754 C   0  0  0  0  0  0  0  0  0  0  0  0
  -24.9996  -34.2025   26.8276 C   0  0  0  0  0  0  0  0  0  0  0  0
  -26.6531  -19.3476   20.2208 C   0  0  0  0  0  0  0  0  0  0  0  0
  -29.1261  -22.9228   24.8268 C   0  0  0  0  0  0  0  0  0  0  0  0
  -29.5715  -21.5165   24.5735 C   0  0  0  0  0  0  0  0  0  0  0  0
  -25.9128  -33.0163   26.5344 C   0  0  0  0  0  0  0  0  0  0  0  0
  -25.9523  -17.9896   20.2066 C   0  0  0  0  0  0  0  0  0  0  0  0
  -27.8207  -19.3802   21.2087 C   0  0  0  0  0  0  0  0  0  0  0  0
  -28.1010  -16.9315   20.9993 C   0  0  0  0  0  0  0  0  0  0  0  0
  -28.8861  -22.2927   23.4817 C   0  0  0  0  0  0  0  0  0  0  0  0
  -26.7286  -33.2506   25.2572 C   0  0  1  0  0  0  0  0  0  0  0  0
  -31.8638  -19.9320   19.8555 C   0  0  1  0  0  0  0  0  0  0  0  0
  -24.8198  -31.7742   22.3230 C   0  0  1  0  0  0  0  0  0  0  0  0
  -26.9607  -16.8507   19.9725 C   0  0  1  0  0  0  0  0  0  0  0  0
  -33.1444  -19.3344   20.4367 C   0  0  0  0  0  0  0  0  0  0  0  0
  -18.5973  -27.4046   20.8432 C   0  0  0  0  0  0  0  0  0  0  0  0
  -23.0899  -28.8777   25.4818 C   0  0  0  0  0  0  0  0  0  0  0  0
  -21.2339  -27.3976   24.6863 C   0  0  0  0  0  0  0  0  0  0  0  0
  -20.8063  -29.8210   25.0949 C   0  0  0  0  0  0  0  0  0  0  0  0
  -20.8242  -29.1271   18.2839 C   0  0  0  0  0  0  0  0  0  0  0  0
  -29.8552  -27.6003   19.0067 C   0  0  0  0  0  0  0  0  0  1  0  0
  -30.5931  -26.3038   19.2785 C   0  0  0  0  0  0  0  0  0  0  0  0
  -22.1692  -29.1249   23.0824 C   0  0  1  0  0  0  0  0  0  0  0  0
  -19.6334  -28.4064   20.3579 C   0  0  2  0  0  0  0  0  0  0  0  0
  -21.8482  -28.8090   24.5706 C   0  0  0  0  0  0  0  0  0  0  0  0
  -25.2124  -15.3008   20.7616 N   0  0  0  0  0  0  0  0  0  0  0  0
  -26.2871  -15.4912   19.9775 N   0  0  0  0  0  0  0  0  0  0  0  0
  -24.0779  -30.5118   22.3359 N   0  0  0  0  0  0  0  0  0  0  0  0
  -30.6854  -19.6063   20.6660 N   0  0  0  0  0  0  0  0  0  0  0  0
  -28.7327  -18.2522   20.9763 N   0  0  0  0  0  0  0  0  0  0  0  0
  -27.7042  -14.4075   18.4192 N   0  0  0  0  0  0  0  0  0  0  0  0
  -24.7323  -11.1950   19.5346 N   0  0  0  0  0  0  0  0  0  0  0  0
  -25.9096  -33.0244   24.0857 N   0  0  0  0  0  0  0  0  0  0  0  0
  -21.0072  -29.0938   22.2009 N   0  0  0  0  0  0  0  0  0  0  0  0
  -19.8454  -28.1935   18.8982 N   0  3  0  0  0  0  0  0  0  0  0  0
  -32.8795  -21.8918   18.8997 O   0  0  0  0  0  0  0  0  0  0  0  0
  -26.5818  -11.6594   18.2608 O   0  0  0  0  0  0  0  0  0  0  0  0
  -26.1732  -30.7152   23.9422 O   0  0  0  0  0  0  0  0  0  0  0  0
  -22.1712  -31.4908   23.2537 O   0  0  0  0  0  0  0  0  0  0  0  0
  -21.8213  -27.4656   20.7644 O   0  0  0  0  0  0  0  0  0  0  0  0
  -30.5271  -17.4908   19.7503 O   0  0  0  0  0  0  0  0  0  0  0  0
  -20.5015  -11.7240   23.1200 O   0  0  0  0  0  0  0  0  0  0  0  0
  -28.4738  -27.4174   19.2931 O   0  0  0  0  0  0  0  0  0  1  0  0
  -30.4031  -25.9368   20.6440 O   0  0  0  0  0  0  0  0  0  0  0  0
  -17.0300   -8.7026   20.0829 F   0  0  0  0  0  0  0  0  0  0  0  0
  -17.8329  -12.4144   22.9084 F   0  0  0  0  0  0  0  0  0  0  0  0
  1  2  1  0  0  0  0
  1  5  2  0  0  0  0
  2  6  2  0  0  0  0
  3  8  2  0  0  0  0
  3 17  1  0  0  0  0
  4  9  1  0  0  0  0
  4 17  2  0  0  0  0
  5 20  1  0  0  0  0
  6 22  1  0  0  0  0
  7 10  2  0  0  0  0
  7 21  1  0  0  0  0
  8 26  1  0  0  0  0
  9 26  2  0  0  0  0
 10 27  1  0  0  0  0
 11 12  2  0  0  0  0
 11 28  1  0  0  0  0
 12 30  1  0  0  0  0
 13 18  2  0  0  0  0
 13 29  1  0  0  0  0
 14 23  1  0  0  0  0
 14 27  2  0  0  0  0
 15 24  1  0  0  0  0
 15 29  2  0  0  0  0
 16 30  2  0  0  0  0
 16 31  1  0  0  0  0
 17 32  1  0  0  0  0
 18 25  1  0  0  0  0
 18 34  1  0  0  0  0
 19 32  1  0  0  0  0
 19 33  2  0  0  0  0
 19 35  1  0  0  0  0
 20 22  2  0  0  0  0
 20 40  1  0  0  0  0
 21 23  2  0  0  0  0
 21 41  1  0  0  0  0
 22 53  1  0  0  0  0
 23 42  1  0  0  0  0
 24 25  2  0  0  0  0
 24 52  1  0  0  0  0
 25 43  1  0  0  0  0
 26 84  1  0  0  0  0
 27 85  1  0  0  0  0
 28 31  2  0  0  0  0
 28 84  1  0  0  0  0
 29 86  1  0  0  0  0
 30 87  1  0  0  0  0
 31 88  1  0  0  0  0
 32 68  2  0  0  0  0
 33 69  1  0  0  0  0
 33 73  1  0  0  0  0
 34 54  1  0  0  0  0
 34 78  2  0  0  0  0
 35 74  1  0  0  0  0
 35 79  2  0  0  0  0
 36 55  1  0  0  0  0
 36 75  1  0  0  0  0
 36 80  2  0  0  0  0
 37 65  1  0  0  0  0
 37 70  1  0  0  0  0
 37 81  2  0  0  0  0
 38 66  1  0  0  0  0
 38 76  1  0  0  0  0
 38 82  2  0  0  0  0
 39 71  1  0  0  0  0
 39 72  1  0  0  0  0
 39 83  2  0  0  0  0
 40 44  1  0  0  0  0
 41 55  1  0  0  0  0
 42 70  1  0  0  0  0
 43 71  1  0  0  0  0
 44 48  1  0  0  0  0
 45 49  1  0  0  0  0
 45 50  1  0  0  0  0
 46 47  1  0  0  0  0
 46 52  1  0  0  0  0
 47 52  1  0  0  0  0
 48 53  1  0  0  0  0
 49 56  1  0  0  0  0
 50 72  1  0  0  0  0
 51 56  1  0  0  0  0
 51 72  1  0  0  0  0
 53 75  1  0  0  0  0
 54 57  1  0  0  0  0
 54 71  1  0  0  0  0
 55 70  1  0  0  0  0
 56 69  1  0  0  0  0
 58 66  1  0  0  0  0
 59 67  1  0  0  0  0
 60 67  1  0  0  0  0
 61 67  1  0  0  0  0
 62 77  1  0  0  0  0
 63 64  1  0  0  0  0
 63 85  1  0  0  0  0
 64 86  1  0  0  0  0
 65 67  1  0  0  0  0
 65 76  1  0  0  0  0
 66 77  1  0  0  0  0
 68 69  1  0  0  0  0
M  CHG  1  77   1
M  ISO  4  39 100  63 101  71 100  85 101
M  END
> <Batch ID>
0150

> <Smiles>
CNC(C)C(=O)NC(C(=O)N1Cc2cc([101O:1][101CH2:1]COc3cc4c(c(C5CC5)c3)C[100N:0]([100C:0](=O)N3CCCC(n5nc(-c6ccc(Oc7ccc(F)cc7F)cc6)c(C(N)=O)c5N)C3)C(C)C4=O)ccc2CC1C(=O)NC1CCCc2ccccc21)C(C)(C)C

> <Shape>
0.267

> <Color>
0.077

> <Negative vol penalty>
0.000

$$$$

  -OEChem-04052321413D

 87 96  0     1  0  0  0  0  0999 V2000
  -22.0744   -8.1217   20.9976 C   0  0  0  0  0  0  0  0  0  0  0  0
  -21.8308   -9.4370   21.3797 C   0  0  0  0  0  0  0  0  0  0  0  0
  -27.7591  -29.0548   20.9021 C   0  0  0  0  0  0  0  0  0  0  0  0
  -26.2316  -27.4282   19.9758 C   0  0  0  0  0  0  0  0  0  0  0  0
  -23.3825   -7.6907   20.7812 C   0  0  0  0  0  0  0  0  0  0  0  0
  -22.8954  -10.3219   21.5466 C   0  0  0  0  0  0  0  0  0  0  0  0
  -22.9218  -16.3225   20.3223 C   0  0  0  0  0  0  0  0  0  0  0  0
  -28.8140  -28.1568   20.7396 C   0  0  0  0  0  0  0  0  0  0  0  0
  -27.2865  -26.5301   19.8133 C   0  0  0  0  0  0  0  0  0  0  0  0
  -22.7609  -17.4458   21.1323 C   0  0  0  0  0  0  0  0  0  0  0  0
  -29.0757  -24.4122   21.7482 C   0  0  0  0  0  0  0  0  0  0  0  0
  -28.8671  -23.0898   22.1397 C   0  0  0  0  0  0  0  0  0  0  0  0
  -20.6687  -24.3502   22.6995 C   0  0  0  0  0  0  0  0  0  0  0  0
  -22.3069  -25.3719   21.2471 C   0  0  0  0  0  0  0  0  0  0  0  0
  -25.1577  -17.6557   21.3068 C   0  0  0  0  0  0  0  0  0  0  0  0
  -29.3057  -22.3521   19.8812 C   0  0  0  0  0  0  0  0  0  0  0  0
  -26.4679  -28.6905   20.5202 C   0  0  0  0  0  0  0  0  0  0  0  0
  -24.9233  -30.5728   19.7595 C   0  0  0  0  0  0  0  0  0  0  0  0
  -24.4631   -8.5734   20.9362 C   0  0  0  0  0  0  0  0  0  0  0  0
  -24.2039  -15.8501   20.0068 C   0  0  0  0  0  0  0  0  0  0  0  0
  -24.2194   -9.9020   21.3334 C   0  0  0  0  0  0  0  0  0  0  0  0
  -21.1563  -25.4721   22.0292 C   0  0  0  0  0  0  0  0  0  0  0  0
  -25.3322  -16.5277   20.4905 C   0  0  0  0  0  0  0  0  0  0  0  0
  -21.3318  -23.1281   22.5877 C   0  0  0  0  0  0  0  0  0  0  0  0
  -22.9700  -24.1497   21.1353 C   0  0  0  0  0  0  0  0  0  0  0  0
  -28.5777  -26.8944   20.1952 C   0  0  0  0  0  0  0  0  0  0  0  0
  -23.8789  -18.1109   21.6270 C   0  0  0  0  0  0  0  0  0  0  0  0
  -29.3992  -24.7046   20.4232 C   0  0  0  0  0  0  0  0  0  0  0  0
  -22.4824  -23.0279   21.8056 C   0  0  0  0  0  0  0  0  0  0  0  0
  -28.9821  -22.0597   21.2062 C   0  0  0  0  0  0  0  0  0  0  0  0
  -29.5142  -23.6746   19.4897 C   0  0  0  0  0  0  0  0  0  0  0  0
  -25.3777  -29.6175   20.6883 C   0  0  0  0  0  0  0  0  0  0  0  0
  -23.8753  -31.1955   20.3923 C   0  0  0  0  0  0  0  0  0  0  0  0
  -25.4054  -30.8708   18.4425 C   0  0  0  0  0  0  0  0  0  0  0  0
  -25.7933  -13.1494   20.5394 C   0  0  0  0  0  0  0  0  0  0  0  0
  -28.0172  -14.5386   18.6297 C   0  0  0  0  0  0  0  0  0  0  0  0
  -29.3500  -17.4064   17.3467 C   0  0  0  0  0  0  0  0  0  0  0  0
  -20.1002  -29.6050   24.6089 C   0  0  0  0  0  0  0  0  0  0  0  0
  -25.8631   -8.0490   20.7370 C   0  0  0  0  0  0  0  0  0  0  0  0
  -24.3607  -14.6529   19.1099 C   0  0  0  0  0  0  0  0  0  0  0  0
  -26.7305  -16.0730   20.1645 C   0  0  0  0  0  0  0  0  0  0  0  0
  -26.9079   -9.1496   20.5713 C   0  0  0  0  0  0  0  0  0  0  0  0
  -18.3011  -28.0884   21.7494 C   0  0  0  0  0  0  0  0  0  0  0  0
  -22.2506  -32.3226   24.7439 C   0  0  0  0  0  0  0  0  0  0  0  0
  -19.0026  -26.7397   21.5947 C   0  0  0  0  0  0  0  0  0  0  0  0
  -26.7193  -10.2289   21.6326 C   0  0  0  0  0  0  0  0  0  0  0  0
  -23.2618  -32.0426   23.6324 C   0  0  0  0  0  0  0  0  0  0  0  0
  -18.3520  -28.5932   23.1885 C   0  0  0  0  0  0  0  0  0  0  0  0
  -21.9053  -31.0462   25.5026 C   0  0  0  0  0  0  0  0  0  0  0  0
  -20.4267  -27.3109   23.6002 C   0  0  0  0  0  0  0  0  0  0  0  0
  -22.3874  -29.6582   23.5131 C   0  0  0  0  0  0  0  0  0  0  0  0
  -20.4356  -26.8015   22.1511 C   0  0  1  0  0  0  0  0  0  0  0  0
  -25.3461  -10.8984   21.5006 C   0  0  1  0  0  0  0  0  0  0  0  0
  -25.7076  -13.9555   19.2743 C   0  0  1  0  0  0  0  0  0  0  0  0
  -22.7670  -30.9167   22.7078 C   0  0  2  0  0  0  0  0  0  0  0  0
  -20.7943  -21.9383   23.3127 C   0  0  0  0  0  0  0  0  0  0  0  0
  -24.2000  -24.0622   20.2930 C   0  0  0  0  0  0  0  0  0  0  0  0
  -31.1852  -18.2253   15.8439 C   0  0  0  0  0  0  0  0  0  0  0  0
  -30.0537  -14.0323   20.8447 C   0  0  0  0  0  0  0  0  0  0  0  0
  -31.5768  -15.6730   19.7238 C   0  0  0  0  0  0  0  0  0  0  0  0
  -30.8962  -13.5900   18.5319 C   0  0  0  0  0  0  0  0  0  0  0  0
  -27.4210  -18.6278   15.4636 C   0  0  0  0  0  0  0  0  0  0  0  0
  -24.7502  -20.1976   22.3635 C   0  0  0  0  0  0  0  0  0  1  0  0
  -24.1496  -21.5593   22.6540 C   0  0  0  0  0  0  0  0  0  0  0  0
  -29.2056  -15.4419   18.8548 C   0  0  1  0  0  0  0  0  0  0  0  0
  -29.7292  -17.7946   15.9290 C   0  0  2  0  0  0  0  0  0  0  0  0
  -30.4068  -14.6920   19.4967 C   0  0  0  0  0  0  0  0  0  0  0  0
  -24.6759  -29.6287   21.8247 N   0  0  0  0  0  0  0  0  0  0  0  0
  -23.7700  -30.5987   21.6142 N   0  0  0  0  0  0  0  0  0  0  0  0
  -26.8318  -14.8937   19.2889 N   0  0  0  0  0  0  0  0  0  0  0  0
  -19.7195  -28.5961   23.7088 N   0  0  0  0  0  0  0  0  0  0  0  0
  -21.4472  -29.9971   24.5918 N   0  0  0  0  0  0  0  0  0  0  0  0
  -23.0428  -32.1898   20.0172 N   0  0  0  0  0  0  0  0  0  0  0  0
  -26.4905  -30.1356   17.9461 N   0  0  0  0  0  0  0  0  0  0  0  0
  -25.3494  -11.8474   20.4080 N   0  0  0  0  0  0  0  0  0  0  0  0
  -29.5037  -16.0535   17.5643 N   0  0  0  0  0  0  0  0  0  0  0  0
  -28.8772  -18.9217   15.4551 N   0  3  0  0  0  0  0  0  0  0  0  0
  -24.8998  -31.7736   17.7335 O   0  0  0  0  0  0  0  0  0  0  0  0
  -26.2312  -13.6696   21.5588 O   0  0  0  0  0  0  0  0  0  0  0  0
  -28.1343  -13.5581   17.8904 O   0  0  0  0  0  0  0  0  0  0  0  0
  -28.9602  -18.2223   18.1791 O   0  0  0  0  0  0  0  0  0  0  0  0
  -19.2834  -30.1260   25.3787 O   0  0  0  0  0  0  0  0  0  0  0  0
  -29.6068  -26.0180   20.0363 O   0  0  0  0  0  0  0  0  0  0  0  0
  -23.7237  -19.2146   22.4238 O   0  0  0  0  0  0  0  0  0  1  0  0
  -23.1302  -21.8326   21.6958 O   0  0  0  0  0  0  0  0  0  0  0  0
  -28.7833  -20.7897   21.5826 F   0  0  0  0  0  0  0  0  0  0  0  0
  -29.8260  -23.9492   18.2157 F   0  0  0  0  0  0  0  0  0  0  0  0
  1  2  1  0  0  0  0
  1  5  2  0  0  0  0
  2  6  2  0  0  0  0
  3  8  2  0  0  0  0
  3 17  1  0  0  0  0
  4  9  1  0  0  0  0
  4 17  2  0  0  0  0
  5 19  1  0  0  0  0
  6 21  1  0  0  0  0
  7 10  2  0  0  0  0
  7 20  1  0  0  0  0
  8 26  1  0  0  0  0
  9 26  2  0  0  0  0
 10 27  1  0  0  0  0
 11 12  2  0  0  0  0
 11 28  1  0  0  0  0
 12 30  1  0  0  0  0
 13 22  1  0  0  0  0
 13 24  2  0  0  0  0
 14 22  2  0  0  0  0
 14 25  1  0  0  0  0
 15 23  1  0  0  0  0
 15 27  2  0  0  0  0
 16 30  2  0  0  0  0
 16 31  1  0  0  0  0
 17 32  1  0  0  0  0
 18 32  1  0  0  0  0
 18 33  2  0  0  0  0
 18 34  1  0  0  0  0
 19 21  2  0  0  0  0
 19 39  1  0  0  0  0
 20 23  2  0  0  0  0
 20 40  1  0  0  0  0
 21 53  1  0  0  0  0
 22 52  1  0  0  0  0
 23 41  1  0  0  0  0
 24 29  1  0  0  0  0
 24 56  1  0  0  0  0
 25 29  2  0  0  0  0
 25 57  1  0  0  0  0
 26 83  1  0  0  0  0
 27 84  1  0  0  0  0
 28 31  2  0  0  0  0
 28 83  1  0  0  0  0
 29 85  1  0  0  0  0
 30 86  1  0  0  0  0
 31 87  1  0  0  0  0
 32 68  2  0  0  0  0
 33 69  1  0  0  0  0
 33 73  1  0  0  0  0
 34 74  1  0  0  0  0
 34 78  2  0  0  0  0
 35 54  1  0  0  0  0
 35 75  1  0  0  0  0
 35 79  2  0  0  0  0
 36 65  1  0  0  0  0
 36 70  1  0  0  0  0
 36 80  2  0  0  0  0
 37 66  1  0  0  0  0
 37 76  1  0  0  0  0
 37 81  2  0  0  0  0
 38 71  1  0  0  0  0
 38 72  1  0  0  0  0
 38 82  2  0  0  0  0
 39 42  1  0  0  0  0
 40 54  1  0  0  0  0
 41 70  1  0  0  0  0
 42 46  1  0  0  0  0
 43 45  1  0  0  0  0
 43 48  1  0  0  0  0
 44 47  1  0  0  0  0
 44 49  1  0  0  0  0
 45 52  1  0  0  0  0
 46 53  1  0  0  0  0
 47 55  1  0  0  0  0
 48 71  1  0  0  0  0
 49 72  1  0  0  0  0
 50 52  1  0  0  0  0
 50 71  1  0  0  0  0
 51 55  1  0  0  0  0
 51 72  1  0  0  0  0
 53 75  1  0  0  0  0
 54 70  1  0  0  0  0
 55 69  1  0  0  0  0
 58 66  1  0  0  0  0
 59 67  1  0  0  0  0
 60 67  1  0  0  0  0
 61 67  1  0  0  0  0
 62 77  1  0  0  0  0
 63 64  1  0  0  0  0
 63 84  1  0  0  0  0
 64 85  1  0  0  0  0
 65 67  1  0  0  0  0
 65 76  1  0  0  0  0
 66 77  1  0  0  0  0
 68 69  1  0  0  0  0
M  CHG  1  77   1
M  ISO  4  38 100  63 101  71 100  84 101
M  END
> <Batch ID>
0150

> <Smiles>
CNC(C)C(=O)NC(C(=O)N1Cc2cc([101O:1][101CH2:1]COc3c(C)cc(C4CCC[100N:0]([100C:0](=O)N5CCCC(n6nc(-c7ccc(Oc8ccc(F)cc8F)cc7)c(C(N)=O)c6N)C5)C4)cc3C)ccc2CC1C(=O)NC1CCCc2ccccc21)C(C)(C)C

> <Shape>
0.279

> <Color>
0.062

> <Negative vol penalty>
0.000

$$$$

  -OEChem-04052321413D

 88 97  0     1  0  0  0  0  0999 V2000
  -29.3295  -33.6440   19.3014 C   0  0  0  0  0  0  0  0  0  0  0  0
  -29.8635  -32.7196   18.4093 C   0  0  0  0  0  0  0  0  0  0  0  0
  -23.2597   -9.7945   19.9231 C   0  0  0  0  0  0  0  0  0  0  0  0
  -23.6959   -9.9418   22.2948 C   0  0  0  0  0  0  0  0  0  0  0  0
  -29.0615  -33.2671   20.6167 C   0  0  0  0  0  0  0  0  0  0  0  0
  -30.1309  -31.4181   18.8324 C   0  0  0  0  0  0  0  0  0  0  0  0
  -29.6181  -26.2920   15.5209 C   0  0  0  0  0  0  0  0  0  0  0  0
  -22.5104   -8.6369   20.1328 C   0  0  0  0  0  0  0  0  0  0  0  0
  -22.9465   -8.7842   22.5045 C   0  0  0  0  0  0  0  0  0  0  0  0
  -30.5545  -25.5239   14.8303 C   0  0  0  0  0  0  0  0  0  0  0  0
  -20.8482   -6.0698   23.7075 C   0  0  0  0  0  0  0  0  0  0  0  0
  -19.9387   -6.0678   24.7649 C   0  0  0  0  0  0  0  0  0  0  0  0
  -30.7476  -24.0572   16.7358 C   0  0  0  0  0  0  0  0  0  0  0  0
  -35.4268  -18.5311   13.3307 C   0  0  0  0  0  0  0  0  0  0  0  0
  -33.2350  -19.5139   13.5893 C   0  0  0  0  0  0  0  0  0  0  0  0
  -35.0205  -20.7918   12.5814 C   0  0  0  0  0  0  0  0  0  0  0  0
  -18.7705   -7.9306   23.7636 C   0  0  0  0  0  0  0  0  0  0  0  0
  -23.8525  -10.4470   21.0041 C   0  0  0  0  0  0  0  0  0  0  0  0
  -24.1600  -12.9705   20.7917 C   0  0  0  0  0  0  0  0  0  0  0  0
  -29.3167  -31.9577   21.0535 C   0  0  0  0  0  0  0  0  0  0  0  0
  -29.2469  -25.9543   16.8303 C   0  0  0  0  0  0  0  0  0  0  0  0
  -29.8673  -31.0238   20.1552 C   0  0  0  0  0  0  0  0  0  0  0  0
  -29.8044  -24.8212   17.4399 C   0  0  0  0  0  0  0  0  0  0  0  0
  -34.1010  -18.4327   13.7529 C   0  0  0  0  0  0  0  0  0  0  0  0
  -22.3537   -8.1318   21.4235 C   0  0  0  0  0  0  0  0  0  0  0  0
  -31.1215  -24.4079   15.4388 C   0  0  0  0  0  0  0  0  0  0  0  0
  -20.7190   -7.0022   22.6781 C   0  0  0  0  0  0  0  0  0  0  0  0
  -35.8866  -19.7106   12.7450 C   0  0  0  0  0  0  0  0  0  0  0  0
  -33.6947  -20.6934   13.0036 C   0  0  0  0  0  0  0  0  0  0  0  0
  -18.8998   -6.9982   24.7930 C   0  0  0  0  0  0  0  0  0  0  0  0
  -19.6801   -7.9326   22.7062 C   0  0  0  0  0  0  0  0  0  0  0  0
  -24.6272  -11.6425   20.7881 C   0  0  0  0  0  0  0  0  0  0  0  0
  -25.2775  -13.7283   20.5400 C   0  0  0  0  0  0  0  0  0  0  0  0
  -22.8344  -13.4740   21.0038 C   0  0  0  0  0  0  0  0  0  0  0  0
  -29.4562  -27.3852   19.6609 C   0  0  0  0  0  0  0  0  0  0  0  0
  -27.7180  -24.8294   20.6454 C   0  0  0  0  0  0  0  0  0  0  0  0
  -26.7773  -21.5907   20.1228 C   0  0  0  0  0  0  0  0  0  0  0  0
  -29.8059  -14.4188   17.3293 C   0  0  0  0  0  0  0  0  0  0  0  0
  -29.0547  -31.6101   22.4976 C   0  0  0  0  0  0  0  0  0  0  0  0
  -28.2156  -26.7777   17.5519 C   0  0  0  0  0  0  0  0  0  0  0  0
  -29.4246  -24.4043   18.8364 C   0  0  0  0  0  0  0  0  0  0  0  0
  -29.0170  -30.1077   22.7652 C   0  0  0  0  0  0  0  0  0  0  0  0
  -30.1718  -12.4664   20.4612 C   0  0  0  0  0  0  0  0  0  0  0  0
  -30.1978  -29.4157   22.0918 C   0  0  0  0  0  0  0  0  0  0  0  0
  -28.7116  -12.1569   20.7942 C   0  0  0  0  0  0  0  0  0  0  0  0
  -32.9351  -16.2123   18.0389 C   0  0  0  0  0  0  0  0  0  0  0  0
  -30.3777  -12.5675   18.9555 C   0  0  0  0  0  0  0  0  0  0  0  0
  -32.0291  -15.0518   18.4387 C   0  0  0  0  0  0  0  0  0  0  0  0
  -28.0386  -13.2643   18.6086 C   0  0  0  0  0  0  0  0  0  0  0  0
  -31.6148  -15.6289   16.1420 C   0  0  0  0  0  0  0  0  0  0  0  0
  -30.1479  -29.5957   20.5697 C   0  0  1  0  0  0  0  0  0  0  0  0
  -28.2944  -26.6384   19.0690 C   0  0  1  0  0  0  0  0  0  0  0  0
  -27.7613  -13.1626   20.1190 C   0  0  1  0  0  0  0  0  0  0  0  0
  -33.0262  -16.0289   16.5314 C   0  0  1  0  0  0  0  0  0  0  0  0
  -25.3771  -19.7612   21.1176 C   0  0  0  0  0  0  0  0  0  0  0  0
  -29.8544  -24.3535   22.7713 C   0  0  0  0  0  0  0  0  0  0  0  0
  -28.9304  -22.0477   23.0841 C   0  0  0  0  0  0  0  0  0  0  0  0
  -27.5040  -24.0369   23.5650 C   0  0  0  0  0  0  0  0  0  0  0  0
  -25.0542  -21.4451   17.7210 C   0  0  0  0  0  0  0  0  0  0  0  0
  -37.5828  -21.0425   11.7425 C   0  0  0  0  0  0  0  0  0  0  0  0
  -33.6069  -17.1645   14.3839 C   0  0  0  0  0  0  0  0  0  0  0  0
  -32.4045  -24.0305   13.4313 C   0  0  0  0  0  0  0  0  0  1  0  0
  -33.4259  -23.0533   12.8825 C   0  0  0  0  0  0  0  0  0  0  0  0
  -28.0450  -23.4506   21.1660 C   0  0  1  0  0  0  0  0  0  0  0  0
  -25.4141  -20.9230   20.1370 C   0  0  2  0  0  0  0  0  0  0  0  0
  -28.5923  -23.4809   22.6210 C   0  0  0  0  0  0  0  0  0  0  0  0
  -25.9393  -11.5582   20.5525 N   0  0  0  0  0  0  0  0  0  0  0  0
  -26.3060  -12.8427   20.4057 N   0  0  0  0  0  0  0  0  0  0  0  0
  -28.4166  -25.2452   19.5031 N   0  0  0  0  0  0  0  0  0  0  0  0
  -29.4555  -13.5377   18.3585 N   0  0  0  0  0  0  0  0  0  0  0  0
  -31.1182  -14.8886   17.3008 N   0  0  0  0  0  0  0  0  0  0  0  0
  -25.4708  -15.0592   20.4225 N   0  0  0  0  0  0  0  0  0  0  0  0
  -21.8030  -12.5574   21.2496 N   0  0  0  0  0  0  0  0  0  0  0  0
  -29.1740  -28.6982   19.9863 N   0  0  0  0  0  0  0  0  0  0  0  0
  -26.8345  -22.6536   20.9993 N   0  0  0  0  0  0  0  0  0  0  0  0
  -33.4380  -17.2743   15.8634 N   0  3  0  0  0  0  0  0  0  0  0  0
  -25.0772  -20.4044   18.7810 N   0  3  0  0  0  0  0  0  0  0  0  0
  -22.5693  -14.6992   20.9598 O   0  0  0  0  0  0  0  0  0  0  0  0
  -30.5287  -26.8121   19.8126 O   0  0  0  0  0  0  0  0  0  0  0  0
  -26.8687  -25.5095   21.2265 O   0  0  0  0  0  0  0  0  0  0  0  0
  -27.7003  -21.2055   19.4086 O   0  0  0  0  0  0  0  0  0  0  0  0
  -28.9713  -14.8071   16.5011 O   0  0  0  0  0  0  0  0  0  0  0  0
  -21.6224   -7.0023   21.6285 O   0  0  0  0  0  0  0  0  0  0  0  0
  -37.1803  -19.8076   12.3328 O   0  0  0  0  0  0  0  0  0  0  0  0
  -32.0540  -23.6422   14.7542 O   0  0  0  0  0  0  0  0  0  1  0  0
  -32.8496  -21.7487   12.8452 O   0  0  0  0  0  0  0  0  0  0  0  0
  -18.0255   -6.9952   25.8078 F   0  0  0  0  0  0  0  0  0  0  0  0
  -19.5502   -8.8300   21.7195 F   0  0  0  0  0  0  0  0  0  0  0  0
  1  2  1  0  0  0  0
  1  5  2  0  0  0  0
  2  6  2  0  0  0  0
  3  8  2  0  0  0  0
  3 18  1  0  0  0  0
  4  9  1  0  0  0  0
  4 18  2  0  0  0  0
  5 20  1  0  0  0  0
  6 22  1  0  0  0  0
  7 10  2  0  0  0  0
  7 21  1  0  0  0  0
  8 25  1  0  0  0  0
  9 25  2  0  0  0  0
 10 26  1  0  0  0  0
 11 12  2  0  0  0  0
 11 27  1  0  0  0  0
 12 30  1  0  0  0  0
 13 23  1  0  0  0  0
 13 26  2  0  0  0  0
 14 24  1  0  0  0  0
 14 28  2  0  0  0  0
 15 24  2  0  0  0  0
 15 29  1  0  0  0  0
 16 28  1  0  0  0  0
 16 29  2  0  0  0  0
 17 30  2  0  0  0  0
 17 31  1  0  0  0  0
 18 32  1  0  0  0  0
 19 32  1  0  0  0  0
 19 33  2  0  0  0  0
 19 34  1  0  0  0  0
 20 22  2  0  0  0  0
 20 39  1  0  0  0  0
 21 23  2  0  0  0  0
 21 40  1  0  0  0  0
 22 51  1  0  0  0  0
 23 41  1  0  0  0  0
 24 61  1  0  0  0  0
 25 83  1  0  0  0  0
 26 85  1  0  0  0  0
 27 31  2  0  0  0  0
 27 83  1  0  0  0  0
 28 84  1  0  0  0  0
 29 86  1  0  0  0  0
 30 87  1  0  0  0  0
 31 88  1  0  0  0  0
 32 67  2  0  0  0  0
 33 68  1  0  0  0  0
 33 72  1  0  0  0  0
 34 73  1  0  0  0  0
 34 78  2  0  0  0  0
 35 52  1  0  0  0  0
 35 74  1  0  0  0  0
 35 79  2  0  0  0  0
 36 64  1  0  0  0  0
 36 69  1  0  0  0  0
 36 80  2  0  0  0  0
 37 65  1  0  0  0  0
 37 75  1  0  0  0  0
 37 81  2  0  0  0  0
 38 70  1  0  0  0  0
 38 71  1  0  0  0  0
 38 82  2  0  0  0  0
 39 42  1  0  0  0  0
 40 52  1  0  0  0  0
 41 69  1  0  0  0  0
 42 44  1  0  0  0  0
 43 45  1  0  0  0  0
 43 47  1  0  0  0  0
 44 51  1  0  0  0  0
 45 53  1  0  0  0  0
 46 48  1  0  0  0  0
 46 54  1  0  0  0  0
 47 70  1  0  0  0  0
 48 71  1  0  0  0  0
 49 53  1  0  0  0  0
 49 70  1  0  0  0  0
 50 54  1  0  0  0  0
 50 71  1  0  0  0  0
 51 74  1  0  0  0  0
 52 69  1  0  0  0  0
 53 68  1  0  0  0  0
 54 76  1  0  0  0  0
 55 65  1  0  0  0  0
 56 66  1  0  0  0  0
 57 66  1  0  0  0  0
 58 66  1  0  0  0  0
 59 77  1  0  0  0  0
 60 84  1  0  0  0  0
 61 76  1  0  0  0  0
 62 63  1  0  0  0  0
 62 85  1  0  0  0  0
 63 86  1  0  0  0  0
 64 66  1  0  0  0  0
 64 75  1  0  0  0  0
 65 77  1  0  0  0  0
 67 68  1  0  0  0  0
M  CHG  2  76   1  77   1
M  ISO  4  38 100  62 101  71 100  85 101
M  END
> <Batch ID>
0150

> <Smiles>
CNC(C)C(=O)NC(C(=O)N1Cc2cc([101O:1][101CH2:1]COc3cc(CNC4CC[100N:0]([100C:0](=O)N5CCCC(n6nc(-c7ccc(Oc8ccc(F)cc8F)cc7)c(C(N)=O)c6N)C5)C4)cc(OC)c3)ccc2CC1C(=O)NC1CCCc2ccccc21)C(C)(C)C

> <Shape>
0.192

> <Color>
0.169

> <Negative vol penalty>
0.000

$$$$

  -OEChem-04052321413D

 88 97  0     1  0  0  0  0  0999 V2000
  -27.9731  -24.8521   16.6222 C   0  0  0  0  0  0  0  0  0  0  0  0
  -26.7979  -25.0466   17.3408 C   0  0  0  0  0  0  0  0  0  0  0  0
  -25.6063  -17.4495   23.0368 C   0  0  0  0  0  0  0  0  0  0  0  0
  -23.6560  -17.9011   21.6842 C   0  0  0  0  0  0  0  0  0  0  0  0
  -29.1807  -25.3427   17.1170 C   0  0  0  0  0  0  0  0  0  0  0  0
  -26.8298  -25.7310   18.5553 C   0  0  0  0  0  0  0  0  0  0  0  0
  -23.0901  -29.1198   18.9747 C   0  0  0  0  0  0  0  0  0  0  0  0
  -25.9153  -16.3571   22.2264 C   0  0  0  0  0  0  0  0  0  0  0  0
  -23.9651  -16.8088   20.8738 C   0  0  0  0  0  0  0  0  0  0  0  0
  -21.8224  -28.6331   19.2905 C   0  0  0  0  0  0  0  0  0  0  0  0
  -27.4172  -13.6658   20.2985 C   0  0  0  0  0  0  0  0  0  0  0  0
  -28.7438  -13.5117   19.8960 C   0  0  0  0  0  0  0  0  0  0  0  0
  -22.1583  -29.2695   21.5930 C   0  0  0  0  0  0  0  0  0  0  0  0
  -28.6619  -15.6642   18.8019 C   0  0  0  0  0  0  0  0  0  0  0  0
  -24.4765  -18.2215   22.7657 C   0  0  0  0  0  0  0  0  0  0  0  0
  -24.5815  -20.6811   23.4342 C   0  0  0  0  0  0  0  0  0  0  0  0
  -29.2260  -26.0418   18.3335 C   0  0  0  0  0  0  0  0  0  0  0  0
  -23.9072  -29.6759   19.9694 C   0  0  0  0  0  0  0  0  0  0  0  0
  -28.0394  -26.2302   19.0676 C   0  0  0  0  0  0  0  0  0  0  0  0
  -23.4350  -29.7648   21.2867 C   0  0  0  0  0  0  0  0  0  0  0  0
  -18.0114  -26.0689   21.9267 C   0  0  0  0  0  0  0  0  0  0  0  0
  -19.4055  -26.2005   21.9232 C   0  0  0  0  0  0  0  0  0  0  0  0
  -17.3480  -25.5202   23.0111 C   0  0  0  0  0  0  0  0  0  0  0  0
  -20.1646  -25.7795   23.0025 C   0  0  0  0  0  0  0  0  0  0  0  0
  -19.5048  -25.2133   24.0954 C   0  0  0  0  0  0  0  0  0  0  0  0
  -18.1068  -25.0851   24.0999 C   0  0  0  0  0  0  0  0  0  0  0  0
  -25.0948  -16.0367   21.1449 C   0  0  0  0  0  0  0  0  0  0  0  0
  -21.3574  -28.7053   20.6003 C   0  0  0  0  0  0  0  0  0  0  0  0
  -26.7129  -14.8191   19.9527 C   0  0  0  0  0  0  0  0  0  0  0  0
  -29.3661  -14.5109   19.1477 C   0  0  0  0  0  0  0  0  0  0  0  0
  -27.3352  -15.8183   19.2044 C   0  0  0  0  0  0  0  0  0  0  0  0
  -24.1564  -19.3497   23.6029 C   0  0  0  0  0  0  0  0  0  0  0  0
  -24.0102  -21.3594   24.4830 C   0  0  0  0  0  0  0  0  0  0  0  0
  -25.4179  -21.2536   22.4201 C   0  0  0  0  0  0  0  0  0  0  0  0
  -26.7461  -28.9539   21.2034 C   0  0  0  0  0  0  0  0  0  0  0  0
  -26.3362  -31.7557   22.7858 C   0  0  0  0  0  0  0  0  0  0  0  0
  -24.1836  -34.1086   24.0013 C   0  0  0  0  0  0  0  0  0  0  0  0
  -19.1561  -20.3408   27.8373 C   0  0  0  0  0  0  0  0  0  0  0  0
  -30.5622  -26.5122   18.8511 C   0  0  0  0  0  0  0  0  0  0  0  0
  -25.2616  -30.2207   19.6074 C   0  0  0  0  0  0  0  0  0  0  0  0
  -17.4193  -26.6349   20.6747 C   0  0  0  0  0  0  0  0  0  0  0  0
  -24.2650  -30.3712   22.3875 C   0  0  0  0  0  0  0  0  0  0  0  0
  -30.4528  -27.5529   19.9626 C   0  0  0  0  0  0  0  0  0  0  0  0
  -18.6501  -26.6744   19.7512 C   0  0  0  0  0  0  0  0  0  0  0  0
  -22.5066  -20.7216   28.9801 C   0  0  0  0  0  0  0  0  0  0  0  0
  -29.4240  -27.1181   21.0016 C   0  0  0  0  0  0  0  0  0  0  0  0
  -23.3477  -20.5333   27.7163 C   0  0  0  0  0  0  0  0  0  0  0  0
  -21.2846  -19.8059   28.9863 C   0  0  0  0  0  0  0  0  0  0  0  0
  -21.2725  -19.7153   26.5235 C   0  0  0  0  0  0  0  0  0  0  0  0
  -28.0295  -26.9891   20.3768 C   0  0  1  0  0  0  0  0  0  0  0  0
  -19.8757  -26.8564   20.6629 C   0  0  1  0  0  0  0  0  0  1  0  0
  -26.2121  -30.2986   20.7981 C   0  0  1  0  0  0  0  0  0  0  0  0
  -22.4859  -20.6576   26.4455 C   0  0  2  0  0  0  0  0  0  0  0  0
  -15.8611  -25.4046   23.0094 C   0  0  0  0  0  0  0  0  0  0  0  0
  -21.6481  -25.9340   22.9912 C   0  0  0  0  0  0  0  0  0  0  0  0
  -20.2972  -24.7437   25.2759 C   0  0  0  0  0  0  0  0  0  0  0  0
  -24.1420  -36.2661   25.2822 C   0  0  0  0  0  0  0  0  0  0  0  0
  -16.4313  -20.1943   25.3498 C   0  0  0  0  0  0  0  0  0  0  0  0
  -26.8597  -30.2265   25.3737 C   0  0  0  0  0  0  0  0  0  0  0  0
  -25.8864  -32.1602   26.6314 C   0  0  0  0  0  0  0  0  0  0  0  0
  -27.9424  -32.4777   25.2550 C   0  0  0  0  0  0  0  0  0  0  0  0
  -22.9397  -35.5604   21.7421 C   0  0  0  0  0  0  0  0  0  0  0  0
  -17.4204  -24.4810   25.2856 C   0  0  0  0  0  0  0  0  0  0  0  0
  -16.9442  -22.3843   26.5567 C   0  0  0  0  0  0  0  0  0  0  0  0
  -25.7154  -32.1597   24.1012 C   0  0  1  0  0  0  0  0  0  0  0  0
  -24.1880  -35.6235   23.9046 C   0  0  2  0  0  0  0  0  0  0  0  0
  -17.1036  -20.8644   26.5442 C   0  0  2  0  0  0  0  0  0  0  0  0
  -26.5858  -31.7428   25.3202 C   0  0  0  0  0  0  0  0  0  0  0  0
  -23.3755  -19.1896   24.6746 N   0  0  0  0  0  0  0  0  0  0  0  0
  -23.3054  -20.4292   25.1888 N   0  0  0  0  0  0  0  0  0  0  0  0
  -25.5849  -30.8842   21.9847 N   0  0  0  0  0  0  0  0  0  0  0  0
  -20.5094  -19.9735   27.7546 N   0  0  0  0  0  0  0  0  0  0  0  0
  -24.0470  -22.6548   24.8612 N   0  0  0  0  0  0  0  0  0  0  0  0
  -25.9206  -20.4144   21.4164 N   0  0  0  0  0  0  0  0  0  0  0  0
  -27.4319  -28.2953   20.2007 N   0  0  0  0  0  0  0  0  0  0  0  0
  -25.4627  -33.5937   24.0101 N   0  0  0  0  0  0  0  0  0  0  0  0
  -18.4966  -20.4845   26.6228 N   0  0  0  0  0  0  0  0  0  0  0  0
  -23.0085  -36.0963   23.1259 N   0  3  0  0  0  0  0  0  0  0  0  0
  -17.5686  -23.0034   25.3574 N   0  3  0  0  0  0  0  0  0  0  0  0
  -25.7242  -22.4700   22.4138 O   0  0  0  0  0  0  0  0  0  0  0  0
  -26.5517  -28.5448   22.3421 O   0  0  0  0  0  0  0  0  0  0  0  0
  -27.4437  -32.2028   22.4772 O   0  0  0  0  0  0  0  0  0  0  0  0
  -23.1491  -33.4483   24.0664 O   0  0  0  0  0  0  0  0  0  0  0  0
  -18.5799  -20.5319   28.9136 O   0  0  0  0  0  0  0  0  0  0  0  0
  -25.3962  -14.9710   20.3537 O   0  0  0  0  0  0  0  0  0  0  0  0
  -20.1206  -28.2304   20.9114 O   0  0  0  0  0  0  0  0  0  1  0  0
  -30.6405  -14.3635   18.7625 F   0  0  0  0  0  0  0  0  0  0  0  0
  -26.6641  -16.9290   18.8701 F   0  0  0  0  0  0  0  0  0  0  0  0
  1  2  1  0  0  0  0
  1  5  2  0  0  0  0
  2  6  2  0  0  0  0
  3  8  2  0  0  0  0
  3 15  1  0  0  0  0
  4  9  1  0  0  0  0
  4 15  2  0  0  0  0
  5 17  1  0  0  0  0
  6 19  1  0  0  0  0
  7 10  2  0  0  0  0
  7 18  1  0  0  0  0
  8 27  1  0  0  0  0
  9 27  2  0  0  0  0
 10 28  1  0  0  0  0
 11 12  2  0  0  0  0
 11 29  1  0  0  0  0
 12 30  1  0  0  0  0
 13 20  1  0  0  0  0
 13 28  2  0  0  0  0
 14 30  2  0  0  0  0
 14 31  1  0  0  0  0
 15 32  1  0  0  0  0
 16 32  1  0  0  0  0
 16 33  2  0  0  0  0
 16 34  1  0  0  0  0
 17 19  2  0  0  0  0
 17 39  1  0  0  0  0
 18 20  2  0  0  0  0
 18 40  1  0  0  0  0
 19 50  1  0  0  0  0
 20 42  1  0  0  0  0
 21 22  2  0  0  0  0
 21 23  1  0  0  0  0
 21 41  1  0  0  0  0
 22 24  1  0  0  0  0
 22 51  1  0  0  0  0
 23 26  2  0  0  0  0
 23 54  1  0  0  0  0
 24 25  2  0  0  0  0
 24 55  1  0  0  0  0
 25 26  1  0  0  0  0
 25 56  1  0  0  0  0
 26 63  1  0  0  0  0
 27 85  1  0  0  0  0
 28 86  1  0  0  0  0
 29 31  2  0  0  0  0
 29 85  1  0  0  0  0
 30 87  1  0  0  0  0
 31 88  1  0  0  0  0
 32 69  2  0  0  0  0
 33 70  1  0  0  0  0
 33 73  1  0  0  0  0
 34 74  1  0  0  0  0
 34 80  2  0  0  0  0
 35 52  1  0  0  0  0
 35 75  1  0  0  0  0
 35 81  2  0  0  0  0
 36 65  1  0  0  0  0
 36 71  1  0  0  0  0
 36 82  2  0  0  0  0
 37 66  1  0  0  0  0
 37 76  1  0  0  0  0
 37 83  2  0  0  0  0
 38 72  1  0  0  0  0
 38 77  1  0  0  0  0
 38 84  2  0  0  0  0
 39 43  1  0  0  0  0
 40 52  1  0  0  0  0
 41 44  1  0  0  0  0
 42 71  1  0  0  0  0
 43 46  1  0  0  0  0
 44 51  1  0  0  0  0
 45 47  1  0  0  0  0
 45 48  1  0  0  0  0
 46 50  1  0  0  0  0
 47 53  1  0  0  0  0
 48 72  1  0  0  0  0
 49 53  1  0  0  0  0
 49 72  1  0  0  0  0
 50 75  1  0  0  0  0
 51 86  1  0  0  0  0
 52 71  1  0  0  0  0
 53 70  1  0  0  0  0
 57 66  1  0  0  0  0
 58 67  1  0  0  0  0
 59 68  1  0  0  0  0
 60 68  1  0  0  0  0
 61 68  1  0  0  0  0
 62 78  1  0  0  0  0
 63 79  1  0  0  0  0
 64 67  1  0  0  0  0
 64 79  1  0  0  0  0
 65 68  1  0  0  0  0
 65 76  1  0  0  0  0
 66 78  1  0  0  0  0
 67 77  1  0  0  0  0
 69 70  1  0  0  0  0
M  CHG  2  78   1  79   1
M  ISO  4  38 100  51 101  77 100  86 101
M  END
> <Batch ID>
0150

> <Smiles>
CNC(C)C(=O)NC(C(=O)N1Cc2cc([101O:1][101CH:1]3CCc4c(C)c(CNCC(C)[100NH:0][100C:0](=O)N5CCCC(n6nc(-c7ccc(Oc8ccc(F)cc8F)cc7)c(C(N)=O)c6N)C5)c(C)c(C)c43)ccc2CC1C(=O)NC1CCCc2ccccc21)C(C)(C)C

> <Shape>
0.249

> <Color>
0.072

> <Negative vol penalty>
0.000

$$$$

  -OEChem-04052321413D

 87 96  0     1  0  0  0  0  0999 V2000
  -25.0584  -15.9905   22.9451 C   0  0  0  0  0  0  0  0  0  0  0  0
  -25.6844  -17.1795   23.3054 C   0  0  0  0  0  0  0  0  0  0  0  0
  -26.3588  -12.7572   21.6971 C   0  0  0  0  0  0  0  0  0  0  0  0
  -26.0607  -13.5894   19.4486 C   0  0  0  0  0  0  0  0  0  0  0  0
  -24.0940  -15.9892   21.9382 C   0  0  0  0  0  0  0  0  0  0  0  0
  -25.3471  -18.3677   22.6582 C   0  0  0  0  0  0  0  0  0  0  0  0
  -25.1381  -23.9706   25.1219 C   0  0  0  0  0  0  0  0  0  0  0  0
  -25.0846  -12.1913   21.6567 C   0  0  0  0  0  0  0  0  0  0  0  0
  -24.7864  -13.0234   19.4082 C   0  0  0  0  0  0  0  0  0  0  0  0
  -26.0428  -25.0314   25.1178 C   0  0  0  0  0  0  0  0  0  0  0  0
  -22.0517  -10.2190   22.0125 C   0  0  0  0  0  0  0  0  0  0  0  0
  -21.9052   -8.9164   22.4893 C   0  0  0  0  0  0  0  0  0  0  0  0
  -24.8783  -26.0094   23.2451 C   0  0  0  0  0  0  0  0  0  0  0  0
  -23.4755   -8.1321   20.8292 C   0  0  0  0  0  0  0  0  0  0  0  0
  -26.8469  -13.4563   20.5931 C   0  0  0  0  0  0  0  0  0  0  0  0
  -29.3746  -13.4370   20.2498 C   0  0  0  0  0  0  0  0  0  0  0  0
  -23.7377  -17.1796   21.2850 C   0  0  0  0  0  0  0  0  0  0  0  0
  -24.1015  -23.9156   24.1791 C   0  0  0  0  0  0  0  0  0  0  0  0
  -24.3780  -18.3820   21.6408 C   0  0  0  0  0  0  0  0  0  0  0  0
  -23.9602  -24.9481   23.2410 C   0  0  0  0  0  0  0  0  0  0  0  0
  -29.5782  -26.1284   20.4237 C   0  0  0  0  0  0  0  0  0  0  0  0
  -29.6486  -26.3207   21.7989 C   0  0  0  0  0  0  0  0  0  0  0  0
  -29.0578  -27.4426   22.3696 C   0  0  0  0  0  0  0  0  0  0  0  0
  -24.2984  -12.3244   20.5122 C   0  0  0  0  0  0  0  0  0  0  0  0
  -25.9147  -26.0496   24.1775 C   0  0  0  0  0  0  0  0  0  0  0  0
  -22.9101  -10.4782   20.9440 C   0  0  0  0  0  0  0  0  0  0  0  0
  -22.6171   -7.8730   21.8977 C   0  0  0  0  0  0  0  0  0  0  0  0
  -23.6220   -9.4348   20.3524 C   0  0  0  0  0  0  0  0  0  0  0  0
  -28.1628  -14.0416   20.6345 C   0  0  0  0  0  0  0  0  0  0  0  0
  -28.9109  -27.0798   19.6691 C   0  0  0  0  0  0  0  0  0  0  0  0
  -28.4139  -28.3353   21.5279 C   0  0  0  0  0  0  0  0  0  0  0  0
  -30.3267  -14.4001   20.4791 C   0  0  0  0  0  0  0  0  0  0  0  0
  -29.6178  -12.1225   19.7315 C   0  0  0  0  0  0  0  0  0  0  0  0
  -23.2880  -21.9061   21.8544 C   0  0  0  0  0  0  0  0  0  0  0  0
  -20.6713  -23.8126   21.6530 C   0  0  0  0  0  0  0  0  0  0  0  0
  -20.0289  -27.0320   20.7206 C   0  0  0  0  0  0  0  0  0  0  0  0
  -30.0064  -20.2936   20.6184 C   0  0  0  0  0  0  0  0  0  0  0  0
  -22.7237  -17.1205   20.1702 C   0  0  0  0  0  0  0  0  0  0  0  0
  -23.1179  -22.7782   24.2138 C   0  0  0  0  0  0  0  0  0  0  0  0
  -22.8526  -24.9463   22.2204 C   0  0  0  0  0  0  0  0  0  0  0  0
  -22.1540  -18.4853   19.7920 C   0  0  0  0  0  0  0  0  0  0  0  0
  -31.2386  -18.1728   23.2795 C   0  0  0  0  0  0  0  0  0  0  0  0
  -31.7344  -24.7996   19.9868 C   0  0  0  0  0  0  0  0  0  0  0  0
  -23.2741  -19.5113   19.6529 C   0  0  0  0  0  0  0  0  0  0  0  0
  -30.6965  -16.8066   22.8554 C   0  0  0  0  0  0  0  0  0  0  0  0
  -31.9495  -23.4882   20.7375 C   0  0  0  0  0  0  0  0  0  0  0  0
  -29.6125  -23.5931   20.2861 C   0  0  0  0  0  0  0  0  0  0  0  0
  -30.2411  -19.2845   22.9678 C   0  0  0  0  0  0  0  0  0  0  0  0
  -29.2690  -17.9803   21.1163 C   0  0  0  0  0  0  0  0  0  0  0  0
  -30.2098  -24.9178   19.7737 C   0  0  1  0  0  0  0  0  0  0  0  0
  -24.0214  -19.6955   20.9791 C   0  0  1  0  0  0  0  0  0  0  0  0
  -22.4079  -22.5613   22.8810 C   0  0  1  0  0  0  0  0  0  0  0  0
  -30.2408  -16.8167   21.3842 C   0  0  2  0  0  0  0  0  0  0  0  0
  -30.7877  -22.6230   20.2714 C   0  0  2  0  0  0  0  0  0  0  0  0
  -30.3588  -25.3262   22.6610 C   0  0  0  0  0  0  0  0  0  0  0  0
  -28.8020  -26.9276   18.1872 C   0  0  0  0  0  0  0  0  0  0  0  0
  -27.7625  -29.5601   22.0818 C   0  0  0  0  0  0  0  0  0  0  0  0
  -18.2159  -28.4828   19.7689 C   0  0  0  0  0  0  0  0  0  0  0  0
  -21.1724  -22.6214   18.8890 C   0  0  0  0  0  0  0  0  0  0  0  0
  -20.1144  -24.6611   17.8948 C   0  0  0  0  0  0  0  0  0  0  0  0
  -18.7791  -23.1608   19.3742 C   0  0  0  0  0  0  0  0  0  0  0  0
  -19.9906  -28.7600   23.1230 C   0  0  0  0  0  0  0  0  0  0  0  0
  -29.1166  -27.6800   23.8590 C   0  0  0  0  0  0  0  0  0  0  0  0
  -28.1222  -26.8134   24.6240 C   0  0  0  0  0  0  0  0  0  1  0  0
  -20.5662  -24.6327   20.3900 C   0  0  1  0  0  0  0  0  0  0  0  0
  -18.8709  -27.9607   21.0382 C   0  0  2  0  0  0  0  0  0  0  0  0
  -20.1804  -23.7713   19.1544 C   0  0  0  0  0  0  0  0  0  0  0  0
  -28.3273  -15.2918   21.0749 N   0  0  0  0  0  0  0  0  0  0  0  0
  -28.3248  -28.1822   20.1876 N   0  0  0  0  0  0  0  0  0  0  0  0
  -29.6536  -15.4807   20.9684 N   0  0  0  0  0  0  0  0  0  0  0  0
  -21.9198  -23.8094   22.2910 N   0  0  0  0  0  0  0  0  0  0  0  0
  -29.8624  -19.2503   21.5481 N   0  0  0  0  0  0  0  0  0  0  0  0
  -31.6656  -14.4194   20.3079 N   0  0  0  0  0  0  0  0  0  0  0  0
  -28.5265  -11.2604   19.5579 N   0  0  0  0  0  0  0  0  0  0  0  0
  -23.2522  -20.5250   21.8817 N   0  0  0  0  0  0  0  0  0  0  0  0
  -19.6297  -25.7128   20.6814 N   0  0  0  0  0  0  0  0  0  0  0  0
  -30.5704  -21.4647   21.1093 N   0  0  0  0  0  0  0  0  0  0  0  0
  -19.3457  -29.1266   21.8358 N   0  3  0  0  0  0  0  0  0  0  0  0
  -30.7707  -11.7186   19.4467 O   0  0  0  0  0  0  0  0  0  0  0  0
  -23.9493  -22.6021   21.0929 O   0  0  0  0  0  0  0  0  0  0  0  0
  -19.6801  -23.2031   22.0626 O   0  0  0  0  0  0  0  0  0  0  0  0
  -21.1725  -27.4367   20.5230 O   0  0  0  0  0  0  0  0  0  0  0  0
  -29.6625  -20.1875   19.4362 O   0  0  0  0  0  0  0  0  0  0  0  0
  -23.0550  -11.7721   20.4723 O   0  0  0  0  0  0  0  0  0  0  0  0
  -26.7967  -27.0858   24.1709 O   0  0  0  0  0  0  0  0  0  1  0  0
  -22.4775   -6.6224   22.3566 F   0  0  0  0  0  0  0  0  0  0  0  0
  -24.4490   -9.6778   19.3263 F   0  0  0  0  0  0  0  0  0  0  0  0
  1  2  1  0  0  0  0
  1  5  2  0  0  0  0
  2  6  2  0  0  0  0
  3  8  2  0  0  0  0
  3 15  1  0  0  0  0
  4  9  1  0  0  0  0
  4 15  2  0  0  0  0
  5 17  1  0  0  0  0
  6 19  1  0  0  0  0
  7 10  2  0  0  0  0
  7 18  1  0  0  0  0
  8 24  1  0  0  0  0
  9 24  2  0  0  0  0
 10 25  1  0  0  0  0
 11 12  2  0  0  0  0
 11 26  1  0  0  0  0
 12 27  1  0  0  0  0
 13 20  1  0  0  0  0
 13 25  2  0  0  0  0
 14 27  2  0  0  0  0
 14 28  1  0  0  0  0
 15 29  1  0  0  0  0
 16 29  1  0  0  0  0
 16 32  2  0  0  0  0
 16 33  1  0  0  0  0
 17 19  2  0  0  0  0
 17 38  1  0  0  0  0
 18 20  2  0  0  0  0
 18 39  1  0  0  0  0
 19 51  1  0  0  0  0
 20 40  1  0  0  0  0
 21 22  1  0  0  0  0
 21 30  2  0  0  0  0
 21 50  1  0  0  0  0
 22 23  2  0  0  0  0
 22 55  1  0  0  0  0
 23 31  1  0  0  0  0
 23 63  1  0  0  0  0
 24 84  1  0  0  0  0
 25 85  1  0  0  0  0
 26 28  2  0  0  0  0
 26 84  1  0  0  0  0
 27 86  1  0  0  0  0
 28 87  1  0  0  0  0
 29 68  2  0  0  0  0
 30 56  1  0  0  0  0
 30 69  1  0  0  0  0
 31 57  1  0  0  0  0
 31 69  2  0  0  0  0
 32 70  1  0  0  0  0
 32 73  1  0  0  0  0
 33 74  1  0  0  0  0
 33 79  2  0  0  0  0
 34 52  1  0  0  0  0
 34 75  1  0  0  0  0
 34 80  2  0  0  0  0
 35 65  1  0  0  0  0
 35 71  1  0  0  0  0
 35 81  2  0  0  0  0
 36 66  1  0  0  0  0
 36 76  1  0  0  0  0
 36 82  2  0  0  0  0
 37 72  1  0  0  0  0
 37 77  1  0  0  0  0
 37 83  2  0  0  0  0
 38 41  1  0  0  0  0
 39 52  1  0  0  0  0
 40 71  1  0  0  0  0
 41 44  1  0  0  0  0
 42 45  1  0  0  0  0
 42 48  1  0  0  0  0
 43 46  1  0  0  0  0
 43 50  1  0  0  0  0
 44 51  1  0  0  0  0
 45 53  1  0  0  0  0
 46 54  1  0  0  0  0
 47 50  1  0  0  0  0
 47 54  1  0  0  0  0
 48 72  1  0  0  0  0
 49 53  1  0  0  0  0
 49 72  1  0  0  0  0
 51 75  1  0  0  0  0
 52 71  1  0  0  0  0
 53 70  1  0  0  0  0
 54 77  1  0  0  0  0
 58 66  1  0  0  0  0
 59 67  1  0  0  0  0
 60 67  1  0  0  0  0
 61 67  1  0  0  0  0
 62 78  1  0  0  0  0
 63 64  1  0  0  0  0
 64 85  1  0  0  0  0
 65 67  1  0  0  0  0
 65 76  1  0  0  0  0
 66 78  1  0  0  0  0
 68 70  1  0  0  0  0
M  CHG  1  78   1
M  ISO  4  37 100  64 101  77 100  85 101
M  END
> <Batch ID>
0150

> <Smiles>
CNC(C)C(=O)NC(C(=O)N1Cc2cc([101O:1][101CH2:1]Cc3c(C)nc(C)c(C4CCC([100NH:0][100C:0](=O)N5CCCC(n6nc(-c7ccc(Oc8ccc(F)cc8F)cc7)c(C(N)=O)c6N)C5)C4)c3C)ccc2CC1C(=O)NC1CCCc2ccccc21)C(C)(C)C

> <Shape>
0.224

> <Color>
0.063

> <Negative vol penalty>
0.000

$$$$

  -OEChem-04052321413D

 90 99  0     1  0  0  0  0  0999 V2000
  -24.8608  -27.8868   20.0374 C   0  0  0  0  0  0  0  0  0  0  0  0
  -25.1374  -26.5602   19.7226 C   0  0  0  0  0  0  0  0  0  0  0  0
  -21.2255  -22.5404   20.6727 C   0  0  0  0  0  0  0  0  0  0  0  0
  -19.7437  -22.5191   18.7646 C   0  0  0  0  0  0  0  0  0  0  0  0
  -25.8873  -28.7302   20.4606 C   0  0  0  0  0  0  0  0  0  0  0  0
  -26.4408  -26.0765   19.8297 C   0  0  0  0  0  0  0  0  0  0  0  0
  -28.1497  -20.4413   21.5118 C   0  0  0  0  0  0  0  0  0  0  0  0
  -20.4233  -23.5033   21.2850 C   0  0  0  0  0  0  0  0  0  0  0  0
  -18.9414  -23.4819   19.3769 C   0  0  0  0  0  0  0  0  0  0  0  0
  -28.5280  -19.3176   20.7782 C   0  0  0  0  0  0  0  0  0  0  0  0
  -19.9301  -26.8399   21.0652 C   0  0  0  0  0  0  0  0  0  0  0  0
  -20.5664  -27.9270   21.6642 C   0  0  0  0  0  0  0  0  0  0  0  0
  -28.5064  -11.9650   19.0233 C   0  0  0  0  0  0  0  0  0  0  0  0
  -28.4327  -13.9470   20.4026 C   0  0  0  0  0  0  0  0  0  0  0  0
  -30.8470  -19.9124   21.0744 C   0  0  0  0  0  0  0  0  0  0  0  0
  -30.4793  -13.3370   19.2729 C   0  0  0  0  0  0  0  0  0  0  0  0
  -19.5997  -27.3198   23.7934 C   0  0  0  0  0  0  0  0  0  0  0  0
  -20.8858  -22.0484   19.4125 C   0  0  0  0  0  0  0  0  0  0  0  0
  -23.0734  -21.1758   18.4322 C   0  0  0  0  0  0  0  0  0  0  0  0
  -27.2022  -28.2540   20.5823 C   0  0  0  0  0  0  0  0  0  0  0  0
  -29.1185  -21.3163   22.0238 C   0  0  0  0  0  0  0  0  0  0  0  0
  -27.4860  -26.9146   20.2537 C   0  0  0  0  0  0  0  0  0  0  0  0
  -27.7997  -12.8290   19.8596 C   0  0  0  0  0  0  0  0  0  0  0  0
  -30.4785  -21.0451   21.8163 C   0  0  0  0  0  0  0  0  0  0  0  0
  -29.8463  -12.2189   18.7299 C   0  0  0  0  0  0  0  0  0  0  0  0
  -19.2812  -23.9740   20.6371 C   0  0  0  0  0  0  0  0  0  0  0  0
  -29.8767  -19.0546   20.5570 C   0  0  0  0  0  0  0  0  0  0  0  0
  -19.1285  -25.9927   21.8304 C   0  0  0  0  0  0  0  0  0  0  0  0
  -29.7725  -14.2011   20.1093 C   0  0  0  0  0  0  0  0  0  0  0  0
  -20.4013  -28.1670   23.0283 C   0  0  0  0  0  0  0  0  0  0  0  0
  -18.9633  -26.2326   23.1945 C   0  0  0  0  0  0  0  0  0  0  0  0
  -21.7145  -21.0542   18.7792 C   0  0  0  0  0  0  0  0  0  0  0  0
  -23.3918  -19.9672   17.8628 C   0  0  0  0  0  0  0  0  0  0  0  0
  -23.9678  -22.2824   18.6089 C   0  0  0  0  0  0  0  0  0  0  0  0
  -29.8259  -24.3841   21.5856 C   0  0  0  0  0  0  0  0  0  0  0  0
  -31.9407  -23.8367   23.9836 C   0  0  0  0  0  0  0  0  0  0  0  0
  -33.8358  -21.5906   25.7187 C   0  0  0  0  0  0  0  0  0  0  0  0
  -22.2060  -14.3257   18.3936 C   0  0  0  0  0  0  0  0  0  0  0  0
  -28.2870  -29.2157   20.9984 C   0  0  0  0  0  0  0  0  0  0  0  0
  -28.6950  -22.5095   22.8358 C   0  0  0  0  0  0  0  0  0  0  0  0
  -31.5583  -21.9422   22.3618 C   0  0  0  0  0  0  0  0  0  0  0  0
  -29.5738  -28.5264   21.4447 C   0  0  0  0  0  0  0  0  0  0  0  0
  -20.8017  -16.3032   15.7870 C   0  0  0  0  0  0  0  0  0  0  0  0
  -29.9634  -27.4317   20.4564 C   0  0  0  0  0  0  0  0  0  0  0  0
  -24.5675  -12.1000   21.9475 C   0  0  0  0  0  0  0  0  0  0  0  0
  -21.0202  -17.7412   16.2607 C   0  0  0  0  0  0  0  0  0  0  0  0
  -23.7125  -13.2326   21.3860 C   0  0  0  0  0  0  0  0  0  0  0  0
  -25.4531  -13.6838   19.6189 C   0  0  0  0  0  0  0  0  0  0  0  0
  -20.4826  -15.3679   16.9513 C   0  0  0  0  0  0  0  0  0  0  0  0
  -21.6786  -16.8357   18.5290 C   0  0  0  0  0  0  0  0  0  0  0  0
  -26.3385  -12.5509   20.1795 C   0  0  2  0  0  0  0  0  0  0  0  0
  -28.8828  -26.3463   20.3810 C   0  0  1  0  0  0  0  0  0  0  0  0
  -29.7489  -23.6119   22.8723 C   0  0  1  0  0  0  0  0  0  0  0  0
  -26.0685  -12.3224   21.6913 C   0  0  2  0  0  0  0  0  0  0  0  0
  -22.0584  -17.8057   17.3971 C   0  0  2  0  0  0  0  0  0  0  0  0
  -23.9692  -13.4310   19.8936 C   0  0  2  0  0  0  0  0  0  0  0  0
  -30.6025  -11.2952   17.8364 C   0  0  0  0  0  0  0  0  0  0  0  0
  -35.4903  -21.4467   27.6000 C   0  0  0  0  0  0  0  0  0  0  0  0
  -26.6477  -11.0049   23.7489 C   0  0  0  0  0  0  0  0  0  0  0  0
  -26.4412   -9.8444   21.5321 C   0  0  0  0  0  0  0  0  0  0  0  0
  -34.1113  -24.9606   22.1574 C   0  0  0  0  0  0  0  0  0  0  0  0
  -35.8199  -23.9330   23.6717 C   0  0  0  0  0  0  0  0  0  0  0  0
  -34.2767  -25.6879   24.5445 C   0  0  0  0  0  0  0  0  0  0  0  0
  -32.0626  -19.8234   27.2972 C   0  0  0  0  0  0  0  0  0  0  0  0
  -31.5049  -17.3658   20.1665 C   0  0  0  0  0  0  0  0  0  1  0  0
  -31.4413  -15.8791   19.8744 C   0  0  0  0  0  0  0  0  0  0  0  0
  -33.3763  -23.3759   24.0586 C   0  0  1  0  0  0  0  0  0  0  0  0
  -34.0228  -21.3689   27.2088 C   0  0  2  0  0  0  0  0  0  0  0  0
  -26.8559  -11.1280   22.2433 C   0  0  0  0  0  0  0  0  0  0  0  0
  -34.3759  -24.4733   23.5960 C   0  0  0  0  0  0  0  0  0  0  0  0
  -21.2047  -19.8624   18.4570 N   0  0  0  0  0  0  0  0  0  0  0  0
  -22.2488  -19.2242   17.9015 N   0  0  0  0  0  0  0  0  0  0  0  0
  -31.0935  -23.0997   23.1440 N   0  0  0  0  0  0  0  0  0  0  0  0
  -21.5060  -15.4760   17.9938 N   0  0  0  0  0  0  0  0  0  0  0  0
  -24.5353  -19.4782   17.3377 N   0  0  0  0  0  0  0  0  0  0  0  0
  -24.7062  -22.3614   19.7976 N   0  0  0  0  0  0  0  0  0  0  0  0
  -28.9692  -25.4667   21.5270 N   0  0  0  0  0  0  0  0  0  0  0  0
  -33.5862  -22.9149   25.4267 N   0  0  0  0  0  0  0  0  0  0  0  0
  -23.1632  -14.5172   19.3825 N   0  0  0  0  0  0  0  0  0  0  0  0
  -33.5019  -20.0293   27.6026 N   0  3  0  0  0  0  0  0  0  0  0  0
  -24.0959  -23.1833   17.7456 O   0  0  0  0  0  0  0  0  0  0  0  0
  -30.6060  -24.0252   20.7114 O   0  0  0  0  0  0  0  0  0  0  0  0
  -31.5824  -24.8101   24.6512 O   0  0  0  0  0  0  0  0  0  0  0  0
  -33.9080  -20.6807   24.8957 O   0  0  0  0  0  0  0  0  0  0  0  0
  -21.9975  -13.2115   17.9015 O   0  0  0  0  0  0  0  0  0  0  0  0
  -18.4980  -24.9133   21.2344 O   0  0  0  0  0  0  0  0  0  0  0  0
  -30.2486  -17.9589   19.8407 O   0  0  0  0  0  0  0  0  0  1  0  0
  -30.3945  -15.2990   20.6431 O   0  0  0  0  0  0  0  0  0  0  0  0
  -21.0137  -29.2101   23.6036 F   0  0  0  0  0  0  0  0  0  0  0  0
  -18.1954  -25.4216   23.9349 F   0  0  0  0  0  0  0  0  0  0  0  0
  1  2  1  0  0  0  0
  1  5  2  0  0  0  0
  2  6  2  0  0  0  0
  3  8  2  0  0  0  0
  3 18  1  0  0  0  0
  4  9  1  0  0  0  0
  4 18  2  0  0  0  0
  5 20  1  0  0  0  0
  6 22  1  0  0  0  0
  7 10  2  0  0  0  0
  7 21  1  0  0  0  0
  8 26  1  0  0  0  0
  9 26  2  0  0  0  0
 10 27  1  0  0  0  0
 11 12  2  0  0  0  0
 11 28  1  0  0  0  0
 12 30  1  0  0  0  0
 13 23  2  0  0  0  0
 13 25  1  0  0  0  0
 14 23  1  0  0  0  0
 14 29  2  0  0  0  0
 15 24  1  0  0  0  0
 15 27  2  0  0  0  0
 16 25  2  0  0  0  0
 16 29  1  0  0  0  0
 17 30  2  0  0  0  0
 17 31  1  0  0  0  0
 18 32  1  0  0  0  0
 19 32  1  0  0  0  0
 19 33  2  0  0  0  0
 19 34  1  0  0  0  0
 20 22  2  0  0  0  0
 20 39  1  0  0  0  0
 21 24  2  0  0  0  0
 21 40  1  0  0  0  0
 22 52  1  0  0  0  0
 23 51  1  0  0  0  0
 24 41  1  0  0  0  0
 25 57  1  0  0  0  0
 26 86  1  0  0  0  0
 27 87  1  0  0  0  0
 28 31  2  0  0  0  0
 28 86  1  0  0  0  0
 29 88  1  0  0  0  0
 30 89  1  0  0  0  0
 31 90  1  0  0  0  0
 32 71  2  0  0  0  0
 33 72  1  0  0  0  0
 33 75  1  0  0  0  0
 34 76  1  0  0  0  0
 34 81  2  0  0  0  0
 35 53  1  0  0  0  0
 35 77  1  0  0  0  0
 35 82  2  0  0  0  0
 36 67  1  0  0  0  0
 36 73  1  0  0  0  0
 36 83  2  0  0  0  0
 37 68  1  0  0  0  0
 37 78  1  0  0  0  0
 37 84  2  0  0  0  0
 38 74  1  0  0  0  0
 38 79  1  0  0  0  0
 38 85  2  0  0  0  0
 39 42  1  0  0  0  0
 40 53  1  0  0  0  0
 41 73  1  0  0  0  0
 42 44  1  0  0  0  0
 43 46  1  0  0  0  0
 43 49  1  0  0  0  0
 44 52  1  0  0  0  0
 45 47  1  0  0  0  0
 45 54  1  0  0  0  0
 46 55  1  0  0  0  0
 47 56  1  0  0  0  0
 48 51  1  0  0  0  0
 48 56  1  0  0  0  0
 49 74  1  0  0  0  0
 50 55  1  0  0  0  0
 50 74  1  0  0  0  0
 51 54  1  0  0  0  0
 52 77  1  0  0  0  0
 53 73  1  0  0  0  0
 54 69  1  0  0  0  0
 55 72  1  0  0  0  0
 56 79  1  0  0  0  0
 58 68  1  0  0  0  0
 59 69  1  0  0  0  0
 60 69  1  0  0  0  0
 61 70  1  0  0  0  0
 62 70  1  0  0  0  0
 63 70  1  0  0  0  0
 64 80  1  0  0  0  0
 65 66  1  0  0  0  0
 65 87  1  0  0  0  0
 66 88  1  0  0  0  0
 67 70  1  0  0  0  0
 67 78  1  0  0  0  0
 68 80  1  0  0  0  0
 71 72  1  0  0  0  0
M  CHG  1  80   1
M  ISO  4  38 100  65 101  79 100  87 101
M  END
> <Batch ID>
0150

> <Smiles>
CNC(C)C(=O)NC(C(=O)N1Cc2cc([101O:1][101CH2:1]COc3cc(C)cc(C4CC([100NH:0][100C:0](=O)N5CCCC(n6nc(-c7ccc(Oc8ccc(F)cc8F)cc7)c(C(N)=O)c6N)C5)CCC4C(C)C)c3)ccc2CC1C(=O)NC1CCCc2ccccc21)C(C)(C)C

> <Shape>
0.208

> <Color>
0.073

> <Negative vol penalty>
0.000

$$$$

  -OEChem-04052321413D

 92102  0     1  0  0  0  0  0999 V2000
  -16.7017  -27.1946   21.2533 C   0  0  0  0  0  0  0  0  0  0  0  0
  -17.9050  -26.5407   21.0087 C   0  0  0  0  0  0  0  0  0  0  0  0
  -23.0077  -10.7282   21.5844 C   0  0  0  0  0  0  0  0  0  0  0  0
  -24.6833   -8.9997   21.7883 C   0  0  0  0  0  0  0  0  0  0  0  0
  -16.6624  -28.5877   21.2940 C   0  0  0  0  0  0  0  0  0  0  0  0
  -19.0696  -27.2797   20.8036 C   0  0  0  0  0  0  0  0  0  0  0  0
  -24.7491  -25.7487   22.5081 C   0  0  0  0  0  0  0  0  0  0  0  0
  -22.0105   -9.7547   21.5264 C   0  0  0  0  0  0  0  0  0  0  0  0
  -23.6861   -8.0262   21.7304 C   0  0  0  0  0  0  0  0  0  0  0  0
  -25.8138  -25.1746   21.8149 C   0  0  0  0  0  0  0  0  0  0  0  0
  -21.3987   -6.6784   23.8213 C   0  0  0  0  0  0  0  0  0  0  0  0
  -21.4647   -5.6299   24.7388 C   0  0  0  0  0  0  0  0  0  0  0  0
  -29.6077  -19.3049   14.6923 C   0  0  0  0  0  0  0  0  0  0  0  0
  -26.7239  -27.3709   21.4061 C   0  0  0  0  0  0  0  0  0  0  0  0
  -29.1151  -21.3123   13.4414 C   0  0  0  0  0  0  0  0  0  0  0  0
  -21.6164   -4.0473   22.9196 C   0  0  0  0  0  0  0  0  0  0  0  0
  -24.3441  -10.3508   21.7153 C   0  0  0  0  0  0  0  0  0  0  0  0
  -25.5079  -12.3816   22.7297 C   0  0  0  0  0  0  0  0  0  0  0  0
  -17.8289  -29.3439   21.0990 C   0  0  0  0  0  0  0  0  0  0  0  0
  -24.6579  -27.1411   22.6464 C   0  0  0  0  0  0  0  0  0  0  0  0
  -19.0456  -28.6842   20.8405 C   0  0  0  0  0  0  0  0  0  0  0  0
  -28.7887  -19.7503   15.7298 C   0  0  0  0  0  0  0  0  0  0  0  0
  -25.6584  -27.9600   22.1037 C   0  0  0  0  0  0  0  0  0  0  0  0
  -29.7710  -20.0859   13.5482 C   0  0  0  0  0  0  0  0  0  0  0  0
  -28.1328  -20.9767   15.6230 C   0  0  0  0  0  0  0  0  0  0  0  0
  -22.3497   -8.4037   21.5995 C   0  0  0  0  0  0  0  0  0  0  0  0
  -26.7999  -25.9859   21.2613 C   0  0  0  0  0  0  0  0  0  0  0  0
  -21.4416   -6.4114   22.4529 C   0  0  0  0  0  0  0  0  0  0  0  0
  -28.2960  -21.7577   14.4788 C   0  0  0  0  0  0  0  0  0  0  0  0
  -21.5735   -4.3144   24.2880 C   0  0  0  0  0  0  0  0  0  0  0  0
  -21.5504   -5.0959   22.0020 C   0  0  0  0  0  0  0  0  0  0  0  0
  -25.3748  -11.3559   21.7746 C   0  0  0  0  0  0  0  0  0  0  0  0
  -26.6386  -13.0615   22.3480 C   0  0  0  0  0  0  0  0  0  0  0  0
  -24.6833  -12.6919   23.8608 C   0  0  0  0  0  0  0  0  0  0  0  0
  -22.5692  -29.3544   21.7284 C   0  0  0  0  0  0  0  0  0  0  0  0
  -24.4546  -31.3109   23.5003 C   0  0  0  0  0  0  0  0  0  0  0  0
  -27.5216  -31.9212   24.8670 C   0  0  0  0  0  0  0  0  0  0  0  0
  -29.9064  -15.3340   18.5825 C   0  0  0  0  0  0  0  0  0  0  0  0
  -17.7281  -30.8487   21.1053 C   0  0  0  0  0  0  0  0  0  0  0  0
  -23.5171  -27.7433   23.4201 C   0  0  0  0  0  0  0  0  0  0  0  0
  -25.6175  -29.4593   22.2416 C   0  0  0  0  0  0  0  0  0  0  0  0
  -19.0768  -31.5489   21.2497 C   0  0  0  0  0  0  0  0  0  0  0  0
  -30.1965  -11.9095   18.9530 C   0  0  0  0  0  0  0  0  0  0  0  0
  -20.1035  -30.9296   20.3067 C   0  0  0  0  0  0  0  0  0  0  0  0
  -28.9818  -11.5315   19.8004 C   0  0  0  0  0  0  0  0  0  0  0  0
  -28.6570  -22.4600   18.4151 C   0  0  0  0  0  0  0  0  0  0  0  0
  -26.2471  -23.1375   18.0462 C   0  0  0  0  0  0  0  0  0  0  0  0
  -28.8805  -23.7198   19.2481 C   0  0  0  0  0  0  0  0  0  0  0  0
  -26.4757  -24.3952   18.8810 C   0  0  0  0  0  0  0  0  0  0  0  0
  -27.9804  -17.5235   16.6296 C   0  0  0  0  0  0  0  0  0  0  0  0
  -29.9647  -18.6749   17.7004 C   0  0  0  0  0  0  0  0  0  0  0  0
  -29.8274  -12.9536   17.9055 C   0  0  0  0  0  0  0  0  0  0  0  0
  -27.8527  -16.6368   17.8716 C   0  0  0  0  0  0  0  0  0  0  0  0
  -29.7746  -17.7824   18.9234 C   0  0  0  0  0  0  0  0  0  0  0  0
  -28.0041  -13.8318   19.3276 C   0  0  0  0  0  0  0  0  0  0  0  0
  -28.6297  -18.8792   16.9616 C   0  0  0  0  0  0  0  0  0  0  0  0
  -20.3349  -29.4503   20.6378 C   0  0  1  0  0  0  0  0  0  0  0  0
  -23.2531  -29.2014   23.0575 C   0  0  1  0  0  0  0  0  0  0  0  0
  -28.3229  -12.7812   20.4107 C   0  0  1  0  0  0  0  0  0  0  0  0
  -27.5447  -22.6684   17.3841 C   0  0  0  0  0  0  0  0  0  0  0  0
  -27.5885  -24.1957   19.9088 C   0  0  0  0  0  0  0  0  0  1  0  0
  -30.6472  -19.6099   12.4391 C   0  0  0  0  0  0  0  0  0  0  0  0
  -28.7682  -33.6199   26.2299 C   0  0  0  0  0  0  0  0  0  0  0  0
  -24.6734  -33.1138   21.0484 C   0  0  0  0  0  0  0  0  0  0  0  0
  -26.6320  -34.2341   22.1334 C   0  0  0  0  0  0  0  0  0  0  0  0
  -24.3861  -34.3296   23.2149 C   0  0  0  0  0  0  0  0  0  0  0  0
  -28.0331  -29.9753   27.0375 C   0  0  0  0  0  0  0  0  0  0  0  0
  -26.3694  -22.9511   13.7577 C   0  0  0  0  0  0  0  0  0  0  0  0
  -25.6758  -32.1550   23.2261 C   0  0  1  0  0  0  0  0  0  0  0  0
  -27.9350  -32.3482   26.2638 C   0  0  2  0  0  0  0  0  0  0  0  0
  -25.3419  -33.4300   22.4013 C   0  0  0  0  0  0  0  0  0  0  0  0
  -26.3434  -11.3786   20.8552 N   0  0  0  0  0  0  0  0  0  0  0  0
  -27.0959  -12.4268   21.2308 N   0  0  0  0  0  0  0  0  0  0  0  0
  -24.4787  -30.0008   23.0015 N   0  0  0  0  0  0  0  0  0  0  0  0
  -29.2016  -14.1222   18.5239 N   0  0  0  0  0  0  0  0  0  0  0  0
  -29.1469  -16.5133   18.5566 N   0  0  0  0  0  0  0  0  0  0  0  0
  -27.2762  -14.1346   22.8622 N   0  0  0  0  0  0  0  0  0  0  0  0
  -24.9842  -12.0924   25.0915 N   0  0  0  0  0  0  0  0  0  0  0  0
  -27.3017  -21.4320   16.6725 N   0  0  0  0  0  0  0  0  0  0  0  0
  -21.1896  -29.3198   21.7983 N   0  0  0  0  0  0  0  0  0  0  0  0
  -26.2849  -32.4254   24.5238 N   0  0  0  0  0  0  0  0  0  0  0  0
  -28.7394  -31.2766   26.9163 N   0  3  0  0  0  0  0  0  0  0  0  0
  -23.6987  -13.4647   23.7788 O   0  0  0  0  0  0  0  0  0  0  0  0
  -23.2432  -29.4949   20.7147 O   0  0  0  0  0  0  0  0  0  0  0  0
  -23.5168  -31.7939   24.1399 O   0  0  0  0  0  0  0  0  0  0  0  0
  -28.2269  -31.2143   24.1504 O   0  0  0  0  0  0  0  0  0  0  0  0
  -31.1414  -15.3613   18.6546 O   0  0  0  0  0  0  0  0  0  0  0  0
  -21.3768   -7.4534   21.5432 O   0  0  0  0  0  0  0  0  0  0  0  0
  -27.8467  -25.4246   20.5792 O   0  0  0  0  0  0  0  0  0  1  0  0
  -27.6646  -22.9593   14.3540 O   0  0  0  0  0  0  0  0  0  0  0  0
  -21.6384   -3.3078   25.1693 F   0  0  0  0  0  0  0  0  0  0  0  0
  -21.5933   -4.8332   20.6886 F   0  0  0  0  0  0  0  0  0  0  0  0
  1  2  1  0  0  0  0
  1  5  2  0  0  0  0
  2  6  2  0  0  0  0
  3  8  2  0  0  0  0
  3 17  1  0  0  0  0
  4  9  1  0  0  0  0
  4 17  2  0  0  0  0
  5 19  1  0  0  0  0
  6 21  1  0  0  0  0
  7 10  2  0  0  0  0
  7 20  1  0  0  0  0
  8 26  1  0  0  0  0
  9 26  2  0  0  0  0
 10 27  1  0  0  0  0
 11 12  2  0  0  0  0
 11 28  1  0  0  0  0
 12 30  1  0  0  0  0
 13 22  1  0  0  0  0
 13 24  2  0  0  0  0
 14 23  1  0  0  0  0
 14 27  2  0  0  0  0
 15 24  1  0  0  0  0
 15 29  2  0  0  0  0
 16 30  2  0  0  0  0
 16 31  1  0  0  0  0
 17 32  1  0  0  0  0
 18 32  1  0  0  0  0
 18 33  2  0  0  0  0
 18 34  1  0  0  0  0
 19 21  2  0  0  0  0
 19 39  1  0  0  0  0
 20 23  2  0  0  0  0
 20 40  1  0  0  0  0
 21 57  1  0  0  0  0
 22 25  2  0  0  0  0
 22 56  1  0  0  0  0
 23 41  1  0  0  0  0
 24 62  1  0  0  0  0
 25 29  1  0  0  0  0
 25 79  1  0  0  0  0
 26 88  1  0  0  0  0
 27 89  1  0  0  0  0
 28 31  2  0  0  0  0
 28 88  1  0  0  0  0
 29 90  1  0  0  0  0
 30 91  1  0  0  0  0
 31 92  1  0  0  0  0
 32 72  2  0  0  0  0
 33 73  1  0  0  0  0
 33 77  1  0  0  0  0
 34 78  1  0  0  0  0
 34 83  2  0  0  0  0
 35 58  1  0  0  0  0
 35 80  1  0  0  0  0
 35 84  2  0  0  0  0
 36 69  1  0  0  0  0
 36 74  1  0  0  0  0
 36 85  2  0  0  0  0
 37 70  1  0  0  0  0
 37 81  1  0  0  0  0
 37 86  2  0  0  0  0
 38 75  1  0  0  0  0
 38 76  1  0  0  0  0
 38 87  2  0  0  0  0
 39 42  1  0  0  0  0
 40 58  1  0  0  0  0
 41 74  1  0  0  0  0
 42 44  1  0  0  0  0
 43 45  1  0  0  0  0
 43 52  1  0  0  0  0
 44 57  1  0  0  0  0
 45 59  1  0  0  0  0
 46 48  1  0  0  0  0
 46 60  1  0  0  0  0
 47 49  1  0  0  0  0
 47 60  1  0  0  0  0
 48 61  1  0  0  0  0
 49 61  1  0  0  0  0
 50 53  1  0  0  0  0
 50 56  1  0  0  0  0
 51 54  1  0  0  0  0
 51 56  1  0  0  0  0
 52 75  1  0  0  0  0
 53 76  1  0  0  0  0
 54 76  1  0  0  0  0
 55 59  1  0  0  0  0
 55 75  1  0  0  0  0
 57 80  1  0  0  0  0
 58 74  1  0  0  0  0
 59 73  1  0  0  0  0
 60 79  1  0  0  0  0
 61 89  1  0  0  0  0
 63 70  1  0  0  0  0
 64 71  1  0  0  0  0
 65 71  1  0  0  0  0
 66 71  1  0  0  0  0
 67 82  1  0  0  0  0
 68 90  1  0  0  0  0
 69 71  1  0  0  0  0
 69 81  1  0  0  0  0
 70 82  1  0  0  0  0
 72 73  1  0  0  0  0
M  CHG  1  82   1
M  ISO  4  38 100  61 101  76 100  89 101
M  END
> <Batch ID>
0150

> <Smiles>
CNC(C)C(=O)NC(C(=O)N1Cc2cc([101O:1][101CH:1]3CCC(Nc4c(OC)cc(C)cc4C4CC[100N:0]([100C:0](=O)N5CCCC(n6nc(-c7ccc(Oc8ccc(F)cc8F)cc7)c(C(N)=O)c6N)C5)CC4)CC3)ccc2CC1C(=O)NC1CCCc2ccccc21)C(C)(C)C

> <Shape>
0.276

> <Color>
0.110

> <Negative vol penalty>
0.000

$$$$

  -OEChem-04052321413D

 88 97  0     1  0  0  0  0  0999 V2000
  -27.5150  -36.9894   24.7963 C   0  0  0  0  0  0  0  0  0  0  0  0
  -28.1201  -36.0799   23.9348 C   0  0  0  0  0  0  0  0  0  0  0  0
  -24.0228   -9.9918   22.3086 C   0  0  0  0  0  0  0  0  0  0  0  0
  -24.0615   -9.0531   20.0828 C   0  0  0  0  0  0  0  0  0  0  0  0
  -26.4983  -36.5671   25.6518 C   0  0  0  0  0  0  0  0  0  0  0  0
  -27.7095  -34.7473   23.9291 C   0  0  0  0  0  0  0  0  0  0  0  0
  -26.9335  -29.1634   19.5093 C   0  0  0  0  0  0  0  0  0  0  0  0
  -22.8054   -9.3572   22.5551 C   0  0  0  0  0  0  0  0  0  0  0  0
  -22.8440   -8.4185   20.3293 C   0  0  0  0  0  0  0  0  0  0  0  0
  -27.2903  -27.8202   19.3980 C   0  0  0  0  0  0  0  0  0  0  0  0
  -21.7322   -6.2533   23.3592 C   0  0  0  0  0  0  0  0  0  0  0  0
  -21.5792   -5.5961   24.5799 C   0  0  0  0  0  0  0  0  0  0  0  0
  -25.4699  -27.2215   20.8633 C   0  0  0  0  0  0  0  0  0  0  0  0
  -23.7441  -22.2508   19.1901 C   0  0  0  0  0  0  0  0  0  0  0  0
  -25.0096  -23.9466   17.3720 C   0  0  0  0  0  0  0  0  0  0  0  0
  -19.7128   -7.0323   25.1193 C   0  0  0  0  0  0  0  0  0  0  0  0
  -24.6509   -9.8398   21.0724 C   0  0  0  0  0  0  0  0  0  0  0  0
  -27.1978   -9.9835   21.0550 C   0  0  0  0  0  0  0  0  0  0  0  0
  -26.0684  -35.2308   25.6498 C   0  0  0  0  0  0  0  0  0  0  0  0
  -25.8472  -29.5474   20.3086 C   0  0  0  0  0  0  0  0  0  0  0  0
  -26.6870  -34.3065   24.7864 C   0  0  0  0  0  0  0  0  0  0  0  0
  -25.0999  -28.5700   20.9811 C   0  0  0  0  0  0  0  0  0  0  0  0
  -23.0092  -22.8493   18.1668 C   0  0  0  0  0  0  0  0  0  0  0  0
  -23.6419  -23.6972   17.2576 C   0  0  0  0  0  0  0  0  0  0  0  0
  -25.1118  -22.5003   19.3045 C   0  0  0  0  0  0  0  0  0  0  0  0
  -25.7445  -23.3482   18.3954 C   0  0  0  0  0  0  0  0  0  0  0  0
  -22.2160   -8.5706   21.5655 C   0  0  0  0  0  0  0  0  0  0  0  0
  -26.5602  -26.8493   20.0773 C   0  0  0  0  0  0  0  0  0  0  0  0
  -20.8755   -7.3001   23.0185 C   0  0  0  0  0  0  0  0  0  0  0  0
  -20.5695   -5.9856   25.4600 C   0  0  0  0  0  0  0  0  0  0  0  0
  -19.8658   -7.6896   23.8985 C   0  0  0  0  0  0  0  0  0  0  0  0
  -25.9082  -10.4955   20.8170 C   0  0  0  0  0  0  0  0  0  0  0  0
  -28.0453  -10.9842   20.6468 C   0  0  0  0  0  0  0  0  0  0  0  0
  -27.5941   -8.7165   21.5967 C   0  0  0  0  0  0  0  0  0  0  0  0
  -25.4947  -31.3676   22.8906 C   0  0  0  0  0  0  0  0  0  0  0  0
  -22.3399  -30.8298   22.3610 C   0  0  0  0  0  0  0  0  0  0  0  0
  -19.9302  -28.8383   20.9920 C   0  0  0  0  0  0  0  0  0  0  0  0
  -27.5847  -16.7355   20.3010 C   0  0  0  0  0  0  0  0  0  0  0  0
  -24.9982  -34.8110   26.6261 C   0  0  0  0  0  0  0  0  0  0  0  0
  -25.4588  -30.9979   20.3970 C   0  0  0  0  0  0  0  0  0  0  0  0
  -23.9126  -28.9282   21.8358 C   0  0  0  0  0  0  0  0  0  0  0  0
  -24.3644  -33.4629   26.2926 C   0  0  0  0  0  0  0  0  0  0  0  0
  -28.3336  -14.6402   17.5821 C   0  0  0  0  0  0  0  0  0  0  0  0
  -25.4410  -32.4336   25.9635 C   0  0  0  0  0  0  0  0  0  0  0  0
  -27.9184  -13.2745   18.1285 C   0  0  0  0  0  0  0  0  0  0  0  0
  -27.3492  -15.7409   17.9814 C   0  0  0  0  0  0  0  0  0  0  0  0
  -26.8542  -18.5596   18.6998 C   0  0  0  0  0  0  0  0  0  0  0  0
  -28.4686  -19.0393   20.5031 C   0  0  0  0  0  0  0  0  0  0  0  0
  -26.6785  -14.4524   19.9836 C   0  0  0  0  0  0  0  0  0  0  0  0
  -25.9296  -19.6539   19.2236 C   0  0  0  0  0  0  0  0  0  0  0  0
  -27.5605  -20.1198   21.0675 C   0  0  0  0  0  0  0  0  0  0  0  0
  -26.2523  -32.8579   24.7333 C   0  0  1  0  0  0  0  0  0  0  0  0
  -24.6501  -31.3247   21.6486 C   0  0  1  0  0  0  0  0  0  0  0  0
  -27.6801  -13.3367   19.6477 C   0  0  1  0  0  0  0  0  0  0  0  0
  -21.5463  -22.5668   18.0638 C   0  0  0  0  0  0  0  0  0  0  0  0
  -22.8757  -24.3486   16.1535 C   0  0  0  0  0  0  0  0  0  0  0  0
  -27.9788  -23.1440   17.2561 C   0  0  0  0  0  0  0  0  0  0  0  0
  -17.4399  -28.6377   20.7566 C   0  0  0  0  0  0  0  0  0  0  0  0
  -22.1465  -29.8704   25.2510 C   0  0  0  0  0  0  0  0  0  0  0  0
  -19.9465  -28.8196   24.6816 C   0  0  0  0  0  0  0  0  0  0  0  0
  -20.2325  -31.2905   24.4929 C   0  0  0  0  0  0  0  0  0  0  0  0
  -20.0792  -29.0056   18.0410 C   0  0  0  0  0  0  0  0  0  0  0  0
  -25.8813  -21.8461   20.4139 C   0  0  0  0  0  0  0  0  0  0  0  0
  -27.5156  -25.1241   18.7480 C   0  0  0  0  0  0  0  0  0  1  0  0
  -27.2074  -23.6307   18.4984 C   0  0  1  0  0  0  0  0  0  0  0  0
  -21.3461  -29.7808   22.7979 C   0  0  1  0  0  0  0  0  0  0  0  0
  -18.7225  -29.1646   20.1321 C   0  0  2  0  0  0  0  0  0  0  0  0
  -20.9414  -29.9334   24.2914 C   0  0  0  0  0  0  0  0  0  0  0  0
  -25.9297  -11.7260   20.2979 N   0  0  0  0  0  0  0  0  0  0  0  0
  -27.2431  -11.9956   20.2065 N   0  0  0  0  0  0  0  0  0  0  0  0
  -23.5763  -30.3602   21.8955 N   0  0  0  0  0  0  0  0  0  0  0  0
  -27.1222  -15.7349   19.4333 N   0  0  0  0  0  0  0  0  0  0  0  0
  -27.7025  -18.0305   19.7746 N   0  0  0  0  0  0  0  0  0  0  0  0
  -29.3910  -11.0890   20.6252 N   0  0  0  0  0  0  0  0  0  0  0  0
  -26.5949   -7.8051   21.9645 N   0  0  0  0  0  0  0  0  0  0  0  0
  -25.5059  -32.5971   23.5211 N   0  0  0  0  0  0  0  0  0  0  0  0
  -20.2281  -29.8637   21.8644 N   0  0  0  0  0  0  0  0  0  0  0  0
  -26.7398  -20.7058   19.9424 N   0  3  0  0  0  0  0  0  0  0  0  0
  -18.8706  -28.5572   18.7793 N   0  3  0  0  0  0  0  0  0  0  0  0
  -28.7983   -8.4084   21.7652 O   0  0  0  0  0  0  0  0  0  0  0  0
  -26.0908  -30.3594   23.2509 O   0  0  0  0  0  0  0  0  0  0  0  0
  -22.0280  -32.0216   22.4234 O   0  0  0  0  0  0  0  0  0  0  0  0
  -20.5454  -27.7782   20.9016 O   0  0  0  0  0  0  0  0  0  0  0  0
  -27.8749  -16.4865   21.4780 O   0  0  0  0  0  0  0  0  0  0  0  0
  -21.0282   -7.9510   21.8058 O   0  0  0  0  0  0  0  0  0  0  0  0
  -26.9089  -25.5290   19.9702 O   0  0  0  0  0  0  0  0  0  1  0  0
  -20.4218   -5.3533   26.6316 F   0  0  0  0  0  0  0  0  0  0  0  0
  -19.0390   -8.6937   23.5762 F   0  0  0  0  0  0  0  0  0  0  0  0
  1  2  1  0  0  0  0
  1  5  2  0  0  0  0
  2  6  2  0  0  0  0
  3  8  2  0  0  0  0
  3 17  1  0  0  0  0
  4  9  1  0  0  0  0
  4 17  2  0  0  0  0
  5 19  1  0  0  0  0
  6 21  1  0  0  0  0
  7 10  2  0  0  0  0
  7 20  1  0  0  0  0
  8 27  1  0  0  0  0
  9 27  2  0  0  0  0
 10 28  1  0  0  0  0
 11 12  2  0  0  0  0
 11 29  1  0  0  0  0
 12 30  1  0  0  0  0
 13 22  1  0  0  0  0
 13 28  2  0  0  0  0
 14 23  2  0  0  0  0
 14 25  1  0  0  0  0
 15 24  2  0  0  0  0
 15 26  1  0  0  0  0
 16 30  2  0  0  0  0
 16 31  1  0  0  0  0
 17 32  1  0  0  0  0
 18 32  1  0  0  0  0
 18 33  2  0  0  0  0
 18 34  1  0  0  0  0
 19 21  2  0  0  0  0
 19 39  1  0  0  0  0
 20 22  2  0  0  0  0
 20 40  1  0  0  0  0
 21 52  1  0  0  0  0
 22 41  1  0  0  0  0
 23 24  1  0  0  0  0
 23 55  1  0  0  0  0
 24 56  1  0  0  0  0
 25 26  2  0  0  0  0
 25 63  1  0  0  0  0
 26 65  1  0  0  0  0
 27 85  1  0  0  0  0
 28 86  1  0  0  0  0
 29 31  2  0  0  0  0
 29 85  1  0  0  0  0
 30 87  1  0  0  0  0
 31 88  1  0  0  0  0
 32 69  2  0  0  0  0
 33 70  1  0  0  0  0
 33 74  1  0  0  0  0
 34 75  1  0  0  0  0
 34 80  2  0  0  0  0
 35 53  1  0  0  0  0
 35 76  1  0  0  0  0
 35 81  2  0  0  0  0
 36 66  1  0  0  0  0
 36 71  1  0  0  0  0
 36 82  2  0  0  0  0
 37 67  1  0  0  0  0
 37 77  1  0  0  0  0
 37 83  2  0  0  0  0
 38 72  1  0  0  0  0
 38 73  1  0  0  0  0
 38 84  2  0  0  0  0
 39 42  1  0  0  0  0
 40 53  1  0  0  0  0
 41 71  1  0  0  0  0
 42 44  1  0  0  0  0
 43 45  1  0  0  0  0
 43 46  1  0  0  0  0
 44 52  1  0  0  0  0
 45 54  1  0  0  0  0
 46 72  1  0  0  0  0
 47 50  1  0  0  0  0
 47 73  1  0  0  0  0
 48 51  1  0  0  0  0
 48 73  1  0  0  0  0
 49 54  1  0  0  0  0
 49 72  1  0  0  0  0
 50 78  1  0  0  0  0
 51 78  1  0  0  0  0
 52 76  1  0  0  0  0
 53 71  1  0  0  0  0
 54 70  1  0  0  0  0
 57 65  1  0  0  0  0
 58 67  1  0  0  0  0
 59 68  1  0  0  0  0
 60 68  1  0  0  0  0
 61 68  1  0  0  0  0
 62 79  1  0  0  0  0
 63 78  1  0  0  0  0
 64 65  1  0  0  0  0
 64 86  1  0  0  0  0
 66 68  1  0  0  0  0
 66 77  1  0  0  0  0
 67 79  1  0  0  0  0
 69 70  1  0  0  0  0
M  CHG  2  78   1  79   1
M  ISO  4  38 100  64 101  73 100  86 101
M  END
> <Batch ID>
0150

> <Smiles>
CNC(C)C(=O)NC(C(=O)N1Cc2cc([101O:1][101CH2:1]C(C)c3cc(C)c(C)cc3CN3CC[100N:0]([100C:0](=O)N4CCCC(n5nc(-c6ccc(Oc7ccc(F)cc7F)cc6)c(C(N)=O)c5N)C4)CC3)ccc2CC1C(=O)NC1CCCc2ccccc21)C(C)(C)C

> <Shape>
0.273

> <Color>
0.082

> <Negative vol penalty>
0.000

$$$$

  -OEChem-04052321413D

 86 95  0     1  0  0  0  0  0999 V2000
  -22.9034  -38.1015   19.6838 C   0  0  0  0  0  0  0  0  0  0  0  0
  -23.1325  -37.0495   18.8028 C   0  0  0  0  0  0  0  0  0  0  0  0
  -23.9807   -9.4782   22.8527 C   0  0  0  0  0  0  0  0  0  0  0  0
  -25.1545   -8.1271   21.2298 C   0  0  0  0  0  0  0  0  0  0  0  0
  -23.5428  -38.1236   20.9226 C   0  0  0  0  0  0  0  0  0  0  0  0
  -24.0021  -36.0195   19.1596 C   0  0  0  0  0  0  0  0  0  0  0  0
  -24.9818  -28.9795   18.2675 C   0  0  0  0  0  0  0  0  0  0  0  0
  -22.7968   -8.8014   22.5598 C   0  0  0  0  0  0  0  0  0  0  0  0
  -23.9706   -7.4503   20.9369 C   0  0  0  0  0  0  0  0  0  0  0  0
  -25.9600  -28.0705   17.8670 C   0  0  0  0  0  0  0  0  0  0  0  0
  -21.3676   -5.8351   23.3287 C   0  0  0  0  0  0  0  0  0  0  0  0
  -20.5762   -5.4201   24.3997 C   0  0  0  0  0  0  0  0  0  0  0  0
  -26.9476  -28.1738   20.0654 C   0  0  0  0  0  0  0  0  0  0  0  0
  -18.7494   -6.7670   23.5718 C   0  0  0  0  0  0  0  0  0  0  0  0
  -25.1596   -9.1411   22.1876 C   0  0  0  0  0  0  0  0  0  0  0  0
  -27.3388   -9.4988   23.4647 C   0  0  0  0  0  0  0  0  0  0  0  0
  -24.4132  -37.0885   21.2987 C   0  0  0  0  0  0  0  0  0  0  0  0
  -24.9855  -29.5018   19.5689 C   0  0  0  0  0  0  0  0  0  0  0  0
  -24.6548  -36.0285   20.4040 C   0  0  0  0  0  0  0  0  0  0  0  0
  -25.9668  -29.0874   20.4808 C   0  0  0  0  0  0  0  0  0  0  0  0
  -22.7917   -7.7874   21.6020 C   0  0  0  0  0  0  0  0  0  0  0  0
  -26.9448  -27.6696   18.7651 C   0  0  0  0  0  0  0  0  0  0  0  0
  -20.8499   -6.7162   22.3793 C   0  0  0  0  0  0  0  0  0  0  0  0
  -19.2671   -5.8860   24.5213 C   0  0  0  0  0  0  0  0  0  0  0  0
  -19.5408   -7.1821   22.5008 C   0  0  0  0  0  0  0  0  0  0  0  0
  -26.3828   -9.8403   22.4893 C   0  0  0  0  0  0  0  0  0  0  0  0
  -28.3043  -10.4694   23.3538 C   0  0  0  0  0  0  0  0  0  0  0  0
  -27.3528   -8.4023   24.3884 C   0  0  0  0  0  0  0  0  0  0  0  0
  -25.2780  -32.4100   20.8180 C   0  0  0  0  0  0  0  0  0  0  0  0
  -24.6218  -30.8605   23.5913 C   0  0  0  0  0  0  0  0  0  0  0  0
  -24.6340  -27.9349   25.3484 C   0  0  0  0  0  0  0  0  0  0  0  0
  -28.2763  -15.9770   21.6062 C   0  0  0  0  0  0  0  0  0  0  0  0
  -25.1179  -37.1800   22.6290 C   0  0  0  0  0  0  0  0  0  0  0  0
  -23.9077  -30.4611   19.9935 C   0  0  0  0  0  0  0  0  0  0  0  0
  -26.0031  -29.6029   21.8955 C   0  0  0  0  0  0  0  0  0  0  0  0
  -25.7350  -35.8597   23.0835 C   0  0  0  0  0  0  0  0  0  0  0  0
  -30.2719  -13.4609   20.1888 C   0  0  0  0  0  0  0  0  0  0  0  0
  -26.5033  -35.2074   21.9385 C   0  0  0  0  0  0  0  0  0  0  0  0
  -29.5897  -12.1991   20.7168 C   0  0  0  0  0  0  0  0  0  0  0  0
  -30.4009  -18.9458   20.9584 C   0  0  0  0  0  0  0  0  0  0  0  0
  -29.2092  -18.3022   18.8194 C   0  0  0  0  0  0  0  0  0  0  0  0
  -30.2173  -22.4230   18.9621 C   0  0  0  0  0  0  0  0  0  0  0  0
  -29.2587  -14.5291   19.7737 C   0  0  0  0  0  0  0  0  0  0  0  0
  -29.3256  -18.2045   21.7514 C   0  0  0  0  0  0  0  0  0  0  0  0
  -28.1599  -17.5795   19.6610 C   0  0  0  0  0  0  0  0  0  0  0  0
  -27.5964  -13.6081   21.3565 C   0  0  0  0  0  0  0  0  0  0  0  0
  -30.3208  -23.4990   17.8944 C   0  0  0  0  0  0  0  0  0  0  0  0
  -27.8817  -23.2311   17.3744 C   0  0  0  0  0  0  0  0  0  0  0  0
  -25.5719  -34.8802   20.7651 C   0  0  1  0  0  0  0  0  0  0  0  0
  -24.3100  -31.3217   21.1872 C   0  0  1  0  0  0  0  0  0  0  0  0
  -27.7554  -22.1446   18.4445 C   0  0  2  0  0  0  0  0  0  0  0  0
  -28.5899  -12.5388   21.8366 C   0  0  1  0  0  0  0  0  0  0  0  0
  -29.9032  -19.4240   19.5940 C   0  0  0  0  0  0  0  0  0  0  0  0
  -29.0982  -21.4278   18.6596 C   0  0  2  0  0  0  0  0  0  0  0  0
  -26.6443  -21.1654   18.0560 C   0  0  0  0  0  0  0  0  0  0  0  0
  -24.0734  -26.9896   27.6044 C   0  0  0  0  0  0  0  0  0  0  0  0
  -27.1622  -32.1006   24.7395 C   0  0  0  0  0  0  0  0  0  0  0  0
  -27.0628  -30.4187   26.5914 C   0  0  0  0  0  0  0  0  0  0  0  0
  -25.2149  -32.0703   26.3084 C   0  0  0  0  0  0  0  0  0  0  0  0
  -22.6170  -26.0955   24.2050 C   0  0  0  0  0  0  0  0  0  0  0  0
  -29.0625  -25.3519   16.8010 C   0  0  0  0  0  0  0  0  0  0  0  0
  -27.8799  -26.2706   17.0369 C   0  0  0  0  0  0  0  0  0  1  0  0
  -25.4462  -30.1735   24.6530 C   0  0  1  0  0  0  0  0  0  0  0  0
  -23.5682  -27.2649   26.1966 C   0  0  2  0  0  0  0  0  0  0  0  0
  -26.2223  -31.1824   25.5459 C   0  0  0  0  0  0  0  0  0  0  0  0
  -26.7111  -10.9418   21.8090 N   0  0  0  0  0  0  0  0  0  0  0  0
  -27.8841  -11.3010   22.3577 N   0  0  0  0  0  0  0  0  0  0  0  0
  -24.9313  -30.5438   22.2610 N   0  0  0  0  0  0  0  0  0  0  0  0
  -28.3035  -14.7900   20.8589 N   0  0  0  0  0  0  0  0  0  0  0  0
  -28.7032  -17.1470   20.9556 N   0  0  0  0  0  0  0  0  0  0  0  0
  -29.4631  -10.6841   24.0121 N   0  0  0  0  0  0  0  0  0  0  0  0
  -26.2823   -7.4979   24.3682 N   0  0  0  0  0  0  0  0  0  0  0  0
  -24.8029  -33.6872   21.0476 N   0  0  0  0  0  0  0  0  0  0  0  0
  -24.5282  -29.3092   25.3869 N   0  0  0  0  0  0  0  0  0  0  0  0
  -28.9863  -24.1900   17.7533 N   0  3  2  0  0  0  0  0  0  0  0  0
  -23.1562  -25.9705   25.5836 N   0  3  0  0  0  0  0  0  0  0  0  0
  -28.2789   -8.2390   25.2186 O   0  0  0  0  0  0  0  0  0  0  0  0
  -26.3752  -32.1130   20.3603 O   0  0  0  0  0  0  0  0  0  0  0  0
  -23.7310  -31.6438   23.9300 O   0  0  0  0  0  0  0  0  0  0  0  0
  -25.4784  -27.3025   24.7178 O   0  0  0  0  0  0  0  0  0  0  0  0
  -27.8976  -15.9928   22.7841 O   0  0  0  0  0  0  0  0  0  0  0  0
  -21.6366   -7.1267   21.3161 O   0  0  0  0  0  0  0  0  0  0  0  0
  -27.9201  -26.7654   18.3689 O   0  0  0  0  0  0  0  0  0  1  0  0
  -29.0159  -20.5283   19.7563 O   0  0  0  0  0  0  0  0  0  0  0  0
  -18.5068   -5.4861   25.5490 F   0  0  0  0  0  0  0  0  0  0  0  0
  -19.0375   -8.0277   21.5912 F   0  0  0  0  0  0  0  0  0  0  0  0
  1  2  1  0  0  0  0
  1  5  2  0  0  0  0
  2  6  2  0  0  0  0
  3  8  2  0  0  0  0
  3 15  1  0  0  0  0
  4  9  1  0  0  0  0
  4 15  2  0  0  0  0
  5 17  1  0  0  0  0
  6 19  1  0  0  0  0
  7 10  2  0  0  0  0
  7 18  1  0  0  0  0
  8 21  1  0  0  0  0
  9 21  2  0  0  0  0
 10 22  1  0  0  0  0
 11 12  2  0  0  0  0
 11 23  1  0  0  0  0
 12 24  1  0  0  0  0
 13 20  1  0  0  0  0
 13 22  2  0  0  0  0
 14 24  2  0  0  0  0
 14 25  1  0  0  0  0
 15 26  1  0  0  0  0
 16 26  1  0  0  0  0
 16 27  2  0  0  0  0
 16 28  1  0  0  0  0
 17 19  2  0  0  0  0
 17 33  1  0  0  0  0
 18 20  2  0  0  0  0
 18 34  1  0  0  0  0
 19 49  1  0  0  0  0
 20 35  1  0  0  0  0
 21 82  1  0  0  0  0
 22 83  1  0  0  0  0
 23 25  2  0  0  0  0
 23 82  1  0  0  0  0
 24 85  1  0  0  0  0
 25 86  1  0  0  0  0
 26 66  2  0  0  0  0
 27 67  1  0  0  0  0
 27 71  1  0  0  0  0
 28 72  1  0  0  0  0
 28 77  2  0  0  0  0
 29 50  1  0  0  0  0
 29 73  1  0  0  0  0
 29 78  2  0  0  0  0
 30 63  1  0  0  0  0
 30 68  1  0  0  0  0
 30 79  2  0  0  0  0
 31 64  1  0  0  0  0
 31 74  1  0  0  0  0
 31 80  2  0  0  0  0
 32 69  1  0  0  0  0
 32 70  1  0  0  0  0
 32 81  2  0  0  0  0
 33 36  1  0  0  0  0
 34 50  1  0  0  0  0
 35 68  1  0  0  0  0
 36 38  1  0  0  0  0
 37 39  1  0  0  0  0
 37 43  1  0  0  0  0
 38 49  1  0  0  0  0
 39 52  1  0  0  0  0
 40 44  1  0  0  0  0
 40 53  1  0  0  0  0
 41 45  1  0  0  0  0
 41 53  1  0  0  0  0
 42 47  1  0  0  0  0
 42 54  1  0  0  0  0
 43 69  1  0  0  0  0
 44 70  1  0  0  0  0
 45 70  1  0  0  0  0
 46 52  1  0  0  0  0
 46 69  1  0  0  0  0
 47 75  1  0  0  0  0
 48 51  1  0  0  0  0
 48 75  1  0  0  0  0
 49 73  1  0  0  0  0
 50 68  1  0  0  0  0
 51 54  1  0  0  0  0
 51 55  1  0  0  0  0
 52 67  1  0  0  0  0
 53 84  1  0  0  0  0
 54 84  1  0  0  0  0
 56 64  1  0  0  0  0
 57 65  1  0  0  0  0
 58 65  1  0  0  0  0
 59 65  1  0  0  0  0
 60 76  1  0  0  0  0
 61 62  1  0  0  0  0
 61 75  1  0  0  0  0
 62 83  1  0  0  0  0
 63 65  1  0  0  0  0
 63 74  1  0  0  0  0
 64 76  1  0  0  0  0
 66 67  1  0  0  0  0
M  CHG  2  75   1  76   1
M  ISO  4  32 100  62 101  70 100  83 101
M  END
> <Batch ID>
0150

> <Smiles>
CNC(C)C(=O)NC(C(=O)N1Cc2cc([101O:1][101CH2:1]CN3CCC(OC4CC[100N:0]([100C:0](=O)N5CCCC(n6nc(-c7ccc(Oc8ccc(F)cc8F)cc7)c(C(N)=O)c6N)C5)CC4)C(C)C3)ccc2CC1C(=O)NC1CCCc2ccccc21)C(C)(C)C

> <Shape>
0.262

> <Color>
0.098

> <Negative vol penalty>
0.000

$$$$

  -OEChem-04052321413D

 86 95  0     1  0  0  0  0  0999 V2000
  -32.7611  -20.2366   25.9343 C   0  0  0  0  0  0  0  0  0  0  0  0
  -31.6359  -20.6858   25.2506 C   0  0  0  0  0  0  0  0  0  0  0  0
  -25.6677  -28.2139   19.2565 C   0  0  0  0  0  0  0  0  0  0  0  0
  -26.7709  -29.0771   21.2249 C   0  0  0  0  0  0  0  0  0  0  0  0
  -33.4197  -19.0837   25.5090 C   0  0  0  0  0  0  0  0  0  0  0  0
  -31.1692  -19.9828   24.1404 C   0  0  0  0  0  0  0  0  0  0  0  0
  -25.0886  -18.3134   20.7411 C   0  0  0  0  0  0  0  0  0  0  0  0
  -24.4629  -28.7683   19.6886 C   0  0  0  0  0  0  0  0  0  0  0  0
  -25.5661  -29.6316   21.6570 C   0  0  0  0  0  0  0  0  0  0  0  0
  -24.5171  -18.3609   19.4703 C   0  0  0  0  0  0  0  0  0  0  0  0
  -22.0380  -28.0234   21.9223 C   0  0  0  0  0  0  0  0  0  0  0  0
  -20.8940  -27.2297   21.8401 C   0  0  0  0  0  0  0  0  0  0  0  0
  -25.6886  -16.3382   18.8744 C   0  0  0  0  0  0  0  0  0  0  0  0
  -25.4889  -17.1881   13.8663 C   0  0  0  0  0  0  0  0  0  0  0  0
  -27.8619  -17.6099   13.7006 C   0  0  0  0  0  0  0  0  0  0  0  0
  -26.4662  -19.0659   15.0306 C   0  0  0  0  0  0  0  0  0  0  0  0
  -19.8733  -28.8532   20.3705 C   0  0  0  0  0  0  0  0  0  0  0  0
  -26.8217  -28.3683   20.0247 C   0  0  0  0  0  0  0  0  0  0  0  0
  -29.0403  -28.4055   18.7661 C   0  0  0  0  0  0  0  0  0  0  0  0
  -32.9553  -18.3609   24.3989 C   0  0  0  0  0  0  0  0  0  0  0  0
  -25.9744  -17.2821   21.0850 C   0  0  0  0  0  0  0  0  0  0  0  0
  -31.8231  -18.8199   23.6990 C   0  0  0  0  0  0  0  0  0  0  0  0
  -26.2680  -16.2784   20.1510 C   0  0  0  0  0  0  0  0  0  0  0  0
  -26.7451  -16.8434   13.3677 C   0  0  0  0  0  0  0  0  0  0  0  0
  -25.3494  -18.2994   14.6977 C   0  0  0  0  0  0  0  0  0  0  0  0
  -27.7225  -18.7212   14.5320 C   0  0  0  0  0  0  0  0  0  0  0  0
  -24.4121  -29.4771   20.8888 C   0  0  0  0  0  0  0  0  0  0  0  0
  -24.8193  -17.3748   18.5358 C   0  0  0  0  0  0  0  0  0  0  0  0
  -22.0998  -29.2320   21.2287 C   0  0  0  0  0  0  0  0  0  0  0  0
  -19.8116  -27.6446   21.0642 C   0  0  0  0  0  0  0  0  0  0  0  0
  -21.0174  -29.6469   20.4528 C   0  0  0  0  0  0  0  0  0  0  0  0
  -28.0664  -27.7954   19.5792 C   0  0  0  0  0  0  0  0  0  0  0  0
  -30.0222  -27.4543   18.6339 C   0  0  0  0  0  0  0  0  0  0  0  0
  -29.0559  -29.7151   18.1825 C   0  0  0  0  0  0  0  0  0  0  0  0
  -29.0285  -17.1456   21.9554 C   0  0  0  0  0  0  0  0  0  0  0  0
  -28.3539  -14.0058   22.4121 C   0  0  0  0  0  0  0  0  0  0  0  0
  -26.3856  -11.3245   21.6485 C   0  0  0  0  0  0  0  0  0  0  0  0
  -29.6596  -21.4101   19.2197 C   0  0  0  0  0  0  0  0  0  0  0  0
  -33.7282  -17.1468   23.9481 C   0  0  0  0  0  0  0  0  0  0  0  0
  -26.5617  -17.2304   22.4688 C   0  0  0  0  0  0  0  0  0  0  0  0
  -27.1971  -15.1388   20.4773 C   0  0  0  0  0  0  0  0  0  0  0  0
  -32.9493  -16.2505   22.9887 C   0  0  0  0  0  0  0  0  0  0  0  0
  -31.9579  -23.7172   20.9133 C   0  0  0  0  0  0  0  0  0  0  0  0
  -32.2805  -17.0860   21.9018 C   0  0  0  0  0  0  0  0  0  0  0  0
  -31.2742  -25.0726   20.7288 C   0  0  0  0  0  0  0  0  0  0  0  0
  -30.0316  -21.5126   15.5635 C   0  0  0  0  0  0  0  0  0  0  0  0
  -30.9498  -22.5719   20.9736 C   0  0  0  0  0  0  0  0  0  0  0  0
  -30.0118  -22.3278   16.8523 C   0  0  0  0  0  0  0  0  0  0  0  0
  -29.3251  -23.8803   19.6616 C   0  0  0  0  0  0  0  0  0  0  0  0
  -28.8109  -20.2757   17.1865 C   0  0  0  0  0  0  0  0  0  0  0  0
  -31.2718  -18.0709   22.5052 C   0  0  1  0  0  0  0  0  0  0  0  0
  -27.8512  -16.4183   22.5406 C   0  0  1  0  0  0  0  0  0  0  0  0
  -30.3105  -25.0496   19.5277 C   0  0  1  0  0  0  0  0  0  0  0  0
  -28.7858  -20.6459   15.7111 C   0  0  2  0  0  0  0  0  0  0  0  0
  -26.8941  -15.6552   12.4787 C   0  0  0  0  0  0  0  0  0  0  0  0
  -26.1021   -8.8822   22.1510 C   0  0  0  0  0  0  0  0  0  0  0  0
  -30.7319  -13.3618   20.6120 C   0  0  0  0  0  0  0  0  0  0  0  0
  -29.8394  -11.0339   20.3833 C   0  0  0  0  0  0  0  0  0  0  0  0
  -30.5190  -11.8926   22.6246 C   0  0  0  0  0  0  0  0  0  0  0  0
  -23.6756  -11.7489   22.7597 C   0  0  0  0  0  0  0  0  0  0  0  0
  -23.9516  -18.7053   16.7658 C   0  0  0  0  0  0  0  0  0  1  0  0
  -24.0062  -18.6679   15.2307 C   0  0  1  0  0  0  0  0  0  0  0  0
  -28.4024  -12.7658   21.5524 C   0  0  1  0  0  0  0  0  0  0  0  0
  -25.6957  -10.2981   22.5289 C   0  0  2  0  0  0  0  0  0  0  0  0
  -29.8571  -12.2859   21.2860 C   0  0  0  0  0  0  0  0  0  0  0  0
  -28.3994  -26.5527   19.9381 N   0  0  0  0  0  0  0  0  0  0  0  0
  -29.5934  -26.3742   19.3478 N   0  0  0  0  0  0  0  0  0  0  0  0
  -27.7510  -15.1356   21.8414 N   0  0  0  0  0  0  0  0  0  0  0  0
  -30.0418  -22.6112   19.8271 N   0  0  0  0  0  0  0  0  0  0  0  0
  -29.4211  -21.4277   17.8461 N   0  0  0  0  0  0  0  0  0  0  0  0
  -31.2020  -27.4448   17.9778 N   0  0  0  0  0  0  0  0  0  0  0  0
  -27.9669  -30.5651   18.4192 N   0  0  0  0  0  0  0  0  0  0  0  0
  -28.8341  -19.4841   14.8633 N   0  0  0  0  0  0  0  0  0  0  0  0
  -30.0465  -17.3865   22.8583 N   0  0  0  0  0  0  0  0  0  0  0  0
  -27.5588  -11.7768   22.2145 N   0  0  0  0  0  0  0  0  0  0  0  0
  -24.2157  -10.4134   22.3968 N   0  3  0  0  0  0  0  0  0  0  0  0
  -29.9998  -30.1136   17.4587 O   0  0  0  0  0  0  0  0  0  0  0  0
  -29.0150  -17.4634   20.7720 O   0  0  0  0  0  0  0  0  0  0  0  0
  -28.8269  -13.9710   23.5508 O   0  0  0  0  0  0  0  0  0  0  0  0
  -25.9313  -11.6858   20.5652 O   0  0  0  0  0  0  0  0  0  0  0  0
  -29.5807  -20.3576   19.8671 O   0  0  0  0  0  0  0  0  0  0  0  0
  -23.6286  -19.9555   14.7276 O   0  0  0  0  0  0  0  0  0  0  0  0
  -23.2366  -30.0184   21.3106 O   0  0  0  0  0  0  0  0  0  0  0  0
  -24.2591  -17.4196   17.2852 O   0  0  0  0  0  0  0  0  0  1  0  0
  -18.7136  -26.8816   20.9842 F   0  0  0  0  0  0  0  0  0  0  0  0
  -21.0713  -30.8064   19.7832 F   0  0  0  0  0  0  0  0  0  0  0  0
  1  2  1  0  0  0  0
  1  5  2  0  0  0  0
  2  6  2  0  0  0  0
  3  8  2  0  0  0  0
  3 18  1  0  0  0  0
  4  9  1  0  0  0  0
  4 18  2  0  0  0  0
  5 20  1  0  0  0  0
  6 22  1  0  0  0  0
  7 10  2  0  0  0  0
  7 21  1  0  0  0  0
  8 27  1  0  0  0  0
  9 27  2  0  0  0  0
 10 28  1  0  0  0  0
 11 12  2  0  0  0  0
 11 29  1  0  0  0  0
 12 30  1  0  0  0  0
 13 23  1  0  0  0  0
 13 28  2  0  0  0  0
 14 24  2  0  0  0  0
 14 25  1  0  0  0  0
 15 24  1  0  0  0  0
 15 26  2  0  0  0  0
 16 25  2  0  0  0  0
 16 26  1  0  0  0  0
 17 30  2  0  0  0  0
 17 31  1  0  0  0  0
 18 32  1  0  0  0  0
 19 32  1  0  0  0  0
 19 33  2  0  0  0  0
 19 34  1  0  0  0  0
 20 22  2  0  0  0  0
 20 39  1  0  0  0  0
 21 23  2  0  0  0  0
 21 40  1  0  0  0  0
 22 51  1  0  0  0  0
 23 41  1  0  0  0  0
 24 55  1  0  0  0  0
 25 62  1  0  0  0  0
 26 73  1  0  0  0  0
 27 83  1  0  0  0  0
 28 84  1  0  0  0  0
 29 31  2  0  0  0  0
 29 83  1  0  0  0  0
 30 85  1  0  0  0  0
 31 86  1  0  0  0  0
 32 66  2  0  0  0  0
 33 67  1  0  0  0  0
 33 71  1  0  0  0  0
 34 72  1  0  0  0  0
 34 77  2  0  0  0  0
 35 52  1  0  0  0  0
 35 74  1  0  0  0  0
 35 78  2  0  0  0  0
 36 63  1  0  0  0  0
 36 68  1  0  0  0  0
 36 79  2  0  0  0  0
 37 64  1  0  0  0  0
 37 75  1  0  0  0  0
 37 80  2  0  0  0  0
 38 69  1  0  0  0  0
 38 70  1  0  0  0  0
 38 81  2  0  0  0  0
 39 42  1  0  0  0  0
 40 52  1  0  0  0  0
 41 68  1  0  0  0  0
 42 44  1  0  0  0  0
 43 45  1  0  0  0  0
 43 47  1  0  0  0  0
 44 51  1  0  0  0  0
 45 53  1  0  0  0  0
 46 48  1  0  0  0  0
 46 54  1  0  0  0  0
 47 69  1  0  0  0  0
 48 70  1  0  0  0  0
 49 53  1  0  0  0  0
 49 69  1  0  0  0  0
 50 54  1  0  0  0  0
 50 70  1  0  0  0  0
 51 74  1  0  0  0  0
 52 68  1  0  0  0  0
 53 67  1  0  0  0  0
 54 73  1  0  0  0  0
 56 64  1  0  0  0  0
 57 65  1  0  0  0  0
 58 65  1  0  0  0  0
 59 65  1  0  0  0  0
 60 76  1  0  0  0  0
 61 62  1  0  0  0  0
 61 84  1  0  0  0  0
 62 82  1  0  0  0  0
 63 65  1  0  0  0  0
 63 75  1  0  0  0  0
 64 76  1  0  0  0  0
 66 67  1  0  0  0  0
M  CHG  1  76   1
M  ISO  4  38 100  61 101  70 100  84 101
M  END
> <Batch ID>
0150

> <Smiles>
CNC(C)C(=O)NC(C(=O)N1Cc2cc([101O:1][101CH2:1]C(O)c3cc(C)cc(NC4CC[100N:0]([100C:0](=O)N5CCCC(n6nc(-c7ccc(Oc8ccc(F)cc8F)cc7)c(C(N)=O)c6N)C5)C4)c3)ccc2CC1C(=O)NC1CCCc2ccccc21)C(C)(C)C

> <Shape>
0.207

> <Color>
0.066

> <Negative vol penalty>
0.000

$$$$

  -OEChem-04052321413D

 83 91  0     1  0  0  0  0  0999 V2000
  -28.0765  -35.9463   22.7740 C   0  0  0  0  0  0  0  0  0  0  0  0
  -28.9021  -34.8919   22.3972 C   0  0  0  0  0  0  0  0  0  0  0  0
  -24.1089   -9.6163   21.8363 C   0  0  0  0  0  0  0  0  0  0  0  0
  -24.5491  -10.9615   23.7943 C   0  0  0  0  0  0  0  0  0  0  0  0
  -26.8239  -35.6858   23.3282 C   0  0  0  0  0  0  0  0  0  0  0  0
  -28.4759  -33.5761   22.5753 C   0  0  0  0  0  0  0  0  0  0  0  0
  -29.0182  -27.0812   19.6023 C   0  0  0  0  0  0  0  0  0  0  0  0
  -23.6951   -8.5636   22.6524 C   0  0  0  0  0  0  0  0  0  0  0  0
  -24.1353   -9.9088   24.6105 C   0  0  0  0  0  0  0  0  0  0  0  0
  -29.3511  -25.7689   19.9349 C   0  0  0  0  0  0  0  0  0  0  0  0
  -20.9359   -7.7113   24.4111 C   0  0  0  0  0  0  0  0  0  0  0  0
  -19.7646   -7.0403   24.0597 C   0  0  0  0  0  0  0  0  0  0  0  0
  -27.1349  -25.4396   20.8288 C   0  0  0  0  0  0  0  0  0  0  0  0
  -27.6656  -20.4011   21.2465 C   0  0  0  0  0  0  0  0  0  0  0  0
  -29.8789  -20.0944   22.9169 C   0  0  0  0  0  0  0  0  0  0  0  0
  -21.0065   -4.9776   23.8591 C   0  0  0  0  0  0  0  0  0  0  0  0
  -24.5360  -10.8152   22.4072 C   0  0  0  0  0  0  0  0  0  0  0  0
  -24.1649  -12.9341   21.0360 C   0  0  0  0  0  0  0  0  0  0  0  0
  -26.3782  -34.3663   23.5042 C   0  0  0  0  0  0  0  0  0  0  0  0
  -27.7424  -27.5869   19.8909 C   0  0  0  0  0  0  0  0  0  0  0  0
  -27.2167  -33.2977   23.1335 C   0  0  0  0  0  0  0  0  0  0  0  0
  -26.7874  -26.7579   20.4966 C   0  0  0  0  0  0  0  0  0  0  0  0
  -28.2743  -21.5222   21.8107 C   0  0  0  0  0  0  0  0  0  0  0  0
  -28.1635  -19.1266   21.5177 C   0  0  0  0  0  0  0  0  0  0  0  0
  -29.3809  -21.3688   22.6458 C   0  0  0  0  0  0  0  0  0  0  0  0
  -23.7083   -8.7098   24.0396 C   0  0  0  0  0  0  0  0  0  0  0  0
  -28.4103  -24.9487   20.5508 C   0  0  0  0  0  0  0  0  0  0  0  0
  -22.1425   -7.0155   24.4865 C   0  0  0  0  0  0  0  0  0  0  0  0
  -29.2702  -18.9732   22.3528 C   0  0  0  0  0  0  0  0  0  0  0  0
  -19.7999   -5.6734   23.7837 C   0  0  0  0  0  0  0  0  0  0  0  0
  -22.1778   -5.6486   24.2105 C   0  0  0  0  0  0  0  0  0  0  0  0
  -24.9641  -11.9028   21.5646 C   0  0  0  0  0  0  0  0  0  0  0  0
  -25.0377  -13.7070   20.3098 C   0  0  0  0  0  0  0  0  0  0  0  0
  -22.7592  -13.1722   21.1879 C   0  0  0  0  0  0  0  0  0  0  0  0
  -26.6210  -29.9409   21.7088 C   0  0  0  0  0  0  0  0  0  0  0  0
  -23.7975  -29.1371   20.3289 C   0  0  0  0  0  0  0  0  0  0  0  0
  -21.9082  -26.7627   18.7671 C   0  0  0  0  0  0  0  0  0  0  0  0
  -30.9487  -14.5987   20.6514 C   0  0  0  0  0  0  0  0  0  0  0  0
  -25.0357  -34.1337   24.1510 C   0  0  0  0  0  0  0  0  0  0  0  0
  -27.3904  -28.9965   19.5015 C   0  0  0  0  0  0  0  0  0  0  0  0
  -25.3974  -27.2464   20.8093 C   0  0  0  0  0  0  0  0  0  0  0  0
  -24.5053  -32.7151   23.9603 C   0  0  0  0  0  0  0  0  0  0  0  0
  -29.1204  -13.4223   17.8317 C   0  0  0  0  0  0  0  0  0  0  0  0
  -25.5988  -31.6925   24.2522 C   0  0  0  0  0  0  0  0  0  0  0  0
  -27.7758  -12.9926   18.4210 C   0  0  0  0  0  0  0  0  0  0  0  0
  -30.2762  -13.1184   18.7824 C   0  0  0  0  0  0  0  0  0  0  0  0
  -28.7740  -13.2346   20.7327 C   0  0  0  0  0  0  0  0  0  0  0  0
  -26.7797  -31.8571   23.2880 C   0  0  1  0  0  0  0  0  0  0  0  0
  -26.2275  -29.5664   20.3079 C   0  0  1  0  0  0  0  0  0  0  0  0
  -27.5719  -13.5718   19.8339 C   0  0  2  0  0  0  0  0  0  0  0  0
  -27.5002  -17.9376   20.9045 C   0  0  0  0  0  0  0  0  0  0  0  0
  -30.0495  -22.5540   23.2614 C   0  0  0  0  0  0  0  0  0  0  0  0
  -19.6265  -26.3883   17.7920 C   0  0  0  0  0  0  0  0  0  0  0  0
  -22.6420  -28.8724   23.1405 C   0  0  0  0  0  0  0  0  0  0  0  0
  -20.7181  -27.6089   22.1555 C   0  0  0  0  0  0  0  0  0  0  0  0
  -21.1243  -29.9781   21.4887 C   0  0  0  0  0  0  0  0  0  0  0  0
  -23.0178  -26.2419   16.0733 C   0  0  0  0  0  0  0  0  0  0  0  0
  -27.7204  -22.8830   21.5062 C   0  0  0  0  0  0  0  0  0  1  0  0
  -31.4792  -16.0477   22.5951 C   0  0  0  0  0  0  0  0  0  0  0  0
  -31.1217  -17.4838   22.2565 C   0  0  0  0  0  0  0  0  0  0  0  0
  -22.6844  -28.1712   20.6560 C   0  0  1  0  0  0  0  0  0  0  0  0
  -21.0580  -26.8178   17.5107 C   0  0  2  0  0  0  0  0  0  0  0  0
  -21.8189  -28.6488   21.8562 C   0  0  0  0  0  0  0  0  0  0  0  0
  -26.2461  -12.0080   21.2047 N   0  0  0  0  0  0  0  0  0  0  0  0
  -26.2590  -13.1146   20.4422 N   0  0  0  0  0  0  0  0  0  0  0  0
  -25.1034  -28.6341   20.4150 N   0  0  0  0  0  0  0  0  0  0  0  0
  -30.0214  -13.6967   20.1040 N   0  0  0  0  0  0  0  0  0  0  0  0
  -24.8719  -14.8288   19.5773 N   0  0  0  0  0  0  0  0  0  0  0  0
  -22.0109  -12.2802   21.9680 N   0  0  0  0  0  0  0  0  0  0  0  0
  -26.4627  -31.2828   21.9980 N   0  0  0  0  0  0  0  0  0  0  0  0
  -21.9356  -27.9774   19.4191 N   0  0  0  0  0  0  0  0  0  0  0  0
  -30.6275  -15.1047   21.9050 N   0  0  0  0  0  0  0  0  0  0  0  0
  -21.6214  -25.9189   16.4641 N   0  3  0  0  0  0  0  0  0  0  0  0
  -22.1808  -14.1379   20.6343 O   0  0  0  0  0  0  0  0  0  0  0  0
  -27.0361  -29.0761   22.4714 O   0  0  0  0  0  0  0  0  0  0  0  0
  -23.5183  -30.2933   20.0020 O   0  0  0  0  0  0  0  0  0  0  0  0
  -22.4870  -25.7429   19.1355 O   0  0  0  0  0  0  0  0  0  0  0  0
  -31.9832  -14.9326   20.0640 O   0  0  0  0  0  0  0  0  0  0  0  0
  -23.3043   -7.6829   24.8363 O   0  0  0  0  0  0  0  0  0  0  0  0
  -28.7329  -23.6676   20.8771 O   0  0  0  0  0  0  0  0  0  1  0  0
  -29.7683  -17.7355   22.6291 O   0  0  0  0  0  0  0  0  0  0  0  0
  -18.6748   -5.0289   23.4477 F   0  0  0  0  0  0  0  0  0  0  0  0
  -23.3338   -4.9746   24.2825 F   0  0  0  0  0  0  0  0  0  0  0  0
  1  2  1  0  0  0  0
  1  5  2  0  0  0  0
  2  6  2  0  0  0  0
  3  8  2  0  0  0  0
  3 17  1  0  0  0  0
  4  9  1  0  0  0  0
  4 17  2  0  0  0  0
  5 19  1  0  0  0  0
  6 21  1  0  0  0  0
  7 10  2  0  0  0  0
  7 20  1  0  0  0  0
  8 26  1  0  0  0  0
  9 26  2  0  0  0  0
 10 27  1  0  0  0  0
 11 12  2  0  0  0  0
 11 28  1  0  0  0  0
 12 30  1  0  0  0  0
 13 22  1  0  0  0  0
 13 27  2  0  0  0  0
 14 23  1  0  0  0  0
 14 24  2  0  0  0  0
 15 25  1  0  0  0  0
 15 29  2  0  0  0  0
 16 30  2  0  0  0  0
 16 31  1  0  0  0  0
 17 32  1  0  0  0  0
 18 32  1  0  0  0  0
 18 33  2  0  0  0  0
 18 34  1  0  0  0  0
 19 21  2  0  0  0  0
 19 39  1  0  0  0  0
 20 22  2  0  0  0  0
 20 40  1  0  0  0  0
 21 48  1  0  0  0  0
 22 41  1  0  0  0  0
 23 25  2  0  0  0  0
 23 58  1  0  0  0  0
 24 29  1  0  0  0  0
 24 51  1  0  0  0  0
 25 52  1  0  0  0  0
 26 79  1  0  0  0  0
 27 80  1  0  0  0  0
 28 31  2  0  0  0  0
 28 79  1  0  0  0  0
 29 81  1  0  0  0  0
 30 82  1  0  0  0  0
 31 83  1  0  0  0  0
 32 64  2  0  0  0  0
 33 65  1  0  0  0  0
 33 68  1  0  0  0  0
 34 69  1  0  0  0  0
 34 74  2  0  0  0  0
 35 49  1  0  0  0  0
 35 70  1  0  0  0  0
 35 75  2  0  0  0  0
 36 61  1  0  0  0  0
 36 66  1  0  0  0  0
 36 76  2  0  0  0  0
 37 62  1  0  0  0  0
 37 71  1  0  0  0  0
 37 77  2  0  0  0  0
 38 67  1  0  0  0  0
 38 72  1  0  0  0  0
 38 78  2  0  0  0  0
 39 42  1  0  0  0  0
 40 49  1  0  0  0  0
 41 66  1  0  0  0  0
 42 44  1  0  0  0  0
 43 45  1  0  0  0  0
 43 46  1  0  0  0  0
 44 48  1  0  0  0  0
 45 50  1  0  0  0  0
 46 67  1  0  0  0  0
 47 50  1  0  0  0  0
 47 67  1  0  0  0  0
 48 70  1  0  0  0  0
 49 66  1  0  0  0  0
 50 65  1  0  0  0  0
 53 62  1  0  0  0  0
 54 63  1  0  0  0  0
 55 63  1  0  0  0  0
 56 63  1  0  0  0  0
 57 73  1  0  0  0  0
 58 80  1  0  0  0  0
 59 60  1  0  0  0  0
 59 72  1  0  0  0  0
 60 81  1  0  0  0  0
 61 63  1  0  0  0  0
 61 71  1  0  0  0  0
 62 73  1  0  0  0  0
 64 65  1  0  0  0  0
M  CHG  1  73   1
M  ISO  4  38 100  58 101  72 100  80 101
M  END
> <Batch ID>
0150

> <Smiles>
CNC(C)C(=O)NC(C(=O)N1Cc2cc([101O:1][101CH2:1]c3cc(C)c(OCC[100NH:0][100C:0](=O)N4CCCC(n5nc(-c6ccc(Oc7ccc(F)cc7F)cc6)c(C(N)=O)c5N)C4)cc3C)ccc2CC1C(=O)NC1CCCc2ccccc21)C(C)(C)C

> <Shape>
0.342

> <Color>
0.128

> <Negative vol penalty>
0.000

$$$$

  -OEChem-04052321413D

 87 97  0     1  0  0  0  0  0999 V2000
  -17.8012  -32.6679   24.4669 C   0  0  0  0  0  0  0  0  0  0  0  0
  -19.1562  -32.7655   24.7666 C   0  0  0  0  0  0  0  0  0  0  0  0
  -30.6735  -14.2506   18.3415 C   0  0  0  0  0  0  0  0  0  0  0  0
  -30.6763  -12.9556   20.3811 C   0  0  0  0  0  0  0  0  0  0  0  0
  -17.2982  -31.5023   23.8904 C   0  0  0  0  0  0  0  0  0  0  0  0
  -20.0089  -31.6972   24.4910 C   0  0  0  0  0  0  0  0  0  0  0  0
  -31.9775  -26.6024   19.1375 C   0  0  0  0  0  0  0  0  0  0  0  0
  -26.7552  -30.3012   22.5277 C   0  0  0  0  0  0  0  0  0  0  0  0
  -32.0141  -27.1639   20.4138 C   0  0  0  0  0  0  0  0  0  0  0  0
  -31.8468  -13.6147   17.9361 C   0  0  0  0  0  0  0  0  0  0  0  0
  -31.8496  -12.3196   19.9757 C   0  0  0  0  0  0  0  0  0  0  0  0
  -27.8551  -29.5391   22.9192 C   0  0  0  0  0  0  0  0  0  0  0  0
  -34.6442  -12.0733   16.2000 C   0  0  0  0  0  0  0  0  0  0  0  0
  -34.7171  -11.6266   14.8806 C   0  0  0  0  0  0  0  0  0  0  0  0
  -30.6527  -25.3517   21.2501 C   0  0  0  0  0  0  0  0  0  0  0  0
  -26.8885  -27.6052   21.8493 C   0  0  0  0  0  0  0  0  0  0  0  0
  -32.8043  -10.1998   15.2579 C   0  0  0  0  0  0  0  0  0  0  0  0
  -30.0882  -13.9212   19.5640 C   0  0  0  0  0  0  0  0  0  0  0  0
  -27.5544  -14.1689   19.7258 C   0  0  0  0  0  0  0  0  0  0  0  0
  -18.1468  -30.4228   23.5987 C   0  0  0  0  0  0  0  0  0  0  0  0
  -25.7067  -29.7173   21.8022 C   0  0  0  0  0  0  0  0  0  0  0  0
  -31.2785  -25.4155   18.9174 C   0  0  0  0  0  0  0  0  0  0  0  0
  -19.5165  -30.5155   23.9113 C   0  0  0  0  0  0  0  0  0  0  0  0
  -30.6161  -24.7901   19.9737 C   0  0  0  0  0  0  0  0  0  0  0  0
  -25.7776  -28.3626   21.4476 C   0  0  0  0  0  0  0  0  0  0  0  0
  -31.3517  -26.5386   21.4701 C   0  0  0  0  0  0  0  0  0  0  0  0
  -32.4349  -12.6491   18.7531 C   0  0  0  0  0  0  0  0  0  0  0  0
  -27.9205  -28.1903   22.5825 C   0  0  0  0  0  0  0  0  0  0  0  0
  -33.6513  -11.5831   17.0483 C   0  0  0  0  0  0  0  0  0  0  0  0
  -33.7972  -10.6899   14.4095 C   0  0  0  0  0  0  0  0  0  0  0  0
  -32.7313  -10.6465   16.5773 C   0  0  0  0  0  0  0  0  0  0  0  0
  -28.8765  -14.5782   19.9836 C   0  0  0  0  0  0  0  0  0  0  0  0
  -26.7750  -15.1227   20.3334 C   0  0  0  0  0  0  0  0  0  0  0  0
  -27.0739  -13.0284   19.0018 C   0  0  0  0  0  0  0  0  0  0  0  0
  -22.6047  -29.2565   22.3204 C   0  0  0  0  0  0  0  0  0  0  0  0
  -22.6481  -28.1959   19.2552 C   0  0  0  0  0  0  0  0  0  0  0  0
  -24.4458  -26.8801   16.6699 C   0  0  0  0  0  0  0  0  0  0  0  0
  -27.5317  -20.7658   21.7578 C   0  0  0  0  0  0  0  0  0  0  0  0
  -17.5488  -29.1654   23.0189 C   0  0  0  0  0  0  0  0  0  0  0  0
  -24.5398  -30.5593   21.3644 C   0  0  0  0  0  0  0  0  0  0  0  0
  -24.6878  -27.6930   20.6523 C   0  0  0  0  0  0  0  0  0  0  0  0
  -18.5845  -28.2213   22.4137 C   0  0  0  0  0  0  0  0  0  0  0  0
  -26.7850  -18.2183   23.9716 C   0  0  0  0  0  0  0  0  0  0  0  0
  -31.4463  -25.7430   16.3604 C   0  0  0  0  0  0  0  0  0  0  0  0
  -30.0976  -25.1544   16.6337 C   0  0  0  0  0  0  0  0  0  0  0  0
  -19.7683  -28.0500   23.3604 C   0  0  0  0  0  0  0  0  0  0  0  0
  -27.1025  -16.9475   23.1838 C   0  0  0  0  0  0  0  0  0  0  0  0
  -30.4411  -22.3358   20.5798 C   0  0  0  0  0  0  0  0  0  0  0  0
  -28.3484  -23.6616   20.0576 C   0  0  0  0  0  0  0  0  0  0  0  0
  -27.8383  -19.2917   23.7235 C   0  0  0  0  0  0  0  0  0  0  0  0
  -29.6439  -21.0428   20.3857 C   0  0  0  0  0  0  0  0  0  0  0  0
  -27.6098  -22.3424   19.8508 C   0  0  0  0  0  0  0  0  0  0  0  0
  -28.3368  -18.3772   21.4800 C   0  0  0  0  0  0  0  0  0  0  0  0
  -31.2531  -24.8323   17.5434 C   0  0  0  0  0  0  0  0  0  0  0  0
  -29.8502  -23.4979   19.7613 C   0  0  0  0  0  0  0  0  0  0  0  0
  -20.4775  -29.3875   23.6045 C   0  0  1  0  0  0  0  0  0  0  0  0
  -23.2874  -29.7388   21.0718 C   0  0  1  0  0  0  0  0  0  0  0  0
  -27.2969  -17.2577   21.6890 C   0  0  1  0  0  0  0  0  0  0  0  0
  -24.1991  -26.0854   14.3024 C   0  0  0  0  0  0  0  0  0  0  0  0
  -21.3316  -25.6315   20.2558 C   0  0  0  0  0  0  0  0  0  0  0  0
  -21.9731  -24.5417   18.0950 C   0  0  0  0  0  0  0  0  0  0  0  0
  -20.4222  -26.4955   18.0922 C   0  0  0  0  0  0  0  0  0  0  0  0
  -26.3518  -28.9101   15.6672 C   0  0  0  0  0  0  0  0  0  0  0  0
  -31.3915  -27.1386   22.8351 C   0  0  0  0  0  0  0  0  0  0  0  0
  -30.2427  -28.1189   23.0907 C   0  0  0  0  0  0  0  0  0  1  0  0
  -22.8741  -26.8601   18.5892 C   0  0  1  0  0  0  0  0  0  0  0  0
  -24.5309  -27.2645   15.2038 C   0  0  2  0  0  0  0  0  0  0  0  0
  -21.6700  -25.8940   18.7747 C   0  0  0  0  0  0  0  0  0  0  0  0
  -28.9373  -15.7044   20.6992 N   0  0  0  0  0  0  0  0  0  0  0  0
  -27.6437  -16.0109   20.8961 N   0  0  0  0  0  0  0  0  0  0  0  0
  -23.5645  -28.5569   20.2530 N   0  0  0  0  0  0  0  0  0  0  0  0
  -27.9959  -19.5549   22.2932 N   0  0  0  0  0  0  0  0  0  0  0  0
  -28.2148  -21.2708   20.6412 N   0  0  0  0  0  0  0  0  0  0  0  0
  -25.4381  -15.2799   20.4359 N   0  0  0  0  0  0  0  0  0  0  0  0
  -28.0107  -12.1494   18.4415 N   0  0  0  0  0  0  0  0  0  0  0  0
  -21.3153  -29.7289   22.4749 N   0  0  0  0  0  0  0  0  0  0  0  0
  -23.2001  -27.1482   17.1967 N   0  0  0  0  0  0  0  0  0  0  0  0
  -25.9042  -27.7383   14.8713 N   0  3  0  0  0  0  0  0  0  0  0  0
  -25.8500  -12.8047   18.8421 O   0  0  0  0  0  0  0  0  0  0  0  0
  -23.2028  -28.5098   23.0861 O   0  0  0  0  0  0  0  0  0  0  0  0
  -21.6976  -28.8965   18.8981 O   0  0  0  0  0  0  0  0  0  0  0  0
  -25.3889  -26.3877   17.2852 O   0  0  0  0  0  0  0  0  0  0  0  0
  -26.5635  -21.3608   22.2474 O   0  0  0  0  0  0  0  0  0  0  0  0
  -33.5797  -12.0282   18.3577 O   0  0  0  0  0  0  0  0  0  0  0  0
  -29.0002  -27.4388   22.9666 O   0  0  0  0  0  0  0  0  0  1  0  0
  -33.8664  -10.2622   13.1421 F   0  0  0  0  0  0  0  0  0  0  0  0
  -31.7745  -10.1729   17.3872 F   0  0  0  0  0  0  0  0  0  0  0  0
  1  2  1  0  0  0  0
  1  5  2  0  0  0  0
  2  6  2  0  0  0  0
  3 10  2  0  0  0  0
  3 18  1  0  0  0  0
  4 11  1  0  0  0  0
  4 18  2  0  0  0  0
  5 20  1  0  0  0  0
  6 23  1  0  0  0  0
  7  9  2  0  0  0  0
  7 22  1  0  0  0  0
  8 12  2  0  0  0  0
  8 21  1  0  0  0  0
  9 26  1  0  0  0  0
 10 27  1  0  0  0  0
 11 27  2  0  0  0  0
 12 28  1  0  0  0  0
 13 14  2  0  0  0  0
 13 29  1  0  0  0  0
 14 30  1  0  0  0  0
 15 24  1  0  0  0  0
 15 26  2  0  0  0  0
 16 25  1  0  0  0  0
 16 28  2  0  0  0  0
 17 30  2  0  0  0  0
 17 31  1  0  0  0  0
 18 32  1  0  0  0  0
 19 32  1  0  0  0  0
 19 33  2  0  0  0  0
 19 34  1  0  0  0  0
 20 23  2  0  0  0  0
 20 39  1  0  0  0  0
 21 25  2  0  0  0  0
 21 40  1  0  0  0  0
 22 24  2  0  0  0  0
 22 54  1  0  0  0  0
 23 56  1  0  0  0  0
 24 55  1  0  0  0  0
 25 41  1  0  0  0  0
 26 64  1  0  0  0  0
 27 84  1  0  0  0  0
 28 85  1  0  0  0  0
 29 31  2  0  0  0  0
 29 84  1  0  0  0  0
 30 86  1  0  0  0  0
 31 87  1  0  0  0  0
 32 69  2  0  0  0  0
 33 70  1  0  0  0  0
 33 74  1  0  0  0  0
 34 75  1  0  0  0  0
 34 79  2  0  0  0  0
 35 57  1  0  0  0  0
 35 76  1  0  0  0  0
 35 80  2  0  0  0  0
 36 66  1  0  0  0  0
 36 71  1  0  0  0  0
 36 81  2  0  0  0  0
 37 67  1  0  0  0  0
 37 77  1  0  0  0  0
 37 82  2  0  0  0  0
 38 72  1  0  0  0  0
 38 73  1  0  0  0  0
 38 83  2  0  0  0  0
 39 42  1  0  0  0  0
 40 57  1  0  0  0  0
 41 71  1  0  0  0  0
 42 46  1  0  0  0  0
 43 47  1  0  0  0  0
 43 50  1  0  0  0  0
 44 45  1  0  0  0  0
 44 54  1  0  0  0  0
 45 54  1  0  0  0  0
 46 56  1  0  0  0  0
 47 58  1  0  0  0  0
 48 51  1  0  0  0  0
 48 55  1  0  0  0  0
 49 52  1  0  0  0  0
 49 55  1  0  0  0  0
 50 72  1  0  0  0  0
 51 73  1  0  0  0  0
 52 73  1  0  0  0  0
 53 58  1  0  0  0  0
 53 72  1  0  0  0  0
 56 76  1  0  0  0  0
 57 71  1  0  0  0  0
 58 70  1  0  0  0  0
 59 67  1  0  0  0  0
 60 68  1  0  0  0  0
 61 68  1  0  0  0  0
 62 68  1  0  0  0  0
 63 78  1  0  0  0  0
 64 65  1  0  0  0  0
 65 85  1  0  0  0  0
 66 68  1  0  0  0  0
 66 77  1  0  0  0  0
 67 78  1  0  0  0  0
 69 70  1  0  0  0  0
M  CHG  1  78   1
M  ISO  4  38 100  65 101  73 100  85 101
M  END
> <Batch ID>
0150

> <Smiles>
CNC(C)C(=O)NC(C(=O)N1Cc2cc([101O:1][101CH2:1]Cc3ccc(C4CC4)c(C4CC[100N:0]([100C:0](=O)N5CCCC(n6nc(-c7ccc(Oc8ccc(F)cc8F)cc7)c(C(N)=O)c6N)C5)CC4)c3)ccc2CC1C(=O)NC1CCCc2ccccc21)C(C)(C)C

> <Shape>
0.242

> <Color>
0.087

> <Negative vol penalty>
0.000

$$$$

  -OEChem-04052321413D

 93103  0     1  0  0  0  0  0999 V2000
  -19.4205  -25.0541   24.7675 C   0  0  0  0  0  0  0  0  0  0  0  0
  -20.7351  -25.1155   24.3165 C   0  0  0  0  0  0  0  0  0  0  0  0
  -24.9585   -8.5068   21.3239 C   0  0  0  0  0  0  0  0  0  0  0  0
  -23.4190  -10.1485   20.4456 C   0  0  0  0  0  0  0  0  0  0  0  0
  -18.4998  -26.0193   24.3618 C   0  0  0  0  0  0  0  0  0  0  0  0
  -21.1295  -26.1415   23.4584 C   0  0  0  0  0  0  0  0  0  0  0  0
  -26.5884  -28.9129   23.2983 C   0  0  0  0  0  0  0  0  0  0  0  0
  -23.9099   -7.5975   21.4626 C   0  0  0  0  0  0  0  0  0  0  0  0
  -22.3703   -9.2392   20.5842 C   0  0  0  0  0  0  0  0  0  0  0  0
  -27.7065  -28.7362   22.4845 C   0  0  0  0  0  0  0  0  0  0  0  0
  -21.3733   -7.0322   23.6237 C   0  0  0  0  0  0  0  0  0  0  0  0
  -21.2948   -6.3114   24.8153 C   0  0  0  0  0  0  0  0  0  0  0  0
  -28.8332  -22.1752   17.3178 C   0  0  0  0  0  0  0  0  0  0  0  0
  -28.4388  -22.9363   19.5766 C   0  0  0  0  0  0  0  0  0  0  0  0
  -26.9533  -30.5383   21.0687 C   0  0  0  0  0  0  0  0  0  0  0  0
  -21.4973   -4.2455   23.5791 C   0  0  0  0  0  0  0  0  0  0  0  0
  -24.7131   -9.7823   20.8155 C   0  0  0  0  0  0  0  0  0  0  0  0
  -26.6252  -10.8991   19.5489 C   0  0  0  0  0  0  0  0  0  0  0  0
  -18.8854  -27.0631   23.5060 C   0  0  0  0  0  0  0  0  0  0  0  0
  -25.6371  -29.8980   22.9968 C   0  0  0  0  0  0  0  0  0  0  0  0
  -20.2127  -27.1207   23.0398 C   0  0  0  0  0  0  0  0  0  0  0  0
  -28.7987  -23.2065   18.2563 C   0  0  0  0  0  0  0  0  0  0  0  0
  -25.8253  -30.7271   21.8818 C   0  0  0  0  0  0  0  0  0  0  0  0
  -28.1477  -20.6034   19.0198 C   0  0  0  0  0  0  0  0  0  0  0  0
  -28.5076  -20.8736   17.6996 C   0  0  0  0  0  0  0  0  0  0  0  0
  -22.6158   -7.9637   21.0927 C   0  0  0  0  0  0  0  0  0  0  0  0
  -27.8876  -29.5470   21.3679 C   0  0  0  0  0  0  0  0  0  0  0  0
  -21.5138   -6.3596   22.4097 C   0  0  0  0  0  0  0  0  0  0  0  0
  -28.1132  -21.6347   19.9583 C   0  0  0  0  0  0  0  0  0  0  0  0
  -21.3568   -4.9181   24.7930 C   0  0  0  0  0  0  0  0  0  0  0  0
  -21.5758   -4.9663   22.3875 C   0  0  0  0  0  0  0  0  0  0  0  0
  -25.7958  -10.7222   20.6725 C   0  0  0  0  0  0  0  0  0  0  0  0
  -27.4875  -11.9041   19.9134 C   0  0  0  0  0  0  0  0  0  0  0  0
  -26.6168  -10.2161   18.2882 C   0  0  0  0  0  0  0  0  0  0  0  0
  -22.5443  -29.8800   22.2634 C   0  0  0  0  0  0  0  0  0  0  0  0
  -22.8806  -33.1010   22.4489 C   0  0  0  0  0  0  0  0  0  0  0  0
  -24.9453  -35.8130   22.2789 C   0  0  0  0  0  0  0  0  0  0  0  0
  -28.4077  -16.8703   22.2772 C   0  0  0  0  0  0  0  0  0  0  0  0
  -17.8430  -28.0563   23.0570 C   0  0  0  0  0  0  0  0  0  0  0  0
  -24.4502  -30.0936   23.8998 C   0  0  0  0  0  0  0  0  0  0  0  0
  -24.8438  -31.8127   21.5261 C   0  0  0  0  0  0  0  0  0  0  0  0
  -18.4334  -29.3242   22.4452 C   0  0  0  0  0  0  0  0  0  0  0  0
  -28.3747  -14.0399   24.3916 C   0  0  0  0  0  0  0  0  0  0  0  0
  -19.5295  -28.9735   21.4441 C   0  0  0  0  0  0  0  0  0  0  0  0
  -27.7400  -12.9426   23.5416 C   0  0  0  0  0  0  0  0  0  0  0  0
  -26.3992  -18.9804   20.0485 C   0  0  0  0  0  0  0  0  0  0  0  0
  -27.9452  -25.5351   18.0663 C   0  0  0  0  0  0  0  0  0  0  0  0
  -30.3683  -25.0984   18.6357 C   0  0  0  0  0  0  0  0  0  0  0  0
  -27.7114  -15.3840   24.1229 C   0  0  0  0  0  0  0  0  0  0  0  0
  -26.5202  -17.6157   20.7132 C   0  0  0  0  0  0  0  0  0  0  0  0
  -28.6928  -18.6118   20.5402 C   0  0  0  0  0  0  0  0  0  0  0  0
  -27.1542  -14.7101   21.8022 C   0  0  0  0  0  0  0  0  0  0  0  0
  -28.2934  -26.9808   17.7359 C   0  0  0  0  0  0  0  0  0  0  0  0
  -30.6981  -26.5474   18.3006 C   0  0  0  0  0  0  0  0  0  0  0  0
  -29.1456  -24.5982   17.8476 C   0  0  0  0  0  0  0  0  0  0  0  0
  -27.7945  -19.1936   19.4394 C   0  0  2  0  0  0  0  0  0  0  0  0
  -20.6848  -28.2324   22.1280 C   0  0  1  0  0  0  0  0  0  0  0  0
  -23.2809  -30.7873   23.2078 C   0  0  1  0  0  0  0  0  0  0  0  0
  -27.7768  -13.3211   22.0529 C   0  0  2  0  0  0  0  0  0  0  0  0
  -28.5508  -19.7872   16.6754 C   0  0  0  0  0  0  0  0  0  0  0  0
  -28.4693  -21.4461   23.5401 C   0  0  0  0  0  0  0  0  0  0  0  0
  -24.9245  -38.3175   22.4348 C   0  0  0  0  0  0  0  0  0  0  0  0
  -21.6730  -33.2627   19.6515 C   0  0  0  0  0  0  0  0  0  0  0  0
  -22.5412  -35.6053   19.4878 C   0  0  0  0  0  0  0  0  0  0  0  0
  -20.8652  -35.0177   21.2395 C   0  0  0  0  0  0  0  0  0  0  0  0
  -26.7761  -35.7993   24.6042 C   0  0  0  0  0  0  0  0  0  0  0  0
  -29.7943  -28.8699   18.3630 C   0  0  0  0  0  0  0  0  0  0  0  0
  -28.3456  -22.2278   22.2496 C   0  0  0  0  0  0  0  0  0  0  0  0
  -28.8315  -29.6986   19.1902 C   0  0  0  0  0  0  0  0  0  1  0  0
  -23.2444  -34.1958   21.4752 C   0  0  1  0  0  0  0  0  0  0  0  0
  -25.1095  -37.0129   23.1941 C   0  0  2  0  0  0  0  0  0  0  0  0
  -22.0986  -34.4987   20.4688 C   0  0  0  0  0  0  0  0  0  0  0  0
  -26.1036  -11.5484   21.6758 N   0  0  0  0  0  0  0  0  0  0  0  0
  -27.1361  -12.2541   21.1839 N   0  0  0  0  0  0  0  0  0  0  0  0
  -23.6961  -31.9605   22.4362 N   0  0  0  0  0  0  0  0  0  0  0  0
  -27.7265  -15.7230   22.6987 N   0  0  0  0  0  0  0  0  0  0  0  0
  -27.9064  -17.5575   21.1724 N   0  0  0  0  0  0  0  0  0  0  0  0
  -28.5045  -12.5135   19.2679 N   0  0  0  0  0  0  0  0  0  0  0  0
  -25.6638   -9.2098   18.0799 N   0  0  0  0  0  0  0  0  0  0  0  0
  -21.5220  -29.1626   22.8547 N   0  0  0  0  0  0  0  0  0  0  0  0
  -23.6495  -35.3417   22.2821 N   0  0  0  0  0  0  0  0  0  0  0  0
  -29.4859  -27.4106   18.5562 N   0  3  0  0  0  0  0  0  0  0  0  0
  -26.4678  -37.0146   23.8074 N   0  3  0  0  0  0  0  0  0  0  0  0
  -27.4409  -10.4788   17.3797 O   0  0  0  0  0  0  0  0  0  0  0  0
  -22.8778  -29.8353   21.0850 O   0  0  0  0  0  0  0  0  0  0  0  0
  -21.9129  -33.2552   23.1982 O   0  0  0  0  0  0  0  0  0  0  0  0
  -25.8729  -35.3432   21.6236 O   0  0  0  0  0  0  0  0  0  0  0  0
  -29.4006  -17.2890   22.8877 O   0  0  0  0  0  0  0  0  0  0  0  0
  -21.5924   -7.0766   21.2277 O   0  0  0  0  0  0  0  0  0  0  0  0
  -28.9856  -29.3750   20.5657 O   0  0  0  0  0  0  0  0  0  1  0  0
  -27.7651  -21.3895   21.2526 O   0  0  0  0  0  0  0  0  0  0  0  0
  -21.2829   -4.2262   25.9376 F   0  0  0  0  0  0  0  0  0  0  0  0
  -21.7118   -4.3147   21.2244 F   0  0  0  0  0  0  0  0  0  0  0  0
  1  2  1  0  0  0  0
  1  5  2  0  0  0  0
  2  6  2  0  0  0  0
  3  8  2  0  0  0  0
  3 17  1  0  0  0  0
  4  9  1  0  0  0  0
  4 17  2  0  0  0  0
  5 19  1  0  0  0  0
  6 21  1  0  0  0  0
  7 10  2  0  0  0  0
  7 20  1  0  0  0  0
  8 26  1  0  0  0  0
  9 26  2  0  0  0  0
 10 27  1  0  0  0  0
 11 12  2  0  0  0  0
 11 28  1  0  0  0  0
 12 30  1  0  0  0  0
 13 22  1  0  0  0  0
 13 25  2  0  0  0  0
 14 22  2  0  0  0  0
 14 29  1  0  0  0  0
 15 23  1  0  0  0  0
 15 27  2  0  0  0  0
 16 30  2  0  0  0  0
 16 31  1  0  0  0  0
 17 32  1  0  0  0  0
 18 32  1  0  0  0  0
 18 33  2  0  0  0  0
 18 34  1  0  0  0  0
 19 21  2  0  0  0  0
 19 39  1  0  0  0  0
 20 23  2  0  0  0  0
 20 40  1  0  0  0  0
 21 57  1  0  0  0  0
 22 55  1  0  0  0  0
 23 41  1  0  0  0  0
 24 25  1  0  0  0  0
 24 29  2  0  0  0  0
 24 56  1  0  0  0  0
 25 60  1  0  0  0  0
 26 89  1  0  0  0  0
 27 90  1  0  0  0  0
 28 31  2  0  0  0  0
 28 89  1  0  0  0  0
 29 91  1  0  0  0  0
 30 92  1  0  0  0  0
 31 93  1  0  0  0  0
 32 73  2  0  0  0  0
 33 74  1  0  0  0  0
 33 78  1  0  0  0  0
 34 79  1  0  0  0  0
 34 84  2  0  0  0  0
 35 58  1  0  0  0  0
 35 80  1  0  0  0  0
 35 85  2  0  0  0  0
 36 70  1  0  0  0  0
 36 75  1  0  0  0  0
 36 86  2  0  0  0  0
 37 71  1  0  0  0  0
 37 81  1  0  0  0  0
 37 87  2  0  0  0  0
 38 76  1  0  0  0  0
 38 77  1  0  0  0  0
 38 88  2  0  0  0  0
 39 42  1  0  0  0  0
 40 58  1  0  0  0  0
 41 75  1  0  0  0  0
 42 44  1  0  0  0  0
 43 45  1  0  0  0  0
 43 49  1  0  0  0  0
 44 57  1  0  0  0  0
 45 59  1  0  0  0  0
 46 50  1  0  0  0  0
 46 56  1  0  0  0  0
 47 53  1  0  0  0  0
 47 55  1  0  0  0  0
 48 54  1  0  0  0  0
 48 55  1  0  0  0  0
 49 76  1  0  0  0  0
 50 77  1  0  0  0  0
 51 56  1  0  0  0  0
 51 77  1  0  0  0  0
 52 59  1  0  0  0  0
 52 76  1  0  0  0  0
 53 82  1  0  0  0  0
 54 82  1  0  0  0  0
 57 80  1  0  0  0  0
 58 75  1  0  0  0  0
 59 74  1  0  0  0  0
 61 68  1  0  0  0  0
 62 71  1  0  0  0  0
 63 72  1  0  0  0  0
 64 72  1  0  0  0  0
 65 72  1  0  0  0  0
 66 83  1  0  0  0  0
 67 69  1  0  0  0  0
 67 82  1  0  0  0  0
 68 91  1  0  0  0  0
 69 90  1  0  0  0  0
 70 72  1  0  0  0  0
 70 81  1  0  0  0  0
 71 83  1  0  0  0  0
 73 74  1  0  0  0  0
M  CHG  2  82   1  83   1
M  ISO  4  38 100  69 101  77 100  90 101
M  END
> <Batch ID>
0150

> <Smiles>
CCOc1cc(C2CCN(C[101CH2:1][101O:1]c3ccc4c(c3)CN(C(=O)C(NC(=O)C(C)NC)C(C)(C)C)C(C(=O)NC3CCCc5ccccc53)C4)CC2)cc(C)c1C1CC[100N:0]([100C:0](=O)N2CCCC(n3nc(-c4ccc(Oc5ccc(F)cc5F)cc4)c(C(N)=O)c3N)C2)C1

> <Shape>
0.338

> <Color>
0.123

> <Negative vol penalty>
0.000

$$$$

  -OEChem-04052321413D

 89 98  0     1  0  0  0  0  0999 V2000
  -26.5183  -35.4908   22.7994 C   0  0  0  0  0  0  0  0  0  0  0  0
  -26.9687  -34.1876   22.6141 C   0  0  0  0  0  0  0  0  0  0  0  0
  -25.2075  -11.4782   21.0123 C   0  0  0  0  0  0  0  0  0  0  0  0
  -25.3025  -12.5759   23.1625 C   0  0  0  0  0  0  0  0  0  0  0  0
  -25.2609  -35.7199   23.3565 C   0  0  0  0  0  0  0  0  0  0  0  0
  -26.1624  -33.1128   22.9869 C   0  0  0  0  0  0  0  0  0  0  0  0
  -26.0475  -29.4621   19.4791 C   0  0  0  0  0  0  0  0  0  0  0  0
  -25.3313  -10.2386   21.6397 C   0  0  0  0  0  0  0  0  0  0  0  0
  -25.4262  -11.3362   23.7899 C   0  0  0  0  0  0  0  0  0  0  0  0
  -27.1462  -28.6062   19.4147 C   0  0  0  0  0  0  0  0  0  0  0  0
  -23.3383   -8.0910   23.3275 C   0  0  0  0  0  0  0  0  0  0  0  0
  -22.4908   -7.0652   22.9089 C   0  0  0  0  0  0  0  0  0  0  0  0
  -29.6040  -24.1619   23.4159 C   0  0  0  0  0  0  0  0  0  0  0  0
  -25.9154  -26.9427   20.6545 C   0  0  0  0  0  0  0  0  0  0  0  0
  -31.5699  -24.0896   21.9879 C   0  0  0  0  0  0  0  0  0  0  0  0
  -24.4088   -5.7355   22.2842 C   0  0  0  0  0  0  0  0  0  0  0  0
  -25.1932  -12.6469   21.7737 C   0  0  0  0  0  0  0  0  0  0  0  0
  -23.8741  -14.6150   20.8282 C   0  0  0  0  0  0  0  0  0  0  0  0
  -24.4348  -34.6472   23.7274 C   0  0  0  0  0  0  0  0  0  0  0  0
  -24.8764  -29.0682   20.1423 C   0  0  0  0  0  0  0  0  0  0  0  0
  -24.8933  -33.3278   23.5507 C   0  0  0  0  0  0  0  0  0  0  0  0
  -29.9872  -22.9411   23.9471 C   0  0  0  0  0  0  0  0  0  0  0  0
  -24.8023  -27.7944   20.7237 C   0  0  0  0  0  0  0  0  0  0  0  0
  -31.1447  -22.2853   23.5030 C   0  0  0  0  0  0  0  0  0  0  0  0
  -31.9424  -22.8529   22.5197 C   0  0  0  0  0  0  0  0  0  0  0  0
  -25.4406  -10.1676   23.0284 C   0  0  0  0  0  0  0  0  0  0  0  0
  -27.0813  -27.3474   20.0049 C   0  0  0  0  0  0  0  0  0  0  0  0
  -24.7210   -7.9391   23.2243 C   0  0  0  0  0  0  0  0  0  0  0  0
  -30.4088  -24.7392   22.4325 C   0  0  0  0  0  0  0  0  0  0  0  0
  -23.0261   -5.8875   22.3874 C   0  0  0  0  0  0  0  0  0  0  0  0
  -25.2563   -6.7613   22.7027 C   0  0  0  0  0  0  0  0  0  0  0  0
  -25.0660  -13.9278   21.1262 C   0  0  0  0  0  0  0  0  0  0  0  0
  -24.2891  -15.7741   20.2192 C   0  0  0  0  0  0  0  0  0  0  0  0
  -22.5134  -14.2394   21.0796 C   0  0  0  0  0  0  0  0  0  0  0  0
  -23.2558  -30.1378   22.6590 C   0  0  0  0  0  0  0  0  0  0  0  0
  -21.1211  -27.8673   21.7589 C   0  0  0  0  0  0  0  0  0  0  0  0
  -20.5307  -24.9337   20.1181 C   0  0  0  0  0  0  0  0  0  0  0  0
  -29.3807  -18.9146   20.4699 C   0  0  0  0  0  0  0  0  0  0  0  0
  -23.1029  -34.9449   24.3694 C   0  0  0  0  0  0  0  0  0  0  0  0
  -23.6905  -29.9928   20.1798 C   0  0  0  0  0  0  0  0  0  0  0  0
  -29.2656  -22.1290   24.9754 C   0  0  0  0  0  0  0  0  0  0  0  0
  -23.5610  -27.3160   21.4299 C   0  0  0  0  0  0  0  0  0  0  0  0
  -22.1563  -33.7475   24.3917 C   0  0  0  0  0  0  0  0  0  0  0  0
  -30.3781  -21.1717   25.4288 C   0  0  0  0  0  0  0  0  0  0  0  0
  -27.8555  -17.5381   17.5621 C   0  0  0  0  0  0  0  0  0  0  0  0
  -22.8884  -32.4970   24.8682 C   0  0  0  0  0  0  0  0  0  0  0  0
  -26.8601  -16.5188   18.1189 C   0  0  0  0  0  0  0  0  0  0  0  0
  -29.1362  -17.5879   18.3924 C   0  0  0  0  0  0  0  0  0  0  0  0
  -27.9350  -16.7932   20.3922 C   0  0  0  0  0  0  0  0  0  0  0  0
  -24.0376  -32.1354   23.9196 C   0  0  1  0  0  0  0  0  0  0  0  0
  -22.7305  -29.6870   21.3253 C   0  0  1  0  0  0  0  0  0  0  0  0
  -26.6049  -16.7470   19.6210 C   0  0  2  0  0  0  0  0  0  0  0  0
  -31.3161  -20.9606   24.2100 C   0  0  1  0  0  0  0  0  0  0  0  0
  -33.1623  -22.1867   21.9845 C   0  0  0  0  0  0  0  0  0  0  0  0
  -18.6938  -23.3080   19.5884 C   0  0  0  0  0  0  0  0  0  0  0  0
  -33.2211  -21.7991   25.6111 C   0  0  0  0  0  0  0  0  0  0  0  0
  -32.8531  -19.3305   25.3390 C   0  0  0  0  0  0  0  0  0  0  0  0
  -21.2615  -26.7840   24.6079 C   0  0  0  0  0  0  0  0  0  0  0  0
  -20.1970  -24.6732   23.7834 C   0  0  0  0  0  0  0  0  0  0  0  0
  -18.9631  -26.8353   23.6234 C   0  0  0  0  0  0  0  0  0  0  0  0
  -20.8351  -25.3603   17.2054 C   0  0  0  0  0  0  0  0  0  0  0  0
  -30.8224  -19.8113   23.3211 C   0  0  0  0  0  0  0  0  0  0  0  0
  -29.5162  -20.1447   22.6212 C   0  0  0  0  0  0  0  0  0  0  0  0
  -29.4451  -27.1124   19.8910 C   0  0  0  0  0  0  0  0  0  1  0  0
  -30.4509  -26.1844   20.5442 C   0  0  0  0  0  0  0  0  0  0  0  0
  -20.9168  -26.4058   22.0772 C   0  0  1  0  0  0  0  0  0  0  0  0
  -19.4585  -24.5361   19.1196 C   0  0  2  0  0  0  0  0  0  0  0  0
  -32.7527  -20.6961   24.6679 C   0  0  0  0  0  0  0  0  0  0  0  0
  -20.3588  -26.1840   23.5114 C   0  0  0  0  0  0  0  0  0  0  0  0
  -26.1564  -14.5945   20.7383 N   0  0  0  0  0  0  0  0  0  0  0  0
  -25.6513  -15.7128   20.1902 N   0  0  0  0  0  0  0  0  0  0  0  0
  -22.4304  -28.2588   21.4453 N   0  0  0  0  0  0  0  0  0  0  0  0
  -28.8246  -17.8084   19.8067 N   0  0  0  0  0  0  0  0  0  0  0  0
  -23.6180  -16.8294   19.7109 N   0  0  0  0  0  0  0  0  0  0  0  0
  -22.2647  -13.0150   21.7147 N   0  0  0  0  0  0  0  0  0  0  0  0
  -23.5263  -31.4911   22.7288 N   0  0  0  0  0  0  0  0  0  0  0  0
  -20.0688  -25.8717   21.0170 N   0  0  0  0  0  0  0  0  0  0  0  0
  -29.0292  -19.0534   21.8071 N   0  0  0  0  0  0  0  0  0  0  0  0
  -20.0711  -24.2313   17.7957 N   0  3  0  0  0  0  0  0  0  0  0  0
  -21.5461  -14.9603   20.7359 O   0  0  0  0  0  0  0  0  0  0  0  0
  -23.4033  -29.3187   23.5584 O   0  0  0  0  0  0  0  0  0  0  0  0
  -20.1534  -28.6319   21.7805 O   0  0  0  0  0  0  0  0  0  0  0  0
  -21.6633  -24.4568   20.1045 O   0  0  0  0  0  0  0  0  0  0  0  0
  -30.1304  -19.7220   19.9105 O   0  0  0  0  0  0  0  0  0  0  0  0
  -25.5611   -8.9581   23.6409 O   0  0  0  0  0  0  0  0  0  0  0  0
  -28.1524  -26.5103   19.9440 O   0  0  0  0  0  0  0  0  0  1  0  0
  -30.0587  -25.9480   21.8909 O   0  0  0  0  0  0  0  0  0  0  0  0
  -22.2122   -4.9019   21.9870 F   0  0  0  0  0  0  0  0  0  0  0  0
  -26.5839   -6.6091   22.6023 F   0  0  0  0  0  0  0  0  0  0  0  0
  1  2  1  0  0  0  0
  1  5  2  0  0  0  0
  2  6  2  0  0  0  0
  3  8  2  0  0  0  0
  3 17  1  0  0  0  0
  4  9  1  0  0  0  0
  4 17  2  0  0  0  0
  5 19  1  0  0  0  0
  6 21  1  0  0  0  0
  7 10  2  0  0  0  0
  7 20  1  0  0  0  0
  8 26  1  0  0  0  0
  9 26  2  0  0  0  0
 10 27  1  0  0  0  0
 11 12  2  0  0  0  0
 11 28  1  0  0  0  0
 12 30  1  0  0  0  0
 13 22  1  0  0  0  0
 13 29  2  0  0  0  0
 14 23  1  0  0  0  0
 14 27  2  0  0  0  0
 15 25  2  0  0  0  0
 15 29  1  0  0  0  0
 16 30  2  0  0  0  0
 16 31  1  0  0  0  0
 17 32  1  0  0  0  0
 18 32  1  0  0  0  0
 18 33  2  0  0  0  0
 18 34  1  0  0  0  0
 19 21  2  0  0  0  0
 19 39  1  0  0  0  0
 20 23  2  0  0  0  0
 20 40  1  0  0  0  0
 21 50  1  0  0  0  0
 22 24  2  0  0  0  0
 22 41  1  0  0  0  0
 23 42  1  0  0  0  0
 24 25  1  0  0  0  0
 24 53  1  0  0  0  0
 25 54  1  0  0  0  0
 26 85  1  0  0  0  0
 27 86  1  0  0  0  0
 28 31  2  0  0  0  0
 28 85  1  0  0  0  0
 29 87  1  0  0  0  0
 30 88  1  0  0  0  0
 31 89  1  0  0  0  0
 32 70  2  0  0  0  0
 33 71  1  0  0  0  0
 33 74  1  0  0  0  0
 34 75  1  0  0  0  0
 34 80  2  0  0  0  0
 35 51  1  0  0  0  0
 35 76  1  0  0  0  0
 35 81  2  0  0  0  0
 36 66  1  0  0  0  0
 36 72  1  0  0  0  0
 36 82  2  0  0  0  0
 37 67  1  0  0  0  0
 37 77  1  0  0  0  0
 37 83  2  0  0  0  0
 38 73  1  0  0  0  0
 38 78  1  0  0  0  0
 38 84  2  0  0  0  0
 39 43  1  0  0  0  0
 40 51  1  0  0  0  0
 41 44  1  0  0  0  0
 42 72  1  0  0  0  0
 43 46  1  0  0  0  0
 44 53  1  0  0  0  0
 45 47  1  0  0  0  0
 45 48  1  0  0  0  0
 46 50  1  0  0  0  0
 47 52  1  0  0  0  0
 48 73  1  0  0  0  0
 49 52  1  0  0  0  0
 49 73  1  0  0  0  0
 50 76  1  0  0  0  0
 51 72  1  0  0  0  0
 52 71  1  0  0  0  0
 53 62  1  0  0  0  0
 53 68  1  0  0  0  0
 55 67  1  0  0  0  0
 56 68  1  0  0  0  0
 57 68  1  0  0  0  0
 58 69  1  0  0  0  0
 59 69  1  0  0  0  0
 60 69  1  0  0  0  0
 61 79  1  0  0  0  0
 62 63  1  0  0  0  0
 63 78  1  0  0  0  0
 64 65  1  0  0  0  0
 64 86  1  0  0  0  0
 65 87  1  0  0  0  0
 66 69  1  0  0  0  0
 66 77  1  0  0  0  0
 67 79  1  0  0  0  0
 70 71  1  0  0  0  0
M  CHG  1  79   1
M  ISO  4  38 100  64 101  78 100  86 101
M  END
> <Batch ID>
0150

> <Smiles>
CNC(C)C(=O)NC(C(=O)N1Cc2cc([101O:1][101CH2:1]COc3cc(C)c4c(c3)CCC4(CC[100NH:0][100C:0](=O)N3CCCC(n4nc(-c5ccc(Oc6ccc(F)cc6F)cc5)c(C(N)=O)c4N)C3)C(C)C)ccc2CC1C(=O)NC1CCCc2ccccc21)C(C)(C)C

> <Shape>
0.264

> <Color>
0.089

> <Negative vol penalty>
0.000

$$$$

  -OEChem-04052321413D

 90100  0     1  0  0  0  0  0999 V2000
  -29.8250  -30.5152   23.1252 C   0  0  0  0  0  0  0  0  0  0  0  0
  -29.1516  -29.6467   22.2722 C   0  0  0  0  0  0  0  0  0  0  0  0
  -23.2755  -10.1520   22.2692 C   0  0  0  0  0  0  0  0  0  0  0  0
  -23.5277   -9.7274   19.9042 C   0  0  0  0  0  0  0  0  0  0  0  0
  -29.1961  -30.9867   24.2767 C   0  0  0  0  0  0  0  0  0  0  0  0
  -27.8491  -29.2483   22.5709 C   0  0  0  0  0  0  0  0  0  0  0  0
  -24.7933  -29.4141   18.5360 C   0  0  0  0  0  0  0  0  0  0  0  0
  -22.4708   -9.0187   22.3868 C   0  0  0  0  0  0  0  0  0  0  0  0
  -22.7230   -8.5941   20.0218 C   0  0  0  0  0  0  0  0  0  0  0  0
  -24.8943  -28.3702   17.6175 C   0  0  0  0  0  0  0  0  0  0  0  0
  -22.8970   -5.6698   22.5758 C   0  0  0  0  0  0  0  0  0  0  0  0
  -23.1408   -4.8100   23.6468 C   0  0  0  0  0  0  0  0  0  0  0  0
  -24.5891  -18.1639   18.5627 C   0  0  0  0  0  0  0  0  0  0  0  0
  -22.9443  -27.3346   18.5893 C   0  0  0  0  0  0  0  0  0  0  0  0
  -23.2969  -20.2000   18.7089 C   0  0  0  0  0  0  0  0  0  0  0  0
  -20.8911   -5.1726   24.4499 C   0  0  0  0  0  0  0  0  0  0  0  0
  -23.8039  -10.5064   21.0278 C   0  0  0  0  0  0  0  0  0  0  0  0
  -24.2789  -13.0067   21.2015 C   0  0  0  0  0  0  0  0  0  0  0  0
  -27.8818  -30.6015   24.5847 C   0  0  0  0  0  0  0  0  0  0  0  0
  -23.7718  -29.4206   19.4967 C   0  0  0  0  0  0  0  0  0  0  0  0
  -27.2024  -29.7141   23.7283 C   0  0  0  0  0  0  0  0  0  0  0  0
  -25.5613  -18.8341   17.8203 C   0  0  0  0  0  0  0  0  0  0  0  0
  -22.8311  -28.3811   19.5173 C   0  0  0  0  0  0  0  0  0  0  0  0
  -23.4569  -18.8468   19.0070 C   0  0  0  0  0  0  0  0  0  0  0  0
  -25.4014  -20.1874   17.5222 C   0  0  0  0  0  0  0  0  0  0  0  0
  -24.2692  -20.8703   17.9666 C   0  0  0  0  0  0  0  0  0  0  0  0
  -22.1946   -8.2398   21.2632 C   0  0  0  0  0  0  0  0  0  0  0  0
  -23.9715  -27.3287   17.6459 C   0  0  0  0  0  0  0  0  0  0  0  0
  -21.6503   -6.2810   22.4419 C   0  0  0  0  0  0  0  0  0  0  0  0
  -22.1378   -4.5614   24.5838 C   0  0  0  0  0  0  0  0  0  0  0  0
  -20.6474   -6.0324   23.3789 C   0  0  0  0  0  0  0  0  0  0  0  0
  -24.6347  -11.6772   20.9055 C   0  0  0  0  0  0  0  0  0  0  0  0
  -25.4088  -13.7352   20.9204 C   0  0  0  0  0  0  0  0  0  0  0  0
  -23.0380  -13.5359   21.6871 C   0  0  0  0  0  0  0  0  0  0  0  0
  -23.6796  -29.3545   22.6733 C   0  0  0  0  0  0  0  0  0  0  0  0
  -20.5001  -29.7916   22.2016 C   0  0  0  0  0  0  0  0  0  0  0  0
  -17.8072  -29.4686   20.1302 C   0  0  0  0  0  0  0  0  0  0  0  0
  -29.7416  -14.9769   17.8221 C   0  0  0  0  0  0  0  0  0  0  0  0
  -27.2604  -31.1000   25.8653 C   0  0  0  0  0  0  0  0  0  0  0  0
  -23.6608  -30.5677   20.4634 C   0  0  0  0  0  0  0  0  0  0  0  0
  -21.7037  -28.3514   20.5155 C   0  0  0  0  0  0  0  0  0  0  0  0
  -25.7447  -30.9255   25.9151 C   0  0  0  0  0  0  0  0  0  0  0  0
  -30.1338  -12.2561   19.9185 C   0  0  0  0  0  0  0  0  0  0  0  0
  -25.3533  -29.5240   25.4576 C   0  0  0  0  0  0  0  0  0  0  0  0
  -28.7121  -11.9596   20.3960 C   0  0  0  0  0  0  0  0  0  0  0  0
  -27.9496  -18.1720   18.3463 C   0  0  0  0  0  0  0  0  0  0  0  0
  -26.4574  -16.5937   17.0489 C   0  0  0  0  0  0  0  0  0  0  0  0
  -23.7713  -24.0332   16.0311 C   0  0  0  0  0  0  0  0  0  0  0  0
  -24.3867  -24.5697   18.3934 C   0  0  0  0  0  0  0  0  0  0  0  0
  -30.1493  -12.6121   18.4362 C   0  0  0  0  0  0  0  0  0  0  0  0
  -29.1637  -17.3759   17.8736 C   0  0  0  0  0  0  0  0  0  0  0  0
  -27.7043  -15.8348   16.6043 C   0  0  0  0  0  0  0  0  0  0  0  0
  -23.3879  -22.6166   16.4499 C   0  0  0  0  0  0  0  0  0  0  0  0
  -23.9995  -23.1558   18.8156 C   0  0  0  0  0  0  0  0  0  0  0  0
  -27.8352  -13.4755   18.5529 C   0  0  0  0  0  0  0  0  0  0  0  0
  -26.7829  -18.0676   17.3489 C   0  0  0  0  0  0  0  0  0  0  0  0
  -25.7798  -29.2786   24.0052 C   0  0  1  0  0  0  0  0  0  0  0  0
  -22.8854  -30.2106   21.7278 C   0  0  1  0  0  0  0  0  0  0  0  0
  -27.7609  -13.1190   20.0510 C   0  0  1  0  0  0  0  0  0  0  0  0
  -23.5988  -25.0282   17.1717 C   0  0  0  0  0  0  0  0  0  1  0  0
  -22.4161  -18.1292   19.7980 C   0  0  0  0  0  0  0  0  0  0  0  0
  -26.4465  -20.9024   16.7248 C   0  0  0  0  0  0  0  0  0  0  0  0
  -15.3333  -29.8790   20.0370 C   0  0  0  0  0  0  0  0  0  0  0  0
  -20.0299  -27.3411   23.9577 C   0  0  0  0  0  0  0  0  0  0  0  0
  -17.6923  -27.2377   23.0668 C   0  0  0  0  0  0  0  0  0  0  0  0
  -18.4450  -29.2331   24.3609 C   0  0  0  0  0  0  0  0  0  0  0  0
  -18.0867  -31.3443   17.8581 C   0  0  0  0  0  0  0  0  0  0  0  0
  -19.3121  -28.8796   22.0125 C   0  0  1  0  0  0  0  0  0  0  0  0
  -16.7130  -30.4461   19.7408 C   0  0  2  0  0  0  0  0  0  0  0  0
  -18.8921  -28.1722   23.3318 C   0  0  0  0  0  0  0  0  0  0  0  0
  -25.8923  -11.5648   20.4697 N   0  0  0  0  0  0  0  0  0  0  0  0
  -26.3365  -12.8330   20.4896 N   0  0  0  0  0  0  0  0  0  0  0  0
  -24.0910  -22.2294   17.6782 N   0  0  0  0  0  0  0  0  0  0  0  0
  -21.6413  -29.4923   21.4439 N   0  0  0  0  0  0  0  0  0  0  0  0
  -29.2291  -13.7122   18.1487 N   0  0  0  0  0  0  0  0  0  0  0  0
  -28.8063  -15.9923   17.5632 N   0  0  0  0  0  0  0  0  0  0  0  0
  -25.6894  -15.0532   21.0021 N   0  0  0  0  0  0  0  0  0  0  0  0
  -22.0719  -13.9367   20.7542 N   0  0  0  0  0  0  0  0  0  0  0  0
  -24.8642  -29.9292   23.0927 N   0  0  0  0  0  0  0  0  0  0  0  0
  -18.2626  -29.6957   21.4118 N   0  0  0  0  0  0  0  0  0  0  0  0
  -16.7906  -30.7576   18.2856 N   0  3  0  0  0  0  0  0  0  0  0  0
  -22.7997  -13.6652   22.9118 O   0  0  0  0  0  0  0  0  0  0  0  0
  -23.2487  -28.2546   22.9995 O   0  0  0  0  0  0  0  0  0  0  0  0
  -20.4163  -30.7390   22.9871 O   0  0  0  0  0  0  0  0  0  0  0  0
  -18.2145  -28.5890   19.3746 O   0  0  0  0  0  0  0  0  0  0  0  0
  -30.9593  -15.1900   17.7698 O   0  0  0  0  0  0  0  0  0  0  0  0
  -21.4096   -7.1338   21.3777 O   0  0  0  0  0  0  0  0  0  0  0  0
  -24.0688  -26.3011   16.7448 O   0  0  0  0  0  0  0  0  0  1  0  0
  -22.3716   -3.7345   25.6113 F   0  0  0  0  0  0  0  0  0  0  0  0
  -19.4474   -6.6158   23.2549 F   0  0  0  0  0  0  0  0  0  0  0  0
  1  2  1  0  0  0  0
  1  5  2  0  0  0  0
  2  6  2  0  0  0  0
  3  8  2  0  0  0  0
  3 17  1  0  0  0  0
  4  9  1  0  0  0  0
  4 17  2  0  0  0  0
  5 19  1  0  0  0  0
  6 21  1  0  0  0  0
  7 10  2  0  0  0  0
  7 20  1  0  0  0  0
  8 27  1  0  0  0  0
  9 27  2  0  0  0  0
 10 28  1  0  0  0  0
 11 12  2  0  0  0  0
 11 29  1  0  0  0  0
 12 30  1  0  0  0  0
 13 22  2  0  0  0  0
 13 24  1  0  0  0  0
 14 23  1  0  0  0  0
 14 28  2  0  0  0  0
 15 24  2  0  0  0  0
 15 26  1  0  0  0  0
 16 30  2  0  0  0  0
 16 31  1  0  0  0  0
 17 32  1  0  0  0  0
 18 32  1  0  0  0  0
 18 33  2  0  0  0  0
 18 34  1  0  0  0  0
 19 21  2  0  0  0  0
 19 39  1  0  0  0  0
 20 23  2  0  0  0  0
 20 40  1  0  0  0  0
 21 57  1  0  0  0  0
 22 25  1  0  0  0  0
 22 56  1  0  0  0  0
 23 41  1  0  0  0  0
 24 61  1  0  0  0  0
 25 26  2  0  0  0  0
 25 62  1  0  0  0  0
 26 73  1  0  0  0  0
 27 87  1  0  0  0  0
 28 88  1  0  0  0  0
 29 31  2  0  0  0  0
 29 87  1  0  0  0  0
 30 89  1  0  0  0  0
 31 90  1  0  0  0  0
 32 71  2  0  0  0  0
 33 72  1  0  0  0  0
 33 77  1  0  0  0  0
 34 78  1  0  0  0  0
 34 82  2  0  0  0  0
 35 58  1  0  0  0  0
 35 79  1  0  0  0  0
 35 83  2  0  0  0  0
 36 68  1  0  0  0  0
 36 74  1  0  0  0  0
 36 84  2  0  0  0  0
 37 69  1  0  0  0  0
 37 80  1  0  0  0  0
 37 85  2  0  0  0  0
 38 75  1  0  0  0  0
 38 76  1  0  0  0  0
 38 86  2  0  0  0  0
 39 42  1  0  0  0  0
 40 58  1  0  0  0  0
 41 74  1  0  0  0  0
 42 44  1  0  0  0  0
 43 45  1  0  0  0  0
 43 50  1  0  0  0  0
 44 57  1  0  0  0  0
 45 59  1  0  0  0  0
 46 51  1  0  0  0  0
 46 56  1  0  0  0  0
 47 52  1  0  0  0  0
 47 56  1  0  0  0  0
 48 53  1  0  0  0  0
 48 60  1  0  0  0  0
 49 54  1  0  0  0  0
 49 60  1  0  0  0  0
 50 75  1  0  0  0  0
 51 76  1  0  0  0  0
 52 76  1  0  0  0  0
 53 73  1  0  0  0  0
 54 73  1  0  0  0  0
 55 59  1  0  0  0  0
 55 75  1  0  0  0  0
 57 79  1  0  0  0  0
 58 74  1  0  0  0  0
 59 72  1  0  0  0  0
 60 88  1  0  0  0  0
 63 69  1  0  0  0  0
 64 70  1  0  0  0  0
 65 70  1  0  0  0  0
 66 70  1  0  0  0  0
 67 81  1  0  0  0  0
 68 70  1  0  0  0  0
 68 80  1  0  0  0  0
 69 81  1  0  0  0  0
 71 72  1  0  0  0  0
M  CHG  1  81   1
M  ISO  4  38 100  60 101  76 100  88 101
M  END
> <Batch ID>
0150

> <Smiles>
CNC(C)C(=O)NC(C(=O)N1Cc2cc([101O:1][101CH:1]3CCN(c4cc(C)cc(C5CC[100N:0]([100C:0](=O)N6CCCC(n7nc(-c8ccc(Oc9ccc(F)cc9F)cc8)c(C(N)=O)c7N)C6)CC5)c4C)CC3)ccc2CC1C(=O)NC1CCCc2ccccc21)C(C)(C)C

> <Shape>
0.279

> <Color>
0.159

> <Negative vol penalty>
0.000

$$$$

  -OEChem-04052321413D

 89 99  0     1  0  0  0  0  0999 V2000
  -28.4165  -35.1177   26.1509 C   0  0  0  0  0  0  0  0  0  0  0  0
  -28.7141  -33.9456   25.4630 C   0  0  0  0  0  0  0  0  0  0  0  0
  -24.1708  -10.2919   23.1884 C   0  0  0  0  0  0  0  0  0  0  0  0
  -23.3230   -9.2102   21.2014 C   0  0  0  0  0  0  0  0  0  0  0  0
  -27.1036  -35.3836   26.5374 C   0  0  0  0  0  0  0  0  0  0  0  0
  -27.6989  -33.0382   25.1623 C   0  0  0  0  0  0  0  0  0  0  0  0
  -27.2578  -29.5320   20.1605 C   0  0  0  0  0  0  0  0  0  0  0  0
  -23.3543   -9.4821   23.9777 C   0  0  0  0  0  0  0  0  0  0  0  0
  -22.5065   -8.4003   21.9907 C   0  0  0  0  0  0  0  0  0  0  0  0
  -27.5790  -28.1969   19.9196 C   0  0  0  0  0  0  0  0  0  0  0  0
  -22.8444   -5.6301   23.8965 C   0  0  0  0  0  0  0  0  0  0  0  0
  -22.7988   -4.2690   23.5952 C   0  0  0  0  0  0  0  0  0  0  0  0
  -25.2852  -27.5764   20.3351 C   0  0  0  0  0  0  0  0  0  0  0  0
  -28.8055  -21.7921   21.3670 C   0  0  0  0  0  0  0  0  0  0  0  0
  -30.1311  -23.3865   22.6070 C   0  0  0  0  0  0  0  0  0  0  0  0
  -20.4210   -4.4361   23.2008 C   0  0  0  0  0  0  0  0  0  0  0  0
  -24.1551  -10.1561   21.8002 C   0  0  0  0  0  0  0  0  0  0  0  0
  -26.3156  -10.7237   20.5682 C   0  0  0  0  0  0  0  0  0  0  0  0
  -26.0703  -34.4835   26.2328 C   0  0  0  0  0  0  0  0  0  0  0  0
  -25.9480  -29.8986   20.5018 C   0  0  0  0  0  0  0  0  0  0  0  0
  -26.3712  -33.2916   25.5464 C   0  0  0  0  0  0  0  0  0  0  0  0
  -24.9494  -28.9172   20.5773 C   0  0  0  0  0  0  0  0  0  0  0  0
  -29.7167  -20.7857   21.6868 C   0  0  0  0  0  0  0  0  0  0  0  0
  -30.8352  -21.0796   22.4667 C   0  0  0  0  0  0  0  0  0  0  0  0
  -31.0424  -22.3800   22.9269 C   0  0  0  0  0  0  0  0  0  0  0  0
  -22.5222   -8.5362   23.3789 C   0  0  0  0  0  0  0  0  0  0  0  0
  -26.5932  -27.2185   20.0097 C   0  0  0  0  0  0  0  0  0  0  0  0
  -21.6784   -6.3942   23.8501 C   0  0  0  0  0  0  0  0  0  0  0  0
  -29.0127  -23.0925   21.8271 C   0  0  0  0  0  0  0  0  0  0  0  0
  -21.5871   -3.6719   23.2473 C   0  0  0  0  0  0  0  0  0  0  0  0
  -20.4667   -5.7972   23.5022 C   0  0  0  0  0  0  0  0  0  0  0  0
  -24.9979  -10.9928   20.9843 C   0  0  0  0  0  0  0  0  0  0  0  0
  -26.6698  -11.8194   19.8196 C   0  0  0  0  0  0  0  0  0  0  0  0
  -27.1453   -9.5851   20.8346 C   0  0  0  0  0  0  0  0  0  0  0  0
  -24.5856  -31.2547   23.0333 C   0  0  0  0  0  0  0  0  0  0  0  0
  -21.9478  -31.2185   21.1456 C   0  0  0  0  0  0  0  0  0  0  0  0
  -20.2907  -29.8216   18.5095 C   0  0  0  0  0  0  0  0  0  0  0  0
  -26.8440  -17.2144   18.8786 C   0  0  0  0  0  0  0  0  0  0  0  0
  -24.6741  -34.7917   26.7129 C   0  0  0  0  0  0  0  0  0  0  0  0
  -25.6120  -31.3465   20.7324 C   0  0  0  0  0  0  0  0  0  0  0  0
  -23.5237  -29.2612   20.9203 C   0  0  0  0  0  0  0  0  0  0  0  0
  -23.5960  -33.9566   26.0270 C   0  0  0  0  0  0  0  0  0  0  0  0
  -23.8871  -15.6369   18.0322 C   0  0  0  0  0  0  0  0  0  0  0  0
  -31.3093  -18.7551   23.4894 C   0  0  0  0  0  0  0  0  0  0  0  0
  -32.1325  -19.7417   24.2571 C   0  0  0  0  0  0  0  0  0  0  0  0
  -24.0038  -32.4873   25.9870 C   0  0  0  0  0  0  0  0  0  0  0  0
  -24.0096  -14.2605   18.6855 C   0  0  0  0  0  0  0  0  0  0  0  0
  -28.1588  -18.7875   21.7272 C   0  0  0  0  0  0  0  0  0  0  0  0
  -29.4791  -19.3192   19.6335 C   0  0  0  0  0  0  0  0  0  0  0  0
  -24.4174  -16.7281   18.9550 C   0  0  0  0  0  0  0  0  0  0  0  0
  -27.8955  -17.3824   21.1779 C   0  0  0  0  0  0  0  0  0  0  0  0
  -29.2080  -17.8984   19.1472 C   0  0  0  0  0  0  0  0  0  0  0  0
  -25.9686  -15.1416   20.0481 C   0  0  0  0  0  0  0  0  0  0  0  0
  -29.4659  -19.3809   21.1717 C   0  0  0  0  0  0  0  0  0  0  0  0
  -31.8114  -19.9998   22.8105 C   0  0  0  0  0  0  0  0  0  0  0  0
  -25.2934  -32.2944   25.1801 C   0  0  1  0  0  0  0  0  0  0  0  0
  -24.3561  -31.5414   21.5763 C   0  0  1  0  0  0  0  0  0  0  0  0
  -25.4519  -13.9968   19.1532 C   0  0  1  0  0  0  0  0  0  0  0  0
  -32.2317  -22.7226   23.7635 C   0  0  0  0  0  0  0  0  0  0  0  0
  -18.1380  -29.9786   17.2293 C   0  0  0  0  0  0  0  0  0  0  0  0
  -20.4961  -29.7872   23.4158 C   0  0  0  0  0  0  0  0  0  0  0  0
  -18.7184  -29.1384   21.7767 C   0  0  0  0  0  0  0  0  0  0  0  0
  -19.1467  -31.5477   22.2608 C   0  0  0  0  0  0  0  0  0  0  0  0
  -21.6999  -30.4965   15.9960 C   0  0  0  0  0  0  0  0  0  0  0  0
  -26.1415  -24.9297   20.4714 C   0  0  0  0  0  0  0  0  0  1  0  0
  -27.0029  -23.7053   20.7130 C   0  0  0  0  0  0  0  0  0  0  0  0
  -20.8256  -30.2403   20.8955 C   0  0  1  0  0  0  0  0  0  0  0  0
  -19.5826  -30.4450   17.3201 C   0  0  2  0  0  0  0  0  0  0  0  0
  -19.8239  -30.1713   22.0826 C   0  0  0  0  0  0  0  0  0  0  0  0
  -24.5457  -12.1674   20.5372 N   0  0  0  0  0  0  0  0  0  0  0  0
  -25.5851  -12.6461   19.8325 N   0  0  0  0  0  0  0  0  0  0  0  0
  -23.2464  -30.6898   21.1432 N   0  0  0  0  0  0  0  0  0  0  0  0
  -25.7871  -16.4395   19.3797 N   0  0  0  0  0  0  0  0  0  0  0  0
  -27.9623  -17.3780   19.7099 N   0  0  0  0  0  0  0  0  0  0  0  0
  -27.8002  -12.1468   19.1582 N   0  0  0  0  0  0  0  0  0  0  0  0
  -26.6249   -8.5488   21.6217 N   0  0  0  0  0  0  0  0  0  0  0  0
  -25.0145  -32.3483   23.7610 N   0  0  0  0  0  0  0  0  0  0  0  0
  -20.2213  -30.6283   19.6255 N   0  0  0  0  0  0  0  0  0  0  0  0
  -20.2759  -30.0770   16.0533 N   0  3  0  0  0  0  0  0  0  0  0  0
  -28.3192   -9.4970   20.4015 O   0  0  0  0  0  0  0  0  0  0  0  0
  -24.3867  -30.1255   23.4655 O   0  0  0  0  0  0  0  0  0  0  0  0
  -21.6826  -32.4091   21.3291 O   0  0  0  0  0  0  0  0  0  0  0  0
  -20.8462  -28.7267   18.4550 O   0  0  0  0  0  0  0  0  0  0  0  0
  -26.7927  -17.7293   17.7546 O   0  0  0  0  0  0  0  0  0  0  0  0
  -21.7255   -7.7456   24.1488 O   0  0  0  0  0  0  0  0  0  0  0  0
  -26.9063  -25.9056   19.7741 O   0  0  0  0  0  0  0  0  0  1  0  0
  -28.1239  -24.0749   21.5145 O   0  0  0  0  0  0  0  0  0  0  0  0
  -21.5436   -2.3652   22.9564 F   0  0  0  0  0  0  0  0  0  0  0  0
  -19.3434   -6.5264   23.4547 F   0  0  0  0  0  0  0  0  0  0  0  0
  1  2  1  0  0  0  0
  1  5  2  0  0  0  0
  2  6  2  0  0  0  0
  3  8  2  0  0  0  0
  3 17  1  0  0  0  0
  4  9  1  0  0  0  0
  4 17  2  0  0  0  0
  5 19  1  0  0  0  0
  6 21  1  0  0  0  0
  7 10  2  0  0  0  0
  7 20  1  0  0  0  0
  8 26  1  0  0  0  0
  9 26  2  0  0  0  0
 10 27  1  0  0  0  0
 11 12  2  0  0  0  0
 11 28  1  0  0  0  0
 12 30  1  0  0  0  0
 13 22  1  0  0  0  0
 13 27  2  0  0  0  0
 14 23  1  0  0  0  0
 14 29  2  0  0  0  0
 15 25  2  0  0  0  0
 15 29  1  0  0  0  0
 16 30  2  0  0  0  0
 16 31  1  0  0  0  0
 17 32  1  0  0  0  0
 18 32  1  0  0  0  0
 18 33  2  0  0  0  0
 18 34  1  0  0  0  0
 19 21  2  0  0  0  0
 19 39  1  0  0  0  0
 20 22  2  0  0  0  0
 20 40  1  0  0  0  0
 21 56  1  0  0  0  0
 22 41  1  0  0  0  0
 23 24  2  0  0  0  0
 23 54  1  0  0  0  0
 24 25  1  0  0  0  0
 24 55  1  0  0  0  0
 25 59  1  0  0  0  0
 26 85  1  0  0  0  0
 27 86  1  0  0  0  0
 28 31  2  0  0  0  0
 28 85  1  0  0  0  0
 29 87  1  0  0  0  0
 30 88  1  0  0  0  0
 31 89  1  0  0  0  0
 32 70  2  0  0  0  0
 33 71  1  0  0  0  0
 33 75  1  0  0  0  0
 34 76  1  0  0  0  0
 34 80  2  0  0  0  0
 35 57  1  0  0  0  0
 35 77  1  0  0  0  0
 35 81  2  0  0  0  0
 36 67  1  0  0  0  0
 36 72  1  0  0  0  0
 36 82  2  0  0  0  0
 37 68  1  0  0  0  0
 37 78  1  0  0  0  0
 37 83  2  0  0  0  0
 38 73  1  0  0  0  0
 38 74  1  0  0  0  0
 38 84  2  0  0  0  0
 39 42  1  0  0  0  0
 40 57  1  0  0  0  0
 41 72  1  0  0  0  0
 42 46  1  0  0  0  0
 43 47  1  0  0  0  0
 43 50  1  0  0  0  0
 44 45  1  0  0  0  0
 44 55  1  0  0  0  0
 45 55  1  0  0  0  0
 46 56  1  0  0  0  0
 47 58  1  0  0  0  0
 48 51  1  0  0  0  0
 48 54  1  0  0  0  0
 49 52  1  0  0  0  0
 49 54  1  0  0  0  0
 50 73  1  0  0  0  0
 51 74  1  0  0  0  0
 52 74  1  0  0  0  0
 53 58  1  0  0  0  0
 53 73  1  0  0  0  0
 56 77  1  0  0  0  0
 57 72  1  0  0  0  0
 58 71  1  0  0  0  0
 60 68  1  0  0  0  0
 61 69  1  0  0  0  0
 62 69  1  0  0  0  0
 63 69  1  0  0  0  0
 64 79  1  0  0  0  0
 65 66  1  0  0  0  0
 65 86  1  0  0  0  0
 66 87  1  0  0  0  0
 67 69  1  0  0  0  0
 67 78  1  0  0  0  0
 68 79  1  0  0  0  0
 70 71  1  0  0  0  0
M  CHG  1  79   1
M  ISO  4  38 100  65 101  74 100  86 101
M  END
> <Batch ID>
0150

> <Smiles>
CNC(C)C(=O)NC(C(=O)N1Cc2cc([101O:1][101CH2:1]COc3cc(C)c(C4CC4)c(C4CC[100N:0]([100C:0](=O)N5CCCC(n6nc(-c7ccc(Oc8ccc(F)cc8F)cc7)c(C(N)=O)c6N)C5)CC4)c3)ccc2CC1C(=O)NC1CCCc2ccccc21)C(C)(C)C

> <Shape>
0.273

> <Color>
0.069

> <Negative vol penalty>
0.000

$$$$

  -OEChem-04052321413D

 86 95  0     1  0  0  0  0  0999 V2000
  -28.0960  -21.1482   15.7445 C   0  0  0  0  0  0  0  0  0  0  0  0
  -26.9606  -21.9501   15.8020 C   0  0  0  0  0  0  0  0  0  0  0  0
  -17.8750  -28.0127   22.2291 C   0  0  0  0  0  0  0  0  0  0  0  0
  -25.4800  -13.4742   21.8300 C   0  0  0  0  0  0  0  0  0  0  0  0
  -26.3919  -13.5382   19.5937 C   0  0  0  0  0  0  0  0  0  0  0  0
  -28.9497  -21.0707   16.8441 C   0  0  0  0  0  0  0  0  0  0  0  0
  -26.6777  -22.6742   16.9596 C   0  0  0  0  0  0  0  0  0  0  0  0
  -23.7270  -28.8382   19.1079 C   0  0  0  0  0  0  0  0  0  0  0  0
  -18.7072  -28.8971   22.9152 C   0  0  0  0  0  0  0  0  0  0  0  0
  -18.2564  -26.6810   22.0651 C   0  0  0  0  0  0  0  0  0  0  0  0
  -25.2183  -12.1119   21.6844 C   0  0  0  0  0  0  0  0  0  0  0  0
  -26.1302  -12.1759   19.4480 C   0  0  0  0  0  0  0  0  0  0  0  0
  -22.7615  -29.3200   19.9907 C   0  0  0  0  0  0  0  0  0  0  0  0
  -22.8871  -10.1692   20.1958 C   0  0  0  0  0  0  0  0  0  0  0  0
  -21.6433   -9.7002   20.6182 C   0  0  0  0  0  0  0  0  0  0  0  0
  -24.3501  -29.1707   21.8000 C   0  0  0  0  0  0  0  0  0  0  0  0
  -20.3024  -27.1182   23.2733 C   0  0  0  0  0  0  0  0  0  0  0  0
  -22.7334   -8.2254   22.1910 C   0  0  0  0  0  0  0  0  0  0  0  0
  -26.0668  -14.1874   20.7847 C   0  0  0  0  0  0  0  0  0  0  0  0
  -27.5139  -16.1864   21.4310 C   0  0  0  0  0  0  0  0  0  0  0  0
  -28.6822  -21.8017   18.0123 C   0  0  0  0  0  0  0  0  0  0  0  0
  -25.0101  -28.5081   19.5673 C   0  0  0  0  0  0  0  0  0  0  0  0
  -27.5279  -22.6053   18.0764 C   0  0  0  0  0  0  0  0  0  0  0  0
  -25.3308  -28.6873   20.9205 C   0  0  0  0  0  0  0  0  0  0  0  0
  -19.9209  -28.4499   23.4374 C   0  0  0  0  0  0  0  0  0  0  0  0
  -25.5434  -11.4627   20.4934 C   0  0  0  0  0  0  0  0  0  0  0  0
  -23.0721  -29.4836   21.3375 C   0  0  0  0  0  0  0  0  0  0  0  0
  -19.4701  -26.2338   22.5872 C   0  0  0  0  0  0  0  0  0  0  0  0
  -24.0542   -9.6662   20.7709 C   0  0  0  0  0  0  0  0  0  0  0  0
  -21.5664   -8.7283   21.6158 C   0  0  0  0  0  0  0  0  0  0  0  0
  -23.9773   -8.6943   21.7685 C   0  0  0  0  0  0  0  0  0  0  0  0
  -26.3370  -15.5948   20.9343 C   0  0  0  0  0  0  0  0  0  0  0  0
  -27.2715  -17.5369   21.3698 C   0  0  0  0  0  0  0  0  0  0  0  0
  -28.7186  -15.5702   21.9050 C   0  0  0  0  0  0  0  0  0  0  0  0
  -26.7374  -25.8419   19.6742 C   0  0  0  0  0  0  0  0  0  0  0  0
  -29.0577  -27.8500   20.7258 C   0  0  0  0  0  0  0  0  0  0  0  0
  -29.8698  -30.8032   22.2311 C   0  0  0  0  0  0  0  0  0  0  0  0
  -23.2614  -21.3324   22.1166 C   0  0  0  0  0  0  0  0  0  0  0  0
  -29.6090  -21.6491   19.1923 C   0  0  0  0  0  0  0  0  0  0  0  0
  -26.0485  -28.0148   18.5972 C   0  0  0  0  0  0  0  0  0  0  0  0
  -26.6999  -28.3667   21.4602 C   0  0  0  0  0  0  0  0  0  0  0  0
  -29.4376  -22.7398   20.2465 C   0  0  0  0  0  0  0  0  0  0  0  0
  -24.1549  -20.4177   18.8475 C   0  0  0  0  0  0  0  0  0  0  0  0
  -27.9594  -22.9581   20.5533 C   0  0  0  0  0  0  0  0  0  0  0  0
  -24.9330  -19.1257   19.0958 C   0  0  0  0  0  0  0  0  0  0  0  0
  -22.0926  -24.8024   21.5333 C   0  0  0  0  0  0  0  0  0  0  0  0
  -20.2862  -23.1891   20.7957 C   0  0  0  0  0  0  0  0  0  0  0  0
  -22.9175  -20.5221   19.7407 C   0  0  0  0  0  0  0  0  0  0  0  0
  -22.6712  -23.7071   22.4277 C   0  0  0  0  0  0  0  0  0  0  0  0
  -20.9036  -22.1327   21.7092 C   0  0  0  0  0  0  0  0  0  0  0  0
  -23.9798  -19.0629   21.4315 C   0  0  0  0  0  0  0  0  0  0  0  0
  -27.2002  -23.4251   19.3055 C   0  0  1  0  0  0  0  0  0  0  0  0
  -27.1664  -27.2239   19.2696 C   0  0  1  0  0  0  0  0  0  0  0  0
  -25.2611  -18.9568   20.5900 C   0  0  1  0  0  0  0  0  0  0  0  0
  -20.6003  -24.6128   21.2588 C   0  0  0  0  0  0  0  0  0  0  0  0
  -31.8474  -32.1504   22.9873 C   0  0  0  0  0  0  0  0  0  0  0  0
  -29.3985  -25.9978   23.1264 C   0  0  0  0  0  0  0  0  0  0  0  0
  -30.6523  -27.8341   24.2771 C   0  0  0  0  0  0  0  0  0  0  0  0
  -31.5389  -26.8573   22.1598 C   0  0  0  0  0  0  0  0  0  0  0  0
  -29.1781  -33.0460   20.4283 C   0  0  0  0  0  0  0  0  0  0  0  0
  -22.2161  -29.5118   23.5562 C   0  0  0  0  0  0  0  0  0  1  0  0
  -20.8109  -29.3957   24.1705 C   0  0  2  0  0  0  0  0  0  0  0  0
  -29.5033  -28.3545   22.0771 C   0  0  1  0  0  0  0  0  0  0  0  0
  -30.8670  -31.8845   21.8556 C   0  0  2  0  0  0  0  0  0  0  0  0
  -30.2468  -27.2652   22.9006 C   0  0  0  0  0  0  0  0  0  0  0  0
  -25.4153  -16.4957   20.5837 N   0  0  0  0  0  0  0  0  0  0  0  0
  -26.0130  -17.6671   20.8605 N   0  0  0  0  0  0  0  0  0  0  0  0
  -27.6789  -27.8814   20.4735 N   0  0  0  0  0  0  0  0  0  0  0  0
  -23.2744  -20.3150   21.1506 N   0  0  0  0  0  0  0  0  0  0  0  0
  -22.3359  -22.3732   21.9303 N   0  0  0  0  0  0  0  0  0  0  0  0
  -28.0142  -18.6140   21.7027 N   0  0  0  0  0  0  0  0  0  0  0  0
  -28.8004  -14.1711   21.8992 N   0  0  0  0  0  0  0  0  0  0  0  0
  -27.4485  -24.8294   19.0588 N   0  0  0  0  0  0  0  0  0  0  0  0
  -30.2925  -29.5552   21.8247 N   0  0  0  0  0  0  0  0  0  0  0  0
  -20.9832  -29.0340   25.6222 N   0  3  0  0  0  0  0  0  0  0  0  0
  -30.1574  -33.1564   21.5399 N   0  3  0  0  0  0  0  0  0  0  0  0
  -29.6873  -16.2401   22.3368 O   0  0  0  0  0  0  0  0  0  0  0  0
  -25.8296  -25.7043   20.4857 O   0  0  0  0  0  0  0  0  0  0  0  0
  -29.9025  -27.4498   19.9210 O   0  0  0  0  0  0  0  0  0  0  0  0
  -28.8227  -31.0413   22.8288 O   0  0  0  0  0  0  0  0  0  0  0  0
  -24.0308  -21.3161   23.0854 O   0  0  0  0  0  0  0  0  0  0  0  0
  -25.2883  -10.1334   20.3509 O   0  0  0  0  0  0  0  0  0  0  0  0
  -19.8443  -24.9257   22.4266 O   0  0  0  0  0  0  0  0  0  0  0  0
  -22.1252  -29.9562   22.2072 O   0  0  0  0  0  0  0  0  0  1  0  0
  -20.3718   -8.2792   22.0225 F   0  0  0  0  0  0  0  0  0  0  0  0
  -25.0950   -8.2082   22.3255 F   0  0  0  0  0  0  0  0  0  0  0  0
  1  2  1  0  0  0  0
  1  6  2  0  0  0  0
  2  7  2  0  0  0  0
  3  9  2  0  0  0  0
  3 10  1  0  0  0  0
  4 11  2  0  0  0  0
  4 19  1  0  0  0  0
  5 12  1  0  0  0  0
  5 19  2  0  0  0  0
  6 21  1  0  0  0  0
  7 23  1  0  0  0  0
  8 13  2  0  0  0  0
  8 22  1  0  0  0  0
  9 25  1  0  0  0  0
 10 28  2  0  0  0  0
 11 26  1  0  0  0  0
 12 26  2  0  0  0  0
 13 27  1  0  0  0  0
 14 15  2  0  0  0  0
 14 29  1  0  0  0  0
 15 30  1  0  0  0  0
 16 24  1  0  0  0  0
 16 27  2  0  0  0  0
 17 25  2  0  0  0  0
 17 28  1  0  0  0  0
 18 30  2  0  0  0  0
 18 31  1  0  0  0  0
 19 32  1  0  0  0  0
 20 32  1  0  0  0  0
 20 33  2  0  0  0  0
 20 34  1  0  0  0  0
 21 23  2  0  0  0  0
 21 39  1  0  0  0  0
 22 24  2  0  0  0  0
 22 40  1  0  0  0  0
 23 52  1  0  0  0  0
 24 41  1  0  0  0  0
 25 62  1  0  0  0  0
 26 82  1  0  0  0  0
 27 84  1  0  0  0  0
 28 83  1  0  0  0  0
 29 31  2  0  0  0  0
 29 82  1  0  0  0  0
 30 85  1  0  0  0  0
 31 86  1  0  0  0  0
 32 66  2  0  0  0  0
 33 67  1  0  0  0  0
 33 71  1  0  0  0  0
 34 72  1  0  0  0  0
 34 77  2  0  0  0  0
 35 53  1  0  0  0  0
 35 73  1  0  0  0  0
 35 78  2  0  0  0  0
 36 63  1  0  0  0  0
 36 68  1  0  0  0  0
 36 79  2  0  0  0  0
 37 64  1  0  0  0  0
 37 74  1  0  0  0  0
 37 80  2  0  0  0  0
 38 69  1  0  0  0  0
 38 70  1  0  0  0  0
 38 81  2  0  0  0  0
 39 42  1  0  0  0  0
 40 53  1  0  0  0  0
 41 68  1  0  0  0  0
 42 44  1  0  0  0  0
 43 45  1  0  0  0  0
 43 48  1  0  0  0  0
 44 52  1  0  0  0  0
 45 54  1  0  0  0  0
 46 49  1  0  0  0  0
 46 55  1  0  0  0  0
 47 50  1  0  0  0  0
 47 55  1  0  0  0  0
 48 69  1  0  0  0  0
 49 70  1  0  0  0  0
 50 70  1  0  0  0  0
 51 54  1  0  0  0  0
 51 69  1  0  0  0  0
 52 73  1  0  0  0  0
 53 68  1  0  0  0  0
 54 67  1  0  0  0  0
 55 83  1  0  0  0  0
 56 64  1  0  0  0  0
 57 65  1  0  0  0  0
 58 65  1  0  0  0  0
 59 65  1  0  0  0  0
 60 76  1  0  0  0  0
 61 62  1  0  0  0  0
 61 84  1  0  0  0  0
 62 75  1  0  0  0  0
 63 65  1  0  0  0  0
 63 74  1  0  0  0  0
 64 76  1  0  0  0  0
 66 67  1  0  0  0  0
M  CHG  2  75   1  76   1
M  ISO  4  38 100  61 101  70 100  84 101
M  END
> <Batch ID>
0150

> <Smiles>
CNC(C)C(=O)NC(C(=O)N1Cc2cc([101O:1][101CH2:1]C(N)c3cccc(OC4CC[100N:0]([100C:0](=O)N5CCCC(n6nc(-c7ccc(Oc8ccc(F)cc8F)cc7)c(C(N)=O)c6N)C5)CC4)c3)ccc2CC1C(=O)NC1CCCc2ccccc21)C(C)(C)C

> <Shape>
0.247

> <Color>
0.073

> <Negative vol penalty>
0.000

$$$$

  -OEChem-04052321413D

 89 98  0     1  0  0  0  0  0999 V2000
  -25.7916  -39.3456   23.9310 C   0  0  0  0  0  0  0  0  0  0  0  0
  -26.0746  -38.2444   24.7327 C   0  0  0  0  0  0  0  0  0  0  0  0
  -24.5917   -8.9552   21.9928 C   0  0  0  0  0  0  0  0  0  0  0  0
  -23.4242   -9.3898   19.9227 C   0  0  0  0  0  0  0  0  0  0  0  0
  -24.7861  -39.2657   22.9685 C   0  0  0  0  0  0  0  0  0  0  0  0
  -25.3514  -37.0629   24.5730 C   0  0  0  0  0  0  0  0  0  0  0  0
  -28.6663  -30.8764   22.9513 C   0  0  0  0  0  0  0  0  0  0  0  0
  -29.4058  -22.0639   19.9633 C   0  0  0  0  0  0  0  0  0  0  0  0
  -23.4785   -8.2680   22.4764 C   0  0  0  0  0  0  0  0  0  0  0  0
  -22.3109   -8.7025   20.4063 C   0  0  0  0  0  0  0  0  0  0  0  0
  -29.2488  -29.6129   22.8489 C   0  0  0  0  0  0  0  0  0  0  0  0
  -29.8440  -23.3616   20.2265 C   0  0  0  0  0  0  0  0  0  0  0  0
  -22.0806   -5.2122   22.1004 C   0  0  0  0  0  0  0  0  0  0  0  0
  -22.2993   -3.9912   22.7382 C   0  0  0  0  0  0  0  0  0  0  0  0
  -27.0559  -28.5980   22.7531 C   0  0  0  0  0  0  0  0  0  0  0  0
  -21.2943   -4.8643   24.7543 C   0  0  0  0  0  0  0  0  0  0  0  0
  -24.5646   -9.5162   20.7159 C   0  0  0  0  0  0  0  0  0  0  0  0
  -26.7964   -9.6909   19.4928 C   0  0  0  0  0  0  0  0  0  0  0  0
  -24.0567  -38.0795   22.7904 C   0  0  0  0  0  0  0  0  0  0  0  0
  -27.2748  -31.0069   22.9395 C   0  0  0  0  0  0  0  0  0  0  0  0
  -24.3343  -36.9675   23.6081 C   0  0  0  0  0  0  0  0  0  0  0  0
  -26.4669  -29.8620   22.8428 C   0  0  0  0  0  0  0  0  0  0  0  0
  -27.2180  -22.9177   19.3961 C   0  0  0  0  0  0  0  0  0  0  0  0
  -27.6562  -24.2155   19.6594 C   0  0  0  0  0  0  0  0  0  0  0  0
  -28.0927  -21.8419   19.5480 C   0  0  0  0  0  0  0  0  0  0  0  0
  -22.3381   -8.1415   21.6832 C   0  0  0  0  0  0  0  0  0  0  0  0
  -28.4456  -28.4765   22.7503 C   0  0  0  0  0  0  0  0  0  0  0  0
  -28.9693  -24.4374   20.0746 C   0  0  0  0  0  0  0  0  0  0  0  0
  -21.4688   -6.2594   22.7895 C   0  0  0  0  0  0  0  0  0  0  0  0
  -21.9061   -3.8172   24.0651 C   0  0  0  0  0  0  0  0  0  0  0  0
  -21.0756   -6.0854   24.1165 C   0  0  0  0  0  0  0  0  0  0  0  0
  -25.7140  -10.2268   20.2160 C   0  0  0  0  0  0  0  0  0  0  0  0
  -27.6167  -10.7665   19.2550 C   0  0  0  0  0  0  0  0  0  0  0  0
  -27.0386   -8.3414   19.0734 C   0  0  0  0  0  0  0  0  0  0  0  0
  -24.3179  -33.3127   23.0650 C   0  0  0  0  0  0  0  0  0  0  0  0
  -23.6755  -31.1523   20.9840 C   0  0  0  0  0  0  0  0  0  0  0  0
  -23.5313  -28.8428   18.4775 C   0  0  0  0  0  0  0  0  0  0  0  0
  -26.7199  -16.4521   18.7096 C   0  0  0  0  0  0  0  0  0  0  0  0
  -22.9471  -38.0560   21.7691 C   0  0  0  0  0  0  0  0  0  0  0  0
  -26.6034  -32.3426   23.1093 C   0  0  0  0  0  0  0  0  0  0  0  0
  -24.9743  -30.0475   22.8689 C   0  0  0  0  0  0  0  0  0  0  0  0
  -22.4807  -36.6479   21.4088 C   0  0  0  0  0  0  0  0  0  0  0  0
  -28.8735  -15.0021   21.0758 C   0  0  0  0  0  0  0  0  0  0  0  0
  -22.2763  -35.8142   22.6698 C   0  0  0  0  0  0  0  0  0  0  0  0
  -28.4101  -13.5458   21.0561 C   0  0  0  0  0  0  0  0  0  0  0  0
  -27.6986  -15.9784   20.9983 C   0  0  0  0  0  0  0  0  0  0  0  0
  -28.3537  -19.7495   18.2512 C   0  0  0  0  0  0  0  0  0  0  0  0
  -27.0711  -19.7755   20.3960 C   0  0  0  0  0  0  0  0  0  0  0  0
  -27.4768  -18.5999   17.7620 C   0  0  0  0  0  0  0  0  0  0  0  0
  -26.2097  -18.6353   19.8644 C   0  0  0  0  0  0  0  0  0  0  0  0
  -26.3278  -14.2800   19.8344 C   0  0  0  0  0  0  0  0  0  0  0  0
  -23.5885  -35.6604   23.4482 C   0  0  1  0  0  0  0  0  0  0  0  0
  -25.2976  -32.4684   22.3042 C   0  0  1  0  0  0  0  0  0  0  0  0
  -27.4902  -13.2751   19.8523 C   0  0  2  0  0  0  0  0  0  0  0  0
  -26.7248  -25.3746   19.4990 C   0  0  0  0  0  0  0  0  0  0  0  0
  -25.5004  -23.3621   17.6056 C   0  0  0  0  0  0  0  0  0  0  0  0
  -24.7811  -23.1171   20.0093 C   0  0  0  0  0  0  0  0  0  0  0  0
  -22.0317  -28.0195   16.6415 C   0  0  0  0  0  0  0  0  0  0  0  0
  -21.9500  -29.7105   23.0450 C   0  0  0  0  0  0  0  0  0  0  0  0
  -21.1336  -28.2149   21.2106 C   0  0  0  0  0  0  0  0  0  0  0  0
  -20.6855  -30.6668   21.1109 C   0  0  0  0  0  0  0  0  0  0  0  0
  -25.5133  -29.5332   16.3909 C   0  0  0  0  0  0  0  0  0  0  0  0
  -30.2934  -27.1776   22.0048 C   0  0  0  0  0  0  0  0  0  1  0  0
  -30.4386  -25.8324   21.3199 C   0  0  0  0  0  0  0  0  0  0  0  0
  -25.8088  -22.6817   18.9505 C   0  0  0  0  0  0  0  0  0  0  0  0
  -23.0318  -29.8180   20.7032 C   0  0  1  0  0  0  0  0  0  0  0  0
  -23.1604  -28.9694   17.0109 C   0  0  2  0  0  0  0  0  0  0  0  0
  -21.7280  -29.6048   21.5230 C   0  0  0  0  0  0  0  0  0  0  0  0
  -25.8331  -11.5408   20.4242 N   0  0  0  0  0  0  0  0  0  0  0  0
  -27.0000  -11.8395   19.8282 N   0  0  0  0  0  0  0  0  0  0  0  0
  -27.6720  -20.5313   19.2885 N   0  0  0  0  0  0  0  0  0  0  0  0
  -24.5968  -31.2009   22.0372 N   0  0  0  0  0  0  0  0  0  0  0  0
  -26.8281  -15.6561   19.8597 N   0  0  0  0  0  0  0  0  0  0  0  0
  -26.9250  -17.8313   18.8712 N   0  0  0  0  0  0  0  0  0  0  0  0
  -28.7982  -10.8897   18.6137 N   0  0  0  0  0  0  0  0  0  0  0  0
  -26.0934   -7.3599   19.4014 N   0  0  0  0  0  0  0  0  0  0  0  0
  -24.4347  -34.6678   22.8212 N   0  0  0  0  0  0  0  0  0  0  0  0
  -22.8466  -29.7503   19.2577 N   0  0  0  0  0  0  0  0  0  0  0  0
  -24.3367  -28.6587   16.1504 N   0  3  0  0  0  0  0  0  0  0  0  0
  -28.0709   -8.0126   18.4412 O   0  0  0  0  0  0  0  0  0  0  0  0
  -23.5134  -32.7752   23.8170 O   0  0  0  0  0  0  0  0  0  0  0  0
  -23.3674  -32.1278   20.2935 O   0  0  0  0  0  0  0  0  0  0  0  0
  -24.3442  -28.0185   18.8902 O   0  0  0  0  0  0  0  0  0  0  0  0
  -26.4592  -15.9621   17.6038 O   0  0  0  0  0  0  0  0  0  0  0  0
  -21.2517   -7.4708   22.1547 O   0  0  0  0  0  0  0  0  0  0  0  0
  -29.0247  -27.2381   22.6454 O   0  0  0  0  0  0  0  0  0  1  0  0
  -29.4158  -25.6982   20.3353 O   0  0  0  0  0  0  0  0  0  0  0  0
  -22.1148   -2.6441   24.6770 F   0  0  0  0  0  0  0  0  0  0  0  0
  -20.4863   -7.0873   24.7833 F   0  0  0  0  0  0  0  0  0  0  0  0
  1  2  1  0  0  0  0
  1  5  2  0  0  0  0
  2  6  2  0  0  0  0
  3  9  2  0  0  0  0
  3 17  1  0  0  0  0
  4 10  1  0  0  0  0
  4 17  2  0  0  0  0
  5 19  1  0  0  0  0
  6 21  1  0  0  0  0
  7 11  2  0  0  0  0
  7 20  1  0  0  0  0
  8 12  2  0  0  0  0
  8 25  1  0  0  0  0
  9 26  1  0  0  0  0
 10 26  2  0  0  0  0
 11 27  1  0  0  0  0
 12 28  1  0  0  0  0
 13 14  2  0  0  0  0
 13 29  1  0  0  0  0
 14 30  1  0  0  0  0
 15 22  1  0  0  0  0
 15 27  2  0  0  0  0
 16 30  2  0  0  0  0
 16 31  1  0  0  0  0
 17 32  1  0  0  0  0
 18 32  1  0  0  0  0
 18 33  2  0  0  0  0
 18 34  1  0  0  0  0
 19 21  2  0  0  0  0
 19 39  1  0  0  0  0
 20 22  2  0  0  0  0
 20 40  1  0  0  0  0
 21 52  1  0  0  0  0
 22 41  1  0  0  0  0
 23 24  1  0  0  0  0
 23 25  2  0  0  0  0
 23 65  1  0  0  0  0
 24 28  2  0  0  0  0
 24 55  1  0  0  0  0
 25 71  1  0  0  0  0
 26 85  1  0  0  0  0
 27 86  1  0  0  0  0
 28 87  1  0  0  0  0
 29 31  2  0  0  0  0
 29 85  1  0  0  0  0
 30 88  1  0  0  0  0
 31 89  1  0  0  0  0
 32 69  2  0  0  0  0
 33 70  1  0  0  0  0
 33 75  1  0  0  0  0
 34 76  1  0  0  0  0
 34 80  2  0  0  0  0
 35 53  1  0  0  0  0
 35 77  1  0  0  0  0
 35 81  2  0  0  0  0
 36 66  1  0  0  0  0
 36 72  1  0  0  0  0
 36 82  2  0  0  0  0
 37 67  1  0  0  0  0
 37 78  1  0  0  0  0
 37 83  2  0  0  0  0
 38 73  1  0  0  0  0
 38 74  1  0  0  0  0
 38 84  2  0  0  0  0
 39 42  1  0  0  0  0
 40 53  1  0  0  0  0
 41 72  1  0  0  0  0
 42 44  1  0  0  0  0
 43 45  1  0  0  0  0
 43 46  1  0  0  0  0
 44 52  1  0  0  0  0
 45 54  1  0  0  0  0
 46 73  1  0  0  0  0
 47 49  1  0  0  0  0
 47 71  1  0  0  0  0
 48 50  1  0  0  0  0
 48 71  1  0  0  0  0
 49 74  1  0  0  0  0
 50 74  1  0  0  0  0
 51 54  1  0  0  0  0
 51 73  1  0  0  0  0
 52 77  1  0  0  0  0
 53 72  1  0  0  0  0
 54 70  1  0  0  0  0
 56 65  1  0  0  0  0
 57 65  1  0  0  0  0
 58 67  1  0  0  0  0
 59 68  1  0  0  0  0
 60 68  1  0  0  0  0
 61 68  1  0  0  0  0
 62 79  1  0  0  0  0
 63 64  1  0  0  0  0
 63 86  1  0  0  0  0
 64 87  1  0  0  0  0
 66 68  1  0  0  0  0
 66 78  1  0  0  0  0
 67 79  1  0  0  0  0
 69 70  1  0  0  0  0
M  CHG  1  79   1
M  ISO  4  38 100  63 101  74 100  86 101
M  END
> <Batch ID>
0150

> <Smiles>
CNC(C)C(=O)NC(C(=O)N1Cc2cc([101O:1][101CH2:1]COc3ccc(N4CC[100N:0]([100C:0](=O)N5CCCC(n6nc(-c7ccc(Oc8ccc(F)cc8F)cc7)c(C(N)=O)c6N)C5)CC4)c(C(C)C)c3C)ccc2CC1C(=O)NC1CCCc2ccccc21)C(C)(C)C

> <Shape>
0.306

> <Color>
0.075

> <Negative vol penalty>
0.000

$$$$

  -OEChem-04052321413D

 92103  0     1  0  0  0  0  0999 V2000
  -22.8332  -25.0300   31.2752 C   0  0  0  0  0  0  0  0  0  0  0  0
  -23.7127  -24.5734   30.2987 C   0  0  0  0  0  0  0  0  0  0  0  0
  -23.2864   -9.8010   19.9131 C   0  0  0  0  0  0  0  0  0  0  0  0
  -23.7377   -9.9418   22.2824 C   0  0  0  0  0  0  0  0  0  0  0  0
  -22.1473  -24.1175   32.0756 C   0  0  0  0  0  0  0  0  0  0  0  0
  -23.9076  -23.2039   30.1229 C   0  0  0  0  0  0  0  0  0  0  0  0
  -24.9669  -20.2839   24.8449 C   0  0  0  0  0  0  0  0  0  0  0  0
  -22.5597   -8.6288   20.1211 C   0  0  0  0  0  0  0  0  0  0  0  0
  -23.0111   -8.7695   22.4905 C   0  0  0  0  0  0  0  0  0  0  0  0
  -26.1395  -19.8285   24.2439 C   0  0  0  0  0  0  0  0  0  0  0  0
  -20.2824   -5.7956   20.0746 C   0  0  0  0  0  0  0  0  0  0  0  0
  -19.0549   -5.6695   19.4244 C   0  0  0  0  0  0  0  0  0  0  0  0
  -25.7552  -17.6346   25.1703 C   0  0  0  0  0  0  0  0  0  0  0  0
  -18.2491   -7.6421   20.5631 C   0  0  0  0  0  0  0  0  0  0  0  0
  -31.0451  -13.1314   25.1574 C   0  0  0  0  0  0  0  0  0  0  0  0
  -23.8754  -10.4576   20.9937 C   0  0  0  0  0  0  0  0  0  0  0  0
  -24.1355  -12.9875   20.7947 C   0  0  0  0  0  0  0  0  0  0  0  0
  -22.3266  -22.7359   31.9030 C   0  0  0  0  0  0  0  0  0  0  0  0
  -24.1840  -19.4194   25.6235 C   0  0  0  0  0  0  0  0  0  0  0  0
  -23.2245  -22.2721   30.9227 C   0  0  0  0  0  0  0  0  0  0  0  0
  -24.5717  -18.0808   25.7781 C   0  0  0  0  0  0  0  0  0  0  0  0
  -22.4220   -8.1130   21.4098 C   0  0  0  0  0  0  0  0  0  0  0  0
  -26.5354  -18.5044   24.4089 C   0  0  0  0  0  0  0  0  0  0  0  0
  -20.4933   -6.8449   20.9691 C   0  0  0  0  0  0  0  0  0  0  0  0
  -18.0382   -6.5927   19.6686 C   0  0  0  0  0  0  0  0  0  0  0  0
  -19.4766   -7.7682   21.2133 C   0  0  0  0  0  0  0  0  0  0  0  0
  -24.6267  -11.6683   20.7793 C   0  0  0  0  0  0  0  0  0  0  0  0
  -25.2371  -13.7670   20.5393 C   0  0  0  0  0  0  0  0  0  0  0  0
  -31.4610  -13.1738   23.8566 C   0  0  0  0  0  0  0  0  0  0  0  0
  -33.1865  -13.6924   25.1428 C   0  0  0  0  0  0  0  0  0  0  0  0
  -22.8026  -13.4655   21.0198 C   0  0  0  0  0  0  0  0  0  0  0  0
  -23.2788  -19.3440   28.6696 C   0  0  0  0  0  0  0  0  0  0  0  0
  -21.4956  -16.8246   27.6721 C   0  0  0  0  0  0  0  0  0  0  0  0
  -21.0367  -14.3179   25.4022 C   0  0  0  0  0  0  0  0  0  0  0  0
  -31.0974  -12.9512   21.3738 C   0  0  0  0  0  0  0  0  0  0  0  0
  -21.5989  -21.7888   32.8239 C   0  0  0  0  0  0  0  0  0  0  0  0
  -22.9078  -19.9192   26.2432 C   0  0  0  0  0  0  0  0  0  0  0  0
  -23.7558  -17.1073   26.5874 C   0  0  0  0  0  0  0  0  0  0  0  0
  -21.5784  -20.3471   32.3226 C   0  0  0  0  0  0  0  0  0  0  0  0
  -29.4634  -13.6557   18.2898 C   0  0  0  0  0  0  0  0  0  0  0  0
  -22.9677  -19.9247   31.8552 C   0  0  0  0  0  0  0  0  0  0  0  0
  -27.9921  -13.3519   18.5814 C   0  0  0  0  0  0  0  0  0  0  0  0
  -32.5746  -12.3506   28.2109 C   0  0  0  0  0  0  0  0  0  0  0  0
  -31.1314  -12.7465   28.1917 C   0  0  0  0  0  0  0  0  0  0  0  0
  -34.0500  -17.9233   24.9696 C   0  0  0  0  0  0  0  0  0  0  0  0
  -29.3925  -18.4451   25.6452 C   0  0  0  0  0  0  0  0  0  0  0  0
  -30.2116  -18.0353   23.7169 C   0  0  0  0  0  0  0  0  0  0  0  0
  -30.3965  -12.6803   19.0051 C   0  0  0  0  0  0  0  0  0  0  0  0
  -28.7036  -12.2529   20.7431 C   0  0  0  0  0  0  0  0  0  0  0  0
  -23.4439  -20.7937   30.6850 C   0  0  1  0  0  0  0  0  0  0  0  0
  -22.4573  -19.0851   27.4384 C   0  0  1  0  0  0  0  0  0  0  0  0
  -34.1036  -16.5804   25.6479 C   0  0  1  0  0  0  0  0  0  0  0  0
  -32.1329  -13.5293   27.3753 C   0  0  0  0  0  0  0  0  0  0  0  0
  -27.7274  -13.2491   20.0963 C   0  0  2  0  0  0  0  0  0  0  0  0
  -32.8765  -16.9862   24.8761 C   0  0  1  0  0  0  0  0  0  0  0  0
  -30.8280  -18.4005   25.0827 C   0  0  0  0  0  0  0  0  0  0  0  0
  -28.9045  -18.7085   24.2006 C   0  0  0  0  0  0  0  0  0  1  0  0
  -19.9011  -12.4003   24.2486 C   0  0  0  0  0  0  0  0  0  0  0  0
  -35.4652  -11.6979   25.9660 C   0  0  0  0  0  0  0  0  0  0  0  0
  -35.8727  -12.7633   23.7352 C   0  0  0  0  0  0  0  0  0  0  0  0
  -22.7751  -15.1932   29.9108 C   0  0  0  0  0  0  0  0  0  0  0  0
  -21.9700  -13.1182   28.7642 C   0  0  0  0  0  0  0  0  0  0  0  0
  -20.3254  -14.7971   29.6004 C   0  0  0  0  0  0  0  0  0  0  0  0
  -19.5306  -16.1336   23.6150 C   0  0  0  0  0  0  0  0  0  0  0  0
  -34.9983  -15.5119   25.1217 C   0  0  0  0  0  0  0  0  0  0  0  0
  -34.5923  -14.0839   25.5841 C   0  0  2  0  0  0  0  0  0  0  0  0
  -21.7175  -15.3356   27.5598 C   0  0  1  0  0  0  0  0  0  0  0  0
  -19.8080  -13.8691   24.6318 C   0  0  2  0  0  0  0  0  0  0  0  0
  -35.6851  -13.0260   25.2319 C   0  0  0  0  0  0  0  0  0  0  0  0
  -21.7136  -14.6296   28.9451 C   0  0  0  0  0  0  0  0  0  0  0  0
  -25.9382  -11.6092   20.5335 N   0  0  0  0  0  0  0  0  0  0  0  0
  -32.1331  -13.4559   25.9314 N   0  0  0  0  0  0  0  0  0  0  0  0
  -26.2805  -12.9011   20.3919 N   0  0  0  0  0  0  0  0  0  0  0  0
  -32.7896  -13.5237   23.8773 N   0  3  0  0  0  0  0  0  0  0  0  0
  -22.5195  -17.6454   27.1786 N   0  0  0  0  0  0  0  0  0  0  0  0
  -30.0900  -12.6387   20.4366 N   0  0  0  0  0  0  0  0  0  0  0  0
  -25.4054  -15.1019   20.4287 N   0  0  0  0  0  0  0  0  0  0  0  0
  -21.7899  -12.5289   21.2676 N   0  0  0  0  0  0  0  0  0  0  0  0
  -30.6805  -12.9098   22.7038 N   0  0  0  0  0  0  0  0  0  0  0  0
  -22.8056  -20.3783   29.4544 N   0  0  0  0  0  0  0  0  0  0  0  0
  -20.7043  -14.8406   26.6341 N   0  0  0  0  0  0  0  0  0  0  0  0
  -31.6496  -17.3315   25.6588 N   0  3  0  0  0  0  0  0  0  0  0  0
  -19.6568  -14.6714   23.3850 N   0  3  0  0  0  0  0  0  0  0  0  0
  -22.5151  -14.6860   20.9854 O   0  0  0  0  0  0  0  0  0  0  0  0
  -24.2677  -18.6554   28.8919 O   0  0  0  0  0  0  0  0  0  0  0  0
  -20.4491  -17.2440   28.1727 O   0  0  0  0  0  0  0  0  0  0  0  0
  -22.1774  -14.2117   24.9573 O   0  0  0  0  0  0  0  0  0  0  0  0
  -32.2383  -13.2611   21.0211 O   0  0  0  0  0  0  0  0  0  0  0  0
  -21.7128   -6.9692   21.6133 O   0  0  0  0  0  0  0  0  0  0  0  0
  -27.6799  -18.0574   23.8238 O   0  0  0  0  0  0  0  0  0  1  0  0
  -16.8599   -6.4724   19.0429 F   0  0  0  0  0  0  0  0  0  0  0  0
  -19.6737   -8.7791   22.0707 F   0  0  0  0  0  0  0  0  0  0  0  0
  1  2  1  0  0  0  0
  1  5  2  0  0  0  0
  2  6  2  0  0  0  0
  3  8  2  0  0  0  0
  3 16  1  0  0  0  0
  4  9  1  0  0  0  0
  4 16  2  0  0  0  0
  5 18  1  0  0  0  0
  6 20  1  0  0  0  0
  7 10  2  0  0  0  0
  7 19  1  0  0  0  0
  8 22  1  0  0  0  0
  9 22  2  0  0  0  0
 10 23  1  0  0  0  0
 11 12  2  0  0  0  0
 11 24  1  0  0  0  0
 12 25  1  0  0  0  0
 13 21  1  0  0  0  0
 13 23  2  0  0  0  0
 14 25  2  0  0  0  0
 14 26  1  0  0  0  0
 15 29  2  0  0  0  0
 15 72  1  0  0  0  0
 16 27  1  0  0  0  0
 17 27  1  0  0  0  0
 17 28  2  0  0  0  0
 17 31  1  0  0  0  0
 18 20  2  0  0  0  0
 18 36  1  0  0  0  0
 19 21  2  0  0  0  0
 19 37  1  0  0  0  0
 20 50  1  0  0  0  0
 21 38  1  0  0  0  0
 22 89  1  0  0  0  0
 23 90  1  0  0  0  0
 24 26  2  0  0  0  0
 24 89  1  0  0  0  0
 25 91  1  0  0  0  0
 26 92  1  0  0  0  0
 27 71  2  0  0  0  0
 28 73  1  0  0  0  0
 28 77  1  0  0  0  0
 29 74  1  0  0  0  0
 29 79  1  0  0  0  0
 30 66  1  0  0  0  0
 30 72  1  0  0  0  0
 30 74  2  0  0  0  0
 31 78  1  0  0  0  0
 31 84  2  0  0  0  0
 32 51  1  0  0  0  0
 32 80  1  0  0  0  0
 32 85  2  0  0  0  0
 33 67  1  0  0  0  0
 33 75  1  0  0  0  0
 33 86  2  0  0  0  0
 34 68  1  0  0  0  0
 34 81  1  0  0  0  0
 34 87  2  0  0  0  0
 35 76  1  0  0  0  0
 35 79  1  0  0  0  0
 35 88  2  0  0  0  0
 36 39  1  0  0  0  0
 37 51  1  0  0  0  0
 38 75  1  0  0  0  0
 39 41  1  0  0  0  0
 40 42  1  0  0  0  0
 40 48  1  0  0  0  0
 41 50  1  0  0  0  0
 42 54  1  0  0  0  0
 43 44  1  0  0  0  0
 43 53  1  0  0  0  0
 44 53  1  0  0  0  0
 45 52  1  0  0  0  0
 45 55  1  0  0  0  0
 46 56  1  0  0  0  0
 46 57  1  0  0  0  0
 47 56  1  0  0  0  0
 47 57  1  0  0  0  0
 48 76  1  0  0  0  0
 49 54  1  0  0  0  0
 49 76  1  0  0  0  0
 50 80  1  0  0  0  0
 51 75  1  0  0  0  0
 52 55  1  0  0  0  0
 52 65  1  0  0  0  0
 53 72  1  0  0  0  0
 54 73  1  0  0  0  0
 55 82  1  0  0  0  0
 56 82  1  0  0  0  0
 57 90  1  0  0  0  0
 58 68  1  0  0  0  0
 59 69  1  0  0  0  0
 60 69  1  0  0  0  0
 61 70  1  0  0  0  0
 62 70  1  0  0  0  0
 63 70  1  0  0  0  0
 64 83  1  0  0  0  0
 65 66  1  0  0  0  0
 66 69  1  0  0  0  0
 67 70  1  0  0  0  0
 67 81  1  0  0  0  0
 68 83  1  0  0  0  0
 71 73  1  0  0  0  0
M  CHG  3  74   1  82   1  83   1
M  ISO  4  35 100  57 101  79 100  90 101
M  END
> <Batch ID>
0150

> <Smiles>
CNC(C)C(=O)NC(C(=O)N1Cc2cc([101O:1][101CH:1]3CC(NC4CC4CC(c4nc([100NH:0][100C:0](=O)N5CCCC(n6nc(-c7ccc(Oc8ccc(F)cc8F)cc7)c(C(N)=O)c6N)C5)cn4C4CC4)C(C)C)C3)ccc2CC1C(=O)NC1CCCc2ccccc21)C(C)(C)C

> <Shape>
0.116

> <Color>
0.161

> <Negative vol penalty>
0.000

$$$$

  -OEChem-04052321413D

 89 98  0     1  0  0  0  0  0999 V2000
  -22.1702  -11.6563   19.4405 C   0  0  0  0  0  0  0  0  0  0  0  0
  -21.8847  -13.0089   19.5968 C   0  0  0  0  0  0  0  0  0  0  0  0
  -18.3226  -26.1080   21.2954 C   0  0  0  0  0  0  0  0  0  0  0  0
  -25.0218  -25.4387   21.1089 C   0  0  0  0  0  0  0  0  0  0  0  0
  -25.4619  -26.7517   23.0886 C   0  0  0  0  0  0  0  0  0  0  0  0
  -23.4083  -11.1556   19.8406 C   0  0  0  0  0  0  0  0  0  0  0  0
  -22.8369  -13.8614   20.1543 C   0  0  0  0  0  0  0  0  0  0  0  0
  -18.8970  -27.0859   22.1074 C   0  0  0  0  0  0  0  0  0  0  0  0
  -23.2843  -18.2105   17.5990 C   0  0  0  0  0  0  0  0  0  0  0  0
  -19.1303  -25.3178   20.4776 C   0  0  0  0  0  0  0  0  0  0  0  0
  -24.6796  -24.3480   21.9082 C   0  0  0  0  0  0  0  0  0  0  0  0
  -25.1197  -25.6611   23.8880 C   0  0  0  0  0  0  0  0  0  0  0  0
  -22.3036  -19.1782   17.8125 C   0  0  0  0  0  0  0  0  0  0  0  0
  -23.3432  -21.3296   23.4308 C   0  0  0  0  0  0  0  0  0  0  0  0
  -22.1944  -20.6138   23.0940 C   0  0  0  0  0  0  0  0  0  0  0  0
  -21.0869  -26.4836   21.2835 C   0  0  0  0  0  0  0  0  0  0  0  0
  -23.7864  -20.3400   19.3194 C   0  0  0  0  0  0  0  0  0  0  0  0
  -20.8651  -22.6102   23.3848 C   0  0  0  0  0  0  0  0  0  0  0  0
  -25.4130  -26.6405   21.6990 C   0  0  0  0  0  0  0  0  0  0  0  0
  -26.7993  -27.8303   19.9185 C   0  0  0  0  0  0  0  0  0  0  0  0
  -20.2792  -27.2737   22.1014 C   0  0  0  0  0  0  0  0  0  0  0  0
  -24.3798  -12.0041   20.3945 C   0  0  0  0  0  0  0  0  0  0  0  0
  -24.5216  -18.2946   18.2537 C   0  0  0  0  0  0  0  0  0  0  0  0
  -24.0888  -13.3713   20.5635 C   0  0  0  0  0  0  0  0  0  0  0  0
  -24.7821  -19.3735   19.1106 C   0  0  0  0  0  0  0  0  0  0  0  0
  -24.7285  -24.4592   23.2978 C   0  0  0  0  0  0  0  0  0  0  0  0
  -20.5124  -25.5056   20.4716 C   0  0  0  0  0  0  0  0  0  0  0  0
  -22.5534  -20.2416   18.6749 C   0  0  0  0  0  0  0  0  0  0  0  0
  -23.2530  -22.6858   23.7447 C   0  0  0  0  0  0  0  0  0  0  0  0
  -20.9554  -21.2540   23.0710 C   0  0  0  0  0  0  0  0  0  0  0  0
  -22.0139  -23.3260   23.7217 C   0  0  0  0  0  0  0  0  0  0  0  0
  -25.7671  -27.7673   20.8738 C   0  0  0  0  0  0  0  0  0  0  0  0
  -26.7223  -29.1053   19.4135 C   0  0  0  0  0  0  0  0  0  0  0  0
  -27.7431  -26.8262   19.5229 C   0  0  0  0  0  0  0  0  0  0  0  0
  -26.0879  -16.4701   20.3325 C   0  0  0  0  0  0  0  0  0  0  0  0
  -28.4608  -18.6273   19.8441 C   0  0  0  0  0  0  0  0  0  0  0  0
  -29.3601  -21.7808   18.8988 C   0  0  0  0  0  0  0  0  0  0  0  0
  -22.8144  -31.3405   22.7847 C   0  0  0  0  0  0  0  0  0  0  0  0
  -25.6863  -11.4083   20.8558 C   0  0  0  0  0  0  0  0  0  0  0  0
  -25.5788  -17.2571   17.9922 C   0  0  0  0  0  0  0  0  0  0  0  0
  -26.1014  -19.5206   19.8220 C   0  0  0  0  0  0  0  0  0  0  0  0
  -26.7796  -12.4470   21.0924 C   0  0  0  0  0  0  0  0  0  0  0  0
  -22.7886  -30.7445   19.0920 C   0  0  0  0  0  0  0  0  0  0  0  0
  -26.2342  -13.6221   21.8976 C   0  0  0  0  0  0  0  0  0  0  0  0
  -24.1856  -31.2311   18.7117 C   0  0  0  0  0  0  0  0  0  0  0  0
  -22.2771  -31.4720   20.3276 C   0  0  0  0  0  0  0  0  0  0  0  0
  -20.9977  -29.6714   22.2177 C   0  0  0  0  0  0  0  0  0  0  0  0
  -24.5946  -31.8154   21.1382 C   0  0  0  0  0  0  0  0  0  0  0  0
  -20.8329  -29.6611   25.1321 C   0  0  0  0  0  0  0  0  0  0  0  0
  -25.1050  -14.3323   21.1414 C   0  0  1  0  0  0  0  0  0  0  0  0
  -20.9042  -28.3385   22.9849 C   0  0  1  0  0  0  0  0  0  0  0  0
  -26.6144  -17.1647   19.1086 C   0  0  1  0  0  0  0  0  0  0  0  0
  -25.1808  -31.1315   19.8861 C   0  0  1  0  0  0  0  0  0  0  0  0
  -20.9139  -30.9651   24.3420 C   0  0  2  0  0  0  0  0  0  0  0  0
  -19.5503  -31.6384   24.1637 C   0  0  0  0  0  0  0  0  0  0  0  0
  -31.3691  -23.2618   18.6391 C   0  0  0  0  0  0  0  0  0  0  0  0
  -18.8024  -27.4564   26.0201 C   0  0  0  0  0  0  0  0  0  0  0  0
  -21.3043  -27.1254   25.9461 C   0  0  0  0  0  0  0  0  0  0  0  0
  -28.5731  -19.0015   22.8702 C   0  0  0  0  0  0  0  0  0  0  0  0
  -29.8679  -21.1105   22.4914 C   0  0  0  0  0  0  0  0  0  0  0  0
  -30.8053  -18.9225   21.7453 C   0  0  0  0  0  0  0  0  0  0  0  0
  -28.8892  -22.1062   15.9951 C   0  0  0  0  0  0  0  0  0  0  0  0
  -20.8452  -23.4109   19.3958 C   0  0  0  0  0  0  0  0  0  0  0  0
  -22.0453  -22.5071   19.1899 C   0  0  0  0  0  0  0  0  0  1  0  0
  -28.8643  -19.9352   20.4808 C   0  0  1  0  0  0  0  0  0  0  0  0
  -30.4346  -22.2800   17.9497 C   0  0  2  0  0  0  0  0  0  0  0  0
  -20.0317  -27.3164   25.1367 C   0  0  0  0  0  0  0  0  0  0  0  0
  -29.5020  -19.7389   21.8852 C   0  0  0  0  0  0  0  0  0  0  0  0
  -25.0847  -28.9113   20.9718 N   0  0  0  0  0  0  0  0  0  0  0  0
  -25.6892  -29.7052   20.0716 N   0  0  0  0  0  0  0  0  0  0  0  0
  -27.1007  -18.4773   19.5384 N   0  0  0  0  0  0  0  0  0  0  0  0
  -23.2281  -31.3811   21.4416 N   0  0  0  0  0  0  0  0  0  0  0  0
  -21.5687  -30.7422   23.0452 N   0  0  0  0  0  0  0  0  0  0  0  0
  -27.4383  -29.7606   18.4752 N   0  0  0  0  0  0  0  0  0  0  0  0
  -27.4024  -25.9669   18.4694 N   0  0  0  0  0  0  0  0  0  0  0  0
  -25.6481  -15.1806   20.1022 N   0  0  0  0  0  0  0  0  0  0  0  0
  -29.7319  -20.6068   19.5192 N   0  0  0  0  0  0  0  0  0  0  0  0
  -20.1734  -28.5731   24.3106 N   0  3  1  0  0  0  0  0  0  0  0  0
  -29.8150  -22.9635   16.7793 N   0  3  0  0  0  0  0  0  0  0  0  0
  -28.8489  -26.6841   20.0978 O   0  0  0  0  0  0  0  0  0  0  0  0
  -26.0827  -17.0599   21.4067 O   0  0  0  0  0  0  0  0  0  0  0  0
  -29.3219  -17.7730   19.6195 O   0  0  0  0  0  0  0  0  0  0  0  0
  -28.2988  -22.3749   19.0752 O   0  0  0  0  0  0  0  0  0  0  0  0
  -23.5213  -31.7985   23.6907 O   0  0  0  0  0  0  0  0  0  0  0  0
  -24.3945  -23.3953   24.0782 O   0  0  0  0  0  0  0  0  0  0  0  0
  -21.3007  -24.7341   19.6739 O   0  0  0  0  0  0  0  0  0  0  0  0
  -21.5911  -21.1936   18.8870 O   0  0  0  0  0  0  0  0  0  1  0  0
  -19.8525  -20.5668   22.7460 F   0  0  0  0  0  0  0  0  0  0  0  0
  -21.9211  -24.6289   24.0211 F   0  0  0  0  0  0  0  0  0  0  0  0
  1  2  1  0  0  0  0
  1  6  2  0  0  0  0
  2  7  2  0  0  0  0
  3  8  1  0  0  0  0
  3 10  2  0  0  0  0
  4 11  2  0  0  0  0
  4 19  1  0  0  0  0
  5 12  1  0  0  0  0
  5 19  2  0  0  0  0
  6 22  1  0  0  0  0
  7 24  1  0  0  0  0
  8 21  2  0  0  0  0
  9 13  2  0  0  0  0
  9 23  1  0  0  0  0
 10 27  1  0  0  0  0
 11 26  1  0  0  0  0
 12 26  2  0  0  0  0
 13 28  1  0  0  0  0
 14 15  2  0  0  0  0
 14 29  1  0  0  0  0
 15 30  1  0  0  0  0
 16 21  1  0  0  0  0
 16 27  2  0  0  0  0
 17 25  1  0  0  0  0
 17 28  2  0  0  0  0
 18 30  2  0  0  0  0
 18 31  1  0  0  0  0
 19 32  1  0  0  0  0
 20 32  1  0  0  0  0
 20 33  2  0  0  0  0
 20 34  1  0  0  0  0
 21 51  1  0  0  0  0
 22 24  2  0  0  0  0
 22 39  1  0  0  0  0
 23 25  2  0  0  0  0
 23 40  1  0  0  0  0
 24 50  1  0  0  0  0
 25 41  1  0  0  0  0
 26 85  1  0  0  0  0
 27 86  1  0  0  0  0
 28 87  1  0  0  0  0
 29 31  2  0  0  0  0
 29 85  1  0  0  0  0
 30 88  1  0  0  0  0
 31 89  1  0  0  0  0
 32 69  2  0  0  0  0
 33 70  1  0  0  0  0
 33 74  1  0  0  0  0
 34 75  1  0  0  0  0
 34 80  2  0  0  0  0
 35 52  1  0  0  0  0
 35 76  1  0  0  0  0
 35 81  2  0  0  0  0
 36 65  1  0  0  0  0
 36 71  1  0  0  0  0
 36 82  2  0  0  0  0
 37 66  1  0  0  0  0
 37 77  1  0  0  0  0
 37 83  2  0  0  0  0
 38 72  1  0  0  0  0
 38 73  1  0  0  0  0
 38 84  2  0  0  0  0
 39 42  1  0  0  0  0
 40 52  1  0  0  0  0
 41 71  1  0  0  0  0
 42 44  1  0  0  0  0
 43 45  1  0  0  0  0
 43 46  1  0  0  0  0
 44 50  1  0  0  0  0
 45 53  1  0  0  0  0
 46 72  1  0  0  0  0
 47 51  1  0  0  0  0
 47 73  1  0  0  0  0
 48 53  1  0  0  0  0
 48 72  1  0  0  0  0
 49 54  1  0  0  0  0
 49 78  1  0  0  0  0
 50 76  1  0  0  0  0
 51 78  1  0  0  0  0
 52 71  1  0  0  0  0
 53 70  1  0  0  0  0
 54 55  1  0  0  0  0
 54 73  1  0  0  0  0
 56 66  1  0  0  0  0
 57 67  1  0  0  0  0
 58 67  1  0  0  0  0
 59 68  1  0  0  0  0
 60 68  1  0  0  0  0
 61 68  1  0  0  0  0
 62 79  1  0  0  0  0
 63 64  1  0  0  0  0
 63 86  1  0  0  0  0
 64 87  1  0  0  0  0
 65 68  1  0  0  0  0
 65 77  1  0  0  0  0
 66 79  1  0  0  0  0
 67 78  1  0  0  0  0
 69 70  1  0  0  0  0
M  CHG  2  78   1  79   1
M  ISO  4  38 100  64 101  73 100  87 101
M  END
> <Batch ID>
0150

> <Smiles>
CNC(C)C(=O)NC(C(=O)N1Cc2cc([101O:1][101CH2:1]COc3cccc(C4C[100N:0]([100C:0](=O)N5CCCC(n6nc(-c7ccc(Oc8ccc(F)cc8F)cc7)c(C(N)=O)c6N)C5)C(C)CN4C(C)C)c3)ccc2CC1C(=O)NC1CCCc2ccccc21)C(C)(C)C

> <Shape>
0.229

> <Color>
0.095

> <Negative vol penalty>
0.000

$$$$

  -OEChem-04052321413D

 88 97  0     1  0  0  0  0  0999 V2000
  -20.2900  -25.0535   17.9968 C   0  0  0  0  0  0  0  0  0  0  0  0
  -20.9617  -24.2588   18.9202 C   0  0  0  0  0  0  0  0  0  0  0  0
  -23.0391   -9.8481   19.9270 C   0  0  0  0  0  0  0  0  0  0  0  0
  -23.8051   -9.8233   22.2183 C   0  0  0  0  0  0  0  0  0  0  0  0
  -20.8296  -26.2800   17.6114 C   0  0  0  0  0  0  0  0  0  0  0  0
  -22.1740  -24.6896   19.4580 C   0  0  0  0  0  0  0  0  0  0  0  0
  -26.0400  -24.3637   25.4799 C   0  0  0  0  0  0  0  0  0  0  0  0
  -30.2047  -18.8773   23.2405 C   0  0  0  0  0  0  0  0  0  0  0  0
  -22.2952   -8.6921   20.1632 C   0  0  0  0  0  0  0  0  0  0  0  0
  -23.0611   -8.6673   22.4545 C   0  0  0  0  0  0  0  0  0  0  0  0
  -27.3193  -24.0288   25.9217 C   0  0  0  0  0  0  0  0  0  0  0  0
  -23.3483   -5.3530   21.8510 C   0  0  0  0  0  0  0  0  0  0  0  0
  -23.9650   -4.3176   22.5533 C   0  0  0  0  0  0  0  0  0  0  0  0
  -29.7288  -17.6486   22.7966 C   0  0  0  0  0  0  0  0  0  0  0  0
  -28.1164  -26.2017   25.2418 C   0  0  0  0  0  0  0  0  0  0  0  0
  -22.2683   -4.4690   24.2665 C   0  0  0  0  0  0  0  0  0  0  0  0
  -23.7942  -10.4137   20.9546 C   0  0  0  0  0  0  0  0  0  0  0  0
  -24.1373  -12.9400   20.8682 C   0  0  0  0  0  0  0  0  0  0  0  0
  -22.0442  -26.7305   18.1520 C   0  0  0  0  0  0  0  0  0  0  0  0
  -25.7914  -25.6182   24.9047 C   0  0  0  0  0  0  0  0  0  0  0  0
  -22.7309  -25.9227   19.0785 C   0  0  0  0  0  0  0  0  0  0  0  0
  -31.4660  -19.3111   22.8477 C   0  0  0  0  0  0  0  0  0  0  0  0
  -26.8326  -26.5510   24.7958 C   0  0  0  0  0  0  0  0  0  0  0  0
  -22.3061   -8.1017   21.4269 C   0  0  0  0  0  0  0  0  0  0  0  0
  -28.3583  -24.9468   25.8001 C   0  0  0  0  0  0  0  0  0  0  0  0
  -22.1916   -5.9465   22.3565 C   0  0  0  0  0  0  0  0  0  0  0  0
  -23.4250   -3.8756   23.7610 C   0  0  0  0  0  0  0  0  0  0  0  0
  -21.6516   -5.5044   23.5643 C   0  0  0  0  0  0  0  0  0  0  0  0
  -24.5633  -11.6075   20.7111 C   0  0  0  0  0  0  0  0  0  0  0  0
  -30.5465  -16.8973   21.9679 C   0  0  0  0  0  0  0  0  0  0  0  0
  -32.2061  -18.4853   22.0169 C   0  0  0  0  0  0  0  0  0  0  0  0
  -25.2290  -13.6937   20.5123 C   0  0  0  0  0  0  0  0  0  0  0  0
  -22.8683  -13.4508   21.2975 C   0  0  0  0  0  0  0  0  0  0  0  0
  -24.8046  -26.6236   22.0553 C   0  0  0  0  0  0  0  0  0  0  0  0
  -24.7893  -29.5200   23.5157 C   0  0  0  0  0  0  0  0  0  0  0  0
  -25.9839  -31.5091   26.0184 C   0  0  0  0  0  0  0  0  0  0  0  0
  -30.6963  -14.7334   20.6867 C   0  0  0  0  0  0  0  0  0  0  0  0
  -22.6116  -28.0419   17.6693 C   0  0  0  0  0  0  0  0  0  0  0  0
  -24.4000  -25.9739   24.4575 C   0  0  0  0  0  0  0  0  0  0  0  0
  -26.6133  -27.9186   24.2042 C   0  0  0  0  0  0  0  0  0  0  0  0
  -23.7140  -28.5962   18.5680 C   0  0  0  0  0  0  0  0  0  0  0  0
  -29.5741  -12.3529   18.2887 C   0  0  0  0  0  0  0  0  0  0  0  0
  -24.7139  -27.5006   18.9241 C   0  0  0  0  0  0  0  0  0  0  0  0
  -28.1354  -12.0563   18.7180 C   0  0  0  0  0  0  0  0  0  0  0  0
  -32.1098  -20.5904   24.8553 C   0  0  0  0  0  0  0  0  0  0  0  0
  -30.4925  -12.5647   19.4909 C   0  0  0  0  0  0  0  0  0  0  0  0
  -28.5897  -13.2714   20.8870 C   0  0  0  0  0  0  0  0  0  0  0  0
  -32.5636  -21.9248   25.4266 C   0  0  0  0  0  0  0  0  0  0  0  0
  -31.5450  -23.1272   23.4847 C   0  0  0  0  0  0  0  0  0  0  0  0
  -31.9901  -20.6319   23.3205 C   0  0  2  0  0  0  0  0  0  0  0  0
  -24.0359  -26.3669   19.7029 C   0  0  1  0  0  0  0  0  0  0  0  0
  -24.3737  -27.0896   23.4173 C   0  0  1  0  0  0  0  0  0  0  0  0
  -31.0768  -21.8018   22.8699 C   0  0  2  0  0  0  0  0  0  0  0  0
  -27.6136  -13.1148   19.7095 C   0  0  2  0  0  0  0  0  0  0  0  0
  -31.0437  -21.9446   21.3438 C   0  0  0  0  0  0  0  0  0  0  0  0
  -25.8149  -33.8400   26.9327 C   0  0  0  0  0  0  0  0  0  0  0  0
  -26.5448  -30.5384   21.2373 C   0  0  0  0  0  0  0  0  0  0  0  0
  -27.1137  -32.5219   22.6552 C   0  0  0  0  0  0  0  0  0  0  0  0
  -24.7510  -32.1238   21.9609 C   0  0  0  0  0  0  0  0  0  0  0  0
  -24.9547  -30.5391   28.6182 C   0  0  0  0  0  0  0  0  0  0  0  0
  -34.1575  -17.9839   20.7535 C   0  0  0  0  0  0  0  0  0  0  0  0
  -31.9197  -24.3212   25.6401 C   0  0  0  0  0  0  0  0  0  0  0  0
  -30.7066  -25.2256   25.5478 C   0  0  0  0  0  0  0  0  0  1  0  0
  -25.7989  -30.6259   23.7075 C   0  0  1  0  0  0  0  0  0  0  0  0
  -25.2766  -32.4195   27.0060 C   0  0  2  0  0  0  0  0  0  0  0  0
  -26.0570  -31.4261   22.3997 C   0  0  0  0  0  0  0  0  0  0  0  0
  -25.8270  -11.5166   20.2882 N   0  0  0  0  0  0  0  0  0  0  0  0
  -31.7773  -17.2854   21.5652 N   0  0  0  0  0  0  0  0  0  0  0  0
  -26.2044  -12.8015   20.1764 N   0  0  0  0  0  0  0  0  0  0  0  0
  -25.2368  -28.2169   23.7756 N   0  0  0  0  0  0  0  0  0  0  0  0
  -29.9365  -13.5837   20.3838 N   0  0  0  0  0  0  0  0  0  0  0  0
  -25.4401  -15.0259   20.4569 N   0  0  0  0  0  0  0  0  0  0  0  0
  -21.8567  -12.5378   21.6250 N   0  0  0  0  0  0  0  0  0  0  0  0
  -30.0517  -15.6476   21.5194 N   0  0  0  0  0  0  0  0  0  0  0  0
  -23.8317  -26.7531   21.0826 N   0  0  0  0  0  0  0  0  0  0  0  0
  -25.3102  -31.4368   24.8175 N   0  0  0  0  0  0  0  0  0  0  0  0
  -31.6110  -23.0200   24.9952 N   0  3  2  0  0  0  0  0  0  0  0  0
  -25.4616  -31.9180   28.3971 N   0  3  0  0  0  0  0  0  0  0  0  0
  -22.6330  -14.6807   21.3722 O   0  0  0  0  0  0  0  0  0  0  0  0
  -25.9363  -26.1807   21.8983 O   0  0  0  0  0  0  0  0  0  0  0  0
  -23.6439  -29.8026   23.1557 O   0  0  0  0  0  0  0  0  0  0  0  0
  -27.0314  -30.9238   26.2843 O   0  0  0  0  0  0  0  0  0  0  0  0
  -31.8243  -14.9078   20.2185 O   0  0  0  0  0  0  0  0  0  0  0  0
  -21.5801   -6.9738   21.6578 O   0  0  0  0  0  0  0  0  0  0  0  0
  -29.6080  -24.6223   26.2300 O   0  0  0  0  0  0  0  0  0  1  0  0
  -33.4527  -18.8791   21.6050 O   0  0  0  0  0  0  0  0  0  0  0  0
  -24.0165   -2.8802   24.4345 F   0  0  0  0  0  0  0  0  0  0  0  0
  -20.5398   -6.0699   24.0543 F   0  0  0  0  0  0  0  0  0  0  0  0
  1  2  1  0  0  0  0
  1  5  2  0  0  0  0
  2  6  2  0  0  0  0
  3  9  2  0  0  0  0
  3 17  1  0  0  0  0
  4 10  1  0  0  0  0
  4 17  2  0  0  0  0
  5 19  1  0  0  0  0
  6 21  1  0  0  0  0
  7 11  2  0  0  0  0
  7 20  1  0  0  0  0
  8 14  2  0  0  0  0
  8 22  1  0  0  0  0
  9 24  1  0  0  0  0
 10 24  2  0  0  0  0
 11 25  1  0  0  0  0
 12 13  2  0  0  0  0
 12 26  1  0  0  0  0
 13 27  1  0  0  0  0
 14 30  1  0  0  0  0
 15 23  1  0  0  0  0
 15 25  2  0  0  0  0
 16 27  2  0  0  0  0
 16 28  1  0  0  0  0
 17 29  1  0  0  0  0
 18 29  1  0  0  0  0
 18 32  2  0  0  0  0
 18 33  1  0  0  0  0
 19 21  2  0  0  0  0
 19 38  1  0  0  0  0
 20 23  2  0  0  0  0
 20 39  1  0  0  0  0
 21 51  1  0  0  0  0
 22 31  2  0  0  0  0
 22 50  1  0  0  0  0
 23 40  1  0  0  0  0
 24 84  1  0  0  0  0
 25 85  1  0  0  0  0
 26 28  2  0  0  0  0
 26 84  1  0  0  0  0
 27 87  1  0  0  0  0
 28 88  1  0  0  0  0
 29 67  2  0  0  0  0
 30 68  2  0  0  0  0
 30 74  1  0  0  0  0
 31 68  1  0  0  0  0
 31 86  1  0  0  0  0
 32 69  1  0  0  0  0
 32 72  1  0  0  0  0
 33 73  1  0  0  0  0
 33 79  2  0  0  0  0
 34 52  1  0  0  0  0
 34 75  1  0  0  0  0
 34 80  2  0  0  0  0
 35 64  1  0  0  0  0
 35 70  1  0  0  0  0
 35 81  2  0  0  0  0
 36 65  1  0  0  0  0
 36 76  1  0  0  0  0
 36 82  2  0  0  0  0
 37 71  1  0  0  0  0
 37 74  1  0  0  0  0
 37 83  2  0  0  0  0
 38 41  1  0  0  0  0
 39 52  1  0  0  0  0
 40 70  1  0  0  0  0
 41 43  1  0  0  0  0
 42 44  1  0  0  0  0
 42 46  1  0  0  0  0
 43 51  1  0  0  0  0
 44 54  1  0  0  0  0
 45 48  1  0  0  0  0
 45 50  1  0  0  0  0
 46 71  1  0  0  0  0
 47 54  1  0  0  0  0
 47 71  1  0  0  0  0
 48 77  1  0  0  0  0
 49 53  1  0  0  0  0
 49 77  1  0  0  0  0
 50 53  1  0  0  0  0
 51 75  1  0  0  0  0
 52 70  1  0  0  0  0
 53 55  1  0  0  0  0
 54 69  1  0  0  0  0
 56 65  1  0  0  0  0
 57 66  1  0  0  0  0
 58 66  1  0  0  0  0
 59 66  1  0  0  0  0
 60 78  1  0  0  0  0
 61 86  1  0  0  0  0
 62 63  1  0  0  0  0
 62 77  1  0  0  0  0
 63 85  1  0  0  0  0
 64 66  1  0  0  0  0
 64 76  1  0  0  0  0
 65 78  1  0  0  0  0
 67 69  1  0  0  0  0
M  CHG  2  77   1  78   1
M  ISO  4  37 100  63 101  74 100  85 101
M  END
> <Batch ID>
0150

> <Smiles>
CNC(C)C(=O)NC(C(=O)N1Cc2cc([101O:1][101CH2:1]CN3CCC(c4ccc([100NH:0][100C:0](=O)N5CCCC(n6nc(-c7ccc(Oc8ccc(F)cc8F)cc7)c(C(N)=O)c6N)C5)nc4OC)C(C)C3)ccc2CC1C(=O)NC1CCCc2ccccc21)C(C)(C)C

> <Shape>
0.266

> <Color>
0.192

> <Negative vol penalty>
0.000

$$$$

  -OEChem-04052321413D

 85 93  0     1  0  0  0  0  0999 V2000
  -29.0101  -35.9657   18.1455 C   0  0  0  0  0  0  0  0  0  0  0  0
  -29.3306  -34.7354   17.5806 C   0  0  0  0  0  0  0  0  0  0  0  0
  -22.9245   -9.9337   20.2509 C   0  0  0  0  0  0  0  0  0  0  0  0
  -24.3470   -9.1609   22.0442 C   0  0  0  0  0  0  0  0  0  0  0  0
  -28.5617  -36.0304   19.4641 C   0  0  0  0  0  0  0  0  0  0  0  0
  -29.2039  -33.5692   18.3344 C   0  0  0  0  0  0  0  0  0  0  0  0
  -27.5894  -26.6241   17.6450 C   0  0  0  0  0  0  0  0  0  0  0  0
  -22.2403   -8.7184   20.2697 C   0  0  0  0  0  0  0  0  0  0  0  0
  -23.6628   -7.9454   22.0631 C   0  0  0  0  0  0  0  0  0  0  0  0
  -28.0953  -25.3641   17.9617 C   0  0  0  0  0  0  0  0  0  0  0  0
  -20.7392   -6.7531   23.2678 C   0  0  0  0  0  0  0  0  0  0  0  0
  -20.3744   -6.2358   24.5107 C   0  0  0  0  0  0  0  0  0  0  0  0
  -27.2355  -25.5892   20.2043 C   0  0  0  0  0  0  0  0  0  0  0  0
  -28.8455  -20.4330   18.6561 C   0  0  0  0  0  0  0  0  0  0  0  0
  -31.0135  -20.2221   20.3990 C   0  0  0  0  0  0  0  0  0  0  0  0
  -21.6913   -4.2578   24.0740 C   0  0  0  0  0  0  0  0  0  0  0  0
  -23.9778  -10.1550   21.1381 C   0  0  0  0  0  0  0  0  0  0  0  0
  -24.3819  -12.5685   21.8589 C   0  0  0  0  0  0  0  0  0  0  0  0
  -28.4202  -34.8634   20.2313 C   0  0  0  0  0  0  0  0  0  0  0  0
  -26.9111  -27.3819   18.6104 C   0  0  0  0  0  0  0  0  0  0  0  0
  -28.7544  -33.6185   19.6649 C   0  0  0  0  0  0  0  0  0  0  0  0
  -26.7197  -26.8574   19.8966 C   0  0  0  0  0  0  0  0  0  0  0  0
  -29.5390  -21.5779   19.0482 C   0  0  0  0  0  0  0  0  0  0  0  0
  -29.2359  -19.1826   19.1356 C   0  0  0  0  0  0  0  0  0  0  0  0
  -30.6231  -21.4725   19.9196 C   0  0  0  0  0  0  0  0  0  0  0  0
  -22.6095   -7.7242   21.1758 C   0  0  0  0  0  0  0  0  0  0  0  0
  -27.9209  -24.8477   19.2424 C   0  0  0  0  0  0  0  0  0  0  0  0
  -21.5801   -6.0228   22.4279 C   0  0  0  0  0  0  0  0  0  0  0  0
  -30.3199  -19.0772   20.0070 C   0  0  0  0  0  0  0  0  0  0  0  0
  -20.8505   -4.9881   24.9138 C   0  0  0  0  0  0  0  0  0  0  0  0
  -22.0561   -4.7752   22.8310 C   0  0  0  0  0  0  0  0  0  0  0  0
  -24.6853  -11.4101   21.1187 C   0  0  0  0  0  0  0  0  0  0  0  0
  -25.3443  -13.4752   21.4874 C   0  0  0  0  0  0  0  0  0  0  0  0
  -23.3246  -12.8038   22.7984 C   0  0  0  0  0  0  0  0  0  0  0  0
  -27.4009  -30.1970   20.0030 C   0  0  0  0  0  0  0  0  0  0  0  0
  -24.4833  -29.6246   21.3000 C   0  0  0  0  0  0  0  0  0  0  0  0
  -22.1165  -27.3424   22.2147 C   0  0  0  0  0  0  0  0  0  0  0  0
  -30.6648  -14.7477   20.3839 C   0  0  0  0  0  0  0  0  0  0  0  0
  -27.9769  -34.9881   21.6675 C   0  0  0  0  0  0  0  0  0  0  0  0
  -26.3481  -28.7281   18.2452 C   0  0  0  0  0  0  0  0  0  0  0  0
  -25.9811  -27.6224   20.9632 C   0  0  0  0  0  0  0  0  0  0  0  0
  -27.5131  -33.6684   22.2786 C   0  0  0  0  0  0  0  0  0  0  0  0
  -28.7458  -13.3192   17.7469 C   0  0  0  0  0  0  0  0  0  0  0  0
  -28.5030  -32.5536   21.9559 C   0  0  0  0  0  0  0  0  0  0  0  0
  -27.4970  -12.7856   18.4509 C   0  0  0  0  0  0  0  0  0  0  0  0
  -29.9946  -13.1536   18.6102 C   0  0  0  0  0  0  0  0  0  0  0  0
  -28.6417  -13.1915   20.6698 C   0  0  0  0  0  0  0  0  0  0  0  0
  -28.6065  -32.3287   20.4425 C   0  0  1  0  0  0  0  0  0  0  0  0
  -26.1221  -29.6294   19.4551 C   0  0  1  0  0  0  0  0  0  0  0  0
  -27.3480  -13.3875   19.8611 C   0  0  2  0  0  0  0  0  0  0  0  0
  -31.3812  -22.6839   20.3535 C   0  0  0  0  0  0  0  0  0  0  0  0
  -28.5650  -17.7339   17.1850 C   0  0  0  0  0  0  0  0  0  0  0  0
  -27.0091  -18.0013   19.1504 C   0  0  0  0  0  0  0  0  0  0  0  0
  -19.8531  -27.1730   23.2850 C   0  0  0  0  0  0  0  0  0  0  0  0
  -25.7440  -30.1061   24.0366 C   0  0  0  0  0  0  0  0  0  0  0  0
  -23.7429  -29.0154   25.0730 C   0  0  0  0  0  0  0  0  0  0  0  0
  -23.4717  -31.1088   23.7438 C   0  0  0  0  0  0  0  0  0  0  0  0
  -20.9314  -26.1320   19.7879 C   0  0  0  0  0  0  0  0  0  0  0  0
  -29.1002  -22.9124   18.5211 C   0  0  0  0  0  0  0  0  0  1  0  0
  -31.2030  -16.2999   22.2440 C   0  0  0  0  0  0  0  0  0  0  0  0
  -30.6862  -17.6855   21.9003 C   0  0  0  0  0  0  0  0  0  0  0  0
  -28.4826  -17.9675   18.7047 C   0  0  0  0  0  0  0  0  0  0  0  0
  -23.9845  -28.9402   22.5497 C   0  0  1  0  0  0  0  0  0  0  0  0
  -20.6181  -27.2946   21.9763 C   0  0  2  0  0  0  0  0  0  0  0  0
  -24.2514  -29.7788   23.8314 C   0  0  0  0  0  0  0  0  0  0  0  0
  -25.7566  -11.5642   20.3361 N   0  0  0  0  0  0  0  0  0  0  0  0
  -26.1347  -12.8301   20.5823 N   0  0  0  0  0  0  0  0  0  0  0  0
  -25.4548  -28.9367   20.5592 N   0  0  0  0  0  0  0  0  0  0  0  0
  -29.7880  -13.7470   19.9335 N   0  0  0  0  0  0  0  0  0  0  0  0
  -25.5830  -14.7535   21.8499 N   0  0  0  0  0  0  0  0  0  0  0  0
  -22.4233  -11.7639   23.0642 N   0  0  0  0  0  0  0  0  0  0  0  0
  -27.4662  -31.5767   19.9642 N   0  0  0  0  0  0  0  0  0  0  0  0
  -22.5765  -28.6384   22.3155 N   0  0  0  0  0  0  0  0  0  0  0  0
  -30.3941  -15.2610   21.6464 N   0  0  0  0  0  0  0  0  0  0  0  0
  -20.2673  -26.1287   21.1168 N   0  3  0  0  0  0  0  0  0  0  0  0
  -23.1736  -13.9088   23.3724 O   0  0  0  0  0  0  0  0  0  0  0  0
  -28.2638  -29.4393   20.4307 O   0  0  0  0  0  0  0  0  0  0  0  0
  -24.0226  -30.7257   20.9887 O   0  0  0  0  0  0  0  0  0  0  0  0
  -22.8091  -26.3312   22.3063 O   0  0  0  0  0  0  0  0  0  0  0  0
  -31.6151  -15.1573   19.7086 O   0  0  0  0  0  0  0  0  0  0  0  0
  -21.9420   -6.5382   21.1946 O   0  0  0  0  0  0  0  0  0  0  0  0
  -28.4143  -23.6184   19.5543 O   0  0  0  0  0  0  0  0  0  1  0  0
  -30.7135  -17.8637   20.4856 O   0  0  0  0  0  0  0  0  0  0  0  0
  -20.5013   -4.4921   26.1081 F   0  0  0  0  0  0  0  0  0  0  0  0
  -22.8651   -4.0695   22.0290 F   0  0  0  0  0  0  0  0  0  0  0  0
  1  2  1  0  0  0  0
  1  5  2  0  0  0  0
  2  6  2  0  0  0  0
  3  8  2  0  0  0  0
  3 17  1  0  0  0  0
  4  9  1  0  0  0  0
  4 17  2  0  0  0  0
  5 19  1  0  0  0  0
  6 21  1  0  0  0  0
  7 10  2  0  0  0  0
  7 20  1  0  0  0  0
  8 26  1  0  0  0  0
  9 26  2  0  0  0  0
 10 27  1  0  0  0  0
 11 12  2  0  0  0  0
 11 28  1  0  0  0  0
 12 30  1  0  0  0  0
 13 22  1  0  0  0  0
 13 27  2  0  0  0  0
 14 23  1  0  0  0  0
 14 24  2  0  0  0  0
 15 25  1  0  0  0  0
 15 29  2  0  0  0  0
 16 30  2  0  0  0  0
 16 31  1  0  0  0  0
 17 32  1  0  0  0  0
 18 32  1  0  0  0  0
 18 33  2  0  0  0  0
 18 34  1  0  0  0  0
 19 21  2  0  0  0  0
 19 39  1  0  0  0  0
 20 22  2  0  0  0  0
 20 40  1  0  0  0  0
 21 48  1  0  0  0  0
 22 41  1  0  0  0  0
 23 25  2  0  0  0  0
 23 59  1  0  0  0  0
 24 29  1  0  0  0  0
 24 62  1  0  0  0  0
 25 51  1  0  0  0  0
 26 81  1  0  0  0  0
 27 82  1  0  0  0  0
 28 31  2  0  0  0  0
 28 81  1  0  0  0  0
 29 83  1  0  0  0  0
 30 84  1  0  0  0  0
 31 85  1  0  0  0  0
 32 66  2  0  0  0  0
 33 67  1  0  0  0  0
 33 70  1  0  0  0  0
 34 71  1  0  0  0  0
 34 76  2  0  0  0  0
 35 49  1  0  0  0  0
 35 72  1  0  0  0  0
 35 77  2  0  0  0  0
 36 63  1  0  0  0  0
 36 68  1  0  0  0  0
 36 78  2  0  0  0  0
 37 64  1  0  0  0  0
 37 73  1  0  0  0  0
 37 79  2  0  0  0  0
 38 69  1  0  0  0  0
 38 74  1  0  0  0  0
 38 80  2  0  0  0  0
 39 42  1  0  0  0  0
 40 49  1  0  0  0  0
 41 68  1  0  0  0  0
 42 44  1  0  0  0  0
 43 45  1  0  0  0  0
 43 46  1  0  0  0  0
 44 48  1  0  0  0  0
 45 50  1  0  0  0  0
 46 69  1  0  0  0  0
 47 50  1  0  0  0  0
 47 69  1  0  0  0  0
 48 72  1  0  0  0  0
 49 68  1  0  0  0  0
 50 67  1  0  0  0  0
 52 62  1  0  0  0  0
 53 62  1  0  0  0  0
 54 64  1  0  0  0  0
 55 65  1  0  0  0  0
 56 65  1  0  0  0  0
 57 65  1  0  0  0  0
 58 75  1  0  0  0  0
 59 82  1  0  0  0  0
 60 61  1  0  0  0  0
 60 74  1  0  0  0  0
 61 83  1  0  0  0  0
 63 65  1  0  0  0  0
 63 73  1  0  0  0  0
 64 75  1  0  0  0  0
 66 67  1  0  0  0  0
M  CHG  1  75   1
M  ISO  4  38 100  59 101  74 100  82 101
M  END
> <Batch ID>
0150

> <Smiles>
CNC(C)C(=O)NC(C(=O)N1Cc2cc([101O:1][101CH2:1]c3cc(C(C)C)c(OCC[100NH:0][100C:0](=O)N4CCCC(n5nc(-c6ccc(Oc7ccc(F)cc7F)cc6)c(C(N)=O)c5N)C4)cc3C)ccc2CC1C(=O)NC1CCCc2ccccc21)C(C)(C)C

> <Shape>
0.348

> <Color>
0.155

> <Negative vol penalty>
0.000

$$$$

  -OEChem-04052321413D

 84 93  0     1  0  0  0  0  0999 V2000
  -29.5016  -31.9919   21.6501 C   0  0  0  0  0  0  0  0  0  0  0  0
  -29.3307  -30.6439   21.9487 C   0  0  0  0  0  0  0  0  0  0  0  0
  -23.4350   -9.6692   20.5646 C   0  0  0  0  0  0  0  0  0  0  0  0
  -24.0456  -10.2572   22.8270 C   0  0  0  0  0  0  0  0  0  0  0  0
  -28.4450  -32.8838   21.8290 C   0  0  0  0  0  0  0  0  0  0  0  0
  -28.1032  -30.1872   22.4274 C   0  0  0  0  0  0  0  0  0  0  0  0
  -26.6112  -25.9043   20.1745 C   0  0  0  0  0  0  0  0  0  0  0  0
  -22.8188   -8.5086   21.0325 C   0  0  0  0  0  0  0  0  0  0  0  0
  -23.4294   -9.0966   23.2950 C   0  0  0  0  0  0  0  0  0  0  0  0
  -27.2099  -24.7192   20.5998 C   0  0  0  0  0  0  0  0  0  0  0  0
  -23.7607   -5.4280   22.0559 C   0  0  0  0  0  0  0  0  0  0  0  0
  -24.0068   -4.2411   21.3658 C   0  0  0  0  0  0  0  0  0  0  0  0
  -25.2782  -24.2395   21.9628 C   0  0  0  0  0  0  0  0  0  0  0  0
  -28.8614  -19.9752   21.1357 C   0  0  0  0  0  0  0  0  0  0  0  0
  -29.3149  -21.0219   23.2654 C   0  0  0  0  0  0  0  0  0  0  0  0
  -21.6457   -4.0204   20.9034 C   0  0  0  0  0  0  0  0  0  0  0  0
  -24.0485  -10.5435   21.4619 C   0  0  0  0  0  0  0  0  0  0  0  0
  -24.0959  -13.0091   20.8092 C   0  0  0  0  0  0  0  0  0  0  0  0
  -27.2010  -32.4361   22.3010 C   0  0  0  0  0  0  0  0  0  0  0  0
  -25.3440  -26.2719   20.6494 C   0  0  0  0  0  0  0  0  0  0  0  0
  -27.0294  -31.0741   22.6141 C   0  0  0  0  0  0  0  0  0  0  0  0
  -24.6645  -25.4286   21.5400 C   0  0  0  0  0  0  0  0  0  0  0  0
  -29.7223  -18.6589   22.9697 C   0  0  0  0  0  0  0  0  0  0  0  0
  -28.8767  -21.1117   21.9442 C   0  0  0  0  0  0  0  0  0  0  0  0
  -29.2841  -18.7487   21.6485 C   0  0  0  0  0  0  0  0  0  0  0  0
  -29.7377  -19.7955   23.7782 C   0  0  0  0  0  0  0  0  0  0  0  0
  -22.8160   -8.2223   22.3977 C   0  0  0  0  0  0  0  0  0  0  0  0
  -26.5446  -23.8880   21.4963 C   0  0  0  0  0  0  0  0  0  0  0  0
  -22.4571   -5.9111   22.1698 C   0  0  0  0  0  0  0  0  0  0  0  0
  -22.9494   -3.5373   20.7895 C   0  0  0  0  0  0  0  0  0  0  0  0
  -21.3997   -5.2074   21.5936 C   0  0  0  0  0  0  0  0  0  0  0  0
  -24.6857  -11.7422   20.9791 C   0  0  0  0  0  0  0  0  0  0  0  0
  -25.1120  -13.7995   20.3304 C   0  0  0  0  0  0  0  0  0  0  0  0
  -22.7498  -13.4335   21.0616 C   0  0  0  0  0  0  0  0  0  0  0  0
  -24.2018  -28.7119   22.3363 C   0  0  0  0  0  0  0  0  0  0  0  0
  -21.3449  -27.3231   21.6789 C   0  0  0  0  0  0  0  0  0  0  0  0
  -19.6184  -24.4960   20.8583 C   0  0  0  0  0  0  0  0  0  0  0  0
  -30.8202  -14.5751   20.9041 C   0  0  0  0  0  0  0  0  0  0  0  0
  -26.1028  -33.4456   22.5232 C   0  0  0  0  0  0  0  0  0  0  0  0
  -24.7005  -27.5404   20.1603 C   0  0  0  0  0  0  0  0  0  0  0  0
  -23.2938  -25.7678   22.0639 C   0  0  0  0  0  0  0  0  0  0  0  0
  -24.7203  -32.8174   22.6793 C   0  0  0  0  0  0  0  0  0  0  0  0
  -29.4224  -12.9412   18.0663 C   0  0  0  0  0  0  0  0  0  0  0  0
  -31.4136  -17.2483   24.5351 C   0  0  0  0  0  0  0  0  0  0  0  0
  -24.7767  -31.6354   23.6418 C   0  0  0  0  0  0  0  0  0  0  0  0
  -28.0036  -12.5832   18.5123 C   0  0  0  0  0  0  0  0  0  0  0  0
  -31.7935  -15.8786   23.9426 C   0  0  0  0  0  0  0  0  0  0  0  0
  -30.4240  -12.8102   19.2116 C   0  0  0  0  0  0  0  0  0  0  0  0
  -28.6511  -13.2000   20.8786 C   0  0  0  0  0  0  0  0  0  0  0  0
  -30.2031  -17.2635   23.5526 C   0  0  2  0  0  0  0  0  0  0  0  0
  -25.7054  -30.5362   23.1120 C   0  0  1  0  0  0  0  0  0  0  0  0
  -23.6265  -28.0688   21.1062 C   0  0  1  0  0  0  0  0  0  0  0  0
  -27.5963  -13.3710   19.7720 C   0  0  2  0  0  0  0  0  0  0  0  0
  -31.0649  -16.3181   22.6537 C   0  0  2  0  0  0  0  0  0  0  0  0
  -29.2593  -17.5450   20.7653 C   0  0  0  0  0  0  0  0  0  0  0  0
  -30.2018  -19.7229   25.1956 C   0  0  0  0  0  0  0  0  0  0  0  0
  -17.2901  -23.6652   20.4271 C   0  0  0  0  0  0  0  0  0  0  0  0
  -20.7803  -27.3563   24.6773 C   0  0  0  0  0  0  0  0  0  0  0  0
  -18.9430  -25.7029   24.2790 C   0  0  0  0  0  0  0  0  0  0  0  0
  -18.8266  -27.9683   23.2410 C   0  0  0  0  0  0  0  0  0  0  0  0
  -20.2888  -23.7073   18.0857 C   0  0  0  0  0  0  0  0  0  0  0  0
  -28.4210  -22.4305   21.3925 C   0  0  0  0  0  0  0  0  0  1  0  0
  -20.4838  -26.2800   22.3493 C   0  0  1  0  0  0  0  0  0  0  0  0
  -18.5562  -24.2343   19.8059 C   0  0  2  0  0  0  0  0  0  0  0  0
  -19.7851  -26.8211   23.6284 C   0  0  0  0  0  0  0  0  0  0  0  0
  -25.9764  -11.7241   20.6359 N   0  0  0  0  0  0  0  0  0  0  0  0
  -26.2060  -12.9894   20.2456 N   0  0  0  0  0  0  0  0  0  0  0  0
  -22.7092  -27.0219   21.5610 N   0  0  0  0  0  0  0  0  0  0  0  0
  -29.9797  -13.5819   20.3748 N   0  0  0  0  0  0  0  0  0  0  0  0
  -25.1675  -15.1014   19.9778 N   0  0  0  0  0  0  0  0  0  0  0  0
  -21.8337  -12.4932   21.5525 N   0  0  0  0  0  0  0  0  0  0  0  0
  -25.0455  -29.7742   22.0736 N   0  0  0  0  0  0  0  0  0  0  0  0
  -19.5643  -25.7915   21.3273 N   0  0  0  0  0  0  0  0  0  0  0  0
  -30.3200  -15.2637   22.0025 N   0  0  0  0  0  0  0  0  0  0  0  0
  -19.0592  -23.2646   18.7922 N   0  3  0  0  0  0  0  0  0  0  0  0
  -22.3665  -14.6077   20.8425 O   0  0  0  0  0  0  0  0  0  0  0  0
  -23.9011  -28.2774   23.4420 O   0  0  0  0  0  0  0  0  0  0  0  0
  -20.8250  -28.3637   21.2684 O   0  0  0  0  0  0  0  0  0  0  0  0
  -20.4139  -23.6361   21.2300 O   0  0  0  0  0  0  0  0  0  0  0  0
  -31.9316  -14.8330   20.4295 O   0  0  0  0  0  0  0  0  0  0  0  0
  -22.2146   -7.0901   22.8547 O   0  0  0  0  0  0  0  0  0  0  0  0
  -27.1270  -22.7310   21.9135 O   0  0  0  0  0  0  0  0  0  1  0  0
  -23.1860   -2.3984   20.1255 F   0  0  0  0  0  0  0  0  0  0  0  0
  -20.1453   -5.6671   21.6987 F   0  0  0  0  0  0  0  0  0  0  0  0
  1  2  1  0  0  0  0
  1  5  2  0  0  0  0
  2  6  2  0  0  0  0
  3  8  2  0  0  0  0
  3 17  1  0  0  0  0
  4  9  1  0  0  0  0
  4 17  2  0  0  0  0
  5 19  1  0  0  0  0
  6 21  1  0  0  0  0
  7 10  2  0  0  0  0
  7 20  1  0  0  0  0
  8 27  1  0  0  0  0
  9 27  2  0  0  0  0
 10 28  1  0  0  0  0
 11 12  2  0  0  0  0
 11 29  1  0  0  0  0
 12 30  1  0  0  0  0
 13 22  1  0  0  0  0
 13 28  2  0  0  0  0
 14 24  1  0  0  0  0
 14 25  2  0  0  0  0
 15 24  2  0  0  0  0
 15 26  1  0  0  0  0
 16 30  2  0  0  0  0
 16 31  1  0  0  0  0
 17 32  1  0  0  0  0
 18 32  1  0  0  0  0
 18 33  2  0  0  0  0
 18 34  1  0  0  0  0
 19 21  2  0  0  0  0
 19 39  1  0  0  0  0
 20 22  2  0  0  0  0
 20 40  1  0  0  0  0
 21 51  1  0  0  0  0
 22 41  1  0  0  0  0
 23 25  1  0  0  0  0
 23 26  2  0  0  0  0
 23 50  1  0  0  0  0
 24 62  1  0  0  0  0
 25 55  1  0  0  0  0
 26 56  1  0  0  0  0
 27 81  1  0  0  0  0
 28 82  1  0  0  0  0
 29 31  2  0  0  0  0
 29 81  1  0  0  0  0
 30 83  1  0  0  0  0
 31 84  1  0  0  0  0
 32 66  2  0  0  0  0
 33 67  1  0  0  0  0
 33 70  1  0  0  0  0
 34 71  1  0  0  0  0
 34 76  2  0  0  0  0
 35 52  1  0  0  0  0
 35 72  1  0  0  0  0
 35 77  2  0  0  0  0
 36 63  1  0  0  0  0
 36 68  1  0  0  0  0
 36 78  2  0  0  0  0
 37 64  1  0  0  0  0
 37 73  1  0  0  0  0
 37 79  2  0  0  0  0
 38 69  1  0  0  0  0
 38 74  1  0  0  0  0
 38 80  2  0  0  0  0
 39 42  1  0  0  0  0
 40 52  1  0  0  0  0
 41 68  1  0  0  0  0
 42 45  1  0  0  0  0
 43 46  1  0  0  0  0
 43 48  1  0  0  0  0
 44 47  1  0  0  0  0
 44 50  1  0  0  0  0
 45 51  1  0  0  0  0
 46 53  1  0  0  0  0
 47 54  1  0  0  0  0
 48 69  1  0  0  0  0
 49 53  1  0  0  0  0
 49 69  1  0  0  0  0
 50 54  1  0  0  0  0
 51 72  1  0  0  0  0
 52 68  1  0  0  0  0
 53 67  1  0  0  0  0
 54 74  1  0  0  0  0
 57 64  1  0  0  0  0
 58 65  1  0  0  0  0
 59 65  1  0  0  0  0
 60 65  1  0  0  0  0
 61 75  1  0  0  0  0
 62 82  1  0  0  0  0
 63 65  1  0  0  0  0
 63 73  1  0  0  0  0
 64 75  1  0  0  0  0
 66 67  1  0  0  0  0
M  CHG  1  75   1
M  ISO  4  38 100  62 101  74 100  82 101
M  END
> <Batch ID>
0150

> <Smiles>
CNC(C)C(=O)NC(C(=O)N1Cc2cc([101O:1][101CH2:1]c3cc(C)c(C4CCC4[100NH:0][100C:0](=O)N4CCCC(n5nc(-c6ccc(Oc7ccc(F)cc7F)cc6)c(C(N)=O)c5N)C4)c(C)c3)ccc2CC1C(=O)NC1CCCc2ccccc21)C(C)(C)C

> <Shape>
0.305

> <Color>
0.174

> <Negative vol penalty>
0.000

$$$$

  -OEChem-04052321413D

 86 95  0     1  0  0  0  0  0999 V2000
  -19.2647  -26.2889   22.8128 C   0  0  0  0  0  0  0  0  0  0  0  0
  -19.6998  -25.1343   22.1702 C   0  0  0  0  0  0  0  0  0  0  0  0
  -23.3042   -9.7689   19.9528 C   0  0  0  0  0  0  0  0  0  0  0  0
  -23.7331   -9.9762   22.3213 C   0  0  0  0  0  0  0  0  0  0  0  0
  -20.1135  -27.3903   22.9153 C   0  0  0  0  0  0  0  0  0  0  0  0
  -20.9837  -25.0807   21.6288 C   0  0  0  0  0  0  0  0  0  0  0  0
  -23.3653  -20.7424   22.7021 C   0  0  0  0  0  0  0  0  0  0  0  0
  -22.5858   -8.5962   20.1855 C   0  0  0  0  0  0  0  0  0  0  0  0
  -23.0146   -8.8035   22.5541 C   0  0  0  0  0  0  0  0  0  0  0  0
  -23.0112  -19.6199   21.9549 C   0  0  0  0  0  0  0  0  0  0  0  0
  -20.9429   -5.3527   20.1190 C   0  0  0  0  0  0  0  0  0  0  0  0
  -21.1841   -4.2652   19.2796 C   0  0  0  0  0  0  0  0  0  0  0  0
  -24.6613  -17.9674   17.6344 C   0  0  0  0  0  0  0  0  0  0  0  0
  -24.9697  -19.9248   20.5800 C   0  0  0  0  0  0  0  0  0  0  0  0
  -23.7281  -19.6908   15.6490 C   0  0  0  0  0  0  0  0  0  0  0  0
  -23.5016   -4.2522   19.9624 C   0  0  0  0  0  0  0  0  0  0  0  0
  -23.8779  -10.4589   21.0207 C   0  0  0  0  0  0  0  0  0  0  0  0
  -24.1181  -12.9849   20.7570 C   0  0  0  0  0  0  0  0  0  0  0  0
  -21.4119  -27.3467   22.3834 C   0  0  0  0  0  0  0  0  0  0  0  0
  -24.5204  -21.4722   22.3865 C   0  0  0  0  0  0  0  0  0  0  0  0
  -21.8502  -26.1830   21.7231 C   0  0  0  0  0  0  0  0  0  0  0  0
  -25.4264  -18.1922   16.4900 C   0  0  0  0  0  0  0  0  0  0  0  0
  -25.3376  -21.0547   21.3263 C   0  0  0  0  0  0  0  0  0  0  0  0
  -23.4296  -18.6043   17.7861 C   0  0  0  0  0  0  0  0  0  0  0  0
  -24.9598  -19.0539   15.4973 C   0  0  0  0  0  0  0  0  0  0  0  0
  -22.9631  -19.4660   16.7935 C   0  0  0  0  0  0  0  0  0  0  0  0
  -22.4409   -8.1135   21.4861 C   0  0  0  0  0  0  0  0  0  0  0  0
  -23.8118  -19.2126   20.8919 C   0  0  0  0  0  0  0  0  0  0  0  0
  -21.9810   -5.8901   20.8801 C   0  0  0  0  0  0  0  0  0  0  0  0
  -22.4635   -3.7149   19.2013 C   0  0  0  0  0  0  0  0  0  0  0  0
  -23.2604   -5.3398   20.8018 C   0  0  0  0  0  0  0  0  0  0  0  0
  -24.6207  -11.6701   20.7809 C   0  0  0  0  0  0  0  0  0  0  0  0
  -25.2153  -13.7670   20.4908 C   0  0  0  0  0  0  0  0  0  0  0  0
  -22.7793  -13.4569   20.9577 C   0  0  0  0  0  0  0  0  0  0  0  0
  -25.1048  -24.4543   21.4544 C   0  0  0  0  0  0  0  0  0  0  0  0
  -28.1983  -23.5463   21.8129 C   0  0  0  0  0  0  0  0  0  0  0  0
  -30.4817  -21.0117   21.9049 C   0  0  0  0  0  0  0  0  0  0  0  0
  -29.8547  -14.8775   17.8155 C   0  0  0  0  0  0  0  0  0  0  0  0
  -22.2765  -28.5789   22.4772 C   0  0  0  0  0  0  0  0  0  0  0  0
  -24.9029  -22.6651   23.2190 C   0  0  0  0  0  0  0  0  0  0  0  0
  -26.5988  -21.7917   20.9594 C   0  0  0  0  0  0  0  0  0  0  0  0
  -23.7541  -28.3083   22.2057 C   0  0  0  0  0  0  0  0  0  0  0  0
  -30.1412  -12.6492   20.4430 C   0  0  0  0  0  0  0  0  0  0  0  0
  -23.9184  -27.4427   20.9605 C   0  0  0  0  0  0  0  0  0  0  0  0
  -28.6920  -12.2937   20.7754 C   0  0  0  0  0  0  0  0  0  0  0  0
  -27.7523  -17.9012   17.4513 C   0  0  0  0  0  0  0  0  0  0  0  0
  -26.6068  -15.9584   16.3050 C   0  0  0  0  0  0  0  0  0  0  0  0
  -30.3533  -12.7251   18.9352 C   0  0  0  0  0  0  0  0  0  0  0  0
  -29.0843  -17.1679   17.3125 C   0  0  0  0  0  0  0  0  0  0  0  0
  -27.9639  -15.2701   16.1905 C   0  0  0  0  0  0  0  0  0  0  0  0
  -27.9865  -13.3393   18.5679 C   0  0  0  0  0  0  0  0  0  0  0  0
  -26.7632  -17.4888   16.3476 C   0  0  0  0  0  0  0  0  0  0  0  0
  -23.2447  -26.0776   21.1448 C   0  0  1  0  0  0  0  0  0  0  0  0
  -25.8258  -23.6339   22.4862 C   0  0  1  0  0  0  0  0  0  0  0  0
  -27.7141  -13.2595   20.0833 C   0  0  1  0  0  0  0  0  0  0  0  0
  -25.7618  -19.3103   14.2637 C   0  0  0  0  0  0  0  0  0  0  0  0
  -21.6472  -20.1583   16.9335 C   0  0  0  0  0  0  0  0  0  0  0  0
  -21.6885  -17.1478   18.8771 C   0  0  0  0  0  0  0  0  0  0  0  0
  -32.9393  -20.5832   22.1770 C   0  0  0  0  0  0  0  0  0  0  0  0
  -28.6783  -24.4981   18.9539 C   0  0  0  0  0  0  0  0  0  0  0  0
  -30.8220  -23.2048   18.9573 C   0  0  0  0  0  0  0  0  0  0  0  0
  -30.4976  -25.0825   20.5673 C   0  0  0  0  0  0  0  0  0  0  0  0
  -30.0469  -19.3877   24.3406 C   0  0  0  0  0  0  0  0  0  0  0  0
  -22.6276  -18.3476   19.0196 C   0  0  1  0  0  0  0  0  0  1  0  0
  -29.2387  -22.9181   20.9174 C   0  0  1  0  0  0  0  0  0  0  0  0
  -31.5978  -20.6965   22.8844 C   0  0  2  0  0  0  0  0  0  0  0  0
  -29.7844  -23.9129   19.8544 C   0  0  0  0  0  0  0  0  0  0  0  0
  -25.9348  -11.6161   20.5481 N   0  0  0  0  0  0  0  0  0  0  0  0
  -26.2673  -12.9067   20.3754 N   0  0  0  0  0  0  0  0  0  0  0  0
  -26.9268  -22.9555   21.7993 N   0  0  0  0  0  0  0  0  0  0  0  0
  -29.4019  -13.6469   18.3149 N   0  0  0  0  0  0  0  0  0  0  0  0
  -28.8909  -15.7203   17.2377 N   0  0  0  0  0  0  0  0  0  0  0  0
  -25.3731  -15.0999   20.3463 N   0  0  0  0  0  0  0  0  0  0  0  0
  -21.7724  -12.5184   21.2215 N   0  0  0  0  0  0  0  0  0  0  0  0
  -24.0685  -25.2138   21.9631 N   0  0  0  0  0  0  0  0  0  0  0  0
  -30.2606  -22.3688   21.8020 N   0  0  0  0  0  0  0  0  0  0  0  0
  -31.3250  -19.4090   23.5837 N   0  3  0  0  0  0  0  0  0  0  0  0
  -22.4816  -14.6735   20.8885 O   0  0  0  0  0  0  0  0  0  0  0  0
  -25.4632  -24.4034   20.2836 O   0  0  0  0  0  0  0  0  0  0  0  0
  -28.5044  -24.5208   22.5044 O   0  0  0  0  0  0  0  0  0  0  0  0
  -29.8698  -20.1413   21.2896 O   0  0  0  0  0  0  0  0  0  0  0  0
  -31.0450  -15.2080   17.8852 O   0  0  0  0  0  0  0  0  0  0  0  0
  -21.7398   -6.9693   21.7136 O   0  0  0  0  0  0  0  0  0  0  0  0
  -23.4671  -18.1142   20.1582 O   0  0  0  0  0  0  0  0  0  1  0  0
  -22.6946   -2.6696   18.3963 F   0  0  0  0  0  0  0  0  0  0  0  0
  -24.2614   -5.8510   21.5314 F   0  0  0  0  0  0  0  0  0  0  0  0
  1  2  1  0  0  0  0
  1  5  2  0  0  0  0
  2  6  2  0  0  0  0
  3  8  2  0  0  0  0
  3 17  1  0  0  0  0
  4  9  1  0  0  0  0
  4 17  2  0  0  0  0
  5 19  1  0  0  0  0
  6 21  1  0  0  0  0
  7 10  2  0  0  0  0
  7 20  1  0  0  0  0
  8 27  1  0  0  0  0
  9 27  2  0  0  0  0
 10 28  1  0  0  0  0
 11 12  2  0  0  0  0
 11 29  1  0  0  0  0
 12 30  1  0  0  0  0
 13 22  2  0  0  0  0
 13 24  1  0  0  0  0
 14 23  1  0  0  0  0
 14 28  2  0  0  0  0
 15 25  2  0  0  0  0
 15 26  1  0  0  0  0
 16 30  2  0  0  0  0
 16 31  1  0  0  0  0
 17 32  1  0  0  0  0
 18 32  1  0  0  0  0
 18 33  2  0  0  0  0
 18 34  1  0  0  0  0
 19 21  2  0  0  0  0
 19 39  1  0  0  0  0
 20 23  2  0  0  0  0
 20 40  1  0  0  0  0
 21 53  1  0  0  0  0
 22 25  1  0  0  0  0
 22 52  1  0  0  0  0
 23 41  1  0  0  0  0
 24 26  2  0  0  0  0
 24 64  1  0  0  0  0
 25 56  1  0  0  0  0
 26 57  1  0  0  0  0
 27 83  1  0  0  0  0
 28 84  1  0  0  0  0
 29 31  2  0  0  0  0
 29 83  1  0  0  0  0
 30 85  1  0  0  0  0
 31 86  1  0  0  0  0
 32 68  2  0  0  0  0
 33 69  1  0  0  0  0
 33 73  1  0  0  0  0
 34 74  1  0  0  0  0
 34 78  2  0  0  0  0
 35 54  1  0  0  0  0
 35 75  1  0  0  0  0
 35 79  2  0  0  0  0
 36 65  1  0  0  0  0
 36 70  1  0  0  0  0
 36 80  2  0  0  0  0
 37 66  1  0  0  0  0
 37 76  1  0  0  0  0
 37 81  2  0  0  0  0
 38 71  1  0  0  0  0
 38 72  1  0  0  0  0
 38 82  2  0  0  0  0
 39 42  1  0  0  0  0
 40 54  1  0  0  0  0
 41 70  1  0  0  0  0
 42 44  1  0  0  0  0
 43 45  1  0  0  0  0
 43 48  1  0  0  0  0
 44 53  1  0  0  0  0
 45 55  1  0  0  0  0
 46 49  1  0  0  0  0
 46 52  1  0  0  0  0
 47 50  1  0  0  0  0
 47 52  1  0  0  0  0
 48 71  1  0  0  0  0
 49 72  1  0  0  0  0
 50 72  1  0  0  0  0
 51 55  1  0  0  0  0
 51 71  1  0  0  0  0
 53 75  1  0  0  0  0
 54 70  1  0  0  0  0
 55 69  1  0  0  0  0
 58 64  1  0  0  0  0
 59 66  1  0  0  0  0
 60 67  1  0  0  0  0
 61 67  1  0  0  0  0
 62 67  1  0  0  0  0
 63 77  1  0  0  0  0
 64 84  1  0  0  0  0
 65 67  1  0  0  0  0
 65 76  1  0  0  0  0
 66 77  1  0  0  0  0
 68 69  1  0  0  0  0
M  CHG  1  77   1
M  ISO  4  38 100  64 101  72 100  84 101
M  END
> <Batch ID>
0150

> <Smiles>
CNC(C)C(=O)NC(C(=O)N1Cc2cc([101O:1][101CH:1](C)c3cc(C4CC[100N:0]([100C:0](=O)N5CCCC(n6nc(-c7ccc(Oc8ccc(F)cc8F)cc7)c(C(N)=O)c6N)C5)CC4)c(C)cc3C)ccc2CC1C(=O)NC1CCCc2ccccc21)C(C)(C)C

> <Shape>
0.204

> <Color>
0.183

> <Negative vol penalty>
0.000

$$$$

  -OEChem-04052321413D

 92102  0     1  0  0  0  0  0999 V2000
  -22.7957  -24.3285   27.6386 C   0  0  0  0  0  0  0  0  0  0  0  0
  -23.6565  -24.3585   26.5460 C   0  0  0  0  0  0  0  0  0  0  0  0
  -22.8739  -10.0636   20.0529 C   0  0  0  0  0  0  0  0  0  0  0  0
  -23.6508  -10.0754   22.3406 C   0  0  0  0  0  0  0  0  0  0  0  0
  -21.5041  -24.8402   27.5212 C   0  0  0  0  0  0  0  0  0  0  0  0
  -23.2256  -24.8991   25.3351 C   0  0  0  0  0  0  0  0  0  0  0  0
  -26.6002  -28.0212   21.2891 C   0  0  0  0  0  0  0  0  0  0  0  0
  -22.0519   -8.9733   20.3376 C   0  0  0  0  0  0  0  0  0  0  0  0
  -22.8287   -8.9851   22.6253 C   0  0  0  0  0  0  0  0  0  0  0  0
  -27.2318  -27.6438   20.1048 C   0  0  0  0  0  0  0  0  0  0  0  0
  -22.8781   -5.6375   22.1535 C   0  0  0  0  0  0  0  0  0  0  0  0
  -23.4249   -4.5898   22.8943 C   0  0  0  0  0  0  0  0  0  0  0  0
  -28.7372  -21.3387   19.3752 C   0  0  0  0  0  0  0  0  0  0  0  0
  -28.3777  -19.6619   17.6736 C   0  0  0  0  0  0  0  0  0  0  0  0
  -25.3280  -28.4270   18.8471 C   0  0  0  0  0  0  0  0  0  0  0  0
  -21.7538   -4.9281   24.6062 C   0  0  0  0  0  0  0  0  0  0  0  0
  -23.6734  -10.6147   21.0544 C   0  0  0  0  0  0  0  0  0  0  0  0
  -24.1930  -13.1051   20.8660 C   0  0  0  0  0  0  0  0  0  0  0  0
  -21.0604  -25.3962   26.3110 C   0  0  0  0  0  0  0  0  0  0  0  0
  -25.3211  -28.5953   21.2620 C   0  0  0  0  0  0  0  0  0  0  0  0
  -21.9263  -25.4175   25.2010 C   0  0  0  0  0  0  0  0  0  0  0  0
  -28.3660  -20.9978   18.0747 C   0  0  0  0  0  0  0  0  0  0  0  0
  -29.1203  -20.3438   20.2748 C   0  0  0  0  0  0  0  0  0  0  0  0
  -24.6835  -28.8132   20.0323 C   0  0  0  0  0  0  0  0  0  0  0  0
  -28.7607  -18.6669   18.5731 C   0  0  0  0  0  0  0  0  0  0  0  0
  -22.0293   -8.4340   21.6238 C   0  0  0  0  0  0  0  0  0  0  0  0
  -26.5945  -27.8440   18.8838 C   0  0  0  0  0  0  0  0  0  0  0  0
  -21.7693   -6.3307   22.6391 C   0  0  0  0  0  0  0  0  0  0  0  0
  -29.1320  -19.0079   19.8737 C   0  0  0  0  0  0  0  0  0  0  0  0
  -22.8627   -4.2350   24.1206 C   0  0  0  0  0  0  0  0  0  0  0  0
  -21.2071   -5.9760   23.8654 C   0  0  0  0  0  0  0  0  0  0  0  0
  -24.5231  -11.7406   20.7607 C   0  0  0  0  0  0  0  0  0  0  0  0
  -25.3328  -13.7652   20.4765 C   0  0  0  0  0  0  0  0  0  0  0  0
  -22.9658  -13.7208   21.2791 C   0  0  0  0  0  0  0  0  0  0  0  0
  -22.4728  -27.7827   22.4154 C   0  0  0  0  0  0  0  0  0  0  0  0
  -21.6255  -30.7158   21.3193 C   0  0  0  0  0  0  0  0  0  0  0  0
  -22.2329  -33.2891   19.1615 C   0  0  0  0  0  0  0  0  0  0  0  0
  -30.8764  -14.3950   20.6043 C   0  0  0  0  0  0  0  0  0  0  0  0
  -19.6397  -25.8940   26.2185 C   0  0  0  0  0  0  0  0  0  0  0  0
  -24.6647  -29.0215   22.5464 C   0  0  0  0  0  0  0  0  0  0  0  0
  -23.3186  -29.4443   19.9475 C   0  0  0  0  0  0  0  0  0  0  0  0
  -19.3858  -26.7900   25.0090 C   0  0  0  0  0  0  0  0  0  0  0  0
  -29.5530  -12.0371   18.2879 C   0  0  0  0  0  0  0  0  0  0  0  0
  -28.8043  -20.0910   22.8263 C   0  0  0  0  0  0  0  0  0  0  0  0
  -28.5557  -21.5304   22.5000 C   0  0  0  0  0  0  0  0  0  0  0  0
  -19.9833  -26.1694   23.7501 C   0  0  0  0  0  0  0  0  0  0  0  0
  -28.1018  -11.8579   18.7373 C   0  0  0  0  0  0  0  0  0  0  0  0
  -26.7126  -22.8028   17.6329 C   0  0  0  0  0  0  0  0  0  0  0  0
  -29.1134  -23.0494   16.8833 C   0  0  0  0  0  0  0  0  0  0  0  0
  -30.4931  -12.2228   19.4769 C   0  0  0  0  0  0  0  0  0  0  0  0
  -28.6594  -13.1231   20.8556 C   0  0  0  0  0  0  0  0  0  0  0  0
  -26.3177  -23.9511   16.7131 C   0  0  0  0  0  0  0  0  0  0  0  0
  -28.7001  -24.1956   15.9691 C   0  0  0  0  0  0  0  0  0  0  0  0
  -27.9556  -22.0642   17.1110 C   0  0  0  0  0  0  0  0  0  0  0  0
  -29.5152  -20.7279   21.6620 C   0  0  0  0  0  0  0  0  0  0  0  0
  -21.5040  -26.0183   23.8778 C   0  0  1  0  0  0  0  0  0  0  0  0
  -23.1467  -29.1255   22.4358 C   0  0  1  0  0  0  0  0  0  0  0  0
  -27.6658  -12.9882   19.6889 C   0  0  2  0  0  0  0  0  0  0  0  0
  -28.7635  -17.2421   18.1260 C   0  0  0  0  0  0  0  0  0  0  0  0
  -21.3474  -35.5343   18.4743 C   0  0  0  0  0  0  0  0  0  0  0  0
  -19.3642  -29.3531   19.7897 C   0  0  0  0  0  0  0  0  0  0  0  0
  -19.1305  -31.4351   18.4189 C   0  0  0  0  0  0  0  0  0  0  0  0
  -18.7324  -31.5132   20.8802 C   0  0  0  0  0  0  0  0  0  0  0  0
  -24.7460  -34.6466   19.9365 C   0  0  0  0  0  0  0  0  0  0  0  0
  -31.1050  -16.5665   21.7839 C   0  0  0  0  0  0  0  0  0  0  0  0
  -27.1157  -26.1080   15.7509 C   0  0  0  0  0  0  0  0  0  0  0  0
  -30.8900  -17.6958   20.7921 C   0  0  0  0  0  0  0  0  0  0  0  0
  -26.3682  -27.0790   16.6434 C   0  0  0  0  0  0  0  0  0  1  0  0
  -21.0938  -31.2568   20.0141 C   0  0  1  0  0  0  0  0  0  0  0  0
  -22.3151  -34.7891   19.3803 C   0  0  2  0  0  0  0  0  0  0  0  0
  -19.6052  -30.8759   19.7771 C   0  0  0  0  0  0  0  0  0  0  0  0
  -25.7746  -11.5441   20.3373 N   0  0  0  0  0  0  0  0  0  0  0  0
  -26.2408  -12.7938   20.1731 N   0  0  0  0  0  0  0  0  0  0  0  0
  -22.7153  -29.8381   21.2314 N   0  0  0  0  0  0  0  0  0  0  0  0
  -30.0242  -13.3104   20.3390 N   0  0  0  0  0  0  0  0  0  0  0  0
  -25.6368  -15.0759   20.3673 N   0  0  0  0  0  0  0  0  0  0  0  0
  -21.8945  -12.8951   21.6463 N   0  0  0  0  0  0  0  0  0  0  0  0
  -22.1578  -27.2922   23.6682 N   0  0  0  0  0  0  0  0  0  0  0  0
  -21.3470  -32.6935   20.0343 N   0  0  0  0  0  0  0  0  0  0  0  0
  -30.3516  -15.3856   21.4253 N   0  0  0  0  0  0  0  0  0  0  0  0
  -27.4849  -24.9042   16.5375 N   0  3  0  0  0  0  0  0  0  0  0  0
  -23.6942  -35.2787   19.0990 N   0  3  0  0  0  0  0  0  0  0  0  0
  -22.8182  -14.9662   21.3056 O   0  0  0  0  0  0  0  0  0  0  0  0
  -22.2535  -27.2330   21.3423 O   0  0  0  0  0  0  0  0  0  0  0  0
  -21.0979  -31.0649   22.3783 O   0  0  0  0  0  0  0  0  0  0  0  0
  -22.8862  -32.7048   18.2999 O   0  0  0  0  0  0  0  0  0  0  0  0
  -32.0183  -14.4773   20.1392 O   0  0  0  0  0  0  0  0  0  0  0  0
  -21.2272   -7.3702   21.9020 O   0  0  0  0  0  0  0  0  0  0  0  0
  -27.2084  -27.4760   17.7264 O   0  0  0  0  0  0  0  0  0  1  0  0
  -29.5058  -18.0338   20.7523 O   0  0  0  0  0  0  0  0  0  0  0  0
  -23.3869   -3.2278   24.8312 F   0  0  0  0  0  0  0  0  0  0  0  0
  -20.1411   -6.6374   24.3364 F   0  0  0  0  0  0  0  0  0  0  0  0
  1  2  1  0  0  0  0
  1  5  2  0  0  0  0
  2  6  2  0  0  0  0
  3  8  2  0  0  0  0
  3 17  1  0  0  0  0
  4  9  1  0  0  0  0
  4 17  2  0  0  0  0
  5 19  1  0  0  0  0
  6 21  1  0  0  0  0
  7 10  2  0  0  0  0
  7 20  1  0  0  0  0
  8 26  1  0  0  0  0
  9 26  2  0  0  0  0
 10 27  1  0  0  0  0
 11 12  2  0  0  0  0
 11 28  1  0  0  0  0
 12 30  1  0  0  0  0
 13 22  2  0  0  0  0
 13 23  1  0  0  0  0
 14 22  1  0  0  0  0
 14 25  2  0  0  0  0
 15 24  1  0  0  0  0
 15 27  2  0  0  0  0
 16 30  2  0  0  0  0
 16 31  1  0  0  0  0
 17 32  1  0  0  0  0
 18 32  1  0  0  0  0
 18 33  2  0  0  0  0
 18 34  1  0  0  0  0
 19 21  2  0  0  0  0
 19 39  1  0  0  0  0
 20 24  2  0  0  0  0
 20 40  1  0  0  0  0
 21 56  1  0  0  0  0
 22 54  1  0  0  0  0
 23 29  2  0  0  0  0
 23 55  1  0  0  0  0
 24 41  1  0  0  0  0
 25 29  1  0  0  0  0
 25 59  1  0  0  0  0
 26 88  1  0  0  0  0
 27 89  1  0  0  0  0
 28 31  2  0  0  0  0
 28 88  1  0  0  0  0
 29 90  1  0  0  0  0
 30 91  1  0  0  0  0
 31 92  1  0  0  0  0
 32 72  2  0  0  0  0
 33 73  1  0  0  0  0
 33 76  1  0  0  0  0
 34 77  1  0  0  0  0
 34 83  2  0  0  0  0
 35 57  1  0  0  0  0
 35 78  1  0  0  0  0
 35 84  2  0  0  0  0
 36 69  1  0  0  0  0
 36 74  1  0  0  0  0
 36 85  2  0  0  0  0
 37 70  1  0  0  0  0
 37 79  1  0  0  0  0
 37 86  2  0  0  0  0
 38 75  1  0  0  0  0
 38 80  1  0  0  0  0
 38 87  2  0  0  0  0
 39 42  1  0  0  0  0
 40 57  1  0  0  0  0
 41 74  1  0  0  0  0
 42 46  1  0  0  0  0
 43 47  1  0  0  0  0
 43 50  1  0  0  0  0
 44 45  1  0  0  0  0
 44 55  1  0  0  0  0
 45 55  1  0  0  0  0
 46 56  1  0  0  0  0
 47 58  1  0  0  0  0
 48 52  1  0  0  0  0
 48 54  1  0  0  0  0
 49 53  1  0  0  0  0
 49 54  1  0  0  0  0
 50 75  1  0  0  0  0
 51 58  1  0  0  0  0
 51 75  1  0  0  0  0
 52 81  1  0  0  0  0
 53 81  1  0  0  0  0
 56 78  1  0  0  0  0
 57 74  1  0  0  0  0
 58 73  1  0  0  0  0
 60 70  1  0  0  0  0
 61 71  1  0  0  0  0
 62 71  1  0  0  0  0
 63 71  1  0  0  0  0
 64 82  1  0  0  0  0
 65 67  1  0  0  0  0
 65 80  1  0  0  0  0
 66 68  1  0  0  0  0
 66 81  1  0  0  0  0
 67 90  1  0  0  0  0
 68 89  1  0  0  0  0
 69 71  1  0  0  0  0
 69 79  1  0  0  0  0
 70 82  1  0  0  0  0
 72 73  1  0  0  0  0
M  CHG  2  81   1  82   1
M  ISO  4  38 100  68 101  80 100  89 101
M  END
> <Batch ID>
0150

> <Smiles>
CNC(C)C(=O)NC(C(=O)N1Cc2cc([101O:1][101CH2:1]CN3CCC(c4cc(C)c(OCC[100NH:0][100C:0](=O)N5CCCC(n6nc(-c7ccc(Oc8ccc(F)cc8F)cc7)c(C(N)=O)c6N)C5)c(C5CC5)c4)CC3)ccc2CC1C(=O)NC1CCCc2ccccc21)C(C)(C)C

> <Shape>
0.317

> <Color>
0.216

> <Negative vol penalty>
0.000

$$$$

  -OEChem-04052321413D

 84 93  0     1  0  0  0  0  0999 V2000
  -29.5586  -37.1176   23.3022 C   0  0  0  0  0  0  0  0  0  0  0  0
  -30.5496  -36.1485   23.1834 C   0  0  0  0  0  0  0  0  0  0  0  0
  -22.7027  -10.1713   20.1484 C   0  0  0  0  0  0  0  0  0  0  0  0
  -24.3946   -9.4192   21.7005 C   0  0  0  0  0  0  0  0  0  0  0  0
  -28.2355  -36.7368   23.5218 C   0  0  0  0  0  0  0  0  0  0  0  0
  -30.2182  -34.7978   23.2854 C   0  0  0  0  0  0  0  0  0  0  0  0
  -32.1260  -28.3746   20.7518 C   0  0  0  0  0  0  0  0  0  0  0  0
  -22.0033   -8.9787   20.3329 C   0  0  0  0  0  0  0  0  0  0  0  0
  -23.6952   -8.2266   21.8850 C   0  0  0  0  0  0  0  0  0  0  0  0
  -32.4836  -27.1034   21.1987 C   0  0  0  0  0  0  0  0  0  0  0  0
  -20.9958   -7.1668   23.6202 C   0  0  0  0  0  0  0  0  0  0  0  0
  -20.8388   -6.7049   24.9269 C   0  0  0  0  0  0  0  0  0  0  0  0
  -30.1526  -26.5602   21.4998 C   0  0  0  0  0  0  0  0  0  0  0  0
  -22.0129   -4.6737   24.3500 C   0  0  0  0  0  0  0  0  0  0  0  0
  -23.8984  -10.3916   20.8322 C   0  0  0  0  0  0  0  0  0  0  0  0
  -24.1619  -12.9279   20.9020 C   0  0  0  0  0  0  0  0  0  0  0  0
  -27.8862  -35.3804   23.6169 C   0  0  0  0  0  0  0  0  0  0  0  0
  -30.7772  -28.7526   20.6858 C   0  0  0  0  0  0  0  0  0  0  0  0
  -28.8894  -34.3985   23.5078 C   0  0  0  0  0  0  0  0  0  0  0  0
  -29.7804  -27.8359   21.0493 C   0  0  0  0  0  0  0  0  0  0  0  0
  -22.4995   -8.0063   21.2012 C   0  0  0  0  0  0  0  0  0  0  0  0
  -31.4970  -26.1969   21.5756 C   0  0  0  0  0  0  0  0  0  0  0  0
  -21.6614   -6.3822   22.6783 C   0  0  0  0  0  0  0  0  0  0  0  0
  -21.3474   -5.4584   25.2919 C   0  0  0  0  0  0  0  0  0  0  0  0
  -22.1699   -5.1357   23.0433 C   0  0  0  0  0  0  0  0  0  0  0  0
  -24.6217  -11.6231   20.6416 C   0  0  0  0  0  0  0  0  0  0  0  0
  -25.2163  -13.7384   20.5586 C   0  0  0  0  0  0  0  0  0  0  0  0
  -22.8951  -13.3681   21.4090 C   0  0  0  0  0  0  0  0  0  0  0  0
  -29.0045  -30.9924   22.0803 C   0  0  0  0  0  0  0  0  0  0  0  0
  -26.7257  -29.9060   20.0434 C   0  0  0  0  0  0  0  0  0  0  0  0
  -25.5836  -26.7038   18.8355 C   0  0  0  0  0  0  0  0  0  0  0  0
  -30.8254  -14.5586   21.0333 C   0  0  0  0  0  0  0  0  0  0  0  0
  -26.4500  -35.0190   23.9020 C   0  0  0  0  0  0  0  0  0  0  0  0
  -30.4068  -30.1184   20.1761 C   0  0  0  0  0  0  0  0  0  0  0  0
  -28.3172  -28.1856   20.9776 C   0  0  0  0  0  0  0  0  0  0  0  0
  -26.1239  -33.5538   23.6239 C   0  0  0  0  0  0  0  0  0  0  0  0
  -29.5038  -12.7278   18.0936 C   0  0  0  0  0  0  0  0  0  0  0  0
  -27.1956  -32.6461   24.2192 C   0  0  0  0  0  0  0  0  0  0  0  0
  -28.1055  -12.3240   18.5576 C   0  0  0  0  0  0  0  0  0  0  0  0
  -32.0785  -21.7944   19.9820 C   0  0  0  0  0  0  0  0  0  0  0  0
  -30.0139  -21.7022   21.4484 C   0  0  0  0  0  0  0  0  0  0  0  0
  -32.5313  -23.0606   20.7050 C   0  0  0  0  0  0  0  0  0  0  0  0
  -30.4715  -22.9689   22.1674 C   0  0  0  0  0  0  0  0  0  0  0  0
  -31.5902  -17.9140   21.4733 C   0  0  0  0  0  0  0  0  0  0  0  0
  -29.4162  -17.6803   20.2078 C   0  0  0  0  0  0  0  0  0  0  0  0
  -30.4695  -12.8737   19.2653 C   0  0  0  0  0  0  0  0  0  0  0  0
  -31.2212  -16.6667   22.2721 C   0  0  0  0  0  0  0  0  0  0  0  0
  -29.1017  -16.4180   21.0161 C   0  0  0  0  0  0  0  0  0  0  0  0
  -28.5933  -13.4030   20.7891 C   0  0  0  0  0  0  0  0  0  0  0  0
  -28.5655  -32.9225   23.5879 C   0  0  1  0  0  0  0  0  0  0  0  0
  -29.0258  -30.5740   20.6373 C   0  0  1  0  0  0  0  0  0  0  0  0
  -27.5856  -13.2911   19.6350 C   0  0  2  0  0  0  0  0  0  0  0  0
  -31.2097  -20.9305   20.8940 C   0  0  0  0  0  0  0  0  0  0  0  0
  -30.3262  -18.6234   20.9917 C   0  0  0  0  0  0  0  0  0  0  0  0
  -31.3463  -23.8434   21.2687 C   0  0  0  0  0  0  0  0  0  1  0  0
  -24.4514  -26.0808   16.6844 C   0  0  0  0  0  0  0  0  0  0  0  0
  -24.1468  -30.2546   21.6364 C   0  0  0  0  0  0  0  0  0  0  0  0
  -23.2080  -28.2806   20.4156 C   0  0  0  0  0  0  0  0  0  0  0  0
  -23.8578  -30.3318   19.1535 C   0  0  0  0  0  0  0  0  0  0  0  0
  -27.6449  -24.6766   18.2028 C   0  0  0  0  0  0  0  0  0  0  0  0
  -29.6094  -20.1641   19.1715 C   0  0  0  0  0  0  0  0  0  0  0  0
  -25.6623  -28.8360   20.1012 C   0  0  1  0  0  0  0  0  0  0  0  0
  -25.7707  -26.1401   17.4385 C   0  0  2  0  0  0  0  0  0  0  0  0
  -24.2430  -29.4235   20.3414 C   0  0  0  0  0  0  0  0  0  0  0  0
  -25.8708  -11.6012   20.1690 N   0  0  0  0  0  0  0  0  0  0  0  0
  -26.2049  -12.9023   20.1297 N   0  0  0  0  0  0  0  0  0  0  0  0
  -28.0059  -29.5353   20.4788 N   0  0  0  0  0  0  0  0  0  0  0  0
  -29.9332  -13.7601   20.2983 N   0  0  0  0  0  0  0  0  0  0  0  0
  -30.3386  -15.7883   21.5018 N   0  0  0  0  0  0  0  0  0  0  0  0
  -25.3850  -15.0775   20.5846 N   0  0  0  0  0  0  0  0  0  0  0  0
  -22.7386  -13.4964   22.7959 N   0  0  0  0  0  0  0  0  0  0  0  0
  -28.6504  -32.3134   22.2778 N   0  0  0  0  0  0  0  0  0  0  0  0
  -25.7898  -28.0668   18.8681 N   0  0  0  0  0  0  0  0  0  0  0  0
  -26.3351  -24.7626   17.5071 N   0  3  0  0  0  0  0  0  0  0  0  0
  -30.7118  -19.7628   20.1195 N   0  3  1  0  0  0  0  0  0  0  0  0
  -21.9254  -13.6238   20.6555 O   0  0  0  0  0  0  0  0  0  0  0  0
  -29.2870  -30.1767   22.9501 O   0  0  0  0  0  0  0  0  0  0  0  0
  -26.4330  -31.0272   19.6205 O   0  0  0  0  0  0  0  0  0  0  0  0
  -25.2808  -26.0055   19.8005 O   0  0  0  0  0  0  0  0  0  0  0  0
  -31.9871  -14.1943   21.2548 O   0  0  0  0  0  0  0  0  0  0  0  0
  -21.8171   -6.8425   21.3816 O   0  0  0  0  0  0  0  0  0  0  0  0
  -31.8456  -24.9476   22.0156 O   0  0  0  0  0  0  0  0  0  1  0  0
  -21.1978   -5.0156   26.5472 F   0  0  0  0  0  0  0  0  0  0  0  0
  -22.8113   -4.3779   22.1431 F   0  0  0  0  0  0  0  0  0  0  0  0
  1  2  1  0  0  0  0
  1  5  2  0  0  0  0
  2  6  2  0  0  0  0
  3  8  2  0  0  0  0
  3 15  1  0  0  0  0
  4  9  1  0  0  0  0
  4 15  2  0  0  0  0
  5 17  1  0  0  0  0
  6 19  1  0  0  0  0
  7 10  2  0  0  0  0
  7 18  1  0  0  0  0
  8 21  1  0  0  0  0
  9 21  2  0  0  0  0
 10 22  1  0  0  0  0
 11 12  2  0  0  0  0
 11 23  1  0  0  0  0
 12 24  1  0  0  0  0
 13 20  1  0  0  0  0
 13 22  2  0  0  0  0
 14 24  2  0  0  0  0
 14 25  1  0  0  0  0
 15 26  1  0  0  0  0
 16 26  1  0  0  0  0
 16 27  2  0  0  0  0
 16 28  1  0  0  0  0
 17 19  2  0  0  0  0
 17 33  1  0  0  0  0
 18 20  2  0  0  0  0
 18 34  1  0  0  0  0
 19 50  1  0  0  0  0
 20 35  1  0  0  0  0
 21 81  1  0  0  0  0
 22 82  1  0  0  0  0
 23 25  2  0  0  0  0
 23 81  1  0  0  0  0
 24 83  1  0  0  0  0
 25 84  1  0  0  0  0
 26 65  2  0  0  0  0
 27 66  1  0  0  0  0
 27 70  1  0  0  0  0
 28 71  1  0  0  0  0
 28 76  2  0  0  0  0
 29 51  1  0  0  0  0
 29 72  1  0  0  0  0
 29 77  2  0  0  0  0
 30 62  1  0  0  0  0
 30 67  1  0  0  0  0
 30 78  2  0  0  0  0
 31 63  1  0  0  0  0
 31 73  1  0  0  0  0
 31 79  2  0  0  0  0
 32 68  1  0  0  0  0
 32 69  1  0  0  0  0
 32 80  2  0  0  0  0
 33 36  1  0  0  0  0
 34 51  1  0  0  0  0
 35 67  1  0  0  0  0
 36 38  1  0  0  0  0
 37 39  1  0  0  0  0
 37 46  1  0  0  0  0
 38 50  1  0  0  0  0
 39 52  1  0  0  0  0
 40 42  1  0  0  0  0
 40 53  1  0  0  0  0
 41 43  1  0  0  0  0
 41 53  1  0  0  0  0
 42 55  1  0  0  0  0
 43 55  1  0  0  0  0
 44 47  1  0  0  0  0
 44 54  1  0  0  0  0
 45 48  1  0  0  0  0
 45 54  1  0  0  0  0
 46 68  1  0  0  0  0
 47 69  1  0  0  0  0
 48 69  1  0  0  0  0
 49 52  1  0  0  0  0
 49 68  1  0  0  0  0
 50 72  1  0  0  0  0
 51 67  1  0  0  0  0
 52 66  1  0  0  0  0
 53 75  1  0  0  0  0
 54 75  1  0  0  0  0
 55 82  1  0  0  0  0
 56 63  1  0  0  0  0
 57 64  1  0  0  0  0
 58 64  1  0  0  0  0
 59 64  1  0  0  0  0
 60 74  1  0  0  0  0
 61 75  1  0  0  0  0
 62 64  1  0  0  0  0
 62 73  1  0  0  0  0
 63 74  1  0  0  0  0
 65 66  1  0  0  0  0
M  CHG  2  74   1  75   1
M  ISO  4  32 100  55 101  69 100  82 101
M  END
> <Batch ID>
0150

> <Smiles>
CNC(C)C(=O)NC(C(=O)N1Cc2cc([101O:1][101CH:1]3CCC(N(C)C4CC[100N:0]([100C:0](=O)N5CCCC(n6nc(-c7ccc(Oc8ccc(F)cc8F)cc7)c(C(N)=O)c6N)C5)CC4)CC3)ccc2CC1C(=O)NC1CCCc2ccccc21)C(C)(C)C

> <Shape>
0.354

> <Color>
0.161

> <Negative vol penalty>
0.000

$$$$

  -OEChem-04052321413D

 87 96  0     1  0  0  0  0  0999 V2000
  -16.7145  -26.1772   24.6527 C   0  0  0  0  0  0  0  0  0  0  0  0
  -17.6370  -25.2793   25.1802 C   0  0  0  0  0  0  0  0  0  0  0  0
  -26.3966  -18.0941   21.3989 C   0  0  0  0  0  0  0  0  0  0  0  0
  -26.2142  -18.1046   18.9898 C   0  0  0  0  0  0  0  0  0  0  0  0
  -17.0170  -26.8825   23.4887 C   0  0  0  0  0  0  0  0  0  0  0  0
  -18.8623  -25.0855   24.5433 C   0  0  0  0  0  0  0  0  0  0  0  0
  -25.7230  -23.5995   25.9709 C   0  0  0  0  0  0  0  0  0  0  0  0
  -27.2750  -19.1758   21.3371 C   0  0  0  0  0  0  0  0  0  0  0  0
  -27.0926  -19.1864   18.9280 C   0  0  0  0  0  0  0  0  0  0  0  0
  -26.7322  -22.7114   25.6012 C   0  0  0  0  0  0  0  0  0  0  0  0
  -26.9605  -22.5301   19.3996 C   0  0  0  0  0  0  0  0  0  0  0  0
  -26.6255  -23.5874   18.5538 C   0  0  0  0  0  0  0  0  0  0  0  0
  -27.1779  -24.0436   23.6402 C   0  0  0  0  0  0  0  0  0  0  0  0
  -30.8605  -18.1046   21.4669 C   0  0  0  0  0  0  0  0  0  0  0  0
  -32.0003  -17.3030   23.4405 C   0  0  0  0  0  0  0  0  0  0  0  0
  -28.6678  -23.2399   17.3105 C   0  0  0  0  0  0  0  0  0  0  0  0
  -25.8662  -17.5584   20.2252 C   0  0  0  0  0  0  0  0  0  0  0  0
  -23.5563  -16.4891   20.3946 C   0  0  0  0  0  0  0  0  0  0  0  0
  -18.2504  -26.7043   22.8425 C   0  0  0  0  0  0  0  0  0  0  0  0
  -25.4259  -24.7123   25.1709 C   0  0  0  0  0  0  0  0  0  0  0  0
  -19.1810  -25.7881   23.3687 C   0  0  0  0  0  0  0  0  0  0  0  0
  -26.1663  -24.9457   24.0032 C   0  0  0  0  0  0  0  0  0  0  0  0
  -31.0554  -15.7302   21.8688 C   0  0  0  0  0  0  0  0  0  0  0  0
  -31.5554  -18.3617   22.6487 C   0  0  0  0  0  0  0  0  0  0  0  0
  -30.6104  -16.7888   21.0770 C   0  0  0  0  0  0  0  0  0  0  0  0
  -31.7504  -15.9873   23.0506 C   0  0  0  0  0  0  0  0  0  0  0  0
  -27.6230  -19.7220   20.1017 C   0  0  0  0  0  0  0  0  0  0  0  0
  -27.4579  -22.9318   24.4342 C   0  0  0  0  0  0  0  0  0  0  0  0
  -28.1492  -21.8277   19.2009 C   0  0  0  0  0  0  0  0  0  0  0  0
  -27.4791  -23.9423   17.5092 C   0  0  0  0  0  0  0  0  0  0  0  0
  -29.0028  -22.1826   18.1564 C   0  0  0  0  0  0  0  0  0  0  0  0
  -24.9592  -16.4406   20.2884 C   0  0  0  0  0  0  0  0  0  0  0  0
  -23.1679  -15.1719   20.4175 C   0  0  0  0  0  0  0  0  0  0  0  0
  -22.6824  -17.6235   20.4662 C   0  0  0  0  0  0  0  0  0  0  0  0
  -22.8700  -25.6973   23.5583 C   0  0  0  0  0  0  0  0  0  0  0  0
  -24.6803  -28.3446   23.0714 C   0  0  0  0  0  0  0  0  0  0  0  0
  -27.7922  -29.7354   22.9018 C   0  0  0  0  0  0  0  0  0  0  0  0
  -28.0708  -12.6657   19.4707 C   0  0  0  0  0  0  0  0  0  0  0  0
  -18.5133  -27.4541   21.5605 C   0  0  0  0  0  0  0  0  0  0  0  0
  -24.3523  -25.6754   25.5975 C   0  0  0  0  0  0  0  0  0  0  0  0
  -25.9001  -26.1366   23.1203 C   0  0  0  0  0  0  0  0  0  0  0  0
  -19.9848  -27.4690   21.1545 C   0  0  0  0  0  0  0  0  0  0  0  0
  -25.8290  -12.4524   22.4111 C   0  0  0  0  0  0  0  0  0  0  0  0
  -20.5855  -26.0719   21.2729 C   0  0  0  0  0  0  0  0  0  0  0  0
  -24.4589  -12.3374   21.7408 C   0  0  0  0  0  0  0  0  0  0  0  0
  -31.3762  -13.9267   20.0843 C   0  0  0  0  0  0  0  0  0  0  0  0
  -26.9032  -11.8291   21.5338 C   0  0  0  0  0  0  0  0  0  0  0  0
  -30.5459  -12.7198   19.6799 C   0  0  0  0  0  0  0  0  0  0  0  0
  -29.2941  -13.9646   21.3067 C   0  0  0  0  0  0  0  0  0  0  0  0
  -25.6203  -12.3436   19.4886 C   0  0  0  0  0  0  0  0  0  0  0  0
  -30.7853  -14.3073   21.4465 C   0  0  2  0  0  0  0  0  0  0  0  0
  -20.5307  -25.5688   22.7204 C   0  0  1  0  0  0  0  0  0  0  0  0
  -23.7897  -26.4942   24.4397 C   0  0  1  0  0  0  0  0  0  0  0  0
  -24.4469  -12.9222   20.3102 C   0  0  2  0  0  0  0  0  0  0  0  0
  -29.8651  -16.5405   19.8064 C   0  0  0  0  0  0  0  0  0  0  0  0
  -32.2376  -14.8714   23.9161 C   0  0  0  0  0  0  0  0  0  0  0  0
  -28.9547  -31.9126   22.4481 C   0  0  0  0  0  0  0  0  0  0  0  0
  -24.1668  -27.9935   20.0842 C   0  0  0  0  0  0  0  0  0  0  0  0
  -26.0688  -29.5610   19.6440 C   0  0  0  0  0  0  0  0  0  0  0  0
  -24.0605  -30.3586   20.8901 C   0  0  0  0  0  0  0  0  0  0  0  0
  -28.9897  -29.7931   25.6076 C   0  0  0  0  0  0  0  0  0  0  0  0
  -31.8220  -19.7683   23.0660 C   0  0  0  0  0  0  0  0  0  0  0  0
  -29.5377  -22.6020   23.3290 C   0  0  0  0  0  0  0  0  0  1  0  0
  -30.7897  -21.8021   23.6327 C   0  0  0  0  0  0  0  0  0  0  0  0
  -25.6772  -28.7804   22.0248 C   0  0  1  0  0  0  0  0  0  0  0  0
  -28.3642  -31.0017   23.5131 C   0  0  2  0  0  0  0  0  0  0  0  0
  -24.9973  -29.1498   20.6762 C   0  0  0  0  0  0  0  0  0  0  0  0
  -25.4303  -15.1914   20.2468 N   0  0  0  0  0  0  0  0  0  0  0  0
  -24.3171  -14.4428   20.3274 N   0  0  0  0  0  0  0  0  0  0  0  0
  -24.8361  -27.0461   23.5768 N   0  0  0  0  0  0  0  0  0  0  0  0
  -26.8988  -12.4290   20.2002 N   0  0  0  0  0  0  0  0  0  0  0  0
  -29.2145  -13.0043   20.2005 N   0  0  0  0  0  0  0  0  0  0  0  0
  -21.9590  -14.5777   20.5057 N   0  0  0  0  0  0  0  0  0  0  0  0
  -23.2474  -18.9056   20.4298 N   0  0  0  0  0  0  0  0  0  0  0  0
  -21.5773  -26.1830   23.5090 N   0  0  0  0  0  0  0  0  0  0  0  0
  -26.4482  -29.8653   22.6221 N   0  0  0  0  0  0  0  0  0  0  0  0
  -29.4369  -30.6657   24.4916 N   0  3  0  0  0  0  0  0  0  0  0  0
  -21.4386  -17.5037   20.5763 O   0  0  0  0  0  0  0  0  0  0  0  0
  -23.3016  -24.7155   22.9656 O   0  0  0  0  0  0  0  0  0  0  0  0
  -23.8003  -29.1300   23.4325 O   0  0  0  0  0  0  0  0  0  0  0  0
  -28.4706  -28.7328   22.6897 O   0  0  0  0  0  0  0  0  0  0  0  0
  -28.0721  -12.6401   18.2336 O   0  0  0  0  0  0  0  0  0  0  0  0
  -28.4799  -20.7777   20.0410 O   0  0  0  0  0  0  0  0  0  0  0  0
  -28.4497  -22.0603   24.0682 O   0  0  0  0  0  0  0  0  0  1  0  0
  -30.5870  -20.4535   23.2340 O   0  0  0  0  0  0  0  0  0  0  0  0
  -27.1566  -24.9567   16.6961 F   0  0  0  0  0  0  0  0  0  0  0  0
  -30.1455  -21.5107   17.9599 F   0  0  0  0  0  0  0  0  0  0  0  0
  1  2  1  0  0  0  0
  1  5  2  0  0  0  0
  2  6  2  0  0  0  0
  3  8  2  0  0  0  0
  3 17  1  0  0  0  0
  4  9  1  0  0  0  0
  4 17  2  0  0  0  0
  5 19  1  0  0  0  0
  6 21  1  0  0  0  0
  7 10  2  0  0  0  0
  7 20  1  0  0  0  0
  8 27  1  0  0  0  0
  9 27  2  0  0  0  0
 10 28  1  0  0  0  0
 11 12  2  0  0  0  0
 11 29  1  0  0  0  0
 12 30  1  0  0  0  0
 13 22  1  0  0  0  0
 13 28  2  0  0  0  0
 14 24  1  0  0  0  0
 14 25  2  0  0  0  0
 15 24  2  0  0  0  0
 15 26  1  0  0  0  0
 16 30  2  0  0  0  0
 16 31  1  0  0  0  0
 17 32  1  0  0  0  0
 18 32  1  0  0  0  0
 18 33  2  0  0  0  0
 18 34  1  0  0  0  0
 19 21  2  0  0  0  0
 19 39  1  0  0  0  0
 20 22  2  0  0  0  0
 20 40  1  0  0  0  0
 21 52  1  0  0  0  0
 22 41  1  0  0  0  0
 23 25  1  0  0  0  0
 23 26  2  0  0  0  0
 23 51  1  0  0  0  0
 24 62  1  0  0  0  0
 25 55  1  0  0  0  0
 26 56  1  0  0  0  0
 27 83  1  0  0  0  0
 28 84  1  0  0  0  0
 29 31  2  0  0  0  0
 29 83  1  0  0  0  0
 30 86  1  0  0  0  0
 31 87  1  0  0  0  0
 32 68  2  0  0  0  0
 33 69  1  0  0  0  0
 33 73  1  0  0  0  0
 34 74  1  0  0  0  0
 34 78  2  0  0  0  0
 35 53  1  0  0  0  0
 35 75  1  0  0  0  0
 35 79  2  0  0  0  0
 36 65  1  0  0  0  0
 36 70  1  0  0  0  0
 36 80  2  0  0  0  0
 37 66  1  0  0  0  0
 37 76  1  0  0  0  0
 37 81  2  0  0  0  0
 38 71  1  0  0  0  0
 38 72  1  0  0  0  0
 38 82  2  0  0  0  0
 39 42  1  0  0  0  0
 40 53  1  0  0  0  0
 41 70  1  0  0  0  0
 42 44  1  0  0  0  0
 43 45  1  0  0  0  0
 43 47  1  0  0  0  0
 44 52  1  0  0  0  0
 45 54  1  0  0  0  0
 46 48  1  0  0  0  0
 46 51  1  0  0  0  0
 47 71  1  0  0  0  0
 48 72  1  0  0  0  0
 49 51  1  0  0  0  0
 49 72  1  0  0  0  0
 50 54  1  0  0  0  0
 50 71  1  0  0  0  0
 52 75  1  0  0  0  0
 53 70  1  0  0  0  0
 54 69  1  0  0  0  0
 57 66  1  0  0  0  0
 58 67  1  0  0  0  0
 59 67  1  0  0  0  0
 60 67  1  0  0  0  0
 61 77  1  0  0  0  0
 62 85  1  0  0  0  0
 63 64  1  0  0  0  0
 63 84  1  0  0  0  0
 64 85  1  0  0  0  0
 65 67  1  0  0  0  0
 65 76  1  0  0  0  0
 66 77  1  0  0  0  0
 68 69  1  0  0  0  0
M  CHG  1  77   1
M  ISO  4  38 100  63 101  72 100  84 101
M  END
> <Batch ID>
0150

> <Smiles>
CNC(C)C(=O)NC(C(=O)N1Cc2cc([101O:1][101CH2:1]COCc3cc(C)c(C4CC[100N:0]([100C:0](=O)N5CCCC(n6nc(-c7ccc(Oc8ccc(F)cc8F)cc7)c(C(N)=O)c6N)C5)C4)c(C)c3)ccc2CC1C(=O)NC1CCCc2ccccc21)C(C)(C)C

> <Shape>
0.236

> <Color>
0.078

> <Negative vol penalty>
0.000

$$$$

  -OEChem-04052321413D

 89 98  0     1  0  0  0  0  0999 V2000
  -18.6345  -33.6628   23.6558 C   0  0  0  0  0  0  0  0  0  0  0  0
  -19.9757  -33.7217   23.2909 C   0  0  0  0  0  0  0  0  0  0  0  0
  -23.2039   -9.7090   20.3197 C   0  0  0  0  0  0  0  0  0  0  0  0
  -22.4165   -9.9172   22.5942 C   0  0  0  0  0  0  0  0  0  0  0  0
  -32.4948  -22.5079   20.3217 C   0  0  0  0  0  0  0  0  0  0  0  0
  -18.0748  -32.4501   24.0559 C   0  0  0  0  0  0  0  0  0  0  0  0
  -20.7583  -32.5682   23.3270 C   0  0  0  0  0  0  0  0  0  0  0  0
  -26.2551  -29.4433   19.9600 C   0  0  0  0  0  0  0  0  0  0  0  0
  -23.5383   -8.3759   20.5574 C   0  0  0  0  0  0  0  0  0  0  0  0
  -22.7509   -8.5840   22.8320 C   0  0  0  0  0  0  0  0  0  0  0  0
  -32.0422  -23.7928   20.0222 C   0  0  0  0  0  0  0  0  0  0  0  0
  -27.4967  -28.8688   20.2286 C   0  0  0  0  0  0  0  0  0  0  0  0
  -23.0640   -5.1330   23.9323 C   0  0  0  0  0  0  0  0  0  0  0  0
  -22.1373   -4.3425   24.6119 C   0  0  0  0  0  0  0  0  0  0  0  0
  -26.4025  -26.8139   20.8605 C   0  0  0  0  0  0  0  0  0  0  0  0
  -29.8499  -22.9055   19.5285 C   0  0  0  0  0  0  0  0  0  0  0  0
  -20.5156   -4.7428   22.8664 C   0  0  0  0  0  0  0  0  0  0  0  0
  -22.6431  -10.4797   21.3381 C   0  0  0  0  0  0  0  0  0  0  0  0
  -31.6250  -21.4217   20.2245 C   0  0  0  0  0  0  0  0  0  0  0  0
  -21.0681  -12.3545   20.6223 C   0  0  0  0  0  0  0  0  0  0  0  0
  -18.8485  -31.2792   24.0877 C   0  0  0  0  0  0  0  0  0  0  0  0
  -25.0752  -28.7097   20.1503 C   0  0  0  0  0  0  0  0  0  0  0  0
  -20.2088  -31.3390   23.7293 C   0  0  0  0  0  0  0  0  0  0  0  0
  -25.1473  -27.3805   20.5911 C   0  0  0  0  0  0  0  0  0  0  0  0
  -23.3118   -7.8134   21.8135 C   0  0  0  0  0  0  0  0  0  0  0  0
  -27.5704  -27.5549   20.6817 C   0  0  0  0  0  0  0  0  0  0  0  0
  -30.7197  -23.9916   19.6256 C   0  0  0  0  0  0  0  0  0  0  0  0
  -22.7164   -5.7286   22.7197 C   0  0  0  0  0  0  0  0  0  0  0  0
  -30.3026  -21.6205   19.8279 C   0  0  0  0  0  0  0  0  0  0  0  0
  -20.8631   -4.1474   24.0790 C   0  0  0  0  0  0  0  0  0  0  0  0
  -21.4422   -5.5334   22.1868 C   0  0  0  0  0  0  0  0  0  0  0  0
  -22.2979  -11.8571   21.0933 C   0  0  0  0  0  0  0  0  0  0  0  0
  -21.2486  -13.7147   20.5612 C   0  0  0  0  0  0  0  0  0  0  0  0
  -32.1186  -20.0887   20.5406 C   0  0  0  0  0  0  0  0  0  0  0  0
  -19.8696  -11.6500   20.2714 C   0  0  0  0  0  0  0  0  0  0  0  0
  -22.5154  -29.0211   22.0088 C   0  0  0  0  0  0  0  0  0  0  0  0
  -21.4399  -26.4908   20.2874 C   0  0  0  0  0  0  0  0  0  0  0  0
  -22.1801  -23.7678   18.3681 C   0  0  0  0  0  0  0  0  0  0  0  0
  -25.8535  -17.1221   19.8043 C   0  0  0  0  0  0  0  0  0  0  0  0
  -18.2114  -30.0010   24.5726 C   0  0  0  0  0  0  0  0  0  0  0  0
  -23.7452  -29.3351   19.8305 C   0  0  0  0  0  0  0  0  0  0  0  0
  -23.9113  -26.5437   20.7923 C   0  0  0  0  0  0  0  0  0  0  0  0
  -19.0141  -28.7501   24.2244 C   0  0  0  0  0  0  0  0  0  0  0  0
  -23.7203  -17.2670   22.5883 C   0  0  0  0  0  0  0  0  0  0  0  0
  -20.4896  -28.9540   24.5531 C   0  0  0  0  0  0  0  0  0  0  0  0
  -22.9843  -15.9321   22.4764 C   0  0  0  0  0  0  0  0  0  0  0  0
  -27.0119  -20.6420   19.6784 C   0  0  0  0  0  0  0  0  0  0  0  0
  -28.2614  -19.4281   21.5155 C   0  0  0  0  0  0  0  0  0  0  0  0
  -25.2068  -17.1316   22.2541 C   0  0  0  0  0  0  0  0  0  0  0  0
  -26.7200  -19.2944   19.0203 C   0  0  0  0  0  0  0  0  0  0  0  0
  -27.9444  -18.1095   20.8137 C   0  0  0  0  0  0  0  0  0  0  0  0
  -24.7369  -15.1639   20.8314 C   0  0  0  0  0  0  0  0  0  0  0  0
  -21.0840  -30.1044   23.7317 C   0  0  1  0  0  0  0  0  0  0  0  0
  -22.5803  -28.6633   20.5509 C   0  0  1  0  0  0  0  0  0  0  0  0
  -23.2292  -15.2793   21.1043 C   0  0  1  0  0  0  0  0  0  0  0  0
  -28.2688  -20.6135   20.5487 C   0  0  0  0  0  0  0  0  0  0  0  0
  -21.0921  -21.8716   17.1360 C   0  0  0  0  0  0  0  0  0  0  0  0
  -20.9303  -25.0651   22.9365 C   0  0  0  0  0  0  0  0  0  0  0  0
  -20.7652  -22.9136   21.6669 C   0  0  0  0  0  0  0  0  0  0  0  0
  -19.1379  -24.7508   21.2210 C   0  0  0  0  0  0  0  0  0  0  0  0
  -23.2840  -24.6672   15.7736 C   0  0  0  0  0  0  0  0  0  0  0  0
  -29.8930  -27.4547   20.1805 C   0  0  0  0  0  0  0  0  0  1  0  0
  -30.8975  -26.3296   20.0232 C   0  0  0  0  0  0  0  0  0  0  0  0
  -21.5257  -24.9899   20.4254 C   0  0  1  0  0  0  0  0  0  0  0  0
  -21.6253  -23.2924   17.0374 C   0  0  2  0  0  0  0  0  0  0  0  0
  -20.6132  -24.4460   21.5606 C   0  0  0  0  0  0  0  0  0  0  0  0
  -23.1936  -12.8227   21.3155 N   0  0  0  0  0  0  0  0  0  0  0  0
  -22.5260  -13.9405   20.9826 N   0  0  0  0  0  0  0  0  0  0  0  0
  -22.6340  -27.2021   20.4720 N   0  0  0  0  0  0  0  0  0  0  0  0
  -25.3901  -16.4686   20.9561 N   0  0  0  0  0  0  0  0  0  0  0  0
  -26.7270  -18.2058   19.9970 N   0  0  0  0  0  0  0  0  0  0  0  0
  -20.4378  -14.7277   20.1886 N   0  0  0  0  0  0  0  0  0  0  0  0
  -32.6657  -19.3400   19.5038 N   0  0  0  0  0  0  0  0  0  0  0  0
  -19.8553  -10.2539   20.3934 N   0  0  0  0  0  0  0  0  0  0  0  0
  -21.3533  -29.6718   22.3772 N   0  0  0  0  0  0  0  0  0  0  0  0
  -21.2300  -24.4412   19.1063 N   0  0  0  0  0  0  0  0  0  0  0  0
  -22.6871  -23.3245   15.9923 N   0  3  0  0  0  0  0  0  0  0  0  0
  -32.0400  -19.6264   21.6913 O   0  0  0  0  0  0  0  0  0  0  0  0
  -18.8474  -12.2396   19.8462 O   0  0  0  0  0  0  0  0  0  0  0  0
  -23.4498  -28.7274   22.7452 O   0  0  0  0  0  0  0  0  0  0  0  0
  -20.3548  -27.0123   20.0186 O   0  0  0  0  0  0  0  0  0  0  0  0
  -23.3393  -23.5590   18.7192 O   0  0  0  0  0  0  0  0  0  0  0  0
  -25.5067  -16.7637   18.6719 O   0  0  0  0  0  0  0  0  0  0  0  0
  -23.6378   -6.5125   22.0458 O   0  0  0  0  0  0  0  0  0  0  0  0
  -29.4327  -20.5670   19.7262 O   0  0  0  0  0  0  0  0  0  0  0  0
  -28.7892  -26.9881   20.9470 O   0  0  0  0  0  0  0  0  0  1  0  0
  -30.2787  -25.2456   19.3322 O   0  0  0  0  0  0  0  0  0  0  0  0
  -19.9739   -3.3869   24.7310 F   0  0  0  0  0  0  0  0  0  0  0  0
  -21.1029   -6.1020   21.0217 F   0  0  0  0  0  0  0  0  0  0  0  0
  1  2  1  0  0  0  0
  1  6  2  0  0  0  0
  2  7  2  0  0  0  0
  3  9  2  0  0  0  0
  3 18  1  0  0  0  0
  4 10  1  0  0  0  0
  4 18  2  0  0  0  0
  5 11  2  0  0  0  0
  5 19  1  0  0  0  0
  6 21  1  0  0  0  0
  7 23  1  0  0  0  0
  8 12  2  0  0  0  0
  8 22  1  0  0  0  0
  9 25  1  0  0  0  0
 10 25  2  0  0  0  0
 11 27  1  0  0  0  0
 12 26  1  0  0  0  0
 13 14  2  0  0  0  0
 13 28  1  0  0  0  0
 14 30  1  0  0  0  0
 15 24  1  0  0  0  0
 15 26  2  0  0  0  0
 16 27  2  0  0  0  0
 16 29  1  0  0  0  0
 17 30  2  0  0  0  0
 17 31  1  0  0  0  0
 18 32  1  0  0  0  0
 19 29  2  0  0  0  0
 19 34  1  0  0  0  0
 20 32  1  0  0  0  0
 20 33  2  0  0  0  0
 20 35  1  0  0  0  0
 21 23  2  0  0  0  0
 21 40  1  0  0  0  0
 22 24  2  0  0  0  0
 22 41  1  0  0  0  0
 23 53  1  0  0  0  0
 24 42  1  0  0  0  0
 25 84  1  0  0  0  0
 26 86  1  0  0  0  0
 27 87  1  0  0  0  0
 28 31  2  0  0  0  0
 28 84  1  0  0  0  0
 29 85  1  0  0  0  0
 30 88  1  0  0  0  0
 31 89  1  0  0  0  0
 32 67  2  0  0  0  0
 33 68  1  0  0  0  0
 33 72  1  0  0  0  0
 34 73  1  0  0  0  0
 34 78  2  0  0  0  0
 35 74  1  0  0  0  0
 35 79  2  0  0  0  0
 36 54  1  0  0  0  0
 36 75  1  0  0  0  0
 36 80  2  0  0  0  0
 37 64  1  0  0  0  0
 37 69  1  0  0  0  0
 37 81  2  0  0  0  0
 38 65  1  0  0  0  0
 38 76  1  0  0  0  0
 38 82  2  0  0  0  0
 39 70  1  0  0  0  0
 39 71  1  0  0  0  0
 39 83  2  0  0  0  0
 40 43  1  0  0  0  0
 41 54  1  0  0  0  0
 42 69  1  0  0  0  0
 43 45  1  0  0  0  0
 44 46  1  0  0  0  0
 44 49  1  0  0  0  0
 45 53  1  0  0  0  0
 46 55  1  0  0  0  0
 47 50  1  0  0  0  0
 47 56  1  0  0  0  0
 48 51  1  0  0  0  0
 48 56  1  0  0  0  0
 49 70  1  0  0  0  0
 50 71  1  0  0  0  0
 51 71  1  0  0  0  0
 52 55  1  0  0  0  0
 52 70  1  0  0  0  0
 53 75  1  0  0  0  0
 54 69  1  0  0  0  0
 55 68  1  0  0  0  0
 56 85  1  0  0  0  0
 57 65  1  0  0  0  0
 58 66  1  0  0  0  0
 59 66  1  0  0  0  0
 60 66  1  0  0  0  0
 61 77  1  0  0  0  0
 62 63  1  0  0  0  0
 62 86  1  0  0  0  0
 63 87  1  0  0  0  0
 64 66  1  0  0  0  0
 64 76  1  0  0  0  0
 65 77  1  0  0  0  0
 67 68  1  0  0  0  0
M  CHG  1  77   1
M  ISO  4  39 100  62 101  71 100  86 101
M  END
> <Batch ID>
0150

> <Smiles>
CNC(C)C(=O)NC(C(=O)N1Cc2cc([101O:1][101CH2:1]COc3ccc(C(N)=O)c(OC4CC[100N:0]([100C:0](=O)N5CCCC(n6nc(-c7ccc(Oc8ccc(F)cc8F)cc7)c(C(N)=O)c6N)C5)CC4)c3)ccc2CC1C(=O)NC1CCCc2ccccc21)C(C)(C)C

> <Shape>
0.254

> <Color>
0.121

> <Negative vol penalty>
0.000

$$$$

  -OEChem-04052321413D

 85 94  0     1  0  0  0  0  0999 V2000
  -16.6836  -30.4723   23.5062 C   0  0  0  0  0  0  0  0  0  0  0  0
  -17.8774  -31.1759   23.6188 C   0  0  0  0  0  0  0  0  0  0  0  0
  -19.3445  -15.9149   21.9259 C   0  0  0  0  0  0  0  0  0  0  0  0
  -21.1674  -17.3831   22.5246 C   0  0  0  0  0  0  0  0  0  0  0  0
  -16.7072  -29.1072   23.2285 C   0  0  0  0  0  0  0  0  0  0  0  0
  -19.0947  -30.5173   23.4421 C   0  0  0  0  0  0  0  0  0  0  0  0
  -26.9144  -28.2544   21.6719 C   0  0  0  0  0  0  0  0  0  0  0  0
  -18.5572  -16.4842   22.9267 C   0  0  0  0  0  0  0  0  0  0  0  0
  -20.3801  -17.9525   23.5254 C   0  0  0  0  0  0  0  0  0  0  0  0
  -27.5115  -27.0977   21.1727 C   0  0  0  0  0  0  0  0  0  0  0  0
  -17.8881  -20.2249   23.7416 C   0  0  0  0  0  0  0  0  0  0  0  0
  -17.8892  -21.6153   23.8526 C   0  0  0  0  0  0  0  0  0  0  0  0
  -25.6767  -26.8234   19.6308 C   0  0  0  0  0  0  0  0  0  0  0  0
  -18.7299  -21.4344   26.1104 C   0  0  0  0  0  0  0  0  0  0  0  0
  -20.6496  -16.3643   21.7248 C   0  0  0  0  0  0  0  0  0  0  0  0
  -21.1952  -15.7499   19.3098 C   0  0  0  0  0  0  0  0  0  0  0  0
  -17.9262  -28.4297   23.0608 C   0  0  0  0  0  0  0  0  0  0  0  0
  -25.6866  -28.6991   21.1610 C   0  0  0  0  0  0  0  0  0  0  0  0
  -19.1387  -29.1447   23.1376 C   0  0  0  0  0  0  0  0  0  0  0  0
  -25.0674  -27.9875   20.1234 C   0  0  0  0  0  0  0  0  0  0  0  0
  -19.0750  -17.5030   23.7265 C   0  0  0  0  0  0  0  0  0  0  0  0
  -26.8912  -26.3804   20.1540 C   0  0  0  0  0  0  0  0  0  0  0  0
  -18.3079  -19.4392   24.8151 C   0  0  0  0  0  0  0  0  0  0  0  0
  -18.3101  -22.2201   25.0370 C   0  0  0  0  0  0  0  0  0  0  0  0
  -18.7288  -20.0440   25.9994 C   0  0  0  0  0  0  0  0  0  0  0  0
  -21.4635  -15.7762   20.6915 C   0  0  0  0  0  0  0  0  0  0  0  0
  -22.2643  -15.0815   18.7651 C   0  0  0  0  0  0  0  0  0  0  0  0
  -20.0794  -16.2821   18.5836 C   0  0  0  0  0  0  0  0  0  0  0  0
  -22.7827  -29.1478   22.3733 C   0  0  0  0  0  0  0  0  0  0  0  0
  -22.1769  -30.3977   19.4419 C   0  0  0  0  0  0  0  0  0  0  0  0
  -22.9749  -29.5879   16.0178 C   0  0  0  0  0  0  0  0  0  0  0  0
  -27.9173  -14.2765   20.5671 C   0  0  0  0  0  0  0  0  0  0  0  0
  -17.8934  -26.9532   22.7540 C   0  0  0  0  0  0  0  0  0  0  0  0
  -25.0687  -29.9635   21.6919 C   0  0  0  0  0  0  0  0  0  0  0  0
  -23.7587  -28.4339   19.5265 C   0  0  0  0  0  0  0  0  0  0  0  0
  -19.2253  -26.2604   23.0227 C   0  0  0  0  0  0  0  0  0  0  0  0
  -25.5271  -11.7453   19.8212 C   0  0  0  0  0  0  0  0  0  0  0  0
  -20.3575  -27.0401   22.3709 C   0  0  0  0  0  0  0  0  0  0  0  0
  -26.6520  -22.0790   21.5058 C   0  0  0  0  0  0  0  0  0  0  0  0
  -29.1369  -22.1645   21.0431 C   0  0  0  0  0  0  0  0  0  0  0  0
  -24.1904  -12.4890   19.8350 C   0  0  0  0  0  0  0  0  0  0  0  0
  -29.8605  -16.6959   21.5931 C   0  0  0  0  0  0  0  0  0  0  0  0
  -26.4489  -23.3056   20.6215 C   0  0  0  0  0  0  0  0  0  0  0  0
  -28.9270  -23.3913   20.1605 C   0  0  0  0  0  0  0  0  0  0  0  0
  -29.1195  -17.8259   22.3038 C   0  0  0  0  0  0  0  0  0  0  0  0
  -26.4826  -12.2822   20.8846 C   0  0  0  0  0  0  0  0  0  0  0  0
  -25.3727  -14.4824   20.8485 C   0  0  0  0  0  0  0  0  0  0  0  0
  -20.4755  -28.4432   22.9796 C   0  0  1  0  0  0  0  0  0  0  0  0
  -23.5642  -30.0403   21.4512 C   0  0  1  0  0  0  0  0  0  0  0  0
  -27.8875  -21.2736   21.0799 C   0  0  0  0  0  0  0  0  0  0  0  0
  -24.3961  -14.0137   19.7563 C   0  0  2  0  0  0  0  0  0  0  0  0
  -29.2186  -16.3649   20.2435 C   0  0  2  0  0  0  0  0  0  0  0  0
  -27.6944  -24.1871   20.5847 C   0  0  0  0  0  0  0  0  0  1  0  0
  -28.9339  -19.0218   21.3682 C   0  0  2  0  0  0  0  0  0  0  0  0
  -29.0223  -17.6504   19.4219 C   0  0  1  0  0  0  0  0  0  0  0  0
  -28.3014  -17.4109   18.0997 C   0  0  0  0  0  0  0  0  0  0  0  0
  -23.1820  -31.0628   13.9981 C   0  0  0  0  0  0  0  0  0  0  0  0
  -19.2550  -29.6611   18.9630 C   0  0  0  0  0  0  0  0  0  0  0  0
  -19.7527  -29.5686   16.5110 C   0  0  0  0  0  0  0  0  0  0  0  0
  -20.0248  -31.7124   17.7572 C   0  0  0  0  0  0  0  0  0  0  0  0
  -25.7161  -28.6260   15.4527 C   0  0  0  0  0  0  0  0  0  0  0  0
  -28.1019  -20.0822   22.0115 C   0  0  0  0  0  0  0  0  0  0  0  0
  -21.6898  -29.8455   18.1241 C   0  0  1  0  0  0  0  0  0  0  0  0
  -23.9297  -30.3368   15.1056 C   0  0  2  0  0  0  0  0  0  0  0  0
  -20.1952  -30.1808   17.8572 C   0  0  0  0  0  0  0  0  0  0  0  0
  -22.6129  -15.1724   21.0052 N   0  0  0  0  0  0  0  0  0  0  0  0
  -23.0762  -14.7603   19.8129 N   0  0  0  0  0  0  0  0  0  0  0  0
  -23.1911  -29.6729   20.0837 N   0  0  0  0  0  0  0  0  0  0  0  0
  -26.6355  -13.7332   20.7538 N   0  0  0  0  0  0  0  0  0  0  0  0
  -22.5797  -14.7430   17.4969 N   0  0  0  0  0  0  0  0  0  0  0  0
  -20.1578  -17.5984   18.1086 N   0  0  0  0  0  0  0  0  0  0  0  0
  -21.4138  -29.2191   22.1988 N   0  0  0  0  0  0  0  0  0  0  0  0
  -22.6061  -30.3491   17.1067 N   0  0  0  0  0  0  0  0  0  0  0  0
  -27.9726  -15.6597   20.4460 N   0  0  0  0  0  0  0  0  0  0  0  0
  -24.8959  -29.3911   14.4787 N   0  3  0  0  0  0  0  0  0  0  0  0
  -19.0369  -15.6159   18.3767 O   0  0  0  0  0  0  0  0  0  0  0  0
  -23.3776  -28.4453   23.1822 O   0  0  0  0  0  0  0  0  0  0  0  0
  -21.6810  -31.4379   19.8821 O   0  0  0  0  0  0  0  0  0  0  0  0
  -22.5914  -28.4435   15.7855 O   0  0  0  0  0  0  0  0  0  0  0  0
  -28.9363  -13.5801   20.5069 O   0  0  0  0  0  0  0  0  0  0  0  0
  -28.2714  -18.6169   20.1660 O   0  0  0  0  0  0  0  0  0  0  0  0
  -18.3070  -18.0589   24.7030 O   0  0  0  0  0  0  0  0  0  0  0  0
  -27.4715  -25.2506   19.6653 O   0  0  0  0  0  0  0  0  0  1  0  0
  -18.3126  -23.5553   25.1429 F   0  0  0  0  0  0  0  0  0  0  0  0
  -19.1343  -19.2944   27.0336 F   0  0  0  0  0  0  0  0  0  0  0  0
  1  2  1  0  0  0  0
  1  5  2  0  0  0  0
  2  6  2  0  0  0  0
  3  8  2  0  0  0  0
  3 15  1  0  0  0  0
  4  9  1  0  0  0  0
  4 15  2  0  0  0  0
  5 17  1  0  0  0  0
  6 19  1  0  0  0  0
  7 10  2  0  0  0  0
  7 18  1  0  0  0  0
  8 21  1  0  0  0  0
  9 21  2  0  0  0  0
 10 22  1  0  0  0  0
 11 12  2  0  0  0  0
 11 23  1  0  0  0  0
 12 24  1  0  0  0  0
 13 20  1  0  0  0  0
 13 22  2  0  0  0  0
 14 24  2  0  0  0  0
 14 25  1  0  0  0  0
 15 26  1  0  0  0  0
 16 26  1  0  0  0  0
 16 27  2  0  0  0  0
 16 28  1  0  0  0  0
 17 19  2  0  0  0  0
 17 33  1  0  0  0  0
 18 20  2  0  0  0  0
 18 34  1  0  0  0  0
 19 48  1  0  0  0  0
 20 35  1  0  0  0  0
 21 82  1  0  0  0  0
 22 83  1  0  0  0  0
 23 25  2  0  0  0  0
 23 82  1  0  0  0  0
 24 84  1  0  0  0  0
 25 85  1  0  0  0  0
 26 66  2  0  0  0  0
 27 67  1  0  0  0  0
 27 70  1  0  0  0  0
 28 71  1  0  0  0  0
 28 76  2  0  0  0  0
 29 49  1  0  0  0  0
 29 72  1  0  0  0  0
 29 77  2  0  0  0  0
 30 63  1  0  0  0  0
 30 68  1  0  0  0  0
 30 78  2  0  0  0  0
 31 64  1  0  0  0  0
 31 73  1  0  0  0  0
 31 79  2  0  0  0  0
 32 69  1  0  0  0  0
 32 74  1  0  0  0  0
 32 80  2  0  0  0  0
 33 36  1  0  0  0  0
 34 49  1  0  0  0  0
 35 68  1  0  0  0  0
 36 38  1  0  0  0  0
 37 41  1  0  0  0  0
 37 46  1  0  0  0  0
 38 48  1  0  0  0  0
 39 43  1  0  0  0  0
 39 50  1  0  0  0  0
 40 44  1  0  0  0  0
 40 50  1  0  0  0  0
 41 51  1  0  0  0  0
 42 45  1  0  0  0  0
 42 52  1  0  0  0  0
 43 53  1  0  0  0  0
 44 53  1  0  0  0  0
 45 54  1  0  0  0  0
 46 69  1  0  0  0  0
 47 51  1  0  0  0  0
 47 69  1  0  0  0  0
 48 72  1  0  0  0  0
 49 68  1  0  0  0  0
 50 62  1  0  0  0  0
 51 67  1  0  0  0  0
 52 55  1  0  0  0  0
 52 74  1  0  0  0  0
 53 83  1  0  0  0  0
 54 62  1  0  0  0  0
 54 81  1  0  0  0  0
 55 56  1  0  0  0  0
 55 81  1  0  0  0  0
 57 64  1  0  0  0  0
 58 65  1  0  0  0  0
 59 65  1  0  0  0  0
 60 65  1  0  0  0  0
 61 75  1  0  0  0  0
 63 65  1  0  0  0  0
 63 73  1  0  0  0  0
 64 75  1  0  0  0  0
 66 67  1  0  0  0  0
M  CHG  1  75   1
M  ISO  4  32 100  53 101  74 100  83 101
M  END
> <Batch ID>
0150

> <Smiles>
CNC(C)C(=O)NC(C(=O)N1Cc2cc([101O:1][101CH:1]3CCC(CC4CCC([100NH:0][100C:0](=O)N5CCCC(n6nc(-c7ccc(Oc8ccc(F)cc8F)cc7)c(C(N)=O)c6N)C5)C(C)O4)CC3)ccc2CC1C(=O)NC1CCCc2ccccc21)C(C)(C)C

> <Shape>
0.237

> <Color>
0.111

> <Negative vol penalty>
0.000

$$$$

  -OEChem-04052321413D

 86 95  0     1  0  0  0  0  0999 V2000
  -27.8046  -37.2426   21.8114 C   0  0  0  0  0  0  0  0  0  0  0  0
  -28.0962  -35.9692   22.2898 C   0  0  0  0  0  0  0  0  0  0  0  0
  -24.5967   -9.2625   21.4365 C   0  0  0  0  0  0  0  0  0  0  0  0
  -24.4037  -10.5295   23.4845 C   0  0  0  0  0  0  0  0  0  0  0  0
  -26.4775  -37.6461   21.6705 C   0  0  0  0  0  0  0  0  0  0  0  0
  -27.0608  -35.0989   22.6286 C   0  0  0  0  0  0  0  0  0  0  0  0
  -27.8145  -30.4077   20.8767 C   0  0  0  0  0  0  0  0  0  0  0  0
  -24.4167   -8.0787   22.1519 C   0  0  0  0  0  0  0  0  0  0  0  0
  -24.2236   -9.3457   24.1999 C   0  0  0  0  0  0  0  0  0  0  0  0
  -28.7111  -29.6025   21.5780 C   0  0  0  0  0  0  0  0  0  0  0  0
  -21.8433   -6.3529   23.5054 C   0  0  0  0  0  0  0  0  0  0  0  0
  -20.9646   -5.4054   22.9803 C   0  0  0  0  0  0  0  0  0  0  0  0
  -26.4634  -22.0571   21.7528 C   0  0  0  0  0  0  0  0  0  0  0  0
  -28.0091  -20.2777   21.2225 C   0  0  0  0  0  0  0  0  0  0  0  0
  -26.8613  -28.5012   22.6663 C   0  0  0  0  0  0  0  0  0  0  0  0
  -25.6282  -19.8891   21.0901 C   0  0  0  0  0  0  0  0  0  0  0  0
  -22.7659   -3.7995   22.8640 C   0  0  0  0  0  0  0  0  0  0  0  0
  -24.5903  -10.4879   22.1028 C   0  0  0  0  0  0  0  0  0  0  0  0
  -23.7777  -12.5098   20.7764 C   0  0  0  0  0  0  0  0  0  0  0  0
  -25.4252  -36.7768   21.9986 C   0  0  0  0  0  0  0  0  0  0  0  0
  -26.4327  -30.2728   21.0735 C   0  0  0  0  0  0  0  0  0  0  0  0
  -25.7183  -35.4916   22.4932 C   0  0  0  0  0  0  0  0  0  0  0  0
  -27.7722  -21.5935   21.6202 C   0  0  0  0  0  0  0  0  0  0  0  0
  -25.9493  -29.3041   21.9645 C   0  0  0  0  0  0  0  0  0  0  0  0
  -25.3914  -21.2049   21.4878 C   0  0  0  0  0  0  0  0  0  0  0  0
  -26.9371  -19.4255   20.9574 C   0  0  0  0  0  0  0  0  0  0  0  0
  -24.2301   -8.1202   23.5336 C   0  0  0  0  0  0  0  0  0  0  0  0
  -28.2346  -28.6511   22.4751 C   0  0  0  0  0  0  0  0  0  0  0  0
  -23.1833   -6.0237   23.7098 C   0  0  0  0  0  0  0  0  0  0  0  0
  -21.4259   -4.1287   22.6596 C   0  0  0  0  0  0  0  0  0  0  0  0
  -23.6445   -4.7470   23.3891 C   0  0  0  0  0  0  0  0  0  0  0  0
  -24.7767  -11.7111   21.3645 C   0  0  0  0  0  0  0  0  0  0  0  0
  -24.4649  -13.5494   20.1990 C   0  0  0  0  0  0  0  0  0  0  0  0
  -22.3557  -12.3282   20.7542 C   0  0  0  0  0  0  0  0  0  0  0  0
  -24.1222  -32.1780   22.1392 C   0  0  0  0  0  0  0  0  0  0  0  0
  -22.2128  -29.7092   21.2550 C   0  0  0  0  0  0  0  0  0  0  0  0
  -21.9001  -26.3695   20.6265 C   0  0  0  0  0  0  0  0  0  0  0  0
  -28.4144  -17.4704   20.3730 C   0  0  0  0  0  0  0  0  0  0  0  0
  -24.0069  -37.2745   21.8743 C   0  0  0  0  0  0  0  0  0  0  0  0
  -25.4778  -31.1307   20.2894 C   0  0  0  0  0  0  0  0  0  0  0  0
  -24.4744  -29.1057   22.1966 C   0  0  0  0  0  0  0  0  0  0  0  0
  -22.9653  -36.1588   21.9011 C   0  0  0  0  0  0  0  0  0  0  0  0
  -29.4256  -14.1913   19.4233 C   0  0  0  0  0  0  0  0  0  0  0  0
  -23.2576  -35.1829   23.0365 C   0  0  0  0  0  0  0  0  0  0  0  0
  -28.2241  -13.3194   19.7953 C   0  0  0  0  0  0  0  0  0  0  0  0
  -28.8923  -23.7106   20.9489 C   0  0  0  0  0  0  0  0  0  0  0  0
  -28.8771  -22.9770   23.3672 C   0  0  0  0  0  0  0  0  0  0  0  0
  -29.6470  -15.3136   20.4358 C   0  0  0  0  0  0  0  0  0  0  0  0
  -27.2682  -15.2776   21.0754 C   0  0  0  0  0  0  0  0  0  0  0  0
  -30.0031  -24.7032   21.2670 C   0  0  0  0  0  0  0  0  0  0  0  0
  -29.9884  -23.9750   23.6668 C   0  0  0  0  0  0  0  0  0  0  0  0
  -28.9209  -22.5067   21.9044 C   0  0  0  0  0  0  0  0  0  0  0  0
  -24.6225  -34.5100   22.8479 C   0  0  1  0  0  0  0  0  0  0  0  0
  -24.1089  -31.2589   20.9506 C   0  0  1  0  0  0  0  0  0  0  0  0
  -26.9660  -14.1726   20.0501 C   0  0  2  0  0  0  0  0  0  0  0  0
  -23.9920  -21.7009   21.6295 C   0  0  0  0  0  0  0  0  0  0  0  0
  -20.2080  -24.6405   19.9596 C   0  0  0  0  0  0  0  0  0  0  0  0
  -21.0527  -29.7598   24.0766 C   0  0  0  0  0  0  0  0  0  0  0  0
  -20.1067  -27.4807   23.6534 C   0  0  0  0  0  0  0  0  0  0  0  0
  -19.3671  -29.4143   22.2617 C   0  0  0  0  0  0  0  0  0  0  0  0
  -23.3929  -25.6910   18.1628 C   0  0  0  0  0  0  0  0  0  0  0  0
  -30.8868  -26.2148   23.0415 C   0  0  0  0  0  0  0  0  0  0  0  0
  -30.3777  -27.5449   22.5221 C   0  0  0  0  0  0  0  0  0  1  0  0
  -21.6882  -28.4671   21.9339 C   0  0  1  0  0  0  0  0  0  0  0  0
  -21.2661  -25.6171   19.4704 C   0  0  2  0  0  0  0  0  0  0  0  0
  -20.5816  -28.7853   22.9787 C   0  0  0  0  0  0  0  0  0  0  0  0
  -26.0051  -12.2012   21.1777 N   0  0  0  0  0  0  0  0  0  0  0  0
  -25.7825  -13.3190   20.4657 N   0  0  0  0  0  0  0  0  0  0  0  0
  -23.5810  -29.9730   21.4110 N   0  0  0  0  0  0  0  0  0  0  0  0
  -28.4142  -16.0818   20.6229 N   0  0  0  0  0  0  0  0  0  0  0  0
  -24.0647  -14.6290   19.4943 N   0  0  0  0  0  0  0  0  0  0  0  0
  -21.8152  -11.2060   21.3966 N   0  0  0  0  0  0  0  0  0  0  0  0
  -27.1776  -18.0889   20.5532 N   0  0  0  0  0  0  0  0  0  0  0  0
  -24.5371  -33.4642   21.8512 N   0  0  0  0  0  0  0  0  0  0  0  0
  -21.2620  -27.5679   20.8671 N   0  0  0  0  0  0  0  0  0  0  0  0
  -29.9039  -25.1518   22.7129 N   0  3  0  0  0  0  0  0  0  0  0  0
  -22.3017  -24.8513   18.7207 N   0  3  0  0  0  0  0  0  0  0  0  0
  -21.5883  -13.1286   20.1674 O   0  0  0  0  0  0  0  0  0  0  0  0
  -23.7799  -31.7522   23.2360 O   0  0  0  0  0  0  0  0  0  0  0  0
  -21.4387  -30.4154   20.6042 O   0  0  0  0  0  0  0  0  0  0  0  0
  -22.8625  -25.9356   21.2557 O   0  0  0  0  0  0  0  0  0  0  0  0
  -29.4300  -18.0623   19.9985 O   0  0  0  0  0  0  0  0  0  0  0  0
  -24.0542   -6.9653   24.2319 O   0  0  0  0  0  0  0  0  0  0  0  0
  -29.1075  -27.8643   23.1613 O   0  0  0  0  0  0  0  0  0  1  0  0
  -20.5816   -3.2184   22.1568 F   0  0  0  0  0  0  0  0  0  0  0  0
  -24.9305   -4.4245   23.5844 F   0  0  0  0  0  0  0  0  0  0  0  0
  1  2  1  0  0  0  0
  1  5  2  0  0  0  0
  2  6  2  0  0  0  0
  3  8  2  0  0  0  0
  3 18  1  0  0  0  0
  4  9  1  0  0  0  0
  4 18  2  0  0  0  0
  5 20  1  0  0  0  0
  6 22  1  0  0  0  0
  7 10  2  0  0  0  0
  7 21  1  0  0  0  0
  8 27  1  0  0  0  0
  9 27  2  0  0  0  0
 10 28  1  0  0  0  0
 11 12  2  0  0  0  0
 11 29  1  0  0  0  0
 12 30  1  0  0  0  0
 13 23  1  0  0  0  0
 13 25  2  0  0  0  0
 14 23  2  0  0  0  0
 14 26  1  0  0  0  0
 15 24  1  0  0  0  0
 15 28  2  0  0  0  0
 16 25  1  0  0  0  0
 16 26  2  0  0  0  0
 17 30  2  0  0  0  0
 17 31  1  0  0  0  0
 18 32  1  0  0  0  0
 19 32  1  0  0  0  0
 19 33  2  0  0  0  0
 19 34  1  0  0  0  0
 20 22  2  0  0  0  0
 20 39  1  0  0  0  0
 21 24  2  0  0  0  0
 21 40  1  0  0  0  0
 22 53  1  0  0  0  0
 23 52  1  0  0  0  0
 24 41  1  0  0  0  0
 25 56  1  0  0  0  0
 26 73  1  0  0  0  0
 27 83  1  0  0  0  0
 28 84  1  0  0  0  0
 29 31  2  0  0  0  0
 29 83  1  0  0  0  0
 30 85  1  0  0  0  0
 31 86  1  0  0  0  0
 32 67  2  0  0  0  0
 33 68  1  0  0  0  0
 33 71  1  0  0  0  0
 34 72  1  0  0  0  0
 34 78  2  0  0  0  0
 35 54  1  0  0  0  0
 35 74  1  0  0  0  0
 35 79  2  0  0  0  0
 36 64  1  0  0  0  0
 36 69  1  0  0  0  0
 36 80  2  0  0  0  0
 37 65  1  0  0  0  0
 37 75  1  0  0  0  0
 37 81  2  0  0  0  0
 38 70  1  0  0  0  0
 38 73  1  0  0  0  0
 38 82  2  0  0  0  0
 39 42  1  0  0  0  0
 40 54  1  0  0  0  0
 41 69  1  0  0  0  0
 42 44  1  0  0  0  0
 43 45  1  0  0  0  0
 43 48  1  0  0  0  0
 44 53  1  0  0  0  0
 45 55  1  0  0  0  0
 46 50  1  0  0  0  0
 46 52  1  0  0  0  0
 47 51  1  0  0  0  0
 47 52  1  0  0  0  0
 48 70  1  0  0  0  0
 49 55  1  0  0  0  0
 49 70  1  0  0  0  0
 50 76  1  0  0  0  0
 51 76  1  0  0  0  0
 53 74  1  0  0  0  0
 54 69  1  0  0  0  0
 55 68  1  0  0  0  0
 57 65  1  0  0  0  0
 58 66  1  0  0  0  0
 59 66  1  0  0  0  0
 60 66  1  0  0  0  0
 61 77  1  0  0  0  0
 62 63  1  0  0  0  0
 62 76  1  0  0  0  0
 63 84  1  0  0  0  0
 64 66  1  0  0  0  0
 64 75  1  0  0  0  0
 65 77  1  0  0  0  0
 67 68  1  0  0  0  0
M  CHG  2  76   1  77   1
M  ISO  4  38 100  63 101  73 100  84 101
M  END
> <Batch ID>
0150

> <Smiles>
CNC(C)C(=O)NC(C(=O)N1Cc2cc([101O:1][101CH2:1]CN3CCC(c4cc(C)cc([100NH:0][100C:0](=O)N5CCCC(n6nc(-c7ccc(Oc8ccc(F)cc8F)cc7)c(C(N)=O)c6N)C5)c4)CC3)ccc2CC1C(=O)NC1CCCc2ccccc21)C(C)(C)C

> <Shape>
0.279

> <Color>
0.076

> <Negative vol penalty>
0.000

$$$$

  -OEChem-04052321413D

 87 97  0     1  0  0  0  0  0999 V2000
  -29.0962  -26.1396   11.4854 C   0  0  0  0  0  0  0  0  0  0  0  0
  -28.6904  -25.2304   12.4571 C   0  0  0  0  0  0  0  0  0  0  0  0
  -23.2195   -9.7457   19.8120 C   0  0  0  0  0  0  0  0  0  0  0  0
  -23.9947   -9.6405   22.0978 C   0  0  0  0  0  0  0  0  0  0  0  0
  -29.5501  -27.4032   11.8609 C   0  0  0  0  0  0  0  0  0  0  0  0
  -28.7393  -25.5840   13.8050 C   0  0  0  0  0  0  0  0  0  0  0  0
  -30.5584  -19.4183   20.8670 C   0  0  0  0  0  0  0  0  0  0  0  0
  -24.8413  -23.8671   18.2053 C   0  0  0  0  0  0  0  0  0  0  0  0
  -30.7303  -18.0449   21.0025 C   0  0  0  0  0  0  0  0  0  0  0  0
  -22.5620   -8.5269   19.9789 C   0  0  0  0  0  0  0  0  0  0  0  0
  -23.3372   -8.4217   22.2647 C   0  0  0  0  0  0  0  0  0  0  0  0
  -24.9032  -22.8681   19.1759 C   0  0  0  0  0  0  0  0  0  0  0  0
  -20.1792   -7.3521   22.8155 C   0  0  0  0  0  0  0  0  0  0  0  0
  -19.4362   -7.1727   23.9822 C   0  0  0  0  0  0  0  0  0  0  0  0
  -25.7142  -24.4811   20.7758 C   0  0  0  0  0  0  0  0  0  0  0  0
  -20.8188   -5.2812   24.5719 C   0  0  0  0  0  0  0  0  0  0  0  0
  -23.9359  -10.3025   20.8715 C   0  0  0  0  0  0  0  0  0  0  0  0
  -24.0952  -12.8478   20.9355 C   0  0  0  0  0  0  0  0  0  0  0  0
  -29.5955  -27.7760   13.2136 C   0  0  0  0  0  0  0  0  0  0  0  0
  -25.2263  -25.1805   18.5103 C   0  0  0  0  0  0  0  0  0  0  0  0
  -29.6991  -20.0318   21.7649 C   0  0  0  0  0  0  0  0  0  0  0  0
  -29.1955  -26.8534   14.1991 C   0  0  0  0  0  0  0  0  0  0  0  0
  -25.6538  -25.4954   19.8081 C   0  0  0  0  0  0  0  0  0  0  0  0
  -29.2223  -19.3883   22.9137 C   0  0  0  0  0  0  0  0  0  0  0  0
  -28.9665  -18.0589   22.6660 C   0  0  0  0  0  0  0  0  0  0  0  0
  -29.8706  -17.3440   21.8575 C   0  0  0  0  0  0  0  0  0  0  0  0
  -22.6209   -7.8650   21.2052 C   0  0  0  0  0  0  0  0  0  0  0  0
  -25.3425  -23.1744   20.4605 C   0  0  0  0  0  0  0  0  0  0  0  0
  -21.2420   -6.4959   22.5269 C   0  0  0  0  0  0  0  0  0  0  0  0
  -19.7559   -6.1373   24.8605 C   0  0  0  0  0  0  0  0  0  0  0  0
  -21.5618   -5.4605   23.4051 C   0  0  0  0  0  0  0  0  0  0  0  0
  -24.6158  -11.5612   20.6995 C   0  0  0  0  0  0  0  0  0  0  0  0
  -25.1281  -13.6983   20.6252 C   0  0  0  0  0  0  0  0  0  0  0  0
  -22.7944  -13.2390   21.3942 C   0  0  0  0  0  0  0  0  0  0  0  0
  -27.4808  -27.1588   17.4578 C   0  0  0  0  0  0  0  0  0  0  0  0
  -25.9694  -29.2838   19.3871 C   0  0  0  0  0  0  0  0  0  0  0  0
  -23.9637  -29.8208   22.0955 C   0  0  0  0  0  0  0  0  0  0  0  0
  -30.5066  -15.1189   20.8621 C   0  0  0  0  0  0  0  0  0  0  0  0
  -30.1383  -29.1362   13.5739 C   0  0  0  0  0  0  0  0  0  0  0  0
  -25.1283  -26.2523   17.4595 C   0  0  0  0  0  0  0  0  0  0  0  0
  -27.4954  -17.6689   22.6074 C   0  0  0  0  0  0  0  0  0  0  0  0
  -26.0591  -26.8943   20.1919 C   0  0  0  0  0  0  0  0  0  0  0  0
  -28.7580  -21.1772   21.4654 C   0  0  0  0  0  0  0  0  0  0  0  0
  -29.8057  -29.5664   15.0003 C   0  0  0  0  0  0  0  0  0  0  0  0
  -26.7073  -18.6467   21.6664 C   0  0  0  0  0  0  0  0  0  0  0  0
  -29.5495  -12.8098   18.3265 C   0  0  0  0  0  0  0  0  0  0  0  0
  -30.0845  -28.4303   15.9792 C   0  0  0  0  0  0  0  0  0  0  0  0
  -28.1377  -12.3850   18.7373 C   0  0  0  0  0  0  0  0  0  0  0  0
  -30.4552  -13.0159   19.5394 C   0  0  0  0  0  0  0  0  0  0  0  0
  -28.5120  -13.4989   20.9747 C   0  0  0  0  0  0  0  0  0  0  0  0
  -29.2106  -27.2088   15.6700 C   0  0  1  0  0  0  0  0  0  0  0  0
  -26.0335  -27.4480   17.7393 C   0  0  1  0  0  0  0  0  0  0  0  0
  -27.5450  -13.3422   19.7898 C   0  0  2  0  0  0  0  0  0  0  0  0
  -26.4027  -20.1291   22.0829 C   0  0  2  0  0  0  0  0  0  0  0  0
  -28.3753  -20.3705   23.6958 C   0  0  2  0  0  0  0  0  0  0  0  0
  -29.2831  -21.4588   24.3446 C   0  0  0  0  0  0  0  0  0  0  0  0
  -28.2565  -19.2409   25.9226 C   0  0  0  0  0  0  0  0  0  0  0  0
  -22.9347  -31.6659   23.4498 C   0  0  0  0  0  0  0  0  0  0  0  0
  -28.6712  -29.8255   20.6974 C   0  0  0  0  0  0  0  0  0  0  0  0
  -27.4537  -30.9068   22.5992 C   0  0  0  0  0  0  0  0  0  0  0  0
  -27.2762  -31.8632   20.3021 C   0  0  0  0  0  0  0  0  0  0  0  0
  -21.2194  -28.8977   21.4823 C   0  0  0  0  0  0  0  0  0  0  0  0
  -25.6577  -20.8731   20.9710 C   0  0  0  0  0  0  0  0  0  1  0  0
  -27.4688  -19.9019   24.8439 C   0  0  0  0  0  0  0  0  0  0  0  0
  -26.0965  -29.6915   20.8351 C   0  0  1  0  0  0  0  0  0  0  0  0
  -22.7445  -30.7049   22.2866 C   0  0  2  0  0  0  0  0  0  0  0  0
  -27.3687  -30.5449   21.1010 C   0  0  0  0  0  0  0  0  0  0  0  0
  -25.8810  -11.5873   20.2722 N   0  0  0  0  0  0  0  0  0  0  0  0
  -26.1640  -12.9006   20.2371 N   0  0  0  0  0  0  0  0  0  0  0  0
  -25.9518  -27.9060   19.1278 N   0  0  0  0  0  0  0  0  0  0  0  0
  -29.8307  -13.9373   20.4912 N   0  0  0  0  0  0  0  0  0  0  0  0
  -25.2421  -15.0432   20.6492 N   0  0  0  0  0  0  0  0  0  0  0  0
  -21.8528  -12.2373   21.6667 N   0  0  0  0  0  0  0  0  0  0  0  0
  -29.8011  -15.9330   21.7476 N   0  0  0  0  0  0  0  0  0  0  0  0
  -27.8628  -27.4158   16.1549 N   0  0  0  0  0  0  0  0  0  0  0  0
  -24.8463  -30.3583   21.1827 N   0  0  0  0  0  0  0  0  0  0  0  0
  -27.6105  -20.9951   22.5304 N   0  3  1  0  0  0  0  0  0  0  0  0
  -21.5383  -29.8725   22.5570 N   0  3  0  0  0  0  0  0  0  0  0  0
  -22.4711  -14.4420   21.5419 O   0  0  0  0  0  0  0  0  0  0  0  0
  -28.1982  -26.7353   18.3565 O   0  0  0  0  0  0  0  0  0  0  0  0
  -25.8816  -30.1556   18.5189 O   0  0  0  0  0  0  0  0  0  0  0  0
  -24.1193  -28.7614   22.6987 O   0  0  0  0  0  0  0  0  0  0  0  0
  -31.6171  -15.4020   20.4052 O   0  0  0  0  0  0  0  0  0  0  0  0
  -21.9792   -6.6758   21.3685 O   0  0  0  0  0  0  0  0  0  0  0  0
  -25.4051  -22.1921   21.4182 O   0  0  0  0  0  0  0  0  0  1  0  0
  -19.0433   -5.9662   25.9816 F   0  0  0  0  0  0  0  0  0  0  0  0
  -22.5824   -4.6356   23.1338 F   0  0  0  0  0  0  0  0  0  0  0  0
  1  2  1  0  0  0  0
  1  5  2  0  0  0  0
  2  6  2  0  0  0  0
  3 10  2  0  0  0  0
  3 17  1  0  0  0  0
  4 11  1  0  0  0  0
  4 17  2  0  0  0  0
  5 19  1  0  0  0  0
  6 22  1  0  0  0  0
  7  9  1  0  0  0  0
  7 21  2  0  0  0  0
  8 12  2  0  0  0  0
  8 20  1  0  0  0  0
  9 26  2  0  0  0  0
 10 27  1  0  0  0  0
 11 27  2  0  0  0  0
 12 28  1  0  0  0  0
 13 14  2  0  0  0  0
 13 29  1  0  0  0  0
 14 30  1  0  0  0  0
 15 23  1  0  0  0  0
 15 28  2  0  0  0  0
 16 30  2  0  0  0  0
 16 31  1  0  0  0  0
 17 32  1  0  0  0  0
 18 32  1  0  0  0  0
 18 33  2  0  0  0  0
 18 34  1  0  0  0  0
 19 22  2  0  0  0  0
 19 39  1  0  0  0  0
 20 23  2  0  0  0  0
 20 40  1  0  0  0  0
 21 24  1  0  0  0  0
 21 43  1  0  0  0  0
 22 51  1  0  0  0  0
 23 42  1  0  0  0  0
 24 25  2  0  0  0  0
 24 55  1  0  0  0  0
 25 26  1  0  0  0  0
 25 41  1  0  0  0  0
 26 74  1  0  0  0  0
 27 84  1  0  0  0  0
 28 85  1  0  0  0  0
 29 31  2  0  0  0  0
 29 84  1  0  0  0  0
 30 86  1  0  0  0  0
 31 87  1  0  0  0  0
 32 68  2  0  0  0  0
 33 69  1  0  0  0  0
 33 72  1  0  0  0  0
 34 73  1  0  0  0  0
 34 79  2  0  0  0  0
 35 52  1  0  0  0  0
 35 75  1  0  0  0  0
 35 80  2  0  0  0  0
 36 65  1  0  0  0  0
 36 70  1  0  0  0  0
 36 81  2  0  0  0  0
 37 66  1  0  0  0  0
 37 76  1  0  0  0  0
 37 82  2  0  0  0  0
 38 71  1  0  0  0  0
 38 74  1  0  0  0  0
 38 83  2  0  0  0  0
 39 44  1  0  0  0  0
 40 52  1  0  0  0  0
 41 45  1  0  0  0  0
 42 70  1  0  0  0  0
 43 77  1  0  0  0  0
 44 47  1  0  0  0  0
 45 54  1  0  0  0  0
 46 48  1  0  0  0  0
 46 49  1  0  0  0  0
 47 51  1  0  0  0  0
 48 53  1  0  0  0  0
 49 71  1  0  0  0  0
 50 53  1  0  0  0  0
 50 71  1  0  0  0  0
 51 75  1  0  0  0  0
 52 70  1  0  0  0  0
 53 69  1  0  0  0  0
 54 63  1  0  0  0  0
 54 77  1  0  0  0  0
 55 56  1  0  0  0  0
 55 64  1  0  0  0  0
 55 77  1  0  0  0  0
 57 64  1  0  0  0  0
 58 66  1  0  0  0  0
 59 67  1  0  0  0  0
 60 67  1  0  0  0  0
 61 67  1  0  0  0  0
 62 78  1  0  0  0  0
 63 85  1  0  0  0  0
 65 67  1  0  0  0  0
 65 76  1  0  0  0  0
 66 78  1  0  0  0  0
 68 69  1  0  0  0  0
M  CHG  2  77   1  78   1
M  ISO  4  38 100  63 101  74 100  85 101
M  END
> <Batch ID>
0150

> <Smiles>
CCC1(C)c2c3ccc([100NH:0][100C:0](=O)N4CCCC(n5nc(-c6ccc(Oc7ccc(F)cc7F)cc6)c(C(N)=O)c5N)C4)c2CCC([101CH2:1][101O:1]c2ccc4c(c2)CN(C(=O)C(NC(=O)C(C)NC)C(C)(C)C)C(C(=O)NC2CCCc5ccccc52)C4)N1C3

> <Shape>
0.281

> <Color>
0.183

> <Negative vol penalty>
0.000

$$$$

  -OEChem-04052321413D

 91101  0     1  0  0  0  0  0999 V2000
  -15.9361  -27.2504   24.1564 C   0  0  0  0  0  0  0  0  0  0  0  0
  -16.7933  -26.6795   25.0917 C   0  0  0  0  0  0  0  0  0  0  0  0
  -23.1519   -9.8349   21.5795 C   0  0  0  0  0  0  0  0  0  0  0  0
  -23.7357  -10.9845   23.6227 C   0  0  0  0  0  0  0  0  0  0  0  0
  -16.4576  -27.8686   23.0207 C   0  0  0  0  0  0  0  0  0  0  0  0
  -18.1724  -26.7255   24.8912 C   0  0  0  0  0  0  0  0  0  0  0  0
  -22.5010  -27.2711   29.1891 C   0  0  0  0  0  0  0  0  0  0  0  0
  -22.4089   -8.9095   22.3125 C   0  0  0  0  0  0  0  0  0  0  0  0
  -22.9926  -10.0591   24.3557 C   0  0  0  0  0  0  0  0  0  0  0  0
  -23.3187  -26.3351   29.8209 C   0  0  0  0  0  0  0  0  0  0  0  0
  -23.0080   -6.1757   24.2075 C   0  0  0  0  0  0  0  0  0  0  0  0
  -23.1615   -4.8259   23.8909 C   0  0  0  0  0  0  0  0  0  0  0  0
  -29.3419  -19.4138   25.5766 C   0  0  0  0  0  0  0  0  0  0  0  0
  -30.6055  -20.7925   24.0472 C   0  0  0  0  0  0  0  0  0  0  0  0
  -25.0795  -26.8180   28.2443 C   0  0  0  0  0  0  0  0  0  0  0  0
  -20.8082   -4.6822   23.3631 C   0  0  0  0  0  0  0  0  0  0  0  0
  -23.8153  -10.8724   22.2347 C   0  0  0  0  0  0  0  0  0  0  0  0
  -24.1268  -13.0404   20.9269 C   0  0  0  0  0  0  0  0  0  0  0  0
  -17.8442  -27.9308   22.8110 C   0  0  0  0  0  0  0  0  0  0  0  0
  -22.9634  -27.9808   28.0715 C   0  0  0  0  0  0  0  0  0  0  0  0
  -18.7129  -27.3440   23.7510 C   0  0  0  0  0  0  0  0  0  0  0  0
  -29.7833  -20.6721   25.1675 C   0  0  0  0  0  0  0  0  0  0  0  0
  -24.2666  -27.7643   27.6017 C   0  0  0  0  0  0  0  0  0  0  0  0
  -30.5450  -18.3963   23.7451 C   0  0  0  0  0  0  0  0  0  0  0  0
  -29.7228  -18.2758   24.8655 C   0  0  0  0  0  0  0  0  0  0  0  0
  -30.9864  -19.6546   23.3360 C   0  0  0  0  0  0  0  0  0  0  0  0
  -22.3292   -9.0217   23.7005 C   0  0  0  0  0  0  0  0  0  0  0  0
  -24.6071  -26.1064   29.3468 C   0  0  0  0  0  0  0  0  0  0  0  0
  -21.7546   -6.7787   24.1021 C   0  0  0  0  0  0  0  0  0  0  0  0
  -22.0616   -4.0792   23.4687 C   0  0  0  0  0  0  0  0  0  0  0  0
  -20.6547   -6.0320   23.6798 C   0  0  0  0  0  0  0  0  0  0  0  0
  -24.5835  -11.8283   21.4782 C   0  0  0  0  0  0  0  0  0  0  0  0
  -25.2317  -13.5755   20.3111 C   0  0  0  0  0  0  0  0  0  0  0  0
  -22.8205  -13.6300   20.9679 C   0  0  0  0  0  0  0  0  0  0  0  0
  -22.0723  -28.2016   25.0284 C   0  0  0  0  0  0  0  0  0  0  0  0
  -24.3584  -30.5009   24.9313 C   0  0  0  0  0  0  0  0  0  0  0  0
  -27.2219  -31.7973   26.2604 C   0  0  0  0  0  0  0  0  0  0  0  0
  -30.7382  -14.7964   20.5257 C   0  0  0  0  0  0  0  0  0  0  0  0
  -18.3591  -28.5681   21.5448 C   0  0  0  0  0  0  0  0  0  0  0  0
  -22.0785  -29.0063   27.4176 C   0  0  0  0  0  0  0  0  0  0  0  0
  -24.8178  -28.5148   26.4179 C   0  0  0  0  0  0  0  0  0  0  0  0
  -19.8476  -28.9033   21.5933 C   0  0  0  0  0  0  0  0  0  0  0  0
  -29.7369  -11.5771   19.2742 C   0  0  0  0  0  0  0  0  0  0  0  0
  -20.6426  -27.7245   22.1456 C   0  0  0  0  0  0  0  0  0  0  0  0
  -28.2909  -11.4264   19.7348 C   0  0  0  0  0  0  0  0  0  0  0  0
  -27.8465  -22.0468   25.9064 C   0  0  0  0  0  0  0  0  0  0  0  0
  -29.8875  -21.8088   27.3775 C   0  0  0  0  0  0  0  0  0  0  0  0
  -30.5576  -12.3459   20.3011 C   0  0  0  0  0  0  0  0  0  0  0  0
  -29.9500  -15.9631   22.7342 C   0  0  0  0  0  0  0  0  0  0  0  0
  -31.0596  -17.1750   21.3950 C   0  0  0  0  0  0  0  0  0  0  0  0
  -28.5470  -13.5925   21.0477 C   0  0  0  0  0  0  0  0  0  0  0  0
  -27.3925  -23.2347   26.7451 C   0  0  0  0  0  0  0  0  0  0  0  0
  -29.4180  -22.9987   28.2048 C   0  0  0  0  0  0  0  0  0  0  0  0
  -29.3766  -21.8883   25.9287 C   0  0  0  0  0  0  0  0  0  0  0  0
  -30.9777  -17.1028   22.9372 C   0  0  0  0  0  0  0  0  0  0  0  0
  -20.2158  -27.3954   23.5812 C   0  0  1  0  0  0  0  0  0  0  0  0
  -22.4709  -29.3001   25.9729 C   0  0  1  0  0  0  0  0  0  0  0  0
  -27.6812  -12.8003   20.0481 C   0  0  2  0  0  0  0  0  0  0  0  0
  -29.2386  -16.9388   25.3212 C   0  0  0  0  0  0  0  0  0  0  0  0
  -31.8678  -19.8075   22.1404 C   0  0  0  0  0  0  0  0  0  0  0  0
  -28.8738  -33.6595   25.9430 C   0  0  0  0  0  0  0  0  0  0  0  0
  -25.3407  -22.7892   29.7453 C   0  0  0  0  0  0  0  0  0  0  0  0
  -25.5795  -29.0110   22.5651 C   0  0  0  0  0  0  0  0  0  0  0  0
  -27.6773  -30.3350   22.9036 C   0  0  0  0  0  0  0  0  0  0  0  0
  -25.5485  -31.5004   22.3269 C   0  0  0  0  0  0  0  0  0  0  0  0
  -26.6394  -32.9255   28.9337 C   0  0  0  0  0  0  0  0  0  0  0  0
  -27.3860  -24.1636   29.0585 C   0  0  0  0  0  0  0  0  0  0  0  0
  -25.8396  -30.5242   24.6408 C   0  0  1  0  0  0  0  0  0  0  0  0
  -27.6009  -33.2156   26.6468 C   0  0  2  0  0  0  0  0  0  0  0  0
  -25.8662  -24.0968   29.1675 C   0  0  2  0  0  0  0  0  0  1  0  0
  -26.1505  -30.3269   23.1302 C   0  0  0  0  0  0  0  0  0  0  0  0
  -25.8777  -11.6061   21.2340 N   0  0  0  0  0  0  0  0  0  0  0  0
  -26.2437  -12.6858   20.5224 N   0  0  0  0  0  0  0  0  0  0  0  0
  -23.9118  -29.5025   25.8086 N   0  0  0  0  0  0  0  0  0  0  0  0
  -29.9554  -13.6413   20.6310 N   0  0  0  0  0  0  0  0  0  0  0  0
  -30.4833  -15.8361   21.3885 N   0  0  0  0  0  0  0  0  0  0  0  0
  -25.4268  -14.7155   19.6148 N   0  0  0  0  0  0  0  0  0  0  0  0
  -21.7999  -12.9468   21.6431 N   0  0  0  0  0  0  0  0  0  0  0  0
  -20.7985  -28.3393   24.5107 N   0  0  0  0  0  0  0  0  0  0  0  0
  -26.3449  -31.7749   25.1965 N   0  0  0  0  0  0  0  0  0  0  0  0
  -27.9113  -23.0821   28.1548 N   0  3  0  0  0  0  0  0  0  0  0  0
  -27.8196  -33.3107   28.1179 N   0  3  0  0  0  0  0  0  0  0  0  0
  -22.5618  -14.7223   20.4079 O   0  0  0  0  0  0  0  0  0  0  0  0
  -22.8625  -27.2968   24.7860 O   0  0  0  0  0  0  0  0  0  0  0  0
  -23.6256  -31.3421   24.4049 O   0  0  0  0  0  0  0  0  0  0  0  0
  -27.6628  -30.8082   26.8415 O   0  0  0  0  0  0  0  0  0  0  0  0
  -31.6602  -14.8879   19.7042 O   0  0  0  0  0  0  0  0  0  0  0  0
  -21.6041   -8.1190   24.4160 O   0  0  0  0  0  0  0  0  0  0  0  0
  -25.4117  -25.1877   29.9649 O   0  0  0  0  0  0  0  0  0  1  0  0
  -22.2094   -2.7835   23.1632 F   0  0  0  0  0  0  0  0  0  0  0  0
  -19.4484   -6.6061   23.5754 F   0  0  0  0  0  0  0  0  0  0  0  0
  1  2  1  0  0  0  0
  1  5  2  0  0  0  0
  2  6  2  0  0  0  0
  3  8  2  0  0  0  0
  3 17  1  0  0  0  0
  4  9  1  0  0  0  0
  4 17  2  0  0  0  0
  5 19  1  0  0  0  0
  6 21  1  0  0  0  0
  7 10  2  0  0  0  0
  7 20  1  0  0  0  0
  8 27  1  0  0  0  0
  9 27  2  0  0  0  0
 10 28  1  0  0  0  0
 11 12  2  0  0  0  0
 11 29  1  0  0  0  0
 12 30  1  0  0  0  0
 13 22  1  0  0  0  0
 13 25  2  0  0  0  0
 14 22  2  0  0  0  0
 14 26  1  0  0  0  0
 15 23  1  0  0  0  0
 15 28  2  0  0  0  0
 16 30  2  0  0  0  0
 16 31  1  0  0  0  0
 17 32  1  0  0  0  0
 18 32  1  0  0  0  0
 18 33  2  0  0  0  0
 18 34  1  0  0  0  0
 19 21  2  0  0  0  0
 19 39  1  0  0  0  0
 20 23  2  0  0  0  0
 20 40  1  0  0  0  0
 21 56  1  0  0  0  0
 22 54  1  0  0  0  0
 23 41  1  0  0  0  0
 24 25  1  0  0  0  0
 24 26  2  0  0  0  0
 24 55  1  0  0  0  0
 25 59  1  0  0  0  0
 26 60  1  0  0  0  0
 27 88  1  0  0  0  0
 28 89  1  0  0  0  0
 29 31  2  0  0  0  0
 29 88  1  0  0  0  0
 30 90  1  0  0  0  0
 31 91  1  0  0  0  0
 32 72  2  0  0  0  0
 33 73  1  0  0  0  0
 33 77  1  0  0  0  0
 34 78  1  0  0  0  0
 34 83  2  0  0  0  0
 35 57  1  0  0  0  0
 35 79  1  0  0  0  0
 35 84  2  0  0  0  0
 36 68  1  0  0  0  0
 36 74  1  0  0  0  0
 36 85  2  0  0  0  0
 37 69  1  0  0  0  0
 37 80  1  0  0  0  0
 37 86  2  0  0  0  0
 38 75  1  0  0  0  0
 38 76  1  0  0  0  0
 38 87  2  0  0  0  0
 39 42  1  0  0  0  0
 40 57  1  0  0  0  0
 41 74  1  0  0  0  0
 42 44  1  0  0  0  0
 43 45  1  0  0  0  0
 43 48  1  0  0  0  0
 44 56  1  0  0  0  0
 45 58  1  0  0  0  0
 46 52  1  0  0  0  0
 46 54  1  0  0  0  0
 47 53  1  0  0  0  0
 47 54  1  0  0  0  0
 48 75  1  0  0  0  0
 49 55  1  0  0  0  0
 49 76  1  0  0  0  0
 50 55  1  0  0  0  0
 50 76  1  0  0  0  0
 51 58  1  0  0  0  0
 51 75  1  0  0  0  0
 52 81  1  0  0  0  0
 53 81  1  0  0  0  0
 56 79  1  0  0  0  0
 57 74  1  0  0  0  0
 58 73  1  0  0  0  0
 61 69  1  0  0  0  0
 62 70  1  0  0  0  0
 63 71  1  0  0  0  0
 64 71  1  0  0  0  0
 65 71  1  0  0  0  0
 66 82  1  0  0  0  0
 67 70  1  0  0  0  0
 67 81  1  0  0  0  0
 68 71  1  0  0  0  0
 68 80  1  0  0  0  0
 69 82  1  0  0  0  0
 70 89  1  0  0  0  0
 72 73  1  0  0  0  0
M  CHG  2  81   1  82   1
M  ISO  4  38 100  70 101  76 100  89 101
M  END
> <Batch ID>
0150

> <Smiles>
CNC(C)C(=O)NC(C(=O)N1Cc2cc([101O:1][101CH:1](C)CN3CCC(c4cc(C)c(C5C[100N:0]([100C:0](=O)N6CCCC(n7nc(-c8ccc(Oc9ccc(F)cc9F)cc8)c(C(N)=O)c7N)C6)C5)c(C)c4)CC3)ccc2CC1C(=O)NC1CCCc2ccccc21)C(C)(C)C

> <Shape>
0.261

> <Color>
0.159

> <Negative vol penalty>
0.000

$$$$

  -OEChem-04052321413D

 91101  0     1  0  0  0  0  0999 V2000
  -17.1930  -30.2774   24.1104 C   0  0  0  0  0  0  0  0  0  0  0  0
  -18.0239  -29.6662   25.0439 C   0  0  0  0  0  0  0  0  0  0  0  0
  -22.9393  -15.5670   21.5405 C   0  0  0  0  0  0  0  0  0  0  0  0
  -23.3439  -15.5537   19.1586 C   0  0  0  0  0  0  0  0  0  0  0  0
  -17.2905  -29.9350   22.7623 C   0  0  0  0  0  0  0  0  0  0  0  0
  -18.9521  -28.7115   24.6301 C   0  0  0  0  0  0  0  0  0  0  0  0
  -25.4828  -26.2245   26.2050 C   0  0  0  0  0  0  0  0  0  0  0  0
  -36.0100  -19.5968   22.6401 C   0  0  0  0  0  0  0  0  0  0  0  0
  -34.8056  -20.0478   23.1800 C   0  0  0  0  0  0  0  0  0  0  0  0
  -22.0502  -16.6302   21.3835 C   0  0  0  0  0  0  0  0  0  0  0  0
  -22.4547  -16.6169   19.0017 C   0  0  0  0  0  0  0  0  0  0  0  0
  -26.1428  -25.0266   26.4759 C   0  0  0  0  0  0  0  0  0  0  0  0
  -18.8511  -17.0752   20.3832 C   0  0  0  0  0  0  0  0  0  0  0  0
  -17.6340  -17.0079   21.0611 C   0  0  0  0  0  0  0  0  0  0  0  0
  -35.0292  -17.4200   22.2704 C   0  0  0  0  0  0  0  0  0  0  0  0
  -26.2766  -24.5723   24.1106 C   0  0  0  0  0  0  0  0  0  0  0  0
  -18.1795  -19.0435   22.2427 C   0  0  0  0  0  0  0  0  0  0  0  0
  -23.5862  -15.0288   20.4280 C   0  0  0  0  0  0  0  0  0  0  0  0
  -24.2230  -12.6568   21.1176 C   0  0  0  0  0  0  0  0  0  0  0  0
  -18.2270  -28.9827   22.3305 C   0  0  0  0  0  0  0  0  0  0  0  0
  -25.2047  -26.6006   24.8830 C   0  0  0  0  0  0  0  0  0  0  0  0
  -19.0613  -28.3551   23.2752 C   0  0  0  0  0  0  0  0  0  0  0  0
  -33.8247  -17.8710   22.8103 C   0  0  0  0  0  0  0  0  0  0  0  0
  -25.6153  -25.7767   23.8254 C   0  0  0  0  0  0  0  0  0  0  0  0
  -36.1218  -18.2829   22.1852 C   0  0  0  0  0  0  0  0  0  0  0  0
  -33.7129  -19.1849   23.2651 C   0  0  0  0  0  0  0  0  0  0  0  0
  -21.8079  -17.1552   20.1141 C   0  0  0  0  0  0  0  0  0  0  0  0
  -26.5372  -24.1989   25.4288 C   0  0  0  0  0  0  0  0  0  0  0  0
  -19.7325  -18.1267   20.6350 C   0  0  0  0  0  0  0  0  0  0  0  0
  -17.2981  -17.9920   21.9909 C   0  0  0  0  0  0  0  0  0  0  0  0
  -19.3967  -19.1108   21.5648 C   0  0  0  0  0  0  0  0  0  0  0  0
  -24.5052  -13.9309   20.5895 C   0  0  0  0  0  0  0  0  0  0  0  0
  -25.4202  -11.9865   21.0554 C   0  0  0  0  0  0  0  0  0  0  0  0
  -22.9890  -12.1265   21.6194 C   0  0  0  0  0  0  0  0  0  0  0  0
  -22.5535  -27.1493   23.2175 C   0  0  0  0  0  0  0  0  0  0  0  0
  -24.6519  -28.0735   20.9228 C   0  0  0  0  0  0  0  0  0  0  0  0
  -27.8036  -27.8743   19.6290 C   0  0  0  0  0  0  0  0  0  0  0  0
  -31.0582  -13.6169   21.0380 C   0  0  0  0  0  0  0  0  0  0  0  0
  -18.2631  -28.6107   20.8693 C   0  0  0  0  0  0  0  0  0  0  0  0
  -24.5158  -27.9088   24.6063 C   0  0  0  0  0  0  0  0  0  0  0  0
  -25.3586  -26.1447   22.3876 C   0  0  0  0  0  0  0  0  0  0  0  0
  -19.5301  -27.8628   20.4622 C   0  0  0  0  0  0  0  0  0  0  0  0
  -29.4877  -11.7917   18.5580 C   0  0  0  0  0  0  0  0  0  0  0  0
  -19.8417  -26.7558   21.4644 C   0  0  0  0  0  0  0  0  0  0  0  0
  -30.8946  -22.4291   25.7787 C   0  0  0  0  0  0  0  0  0  0  0  0
  -29.9262  -21.3917   23.6855 C   0  0  0  0  0  0  0  0  0  0  0  0
  -28.0000  -12.0000   18.8403 C   0  0  0  0  0  0  0  0  0  0  0  0
  -29.4838  -22.7038   26.2907 C   0  0  0  0  0  0  0  0  0  0  0  0
  -28.5181  -21.6698   24.2030 C   0  0  0  0  0  0  0  0  0  0  0  0
  -31.7450  -17.0036   21.6509 C   0  0  0  0  0  0  0  0  0  0  0  0
  -33.1104  -15.4593   23.1207 C   0  0  0  0  0  0  0  0  0  0  0  0
  -30.2667  -13.0874   18.7524 C   0  0  0  0  0  0  0  0  0  0  0  0
  -30.5826  -16.0094   21.7238 C   0  0  0  0  0  0  0  0  0  0  0  0
  -31.9112  -14.5175   23.1804 C   0  0  0  0  0  0  0  0  0  0  0  0
  -28.6196  -13.9068   20.4058 C   0  0  0  0  0  0  0  0  0  0  0  0
  -32.6527  -16.9110   22.8906 C   0  0  0  0  0  0  0  0  0  0  0  0
  -20.0978  -27.3328   22.8619 C   0  0  1  0  0  0  0  0  0  0  0  0
  -23.8275  -27.9454   23.2453 C   0  0  1  0  0  0  0  0  0  0  0  0
  -30.9277  -21.2183   24.8358 C   0  0  0  0  0  0  0  0  0  0  0  0
  -27.7830  -12.6231   20.2307 C   0  0  1  0  0  0  0  0  0  0  0  0
  -28.4903  -22.8722   25.1443 C   0  0  0  0  0  0  0  0  0  1  0  0
  -37.4098  -17.8011   21.6080 C   0  0  0  0  0  0  0  0  0  0  0  0
  -29.2084  -28.7126   17.7261 C   0  0  0  0  0  0  0  0  0  0  0  0
  -23.2529  -26.1264   19.0356 C   0  0  0  0  0  0  0  0  0  0  0  0
  -25.2302  -26.2942   17.5090 C   0  0  0  0  0  0  0  0  0  0  0  0
  -23.8637  -28.3215   18.0047 C   0  0  0  0  0  0  0  0  0  0  0  0
  -29.7040  -29.2058   21.4660 C   0  0  0  0  0  0  0  0  0  0  0  0
  -32.3383  -20.9955   24.2936 C   0  0  0  0  0  0  0  0  0  0  0  0
  -25.3784  -27.3792   19.7963 C   0  0  1  0  0  0  0  0  0  0  0  0
  -28.7710  -28.9476   19.1635 C   0  0  2  0  0  0  0  0  0  0  0  0
  -24.4346  -27.0222   18.6135 C   0  0  0  0  0  0  0  0  0  0  0  0
  -25.7815  -14.0645   20.2193 N   0  0  0  0  0  0  0  0  0  0  0  0
  -26.3121  -12.8657   20.5152 N   0  0  0  0  0  0  0  0  0  0  0  0
  -24.6762  -27.4307   22.1687 N   0  0  0  0  0  0  0  0  0  0  0  0
  -30.0315  -13.6493   20.0824 N   0  0  0  0  0  0  0  0  0  0  0  0
  -31.0772  -14.6508   21.9862 N   0  0  0  0  0  0  0  0  0  0  0  0
  -25.7866  -10.7367   21.4107 N   0  0  0  0  0  0  0  0  0  0  0  0
  -22.1290  -11.4749   20.7249 N   0  0  0  0  0  0  0  0  0  0  0  0
  -32.5015  -19.6588   23.8147 N   0  0  0  0  0  0  0  0  0  0  0  0
  -21.4272  -27.8997   22.9388 N   0  0  0  0  0  0  0  0  0  0  0  0
  -26.4914  -28.2489   19.4311 N   0  0  0  0  0  0  0  0  0  0  0  0
  -29.9849  -28.9609   20.0279 N   0  3  0  0  0  0  0  0  0  0  0  0
  -22.6513  -12.2420   22.8220 O   0  0  0  0  0  0  0  0  0  0  0  0
  -22.5900  -25.9432   23.4315 O   0  0  0  0  0  0  0  0  0  0  0  0
  -24.0896  -29.1501   20.7072 O   0  0  0  0  0  0  0  0  0  0  0  0
  -28.1748  -26.8086   20.1158 O   0  0  0  0  0  0  0  0  0  0  0  0
  -31.9077  -12.7172   21.0448 O   0  0  0  0  0  0  0  0  0  0  0  0
  -20.9402  -18.1925   19.9606 O   0  0  0  0  0  0  0  0  0  0  0  0
  -27.1851  -23.0212   25.6922 O   0  0  0  0  0  0  0  0  0  1  0  0
  -16.1286  -17.9281   22.6407 F   0  0  0  0  0  0  0  0  0  0  0  0
  -20.2388  -20.1239   21.8101 F   0  0  0  0  0  0  0  0  0  0  0  0
  1  2  1  0  0  0  0
  1  5  2  0  0  0  0
  2  6  2  0  0  0  0
  3 10  2  0  0  0  0
  3 18  1  0  0  0  0
  4 11  1  0  0  0  0
  4 18  2  0  0  0  0
  5 20  1  0  0  0  0
  6 22  1  0  0  0  0
  7 12  2  0  0  0  0
  7 21  1  0  0  0  0
  8  9  2  0  0  0  0
  8 25  1  0  0  0  0
  9 26  1  0  0  0  0
 10 27  1  0  0  0  0
 11 27  2  0  0  0  0
 12 28  1  0  0  0  0
 13 14  2  0  0  0  0
 13 29  1  0  0  0  0
 14 30  1  0  0  0  0
 15 23  1  0  0  0  0
 15 25  2  0  0  0  0
 16 24  1  0  0  0  0
 16 28  2  0  0  0  0
 17 30  2  0  0  0  0
 17 31  1  0  0  0  0
 18 32  1  0  0  0  0
 19 32  1  0  0  0  0
 19 33  2  0  0  0  0
 19 34  1  0  0  0  0
 20 22  2  0  0  0  0
 20 39  1  0  0  0  0
 21 24  2  0  0  0  0
 21 40  1  0  0  0  0
 22 57  1  0  0  0  0
 23 26  2  0  0  0  0
 23 56  1  0  0  0  0
 24 41  1  0  0  0  0
 25 62  1  0  0  0  0
 26 79  1  0  0  0  0
 27 88  1  0  0  0  0
 28 89  1  0  0  0  0
 29 31  2  0  0  0  0
 29 88  1  0  0  0  0
 30 90  1  0  0  0  0
 31 91  1  0  0  0  0
 32 72  2  0  0  0  0
 33 73  1  0  0  0  0
 33 77  1  0  0  0  0
 34 78  1  0  0  0  0
 34 83  2  0  0  0  0
 35 58  1  0  0  0  0
 35 80  1  0  0  0  0
 35 84  2  0  0  0  0
 36 69  1  0  0  0  0
 36 74  1  0  0  0  0
 36 85  2  0  0  0  0
 37 70  1  0  0  0  0
 37 81  1  0  0  0  0
 37 86  2  0  0  0  0
 38 75  1  0  0  0  0
 38 76  1  0  0  0  0
 38 87  2  0  0  0  0
 39 42  1  0  0  0  0
 40 58  1  0  0  0  0
 41 74  1  0  0  0  0
 42 44  1  0  0  0  0
 43 47  1  0  0  0  0
 43 52  1  0  0  0  0
 44 57  1  0  0  0  0
 45 48  1  0  0  0  0
 45 59  1  0  0  0  0
 46 49  1  0  0  0  0
 46 59  1  0  0  0  0
 47 60  1  0  0  0  0
 48 61  1  0  0  0  0
 49 61  1  0  0  0  0
 50 53  1  0  0  0  0
 50 56  1  0  0  0  0
 51 54  1  0  0  0  0
 51 56  1  0  0  0  0
 52 75  1  0  0  0  0
 53 76  1  0  0  0  0
 54 76  1  0  0  0  0
 55 60  1  0  0  0  0
 55 75  1  0  0  0  0
 57 80  1  0  0  0  0
 58 74  1  0  0  0  0
 59 68  1  0  0  0  0
 60 73  1  0  0  0  0
 61 89  1  0  0  0  0
 63 70  1  0  0  0  0
 64 71  1  0  0  0  0
 65 71  1  0  0  0  0
 66 71  1  0  0  0  0
 67 82  1  0  0  0  0
 68 79  1  0  0  0  0
 69 71  1  0  0  0  0
 69 81  1  0  0  0  0
 70 82  1  0  0  0  0
 72 73  1  0  0  0  0
M  CHG  1  82   1
M  ISO  4  38 100  61 101  76 100  89 101
M  END
> <Batch ID>
0150

> <Smiles>
CNC(C)C(=O)NC(C(=O)N1Cc2cc([101O:1][101CH:1]3CCC(CNc4ccc(C)cc4C4CC[100N:0]([100C:0](=O)N5CCCC(n6nc(-c7ccc(Oc8ccc(F)cc8F)cc7)c(C(N)=O)c6N)C5)CC4)CC3)ccc2CC1C(=O)NC1CCCc2ccccc21)C(C)(C)C

> <Shape>
0.209

> <Color>
0.092

> <Negative vol penalty>
0.000

$$$$

  -OEChem-04052321413D

 88 97  0     1  0  0  0  0  0999 V2000
  -27.2821  -37.1136   25.5607 C   0  0  0  0  0  0  0  0  0  0  0  0
  -27.9297  -36.4005   24.5571 C   0  0  0  0  0  0  0  0  0  0  0  0
  -21.8989  -10.5029   22.6158 C   0  0  0  0  0  0  0  0  0  0  0  0
  -24.1168   -9.9836   21.8106 C   0  0  0  0  0  0  0  0  0  0  0  0
  -26.4238  -36.4545   26.4399 C   0  0  0  0  0  0  0  0  0  0  0  0
  -27.7203  -35.0275   24.4326 C   0  0  0  0  0  0  0  0  0  0  0  0
  -27.3570  -29.8615   19.4831 C   0  0  0  0  0  0  0  0  0  0  0  0
  -21.4529   -9.2499   22.1956 C   0  0  0  0  0  0  0  0  0  0  0  0
  -23.6708   -8.7305   21.3905 C   0  0  0  0  0  0  0  0  0  0  0  0
  -27.8947  -28.6084   19.1928 C   0  0  0  0  0  0  0  0  0  0  0  0
  -22.9918   -5.7313   22.7920 C   0  0  0  0  0  0  0  0  0  0  0  0
  -23.7919   -4.6277   23.0876 C   0  0  0  0  0  0  0  0  0  0  0  0
  -26.3288  -27.5895   20.7188 C   0  0  0  0  0  0  0  0  0  0  0  0
  -29.9198  -24.3609   17.1708 C   0  0  0  0  0  0  0  0  0  0  0  0
  -29.2563  -23.8564   19.4384 C   0  0  0  0  0  0  0  0  0  0  0  0
  -24.0046   -4.1501   20.7288 C   0  0  0  0  0  0  0  0  0  0  0  0
  -23.2308  -10.8698   22.4233 C   0  0  0  0  0  0  0  0  0  0  0  0
  -24.2273  -12.4985   24.1150 C   0  0  0  0  0  0  0  0  0  0  0  0
  -26.1963  -35.0744   26.3201 C   0  0  0  0  0  0  0  0  0  0  0  0
  -26.3067  -29.9895   20.4033 C   0  0  0  0  0  0  0  0  0  0  0  0
  -26.8593  -34.3490   25.3118 C   0  0  0  0  0  0  0  0  0  0  0  0
  -25.7778  -28.8451   21.0172 C   0  0  0  0  0  0  0  0  0  0  0  0
  -30.1677  -22.1169   18.0312 C   0  0  0  0  0  0  0  0  0  0  0  0
  -29.3949  -24.7725   18.3958 C   0  0  0  0  0  0  0  0  0  0  0  0
  -30.3062  -23.0330   16.9885 C   0  0  0  0  0  0  0  0  0  0  0  0
  -29.6427  -22.5286   19.2562 C   0  0  0  0  0  0  0  0  0  0  0  0
  -22.3388   -8.3637   21.5829 C   0  0  0  0  0  0  0  0  0  0  0  0
  -27.3826  -27.4725   19.8128 C   0  0  0  0  0  0  0  0  0  0  0  0
  -22.6979   -6.0443   21.4648 C   0  0  0  0  0  0  0  0  0  0  0  0
  -24.2984   -3.8371   22.0560 C   0  0  0  0  0  0  0  0  0  0  0  0
  -23.2044   -5.2537   20.4333 C   0  0  0  0  0  0  0  0  0  0  0  0
  -23.6920  -12.1643   22.8566 C   0  0  0  0  0  0  0  0  0  0  0  0
  -24.5089  -13.8397   24.0231 C   0  0  0  0  0  0  0  0  0  0  0  0
  -24.4502  -11.6707   25.2642 C   0  0  0  0  0  0  0  0  0  0  0  0
  -25.9369  -31.4648   23.1945 C   0  0  0  0  0  0  0  0  0  0  0  0
  -22.8593  -30.4972   22.8560 C   0  0  0  0  0  0  0  0  0  0  0  0
  -20.6492  -28.3013   21.4632 C   0  0  0  0  0  0  0  0  0  0  0  0
  -25.6896  -17.4502   19.3947 C   0  0  0  0  0  0  0  0  0  0  0  0
  -25.2965  -34.3973   27.3234 C   0  0  0  0  0  0  0  0  0  0  0  0
  -25.7199  -31.3454   20.6856 C   0  0  0  0  0  0  0  0  0  0  0  0
  -24.6370  -28.9264   21.9973 C   0  0  0  0  0  0  0  0  0  0  0  0
  -24.8385  -33.0071   26.8900 C   0  0  0  0  0  0  0  0  0  0  0  0
  -23.0797  -17.8212   21.7880 C   0  0  0  0  0  0  0  0  0  0  0  0
  -31.6737  -20.2707   18.8390 C   0  0  0  0  0  0  0  0  0  0  0  0
  -26.0184  -32.1965   26.3631 C   0  0  0  0  0  0  0  0  0  0  0  0
  -31.0398  -19.1899   19.7090 C   0  0  0  0  0  0  0  0  0  0  0  0
  -22.9890  -16.4437   22.4468 C   0  0  0  0  0  0  0  0  0  0  0  0
  -29.4017  -19.7349   18.0697 C   0  0  0  0  0  0  0  0  0  0  0  0
  -23.3982  -17.7145   20.2983 C   0  0  0  0  0  0  0  0  0  0  0  0
  -24.5052  -15.5386   20.6355 C   0  0  0  0  0  0  0  0  0  0  0  0
  -30.5824  -20.6933   17.8355 C   0  0  1  0  0  0  0  0  0  0  0  0
  -26.6386  -32.8631   25.1292 C   0  0  1  0  0  0  0  0  0  0  0  0
  -24.9941  -31.4152   22.0256 C   0  0  1  0  0  0  0  0  0  0  0  0
  -30.0232  -18.5344   18.7807 C   0  0  2  0  0  0  0  0  0  0  0  0
  -24.2410  -15.5966   22.1498 C   0  0  2  0  0  0  0  0  0  0  0  0
  -30.8666  -22.6180   15.6673 C   0  0  0  0  0  0  0  0  0  0  0  0
  -29.4842  -21.5671   20.3886 C   0  0  0  0  0  0  0  0  0  0  0  0
  -18.2042  -27.7393   21.4023 C   0  0  0  0  0  0  0  0  0  0  0  0
  -29.7116  -16.5897   20.3290 C   0  0  0  0  0  0  0  0  0  0  0  0
  -23.0830  -29.2351   25.6250 C   0  0  0  0  0  0  0  0  0  0  0  0
  -21.0170  -27.9163   25.1142 C   0  0  0  0  0  0  0  0  0  0  0  0
  -20.9184  -30.4078   25.1848 C   0  0  0  0  0  0  0  0  0  0  0  0
  -20.4921  -28.7843   18.5475 C   0  0  0  0  0  0  0  0  0  0  0  0
  -28.9786  -26.2007   18.5917 C   0  0  0  0  0  0  0  0  0  1  0  0
  -27.9900  -17.0379   18.5597 C   0  0  0  0  0  0  0  0  0  0  0  0
  -22.0760  -29.2676   23.2478 C   0  0  1  0  0  0  0  0  0  0  0  0
  -19.3308  -28.5196   20.7430 C   0  0  2  0  0  0  0  0  0  0  0  0
  -29.0048  -17.6818   19.5178 C   0  0  2  0  0  0  0  0  0  0  0  0
  -21.7964  -29.2050   24.7760 C   0  0  0  0  0  0  0  0  0  0  0  0
  -23.6357  -13.2089   22.0262 N   0  0  0  0  0  0  0  0  0  0  0  0
  -24.1392  -14.2128   22.7644 N   0  0  0  0  0  0  0  0  0  0  0  0
  -24.1016  -30.2752   22.2450 N   0  0  0  0  0  0  0  0  0  0  0  0
  -24.5971  -16.9001   20.0853 N   0  0  0  0  0  0  0  0  0  0  0  0
  -25.0341  -14.7245   24.8969 N   0  0  0  0  0  0  0  0  0  0  0  0
  -24.1042  -10.3147   25.1881 N   0  0  0  0  0  0  0  0  0  0  0  0
  -25.8273  -32.6116   23.9575 N   0  0  0  0  0  0  0  0  0  0  0  0
  -20.8746  -29.2681   22.4201 N   0  0  0  0  0  0  0  0  0  0  0  0
  -26.7880  -16.6130   19.2420 N   0  0  0  0  0  0  0  0  0  0  0  0
  -19.4376  -28.0812   19.3227 N   0  3  0  0  0  0  0  0  0  0  0  0
  -24.9263  -12.1238   26.3327 O   0  0  0  0  0  0  0  0  0  0  0  0
  -26.7058  -30.5309   23.3906 O   0  0  0  0  0  0  0  0  0  0  0  0
  -22.3833  -31.6135   23.0773 O   0  0  0  0  0  0  0  0  0  0  0  0
  -21.4019  -27.3646   21.2054 O   0  0  0  0  0  0  0  0  0  0  0  0
  -25.6884  -18.6039   18.9521 O   0  0  0  0  0  0  0  0  0  0  0  0
  -21.9041   -7.1408   21.1730 O   0  0  0  0  0  0  0  0  0  0  0  0
  -27.9060  -26.2482   19.5316 O   0  0  0  0  0  0  0  0  0  1  0  0
  -25.0680   -2.7782   22.3399 F   0  0  0  0  0  0  0  0  0  0  0  0
  -22.9265   -5.5502   19.1563 F   0  0  0  0  0  0  0  0  0  0  0  0
  1  2  1  0  0  0  0
  1  5  2  0  0  0  0
  2  6  2  0  0  0  0
  3  8  2  0  0  0  0
  3 17  1  0  0  0  0
  4  9  1  0  0  0  0
  4 17  2  0  0  0  0
  5 19  1  0  0  0  0
  6 21  1  0  0  0  0
  7 10  2  0  0  0  0
  7 20  1  0  0  0  0
  8 27  1  0  0  0  0
  9 27  2  0  0  0  0
 10 28  1  0  0  0  0
 11 12  2  0  0  0  0
 11 29  1  0  0  0  0
 12 30  1  0  0  0  0
 13 22  1  0  0  0  0
 13 28  2  0  0  0  0
 14 24  1  0  0  0  0
 14 25  2  0  0  0  0
 15 24  2  0  0  0  0
 15 26  1  0  0  0  0
 16 30  2  0  0  0  0
 16 31  1  0  0  0  0
 17 32  1  0  0  0  0
 18 32  1  0  0  0  0
 18 33  2  0  0  0  0
 18 34  1  0  0  0  0
 19 21  2  0  0  0  0
 19 39  1  0  0  0  0
 20 22  2  0  0  0  0
 20 40  1  0  0  0  0
 21 52  1  0  0  0  0
 22 41  1  0  0  0  0
 23 25  1  0  0  0  0
 23 26  2  0  0  0  0
 23 51  1  0  0  0  0
 24 64  1  0  0  0  0
 25 56  1  0  0  0  0
 26 57  1  0  0  0  0
 27 85  1  0  0  0  0
 28 86  1  0  0  0  0
 29 31  2  0  0  0  0
 29 85  1  0  0  0  0
 30 87  1  0  0  0  0
 31 88  1  0  0  0  0
 32 70  2  0  0  0  0
 33 71  1  0  0  0  0
 33 74  1  0  0  0  0
 34 75  1  0  0  0  0
 34 80  2  0  0  0  0
 35 53  1  0  0  0  0
 35 76  1  0  0  0  0
 35 81  2  0  0  0  0
 36 66  1  0  0  0  0
 36 72  1  0  0  0  0
 36 82  2  0  0  0  0
 37 67  1  0  0  0  0
 37 77  1  0  0  0  0
 37 83  2  0  0  0  0
 38 73  1  0  0  0  0
 38 78  1  0  0  0  0
 38 84  2  0  0  0  0
 39 42  1  0  0  0  0
 40 53  1  0  0  0  0
 41 72  1  0  0  0  0
 42 45  1  0  0  0  0
 43 47  1  0  0  0  0
 43 49  1  0  0  0  0
 44 46  1  0  0  0  0
 44 51  1  0  0  0  0
 45 52  1  0  0  0  0
 46 54  1  0  0  0  0
 47 55  1  0  0  0  0
 48 51  1  0  0  0  0
 48 54  1  0  0  0  0
 49 73  1  0  0  0  0
 50 55  1  0  0  0  0
 50 73  1  0  0  0  0
 52 76  1  0  0  0  0
 53 72  1  0  0  0  0
 54 68  1  0  0  0  0
 55 71  1  0  0  0  0
 58 67  1  0  0  0  0
 59 68  1  0  0  0  0
 60 69  1  0  0  0  0
 61 69  1  0  0  0  0
 62 69  1  0  0  0  0
 63 79  1  0  0  0  0
 64 86  1  0  0  0  0
 65 68  1  0  0  0  0
 65 78  1  0  0  0  0
 66 69  1  0  0  0  0
 66 77  1  0  0  0  0
 67 79  1  0  0  0  0
 70 71  1  0  0  0  0
M  CHG  1  79   1
M  ISO  4  38 100  64 101  78 100  86 101
M  END
> <Batch ID>
0150

> <Smiles>
CNC(C)C(=O)NC(C(=O)N1Cc2cc([101O:1][101CH2:1]c3cc(C)c(C4CCC(C(C)C[100NH:0][100C:0](=O)N5CCCC(n6nc(-c7ccc(Oc8ccc(F)cc8F)cc7)c(C(N)=O)c6N)C5)C4)c(C)c3)ccc2CC1C(=O)NC1CCCc2ccccc21)C(C)(C)C

> <Shape>
0.280

> <Color>
0.073

> <Negative vol penalty>
0.000

$$$$
