
  -OEChem-04052321433D

 83 92  0     1  0  0  0  0  0999 V2000
  -29.4177  -32.0449   26.8019 C   0  0  0  0  0  0  0  0  0  0  0  0
  -29.8851  -31.0326   25.9699 C   0  0  0  0  0  0  0  0  0  0  0  0
  -23.3249   -9.5545   20.2311 C   0  0  0  0  0  0  0  0  0  0  0  0
  -23.9105   -9.9900   22.5343 C   0  0  0  0  0  0  0  0  0  0  0  0
  -28.0524  -32.1584   27.0605 C   0  0  0  0  0  0  0  0  0  0  0  0
  -28.9874  -30.1325   25.3969 C   0  0  0  0  0  0  0  0  0  0  0  0
  -29.3987  -27.5424   19.8626 C   0  0  0  0  0  0  0  0  0  0  0  0
  -22.6849   -8.3767   20.6166 C   0  0  0  0  0  0  0  0  0  0  0  0
  -23.2704   -8.8122   22.9198 C   0  0  0  0  0  0  0  0  0  0  0  0
  -29.8524  -26.2926   19.4432 C   0  0  0  0  0  0  0  0  0  0  0  0
  -20.1038   -7.7607   23.4561 C   0  0  0  0  0  0  0  0  0  0  0  0
  -19.2712   -7.8133   24.5739 C   0  0  0  0  0  0  0  0  0  0  0  0
  -28.7445  -18.5292   21.7176 C   0  0  0  0  0  0  0  0  0  0  0  0
  -27.5845  -25.4707   19.4589 C   0  0  0  0  0  0  0  0  0  0  0  0
  -20.6445   -6.1582   25.6748 C   0  0  0  0  0  0  0  0  0  0  0  0
  -30.4839  -18.2608   20.1179 C   0  0  0  0  0  0  0  0  0  0  0  0
  -23.9378  -10.3612   21.1900 C   0  0  0  0  0  0  0  0  0  0  0  0
  -24.0310  -12.8619   20.6944 C   0  0  0  0  0  0  0  0  0  0  0  0
  -27.1365  -31.2652   26.4826 C   0  0  0  0  0  0  0  0  0  0  0  0
  -28.0333  -27.7631   20.0941 C   0  0  0  0  0  0  0  0  0  0  0  0
  -27.6087  -30.2333   25.6490 C   0  0  0  0  0  0  0  0  0  0  0  0
  -28.7941  -19.9010   21.4963 C   0  0  0  0  0  0  0  0  0  0  0  0
  -27.1157  -26.7250   19.8787 C   0  0  0  0  0  0  0  0  0  0  0  0
  -29.6022  -17.6865   21.0193 C   0  0  0  0  0  0  0  0  0  0  0  0
  -22.6576   -8.0055   21.9609 C   0  0  0  0  0  0  0  0  0  0  0  0
  -28.9456  -25.2557   19.2441 C   0  0  0  0  0  0  0  0  0  0  0  0
  -21.2068   -6.9068   23.4476 C   0  0  0  0  0  0  0  0  0  0  0  0
  -19.5415   -7.0121   25.6833 C   0  0  0  0  0  0  0  0  0  0  0  0
  -21.4772   -6.1056   24.5569 C   0  0  0  0  0  0  0  0  0  0  0  0
  -24.5996  -11.5778   20.7924 C   0  0  0  0  0  0  0  0  0  0  0  0
  -29.7121  -20.3762   20.5737 C   0  0  0  0  0  0  0  0  0  0  0  0
  -25.0656  -13.6648   20.2804 C   0  0  0  0  0  0  0  0  0  0  0  0
  -22.6877  -13.2906   20.9544 C   0  0  0  0  0  0  0  0  0  0  0  0
  -26.2889  -28.5667   22.6269 C   0  0  0  0  0  0  0  0  0  0  0  0
  -23.8922  -28.7039   20.4453 C   0  0  0  0  0  0  0  0  0  0  0  0
  -22.6614  -27.6955   17.4262 C   0  0  0  0  0  0  0  0  0  0  0  0
  -30.3709  -15.3247   20.5982 C   0  0  0  0  0  0  0  0  0  0  0  0
  -25.6748  -31.3987   26.8293 C   0  0  0  0  0  0  0  0  0  0  0  0
  -27.5569  -29.1246   20.5205 C   0  0  0  0  0  0  0  0  0  0  0  0
  -25.6373  -26.9161   20.0937 C   0  0  0  0  0  0  0  0  0  0  0  0
  -24.7522  -30.6337   25.8839 C   0  0  0  0  0  0  0  0  0  0  0  0
  -29.6819  -12.4741   18.5792 C   0  0  0  0  0  0  0  0  0  0  0  0
  -26.3940  -20.5766   22.1724 C   0  0  0  0  0  0  0  0  0  0  0  0
  -26.9906  -21.7516   21.4628 C   0  0  0  0  0  0  0  0  0  0  0  0
  -25.2800  -29.2219   25.6493 C   0  0  0  0  0  0  0  0  0  0  0  0
  -28.2514  -12.0924   18.9670 C   0  0  0  0  0  0  0  0  0  0  0  0
  -30.4789  -12.9808   19.7799 C   0  0  0  0  0  0  0  0  0  0  0  0
  -28.4127  -13.6884   20.9199 C   0  0  0  0  0  0  0  0  0  0  0  0
  -27.8808  -20.8144   22.2379 C   0  0  0  0  0  0  0  0  0  0  0  0
  -26.6637  -29.2528   24.9890 C   0  0  1  0  0  0  0  0  0  0  0  0
  -26.2024  -29.0912   21.2215 C   0  0  1  0  0  0  0  0  0  0  0  0
  -27.5511  -13.2334   19.7307 C   0  0  2  0  0  0  0  0  0  0  0  0
  -20.6610  -27.9449   15.9317 C   0  0  0  0  0  0  0  0  0  0  0  0
  -22.3153  -26.8096   22.2439 C   0  0  0  0  0  0  0  0  0  0  0  0
  -20.7920  -26.3532   20.3101 C   0  0  0  0  0  0  0  0  0  0  0  0
  -20.9659  -28.6610   21.2411 C   0  0  0  0  0  0  0  0  0  0  0  0
  -24.2851  -28.8870   15.2575 C   0  0  0  0  0  0  0  0  0  0  0  0
  -30.7002  -23.6503   19.2371 C   0  0  0  0  0  0  0  0  0  1  0  0
  -30.7562  -22.1406   19.3684 C   0  0  0  0  0  0  0  0  0  0  0  0
  -22.8884  -27.7188   19.8964 C   0  0  1  0  0  0  0  0  0  0  0  0
  -22.0434  -28.4747   16.2792 C   0  0  2  0  0  0  0  0  0  0  0  0
  -21.7684  -27.3812   20.9206 C   0  0  0  0  0  0  0  0  0  0  0  0
  -30.5613  -19.5887   19.8762 N   0  0  0  0  0  0  0  0  0  0  0  0
  -25.8948  -11.5612   20.4668 N   0  0  0  0  0  0  0  0  0  0  0  0
  -26.1487  -12.8447   20.1600 N   0  0  0  0  0  0  0  0  0  0  0  0
  -25.2214  -28.2636   20.5165 N   0  0  0  0  0  0  0  0  0  0  0  0
  -29.7561  -14.0633   20.4514 N   0  0  0  0  0  0  0  0  0  0  0  0
  -25.1454  -14.9852   20.0112 N   0  0  0  0  0  0  0  0  0  0  0  0
  -21.7507  -12.3357   21.3723 N   0  0  0  0  0  0  0  0  0  0  0  0
  -29.5754  -16.2846   21.2231 N   0  0  0  0  0  0  0  0  0  0  0  0
  -26.5429  -29.5389   23.5755 N   0  0  0  0  0  0  0  0  0  0  0  0
  -22.4015  -28.2872   18.6442 N   0  0  0  0  0  0  0  0  0  0  0  0
  -22.9025  -28.3784   15.0653 N   0  3  0  0  0  0  0  0  0  0  0  0
  -22.3250  -14.4819   20.8042 O   0  0  0  0  0  0  0  0  0  0  0  0
  -26.1351  -27.3690   22.8353 O   0  0  0  0  0  0  0  0  0  0  0  0
  -23.5120  -29.8253   20.7912 O   0  0  0  0  0  0  0  0  0  0  0  0
  -23.3067  -26.6631   17.2587 O   0  0  0  0  0  0  0  0  0  0  0  0
  -31.5084  -15.5455   20.1747 O   0  0  0  0  0  0  0  0  0  0  0  0
  -22.0330   -6.8563   22.3374 O   0  0  0  0  0  0  0  0  0  0  0  0
  -29.3859  -24.0346   18.8355 O   0  0  0  0  0  0  0  0  0  1  0  0
  -29.7924  -21.7214   20.3269 O   0  0  0  0  0  0  0  0  0  0  0  0
  -18.7427   -7.0638   26.7573 F   0  0  0  0  0  0  0  0  0  0  0  0
  -22.5360   -5.2842   24.5550 F   0  0  0  0  0  0  0  0  0  0  0  0
  1  2  1  0  0  0  0
  1  5  2  0  0  0  0
  2  6  2  0  0  0  0
  3  8  2  0  0  0  0
  3 17  1  0  0  0  0
  4  9  1  0  0  0  0
  4 17  2  0  0  0  0
  5 19  1  0  0  0  0
  6 21  1  0  0  0  0
  7 10  2  0  0  0  0
  7 20  1  0  0  0  0
  8 25  1  0  0  0  0
  9 25  2  0  0  0  0
 10 26  1  0  0  0  0
 11 12  2  0  0  0  0
 11 27  1  0  0  0  0
 12 28  1  0  0  0  0
 13 22  1  0  0  0  0
 13 24  2  0  0  0  0
 14 23  1  0  0  0  0
 14 26  2  0  0  0  0
 15 28  2  0  0  0  0
 15 29  1  0  0  0  0
 16 24  1  0  0  0  0
 16 63  2  0  0  0  0
 17 30  1  0  0  0  0
 18 30  1  0  0  0  0
 18 32  2  0  0  0  0
 18 33  1  0  0  0  0
 19 21  2  0  0  0  0
 19 38  1  0  0  0  0
 20 23  2  0  0  0  0
 20 39  1  0  0  0  0
 21 50  1  0  0  0  0
 22 31  2  0  0  0  0
 22 49  1  0  0  0  0
 23 40  1  0  0  0  0
 24 70  1  0  0  0  0
 25 79  1  0  0  0  0
 26 80  1  0  0  0  0
 27 29  2  0  0  0  0
 27 79  1  0  0  0  0
 28 82  1  0  0  0  0
 29 83  1  0  0  0  0
 30 64  2  0  0  0  0
 31 63  1  0  0  0  0
 31 81  1  0  0  0  0
 32 65  1  0  0  0  0
 32 68  1  0  0  0  0
 33 69  1  0  0  0  0
 33 74  2  0  0  0  0
 34 51  1  0  0  0  0
 34 71  1  0  0  0  0
 34 75  2  0  0  0  0
 35 60  1  0  0  0  0
 35 66  1  0  0  0  0
 35 76  2  0  0  0  0
 36 61  1  0  0  0  0
 36 72  1  0  0  0  0
 36 77  2  0  0  0  0
 37 67  1  0  0  0  0
 37 70  1  0  0  0  0
 37 78  2  0  0  0  0
 38 41  1  0  0  0  0
 39 51  1  0  0  0  0
 40 66  1  0  0  0  0
 41 45  1  0  0  0  0
 42 46  1  0  0  0  0
 42 47  1  0  0  0  0
 43 44  1  0  0  0  0
 43 49  1  0  0  0  0
 44 49  1  0  0  0  0
 45 50  1  0  0  0  0
 46 52  1  0  0  0  0
 47 67  1  0  0  0  0
 48 52  1  0  0  0  0
 48 67  1  0  0  0  0
 50 71  1  0  0  0  0
 51 66  1  0  0  0  0
 52 65  1  0  0  0  0
 53 61  1  0  0  0  0
 54 62  1  0  0  0  0
 55 62  1  0  0  0  0
 56 62  1  0  0  0  0
 57 73  1  0  0  0  0
 58 59  1  0  0  0  0
 58 80  1  0  0  0  0
 59 81  1  0  0  0  0
 60 62  1  0  0  0  0
 60 72  1  0  0  0  0
 61 73  1  0  0  0  0
 64 65  1  0  0  0  0
M  CHG  1  73   1
M  ISO  4  37 100  58 101  70 100  80 101
M  END
> <Batch ID>
0151

> <Smiles>
CNC(C)C(=O)NC(C(=O)N1Cc2cc([101O:1][101CH2:1]COc3ncc([100NH:0][100C:0](=O)N4CCCC(n5nc(-c6ccc(Oc7ccc(F)cc7F)cc6)c(C(N)=O)c5N)C4)cc3C3CC3)ccc2CC1C(=O)NC1CCCc2ccccc21)C(C)(C)C

> <Shape>
0.367

> <Color>
0.183

> <Negative vol penalty>
0.000

$$$$

  -OEChem-04052321433D

 83 92  0     1  0  0  0  0  0999 V2000
  -23.4942   -8.1939   21.4525 C   0  0  0  0  0  0  0  0  0  0  0  0
  -24.3980   -9.2497   21.5160 C   0  0  0  0  0  0  0  0  0  0  0  0
  -24.7557  -30.0130   20.9080 C   0  0  0  0  0  0  0  0  0  0  0  0
  -25.0711  -28.7515   22.9443 C   0  0  0  0  0  0  0  0  0  0  0  0
  -22.1637   -8.4362   21.1133 C   0  0  0  0  0  0  0  0  0  0  0  0
  -23.9720  -10.5482   21.2391 C   0  0  0  0  0  0  0  0  0  0  0  0
  -28.8165  -17.9554   20.3651 C   0  0  0  0  0  0  0  0  0  0  0  0
  -25.7219  -13.9219   24.5859 C   0  0  0  0  0  0  0  0  0  0  0  0
  -28.0182  -18.9974   19.8933 C   0  0  0  0  0  0  0  0  0  0  0  0
  -24.0783  -30.9998   21.6242 C   0  0  0  0  0  0  0  0  0  0  0  0
  -24.3937  -29.7384   23.6605 C   0  0  0  0  0  0  0  0  0  0  0  0
  -27.0462  -14.3334   24.4421 C   0  0  0  0  0  0  0  0  0  0  0  0
  -22.5812  -34.0245   22.9750 C   0  0  0  0  0  0  0  0  0  0  0  0
  -22.9059  -35.3552   22.7117 C   0  0  0  0  0  0  0  0  0  0  0  0
  -26.2946  -16.3526   23.3571 C   0  0  0  0  0  0  0  0  0  0  0  0
  -29.7528  -20.5817   20.4576 C   0  0  0  0  0  0  0  0  0  0  0  0
  -25.1892  -34.9297   23.3771 C   0  0  0  0  0  0  0  0  0  0  0  0
  -25.2520  -28.8888   21.5680 C   0  0  0  0  0  0  0  0  0  0  0  0
  -27.3340  -27.8013   20.5729 C   0  0  0  0  0  0  0  0  0  0  0  0
  -21.7190   -9.7396   20.8416 C   0  0  0  0  0  0  0  0  0  0  0  0
  -24.6728  -14.7190   24.1058 C   0  0  0  0  0  0  0  0  0  0  0  0
  -22.6346  -10.8080   20.8947 C   0  0  0  0  0  0  0  0  0  0  0  0
  -30.0829  -18.2265   20.8832 C   0  0  0  0  0  0  0  0  0  0  0  0
  -24.9577  -15.9502   23.4984 C   0  0  0  0  0  0  0  0  0  0  0  0
  -30.5510  -19.5397   20.9294 C   0  0  0  0  0  0  0  0  0  0  0  0
  -28.4864  -20.3105   19.9395 C   0  0  0  0  0  0  0  0  0  0  0  0
  -23.8973  -30.8625   23.0005 C   0  0  0  0  0  0  0  0  0  0  0  0
  -27.3328  -15.5476   23.8250 C   0  0  0  0  0  0  0  0  0  0  0  0
  -23.5604  -33.1464   23.4395 C   0  0  0  0  0  0  0  0  0  0  0  0
  -24.2099  -35.8078   22.9127 C   0  0  0  0  0  0  0  0  0  0  0  0
  -24.8644  -33.5990   23.6404 C   0  0  0  0  0  0  0  0  0  0  0  0
  -25.9513  -27.8688   20.8287 C   0  0  0  0  0  0  0  0  0  0  0  0
  -27.4915  -26.6520   19.8375 C   0  0  0  0  0  0  0  0  0  0  0  0
  -28.3823  -28.6974   20.9650 C   0  0  0  0  0  0  0  0  0  0  0  0
  -22.3925  -14.3489   21.9225 C   0  0  0  0  0  0  0  0  0  0  0  0
  -21.3699  -17.2048   23.0715 C   0  0  0  0  0  0  0  0  0  0  0  0
  -22.1249  -20.1190   24.6791 C   0  0  0  0  0  0  0  0  0  0  0  0
  -26.3954  -21.2715   18.9144 C   0  0  0  0  0  0  0  0  0  0  0  0
  -20.2819   -9.9460   20.4332 C   0  0  0  0  0  0  0  0  0  0  0  0
  -23.2484  -14.2733   24.2927 C   0  0  0  0  0  0  0  0  0  0  0  0
  -23.8666  -16.8521   22.9841 C   0  0  0  0  0  0  0  0  0  0  0  0
  -19.8268  -11.4005   20.5202 C   0  0  0  0  0  0  0  0  0  0  0  0
  -24.0571  -23.6423   17.6538 C   0  0  0  0  0  0  0  0  0  0  0  0
  -20.8638  -12.3231   19.8874 C   0  0  0  0  0  0  0  0  0  0  0  0
  -24.4552  -24.9477   18.3464 C   0  0  0  0  0  0  0  0  0  0  0  0
  -31.1571  -16.9209   22.9121 C   0  0  0  0  0  0  0  0  0  0  0  0
  -24.2266  -22.4363   18.5762 C   0  0  0  0  0  0  0  0  0  0  0  0
  -25.9518  -23.6122   19.8839 C   0  0  0  0  0  0  0  0  0  0  0  0
  -22.2050  -12.2338   20.6254 C   0  0  1  0  0  0  0  0  0  0  0  0
  -30.9428  -17.0671   21.3958 C   0  0  1  0  0  0  0  0  0  0  0  0
  -22.2842  -14.9248   23.3061 C   0  0  1  0  0  0  0  0  0  0  0  0
  -25.8597  -24.8475   18.9732 C   0  0  2  0  0  0  0  0  0  0  0  0
  -30.7449  -15.4619   22.6909 C   0  0  1  0  0  0  0  0  0  0  0  0
  -31.9030  -19.8511   21.4813 C   0  0  0  0  0  0  0  0  0  0  0  0
  -21.0898  -22.2753   25.4383 C   0  0  0  0  0  0  0  0  0  0  0  0
  -21.4159  -18.2350   20.1999 C   0  0  0  0  0  0  0  0  0  0  0  0
  -21.3114  -20.5658   21.1081 C   0  0  0  0  0  0  0  0  0  0  0  0
  -19.4397  -18.9749   21.5421 C   0  0  0  0  0  0  0  0  0  0  0  0
  -22.7304  -19.5445   27.5186 C   0  0  0  0  0  0  0  0  0  0  0  0
  -29.6131  -14.9309   23.5490 C   0  0  0  0  0  0  0  0  0  1  0  0
  -21.6437  -18.6514   22.7377 C   0  0  1  0  0  0  0  0  0  0  0  0
  -21.4393  -20.8458   25.8220 C   0  0  2  0  0  0  0  0  0  0  0  0
  -20.9735  -19.0891   21.4048 C   0  0  0  0  0  0  0  0  0  0  0  0
  -25.2783  -26.8440   20.2987 N   0  0  0  0  0  0  0  0  0  0  0  0
  -26.2421  -26.1218   19.7025 N   0  0  0  0  0  0  0  0  0  0  0  0
  -22.4903  -16.3694   23.1846 N   0  0  0  0  0  0  0  0  0  0  0  0
  -25.5822  -22.4043   19.1294 N   0  0  0  0  0  0  0  0  0  0  0  0
  -28.5753  -26.0534   19.2996 N   0  0  0  0  0  0  0  0  0  0  0  0
  -28.0459  -29.8305   21.7182 N   0  0  0  0  0  0  0  0  0  0  0  0
  -27.6752  -21.3686   19.4596 N   0  0  0  0  0  0  0  0  0  0  0  0
  -22.1544  -12.9892   21.8589 N   0  0  0  0  0  0  0  0  0  0  0  0
  -21.2227  -19.4254   23.9006 N   0  0  0  0  0  0  0  0  0  0  0  0
  -22.3270  -20.8840   27.0184 N   0  3  0  0  0  0  0  0  0  0  0  0
  -29.5797  -28.5078   20.6427 O   0  0  0  0  0  0  0  0  0  0  0  0
  -22.6699  -15.0839   20.9821 O   0  0  0  0  0  0  0  0  0  0  0  0
  -20.2055  -16.8314   23.2333 O   0  0  0  0  0  0  0  0  0  0  0  0
  -23.3390  -20.1652   24.4933 O   0  0  0  0  0  0  0  0  0  0  0  0
  -25.9959  -20.2990   18.2691 O   0  0  0  0  0  0  0  0  0  0  0  0
  -30.2831  -15.7662   21.3486 O   0  0  0  0  0  0  0  0  0  0  0  0
  -23.2366  -31.8254   23.6997 O   0  0  0  0  0  0  0  0  0  0  0  0
  -28.6246  -15.9514   23.6828 O   0  0  0  0  0  0  0  0  0  1  0  0
  -24.5220  -37.0853   22.6583 F   0  0  0  0  0  0  0  0  0  0  0  0
  -25.8097  -32.7597   24.0853 F   0  0  0  0  0  0  0  0  0  0  0  0
  1  2  1  0  0  0  0
  1  5  2  0  0  0  0
  2  6  2  0  0  0  0
  3 10  2  0  0  0  0
  3 18  1  0  0  0  0
  4 11  1  0  0  0  0
  4 18  2  0  0  0  0
  5 20  1  0  0  0  0
  6 22  1  0  0  0  0
  7  9  2  0  0  0  0
  7 23  1  0  0  0  0
  8 12  2  0  0  0  0
  8 21  1  0  0  0  0
  9 26  1  0  0  0  0
 10 27  1  0  0  0  0
 11 27  2  0  0  0  0
 12 28  1  0  0  0  0
 13 14  2  0  0  0  0
 13 29  1  0  0  0  0
 14 30  1  0  0  0  0
 15 24  1  0  0  0  0
 15 28  2  0  0  0  0
 16 25  1  0  0  0  0
 16 26  2  0  0  0  0
 17 30  2  0  0  0  0
 17 31  1  0  0  0  0
 18 32  1  0  0  0  0
 19 32  1  0  0  0  0
 19 33  2  0  0  0  0
 19 34  1  0  0  0  0
 20 22  2  0  0  0  0
 20 39  1  0  0  0  0
 21 24  2  0  0  0  0
 21 40  1  0  0  0  0
 22 49  1  0  0  0  0
 23 25  2  0  0  0  0
 23 50  1  0  0  0  0
 24 41  1  0  0  0  0
 25 54  1  0  0  0  0
 26 70  1  0  0  0  0
 27 80  1  0  0  0  0
 28 81  1  0  0  0  0
 29 31  2  0  0  0  0
 29 80  1  0  0  0  0
 30 82  1  0  0  0  0
 31 83  1  0  0  0  0
 32 64  2  0  0  0  0
 33 65  1  0  0  0  0
 33 68  1  0  0  0  0
 34 69  1  0  0  0  0
 34 74  2  0  0  0  0
 35 51  1  0  0  0  0
 35 71  1  0  0  0  0
 35 75  2  0  0  0  0
 36 61  1  0  0  0  0
 36 66  1  0  0  0  0
 36 76  2  0  0  0  0
 37 62  1  0  0  0  0
 37 72  1  0  0  0  0
 37 77  2  0  0  0  0
 38 67  1  0  0  0  0
 38 70  1  0  0  0  0
 38 78  2  0  0  0  0
 39 42  1  0  0  0  0
 40 51  1  0  0  0  0
 41 66  1  0  0  0  0
 42 44  1  0  0  0  0
 43 45  1  0  0  0  0
 43 47  1  0  0  0  0
 44 49  1  0  0  0  0
 45 52  1  0  0  0  0
 46 50  1  0  0  0  0
 46 53  1  0  0  0  0
 47 67  1  0  0  0  0
 48 52  1  0  0  0  0
 48 67  1  0  0  0  0
 49 71  1  0  0  0  0
 50 79  1  0  0  0  0
 51 66  1  0  0  0  0
 52 65  1  0  0  0  0
 53 60  1  0  0  0  0
 53 79  1  0  0  0  0
 55 62  1  0  0  0  0
 56 63  1  0  0  0  0
 57 63  1  0  0  0  0
 58 63  1  0  0  0  0
 59 73  1  0  0  0  0
 60 81  1  0  0  0  0
 61 63  1  0  0  0  0
 61 72  1  0  0  0  0
 62 73  1  0  0  0  0
 64 65  1  0  0  0  0
M  CHG  1  73   1
M  ISO  4  38 100  60 101  70 100  81 101
M  END
> <Batch ID>
0151

> <Smiles>
CNC(C)C(=O)NC(C(=O)N1Cc2cc([101O:1][101CH2:1]C3CC(c4ccc([100NH:0][100C:0](=O)N5CCCC(n6nc(-c7ccc(Oc8ccc(F)cc8F)cc7)c(C(N)=O)c6N)C5)cc4C)O3)ccc2CC1C(=O)NC1CCCc2ccccc21)C(C)(C)C

> <Shape>
0.217

> <Color>
0.079

> <Negative vol penalty>
0.000

$$$$

  -OEChem-04052321433D

 86 95  0     1  0  0  0  0  0999 V2000
  -28.8270  -25.8896   17.7079 C   0  0  0  0  0  0  0  0  0  0  0  0
  -28.3617  -25.2978   18.8779 C   0  0  0  0  0  0  0  0  0  0  0  0
  -23.0951   -9.8741   19.9688 C   0  0  0  0  0  0  0  0  0  0  0  0
  -23.8288   -9.9357   22.2699 C   0  0  0  0  0  0  0  0  0  0  0  0
  -29.0283  -27.2683   17.6578 C   0  0  0  0  0  0  0  0  0  0  0  0
  -28.0985  -26.0844   19.9988 C   0  0  0  0  0  0  0  0  0  0  0  0
  -23.7108  -24.8867   22.2256 C   0  0  0  0  0  0  0  0  0  0  0  0
  -22.3577   -8.7204   20.2348 C   0  0  0  0  0  0  0  0  0  0  0  0
  -23.0914   -8.7820   22.5359 C   0  0  0  0  0  0  0  0  0  0  0  0
  -23.6949  -23.7480   23.0299 C   0  0  0  0  0  0  0  0  0  0  0  0
  -19.8631   -7.9704   23.1191 C   0  0  0  0  0  0  0  0  0  0  0  0
  -19.0933   -7.9489   24.2820 C   0  0  0  0  0  0  0  0  0  0  0  0
  -29.5284  -19.7293   24.1401 C   0  0  0  0  0  0  0  0  0  0  0  0
  -23.8859  -25.1385   24.9919 C   0  0  0  0  0  0  0  0  0  0  0  0
  -20.3418   -6.0378   25.0732 C   0  0  0  0  0  0  0  0  0  0  0  0
  -23.8307  -10.4818   20.9863 C   0  0  0  0  0  0  0  0  0  0  0  0
  -24.1536  -13.0066   20.8167 C   0  0  0  0  0  0  0  0  0  0  0  0
  -28.7582  -28.0734   18.7756 C   0  0  0  0  0  0  0  0  0  0  0  0
  -23.8255  -26.1614   22.7987 C   0  0  0  0  0  0  0  0  0  0  0  0
  -28.2976  -27.4750   19.9640 C   0  0  0  0  0  0  0  0  0  0  0  0
  -28.1647  -19.4226   24.1823 C   0  0  0  0  0  0  0  0  0  0  0  0
  -23.9004  -26.2919   24.1928 C   0  0  0  0  0  0  0  0  0  0  0  0
  -30.3982  -18.9484   23.3896 C   0  0  0  0  0  0  0  0  0  0  0  0
  -22.3558   -8.1743   21.5183 C   0  0  0  0  0  0  0  0  0  0  0  0
  -23.7854  -23.8736   24.4131 C   0  0  0  0  0  0  0  0  0  0  0  0
  -20.8722   -7.0255   22.9331 C   0  0  0  0  0  0  0  0  0  0  0  0
  -19.3326   -6.9826   25.2591 C   0  0  0  0  0  0  0  0  0  0  0  0
  -21.1116   -6.0592   23.9102 C   0  0  0  0  0  0  0  0  0  0  0  0
  -24.5930  -11.6733   20.7120 C   0  0  0  0  0  0  0  0  0  0  0  0
  -27.7213  -18.3304   23.4313 C   0  0  0  0  0  0  0  0  0  0  0  0
  -29.8665  -17.8795   22.6930 C   0  0  0  0  0  0  0  0  0  0  0  0
  -25.2437  -13.7572   20.4498 C   0  0  0  0  0  0  0  0  0  0  0  0
  -22.8743  -13.5206   21.2104 C   0  0  0  0  0  0  0  0  0  0  0  0
  -25.9523  -28.5170   22.6223 C   0  0  0  0  0  0  0  0  0  0  0  0
  -23.7576  -30.1081   24.4038 C   0  0  0  0  0  0  0  0  0  0  0  0
  -21.1381  -29.9579   26.5862 C   0  0  0  0  0  0  0  0  0  0  0  0
  -30.7166  -14.8253   20.6778 C   0  0  0  0  0  0  0  0  0  0  0  0
  -29.0362  -29.5532   18.6886 C   0  0  0  0  0  0  0  0  0  0  0  0
  -23.8142  -27.3813   21.9190 C   0  0  0  0  0  0  0  0  0  0  0  0
  -27.2218  -20.2983   24.9629 C   0  0  0  0  0  0  0  0  0  0  0  0
  -24.0046  -27.6388   24.8587 C   0  0  0  0  0  0  0  0  0  0  0  0
  -26.2752  -17.9135   23.4448 C   0  0  0  0  0  0  0  0  0  0  0  0
  -28.3768  -30.3633   19.8018 C   0  0  0  0  0  0  0  0  0  0  0  0
  -25.3316  -19.0189   23.9148 C   0  0  0  0  0  0  0  0  0  0  0  0
  -29.6253  -12.3817   18.3295 C   0  0  0  0  0  0  0  0  0  0  0  0
  -28.6051  -29.6962   21.1545 C   0  0  0  0  0  0  0  0  0  0  0  0
  -28.1855  -12.0853   18.7525 C   0  0  0  0  0  0  0  0  0  0  0  0
  -30.5270  -12.6353   19.5356 C   0  0  0  0  0  0  0  0  0  0  0  0
  -28.6038  -13.3797   20.8851 C   0  0  0  0  0  0  0  0  0  0  0  0
  -27.9771  -28.2978   21.1930 C   0  0  1  0  0  0  0  0  0  0  0  0
  -24.4526  -28.5997   22.5787 C   0  0  1  0  0  0  0  0  0  0  0  0
  -25.8517  -19.6485   25.2114 C   0  0  2  0  0  0  0  0  0  0  0  0
  -27.6445  -13.1723   19.7006 C   0  0  2  0  0  0  0  0  0  0  0  0
  -31.8506  -19.2762   23.3520 C   0  0  0  0  0  0  0  0  0  0  0  0
  -19.5778  -31.4243   27.8948 C   0  0  0  0  0  0  0  0  0  0  0  0
  -23.7205  -19.9699   26.4922 C   0  0  0  0  0  0  0  0  0  0  0  0
  -25.9892  -30.6980   26.3993 C   0  0  0  0  0  0  0  0  0  0  0  0
  -24.2332  -31.3024   28.0784 C   0  0  0  0  0  0  0  0  0  0  0  0
  -24.4423  -32.6150   25.9674 C   0  0  0  0  0  0  0  0  0  0  0  0
  -18.7632  -28.8703   25.1948 C   0  0  0  0  0  0  0  0  0  0  0  0
  -30.7512  -17.0019   21.8696 C   0  0  0  0  0  0  0  0  0  0  0  0
  -24.3076  -21.5648   24.6429 C   0  0  0  0  0  0  0  0  0  1  0  0
  -23.4959  -30.2722   25.8815 C   0  0  1  0  0  0  0  0  0  0  0  0
  -19.7937  -30.6628   26.5962 C   0  0  2  0  0  0  0  0  0  0  0  0
  -24.8601  -20.6731   25.7581 C   0  0  2  0  0  0  0  0  0  0  0  0
  -24.5401  -31.1962   26.5693 C   0  0  0  0  0  0  0  0  0  0  0  0
  -25.8633  -11.5791   20.3100 N   0  0  0  0  0  0  0  0  0  0  0  0
  -28.5560  -17.5514   22.6973 N   0  0  0  0  0  0  0  0  0  0  0  0
  -26.2313  -12.8627   20.1588 N   0  0  0  0  0  0  0  0  0  0  0  0
  -23.9960  -28.8013   23.9553 N   0  0  0  0  0  0  0  0  0  0  0  0
  -29.9582  -13.6777   20.3934 N   0  0  0  0  0  0  0  0  0  0  0  0
  -25.4442  -15.0885   20.3510 N   0  0  0  0  0  0  0  0  0  0  0  0
  -21.8660  -12.6104   21.5555 N   0  0  0  0  0  0  0  0  0  0  0  0
  -26.5452  -28.3917   21.3804 N   0  0  0  0  0  0  0  0  0  0  0  0
  -22.1174  -30.7340   26.0032 N   0  0  0  0  0  0  0  0  0  0  0  0
  -30.1005  -15.7667   21.4933 N   0  0  0  0  0  0  0  0  0  0  0  0
  -18.6893  -29.6741   26.4420 N   0  3  0  0  0  0  0  0  0  0  0  0
  -22.6276  -14.7501   21.2390 O   0  0  0  0  0  0  0  0  0  0  0  0
  -26.5289  -28.5649   23.7025 O   0  0  0  0  0  0  0  0  0  0  0  0
  -23.7436  -31.1019   23.6732 O   0  0  0  0  0  0  0  0  0  0  0  0
  -21.3039  -28.8329   27.0526 O   0  0  0  0  0  0  0  0  0  0  0  0
  -31.8562  -15.0005   20.2333 O   0  0  0  0  0  0  0  0  0  0  0  0
  -21.6362   -7.0487   21.7783 O   0  0  0  0  0  0  0  0  0  0  0  0
  -23.7708  -22.7637   25.2004 O   0  0  0  0  0  0  0  0  0  1  0  0
  -18.5943   -6.9631   26.3765 F   0  0  0  0  0  0  0  0  0  0  0  0
  -22.0804   -5.1496   23.7377 F   0  0  0  0  0  0  0  0  0  0  0  0
  1  2  1  0  0  0  0
  1  5  2  0  0  0  0
  2  6  2  0  0  0  0
  3  8  2  0  0  0  0
  3 16  1  0  0  0  0
  4  9  1  0  0  0  0
  4 16  2  0  0  0  0
  5 18  1  0  0  0  0
  6 20  1  0  0  0  0
  7 10  2  0  0  0  0
  7 19  1  0  0  0  0
  8 24  1  0  0  0  0
  9 24  2  0  0  0  0
 10 25  1  0  0  0  0
 11 12  2  0  0  0  0
 11 26  1  0  0  0  0
 12 27  1  0  0  0  0
 13 21  1  0  0  0  0
 13 23  2  0  0  0  0
 14 22  1  0  0  0  0
 14 25  2  0  0  0  0
 15 27  2  0  0  0  0
 15 28  1  0  0  0  0
 16 29  1  0  0  0  0
 17 29  1  0  0  0  0
 17 32  2  0  0  0  0
 17 33  1  0  0  0  0
 18 20  2  0  0  0  0
 18 38  1  0  0  0  0
 19 22  2  0  0  0  0
 19 39  1  0  0  0  0
 20 50  1  0  0  0  0
 21 30  2  0  0  0  0
 21 40  1  0  0  0  0
 22 41  1  0  0  0  0
 23 31  1  0  0  0  0
 23 54  1  0  0  0  0
 24 83  1  0  0  0  0
 25 84  1  0  0  0  0
 26 28  2  0  0  0  0
 26 83  1  0  0  0  0
 27 85  1  0  0  0  0
 28 86  1  0  0  0  0
 29 67  2  0  0  0  0
 30 42  1  0  0  0  0
 30 68  1  0  0  0  0
 31 61  1  0  0  0  0
 31 68  2  0  0  0  0
 32 69  1  0  0  0  0
 32 72  1  0  0  0  0
 33 73  1  0  0  0  0
 33 78  2  0  0  0  0
 34 51  1  0  0  0  0
 34 74  1  0  0  0  0
 34 79  2  0  0  0  0
 35 63  1  0  0  0  0
 35 70  1  0  0  0  0
 35 80  2  0  0  0  0
 36 64  1  0  0  0  0
 36 75  1  0  0  0  0
 36 81  2  0  0  0  0
 37 71  1  0  0  0  0
 37 76  1  0  0  0  0
 37 82  2  0  0  0  0
 38 43  1  0  0  0  0
 39 51  1  0  0  0  0
 40 52  1  0  0  0  0
 41 70  1  0  0  0  0
 42 44  1  0  0  0  0
 43 46  1  0  0  0  0
 44 52  1  0  0  0  0
 45 47  1  0  0  0  0
 45 48  1  0  0  0  0
 46 50  1  0  0  0  0
 47 53  1  0  0  0  0
 48 71  1  0  0  0  0
 49 53  1  0  0  0  0
 49 71  1  0  0  0  0
 50 74  1  0  0  0  0
 51 70  1  0  0  0  0
 52 65  1  0  0  0  0
 53 69  1  0  0  0  0
 55 64  1  0  0  0  0
 56 65  1  0  0  0  0
 57 66  1  0  0  0  0
 58 66  1  0  0  0  0
 59 66  1  0  0  0  0
 60 77  1  0  0  0  0
 61 76  1  0  0  0  0
 62 65  1  0  0  0  0
 62 84  1  0  0  0  0
 63 66  1  0  0  0  0
 63 75  1  0  0  0  0
 64 77  1  0  0  0  0
 67 69  1  0  0  0  0
M  CHG  1  77   1
M  ISO  4  37 100  62 101  76 100  84 101
M  END
> <Batch ID>
0151

> <Smiles>
CNC(C)C(=O)NC(C(=O)N1Cc2cc([101O:1][101CH2:1]C(C)C3CCc4nc(C[100NH:0][100C:0](=O)N5CCCC(n6nc(-c7ccc(Oc8ccc(F)cc8F)cc7)c(C(N)=O)c6N)C5)c(C)cc4C3)ccc2CC1C(=O)NC1CCCc2ccccc21)C(C)(C)C

> <Shape>
0.247

> <Color>
0.195

> <Negative vol penalty>
0.000

$$$$

  -OEChem-04052321433D

 85 94  0     1  0  0  0  0  0999 V2000
  -22.1756  -11.0427   19.2015 C   0  0  0  0  0  0  0  0  0  0  0  0
  -21.7574  -12.3343   19.5055 C   0  0  0  0  0  0  0  0  0  0  0  0
  -29.5832  -26.4530   18.4811 C   0  0  0  0  0  0  0  0  0  0  0  0
  -29.3797  -26.2446   20.8795 C   0  0  0  0  0  0  0  0  0  0  0  0
  -23.4666  -10.6332   19.5325 C   0  0  0  0  0  0  0  0  0  0  0  0
  -22.6297  -13.2168   20.1415 C   0  0  0  0  0  0  0  0  0  0  0  0
  -22.9926  -19.2736   19.3109 C   0  0  0  0  0  0  0  0  0  0  0  0
  -30.8976  -25.9916   18.5525 C   0  0  0  0  0  0  0  0  0  0  0  0
  -30.6941  -25.7832   20.9509 C   0  0  0  0  0  0  0  0  0  0  0  0
  -22.4766  -20.3514   20.0291 C   0  0  0  0  0  0  0  0  0  0  0  0
  -34.1125  -24.8923   21.8059 C   0  0  0  0  0  0  0  0  0  0  0  0
  -34.9322  -25.4217   22.8025 C   0  0  0  0  0  0  0  0  0  0  0  0
  -24.5753  -20.5692   21.1984 C   0  0  0  0  0  0  0  0  0  0  0  0
  -21.5586  -25.5402   24.9592 C   0  0  0  0  0  0  0  0  0  0  0  0
  -34.6264  -27.6333   21.8792 C   0  0  0  0  0  0  0  0  0  0  0  0
  -22.0321  -27.7626   23.4485 C   0  0  0  0  0  0  0  0  0  0  0  0
  -28.8243  -26.5795   19.6447 C   0  0  0  0  0  0  0  0  0  0  0  0
  -26.3975  -26.4736   18.8653 C   0  0  0  0  0  0  0  0  0  0  0  0
  -24.3584  -11.5143   20.1643 C   0  0  0  0  0  0  0  0  0  0  0  0
  -24.3024  -18.8278   19.5392 C   0  0  0  0  0  0  0  0  0  0  0  0
  -23.9335  -12.8183   20.4825 C   0  0  0  0  0  0  0  0  0  0  0  0
  -25.1064  -19.4871   20.4800 C   0  0  0  0  0  0  0  0  0  0  0  0
  -21.6206  -26.7843   25.5769 C   0  0  0  0  0  0  0  0  0  0  0  0
  -21.8614  -27.9217   24.8143 C   0  0  0  0  0  0  0  0  0  0  0  0
  -31.4530  -25.6567   19.7874 C   0  0  0  0  0  0  0  0  0  0  0  0
  -23.2670  -20.9976   20.9751 C   0  0  0  0  0  0  0  0  0  0  0  0
  -33.5498  -25.7333   20.8458 C   0  0  0  0  0  0  0  0  0  0  0  0
  -35.1892  -26.7922   22.8392 C   0  0  0  0  0  0  0  0  0  0  0  0
  -33.8067  -27.1038   20.8825 C   0  0  0  0  0  0  0  0  0  0  0  0
  -27.4666  -27.0566   19.5716 C   0  0  0  0  0  0  0  0  0  0  0  0
  -21.7427  -25.4877   23.5869 C   0  0  0  0  0  0  0  0  0  0  0  0
  -25.3298  -27.3010   19.1141 C   0  0  0  0  0  0  0  0  0  0  0  0
  -26.3718  -25.2898   18.0567 C   0  0  0  0  0  0  0  0  0  0  0  0
  -25.6015  -16.1143   20.5654 C   0  0  0  0  0  0  0  0  0  0  0  0
  -28.3784  -17.6183   19.8242 C   0  0  0  0  0  0  0  0  0  0  0  0
  -30.0421  -20.5594   19.3458 C   0  0  0  0  0  0  0  0  0  0  0  0
  -24.0474  -31.0699   23.5863 C   0  0  0  0  0  0  0  0  0  0  0  0
  -25.7283  -11.0113   20.5450 C   0  0  0  0  0  0  0  0  0  0  0  0
  -24.8531  -17.6807   18.7372 C   0  0  0  0  0  0  0  0  0  0  0  0
  -26.5257  -19.0603   20.7481 C   0  0  0  0  0  0  0  0  0  0  0  0
  -26.7151  -12.1265   20.8807 C   0  0  0  0  0  0  0  0  0  0  0  0
  -24.2798  -31.8586   20.1221 C   0  0  0  0  0  0  0  0  0  0  0  0
  -22.6341  -26.8735   27.9515 C   0  0  0  0  0  0  0  0  0  0  0  0
  -21.7363  -25.6767   27.9089 C   0  0  0  0  0  0  0  0  0  0  0  0
  -26.0704  -13.1470   21.8133 C   0  0  0  0  0  0  0  0  0  0  0  0
  -25.0264  -30.6647   19.5245 C   0  0  0  0  0  0  0  0  0  0  0  0
  -24.7961  -32.2066   21.5166 C   0  0  0  0  0  0  0  0  0  0  0  0
  -25.5533  -29.8886   21.8737 C   0  0  0  0  0  0  0  0  0  0  0  0
  -21.4254  -26.8763   27.0535 C   0  0  0  0  0  0  0  0  0  0  0  0
  -24.8588  -13.8126   21.1497 C   0  0  1  0  0  0  0  0  0  0  0  0
  -26.0281  -16.9854   19.4179 C   0  0  1  0  0  0  0  0  0  0  0  0
  -25.0300  -29.4648   20.4907 C   0  0  2  0  0  0  0  0  0  0  0  0
  -32.3126  -21.4696   18.7857 C   0  0  0  0  0  0  0  0  0  0  0  0
  -29.3194  -17.0107   22.6624 C   0  0  0  0  0  0  0  0  0  0  0  0
  -31.1235  -18.7192   22.3554 C   0  0  0  0  0  0  0  0  0  0  0  0
  -31.0618  -16.6970   20.8960 C   0  0  0  0  0  0  0  0  0  0  0  0
  -29.0399  -21.8644   16.8858 C   0  0  0  0  0  0  0  0  0  0  0  0
  -21.9357  -29.2794   25.4224 C   0  0  0  0  0  0  0  0  0  0  0  0
  -23.3690  -29.7952   25.6047 C   0  0  0  0  0  0  0  0  0  0  0  0
  -21.7795  -22.8523   21.0304 C   0  0  0  0  0  0  0  0  0  1  0  0
  -21.8823  -24.2747   21.5461 C   0  0  0  0  0  0  0  0  0  0  0  0
  -29.3383  -18.5171   20.5657 C   0  0  1  0  0  0  0  0  0  0  0  0
  -30.9667  -21.0245   18.2352 C   0  0  2  0  0  0  0  0  0  0  0  0
  -30.1834  -17.7430   21.6164 C   0  0  0  0  0  0  0  0  0  0  0  0
  -21.9787  -26.5707   22.8129 N   0  0  0  0  0  0  0  0  0  0  0  0
  -27.1106  -28.1686   20.2203 N   0  0  0  0  0  0  0  0  0  0  0  0
  -25.8058  -28.2909   19.9225 N   0  0  0  0  0  0  0  0  0  0  0  0
  -27.0165  -17.9296   19.9430 N   0  0  0  0  0  0  0  0  0  0  0  0
  -24.7720  -31.0262   22.3838 N   0  0  0  0  0  0  0  0  0  0  0  0
  -24.0396  -27.2710   18.7179 N   0  0  0  0  0  0  0  0  0  0  0  0
  -26.0707  -24.0670   18.6718 N   0  0  0  0  0  0  0  0  0  0  0  0
  -25.2903  -14.8179   20.2023 N   0  0  0  0  0  0  0  0  0  0  0  0
  -30.1297  -19.1980   19.5466 N   0  0  0  0  0  0  0  0  0  0  0  0
  -24.0716  -29.9066   24.3459 N   0  0  0  0  0  0  0  0  0  0  0  0
  -30.3580  -22.1688   17.4997 N   0  3  0  0  0  0  0  0  0  0  0  0
  -26.6250  -25.3133   16.8284 O   0  0  0  0  0  0  0  0  0  0  0  0
  -25.5593  -16.5832   21.6968 O   0  0  0  0  0  0  0  0  0  0  0  0
  -28.8211  -16.6790   19.1583 O   0  0  0  0  0  0  0  0  0  0  0  0
  -29.3176  -21.3274   19.9748 O   0  0  0  0  0  0  0  0  0  0  0  0
  -23.4206  -32.0697   23.9532 O   0  0  0  0  0  0  0  0  0  0  0  0
  -32.7355  -25.2062   19.8574 O   0  0  0  0  0  0  0  0  0  0  0  0
  -22.7656  -22.0495   21.6779 O   0  0  0  0  0  0  0  0  0  1  0  0
  -21.6868  -24.2733   22.9550 O   0  0  0  0  0  0  0  0  0  0  0  0
  -35.9751  -27.3007   23.7972 F   0  0  0  0  0  0  0  0  0  0  0  0
  -33.2680  -27.9169   19.9636 F   0  0  0  0  0  0  0  0  0  0  0  0
  1  2  1  0  0  0  0
  1  5  2  0  0  0  0
  2  6  2  0  0  0  0
  3  8  2  0  0  0  0
  3 17  1  0  0  0  0
  4  9  1  0  0  0  0
  4 17  2  0  0  0  0
  5 19  1  0  0  0  0
  6 21  1  0  0  0  0
  7 10  2  0  0  0  0
  7 20  1  0  0  0  0
  8 25  1  0  0  0  0
  9 25  2  0  0  0  0
 10 26  1  0  0  0  0
 11 12  2  0  0  0  0
 11 27  1  0  0  0  0
 12 28  1  0  0  0  0
 13 22  1  0  0  0  0
 13 26  2  0  0  0  0
 14 23  2  0  0  0  0
 14 31  1  0  0  0  0
 15 28  2  0  0  0  0
 15 29  1  0  0  0  0
 16 24  2  0  0  0  0
 16 65  1  0  0  0  0
 17 30  1  0  0  0  0
 18 30  1  0  0  0  0
 18 32  2  0  0  0  0
 18 33  1  0  0  0  0
 19 21  2  0  0  0  0
 19 38  1  0  0  0  0
 20 22  2  0  0  0  0
 20 39  1  0  0  0  0
 21 50  1  0  0  0  0
 22 40  1  0  0  0  0
 23 24  1  0  0  0  0
 23 49  1  0  0  0  0
 24 58  1  0  0  0  0
 25 81  1  0  0  0  0
 26 82  1  0  0  0  0
 27 29  2  0  0  0  0
 27 81  1  0  0  0  0
 28 84  1  0  0  0  0
 29 85  1  0  0  0  0
 30 66  2  0  0  0  0
 31 65  2  0  0  0  0
 31 83  1  0  0  0  0
 32 67  1  0  0  0  0
 32 70  1  0  0  0  0
 33 71  1  0  0  0  0
 33 76  2  0  0  0  0
 34 51  1  0  0  0  0
 34 72  1  0  0  0  0
 34 77  2  0  0  0  0
 35 62  1  0  0  0  0
 35 68  1  0  0  0  0
 35 78  2  0  0  0  0
 36 63  1  0  0  0  0
 36 73  1  0  0  0  0
 36 79  2  0  0  0  0
 37 69  1  0  0  0  0
 37 74  1  0  0  0  0
 37 80  2  0  0  0  0
 38 41  1  0  0  0  0
 39 51  1  0  0  0  0
 40 68  1  0  0  0  0
 41 45  1  0  0  0  0
 42 46  1  0  0  0  0
 42 47  1  0  0  0  0
 43 44  1  0  0  0  0
 43 49  1  0  0  0  0
 44 49  1  0  0  0  0
 45 50  1  0  0  0  0
 46 52  1  0  0  0  0
 47 69  1  0  0  0  0
 48 52  1  0  0  0  0
 48 69  1  0  0  0  0
 50 72  1  0  0  0  0
 51 68  1  0  0  0  0
 52 67  1  0  0  0  0
 53 63  1  0  0  0  0
 54 64  1  0  0  0  0
 55 64  1  0  0  0  0
 56 64  1  0  0  0  0
 57 75  1  0  0  0  0
 58 59  1  0  0  0  0
 59 74  1  0  0  0  0
 60 61  1  0  0  0  0
 60 82  1  0  0  0  0
 61 83  1  0  0  0  0
 62 64  1  0  0  0  0
 62 73  1  0  0  0  0
 63 75  1  0  0  0  0
 66 67  1  0  0  0  0
M  CHG  1  75   1
M  ISO  4  37 100  60 101  74 100  82 101
M  END
> <Batch ID>
0151

> <Smiles>
CNC(C)C(=O)NC(C(=O)N1Cc2cc([101O:1][101CH2:1]COc3cc(C4CC4)c(CC[100NH:0][100C:0](=O)N4CCCC(n5nc(-c6ccc(Oc7ccc(F)cc7F)cc6)c(C(N)=O)c5N)C4)cn3)ccc2CC1C(=O)NC1CCCc2ccccc21)C(C)(C)C

> <Shape>
0.224

> <Color>
0.080

> <Negative vol penalty>
0.000

$$$$

  -OEChem-04052321433D

 94104  0     1  0  0  0  0  0999 V2000
  -24.9928  -19.0470   17.9923 C   0  0  0  0  0  0  0  0  0  0  0  0
  -24.7999  -20.4174   17.8595 C   0  0  0  0  0  0  0  0  0  0  0  0
  -24.0352  -15.6415   21.8301 C   0  0  0  0  0  0  0  0  0  0  0  0
  -25.9132  -15.1723   23.2758 C   0  0  0  0  0  0  0  0  0  0  0  0
  -25.9165  -18.5634   18.9165 C   0  0  0  0  0  0  0  0  0  0  0  0
  -25.5390  -21.3050   18.6423 C   0  0  0  0  0  0  0  0  0  0  0  0
  -25.2500  -27.3746   19.0937 C   0  0  0  0  0  0  0  0  0  0  0  0
  -24.5162  -14.7155   20.9046 C   0  0  0  0  0  0  0  0  0  0  0  0
  -26.3942  -14.2462   22.3503 C   0  0  0  0  0  0  0  0  0  0  0  0
  -24.5874  -28.3178   19.8779 C   0  0  0  0  0  0  0  0  0  0  0  0
  -28.3088  -12.0215   20.2067 C   0  0  0  0  0  0  0  0  0  0  0  0
  -29.6711  -12.0508   19.9083 C   0  0  0  0  0  0  0  0  0  0  0  0
  -22.5522  -28.1591   24.2382 C   0  0  0  0  0  0  0  0  0  0  0  0
  -26.5255  -28.4846   21.3044 C   0  0  0  0  0  0  0  0  0  0  0  0
  -21.3379  -30.0056   23.2620 C   0  0  0  0  0  0  0  0  0  0  0  0
  -29.4506  -14.3258   19.1254 C   0  0  0  0  0  0  0  0  0  0  0  0
  -24.7337  -15.8700   23.0157 C   0  0  0  0  0  0  0  0  0  0  0  0
  -22.9971  -16.7992   24.6370 C   0  0  0  0  0  0  0  0  0  0  0  0
  -26.6579  -19.4458   19.7194 C   0  0  0  0  0  0  0  0  0  0  0  0
  -26.5536  -26.9706   19.4158 C   0  0  0  0  0  0  0  0  0  0  0  0
  -26.4933  -20.8372   19.5638 C   0  0  0  0  0  0  0  0  0  0  0  0
  -21.4236  -27.3494   24.1105 C   0  0  0  0  0  0  0  0  0  0  0  0
  -27.2035  -27.5380   20.5212 C   0  0  0  0  0  0  0  0  0  0  0  0
  -20.2522  -27.8678   23.5585 C   0  0  0  0  0  0  0  0  0  0  0  0
  -22.5093  -29.4872   23.8140 C   0  0  0  0  0  0  0  0  0  0  0  0
  -25.6957  -14.0178   21.1647 C   0  0  0  0  0  0  0  0  0  0  0  0
  -25.2240  -28.8708   20.9852 C   0  0  0  0  0  0  0  0  0  0  0  0
  -27.5174  -13.1443   19.9644 C   0  0  0  0  0  0  0  0  0  0  0  0
  -20.2093  -29.1959   23.1343 C   0  0  0  0  0  0  0  0  0  0  0  0
  -30.2420  -13.2030   19.3677 C   0  0  0  0  0  0  0  0  0  0  0  0
  -28.0884  -14.2965   19.4238 C   0  0  0  0  0  0  0  0  0  0  0  0
  -24.2376  -16.8269   23.9719 C   0  0  0  0  0  0  0  0  0  0  0  0
  -23.0079  -17.9202   25.4306 C   0  0  0  0  0  0  0  0  0  0  0  0
  -21.9306  -15.8453   24.5458 C   0  0  0  0  0  0  0  0  0  0  0  0
  -27.9105  -24.2146   20.2327 C   0  0  0  0  0  0  0  0  0  0  0  0
  -30.6453  -25.9464   20.0220 C   0  0  0  0  0  0  0  0  0  0  0  0
  -32.1512  -29.0072   20.1225 C   0  0  0  0  0  0  0  0  0  0  0  0
  -24.0471  -23.2223   26.3411 C   0  0  0  0  0  0  0  0  0  0  0  0
  -27.6499  -18.8684   20.6981 C   0  0  0  0  0  0  0  0  0  0  0  0
  -27.2646  -25.9719   18.5443 C   0  0  0  0  0  0  0  0  0  0  0  0
  -28.6101  -27.1530   20.8979 C   0  0  0  0  0  0  0  0  0  0  0  0
  -28.0575  -19.8577   21.7849 C   0  0  0  0  0  0  0  0  0  0  0  0
  -26.7560  -21.0925   26.6136 C   0  0  0  0  0  0  0  0  0  0  0  0
  -28.4536  -21.1856   21.1570 C   0  0  0  0  0  0  0  0  0  0  0  0
  -26.2511  -19.7830   26.0082 C   0  0  0  0  0  0  0  0  0  0  0  0
  -22.5356  -25.0955   23.7869 C   0  0  0  0  0  0  0  0  0  0  0  0
  -21.7661  -25.8065   26.0916 C   0  0  0  0  0  0  0  0  0  0  0  0
  -18.8948  -26.3031   22.0610 C   0  0  0  0  0  0  0  0  0  0  0  0
  -26.2765  -22.2899   25.8014 C   0  0  0  0  0  0  0  0  0  0  0  0
  -22.6267  -23.6509   24.2870 C   0  0  0  0  0  0  0  0  0  0  0  0
  -21.8497  -24.3468   26.5286 C   0  0  0  0  0  0  0  0  0  0  0  0
  -24.2717  -21.0559   25.0423 C   0  0  0  0  0  0  0  0  0  0  0  0
  -16.7377  -27.2094   22.5527 C   0  0  0  0  0  0  0  0  0  0  0  0
  -21.4962  -25.9085   24.5795 C   0  0  0  0  0  0  0  0  0  0  0  0
  -27.2638  -21.8206   20.4260 C   0  0  1  0  0  0  0  0  0  0  0  0
  -19.0303  -26.9982   23.4181 C   0  0  2  0  0  0  0  0  0  0  0  0
  -28.4015  -25.2531   19.2641 C   0  0  1  0  0  0  0  0  0  0  0  0
  -24.7226  -19.8092   25.8303 C   0  0  1  0  0  0  0  0  0  0  0  0
  -17.4114  -25.9786   21.9771 C   0  0  2  0  0  0  0  0  0  0  0  0
  -18.0921  -30.6932   20.6381 C   0  0  0  0  0  0  0  0  0  0  0  0
  -24.1294  -30.5422   25.4246 C   0  0  0  0  0  0  0  0  0  0  0  0
  -34.4036  -30.1009   19.9547 C   0  0  0  0  0  0  0  0  0  0  0  0
  -31.3071  -25.0118   22.8501 C   0  0  0  0  0  0  0  0  0  0  0  0
  -33.0158  -26.8372   22.9786 C   0  0  0  0  0  0  0  0  0  0  0  0
  -33.2502  -25.0294   21.2757 C   0  0  0  0  0  0  0  0  0  0  0  0
  -31.3405  -30.5778   17.7487 C   0  0  0  0  0  0  0  0  0  0  0  0
  -19.2354  -30.7577   21.6282 C   0  0  0  0  0  0  0  0  0  0  0  0
  -24.9245  -29.8387   23.1367 C   0  0  0  0  0  0  0  0  0  1  0  0
  -23.7154  -30.3535   23.9512 C   0  0  1  0  0  0  0  0  0  0  0  0
  -31.4557  -26.7856   20.9800 C   0  0  1  0  0  0  0  0  0  0  0  0
  -33.1591  -29.6648   19.1972 C   0  0  2  0  0  0  0  0  0  0  0  0
  -32.2300  -25.9220   22.0154 C   0  0  0  0  0  0  0  0  0  0  0  0
  -24.9821  -17.8820   24.3131 N   0  0  0  0  0  0  0  0  0  0  0  0
  -24.2073  -18.5277   25.2012 N   0  0  0  0  0  0  0  0  0  0  0  0
  -29.2608  -26.1680   20.0183 N   0  0  0  0  0  0  0  0  0  0  0  0
  -24.8214  -22.2768   25.6519 N   0  0  0  0  0  0  0  0  0  0  0  0
  -22.8425  -23.6173   25.7402 N   0  0  0  0  0  0  0  0  0  0  0  0
  -22.1084  -18.4357   26.2951 N   0  0  0  0  0  0  0  0  0  0  0  0
  -21.9387  -14.7485   25.4182 N   0  0  0  0  0  0  0  0  0  0  0  0
  -27.7284  -22.9645   19.6727 N   0  0  0  0  0  0  0  0  0  0  0  0
  -32.3070  -27.6376   20.1567 N   0  0  0  0  0  0  0  0  0  0  0  0
  -17.7125  -27.7294   23.5763 N   0  3  0  0  0  0  0  0  0  0  0  0
  -32.5598  -30.8647   18.5474 N   0  3  0  0  0  0  0  0  0  0  0  0
  -21.0067  -15.9535   23.7042 O   0  0  0  0  0  0  0  0  0  0  0  0
  -27.7130  -24.5241   21.4018 O   0  0  0  0  0  0  0  0  0  0  0  0
  -31.2202  -25.1295   19.2983 O   0  0  0  0  0  0  0  0  0  0  0  0
  -31.3123  -29.6451   20.7548 O   0  0  0  0  0  0  0  0  0  0  0  0
  -24.4097  -23.6860   27.4296 O   0  0  0  0  0  0  0  0  0  0  0  0
  -17.0977  -24.8493   22.7830 O   0  0  0  0  0  0  0  0  0  0  0  0
  -26.1653  -13.1139   20.2619 O   0  0  0  0  0  0  0  0  0  0  0  0
  -24.5750  -29.7972   21.7577 O   0  0  0  0  0  0  0  0  0  1  0  0
  -19.0738  -29.7197   22.5925 O   0  0  0  0  0  0  0  0  0  0  0  0
  -31.5505  -13.2315   19.0827 F   0  0  0  0  0  0  0  0  0  0  0  0
  -27.3334  -15.3787   19.1899 F   0  0  0  0  0  0  0  0  0  0  0  0
  1  2  1  0  0  0  0
  1  5  2  0  0  0  0
  2  6  2  0  0  0  0
  3  8  2  0  0  0  0
  3 17  1  0  0  0  0
  4  9  1  0  0  0  0
  4 17  2  0  0  0  0
  5 19  1  0  0  0  0
  6 21  1  0  0  0  0
  7 10  2  0  0  0  0
  7 20  1  0  0  0  0
  8 26  1  0  0  0  0
  9 26  2  0  0  0  0
 10 27  1  0  0  0  0
 11 12  2  0  0  0  0
 11 28  1  0  0  0  0
 12 30  1  0  0  0  0
 13 22  2  0  0  0  0
 13 25  1  0  0  0  0
 14 23  1  0  0  0  0
 14 27  2  0  0  0  0
 15 25  2  0  0  0  0
 15 29  1  0  0  0  0
 16 30  2  0  0  0  0
 16 31  1  0  0  0  0
 17 32  1  0  0  0  0
 18 32  1  0  0  0  0
 18 33  2  0  0  0  0
 18 34  1  0  0  0  0
 19 21  2  0  0  0  0
 19 39  1  0  0  0  0
 20 23  2  0  0  0  0
 20 40  1  0  0  0  0
 21 55  1  0  0  0  0
 22 24  1  0  0  0  0
 22 54  1  0  0  0  0
 23 41  1  0  0  0  0
 24 29  2  0  0  0  0
 24 56  1  0  0  0  0
 25 69  1  0  0  0  0
 26 90  1  0  0  0  0
 27 91  1  0  0  0  0
 28 31  2  0  0  0  0
 28 90  1  0  0  0  0
 29 92  1  0  0  0  0
 30 93  1  0  0  0  0
 31 94  1  0  0  0  0
 32 73  2  0  0  0  0
 33 74  1  0  0  0  0
 33 78  1  0  0  0  0
 34 79  1  0  0  0  0
 34 84  2  0  0  0  0
 35 57  1  0  0  0  0
 35 80  1  0  0  0  0
 35 85  2  0  0  0  0
 36 70  1  0  0  0  0
 36 75  1  0  0  0  0
 36 86  2  0  0  0  0
 37 71  1  0  0  0  0
 37 81  1  0  0  0  0
 37 87  2  0  0  0  0
 38 76  1  0  0  0  0
 38 77  1  0  0  0  0
 38 88  2  0  0  0  0
 39 42  1  0  0  0  0
 40 57  1  0  0  0  0
 41 75  1  0  0  0  0
 42 44  1  0  0  0  0
 43 45  1  0  0  0  0
 43 49  1  0  0  0  0
 44 55  1  0  0  0  0
 45 58  1  0  0  0  0
 46 50  1  0  0  0  0
 46 54  1  0  0  0  0
 47 51  1  0  0  0  0
 47 54  1  0  0  0  0
 48 56  1  0  0  0  0
 48 59  1  0  0  0  0
 49 76  1  0  0  0  0
 50 77  1  0  0  0  0
 51 77  1  0  0  0  0
 52 58  1  0  0  0  0
 52 76  1  0  0  0  0
 53 59  1  0  0  0  0
 53 82  1  0  0  0  0
 55 80  1  0  0  0  0
 56 82  1  0  0  0  0
 57 75  1  0  0  0  0
 58 74  1  0  0  0  0
 59 89  1  0  0  0  0
 60 67  1  0  0  0  0
 61 69  1  0  0  0  0
 62 71  1  0  0  0  0
 63 72  1  0  0  0  0
 64 72  1  0  0  0  0
 65 72  1  0  0  0  0
 66 83  1  0  0  0  0
 67 92  1  0  0  0  0
 68 69  1  0  0  0  0
 68 91  1  0  0  0  0
 70 72  1  0  0  0  0
 70 81  1  0  0  0  0
 71 83  1  0  0  0  0
 73 74  1  0  0  0  0
M  CHG  2  82   1  83   1
M  ISO  4  38 100  68 101  77 100  91 101
M  END
> <Batch ID>
0151

> <Smiles>
CCOc1cc(C(C)[101CH2:1][101O:1]c2ccc3c(c2)CN(C(=O)C(NC(=O)C(C)NC)C(C)(C)C)C(C(=O)NC2CCCc4ccccc42)C3)cc(C2CC[100N:0]([100C:0](=O)N3CCCC(n4nc(-c5ccc(Oc6ccc(F)cc6F)cc5)c(C(N)=O)c4N)C3)CC2)c1C1CC(O)CN1

> <Shape>
0.221

> <Color>
0.046

> <Negative vol penalty>
0.000

$$$$

  -OEChem-04052321433D

 88 97  0     1  0  0  0  0  0999 V2000
  -29.4404  -36.3999   22.8259 C   0  0  0  0  0  0  0  0  0  0  0  0
  -29.6158  -35.0484   22.5461 C   0  0  0  0  0  0  0  0  0  0  0  0
  -27.4424   -7.3914   23.5944 C   0  0  0  0  0  0  0  0  0  0  0  0
  -26.4201   -6.7521   21.5008 C   0  0  0  0  0  0  0  0  0  0  0  0
  -28.2547  -36.8411   23.4117 C   0  0  0  0  0  0  0  0  0  0  0  0
  -28.6059  -34.1372   22.8531 C   0  0  0  0  0  0  0  0  0  0  0  0
  -27.1047  -29.1054   19.7015 C   0  0  0  0  0  0  0  0  0  0  0  0
  -26.5247   -6.5994   24.2844 C   0  0  0  0  0  0  0  0  0  0  0  0
  -25.5024   -5.9600   22.1908 C   0  0  0  0  0  0  0  0  0  0  0  0
  -27.4236  -27.7594   19.8759 C   0  0  0  0  0  0  0  0  0  0  0  0
  -22.6561   -6.4108   23.9590 C   0  0  0  0  0  0  0  0  0  0  0  0
  -21.3158   -6.4937   23.5816 C   0  0  0  0  0  0  0  0  0  0  0  0
  -25.3427  -27.4248   21.0493 C   0  0  0  0  0  0  0  0  0  0  0  0
  -29.3300  -23.2370   21.1874 C   0  0  0  0  0  0  0  0  0  0  0  0
  -27.4815  -21.4116   20.1708 C   0  0  0  0  0  0  0  0  0  0  0  0
  -21.3208   -4.1378   23.0462 C   0  0  0  0  0  0  0  0  0  0  0  0
  -27.3900   -7.4679   22.2026 C   0  0  0  0  0  0  0  0  0  0  0  0
  -29.5957   -7.8949   20.9941 C   0  0  0  0  0  0  0  0  0  0  0  0
  -27.2258  -35.9362   23.7171 C   0  0  0  0  0  0  0  0  0  0  0  0
  -25.9054  -29.6245   20.2100 C   0  0  0  0  0  0  0  0  0  0  0  0
  -27.4058  -34.5666   23.4448 C   0  0  0  0  0  0  0  0  0  0  0  0
  -25.0098  -28.7771   20.8778 C   0  0  0  0  0  0  0  0  0  0  0  0
  -28.2450  -23.6884   20.4361 C   0  0  0  0  0  0  0  0  0  0  0  0
  -29.4909  -21.8729   21.4304 C   0  0  0  0  0  0  0  0  0  0  0  0
  -27.3207  -22.7758   19.9278 C   0  0  0  0  0  0  0  0  0  0  0  0
  -25.5547   -5.8837   23.5826 C   0  0  0  0  0  0  0  0  0  0  0  0
  -26.5438  -26.9195   20.5524 C   0  0  0  0  0  0  0  0  0  0  0  0
  -23.3288   -5.1913   23.8798 C   0  0  0  0  0  0  0  0  0  0  0  0
  -28.5666  -20.9602   20.9221 C   0  0  0  0  0  0  0  0  0  0  0  0
  -20.6482   -5.3572   23.1253 C   0  0  0  0  0  0  0  0  0  0  0  0
  -22.6611   -4.0549   23.4235 C   0  0  0  0  0  0  0  0  0  0  0  0
  -28.3374   -8.2863   21.4893 C   0  0  0  0  0  0  0  0  0  0  0  0
  -30.0990   -9.0272   20.4017 C   0  0  0  0  0  0  0  0  0  0  0  0
  -30.2511   -6.6215   21.0635 C   0  0  0  0  0  0  0  0  0  0  0  0
  -25.1540  -31.8477   22.3540 C   0  0  0  0  0  0  0  0  0  0  0  0
  -22.1324  -31.2553   21.3336 C   0  0  0  0  0  0  0  0  0  0  0  0
  -19.9409  -29.0849   19.8730 C   0  0  0  0  0  0  0  0  0  0  0  0
  -29.3292  -14.6886   21.2643 C   0  0  0  0  0  0  0  0  0  0  0  0
  -25.9809  -36.4537   24.3932 C   0  0  0  0  0  0  0  0  0  0  0  0
  -25.5639  -31.0727   19.9902 C   0  0  0  0  0  0  0  0  0  0  0  0
  -23.7001  -29.2806   21.4252 C   0  0  0  0  0  0  0  0  0  0  0  0
  -24.8097  -35.4760   24.3437 C   0  0  0  0  0  0  0  0  0  0  0  0
  -28.7216  -13.0498   18.2201 C   0  0  0  0  0  0  0  0  0  0  0  0
  -25.2696  -34.0723   24.7246 C   0  0  0  0  0  0  0  0  0  0  0  0
  -28.6759  -11.5885   18.6660 C   0  0  0  0  0  0  0  0  0  0  0  0
  -30.2017  -18.0733   20.0272 C   0  0  0  0  0  0  0  0  0  0  0  0
  -27.6880  -17.7853   19.9374 C   0  0  0  0  0  0  0  0  0  0  0  0
  -28.0199  -13.9749   19.2159 C   0  0  0  0  0  0  0  0  0  0  0  0
  -30.2668  -16.9622   21.0739 C   0  0  0  0  0  0  0  0  0  0  0  0
  -27.8103  -16.6842   20.9882 C   0  0  0  0  0  0  0  0  0  0  0  0
  -28.4601  -12.3786   21.0529 C   0  0  0  0  0  0  0  0  0  0  0  0
  -26.3235  -33.5510   23.7403 C   0  0  1  0  0  0  0  0  0  0  0  0
  -24.5517  -31.6077   20.9985 C   0  0  1  0  0  0  0  0  0  0  0  0
  -29.2084  -11.4319   20.1016 C   0  0  1  0  0  0  0  0  0  0  0  0
  -28.8468  -18.7817   20.0025 C   0  0  0  0  0  0  0  0  0  0  0  0
  -26.1511  -23.2350   19.1207 C   0  0  0  0  0  0  0  0  0  0  0  0
  -30.6335  -21.9570   23.6756 C   0  0  0  0  0  0  0  0  0  0  0  0
  -32.0043  -21.7434   21.5708 C   0  0  0  0  0  0  0  0  0  0  0  0
  -17.5307  -28.8682   19.2087 C   0  0  0  0  0  0  0  0  0  0  0  0
  -21.3729  -30.7865   24.2514 C   0  0  0  0  0  0  0  0  0  0  0  0
  -19.2765  -29.6739   23.4543 C   0  0  0  0  0  0  0  0  0  0  0  0
  -19.6878  -32.0776   22.9293 C   0  0  0  0  0  0  0  0  0  0  0  0
  -20.6373  -28.7628   17.0147 C   0  0  0  0  0  0  0  0  0  0  0  0
  -28.0940  -25.1533   20.1872 C   0  0  0  0  0  0  0  0  0  1  0  0
  -30.6576  -21.4073   22.2375 C   0  0  0  0  0  0  0  0  0  0  0  0
  -21.0353  -30.3006   21.7382 C   0  0  1  0  0  0  0  0  0  0  0  0
  -18.9258  -29.2748   18.7604 C   0  0  2  0  0  0  0  0  0  0  0  0
  -20.3686  -30.7003   23.0848 C   0  0  0  0  0  0  0  0  0  0  0  0
  -28.0585   -9.5673   21.2338 N   0  0  0  0  0  0  0  0  0  0  0  0
  -29.1486   -9.9906   20.5717 N   0  0  0  0  0  0  0  0  0  0  0  0
  -23.4143  -30.7057   21.1904 N   0  0  0  0  0  0  0  0  0  0  0  0
  -28.5331  -13.7611   20.5756 N   0  0  0  0  0  0  0  0  0  0  0  0
  -29.1330  -16.0457   20.9571 N   0  0  0  0  0  0  0  0  0  0  0  0
  -31.2573   -9.2829   19.7572 N   0  0  0  0  0  0  0  0  0  0  0  0
  -29.5927   -5.5655   21.7082 N   0  0  0  0  0  0  0  0  0  0  0  0
  -25.6950  -33.1092   22.5139 N   0  0  0  0  0  0  0  0  0  0  0  0
  -20.1124  -30.2376   20.6101 N   0  0  0  0  0  0  0  0  0  0  0  0
  -19.2969  -28.4518   17.5747 N   0  3  0  0  0  0  0  0  0  0  0  0
  -31.3938   -6.4304   20.5827 O   0  0  0  0  0  0  0  0  0  0  0  0
  -25.1285  -30.9551   23.1931 O   0  0  0  0  0  0  0  0  0  0  0  0
  -21.8607  -32.4436   21.1445 O   0  0  0  0  0  0  0  0  0  0  0  0
  -20.5207  -28.0195   20.0711 O   0  0  0  0  0  0  0  0  0  0  0  0
  -30.1674  -14.3289   22.1004 O   0  0  0  0  0  0  0  0  0  0  0  0
  -24.6592   -5.1105   24.2555 O   0  0  0  0  0  0  0  0  0  0  0  0
  -28.7103  -19.6169   21.1502 O   0  0  0  0  0  0  0  0  0  0  0  0
  -26.8551  -25.5961   20.7259 O   0  0  0  0  0  0  0  0  0  1  0  0
  -19.3607   -5.4366   22.7645 F   0  0  0  0  0  0  0  0  0  0  0  0
  -23.3018   -2.8804   23.3464 F   0  0  0  0  0  0  0  0  0  0  0  0
  1  2  1  0  0  0  0
  1  5  2  0  0  0  0
  2  6  2  0  0  0  0
  3  8  2  0  0  0  0
  3 17  1  0  0  0  0
  4  9  1  0  0  0  0
  4 17  2  0  0  0  0
  5 19  1  0  0  0  0
  6 21  1  0  0  0  0
  7 10  2  0  0  0  0
  7 20  1  0  0  0  0
  8 26  1  0  0  0  0
  9 26  2  0  0  0  0
 10 27  1  0  0  0  0
 11 12  2  0  0  0  0
 11 28  1  0  0  0  0
 12 30  1  0  0  0  0
 13 22  1  0  0  0  0
 13 27  2  0  0  0  0
 14 23  1  0  0  0  0
 14 24  2  0  0  0  0
 15 25  1  0  0  0  0
 15 29  2  0  0  0  0
 16 30  2  0  0  0  0
 16 31  1  0  0  0  0
 17 32  1  0  0  0  0
 18 32  1  0  0  0  0
 18 33  2  0  0  0  0
 18 34  1  0  0  0  0
 19 21  2  0  0  0  0
 19 39  1  0  0  0  0
 20 22  2  0  0  0  0
 20 40  1  0  0  0  0
 21 52  1  0  0  0  0
 22 41  1  0  0  0  0
 23 25  2  0  0  0  0
 23 64  1  0  0  0  0
 24 29  1  0  0  0  0
 24 65  1  0  0  0  0
 25 56  1  0  0  0  0
 26 84  1  0  0  0  0
 27 86  1  0  0  0  0
 28 31  2  0  0  0  0
 28 84  1  0  0  0  0
 29 85  1  0  0  0  0
 30 87  1  0  0  0  0
 31 88  1  0  0  0  0
 32 69  2  0  0  0  0
 33 70  1  0  0  0  0
 33 74  1  0  0  0  0
 34 75  1  0  0  0  0
 34 79  2  0  0  0  0
 35 53  1  0  0  0  0
 35 76  1  0  0  0  0
 35 80  2  0  0  0  0
 36 66  1  0  0  0  0
 36 71  1  0  0  0  0
 36 81  2  0  0  0  0
 37 67  1  0  0  0  0
 37 77  1  0  0  0  0
 37 82  2  0  0  0  0
 38 72  1  0  0  0  0
 38 73  1  0  0  0  0
 38 83  2  0  0  0  0
 39 42  1  0  0  0  0
 40 53  1  0  0  0  0
 41 71  1  0  0  0  0
 42 44  1  0  0  0  0
 43 45  1  0  0  0  0
 43 48  1  0  0  0  0
 44 52  1  0  0  0  0
 45 54  1  0  0  0  0
 46 49  1  0  0  0  0
 46 55  1  0  0  0  0
 47 50  1  0  0  0  0
 47 55  1  0  0  0  0
 48 72  1  0  0  0  0
 49 73  1  0  0  0  0
 50 73  1  0  0  0  0
 51 54  1  0  0  0  0
 51 72  1  0  0  0  0
 52 76  1  0  0  0  0
 53 71  1  0  0  0  0
 54 70  1  0  0  0  0
 55 85  1  0  0  0  0
 57 65  1  0  0  0  0
 58 65  1  0  0  0  0
 59 67  1  0  0  0  0
 60 68  1  0  0  0  0
 61 68  1  0  0  0  0
 62 68  1  0  0  0  0
 63 78  1  0  0  0  0
 64 86  1  0  0  0  0
 66 68  1  0  0  0  0
 66 77  1  0  0  0  0
 67 78  1  0  0  0  0
 69 70  1  0  0  0  0
M  CHG  1  78   1
M  ISO  4  38 100  64 101  73 100  86 101
M  END
> <Batch ID>
0151

> <Smiles>
CNC(C)C(=O)NC(C(=O)N1Cc2cc([101O:1][101CH2:1]c3cc(C(C)C)c(OC4CC[100N:0]([100C:0](=O)N5CCCC(n6nc(-c7ccc(Oc8ccc(F)cc8F)cc7)c(C(N)=O)c6N)C5)CC4)cc3C)ccc2CC1C(=O)NC1CCCc2ccccc21)C(C)(C)C

> <Shape>
0.268

> <Color>
0.070

> <Negative vol penalty>
0.000

$$$$

  -OEChem-04052321433D

 84 93  0     1  0  0  0  0  0999 V2000
  -29.4831  -34.0868   14.9890 C   0  0  0  0  0  0  0  0  0  0  0  0
  -29.4411  -32.7007   15.0993 C   0  0  0  0  0  0  0  0  0  0  0  0
  -23.5635   -9.6885   19.8560 C   0  0  0  0  0  0  0  0  0  0  0  0
  -23.8669   -9.8908   22.2444 C   0  0  0  0  0  0  0  0  0  0  0  0
  -29.4961  -34.8764   16.1381 C   0  0  0  0  0  0  0  0  0  0  0  0
  -29.4131  -32.1032   16.3589 C   0  0  0  0  0  0  0  0  0  0  0  0
  -26.4744  -26.9656   17.9322 C   0  0  0  0  0  0  0  0  0  0  0  0
  -22.9576   -8.4455   20.0382 C   0  0  0  0  0  0  0  0  0  0  0  0
  -23.2609   -8.6477   22.4266 C   0  0  0  0  0  0  0  0  0  0  0  0
  -26.9027  -25.6467   18.0766 C   0  0  0  0  0  0  0  0  0  0  0  0
  -20.1239   -7.3918   22.4805 C   0  0  0  0  0  0  0  0  0  0  0  0
  -19.1726   -7.2787   23.4943 C   0  0  0  0  0  0  0  0  0  0  0  0
  -27.1749  -26.0010   20.4472 C   0  0  0  0  0  0  0  0  0  0  0  0
  -20.5150   -5.5786   24.5642 C   0  0  0  0  0  0  0  0  0  0  0  0
  -24.0183  -10.4112   20.9591 C   0  0  0  0  0  0  0  0  0  0  0  0
  -24.0139  -12.9532   20.7453 C   0  0  0  0  0  0  0  0  0  0  0  0
  -29.4585  -34.2885   17.4123 C   0  0  0  0  0  0  0  0  0  0  0  0
  -26.4035  -27.8167   19.0444 C   0  0  0  0  0  0  0  0  0  0  0  0
  -29.4270  -32.8855   17.5262 C   0  0  0  0  0  0  0  0  0  0  0  0
  -26.7430  -27.3295   20.3146 C   0  0  0  0  0  0  0  0  0  0  0  0
  -22.8062   -7.9251   21.3235 C   0  0  0  0  0  0  0  0  0  0  0  0
  -27.2558  -25.1651   19.3338 C   0  0  0  0  0  0  0  0  0  0  0  0
  -21.2708   -6.5982   22.5085 C   0  0  0  0  0  0  0  0  0  0  0  0
  -19.3682   -6.3721   24.5361 C   0  0  0  0  0  0  0  0  0  0  0  0
  -21.4663   -5.6917   23.5504 C   0  0  0  0  0  0  0  0  0  0  0  0
  -24.6449  -11.6950   20.7715 C   0  0  0  0  0  0  0  0  0  0  0  0
  -25.0371  -13.8463   20.5406 C   0  0  0  0  0  0  0  0  0  0  0  0
  -22.6269  -13.2850   20.8929 C   0  0  0  0  0  0  0  0  0  0  0  0
  -27.8208  -30.5357   19.8823 C   0  0  0  0  0  0  0  0  0  0  0  0
  -25.7466  -30.3957   22.3724 C   0  0  0  0  0  0  0  0  0  0  0  0
  -23.7699  -28.4829   24.3924 C   0  0  0  0  0  0  0  0  0  0  0  0
  -30.2691  -15.4029   22.1416 C   0  0  0  0  0  0  0  0  0  0  0  0
  -29.5220  -35.1817   18.6260 C   0  0  0  0  0  0  0  0  0  0  0  0
  -25.9139  -29.2290   18.8761 C   0  0  0  0  0  0  0  0  0  0  0  0
  -26.6649  -28.1968   21.5435 C   0  0  0  0  0  0  0  0  0  0  0  0
  -29.1120  -34.4820   19.9192 C   0  0  0  0  0  0  0  0  0  0  0  0
  -29.8629  -13.1148   19.2536 C   0  0  0  0  0  0  0  0  0  0  0  0
  -29.7908  -33.1203   20.0278 C   0  0  0  0  0  0  0  0  0  0  0  0
  -28.4398  -12.5932   19.4435 C   0  0  0  0  0  0  0  0  0  0  0  0
  -30.5832  -18.8550   22.2873 C   0  0  0  0  0  0  0  0  0  0  0  0
  -28.8036  -18.2177   20.6113 C   0  0  0  0  0  0  0  0  0  0  0  0
  -30.5050  -13.5055   20.5810 C   0  0  0  0  0  0  0  0  0  0  0  0
  -30.1566  -17.6655   23.1433 C   0  0  0  0  0  0  0  0  0  0  0  0
  -28.4288  -17.0211   21.4908 C   0  0  0  0  0  0  0  0  0  0  0  0
  -28.2794  -13.9596   21.5622 C   0  0  0  0  0  0  0  0  0  0  0  0
  -28.7493  -21.0947   19.8622 C   0  0  0  0  0  0  0  0  0  0  0  0
  -29.3708  -32.2009   18.8746 C   0  0  1  0  0  0  0  0  0  0  0  0
  -26.3711  -30.1574   19.9970 C   0  0  1  0  0  0  0  0  0  0  0  0
  -29.4702  -22.4342   20.1285 C   0  0  2  0  0  0  0  0  0  0  0  0
  -27.5894  -13.5992   20.2380 C   0  0  2  0  0  0  0  0  0  0  0  0
  -29.4075  -19.3457   21.4450 C   0  0  0  0  0  0  0  0  0  0  0  0
  -30.1837  -21.6712   21.2754 C   0  0  2  0  0  0  0  0  0  0  0  0
  -22.2246  -28.6461   26.3629 C   0  0  0  0  0  0  0  0  0  0  0  0
  -32.0461  -23.3689   21.2432 C   0  0  0  0  0  0  0  0  0  0  0  0
  -28.1494  -30.6984   24.2285 C   0  0  0  0  0  0  0  0  0  0  0  0
  -26.7032  -29.9120   26.1148 C   0  0  0  0  0  0  0  0  0  0  0  0
  -26.1359  -32.0184   24.9049 C   0  0  0  0  0  0  0  0  0  0  0  0
  -21.4794  -27.4489   22.8292 C   0  0  0  0  0  0  0  0  0  0  0  0
  -28.6003  -23.6082   20.5272 C   0  0  0  0  0  0  0  0  0  1  0  0
  -25.7773  -29.7946   23.7569 C   0  0  1  0  0  0  0  0  0  0  0  0
  -22.3310  -28.6516   24.8459 C   0  0  2  0  0  0  0  0  0  0  0  0
  -31.6740  -21.9033   21.4264 C   0  0  1  0  0  0  0  0  0  0  0  0
  -26.6949  -30.5898   24.7280 C   0  0  0  0  0  0  0  0  0  0  0  0
  -25.9665  -11.7773   20.5972 N   0  0  0  0  0  0  0  0  0  0  0  0
  -26.1744  -13.0979   20.4594 N   0  0  0  0  0  0  0  0  0  0  0  0
  -26.1865  -29.5721   21.3264 N   0  0  0  0  0  0  0  0  0  0  0  0
  -29.6570  -14.4250   21.3398 N   0  0  0  0  0  0  0  0  0  0  0  0
  -29.5698  -16.6061   22.3203 N   0  0  0  0  0  0  0  0  0  0  0  0
  -25.0660  -15.1909   20.4238 N   0  0  0  0  0  0  0  0  0  0  0  0
  -21.7092  -12.2454   21.0967 N   0  0  0  0  0  0  0  0  0  0  0  0
  -28.0494  -31.6613   19.1140 N   0  0  0  0  0  0  0  0  0  0  0  0
  -24.3879  -29.6989   24.1913 N   0  0  0  0  0  0  0  0  0  0  0  0
  -29.8779  -20.4230   20.5362 N   0  3  2  0  0  0  0  0  0  0  0  0
  -21.4865  -27.5460   24.3116 N   0  3  0  0  0  0  0  0  0  0  0  0
  -22.2114  -14.4669   20.8291 O   0  0  0  0  0  0  0  0  0  0  0  0
  -28.6689  -29.8575   20.4501 O   0  0  0  0  0  0  0  0  0  0  0  0
  -25.3404  -31.5509   22.2236 O   0  0  0  0  0  0  0  0  0  0  0  0
  -24.2944  -27.3824   24.2361 O   0  0  0  0  0  0  0  0  0  0  0  0
  -31.3746  -15.2118   22.6637 O   0  0  0  0  0  0  0  0  0  0  0  0
  -32.0915  -21.4761   22.7213 O   0  0  0  0  0  0  0  0  0  0  0  0
  -22.2147   -6.7123   21.5017 O   0  0  0  0  0  0  0  0  0  0  0  0
  -27.6779  -23.8688   19.4784 O   0  0  0  0  0  0  0  0  0  1  0  0
  -18.4553   -6.2647   25.5105 F   0  0  0  0  0  0  0  0  0  0  0  0
  -22.5667   -4.9275   23.5833 F   0  0  0  0  0  0  0  0  0  0  0  0
  1  2  1  0  0  0  0
  1  5  2  0  0  0  0
  2  6  2  0  0  0  0
  3  8  2  0  0  0  0
  3 15  1  0  0  0  0
  4  9  1  0  0  0  0
  4 15  2  0  0  0  0
  5 17  1  0  0  0  0
  6 19  1  0  0  0  0
  7 10  2  0  0  0  0
  7 18  1  0  0  0  0
  8 21  1  0  0  0  0
  9 21  2  0  0  0  0
 10 22  1  0  0  0  0
 11 12  2  0  0  0  0
 11 23  1  0  0  0  0
 12 24  1  0  0  0  0
 13 20  1  0  0  0  0
 13 22  2  0  0  0  0
 14 24  2  0  0  0  0
 14 25  1  0  0  0  0
 15 26  1  0  0  0  0
 16 26  1  0  0  0  0
 16 27  2  0  0  0  0
 16 28  1  0  0  0  0
 17 19  2  0  0  0  0
 17 33  1  0  0  0  0
 18 20  2  0  0  0  0
 18 34  1  0  0  0  0
 19 47  1  0  0  0  0
 20 35  1  0  0  0  0
 21 81  1  0  0  0  0
 22 82  1  0  0  0  0
 23 25  2  0  0  0  0
 23 81  1  0  0  0  0
 24 83  1  0  0  0  0
 25 84  1  0  0  0  0
 26 64  2  0  0  0  0
 27 65  1  0  0  0  0
 27 69  1  0  0  0  0
 28 70  1  0  0  0  0
 28 75  2  0  0  0  0
 29 48  1  0  0  0  0
 29 71  1  0  0  0  0
 29 76  2  0  0  0  0
 30 60  1  0  0  0  0
 30 66  1  0  0  0  0
 30 77  2  0  0  0  0
 31 61  1  0  0  0  0
 31 72  1  0  0  0  0
 31 78  2  0  0  0  0
 32 67  1  0  0  0  0
 32 68  1  0  0  0  0
 32 79  2  0  0  0  0
 33 36  1  0  0  0  0
 34 48  1  0  0  0  0
 35 66  1  0  0  0  0
 36 38  1  0  0  0  0
 37 39  1  0  0  0  0
 37 42  1  0  0  0  0
 38 47  1  0  0  0  0
 39 50  1  0  0  0  0
 40 43  1  0  0  0  0
 40 51  1  0  0  0  0
 41 44  1  0  0  0  0
 41 51  1  0  0  0  0
 42 67  1  0  0  0  0
 43 68  1  0  0  0  0
 44 68  1  0  0  0  0
 45 50  1  0  0  0  0
 45 67  1  0  0  0  0
 46 49  1  0  0  0  0
 46 73  1  0  0  0  0
 47 71  1  0  0  0  0
 48 66  1  0  0  0  0
 49 52  1  0  0  0  0
 49 59  1  0  0  0  0
 50 65  1  0  0  0  0
 51 73  1  0  0  0  0
 52 62  1  0  0  0  0
 52 73  1  0  0  0  0
 53 61  1  0  0  0  0
 54 62  1  0  0  0  0
 55 63  1  0  0  0  0
 56 63  1  0  0  0  0
 57 63  1  0  0  0  0
 58 74  1  0  0  0  0
 59 82  1  0  0  0  0
 60 63  1  0  0  0  0
 60 72  1  0  0  0  0
 61 74  1  0  0  0  0
 62 80  1  0  0  0  0
 64 65  1  0  0  0  0
M  CHG  2  73   1  74   1
M  ISO  4  32 100  59 101  68 100  82 101
M  END
> <Batch ID>
0151

> <Smiles>
CNC(C)C(=O)NC(C(=O)N1Cc2cc([101O:1][101CH2:1]C3CN(C4CC[100N:0]([100C:0](=O)N5CCCC(n6nc(-c7ccc(Oc8ccc(F)cc8F)cc7)c(C(N)=O)c6N)C5)CC4)C3C(C)O)ccc2CC1C(=O)NC1CCCc2ccccc21)C(C)(C)C

> <Shape>
0.314

> <Color>
0.167

> <Negative vol penalty>
0.000

$$$$

  -OEChem-04052321433D

 86 96  0     1  0  0  0  0  0999 V2000
  -29.1787  -36.2237   24.9181 C   0  0  0  0  0  0  0  0  0  0  0  0
  -29.5378  -35.3314   23.9130 C   0  0  0  0  0  0  0  0  0  0  0  0
  -24.7168  -15.7809   23.4319 C   0  0  0  0  0  0  0  0  0  0  0  0
  -26.5021  -17.2200   22.6711 C   0  0  0  0  0  0  0  0  0  0  0  0
  -28.2720  -35.8344   25.9031 C   0  0  0  0  0  0  0  0  0  0  0  0
  -28.9911  -34.0488   23.8929 C   0  0  0  0  0  0  0  0  0  0  0  0
  -26.6308  -19.2762   16.5274 C   0  0  0  0  0  0  0  0  0  0  0  0
  -26.9270  -28.9307   19.3255 C   0  0  0  0  0  0  0  0  0  0  0  0
  -27.0454  -20.5381   16.9767 C   0  0  0  0  0  0  0  0  0  0  0  0
  -24.5821  -16.5568   24.5833 C   0  0  0  0  0  0  0  0  0  0  0  0
  -26.3674  -17.9959   23.8224 C   0  0  0  0  0  0  0  0  0  0  0  0
  -27.1154  -27.5726   19.0730 C   0  0  0  0  0  0  0  0  0  0  0  0
  -24.3027  -20.4141   24.9669 C   0  0  0  0  0  0  0  0  0  0  0  0
  -24.3024  -21.8007   24.8157 C   0  0  0  0  0  0  0  0  0  0  0  0
  -25.4983  -27.0368   20.7810 C   0  0  0  0  0  0  0  0  0  0  0  0
  -26.2498  -21.9561   26.2373 C   0  0  0  0  0  0  0  0  0  0  0  0
  -25.6769  -16.1125   22.4759 C   0  0  0  0  0  0  0  0  0  0  0  0
  -24.8370  -15.0668   20.3059 C   0  0  0  0  0  0  0  0  0  0  0  0
  -27.7066  -34.5496   25.8896 C   0  0  0  0  0  0  0  0  0  0  0  0
  -26.0294  -29.3525   20.3169 C   0  0  0  0  0  0  0  0  0  0  0  0
  -28.0770  -33.6414   24.8794 C   0  0  0  0  0  0  0  0  0  0  0  0
  -27.2304  -18.1904   17.1058 C   0  0  0  0  0  0  0  0  0  0  0  0
  -25.2984  -28.4009   21.0424 C   0  0  0  0  0  0  0  0  0  0  0  0
  -28.0377  -20.6731   17.9792 C   0  0  0  0  0  0  0  0  0  0  0  0
  -28.1836  -18.3535   18.0811 C   0  0  0  0  0  0  0  0  0  0  0  0
  -25.4073  -17.6642   24.7785 C   0  0  0  0  0  0  0  0  0  0  0  0
  -26.4032  -26.6253   19.8027 C   0  0  0  0  0  0  0  0  0  0  0  0
  -25.2765  -19.7985   25.7533 C   0  0  0  0  0  0  0  0  0  0  0  0
  -25.2759  -22.5717   25.4509 C   0  0  0  0  0  0  0  0  0  0  0  0
  -26.2501  -20.5695   26.3884 C   0  0  0  0  0  0  0  0  0  0  0  0
  -28.6358  -19.5513   18.5561 C   0  0  0  0  0  0  0  0  0  0  0  0
  -25.8169  -15.3111   21.2866 C   0  0  0  0  0  0  0  0  0  0  0  0
  -25.4615  -14.2543   19.3915 C   0  0  0  0  0  0  0  0  0  0  0  0
  -23.4832  -15.5327   20.2284 C   0  0  0  0  0  0  0  0  0  0  0  0
  -26.2899  -30.9886   23.0296 C   0  0  0  0  0  0  0  0  0  0  0  0
  -23.0518  -30.7982   23.0005 C   0  0  0  0  0  0  0  0  0  0  0  0
  -20.2554  -29.1603   21.9308 C   0  0  0  0  0  0  0  0  0  0  0  0
  -29.3350  -16.3562   18.9793 C   0  0  0  0  0  0  0  0  0  0  0  0
  -26.7669  -34.1583   27.0025 C   0  0  0  0  0  0  0  0  0  0  0  0
  -25.8178  -30.8219   20.5587 C   0  0  0  0  0  0  0  0  0  0  0  0
  -24.3077  -28.8024   22.1034 C   0  0  0  0  0  0  0  0  0  0  0  0
  -25.9472  -32.9074   26.6960 C   0  0  0  0  0  0  0  0  0  0  0  0
  -29.9616  -13.4924   20.6844 C   0  0  0  0  0  0  0  0  0  0  0  0
  -26.8410  -31.8092   26.1288 C   0  0  0  0  0  0  0  0  0  0  0  0
  -28.8520  -12.5625   20.1742 C   0  0  0  0  0  0  0  0  0  0  0  0
  -26.0602  -23.3798   20.9133 C   0  0  0  0  0  0  0  0  0  0  0  0
  -30.5826  -14.3107   19.5585 C   0  0  0  0  0  0  0  0  0  0  0  0
  -28.6088  -14.0507   18.1476 C   0  0  0  0  0  0  0  0  0  0  0  0
  -26.3890  -22.3646   19.8374 C   0  0  0  0  0  0  0  0  0  0  0  0
  -28.3394  -23.7861   20.2555 C   0  0  0  0  0  0  0  0  0  0  0  0
  -27.4867  -32.2497   24.8095 C   0  0  1  0  0  0  0  0  0  0  0  0
  -27.3634  -16.6909   17.1945 C   0  0  1  0  0  0  0  0  0  0  0  0
  -25.2586  -31.1248   21.9454 C   0  0  1  0  0  0  0  0  0  0  0  0
  -27.8399  -13.2416   19.2198 C   0  0  2  0  0  0  0  0  0  0  0  0
  -27.0527  -24.4976   20.6436 C   0  0  1  0  0  0  0  0  0  1  0  0
  -27.9599  -16.0436   15.9595 C   0  0  0  0  0  0  0  0  0  0  0  0
  -17.7524  -29.2177   22.1015 C   0  0  0  0  0  0  0  0  0  0  0  0
  -23.2196  -29.6367   25.8170 C   0  0  0  0  0  0  0  0  0  0  0  0
  -20.8573  -28.8491   25.5578 C   0  0  0  0  0  0  0  0  0  0  0  0
  -21.3727  -31.2885   25.4781 C   0  0  0  0  0  0  0  0  0  0  0  0
  -19.9493  -29.5449   19.0124 C   0  0  0  0  0  0  0  0  0  0  0  0
  -28.4453  -22.0397   18.4212 C   0  0  0  0  0  0  0  0  0  0  0  0
  -22.0337  -29.8178   23.5308 C   0  0  1  0  0  0  0  0  0  0  0  0
  -18.9681  -29.6672   21.3061 C   0  0  2  0  0  0  0  0  0  0  0  0
  -21.8909  -29.8901   25.0773 C   0  0  0  0  0  0  0  0  0  0  0  0
  -26.9759  -14.7029   21.0203 N   0  0  0  0  0  0  0  0  0  0  0  0
  -26.7281  -14.0683   19.8619 N   0  0  0  0  0  0  0  0  0  0  0  0
  -28.3772  -16.9946   18.2322 N   0  0  0  0  0  0  0  0  0  0  0  0
  -24.1407  -30.2509   22.3073 N   0  0  0  0  0  0  0  0  0  0  0  0
  -29.5397  -14.9857   18.7850 N   0  0  0  0  0  0  0  0  0  0  0  0
  -25.0452  -13.6878   18.2390 N   0  0  0  0  0  0  0  0  0  0  0  0
  -23.2298  -16.7426   19.5679 N   0  0  0  0  0  0  0  0  0  0  0  0
  -26.5332  -32.1579   23.7247 N   0  0  0  0  0  0  0  0  0  0  0  0
  -20.7966  -30.0805   22.8035 N   0  0  0  0  0  0  0  0  0  0  0  0
  -27.8994  -22.4152   19.7540 N   0  3  2  0  0  0  0  0  0  0  0  0
  -18.8328  -29.1571   19.9124 N   0  3  0  0  0  0  0  0  0  0  0  0
  -22.5287  -14.9033   20.7444 O   0  0  0  0  0  0  0  0  0  0  0  0
  -26.8243  -29.9028   23.2223 O   0  0  0  0  0  0  0  0  0  0  0  0
  -22.8833  -32.0057   23.1880 O   0  0  0  0  0  0  0  0  0  0  0  0
  -20.7312  -28.0566   21.6735 O   0  0  0  0  0  0  0  0  0  0  0  0
  -30.0229  -16.9917   19.7915 O   0  0  0  0  0  0  0  0  0  0  0  0
  -25.2760  -18.4216   25.9017 O   0  0  0  0  0  0  0  0  0  0  0  0
  -26.5868  -25.2903   19.5571 O   0  0  0  0  0  0  0  0  0  1  0  0
  -25.2764  -23.9032   25.3044 F   0  0  0  0  0  0  0  0  0  0  0  0
  -27.1889  -19.9836   27.1442 F   0  0  0  0  0  0  0  0  0  0  0  0
  -29.5727  -19.6502   19.5034 F   0  0  0  0  0  0  0  0  0  0  0  0
  1  2  1  0  0  0  0
  1  5  2  0  0  0  0
  2  6  2  0  0  0  0
  3 10  2  0  0  0  0
  3 17  1  0  0  0  0
  4 11  1  0  0  0  0
  4 17  2  0  0  0  0
  5 19  1  0  0  0  0
  6 21  1  0  0  0  0
  7  9  2  0  0  0  0
  7 22  1  0  0  0  0
  8 12  2  0  0  0  0
  8 20  1  0  0  0  0
  9 24  1  0  0  0  0
 10 26  1  0  0  0  0
 11 26  2  0  0  0  0
 12 27  1  0  0  0  0
 13 14  2  0  0  0  0
 13 28  1  0  0  0  0
 14 29  1  0  0  0  0
 15 23  1  0  0  0  0
 15 27  2  0  0  0  0
 16 29  2  0  0  0  0
 16 30  1  0  0  0  0
 17 32  1  0  0  0  0
 18 32  1  0  0  0  0
 18 33  2  0  0  0  0
 18 34  1  0  0  0  0
 19 21  2  0  0  0  0
 19 39  1  0  0  0  0
 20 23  2  0  0  0  0
 20 40  1  0  0  0  0
 21 51  1  0  0  0  0
 22 25  2  0  0  0  0
 22 52  1  0  0  0  0
 23 41  1  0  0  0  0
 24 31  2  0  0  0  0
 24 62  1  0  0  0  0
 25 31  1  0  0  0  0
 25 68  1  0  0  0  0
 26 82  1  0  0  0  0
 27 83  1  0  0  0  0
 28 30  2  0  0  0  0
 28 82  1  0  0  0  0
 29 84  1  0  0  0  0
 30 85  1  0  0  0  0
 31 86  1  0  0  0  0
 32 66  2  0  0  0  0
 33 67  1  0  0  0  0
 33 71  1  0  0  0  0
 34 72  1  0  0  0  0
 34 77  2  0  0  0  0
 35 53  1  0  0  0  0
 35 73  1  0  0  0  0
 35 78  2  0  0  0  0
 36 63  1  0  0  0  0
 36 69  1  0  0  0  0
 36 79  2  0  0  0  0
 37 64  1  0  0  0  0
 37 74  1  0  0  0  0
 37 80  2  0  0  0  0
 38 68  1  0  0  0  0
 38 70  1  0  0  0  0
 38 81  2  0  0  0  0
 39 42  1  0  0  0  0
 40 53  1  0  0  0  0
 41 69  1  0  0  0  0
 42 44  1  0  0  0  0
 43 45  1  0  0  0  0
 43 47  1  0  0  0  0
 44 51  1  0  0  0  0
 45 54  1  0  0  0  0
 46 49  1  0  0  0  0
 46 55  1  0  0  0  0
 47 70  1  0  0  0  0
 48 54  1  0  0  0  0
 48 70  1  0  0  0  0
 49 75  1  0  0  0  0
 50 55  1  0  0  0  0
 50 75  1  0  0  0  0
 51 73  1  0  0  0  0
 52 56  1  0  0  0  0
 52 68  1  0  0  0  0
 53 69  1  0  0  0  0
 54 67  1  0  0  0  0
 55 83  1  0  0  0  0
 57 64  1  0  0  0  0
 58 65  1  0  0  0  0
 59 65  1  0  0  0  0
 60 65  1  0  0  0  0
 61 76  1  0  0  0  0
 62 75  1  0  0  0  0
 63 65  1  0  0  0  0
 63 74  1  0  0  0  0
 64 76  1  0  0  0  0
 66 67  1  0  0  0  0
M  CHG  2  75   1  76   1
M  ISO  4  38 100  55 101  68 100  83 101
M  END
> <Batch ID>
0151

> <Smiles>
CNC(C)C(=O)NC(C(=O)N1Cc2cc([101O:1][101CH:1]3CCN(Cc4ccc5c(c4F)[100N:0]([100C:0](=O)N4CCCC(n6nc(-c7ccc(Oc8ccc(F)cc8F)cc7)c(C(N)=O)c6N)C4)C5C)C3)ccc2CC1C(=O)NC1CCCc2ccccc21)C(C)(C)C

> <Shape>
0.234

> <Color>
0.079

> <Negative vol penalty>
0.000

$$$$

  -OEChem-04052321433D

 87 96  0     1  0  0  0  0  0999 V2000
  -18.7958  -25.9930   25.4511 C   0  0  0  0  0  0  0  0  0  0  0  0
  -20.0202  -25.6203   24.9058 C   0  0  0  0  0  0  0  0  0  0  0  0
  -24.4422  -16.0757   21.7644 C   0  0  0  0  0  0  0  0  0  0  0  0
  -23.4074  -15.6405   19.6250 C   0  0  0  0  0  0  0  0  0  0  0  0
  -18.0411  -26.9969   24.8457 C   0  0  0  0  0  0  0  0  0  0  0  0
  -20.4901  -26.2505   23.7542 C   0  0  0  0  0  0  0  0  0  0  0  0
  -26.3191  -27.5204   22.3699 C   0  0  0  0  0  0  0  0  0  0  0  0
  -23.8042  -17.3148   21.8209 C   0  0  0  0  0  0  0  0  0  0  0  0
  -22.7694  -16.8796   19.6815 C   0  0  0  0  0  0  0  0  0  0  0  0
  -27.2548  -26.8719   21.5650 C   0  0  0  0  0  0  0  0  0  0  0  0
  -20.5841  -19.7743   19.4306 C   0  0  0  0  0  0  0  0  0  0  0  0
  -19.2333  -19.8253   19.0868 C   0  0  0  0  0  0  0  0  0  0  0  0
  -26.6908  -28.3409   19.7365 C   0  0  0  0  0  0  0  0  0  0  0  0
  -29.6013  -24.6167   19.5690 C   0  0  0  0  0  0  0  0  0  0  0  0
  -18.7212  -18.2771   20.8695 C   0  0  0  0  0  0  0  0  0  0  0  0
  -24.2438  -15.2385   20.6664 C   0  0  0  0  0  0  0  0  0  0  0  0
  -24.4177  -12.7293   21.0919 C   0  0  0  0  0  0  0  0  0  0  0  0
  -18.5064  -27.6464   23.6915 C   0  0  0  0  0  0  0  0  0  0  0  0
  -25.5533  -28.5787   21.8600 C   0  0  0  0  0  0  0  0  0  0  0  0
  -19.7403  -27.2631   23.1320 C   0  0  0  0  0  0  0  0  0  0  0  0
  -25.7480  -29.0028   20.5378 C   0  0  0  0  0  0  0  0  0  0  0  0
  -29.5941  -23.2266   19.6021 C   0  0  0  0  0  0  0  0  0  0  0  0
  -28.3854  -22.5416   19.5458 C   0  0  0  0  0  0  0  0  0  0  0  0
  -22.9678  -17.7168   20.7794 C   0  0  0  0  0  0  0  0  0  0  0  0
  -27.4387  -27.2802   20.2472 C   0  0  0  0  0  0  0  0  0  0  0  0
  -21.0036  -18.9747   20.4938 C   0  0  0  0  0  0  0  0  0  0  0  0
  -18.3018  -19.0768   19.8063 C   0  0  0  0  0  0  0  0  0  0  0  0
  -20.0721  -18.2261   21.2132 C   0  0  0  0  0  0  0  0  0  0  0  0
  -24.9030  -13.9587   20.6072 C   0  0  0  0  0  0  0  0  0  0  0  0
  -27.2209  -23.2873   19.4578 C   0  0  0  0  0  0  0  0  0  0  0  0
  -28.3824  -25.2695   19.4798 C   0  0  0  0  0  0  0  0  0  1  0  0
  -25.4099  -11.8272   20.7946 C   0  0  0  0  0  0  0  0  0  0  0  0
  -23.1806  -12.4295   21.7517 C   0  0  0  0  0  0  0  0  0  0  0  0
  -22.4490  -29.0815   21.3973 C   0  0  0  0  0  0  0  0  0  0  0  0
  -28.7497  -20.4350   18.2588 C   0  0  0  0  0  0  0  0  0  0  0  0
  -23.4495  -32.0594   20.5887 C   0  0  0  0  0  0  0  0  0  0  0  0
  -25.9741  -34.0620   19.4650 C   0  0  0  0  0  0  0  0  0  0  0  0
  -28.9122  -15.0340   17.7552 C   0  0  0  0  0  0  0  0  0  0  0  0
  -17.6334  -28.6930   23.0456 C   0  0  0  0  0  0  0  0  0  0  0  0
  -24.5672  -29.2852   22.7493 C   0  0  0  0  0  0  0  0  0  0  0  0
  -24.9655  -30.1469   19.9486 C   0  0  0  0  0  0  0  0  0  0  0  0
  -18.3762  -29.5707   22.0416 C   0  0  0  0  0  0  0  0  0  0  0  0
  -29.4161  -13.3077   21.0368 C   0  0  0  0  0  0  0  0  0  0  0  0
  -19.2295  -28.7137   21.1119 C   0  0  0  0  0  0  0  0  0  0  0  0
  -28.7868  -11.9464   20.7478 C   0  0  0  0  0  0  0  0  0  0  0  0
  -29.9651  -13.9348   19.7629 C   0  0  0  0  0  0  0  0  0  0  0  0
  -29.0891  -18.3879   16.9184 C   0  0  0  0  0  0  0  0  0  0  0  0
  -28.1622  -18.1540   19.2074 C   0  0  0  0  0  0  0  0  0  0  0  0
  -29.9898  -17.1865   17.1742 C   0  0  0  0  0  0  0  0  0  0  0  0
  -29.0493  -16.9285   19.4353 C   0  0  0  0  0  0  0  0  0  0  0  0
  -28.2814  -12.7344   18.3947 C   0  0  0  0  0  0  0  0  0  0  0  0
  -20.2953  -27.9405   21.8978 C   0  0  1  0  0  0  0  0  0  0  0  0
  -23.4770  -30.0153   21.9709 C   0  0  1  0  0  0  0  0  0  0  0  0
  -27.7185  -12.0176   19.6385 C   0  0  2  0  0  0  0  0  0  0  0  0
  -30.8925  -22.4956   19.6987 C   0  0  0  0  0  0  0  0  0  0  0  0
  -25.8924  -22.6070   19.3945 C   0  0  0  0  0  0  0  0  0  0  0  0
  -26.4799  -36.4464   18.8683 C   0  0  0  0  0  0  0  0  0  0  0  0
  -21.9228  -31.7249   17.9681 C   0  0  0  0  0  0  0  0  0  0  0  0
  -23.2136  -33.6635   17.0495 C   0  0  0  0  0  0  0  0  0  0  0  0
  -21.7134  -33.9859   19.0162 C   0  0  0  0  0  0  0  0  0  0  0  0
  -28.0693  -34.2599   21.5459 C   0  0  0  0  0  0  0  0  0  0  0  0
  -28.3470  -21.0428   19.5789 C   0  0  0  0  0  0  0  0  0  0  0  0
  -23.8876  -32.7292   19.3087 C   0  0  1  0  0  0  0  0  0  0  0  0
  -26.5020  -35.3942   19.9661 C   0  0  2  0  0  0  0  0  0  0  0  0
  -22.6979  -33.0030   18.3458 C   0  0  0  0  0  0  0  0  0  0  0  0
  -26.1098  -13.8511   20.0449 N   0  0  0  0  0  0  0  0  0  0  0  0
  -27.1881  -24.6384   19.4232 N   0  0  0  0  0  0  0  0  0  0  0  0
  -26.3911  -12.5433   20.1744 N   0  0  0  0  0  0  0  0  0  0  0  0
  -24.0088  -30.8018   20.8560 N   0  0  0  0  0  0  0  0  0  0  0  0
  -28.7058  -19.0425   18.1720 N   0  0  0  0  0  0  0  0  0  0  0  0
  -28.9457  -14.0026   18.7094 N   0  0  0  0  0  0  0  0  0  0  0  0
  -29.3927  -16.2885   18.1601 N   0  0  0  0  0  0  0  0  0  0  0  0
  -25.5301  -10.4993   21.0058 N   0  0  0  0  0  0  0  0  0  0  0  0
  -22.2741  -13.4740   21.9785 N   0  0  0  0  0  0  0  0  0  0  0  0
  -21.3954  -28.8124   22.2499 N   0  0  0  0  0  0  0  0  0  0  0  0
  -24.6231  -33.9252   19.7048 N   0  0  0  0  0  0  0  0  0  0  0  0
  -27.9044  -35.2474   20.4483 N   0  3  0  0  0  0  0  0  0  0  0  0
  -22.8949  -11.2726   22.1437 O   0  0  0  0  0  0  0  0  0  0  0  0
  -22.5998  -28.6392   20.2645 O   0  0  0  0  0  0  0  0  0  0  0  0
  -29.0962  -21.1756   17.3350 O   0  0  0  0  0  0  0  0  0  0  0  0
  -22.6463  -32.6341   21.3277 O   0  0  0  0  0  0  0  0  0  0  0  0
  -26.6879  -33.2279   18.9126 O   0  0  0  0  0  0  0  0  0  0  0  0
  -28.4677  -14.8457   16.6160 O   0  0  0  0  0  0  0  0  0  0  0  0
  -22.3449  -18.9257   20.8343 O   0  0  0  0  0  0  0  0  0  0  0  0
  -28.3639  -26.6395   19.4479 O   0  0  0  0  0  0  0  0  0  1  0  0
  -17.0044  -19.1271   19.4770 F   0  0  0  0  0  0  0  0  0  0  0  0
  -20.4688  -17.4569   22.2363 F   0  0  0  0  0  0  0  0  0  0  0  0
  1  2  1  0  0  0  0
  1  5  2  0  0  0  0
  2  6  2  0  0  0  0
  3  8  2  0  0  0  0
  3 16  1  0  0  0  0
  4  9  1  0  0  0  0
  4 16  2  0  0  0  0
  5 18  1  0  0  0  0
  6 20  1  0  0  0  0
  7 10  2  0  0  0  0
  7 19  1  0  0  0  0
  8 24  1  0  0  0  0
  9 24  2  0  0  0  0
 10 25  1  0  0  0  0
 11 12  2  0  0  0  0
 11 26  1  0  0  0  0
 12 27  1  0  0  0  0
 13 21  1  0  0  0  0
 13 25  2  0  0  0  0
 14 22  2  0  0  0  0
 14 31  1  0  0  0  0
 15 27  2  0  0  0  0
 15 28  1  0  0  0  0
 16 29  1  0  0  0  0
 17 29  1  0  0  0  0
 17 32  2  0  0  0  0
 17 33  1  0  0  0  0
 18 20  2  0  0  0  0
 18 39  1  0  0  0  0
 19 21  2  0  0  0  0
 19 40  1  0  0  0  0
 20 52  1  0  0  0  0
 21 41  1  0  0  0  0
 22 23  1  0  0  0  0
 22 55  1  0  0  0  0
 23 30  2  0  0  0  0
 23 62  1  0  0  0  0
 24 84  1  0  0  0  0
 25 85  1  0  0  0  0
 26 28  2  0  0  0  0
 26 84  1  0  0  0  0
 27 86  1  0  0  0  0
 28 87  1  0  0  0  0
 29 66  2  0  0  0  0
 30 56  1  0  0  0  0
 30 67  1  0  0  0  0
 31 67  2  0  0  0  0
 31 85  1  0  0  0  0
 32 68  1  0  0  0  0
 32 73  1  0  0  0  0
 33 74  1  0  0  0  0
 33 78  2  0  0  0  0
 34 53  1  0  0  0  0
 34 75  1  0  0  0  0
 34 79  2  0  0  0  0
 35 62  1  0  0  0  0
 35 70  1  0  0  0  0
 35 80  2  0  0  0  0
 36 63  1  0  0  0  0
 36 69  1  0  0  0  0
 36 81  2  0  0  0  0
 37 64  1  0  0  0  0
 37 76  1  0  0  0  0
 37 82  2  0  0  0  0
 38 71  1  0  0  0  0
 38 72  1  0  0  0  0
 38 83  2  0  0  0  0
 39 42  1  0  0  0  0
 40 53  1  0  0  0  0
 41 69  1  0  0  0  0
 42 44  1  0  0  0  0
 43 45  1  0  0  0  0
 43 46  1  0  0  0  0
 44 52  1  0  0  0  0
 45 54  1  0  0  0  0
 46 71  1  0  0  0  0
 47 49  1  0  0  0  0
 47 70  1  0  0  0  0
 48 50  1  0  0  0  0
 48 70  1  0  0  0  0
 49 72  1  0  0  0  0
 50 72  1  0  0  0  0
 51 54  1  0  0  0  0
 51 71  1  0  0  0  0
 52 75  1  0  0  0  0
 53 69  1  0  0  0  0
 54 68  1  0  0  0  0
 57 64  1  0  0  0  0
 58 65  1  0  0  0  0
 59 65  1  0  0  0  0
 60 65  1  0  0  0  0
 61 77  1  0  0  0  0
 63 65  1  0  0  0  0
 63 76  1  0  0  0  0
 64 77  1  0  0  0  0
 66 68  1  0  0  0  0
M  CHG  1  77   1
M  ISO  4  31 101  38 100  72 100  85 101
M  END
> <Batch ID>
0151

> <Smiles>
CNC(C)C(=O)NC(C(=O)N1Cc2cc([101O:1][101c:1]3cc(C)c(CC(=O)N4CC[100N:0]([100C:0](=O)N5CCCC(n6nc(-c7ccc(Oc8ccc(F)cc8F)cc7)c(C(N)=O)c6N)C5)CC4)c(C)n3)ccc2CC1C(=O)NC1CCCc2ccccc21)C(C)(C)C

> <Shape>
0.252

> <Color>
0.114

> <Negative vol penalty>
0.000

$$$$

  -OEChem-04052321433D

 84 93  0     1  0  0  0  0  0999 V2000
  -28.2201  -23.1424   16.6345 C   0  0  0  0  0  0  0  0  0  0  0  0
  -27.0565  -23.3659   17.3636 C   0  0  0  0  0  0  0  0  0  0  0  0
  -24.7348  -13.4467   19.7605 C   0  0  0  0  0  0  0  0  0  0  0  0
  -25.4588  -13.2199   22.0543 C   0  0  0  0  0  0  0  0  0  0  0  0
  -29.4316  -23.6708   17.0781 C   0  0  0  0  0  0  0  0  0  0  0  0
  -27.1041  -24.1171   18.5374 C   0  0  0  0  0  0  0  0  0  0  0  0
  -23.3385  -27.4896   18.8396 C   0  0  0  0  0  0  0  0  0  0  0  0
  -25.2614  -12.1882   19.4698 C   0  0  0  0  0  0  0  0  0  0  0  0
  -25.9853  -11.9614   21.7637 C   0  0  0  0  0  0  0  0  0  0  0  0
  -22.0819  -27.0097   19.2062 C   0  0  0  0  0  0  0  0  0  0  0  0
  -27.2013   -8.5355   21.7117 C   0  0  0  0  0  0  0  0  0  0  0  0
  -26.9441   -7.5007   22.6109 C   0  0  0  0  0  0  0  0  0  0  0  0
  -22.4541  -27.7764   21.4630 C   0  0  0  0  0  0  0  0  0  0  0  0
  -20.5419  -23.6682   23.1315 C   0  0  0  0  0  0  0  0  0  0  0  0
  -20.2614  -21.2546   22.7927 C   0  0  0  0  0  0  0  0  0  0  0  0
  -24.5712   -7.7760   22.2491 C   0  0  0  0  0  0  0  0  0  0  0  0
  -24.8335  -13.9626   21.0527 C   0  0  0  0  0  0  0  0  0  0  0  0
  -22.9863  -15.5581   21.7943 C   0  0  0  0  0  0  0  0  0  0  0  0
  -29.4924  -24.4370   18.2528 C   0  0  0  0  0  0  0  0  0  0  0  0
  -24.1682  -28.1078   19.7862 C   0  0  0  0  0  0  0  0  0  0  0  0
  -28.3179  -24.6551   18.9979 C   0  0  0  0  0  0  0  0  0  0  0  0
  -23.7197  -28.2655   21.1053 C   0  0  0  0  0  0  0  0  0  0  0  0
  -19.7334  -23.8422   22.0426 C   0  0  0  0  0  0  0  0  0  0  0  0
  -19.4383  -21.4641   21.6844 C   0  0  0  0  0  0  0  0  0  0  0  0
  -19.2166  -22.7694   21.3685 C   0  0  0  0  0  0  0  0  0  0  0  0
  -25.8867  -11.4456   20.4714 C   0  0  0  0  0  0  0  0  0  0  0  0
  -21.6406  -27.1505   20.5187 C   0  0  0  0  0  0  0  0  0  0  0  0
  -26.1434   -9.1907   21.0813 C   0  0  0  0  0  0  0  0  0  0  0  0
  -20.8088  -22.3457   23.5100 C   0  0  0  0  0  0  0  0  0  0  0  0
  -25.6291   -7.1209   22.8796 C   0  0  0  0  0  0  0  0  0  0  0  0
  -24.8284   -8.8109   21.3500 C   0  0  0  0  0  0  0  0  0  0  0  0
  -24.2903  -15.2628   21.3534 C   0  0  0  0  0  0  0  0  0  0  0  0
  -22.9725  -16.9243   21.9346 C   0  0  0  0  0  0  0  0  0  0  0  0
  -21.8861  -14.6762   22.0539 C   0  0  0  0  0  0  0  0  0  0  0  0
  -27.0369  -27.4816   21.0037 C   0  0  0  0  0  0  0  0  0  0  0  0
  -26.6279  -30.3633   22.4357 C   0  0  0  0  0  0  0  0  0  0  0  0
  -24.4745  -32.7604   23.5597 C   0  0  0  0  0  0  0  0  0  0  0  0
  -25.3624  -21.6643   23.6570 C   0  0  0  0  0  0  0  0  0  0  0  0
  -30.8332  -24.9477   18.7178 C   0  0  0  0  0  0  0  0  0  0  0  0
  -25.5100  -28.6439   19.3685 C   0  0  0  0  0  0  0  0  0  0  0  0
  -24.5640  -28.9398   22.1546 C   0  0  0  0  0  0  0  0  0  0  0  0
  -30.7339  -26.0476   19.7717 C   0  0  0  0  0  0  0  0  0  0  0  0
  -26.3193  -20.4194   20.4615 C   0  0  0  0  0  0  0  0  0  0  0  0
  -29.7291  -25.6619   20.8527 C   0  0  0  0  0  0  0  0  0  0  0  0
  -25.7748  -18.9899   20.4478 C   0  0  0  0  0  0  0  0  0  0  0  0
  -26.8253  -20.8172   21.8463 C   0  0  0  0  0  0  0  0  0  0  0  0
  -25.3068  -19.2032   22.9245 C   0  0  0  0  0  0  0  0  0  0  0  0
  -28.3246  -25.4856   20.2629 C   0  0  1  0  0  0  0  0  0  0  0  0
  -19.0312  -24.7442   21.0987 C   0  0  1  0  0  0  0  0  0  0  0  0
  -26.4817  -28.7967   20.5347 C   0  0  1  0  0  0  0  0  0  0  0  0
  -24.7333  -18.7759   21.5626 C   0  0  2  0  0  0  0  0  0  0  0  0
  -18.8541  -20.3441   20.9099 C   0  0  0  0  0  0  0  0  0  0  0  0
  -24.4347  -34.9854   24.7195 C   0  0  0  0  0  0  0  0  0  0  0  0
  -27.2151  -28.9854   25.0940 C   0  0  0  0  0  0  0  0  0  0  0  0
  -26.2457  -30.9771   26.2608 C   0  0  0  0  0  0  0  0  0  0  0  0
  -28.2725  -31.2363   24.8298 C   0  0  0  0  0  0  0  0  0  0  0  0
  -23.1740  -34.0727   21.2477 C   0  0  0  0  0  0  0  0  0  0  0  0
  -19.9171  -25.5497   20.1682 C   0  0  0  0  0  0  0  0  0  1  0  0
  -23.8265  -22.3653   25.4761 C   0  0  0  0  0  0  0  0  0  0  0  0
  -22.6234  -23.0645   24.8688 C   0  0  0  0  0  0  0  0  0  0  0  0
  -26.0277  -30.8342   23.7383 C   0  0  1  0  0  0  0  0  0  0  0  0
  -24.4616  -34.2676   23.3791 C   0  0  2  0  0  0  0  0  0  0  0  0
  -26.9249  -30.4938   24.9616 C   0  0  0  0  0  0  0  0  0  0  0  0
  -25.0496  -16.3538   21.2221 N   0  0  0  0  0  0  0  0  0  0  0  0
  -24.2202  -17.3479   21.5826 N   0  0  0  0  0  0  0  0  0  0  0  0
  -25.8708  -29.4417   21.6987 N   0  0  0  0  0  0  0  0  0  0  0  0
  -25.7896  -20.5914   22.8574 N   0  0  0  0  0  0  0  0  0  0  0  0
  -22.0148  -17.7927   22.3235 N   0  0  0  0  0  0  0  0  0  0  0  0
  -22.0717  -13.3008   21.8586 N   0  0  0  0  0  0  0  0  0  0  0  0
  -27.7105  -26.7745   20.0261 N   0  0  0  0  0  0  0  0  0  0  0  0
  -25.7587  -32.2585   23.5725 N   0  0  0  0  0  0  0  0  0  0  0  0
  -24.3731  -21.3655   24.5859 N   0  0  0  0  0  0  0  0  0  0  0  0
  -23.2631  -34.6855   22.5981 N   0  3  0  0  0  0  0  0  0  0  0  0
  -20.7664  -15.0970   22.4317 O   0  0  0  0  0  0  0  0  0  0  0  0
  -26.8679  -27.1347   22.1668 O   0  0  0  0  0  0  0  0  0  0  0  0
  -27.7249  -30.8026   22.0815 O   0  0  0  0  0  0  0  0  0  0  0  0
  -23.4481  -32.0953   23.6812 O   0  0  0  0  0  0  0  0  0  0  0  0
  -25.8242  -22.8052   23.5474 O   0  0  0  0  0  0  0  0  0  0  0  0
  -18.5649  -23.5052   20.4623 O   0  0  0  0  0  0  0  0  0  0  0  0
  -26.4004  -10.2174   20.1882 O   0  0  0  0  0  0  0  0  0  0  0  0
  -20.4148  -26.6824   20.8793 O   0  0  0  0  0  0  0  0  0  1  0  0
  -21.6094  -22.1029   24.5869 O   0  0  0  0  0  0  0  0  0  0  0  0
  -25.3823   -6.1261   23.7419 F   0  0  0  0  0  0  0  0  0  0  0  0
  -23.8081   -9.4359   20.7465 F   0  0  0  0  0  0  0  0  0  0  0  0
  1  2  1  0  0  0  0
  1  5  2  0  0  0  0
  2  6  2  0  0  0  0
  3  8  2  0  0  0  0
  3 17  1  0  0  0  0
  4  9  1  0  0  0  0
  4 17  2  0  0  0  0
  5 19  1  0  0  0  0
  6 21  1  0  0  0  0
  7 10  2  0  0  0  0
  7 20  1  0  0  0  0
  8 26  1  0  0  0  0
  9 26  2  0  0  0  0
 10 27  1  0  0  0  0
 11 12  2  0  0  0  0
 11 28  1  0  0  0  0
 12 30  1  0  0  0  0
 13 22  1  0  0  0  0
 13 27  2  0  0  0  0
 14 23  1  0  0  0  0
 14 29  2  0  0  0  0
 15 24  2  0  0  0  0
 15 29  1  0  0  0  0
 16 30  2  0  0  0  0
 16 31  1  0  0  0  0
 17 32  1  0  0  0  0
 18 32  1  0  0  0  0
 18 33  2  0  0  0  0
 18 34  1  0  0  0  0
 19 21  2  0  0  0  0
 19 39  1  0  0  0  0
 20 22  2  0  0  0  0
 20 40  1  0  0  0  0
 21 48  1  0  0  0  0
 22 41  1  0  0  0  0
 23 25  2  0  0  0  0
 23 49  1  0  0  0  0
 24 25  1  0  0  0  0
 24 52  1  0  0  0  0
 25 79  1  0  0  0  0
 26 80  1  0  0  0  0
 27 81  1  0  0  0  0
 28 31  2  0  0  0  0
 28 80  1  0  0  0  0
 29 82  1  0  0  0  0
 30 83  1  0  0  0  0
 31 84  1  0  0  0  0
 32 64  2  0  0  0  0
 33 65  1  0  0  0  0
 33 68  1  0  0  0  0
 34 69  1  0  0  0  0
 34 74  2  0  0  0  0
 35 50  1  0  0  0  0
 35 70  1  0  0  0  0
 35 75  2  0  0  0  0
 36 61  1  0  0  0  0
 36 66  1  0  0  0  0
 36 76  2  0  0  0  0
 37 62  1  0  0  0  0
 37 71  1  0  0  0  0
 37 77  2  0  0  0  0
 38 67  1  0  0  0  0
 38 72  1  0  0  0  0
 38 78  2  0  0  0  0
 39 42  1  0  0  0  0
 40 50  1  0  0  0  0
 41 66  1  0  0  0  0
 42 44  1  0  0  0  0
 43 45  1  0  0  0  0
 43 46  1  0  0  0  0
 44 48  1  0  0  0  0
 45 51  1  0  0  0  0
 46 67  1  0  0  0  0
 47 51  1  0  0  0  0
 47 67  1  0  0  0  0
 48 70  1  0  0  0  0
 49 58  1  0  0  0  0
 49 79  1  0  0  0  0
 50 66  1  0  0  0  0
 51 65  1  0  0  0  0
 53 62  1  0  0  0  0
 54 63  1  0  0  0  0
 55 63  1  0  0  0  0
 56 63  1  0  0  0  0
 57 73  1  0  0  0  0
 58 81  1  0  0  0  0
 59 60  1  0  0  0  0
 59 72  1  0  0  0  0
 60 82  1  0  0  0  0
 61 63  1  0  0  0  0
 61 71  1  0  0  0  0
 62 73  1  0  0  0  0
 64 65  1  0  0  0  0
M  CHG  1  73   1
M  ISO  4  38 100  58 101  72 100  81 101
M  END
> <Batch ID>
0151

> <Smiles>
CNC(C)C(=O)NC(C(=O)N1Cc2cc([101O:1][101CH2:1]C3Oc4c(C)cc(OCC[100NH:0][100C:0](=O)N5CCCC(n6nc(-c7ccc(Oc8ccc(F)cc8F)cc7)c(C(N)=O)c6N)C5)cc43)ccc2CC1C(=O)NC1CCCc2ccccc21)C(C)(C)C

> <Shape>
0.213

> <Color>
0.066

> <Negative vol penalty>
0.000

$$$$

  -OEChem-04052321433D

 90 99  0     1  0  0  0  0  0999 V2000
  -28.5247  -32.7087   25.7439 C   0  0  0  0  0  0  0  0  0  0  0  0
  -28.5728  -31.5210   25.0211 C   0  0  0  0  0  0  0  0  0  0  0  0
  -23.1411  -11.8729   18.7119 C   0  0  0  0  0  0  0  0  0  0  0  0
  -23.5065  -10.0103   20.2067 C   0  0  0  0  0  0  0  0  0  0  0  0
  -27.3142  -33.1510   26.2760 C   0  0  0  0  0  0  0  0  0  0  0  0
  -27.4107  -30.7743   24.8309 C   0  0  0  0  0  0  0  0  0  0  0  0
  -26.9059  -29.1469   20.0620 C   0  0  0  0  0  0  0  0  0  0  0  0
  -22.3252  -11.0718   17.9131 C   0  0  0  0  0  0  0  0  0  0  0  0
  -22.6905   -9.2092   19.4079 C   0  0  0  0  0  0  0  0  0  0  0  0
  -27.6685  -28.0435   19.6817 C   0  0  0  0  0  0  0  0  0  0  0  0
  -19.3806   -8.7405   18.9125 C   0  0  0  0  0  0  0  0  0  0  0  0
  -18.4376   -7.9367   19.5529 C   0  0  0  0  0  0  0  0  0  0  0  0
  -25.7449  -26.6188   19.9803 C   0  0  0  0  0  0  0  0  0  0  0  0
  -29.8820  -21.5516   19.8295 C   0  0  0  0  0  0  0  0  0  0  0  0
  -28.5399  -21.5451   17.8206 C   0  0  0  0  0  0  0  0  0  0  0  0
  -19.4683   -5.9695   18.6016 C   0  0  0  0  0  0  0  0  0  0  0  0
  -23.7318  -11.3422   19.8587 C   0  0  0  0  0  0  0  0  0  0  0  0
  -24.1790  -12.9662   21.7745 C   0  0  0  0  0  0  0  0  0  0  0  0
  -26.1348  -32.4142   26.0840 C   0  0  0  0  0  0  0  0  0  0  0  0
  -25.5577  -28.9927   20.4154 C   0  0  0  0  0  0  0  0  0  0  0  0
  -26.1835  -31.2064   25.3620 C   0  0  0  0  0  0  0  0  0  0  0  0
  -24.9667  -27.7222   20.3622 C   0  0  0  0  0  0  0  0  0  0  0  0
  -28.8780  -19.4955   19.0543 C   0  0  0  0  0  0  0  0  0  0  0  0
  -29.6600  -20.1831   19.9823 C   0  0  0  0  0  0  0  0  0  0  0  0
  -22.0998   -9.7400   18.2611 C   0  0  0  0  0  0  0  0  0  0  0  0
  -27.0889  -26.7787   19.6436 C   0  0  0  0  0  0  0  0  0  0  0  0
  -20.3675   -8.1588   18.1165 C   0  0  0  0  0  0  0  0  0  0  0  0
  -29.3219  -22.2327   18.7486 C   0  0  0  0  0  0  0  0  0  0  0  0
  -18.4814   -6.5512   19.3975 C   0  0  0  0  0  0  0  0  0  0  0  0
  -20.4113   -6.7733   17.9611 C   0  0  0  0  0  0  0  0  0  0  0  0
  -28.3179  -20.1765   17.9734 C   0  0  0  0  0  0  0  0  0  0  0  0
  -24.5753  -12.1690   20.6839 C   0  0  0  0  0  0  0  0  0  0  0  0
  -25.3426  -13.5474   22.2156 C   0  0  0  0  0  0  0  0  0  0  0  0
  -22.8756  -13.1636   22.3383 C   0  0  0  0  0  0  0  0  0  0  0  0
  -23.8581  -29.4990   23.0534 C   0  0  0  0  0  0  0  0  0  0  0  0
  -21.3622  -28.7519   21.1209 C   0  0  0  0  0  0  0  0  0  0  0  0
  -20.2454  -27.1640   18.3141 C   0  0  0  0  0  0  0  0  0  0  0  0
  -30.3279  -14.9774   19.6727 C   0  0  0  0  0  0  0  0  0  0  0  0
  -24.8589  -32.9082   26.7185 C   0  0  0  0  0  0  0  0  0  0  0  0
  -24.7416  -30.1970   20.7976 C   0  0  0  0  0  0  0  0  0  0  0  0
  -23.5179  -27.5062   20.7125 C   0  0  0  0  0  0  0  0  0  0  0  0
  -23.6029  -32.2502   26.1529 C   0  0  0  0  0  0  0  0  0  0  0  0
  -30.0609  -12.8131   22.4224 C   0  0  0  0  0  0  0  0  0  0  0  0
  -23.7877  -30.7389   26.0600 C   0  0  0  0  0  0  0  0  0  0  0  0
  -28.5706  -12.4745   22.3980 C   0  0  0  0  0  0  0  0  0  0  0  0
  -30.6621  -12.8551   21.0163 C   0  0  0  0  0  0  0  0  0  0  0  0
  -28.4503  -13.4086   20.0571 C   0  0  0  0  0  0  0  0  0  0  0  0
  -28.1200  -15.2129   18.4561 C   0  0  0  0  0  0  0  0  0  0  0  0
  -24.9397  -30.3812   25.1131 C   0  0  1  0  0  0  0  0  0  0  0  0
  -28.6451  -18.0069   19.2361 C   0  0  2  0  0  0  0  0  0  0  0  0
  -23.5139  -29.8463   21.6326 C   0  0  1  0  0  0  0  0  0  0  0  0
  -27.8053  -13.4166   21.4517 C   0  0  1  0  0  0  0  0  0  0  0  0
  -29.7274  -17.1284   18.5700 C   0  0  2  0  0  0  0  0  0  0  0  0
  -26.9975  -16.0680   19.0488 C   0  0  1  0  0  0  0  0  0  0  0  0
  -30.2714  -19.4790   21.1493 C   0  0  0  0  0  0  0  0  0  0  0  0
  -26.7756  -15.8291   20.5387 C   0  0  0  0  0  0  0  0  0  0  0  0
  -30.9772  -16.4904   16.5021 C   0  0  0  0  0  0  0  0  0  0  0  0
  -18.1485  -26.6992   17.0162 C   0  0  0  0  0  0  0  0  0  0  0  0
  -20.5478  -26.6623   23.1898 C   0  0  0  0  0  0  0  0  0  0  0  0
  -19.0765  -25.6183   21.4538 C   0  0  0  0  0  0  0  0  0  0  0  0
  -18.6455  -27.9563   22.2093 C   0  0  0  0  0  0  0  0  0  0  0  0
  -21.2794  -28.5618   15.9191 C   0  0  0  0  0  0  0  0  0  0  0  0
  -29.8968  -17.3518   17.0611 C   0  0  0  0  0  0  0  0  0  0  0  0
  -29.2273  -25.7411   19.5642 C   0  0  0  0  0  0  0  0  0  1  0  0
  -29.7352  -24.3303   19.7903 C   0  0  0  0  0  0  0  0  0  0  0  0
  -20.6477  -27.4772   20.7419 C   0  0  1  0  0  0  0  0  0  0  0  0
  -19.3405  -27.6280   17.1869 C   0  0  2  0  0  0  0  0  0  0  0  0
  -19.7572  -26.9320   21.8939 C   0  0  0  0  0  0  0  0  0  0  0  0
  -25.8880  -12.2355   20.4467 N   0  0  0  0  0  0  0  0  0  0  0  0
  -26.3267  -13.0815   21.3943 N   0  0  0  0  0  0  0  0  0  0  0  0
  -22.7633  -28.7140   21.0861 N   0  0  0  0  0  0  0  0  0  0  0  0
  -29.8753  -13.7344   20.1404 N   0  0  0  0  0  0  0  0  0  0  0  0
  -29.4546  -15.7007   18.8424 N   0  0  0  0  0  0  0  0  0  0  0  0
  -25.6097  -14.4066   23.2221 N   0  0  0  0  0  0  0  0  0  0  0  0
  -21.7897  -12.4897   21.7629 N   0  0  0  0  0  0  0  0  0  0  0  0
  -24.5175  -30.5044   23.7344 N   0  0  0  0  0  0  0  0  0  0  0  0
  -19.9208  -27.7672   19.5107 N   0  0  0  0  0  0  0  0  0  0  0  0
  -27.2837  -17.5205   18.7952 N   0  3  0  0  0  0  0  0  0  0  0  0
  -20.0933  -27.6676   15.9013 N   0  3  0  0  0  0  0  0  0  0  0  0
  -22.6772  -13.9280   23.3129 O   0  0  0  0  0  0  0  0  0  0  0  0
  -23.5471  -28.4007   23.4992 O   0  0  0  0  0  0  0  0  0  0  0  0
  -20.7013  -29.7468   21.4292 O   0  0  0  0  0  0  0  0  0  0  0  0
  -21.1473  -26.3454   18.1502 O   0  0  0  0  0  0  0  0  0  0  0  0
  -31.4438  -15.4149   19.9792 O   0  0  0  0  0  0  0  0  0  0  0  0
  -21.3035   -8.9581   17.4820 O   0  0  0  0  0  0  0  0  0  0  0  0
  -27.8362  -25.6926   19.2708 O   0  0  0  0  0  0  0  0  0  1  0  0
  -29.5389  -23.5680   18.6002 O   0  0  0  0  0  0  0  0  0  0  0  0
  -17.5767   -5.7793   20.0138 F   0  0  0  0  0  0  0  0  0  0  0  0
  -21.3577   -6.2086   17.1987 F   0  0  0  0  0  0  0  0  0  0  0  0
  -27.3455  -19.3620   16.8020 Cl  0  0  0  0  0  0  0  0  0  0  0  0
  1  2  1  0  0  0  0
  1  5  2  0  0  0  0
  2  6  2  0  0  0  0
  3  8  2  0  0  0  0
  3 17  1  0  0  0  0
  4  9  1  0  0  0  0
  4 17  2  0  0  0  0
  5 19  1  0  0  0  0
  6 21  1  0  0  0  0
  7 10  2  0  0  0  0
  7 20  1  0  0  0  0
  8 25  1  0  0  0  0
  9 25  2  0  0  0  0
 10 26  1  0  0  0  0
 11 12  2  0  0  0  0
 11 27  1  0  0  0  0
 12 29  1  0  0  0  0
 13 22  1  0  0  0  0
 13 26  2  0  0  0  0
 14 24  2  0  0  0  0
 14 28  1  0  0  0  0
 15 28  2  0  0  0  0
 15 31  1  0  0  0  0
 16 29  2  0  0  0  0
 16 30  1  0  0  0  0
 17 32  1  0  0  0  0
 18 32  1  0  0  0  0
 18 33  2  0  0  0  0
 18 34  1  0  0  0  0
 19 21  2  0  0  0  0
 19 39  1  0  0  0  0
 20 22  2  0  0  0  0
 20 40  1  0  0  0  0
 21 49  1  0  0  0  0
 22 41  1  0  0  0  0
 23 24  1  0  0  0  0
 23 31  2  0  0  0  0
 23 50  1  0  0  0  0
 24 55  1  0  0  0  0
 25 85  1  0  0  0  0
 26 86  1  0  0  0  0
 27 30  2  0  0  0  0
 27 85  1  0  0  0  0
 28 87  1  0  0  0  0
 29 88  1  0  0  0  0
 30 89  1  0  0  0  0
 31 90  1  0  0  0  0
 32 69  2  0  0  0  0
 33 70  1  0  0  0  0
 33 74  1  0  0  0  0
 34 75  1  0  0  0  0
 34 80  2  0  0  0  0
 35 51  1  0  0  0  0
 35 76  1  0  0  0  0
 35 81  2  0  0  0  0
 36 66  1  0  0  0  0
 36 71  1  0  0  0  0
 36 82  2  0  0  0  0
 37 67  1  0  0  0  0
 37 77  1  0  0  0  0
 37 83  2  0  0  0  0
 38 72  1  0  0  0  0
 38 73  1  0  0  0  0
 38 84  2  0  0  0  0
 39 42  1  0  0  0  0
 40 51  1  0  0  0  0
 41 71  1  0  0  0  0
 42 44  1  0  0  0  0
 43 45  1  0  0  0  0
 43 46  1  0  0  0  0
 44 49  1  0  0  0  0
 45 52  1  0  0  0  0
 46 72  1  0  0  0  0
 47 52  1  0  0  0  0
 47 72  1  0  0  0  0
 48 54  1  0  0  0  0
 48 73  1  0  0  0  0
 49 76  1  0  0  0  0
 50 53  1  0  0  0  0
 50 78  1  0  0  0  0
 51 71  1  0  0  0  0
 52 70  1  0  0  0  0
 53 63  1  0  0  0  0
 53 73  1  0  0  0  0
 54 56  1  0  0  0  0
 54 78  1  0  0  0  0
 57 63  1  0  0  0  0
 58 67  1  0  0  0  0
 59 68  1  0  0  0  0
 60 68  1  0  0  0  0
 61 68  1  0  0  0  0
 62 79  1  0  0  0  0
 64 65  1  0  0  0  0
 64 86  1  0  0  0  0
 65 87  1  0  0  0  0
 66 68  1  0  0  0  0
 66 77  1  0  0  0  0
 67 79  1  0  0  0  0
 69 70  1  0  0  0  0
M  CHG  2  78   1  79   1
M  ISO  4  38 100  64 101  73 100  86 101
M  END
> <Batch ID>
0151

> <Smiles>
CCC1C(c2c(C)cc(OC[101CH2:1][101O:1]c3ccc4c(c3)CN(C(=O)C(NC(=O)C(C)NC)C(C)(C)C)C(C(=O)NC3CCCc5ccccc53)C4)cc2Cl)NC(C)C[100N:0]1[100C:0](=O)N1CCCC(n2nc(-c3ccc(Oc4ccc(F)cc4F)cc3)c(C(N)=O)c2N)C1

> <Shape>
0.315

> <Color>
0.097

> <Negative vol penalty>
0.000

$$$$

  -OEChem-04052321433D

 85 94  0     1  0  0  0  0  0999 V2000
  -18.5545  -19.0747   18.7847 C   0  0  0  0  0  0  0  0  0  0  0  0
  -19.7901  -19.1516   19.4194 C   0  0  0  0  0  0  0  0  0  0  0  0
  -23.1890   -9.8205   19.9319 C   0  0  0  0  0  0  0  0  0  0  0  0
  -23.5686   -9.9995   22.3112 C   0  0  0  0  0  0  0  0  0  0  0  0
  -18.4915  -18.9409   17.3983 C   0  0  0  0  0  0  0  0  0  0  0  0
  -20.9634  -19.0937   18.6682 C   0  0  0  0  0  0  0  0  0  0  0  0
  -24.3524  -22.5791   20.0863 C   0  0  0  0  0  0  0  0  0  0  0  0
  -22.4222   -8.6742   20.1405 C   0  0  0  0  0  0  0  0  0  0  0  0
  -22.8017   -8.8532   22.5198 C   0  0  0  0  0  0  0  0  0  0  0  0
  -25.0879  -22.3190   21.2418 C   0  0  0  0  0  0  0  0  0  0  0  0
  -23.2007   -5.5064   22.2539 C   0  0  0  0  0  0  0  0  0  0  0  0
  -23.6989   -4.5444   23.1324 C   0  0  0  0  0  0  0  0  0  0  0  0
  -26.9486  -21.5961   19.8874 C   0  0  0  0  0  0  0  0  0  0  0  0
  -28.5803  -16.5019   24.1576 C   0  0  0  0  0  0  0  0  0  0  0  0
  -30.8901  -17.1738   24.3827 C   0  0  0  0  0  0  0  0  0  0  0  0
  -21.7432   -4.8049   24.5268 C   0  0  0  0  0  0  0  0  0  0  0  0
  -23.7623  -10.4832   21.0173 C   0  0  0  0  0  0  0  0  0  0  0  0
  -24.1024  -12.9997   20.7746 C   0  0  0  0  0  0  0  0  0  0  0  0
  -19.6645  -18.8909   16.6288 C   0  0  0  0  0  0  0  0  0  0  0  0
  -24.9065  -22.3390   18.8207 C   0  0  0  0  0  0  0  0  0  0  0  0
  -20.9160  -18.9577   17.2704 C   0  0  0  0  0  0  0  0  0  0  0  0
  -26.2190  -21.8565   18.7173 C   0  0  0  0  0  0  0  0  0  0  0  0
  -29.2047  -18.8114   23.8215 C   0  0  0  0  0  0  0  0  0  0  0  0
  -28.2267  -17.8175   23.8586 C   0  0  0  0  0  0  0  0  0  0  0  0
  -30.5365  -18.4895   24.0836 C   0  0  0  0  0  0  0  0  0  0  0  0
  -22.2285   -8.1905   21.4344 C   0  0  0  0  0  0  0  0  0  0  0  0
  -26.3852  -21.8247   21.1425 C   0  0  0  0  0  0  0  0  0  0  0  0
  -21.9737   -6.1178   22.5119 C   0  0  0  0  0  0  0  0  0  0  0  0
  -29.9120  -16.1799   24.4198 C   0  0  0  0  0  0  0  0  0  0  0  0
  -22.9702   -4.1936   24.2689 C   0  0  0  0  0  0  0  0  0  0  0  0
  -21.2450   -5.7670   23.6483 C   0  0  0  0  0  0  0  0  0  0  0  0
  -24.5550  -11.6670   20.8025 C   0  0  0  0  0  0  0  0  0  0  0  0
  -25.2339  -13.7418   20.5391 C   0  0  0  0  0  0  0  0  0  0  0  0
  -22.7775  -13.5203   20.9463 C   0  0  0  0  0  0  0  0  0  0  0  0
  -24.1829  -20.4364   16.3794 C   0  0  0  0  0  0  0  0  0  0  0  0
  -26.5861  -22.0497   14.9152 C   0  0  0  0  0  0  0  0  0  0  0  0
  -29.4417  -23.8943   15.2159 C   0  0  0  0  0  0  0  0  0  0  0  0
  -31.0486  -12.7480   21.5651 C   0  0  0  0  0  0  0  0  0  0  0  0
  -19.5468  -18.6981   15.1376 C   0  0  0  0  0  0  0  0  0  0  0  0
  -24.1097  -22.6501   17.5835 C   0  0  0  0  0  0  0  0  0  0  0  0
  -26.8671  -21.6010   17.3820 C   0  0  0  0  0  0  0  0  0  0  0  0
  -20.8311  -19.0211   14.3784 C   0  0  0  0  0  0  0  0  0  0  0  0
  -29.5201  -13.4678   18.4310 C   0  0  0  0  0  0  0  0  0  0  0  0
  -22.0327  -18.3795   15.0648 C   0  0  0  0  0  0  0  0  0  0  0  0
  -28.0334  -13.2081   18.6809 C   0  0  0  0  0  0  0  0  0  0  0  0
  -29.5249  -20.9228   22.3671 C   0  0  0  0  0  0  0  0  0  0  0  0
  -30.4012  -12.4775   19.1893 C   0  0  0  0  0  0  0  0  0  0  0  0
  -28.6483  -12.1349   20.8875 C   0  0  0  0  0  0  0  0  0  0  0  0
  -28.8287  -20.2093   23.5024 C   0  0  1  0  0  0  0  0  0  0  0  0
  -22.2107  -18.9233   16.4875 C   0  0  1  0  0  0  0  0  0  0  0  0
  -24.5892  -21.8827   16.3553 C   0  0  1  0  0  0  0  0  0  0  0  0
  -27.7211  -13.1436   20.1880 C   0  0  2  0  0  0  0  0  0  0  0  0
  -28.0956  -20.5018   22.2116 C   0  0  1  0  0  0  0  0  0  1  0  0
  -26.7928  -18.1333   23.5830 C   0  0  0  0  0  0  0  0  0  0  0  0
  -31.6039  -19.5340   24.0511 C   0  0  0  0  0  0  0  0  0  0  0  0
  -31.2011  -25.0393   13.8409 C   0  0  0  0  0  0  0  0  0  0  0  0
  -27.8471  -19.3447   14.2805 C   0  0  0  0  0  0  0  0  0  0  0  0
  -29.9904  -20.5390   13.7823 C   0  0  0  0  0  0  0  0  0  0  0  0
  -27.9561  -21.0095   12.4174 C   0  0  0  0  0  0  0  0  0  0  0  0
  -28.7836  -26.5404   16.3665 C   0  0  0  0  0  0  0  0  0  0  0  0
  -31.5400  -12.9977   23.9848 C   0  0  0  0  0  0  0  0  0  0  0  0
  -31.5673  -14.4744   24.3366 C   0  0  0  0  0  0  0  0  0  0  0  0
  -28.0794  -21.8644   14.7935 C   0  0  1  0  0  0  0  0  0  0  0  0
  -29.8731  -25.1961   14.5652 C   0  0  2  0  0  0  0  0  0  0  0  0
  -28.4556  -20.6923   13.8437 C   0  0  0  0  0  0  0  0  0  0  0  0
  -25.8714  -11.5652   20.6006 N   0  0  0  0  0  0  0  0  0  0  0  0
  -26.2556  -12.8435   20.4436 N   0  0  0  0  0  0  0  0  0  0  0  0
  -26.0451  -21.9148   16.2016 N   0  0  0  0  0  0  0  0  0  0  0  0
  -30.0553  -12.4659   20.6128 N   0  0  0  0  0  0  0  0  0  0  0  0
  -25.4445  -15.0686   20.4064 N   0  0  0  0  0  0  0  0  0  0  0  0
  -21.7304  -12.6186   21.1804 N   0  0  0  0  0  0  0  0  0  0  0  0
  -22.8176  -20.2366   16.4544 N   0  0  0  0  0  0  0  0  0  0  0  0
  -28.6196  -23.1580   14.3893 N   0  0  0  0  0  0  0  0  0  0  0  0
  -30.6350  -12.7222   22.8913 N   0  0  0  0  0  0  0  0  0  0  0  0
  -30.0218  -26.2647   15.5933 N   0  3  0  0  0  0  0  0  0  0  0  0
  -22.5270  -14.7475   20.8774 O   0  0  0  0  0  0  0  0  0  0  0  0
  -25.0442  -19.5660   16.3320 O   0  0  0  0  0  0  0  0  0  0  0  0
  -25.9251  -22.3118   13.9072 O   0  0  0  0  0  0  0  0  0  0  0  0
  -29.8012  -23.5619   16.3432 O   0  0  0  0  0  0  0  0  0  0  0  0
  -32.2162  -13.0090   21.2560 O   0  0  0  0  0  0  0  0  0  0  0  0
  -21.4800   -7.0722   21.6383 O   0  0  0  0  0  0  0  0  0  0  0  0
  -27.1050  -21.5692   22.2687 O   0  0  0  0  0  0  0  0  0  1  0  0
  -30.2571  -14.8962   24.7124 O   0  0  0  0  0  0  0  0  0  0  0  0
  -23.4480   -3.2686   25.1116 F   0  0  0  0  0  0  0  0  0  0  0  0
  -20.0651   -6.3499   23.9008 F   0  0  0  0  0  0  0  0  0  0  0  0
  1  2  1  0  0  0  0
  1  5  2  0  0  0  0
  2  6  2  0  0  0  0
  3  8  2  0  0  0  0
  3 17  1  0  0  0  0
  4  9  1  0  0  0  0
  4 17  2  0  0  0  0
  5 19  1  0  0  0  0
  6 21  1  0  0  0  0
  7 10  2  0  0  0  0
  7 20  1  0  0  0  0
  8 26  1  0  0  0  0
  9 26  2  0  0  0  0
 10 27  1  0  0  0  0
 11 12  2  0  0  0  0
 11 28  1  0  0  0  0
 12 30  1  0  0  0  0
 13 22  1  0  0  0  0
 13 27  2  0  0  0  0
 14 24  2  0  0  0  0
 14 29  1  0  0  0  0
 15 25  1  0  0  0  0
 15 29  2  0  0  0  0
 16 30  2  0  0  0  0
 16 31  1  0  0  0  0
 17 32  1  0  0  0  0
 18 32  1  0  0  0  0
 18 33  2  0  0  0  0
 18 34  1  0  0  0  0
 19 21  2  0  0  0  0
 19 39  1  0  0  0  0
 20 22  2  0  0  0  0
 20 40  1  0  0  0  0
 21 50  1  0  0  0  0
 22 41  1  0  0  0  0
 23 24  1  0  0  0  0
 23 25  2  0  0  0  0
 23 49  1  0  0  0  0
 24 54  1  0  0  0  0
 25 55  1  0  0  0  0
 26 81  1  0  0  0  0
 27 82  1  0  0  0  0
 28 31  2  0  0  0  0
 28 81  1  0  0  0  0
 29 83  1  0  0  0  0
 30 84  1  0  0  0  0
 31 85  1  0  0  0  0
 32 66  2  0  0  0  0
 33 67  1  0  0  0  0
 33 70  1  0  0  0  0
 34 71  1  0  0  0  0
 34 76  2  0  0  0  0
 35 51  1  0  0  0  0
 35 72  1  0  0  0  0
 35 77  2  0  0  0  0
 36 63  1  0  0  0  0
 36 68  1  0  0  0  0
 36 78  2  0  0  0  0
 37 64  1  0  0  0  0
 37 73  1  0  0  0  0
 37 79  2  0  0  0  0
 38 69  1  0  0  0  0
 38 74  1  0  0  0  0
 38 80  2  0  0  0  0
 39 42  1  0  0  0  0
 40 51  1  0  0  0  0
 41 68  1  0  0  0  0
 42 44  1  0  0  0  0
 43 45  1  0  0  0  0
 43 47  1  0  0  0  0
 44 50  1  0  0  0  0
 45 52  1  0  0  0  0
 46 49  1  0  0  0  0
 46 53  1  0  0  0  0
 47 69  1  0  0  0  0
 48 52  1  0  0  0  0
 48 69  1  0  0  0  0
 49 53  1  0  0  0  0
 50 72  1  0  0  0  0
 51 68  1  0  0  0  0
 52 67  1  0  0  0  0
 53 82  1  0  0  0  0
 56 64  1  0  0  0  0
 57 65  1  0  0  0  0
 58 65  1  0  0  0  0
 59 65  1  0  0  0  0
 60 75  1  0  0  0  0
 61 62  1  0  0  0  0
 61 74  1  0  0  0  0
 62 83  1  0  0  0  0
 63 65  1  0  0  0  0
 63 73  1  0  0  0  0
 64 75  1  0  0  0  0
 66 67  1  0  0  0  0
M  CHG  1  75   1
M  ISO  4  38 100  53 101  74 100  82 101
M  END
> <Batch ID>
0151

> <Smiles>
CNC(C)C(=O)NC(C(=O)N1Cc2cc([101O:1][101CH:1]3CC3c3c(C)cc(OCC[100NH:0][100C:0](=O)N4CCCC(n5nc(-c6ccc(Oc7ccc(F)cc7F)cc6)c(C(N)=O)c5N)C4)cc3C)ccc2CC1C(=O)NC1CCCc2ccccc21)C(C)(C)C

> <Shape>
0.161

> <Color>
0.186

> <Negative vol penalty>
0.000

$$$$

  -OEChem-04052321433D

 94105  0     1  0  0  0  0  0999 V2000
  -29.2357  -33.5726   25.9972 C   0  0  0  0  0  0  0  0  0  0  0  0
  -29.1416  -32.3558   25.3294 C   0  0  0  0  0  0  0  0  0  0  0  0
  -22.7202   -9.9987   23.1565 C   0  0  0  0  0  0  0  0  0  0  0  0
  -23.6755  -10.0383   20.9378 C   0  0  0  0  0  0  0  0  0  0  0  0
  -28.0778  -34.2379   26.3979 C   0  0  0  0  0  0  0  0  0  0  0  0
  -27.8894  -31.8030   25.0629 C   0  0  0  0  0  0  0  0  0  0  0  0
  -27.5171  -30.0247   20.3360 C   0  0  0  0  0  0  0  0  0  0  0  0
  -22.1214   -8.7704   22.8768 C   0  0  0  0  0  0  0  0  0  0  0  0
  -23.0767   -8.8099   20.6580 C   0  0  0  0  0  0  0  0  0  0  0  0
  -28.1100  -28.7910   20.0713 C   0  0  0  0  0  0  0  0  0  0  0  0
  -23.0499   -5.5224   22.7307 C   0  0  0  0  0  0  0  0  0  0  0  0
  -23.1373   -4.5230   23.6997 C   0  0  0  0  0  0  0  0  0  0  0  0
  -25.9540  -27.7236   20.2479 C   0  0  0  0  0  0  0  0  0  0  0  0
  -28.2416  -18.8513   17.6123 C   0  0  0  0  0  0  0  0  0  0  0  0
  -30.3928  -18.7279   18.6993 C   0  0  0  0  0  0  0  0  0  0  0  0
  -20.7265   -4.4497   23.8416 C   0  0  0  0  0  0  0  0  0  0  0  0
  -23.4972  -10.6327   22.1870 C   0  0  0  0  0  0  0  0  0  0  0  0
  -25.0477  -12.1818   23.4922 C   0  0  0  0  0  0  0  0  0  0  0  0
  -26.8106  -33.6977   26.1277 C   0  0  0  0  0  0  0  0  0  0  0  0
  -26.1374  -30.1158   20.5698 C   0  0  0  0  0  0  0  0  0  0  0  0
  -26.7136  -32.4611   25.4616 C   0  0  0  0  0  0  0  0  0  0  0  0
  -25.3455  -28.9600   20.5129 C   0  0  0  0  0  0  0  0  0  0  0  0
  -29.1395  -16.6941   18.2719 C   0  0  0  0  0  0  0  0  0  0  0  0
  -29.3732  -19.4836   18.1226 C   0  0  0  0  0  0  0  0  0  0  0  0
  -28.1251  -17.4628   17.6854 C   0  0  0  0  0  0  0  0  0  0  0  0
  -30.2839  -17.3363   18.7602 C   0  0  0  0  0  0  0  0  0  0  0  0
  -22.2997   -8.1760   21.6276 C   0  0  0  0  0  0  0  0  0  0  0  0
  -27.3289  -27.6398   20.0301 C   0  0  0  0  0  0  0  0  0  0  0  0
  -21.8008   -5.9855   22.3171 C   0  0  0  0  0  0  0  0  0  0  0  0
  -21.9756   -3.9866   24.2552 C   0  0  0  0  0  0  0  0  0  0  0  0
  -20.6391   -5.4492   22.8725 C   0  0  0  0  0  0  0  0  0  0  0  0
  -24.1156  -11.9018   22.4751 C   0  0  0  0  0  0  0  0  0  0  0  0
  -25.3241  -13.5193   23.3460 C   0  0  0  0  0  0  0  0  0  0  0  0
  -25.6134  -11.3108   24.4807 C   0  0  0  0  0  0  0  0  0  0  0  0
  -24.3336  -31.0400   23.0184 C   0  0  0  0  0  0  0  0  0  0  0  0
  -21.9180  -30.6133   20.8958 C   0  0  0  0  0  0  0  0  0  0  0  0
  -20.7867  -29.0824   18.0633 C   0  0  0  0  0  0  0  0  0  0  0  0
  -25.0143  -17.2606   18.6814 C   0  0  0  0  0  0  0  0  0  0  0  0
  -25.5886  -34.4304   26.6222 C   0  0  0  0  0  0  0  0  0  0  0  0
  -25.5090  -31.4578   20.8276 C   0  0  0  0  0  0  0  0  0  0  0  0
  -28.9954  -15.1981   18.3428 C   0  0  0  0  0  0  0  0  0  0  0  0
  -23.8569  -29.0069   20.7368 C   0  0  0  0  0  0  0  0  0  0  0  0
  -24.2910  -33.9601   25.9702 C   0  0  0  0  0  0  0  0  0  0  0  0
  -23.3580  -17.6034   21.8145 C   0  0  0  0  0  0  0  0  0  0  0  0
  -24.2231  -32.4363   25.9544 C   0  0  0  0  0  0  0  0  0  0  0  0
  -23.4485  -16.2063   22.4308 C   0  0  0  0  0  0  0  0  0  0  0  0
  -26.8175  -24.3165   19.2698 C   0  0  0  0  0  0  0  0  0  0  0  0
  -27.9722  -23.8494   18.3886 C   0  0  0  0  0  0  0  0  0  0  0  0
  -28.2784  -24.6260   21.3137 C   0  0  0  0  0  0  0  0  0  0  0  0
  -23.1613  -17.5410   20.3014 C   0  0  0  0  0  0  0  0  0  0  0  0
  -24.2500  -15.3325   20.1964 C   0  0  0  0  0  0  0  0  0  0  0  0
  -30.4777  -23.6931   18.8872 C   0  0  0  0  0  0  0  0  0  0  0  0
  -31.3713  -15.2687   19.0816 C   0  0  0  0  0  0  0  0  0  0  0  0
  -25.3728  -31.8414   25.1323 C   0  0  1  0  0  0  0  0  0  0  0  0
  -24.1739  -31.3618   21.5594 C   0  0  1  0  0  0  0  0  0  0  0  0
  -24.5046  -15.3442   21.7134 C   0  0  2  0  0  0  0  0  0  0  0  0
  -29.3688  -23.8408   20.5980 C   0  0  1  0  0  0  0  0  0  0  0  0
  -27.2940  -25.2860   20.3535 C   0  0  1  0  0  0  0  0  0  1  0  0
  -29.0595  -23.1686   19.2305 C   0  0  1  0  0  0  0  0  0  0  0  0
  -30.0224  -14.5631   19.3003 C   0  0  0  0  0  0  0  0  0  0  0  0
  -29.5627  -14.7128   20.7639 C   0  0  0  0  0  0  0  0  0  0  0  0
  -30.1654  -13.0661   18.9827 C   0  0  0  0  0  0  0  0  0  0  0  0
  -18.7577  -28.9020   16.5978 C   0  0  0  0  0  0  0  0  0  0  0  0
  -20.5893  -28.8037   22.9622 C   0  0  0  0  0  0  0  0  0  0  0  0
  -19.1127  -27.9254   21.1411 C   0  0  0  0  0  0  0  0  0  0  0  0
  -19.0239  -30.3401   21.7608 C   0  0  0  0  0  0  0  0  0  0  0  0
  -22.2407  -30.1567   15.7201 C   0  0  0  0  0  0  0  0  0  0  0  0
  -29.4959  -20.9847   18.0497 C   0  0  0  0  0  0  0  0  0  0  0  0
  -26.8940  -16.8297   17.1194 C   0  0  0  0  0  0  0  0  0  0  0  0
  -28.9077  -21.6572   19.2920 C   0  0  0  0  0  0  0  0  0  0  0  0
  -21.0314  -29.4561   20.5036 C   0  0  1  0  0  0  0  0  0  0  0  0
  -20.0718  -29.6279   16.8403 C   0  0  2  0  0  0  0  0  0  0  0  0
  -19.9677  -29.1298   21.5896 C   0  0  0  0  0  0  0  0  0  0  0  0
  -23.8194  -12.9751   21.7374 N   0  0  0  0  0  0  0  0  0  0  0  0
  -24.5697  -13.9426   22.2915 N   0  0  0  0  0  0  0  0  0  0  0  0
  -23.2901  -30.3416   20.9915 N   0  0  0  0  0  0  0  0  0  0  0  0
  -24.1961  -16.7098   19.6816 N   0  0  0  0  0  0  0  0  0  0  0  0
  -26.1362  -14.3627   24.0178 N   0  0  0  0  0  0  0  0  0  0  0  0
  -26.7991  -10.6304   24.1718 N   0  0  0  0  0  0  0  0  0  0  0  0
  -25.0949  -31.9577   23.7168 N   0  0  0  0  0  0  0  0  0  0  0  0
  -20.4702  -29.7953   19.2003 N   0  0  0  0  0  0  0  0  0  0  0  0
  -25.9737  -16.4066   18.1512 N   0  0  0  0  0  0  0  0  0  0  0  0
  -20.9255  -29.4720   15.6288 N   0  3  0  0  0  0  0  0  0  0  0  0
  -25.0742  -11.1284   25.5985 O   0  0  0  0  0  0  0  0  0  0  0  0
  -23.8040  -30.0346   23.4769 O   0  0  0  0  0  0  0  0  0  0  0  0
  -21.4125  -31.7194   21.1026 O   0  0  0  0  0  0  0  0  0  0  0  0
  -21.5468  -28.1177   18.0155 O   0  0  0  0  0  0  0  0  0  0  0  0
  -24.9019  -18.4285   18.2938 O   0  0  0  0  0  0  0  0  0  0  0  0
  -31.3241  -16.6726   19.3570 O   0  0  0  0  0  0  0  0  0  0  0  0
  -30.3653  -24.6906   19.9499 O   0  0  0  0  0  0  0  0  0  0  0  0
  -21.7157   -6.9773   21.3543 O   0  0  0  0  0  0  0  0  0  0  0  0
  -27.9053  -26.4342   19.7726 O   0  0  0  0  0  0  0  0  0  1  0  0
  -22.0596   -3.0258   25.1847 F   0  0  0  0  0  0  0  0  0  0  0  0
  -19.4363   -5.8893   22.4784 F   0  0  0  0  0  0  0  0  0  0  0  0
  1  2  1  0  0  0  0
  1  5  2  0  0  0  0
  2  6  2  0  0  0  0
  3  8  2  0  0  0  0
  3 17  1  0  0  0  0
  4  9  1  0  0  0  0
  4 17  2  0  0  0  0
  5 19  1  0  0  0  0
  6 21  1  0  0  0  0
  7 10  2  0  0  0  0
  7 20  1  0  0  0  0
  8 27  1  0  0  0  0
  9 27  2  0  0  0  0
 10 28  1  0  0  0  0
 11 12  2  0  0  0  0
 11 29  1  0  0  0  0
 12 30  1  0  0  0  0
 13 22  1  0  0  0  0
 13 28  2  0  0  0  0
 14 24  1  0  0  0  0
 14 25  2  0  0  0  0
 15 24  2  0  0  0  0
 15 26  1  0  0  0  0
 16 30  2  0  0  0  0
 16 31  1  0  0  0  0
 17 32  1  0  0  0  0
 18 32  1  0  0  0  0
 18 33  2  0  0  0  0
 18 34  1  0  0  0  0
 19 21  2  0  0  0  0
 19 39  1  0  0  0  0
 20 22  2  0  0  0  0
 20 40  1  0  0  0  0
 21 54  1  0  0  0  0
 22 42  1  0  0  0  0
 23 25  1  0  0  0  0
 23 26  2  0  0  0  0
 23 41  1  0  0  0  0
 24 68  1  0  0  0  0
 25 69  1  0  0  0  0
 26 89  1  0  0  0  0
 27 91  1  0  0  0  0
 28 92  1  0  0  0  0
 29 31  2  0  0  0  0
 29 91  1  0  0  0  0
 30 93  1  0  0  0  0
 31 94  1  0  0  0  0
 32 74  2  0  0  0  0
 33 75  1  0  0  0  0
 33 78  1  0  0  0  0
 34 79  1  0  0  0  0
 34 84  2  0  0  0  0
 35 55  1  0  0  0  0
 35 80  1  0  0  0  0
 35 85  2  0  0  0  0
 36 71  1  0  0  0  0
 36 76  1  0  0  0  0
 36 86  2  0  0  0  0
 37 72  1  0  0  0  0
 37 81  1  0  0  0  0
 37 87  2  0  0  0  0
 38 77  1  0  0  0  0
 38 82  1  0  0  0  0
 38 88  2  0  0  0  0
 39 43  1  0  0  0  0
 40 55  1  0  0  0  0
 41 60  1  0  0  0  0
 42 76  1  0  0  0  0
 43 45  1  0  0  0  0
 44 46  1  0  0  0  0
 44 50  1  0  0  0  0
 45 54  1  0  0  0  0
 46 56  1  0  0  0  0
 47 48  1  0  0  0  0
 47 58  1  0  0  0  0
 48 59  1  0  0  0  0
 49 57  1  0  0  0  0
 49 58  1  0  0  0  0
 50 77  1  0  0  0  0
 51 56  1  0  0  0  0
 51 77  1  0  0  0  0
 52 59  1  0  0  0  0
 52 90  1  0  0  0  0
 53 60  1  0  0  0  0
 53 89  1  0  0  0  0
 54 80  1  0  0  0  0
 55 76  1  0  0  0  0
 56 75  1  0  0  0  0
 57 59  1  0  0  0  0
 57 90  1  0  0  0  0
 58 92  1  0  0  0  0
 59 70  1  0  0  0  0
 60 61  1  0  0  0  0
 60 62  1  0  0  0  0
 63 72  1  0  0  0  0
 64 73  1  0  0  0  0
 65 73  1  0  0  0  0
 66 73  1  0  0  0  0
 67 83  1  0  0  0  0
 68 70  1  0  0  0  0
 69 82  1  0  0  0  0
 71 73  1  0  0  0  0
 71 81  1  0  0  0  0
 72 83  1  0  0  0  0
 74 75  1  0  0  0  0
M  CHG  1  83   1
M  ISO  4  38 100  58 101  82 100  92 101
M  END
> <Batch ID>
0151

> <Smiles>
CNC(C)C(=O)NC(C(=O)N1Cc2cc([101O:1][101CH:1]3CCC4(CCc5cc(C[100NH:0][100C:0](=O)N6CCCC(n7nc(-c8ccc(Oc9ccc(F)cc9F)cc8)c(C(N)=O)c7N)C6)c6c(c5)OCC(C)(C)C6)COC4C3)ccc2CC1C(=O)NC1CCCc2ccccc21)C(C)(C)C

> <Shape>
0.296

> <Color>
0.094

> <Negative vol penalty>
0.000

$$$$

  -OEChem-04052321433D

 89 99  0     1  0  0  0  0  0999 V2000
  -26.4062  -23.5414   16.2288 C   0  0  0  0  0  0  0  0  0  0  0  0
  -25.8136  -24.1994   17.3017 C   0  0  0  0  0  0  0  0  0  0  0  0
  -26.9709  -12.8534   20.9593 C   0  0  0  0  0  0  0  0  0  0  0  0
  -27.0528  -12.9371   18.5462 C   0  0  0  0  0  0  0  0  0  0  0  0
  -27.7955  -23.4616   16.1426 C   0  0  0  0  0  0  0  0  0  0  0  0
  -26.6100  -24.7771   18.2899 C   0  0  0  0  0  0  0  0  0  0  0  0
  -25.0513  -29.4215   19.5722 C   0  0  0  0  0  0  0  0  0  0  0  0
  -26.4479  -11.5618   20.8968 C   0  0  0  0  0  0  0  0  0  0  0  0
  -26.5298  -11.6455   18.4836 C   0  0  0  0  0  0  0  0  0  0  0  0
  -23.9476  -29.5115   20.4193 C   0  0  0  0  0  0  0  0  0  0  0  0
  -24.7540   -8.3782   21.3648 C   0  0  0  0  0  0  0  0  0  0  0  0
  -23.6730   -8.0739   22.1920 C   0  0  0  0  0  0  0  0  0  0  0  0
  -25.4222  -29.8915   22.2903 C   0  0  0  0  0  0  0  0  0  0  0  0
  -22.1071  -26.5887   23.6602 C   0  0  0  0  0  0  0  0  0  0  0  0
  -20.3150  -25.5340   22.3948 C   0  0  0  0  0  0  0  0  0  0  0  0
  -22.3701   -9.8075   21.1269 C   0  0  0  0  0  0  0  0  0  0  0  0
  -27.2734  -13.5410   19.7840 C   0  0  0  0  0  0  0  0  0  0  0  0
  -29.1714  -15.2411   19.9065 C   0  0  0  0  0  0  0  0  0  0  0  0
  -28.6095  -24.0470   17.1252 C   0  0  0  0  0  0  0  0  0  0  0  0
  -26.3514  -29.5552   20.0805 C   0  0  0  0  0  0  0  0  0  0  0  0
  -28.0114  -24.7039   18.2175 C   0  0  0  0  0  0  0  0  0  0  0  0
  -26.5406  -29.8054   21.4471 C   0  0  0  0  0  0  0  0  0  0  0  0
  -20.0960  -27.7938   23.2228 C   0  0  0  0  0  0  0  0  0  0  0  0
  -21.3554  -27.7566   23.7976 C   0  0  0  0  0  0  0  0  0  0  0  0
  -19.5864  -26.7052   22.5096 C   0  0  0  0  0  0  0  0  0  0  0  0
  -26.2273  -10.9579   19.6590 C   0  0  0  0  0  0  0  0  0  0  0  0
  -24.1331  -29.7436   21.7790 C   0  0  0  0  0  0  0  0  0  0  0  0
  -24.6432   -9.3972   20.4186 C   0  0  0  0  0  0  0  0  0  0  0  0
  -21.5889  -25.4835   22.9670 C   0  0  0  0  0  0  0  0  0  0  0  0
  -22.4810   -8.7886   22.0730 C   0  0  0  0  0  0  0  0  0  0  0  0
  -23.4512  -10.1118   20.2997 C   0  0  0  0  0  0  0  0  0  0  0  0
  -27.8132  -14.8754   19.8479 C   0  0  0  0  0  0  0  0  0  0  0  0
  -29.1557  -16.6137   19.9527 C   0  0  0  0  0  0  0  0  0  0  0  0
  -30.3425  -14.4140   19.9180 C   0  0  0  0  0  0  0  0  0  0  0  0
  -28.9049  -27.6685   20.2339 C   0  0  0  0  0  0  0  0  0  0  0  0
  -30.3271  -30.3420   21.3967 C   0  0  0  0  0  0  0  0  0  0  0  0
  -29.9897  -33.3568   22.9599 C   0  0  0  0  0  0  0  0  0  0  0  0
  -25.3612  -20.5213   21.8815 C   0  0  0  0  0  0  0  0  0  0  0  0
  -30.1058  -23.8940   17.0139 C   0  0  0  0  0  0  0  0  0  0  0  0
  -27.5303  -29.4822   19.1491 C   0  0  0  0  0  0  0  0  0  0  0  0
  -27.9148  -29.9765   22.0392 C   0  0  0  0  0  0  0  0  0  0  0  0
  -30.8846  -24.8566   17.9067 C   0  0  0  0  0  0  0  0  0  0  0  0
  -26.5591  -20.3852   18.5848 C   0  0  0  0  0  0  0  0  0  0  0  0
  -30.2951  -24.8753   19.3135 C   0  0  0  0  0  0  0  0  0  0  0  0
  -27.1561  -18.9789   18.5367 C   0  0  0  0  0  0  0  0  0  0  0  0
  -24.6554  -24.1493   22.1764 C   0  0  0  0  0  0  0  0  0  0  0  0
  -22.7946  -23.0522   20.8561 C   0  0  0  0  0  0  0  0  0  0  0  0
  -25.2368  -20.4204   19.3529 C   0  0  0  0  0  0  0  0  0  0  0  0
  -24.9948  -22.7882   22.7821 C   0  0  0  0  0  0  0  0  0  0  0  0
  -23.1739  -21.7178   21.4944 C   0  0  0  0  0  0  0  0  0  0  0  0
  -18.0296  -28.3596   22.2368 C   0  0  0  0  0  0  0  0  0  0  0  0
  -25.9128  -18.4356   20.6644 C   0  0  0  0  0  0  0  0  0  0  0  0
  -19.0731  -28.8913   23.2554 C   0  0  1  0  0  0  0  0  0  0  0  0
  -28.8420  -25.3646   19.2963 C   0  0  1  0  0  0  0  0  0  0  0  0
  -28.8314  -29.1218   19.8594 C   0  0  1  0  0  0  0  0  0  0  0  0
  -27.2718  -18.3791   19.9494 C   0  0  1  0  0  0  0  0  0  0  0  0
  -23.1985  -24.2463   21.7226 C   0  0  0  0  0  0  0  0  0  0  0  0
  -18.4776  -29.0762   24.6463 C   0  0  0  0  0  0  0  0  0  0  0  0
  -31.3356  -35.2978   23.8078 C   0  0  0  0  0  0  0  0  0  0  0  0
  -31.2167  -28.6753   23.7927 C   0  0  0  0  0  0  0  0  0  0  0  0
  -31.6994  -30.8095   25.0096 C   0  0  0  0  0  0  0  0  0  0  0  0
  -32.9474  -30.2567   22.9216 C   0  0  0  0  0  0  0  0  0  0  0  0
  -28.6130  -35.2514   21.1504 C   0  0  0  0  0  0  0  0  0  0  0  0
  -21.9149  -28.9198   24.5395 C   0  0  0  0  0  0  0  0  0  0  0  0
  -23.2437  -29.4183   23.9606 C   0  0  0  0  0  0  0  0  0  1  0  0
  -30.5181  -30.9405   22.7695 C   0  0  1  0  0  0  0  0  0  0  0  0
  -30.5526  -34.7287   22.6348 C   0  0  2  0  0  0  0  0  0  0  0  0
  -31.5695  -30.1654   23.6128 C   0  0  0  0  0  0  0  0  0  0  0  0
  -26.9943  -15.9306   19.8562 N   0  0  0  0  0  0  0  0  0  0  0  0
  -27.8403  -16.9728   19.9206 N   0  0  0  0  0  0  0  0  0  0  0  0
  -18.2878  -26.9350   22.0599 N   0  0  0  0  0  0  0  0  0  0  0  0
  -29.0360  -29.8904   21.0888 N   0  0  0  0  0  0  0  0  0  0  0  0
  -25.3875  -19.8024   20.6770 N   0  0  0  0  0  0  0  0  0  0  0  0
  -24.5840  -21.6918   21.9056 N   0  0  0  0  0  0  0  0  0  0  0  0
  -30.1389  -17.5365   20.0174 N   0  0  0  0  0  0  0  0  0  0  0  0
  -30.1786  -13.0230   19.8649 N   0  0  0  0  0  0  0  0  0  0  0  0
  -28.7952  -26.8048   19.1609 N   0  0  0  0  0  0  0  0  0  0  0  0
  -30.8401  -32.3479   22.5599 N   0  0  0  0  0  0  0  0  0  0  0  0
  -29.4507  -35.6751   22.3018 N   0  3  0  0  0  0  0  0  0  0  0  0
  -31.4993  -14.8935   19.9902 O   0  0  0  0  0  0  0  0  0  0  0  0
  -29.0519  -27.3541   21.4092 O   0  0  0  0  0  0  0  0  0  0  0  0
  -31.2865  -30.2840   20.6235 O   0  0  0  0  0  0  0  0  0  0  0  0
  -28.9058  -33.1965   23.5167 O   0  0  0  0  0  0  0  0  0  0  0  0
  -25.9951  -20.1447   22.8751 O   0  0  0  0  0  0  0  0  0  0  0  0
  -25.7171   -9.6975   19.5976 O   0  0  0  0  0  0  0  0  0  0  0  0
  -22.3383  -24.3419   22.8558 O   0  0  0  0  0  0  0  0  0  0  0  0
  -23.0500  -29.8318   22.6140 O   0  0  0  0  0  0  0  0  0  1  0  0
  -21.4424   -8.4952   22.8664 F   0  0  0  0  0  0  0  0  0  0  0  0
  -23.3384  -11.0910   19.3918 F   0  0  0  0  0  0  0  0  0  0  0  0
  1  2  1  0  0  0  0
  1  5  2  0  0  0  0
  2  6  2  0  0  0  0
  3  8  2  0  0  0  0
  3 17  1  0  0  0  0
  4  9  1  0  0  0  0
  4 17  2  0  0  0  0
  5 19  1  0  0  0  0
  6 21  1  0  0  0  0
  7 10  2  0  0  0  0
  7 20  1  0  0  0  0
  8 26  1  0  0  0  0
  9 26  2  0  0  0  0
 10 27  1  0  0  0  0
 11 12  2  0  0  0  0
 11 28  1  0  0  0  0
 12 30  1  0  0  0  0
 13 22  1  0  0  0  0
 13 27  2  0  0  0  0
 14 24  1  0  0  0  0
 14 29  2  0  0  0  0
 15 25  2  0  0  0  0
 15 29  1  0  0  0  0
 16 30  2  0  0  0  0
 16 31  1  0  0  0  0
 17 32  1  0  0  0  0
 18 32  1  0  0  0  0
 18 33  2  0  0  0  0
 18 34  1  0  0  0  0
 19 21  2  0  0  0  0
 19 39  1  0  0  0  0
 20 22  2  0  0  0  0
 20 40  1  0  0  0  0
 21 54  1  0  0  0  0
 22 41  1  0  0  0  0
 23 24  2  0  0  0  0
 23 25  1  0  0  0  0
 23 53  1  0  0  0  0
 24 64  1  0  0  0  0
 25 71  1  0  0  0  0
 26 85  1  0  0  0  0
 27 87  1  0  0  0  0
 28 31  2  0  0  0  0
 28 85  1  0  0  0  0
 29 86  1  0  0  0  0
 30 88  1  0  0  0  0
 31 89  1  0  0  0  0
 32 69  2  0  0  0  0
 33 70  1  0  0  0  0
 33 75  1  0  0  0  0
 34 76  1  0  0  0  0
 34 80  2  0  0  0  0
 35 55  1  0  0  0  0
 35 77  1  0  0  0  0
 35 81  2  0  0  0  0
 36 66  1  0  0  0  0
 36 72  1  0  0  0  0
 36 82  2  0  0  0  0
 37 67  1  0  0  0  0
 37 78  1  0  0  0  0
 37 83  2  0  0  0  0
 38 73  1  0  0  0  0
 38 74  1  0  0  0  0
 38 84  2  0  0  0  0
 39 42  1  0  0  0  0
 40 55  1  0  0  0  0
 41 72  1  0  0  0  0
 42 44  1  0  0  0  0
 43 45  1  0  0  0  0
 43 48  1  0  0  0  0
 44 54  1  0  0  0  0
 45 56  1  0  0  0  0
 46 49  1  0  0  0  0
 46 57  1  0  0  0  0
 47 50  1  0  0  0  0
 47 57  1  0  0  0  0
 48 73  1  0  0  0  0
 49 74  1  0  0  0  0
 50 74  1  0  0  0  0
 51 53  1  0  0  0  0
 51 71  1  0  0  0  0
 52 56  1  0  0  0  0
 52 73  1  0  0  0  0
 53 58  1  0  0  0  0
 54 77  1  0  0  0  0
 55 72  1  0  0  0  0
 56 70  1  0  0  0  0
 57 86  1  0  0  0  0
 59 67  1  0  0  0  0
 60 68  1  0  0  0  0
 61 68  1  0  0  0  0
 62 68  1  0  0  0  0
 63 79  1  0  0  0  0
 64 65  1  0  0  0  0
 65 87  1  0  0  0  0
 66 68  1  0  0  0  0
 66 78  1  0  0  0  0
 67 79  1  0  0  0  0
 69 70  1  0  0  0  0
M  CHG  1  79   1
M  ISO  4  38 100  65 101  74 100  87 101
M  END
> <Batch ID>
0151

> <Smiles>
CNC(C)C(=O)NC(C(=O)N1Cc2cc([101O:1][101CH2:1]Cc3cc(OC4CC[100N:0]([100C:0](=O)N5CCCC(n6nc(-c7ccc(Oc8ccc(F)cc8F)cc7)c(C(N)=O)c6N)C5)CC4)cc4c3C(C)CN4)ccc2CC1C(=O)NC1CCCc2ccccc21)C(C)(C)C

> <Shape>
0.253

> <Color>
0.087

> <Negative vol penalty>
0.000

$$$$

  -OEChem-04052321433D

 84 93  0     1  0  0  0  0  0999 V2000
  -28.0885  -37.8609   22.9301 C   0  0  0  0  0  0  0  0  0  0  0  0
  -28.2278  -37.0248   21.8269 C   0  0  0  0  0  0  0  0  0  0  0  0
  -26.1721  -11.8529   21.6128 C   0  0  0  0  0  0  0  0  0  0  0  0
  -25.2766  -12.7077   19.5380 C   0  0  0  0  0  0  0  0  0  0  0  0
  -27.8536  -37.3154   24.1915 C   0  0  0  0  0  0  0  0  0  0  0  0
  -28.1334  -35.6426   21.9848 C   0  0  0  0  0  0  0  0  0  0  0  0
  -25.9296  -29.7666   18.5305 C   0  0  0  0  0  0  0  0  0  0  0  0
  -24.9206  -11.3295   21.9373 C   0  0  0  0  0  0  0  0  0  0  0  0
  -24.0251  -12.1842   19.8626 C   0  0  0  0  0  0  0  0  0  0  0  0
  -26.3847  -28.5033   18.1555 C   0  0  0  0  0  0  0  0  0  0  0  0
  -22.4948   -9.1718   19.8010 C   0  0  0  0  0  0  0  0  0  0  0  0
  -21.8009   -8.4888   18.8022 C   0  0  0  0  0  0  0  0  0  0  0  0
  -25.8979  -27.6774   20.3691 C   0  0  0  0  0  0  0  0  0  0  0  0
  -28.6385  -23.8991   18.6484 C   0  0  0  0  0  0  0  0  0  0  0  0
  -26.5328  -22.7895   19.0624 C   0  0  0  0  0  0  0  0  0  0  0  0
  -19.9878  -10.0761   18.9765 C   0  0  0  0  0  0  0  0  0  0  0  0
  -26.3501  -12.5421   20.4131 C   0  0  0  0  0  0  0  0  0  0  0  0
  -28.6748  -12.4417   19.3673 C   0  0  0  0  0  0  0  0  0  0  0  0
  -27.7467  -35.9263   24.3633 C   0  0  0  0  0  0  0  0  0  0  0  0
  -25.4646  -29.9979   19.8330 C   0  0  0  0  0  0  0  0  0  0  0  0
  -27.8982  -35.0779   23.2499 C   0  0  0  0  0  0  0  0  0  0  0  0
  -25.4350  -28.9439   20.7574 C   0  0  0  0  0  0  0  0  0  0  0  0
  -27.3283  -23.9336   19.1254 C   0  0  0  0  0  0  0  0  0  0  0  0
  -29.1534  -22.7206   18.1083 C   0  0  0  0  0  0  0  0  0  0  0  0
  -27.0476  -21.6109   18.5224 C   0  0  0  0  0  0  0  0  0  0  0  0
  -28.3579  -21.5765   18.0453 C   0  0  0  0  0  0  0  0  0  0  0  0
  -23.8471  -11.4951   21.0623 C   0  0  0  0  0  0  0  0  0  0  0  0
  -26.3716  -27.4592   19.0756 C   0  0  0  0  0  0  0  0  0  0  0  0
  -21.9352  -10.3069   20.3876 C   0  0  0  0  0  0  0  0  0  0  0  0
  -20.5474   -8.9410   18.3900 C   0  0  0  0  0  0  0  0  0  0  0  0
  -20.6818  -10.7591   19.9754 C   0  0  0  0  0  0  0  0  0  0  0  0
  -27.6425  -13.0835   20.0775 C   0  0  0  0  0  0  0  0  0  0  0  0
  -29.6843  -13.3714   19.3137 C   0  0  0  0  0  0  0  0  0  0  0  0
  -28.7172  -11.1229   18.8062 C   0  0  0  0  0  0  0  0  0  0  0  0
  -26.3665  -31.8715   22.2371 C   0  0  0  0  0  0  0  0  0  0  0  0
  -23.6485  -30.7564   23.6125 C   0  0  0  0  0  0  0  0  0  0  0  0
  -21.2899  -28.2963   23.7899 C   0  0  0  0  0  0  0  0  0  0  0  0
  -29.7388  -19.3519   19.5996 C   0  0  0  0  0  0  0  0  0  0  0  0
  -27.5393  -35.3806   25.7540 C   0  0  0  0  0  0  0  0  0  0  0  0
  -24.9520  -31.3597   20.2139 C   0  0  0  0  0  0  0  0  0  0  0  0
  -24.9266  -29.1352   22.1621 C   0  0  0  0  0  0  0  0  0  0  0  0
  -27.0796  -33.9251   25.7749 C   0  0  0  0  0  0  0  0  0  0  0  0
  -31.4813  -17.0910   21.7276 C   0  0  0  0  0  0  0  0  0  0  0  0
  -27.9242  -33.0848   24.8224 C   0  0  0  0  0  0  0  0  0  0  0  0
  -30.7882  -15.7496   21.4819 C   0  0  0  0  0  0  0  0  0  0  0  0
  -30.4915  -18.2532   21.6883 C   0  0  0  0  0  0  0  0  0  0  0  0
  -28.9726  -16.9810   20.2226 C   0  0  0  0  0  0  0  0  0  0  0  0
  -28.2212  -20.5770   14.9475 C   0  0  0  0  0  0  0  0  0  0  0  0
  -27.7776  -33.5747   23.3767 C   0  0  1  0  0  0  0  0  0  0  0  0
  -24.9807  -31.6096   21.7186 C   0  0  1  0  0  0  0  0  0  0  0  0
  -29.9388  -15.7843   20.1971 C   0  0  2  0  0  0  0  0  0  0  0  0
  -28.1228  -19.8553   16.2623 C   0  0  2  0  0  0  0  0  0  0  0  0
  -30.5600  -22.7098   17.6054 C   0  0  0  0  0  0  0  0  0  0  0  0
  -26.1753  -20.3994   18.4665 C   0  0  0  0  0  0  0  0  0  0  0  0
  -19.2112  -27.6465   25.0366 C   0  0  0  0  0  0  0  0  0  0  0  0
  -25.3459  -29.9443   26.0144 C   0  0  0  0  0  0  0  0  0  0  0  0
  -23.4533  -28.4911   26.7724 C   0  0  0  0  0  0  0  0  0  0  0  0
  -23.1350  -30.9589   26.5947 C   0  0  0  0  0  0  0  0  0  0  0  0
  -19.6612  -28.3188   21.3189 C   0  0  0  0  0  0  0  0  0  0  0  0
  -26.7742  -25.2015   19.7057 C   0  0  0  0  0  0  0  0  0  1  0  0
  -28.9104  -20.3129   17.4666 C   0  0  2  0  0  0  0  0  0  0  0  0
  -23.2987  -29.5752   24.4851 C   0  0  1  0  0  0  0  0  0  0  0  0
  -19.7731  -28.3549   23.8139 C   0  0  2  0  0  0  0  0  0  0  0  0
  -23.8197  -29.7389   25.9408 C   0  0  0  0  0  0  0  0  0  0  0  0
  -27.9666  -14.3250   20.4486 N   0  0  0  0  0  0  0  0  0  0  0  0
  -29.2138  -14.4707   19.9698 N   0  0  0  0  0  0  0  0  0  0  0  0
  -24.4420  -30.4865   22.4885 N   0  0  0  0  0  0  0  0  0  0  0  0
  -29.7189  -18.2296   20.4439 N   0  0  0  0  0  0  0  0  0  0  0  0
  -30.9196  -13.3477   18.7699 N   0  0  0  0  0  0  0  0  0  0  0  0
  -27.5935  -10.2982   18.9523 N   0  0  0  0  0  0  0  0  0  0  0  0
  -26.5256  -33.1177   22.8127 N   0  0  0  0  0  0  0  0  0  0  0  0
  -21.8532  -29.4062   24.3831 N   0  0  0  0  0  0  0  0  0  0  0  0
  -28.9845  -19.2440   18.4376 N   0  0  0  0  0  0  0  0  0  0  0  0
  -19.2104  -27.7070   22.5954 N   0  3  0  0  0  0  0  0  0  0  0  0
  -29.7280  -10.6830   18.2077 O   0  0  0  0  0  0  0  0  0  0  0  0
  -27.2271  -31.0065   22.1248 O   0  0  0  0  0  0  0  0  0  0  0  0
  -23.2271  -31.8761   23.9131 O   0  0  0  0  0  0  0  0  0  0  0  0
  -21.9125  -27.3579   23.2978 O   0  0  0  0  0  0  0  0  0  0  0  0
  -30.3854  -20.3724   19.8592 O   0  0  0  0  0  0  0  0  0  0  0  0
  -28.9200  -19.3455   15.1884 O   0  0  0  0  0  0  0  0  0  0  0  0
  -22.6258  -10.9843   21.3785 O   0  0  0  0  0  0  0  0  0  0  0  0
  -26.8159  -26.2252   18.7124 O   0  0  0  0  0  0  0  0  0  1  0  0
  -19.8818   -8.2859   17.4297 F   0  0  0  0  0  0  0  0  0  0  0  0
  -20.1396  -11.8497   20.5344 F   0  0  0  0  0  0  0  0  0  0  0  0
  1  2  1  0  0  0  0
  1  5  2  0  0  0  0
  2  6  2  0  0  0  0
  3  8  2  0  0  0  0
  3 17  1  0  0  0  0
  4  9  1  0  0  0  0
  4 17  2  0  0  0  0
  5 19  1  0  0  0  0
  6 21  1  0  0  0  0
  7 10  2  0  0  0  0
  7 20  1  0  0  0  0
  8 27  1  0  0  0  0
  9 27  2  0  0  0  0
 10 28  1  0  0  0  0
 11 12  2  0  0  0  0
 11 29  1  0  0  0  0
 12 30  1  0  0  0  0
 13 22  1  0  0  0  0
 13 28  2  0  0  0  0
 14 23  1  0  0  0  0
 14 24  2  0  0  0  0
 15 23  2  0  0  0  0
 15 25  1  0  0  0  0
 16 30  2  0  0  0  0
 16 31  1  0  0  0  0
 17 32  1  0  0  0  0
 18 32  1  0  0  0  0
 18 33  2  0  0  0  0
 18 34  1  0  0  0  0
 19 21  2  0  0  0  0
 19 39  1  0  0  0  0
 20 22  2  0  0  0  0
 20 40  1  0  0  0  0
 21 49  1  0  0  0  0
 22 41  1  0  0  0  0
 23 60  1  0  0  0  0
 24 26  1  0  0  0  0
 24 53  1  0  0  0  0
 25 26  2  0  0  0  0
 25 54  1  0  0  0  0
 26 61  1  0  0  0  0
 27 81  1  0  0  0  0
 28 82  1  0  0  0  0
 29 31  2  0  0  0  0
 29 81  1  0  0  0  0
 30 83  1  0  0  0  0
 31 84  1  0  0  0  0
 32 65  2  0  0  0  0
 33 66  1  0  0  0  0
 33 69  1  0  0  0  0
 34 70  1  0  0  0  0
 34 75  2  0  0  0  0
 35 50  1  0  0  0  0
 35 71  1  0  0  0  0
 35 76  2  0  0  0  0
 36 62  1  0  0  0  0
 36 67  1  0  0  0  0
 36 77  2  0  0  0  0
 37 63  1  0  0  0  0
 37 72  1  0  0  0  0
 37 78  2  0  0  0  0
 38 68  1  0  0  0  0
 38 73  1  0  0  0  0
 38 79  2  0  0  0  0
 39 42  1  0  0  0  0
 40 50  1  0  0  0  0
 41 67  1  0  0  0  0
 42 44  1  0  0  0  0
 43 45  1  0  0  0  0
 43 46  1  0  0  0  0
 44 49  1  0  0  0  0
 45 51  1  0  0  0  0
 46 68  1  0  0  0  0
 47 51  1  0  0  0  0
 47 68  1  0  0  0  0
 48 52  1  0  0  0  0
 48 80  1  0  0  0  0
 49 71  1  0  0  0  0
 50 67  1  0  0  0  0
 51 66  1  0  0  0  0
 52 61  1  0  0  0  0
 52 80  1  0  0  0  0
 55 63  1  0  0  0  0
 56 64  1  0  0  0  0
 57 64  1  0  0  0  0
 58 64  1  0  0  0  0
 59 74  1  0  0  0  0
 60 82  1  0  0  0  0
 61 73  1  0  0  0  0
 62 64  1  0  0  0  0
 62 72  1  0  0  0  0
 63 74  1  0  0  0  0
 65 66  1  0  0  0  0
M  CHG  1  74   1
M  ISO  4  38 100  60 101  73 100  82 101
M  END
> <Batch ID>
0151

> <Smiles>
CNC(C)C(=O)NC(C(=O)N1Cc2cc([101O:1][101CH2:1]c3cc(C)c(C([100NH:0][100C:0](=O)N4CCCC(n5nc(-c6ccc(Oc7ccc(F)cc7F)cc6)c(C(N)=O)c5N)C4)C4CO4)c(C)c3)ccc2CC1C(=O)NC1CCCc2ccccc21)C(C)(C)C

> <Shape>
0.311

> <Color>
0.073

> <Negative vol penalty>
0.000

$$$$

  -OEChem-04052321433D

 88 97  0     1  0  0  0  0  0999 V2000
  -22.3167  -30.6673   23.6578 C   0  0  0  0  0  0  0  0  0  0  0  0
  -21.7294  -29.4910   23.2030 C   0  0  0  0  0  0  0  0  0  0  0  0
  -28.8455  -12.7410   20.9176 C   0  0  0  0  0  0  0  0  0  0  0  0
  -28.1040  -12.8812   18.6225 C   0  0  0  0  0  0  0  0  0  0  0  0
  -23.4840  -31.1391   23.0590 C   0  0  0  0  0  0  0  0  0  0  0  0
  -22.3087  -28.7863   22.1483 C   0  0  0  0  0  0  0  0  0  0  0  0
  -22.4256  -22.7084   21.4060 C   0  0  0  0  0  0  0  0  0  0  0  0
  -18.7580  -19.6926   17.1434 C   0  0  0  0  0  0  0  0  0  0  0  0
  -18.1221  -18.8077   16.2726 C   0  0  0  0  0  0  0  0  0  0  0  0
  -30.1729  -12.7902   20.4918 C   0  0  0  0  0  0  0  0  0  0  0  0
  -29.4314  -12.9306   18.1967 C   0  0  0  0  0  0  0  0  0  0  0  0
  -21.6416  -21.8409   20.6467 C   0  0  0  0  0  0  0  0  0  0  0  0
  -31.9749  -10.7564   17.7127 C   0  0  0  0  0  0  0  0  0  0  0  0
  -32.3377   -9.9573   16.6285 C   0  0  0  0  0  0  0  0  0  0  0  0
  -23.2877  -21.9053   18.8845 C   0  0  0  0  0  0  0  0  0  0  0  0
  -19.4020  -17.8408   18.5551 C   0  0  0  0  0  0  0  0  0  0  0  0
  -32.9929  -11.9287   15.3950 C   0  0  0  0  0  0  0  0  0  0  0  0
  -27.8111  -12.7864   19.9830 C   0  0  0  0  0  0  0  0  0  0  0  0
  -25.6125  -13.8241   20.7558 C   0  0  0  0  0  0  0  0  0  0  0  0
  -24.0832  -30.4348   22.0028 C   0  0  0  0  0  0  0  0  0  0  0  0
  -23.6434  -23.1903   20.9049 C   0  0  0  0  0  0  0  0  0  0  0  0
  -23.4844  -29.2499   21.5339 C   0  0  0  0  0  0  0  0  0  0  0  0
  -24.0865  -22.7768   19.6405 C   0  0  0  0  0  0  0  0  0  0  0  0
  -19.3981  -19.2091   18.2846 C   0  0  0  0  0  0  0  0  0  0  0  0
  -18.1261  -17.4393   16.5432 C   0  0  0  0  0  0  0  0  0  0  0  0
  -18.7661  -16.9558   17.6844 C   0  0  0  0  0  0  0  0  0  0  0  0
  -30.4658  -12.8851   19.1314 C   0  0  0  0  0  0  0  0  0  0  0  0
  -22.0712  -21.4416   19.3845 C   0  0  0  0  0  0  0  0  0  0  0  0
  -32.1209  -12.1416   17.6380 C   0  0  0  0  0  0  0  0  0  0  0  0
  -32.8468  -10.5435   15.4697 C   0  0  0  0  0  0  0  0  0  0  0  0
  -32.6299  -12.7277   16.4792 C   0  0  0  0  0  0  0  0  0  0  0  0
  -26.4397  -12.7349   20.4222 C   0  0  0  0  0  0  0  0  0  0  0  0
  -24.4148  -13.2507   21.1069 C   0  0  0  0  0  0  0  0  0  0  0  0
  -25.9009  -15.2285   20.7490 C   0  0  0  0  0  0  0  0  0  0  0  0
  -24.7958  -26.0660   20.1937 C   0  0  0  0  0  0  0  0  0  0  0  0
  -27.5428  -24.4136   19.6982 C   0  0  0  0  0  0  0  0  0  0  0  0
  -29.0404  -21.4369   18.9609 C   0  0  0  0  0  0  0  0  0  0  0  0
  -20.3636   -9.6386   20.3918 C   0  0  0  0  0  0  0  0  0  0  0  0
  -25.3186  -31.0091   21.3558 C   0  0  0  0  0  0  0  0  0  0  0  0
  -24.4902  -24.1043   21.7474 C   0  0  0  0  0  0  0  0  0  0  0  0
  -25.3958  -23.2495   19.0653 C   0  0  0  0  0  0  0  0  0  0  0  0
  -26.0761  -30.0048   20.4909 C   0  0  0  0  0  0  0  0  0  0  0  0
  -23.1882   -8.4280   21.9761 C   0  0  0  0  0  0  0  0  0  0  0  0
  -25.1116  -29.2460   19.5851 C   0  0  0  0  0  0  0  0  0  0  0  0
  -24.2292   -9.5240   21.7493 C   0  0  0  0  0  0  0  0  0  0  0  0
  -18.6900  -12.9368   20.6094 C   0  0  0  0  0  0  0  0  0  0  0  0
  -20.1691  -12.9036   18.5697 C   0  0  0  0  0  0  0  0  0  0  0  0
  -22.3527   -8.2006   20.7214 C   0  0  0  0  0  0  0  0  0  0  0  0
  -18.6583  -11.4111   20.5884 C   0  0  0  0  0  0  0  0  0  0  0  0
  -20.1050  -11.3798   18.5839 C   0  0  0  0  0  0  0  0  0  0  0  0
  -22.6994  -10.5367   19.9879 C   0  0  0  0  0  0  0  0  0  0  0  0
  -24.0965  -28.4442   20.4086 C   0  0  1  0  0  0  0  0  0  0  0  0
  -25.4678  -24.9392   20.9260 C   0  0  1  0  0  0  0  0  0  0  0  0
  -18.9166  -13.5191   19.2082 C   0  0  0  0  0  0  0  0  0  0  0  0
  -23.5694  -10.8140   21.2304 C   0  0  2  0  0  0  0  0  0  0  0  0
  -18.0633  -16.5406   14.1890 C   0  0  0  0  0  0  0  0  0  0  0  0
  -15.9246  -16.7931   15.4993 C   0  0  0  0  0  0  0  0  0  0  0  0
  -31.2979  -20.4068   18.5872 C   0  0  0  0  0  0  0  0  0  0  0  0
  -27.6649  -25.6912   16.9300 C   0  0  0  0  0  0  0  0  0  0  0  0
  -29.3423  -23.9510   16.2773 C   0  0  0  0  0  0  0  0  0  0  0  0
  -29.8634  -25.5560   18.1145 C   0  0  0  0  0  0  0  0  0  0  0  0
  -28.6962  -19.5756   21.2360 C   0  0  0  0  0  0  0  0  0  0  0  0
  -20.0778  -20.1556   19.2151 C   0  0  0  0  0  0  0  0  0  1  0  0
  -19.0267  -15.0410   19.2627 C   0  0  0  0  0  0  0  0  0  0  0  0
  -17.4356  -16.5145   15.5943 C   0  0  0  0  0  0  0  0  0  0  0  0
  -28.1739  -23.7185   18.5160 C   0  0  1  0  0  0  0  0  0  0  0  0
  -30.2082  -20.7104   19.6036 C   0  0  2  0  0  0  0  0  0  0  0  0
  -28.7355  -24.7216   17.4692 C   0  0  0  0  0  0  0  0  0  0  0  0
  -25.8200  -11.5587   20.5500 N   0  0  0  0  0  0  0  0  0  0  0  0
  -24.5907  -11.9053   20.9679 N   0  0  0  0  0  0  0  0  0  0  0  0
  -26.1851  -24.1470   19.9249 N   0  0  0  0  0  0  0  0  0  0  0  0
  -21.7473   -9.4490   20.2581 N   0  0  0  0  0  0  0  0  0  0  0  0
  -19.8434  -10.8601   19.9327 N   0  0  0  0  0  0  0  0  0  0  0  0
  -23.2389  -13.7711   21.5178 N   0  0  0  0  0  0  0  0  0  0  0  0
  -27.1816  -15.6457   20.3615 N   0  0  0  0  0  0  0  0  0  0  0  0
  -18.7785  -15.5891   17.9718 N   0  0  0  0  0  0  0  0  0  0  0  0
  -24.7048  -27.2360   20.9232 N   0  0  0  0  0  0  0  0  0  0  0  0
  -29.1714  -22.8057   19.0639 N   0  0  0  0  0  0  0  0  0  0  0  0
  -29.7519  -19.4240   20.2019 N   0  3  0  0  0  0  0  0  0  0  0  0
  -25.0533  -16.0871   21.0925 O   0  0  0  0  0  0  0  0  0  0  0  0
  -24.3912  -25.8877   19.0508 O   0  0  0  0  0  0  0  0  0  0  0  0
  -28.2310  -25.1598   20.3990 O   0  0  0  0  0  0  0  0  0  0  0  0
  -28.1073  -20.8491   18.4184 O   0  0  0  0  0  0  0  0  0  0  0  0
  -19.6357   -8.7733   20.8942 O   0  0  0  0  0  0  0  0  0  0  0  0
  -31.7609  -12.9334   18.7155 O   0  0  0  0  0  0  0  0  0  0  0  0
  -21.3023  -20.5896   18.6359 O   0  0  0  0  0  0  0  0  0  1  0  0
  -33.1967   -9.7759   14.4292 F   0  0  0  0  0  0  0  0  0  0  0  0
  -32.7736  -14.0578   16.4019 F   0  0  0  0  0  0  0  0  0  0  0  0
  1  2  1  0  0  0  0
  1  5  2  0  0  0  0
  2  6  2  0  0  0  0
  3 10  2  0  0  0  0
  3 18  1  0  0  0  0
  4 11  1  0  0  0  0
  4 18  2  0  0  0  0
  5 20  1  0  0  0  0
  6 22  1  0  0  0  0
  7 12  2  0  0  0  0
  7 21  1  0  0  0  0
  8  9  2  0  0  0  0
  8 24  1  0  0  0  0
  9 25  1  0  0  0  0
 10 27  1  0  0  0  0
 11 27  2  0  0  0  0
 12 28  1  0  0  0  0
 13 14  2  0  0  0  0
 13 29  1  0  0  0  0
 14 30  1  0  0  0  0
 15 23  1  0  0  0  0
 15 28  2  0  0  0  0
 16 24  2  0  0  0  0
 16 26  1  0  0  0  0
 17 30  2  0  0  0  0
 17 31  1  0  0  0  0
 18 32  1  0  0  0  0
 19 32  1  0  0  0  0
 19 33  2  0  0  0  0
 19 34  1  0  0  0  0
 20 22  2  0  0  0  0
 20 39  1  0  0  0  0
 21 23  2  0  0  0  0
 21 40  1  0  0  0  0
 22 52  1  0  0  0  0
 23 41  1  0  0  0  0
 24 63  1  0  0  0  0
 25 26  2  0  0  0  0
 25 65  1  0  0  0  0
 26 76  1  0  0  0  0
 27 85  1  0  0  0  0
 28 86  1  0  0  0  0
 29 31  2  0  0  0  0
 29 85  1  0  0  0  0
 30 87  1  0  0  0  0
 31 88  1  0  0  0  0
 32 69  2  0  0  0  0
 33 70  1  0  0  0  0
 33 74  1  0  0  0  0
 34 75  1  0  0  0  0
 34 80  2  0  0  0  0
 35 53  1  0  0  0  0
 35 77  1  0  0  0  0
 35 81  2  0  0  0  0
 36 66  1  0  0  0  0
 36 71  1  0  0  0  0
 36 82  2  0  0  0  0
 37 67  1  0  0  0  0
 37 78  1  0  0  0  0
 37 83  2  0  0  0  0
 38 72  1  0  0  0  0
 38 73  1  0  0  0  0
 38 84  2  0  0  0  0
 39 42  1  0  0  0  0
 40 53  1  0  0  0  0
 41 71  1  0  0  0  0
 42 44  1  0  0  0  0
 43 45  1  0  0  0  0
 43 48  1  0  0  0  0
 44 52  1  0  0  0  0
 45 55  1  0  0  0  0
 46 49  1  0  0  0  0
 46 54  1  0  0  0  0
 47 50  1  0  0  0  0
 47 54  1  0  0  0  0
 48 72  1  0  0  0  0
 49 73  1  0  0  0  0
 50 73  1  0  0  0  0
 51 55  1  0  0  0  0
 51 72  1  0  0  0  0
 52 77  1  0  0  0  0
 53 71  1  0  0  0  0
 54 64  1  0  0  0  0
 55 70  1  0  0  0  0
 56 65  1  0  0  0  0
 57 65  1  0  0  0  0
 58 67  1  0  0  0  0
 59 68  1  0  0  0  0
 60 68  1  0  0  0  0
 61 68  1  0  0  0  0
 62 79  1  0  0  0  0
 63 86  1  0  0  0  0
 64 76  1  0  0  0  0
 66 68  1  0  0  0  0
 66 78  1  0  0  0  0
 67 79  1  0  0  0  0
 69 70  1  0  0  0  0
M  CHG  1  79   1
M  ISO  4  38 100  63 101  73 100  86 101
M  END
> <Batch ID>
0151

> <Smiles>
CNC(C)C(=O)NC(C(=O)N1Cc2cc([101O:1][101CH2:1]c3ccc(C(C)C)c(NCC4CC[100N:0]([100C:0](=O)N5CCCC(n6nc(-c7ccc(Oc8ccc(F)cc8F)cc7)c(C(N)=O)c6N)C5)CC4)c3)ccc2CC1C(=O)NC1CCCc2ccccc21)C(C)(C)C

> <Shape>
0.229

> <Color>
0.103

> <Negative vol penalty>
0.000

$$$$

  -OEChem-04052321433D

 82 90  0     1  0  0  0  0  0999 V2000
  -27.8128  -35.8682   23.2915 C   0  0  0  0  0  0  0  0  0  0  0  0
  -28.4386  -34.6484   23.0552 C   0  0  0  0  0  0  0  0  0  0  0  0
  -24.4282   -8.6774   20.5186 C   0  0  0  0  0  0  0  0  0  0  0  0
  -22.7336  -10.3863   20.7304 C   0  0  0  0  0  0  0  0  0  0  0  0
  -26.4491  -35.9065   23.5793 C   0  0  0  0  0  0  0  0  0  0  0  0
  -27.7012  -33.4661   23.1076 C   0  0  0  0  0  0  0  0  0  0  0  0
  -28.5110  -28.4669   19.6640 C   0  0  0  0  0  0  0  0  0  0  0  0
  -23.5111   -7.7155   20.9418 C   0  0  0  0  0  0  0  0  0  0  0  0
  -21.8164   -9.4244   21.1536 C   0  0  0  0  0  0  0  0  0  0  0  0
  -29.1653  -27.2592   19.9030 C   0  0  0  0  0  0  0  0  0  0  0  0
  -21.7144   -4.8661   22.3116 C   0  0  0  0  0  0  0  0  0  0  0  0
  -22.1395   -3.9353   23.2595 C   0  0  0  0  0  0  0  0  0  0  0  0
  -27.0671  -26.2561   20.5437 C   0  0  0  0  0  0  0  0  0  0  0  0
  -27.1627  -19.8668   20.0244 C   0  0  0  0  0  0  0  0  0  0  0  0
  -29.6965  -20.3755   18.9736 C   0  0  0  0  0  0  0  0  0  0  0  0
  -22.6017   -5.7276   24.8122 C   0  0  0  0  0  0  0  0  0  0  0  0
  -24.0395  -10.0129   20.4129 C   0  0  0  0  0  0  0  0  0  0  0  0
  -25.2371  -11.4198   18.6540 C   0  0  0  0  0  0  0  0  0  0  0  0
  -25.6926  -34.7249   23.6256 C   0  0  0  0  0  0  0  0  0  0  0  0
  -27.1293  -28.5814   19.8739 C   0  0  0  0  0  0  0  0  0  0  0  0
  -26.3264  -33.4885   23.3975 C   0  0  0  0  0  0  0  0  0  0  0  0
  -26.3972  -27.4656   20.3042 C   0  0  0  0  0  0  0  0  0  0  0  0
  -28.0421  -18.8115   19.7823 C   0  0  0  0  0  0  0  0  0  0  0  0
  -27.5502  -21.1765   19.7411 C   0  0  0  0  0  0  0  0  0  0  0  0
  -29.3089  -19.0658   19.2569 C   0  0  0  0  0  0  0  0  0  0  0  0
  -22.2052   -8.0889   21.2593 C   0  0  0  0  0  0  0  0  0  0  0  0
  -28.4439  -26.1544   20.3457 C   0  0  0  0  0  0  0  0  0  0  0  0
  -21.7330   -6.2277   22.6140 C   0  0  0  0  0  0  0  0  0  0  0  0
  -28.8171  -21.4308   19.2157 C   0  0  0  0  0  0  0  0  0  0  0  0
  -22.5831   -4.3660   24.5098 C   0  0  0  0  0  0  0  0  0  0  0  0
  -22.1766   -6.6584   23.8643 C   0  0  0  0  0  0  0  0  0  0  0  0
  -24.9865  -11.0071   19.9764 C   0  0  0  0  0  0  0  0  0  0  0  0
  -26.2154  -12.3765   18.7723 C   0  0  0  0  0  0  0  0  0  0  0  0
  -24.6389  -10.9778   17.4282 C   0  0  0  0  0  0  0  0  0  0  0  0
  -25.2883  -30.3291   21.7870 C   0  0  0  0  0  0  0  0  0  0  0  0
  -28.2449  -16.9032   21.3568 C   0  0  0  0  0  0  0  0  0  0  0  0
  -22.8909  -28.9757   20.0715 C   0  0  0  0  0  0  0  0  0  0  0  0
  -21.8304  -26.3853   18.1190 C   0  0  0  0  0  0  0  0  0  0  0  0
  -24.2310  -34.8123   23.9872 C   0  0  0  0  0  0  0  0  0  0  0  0
  -26.4339  -29.8838   19.5859 C   0  0  0  0  0  0  0  0  0  0  0  0
  -24.9088  -27.5308   20.5253 C   0  0  0  0  0  0  0  0  0  0  0  0
  -23.4445  -33.5470   23.6545 C   0  0  0  0  0  0  0  0  0  0  0  0
  -29.0834  -13.6950   22.7150 C   0  0  0  0  0  0  0  0  0  0  0  0
  -24.1999  -32.3091   24.1274 C   0  0  0  0  0  0  0  0  0  0  0  0
  -28.0930  -12.7485   22.0378 C   0  0  0  0  0  0  0  0  0  0  0  0
  -28.4550  -15.0578   22.9892 C   0  0  0  0  0  0  0  0  0  0  0  0
  -26.8842  -14.7693   21.0995 C   0  0  0  0  0  0  0  0  0  0  0  0
  -25.5554  -32.1865   23.4209 C   0  0  1  0  0  0  0  0  0  0  0  0
  -25.1078  -30.0294   20.3258 C   0  0  1  0  0  0  0  0  0  0  0  0
  -27.4882  -13.3911   20.7769 C   0  0  2  0  0  0  0  0  0  0  0  0
  -26.5965  -22.2941   20.0074 C   0  0  0  0  0  0  0  0  0  0  0  0
  -30.2678  -17.9525   18.9893 C   0  0  0  0  0  0  0  0  0  0  0  0
  -19.8086  -25.5388   16.8971 C   0  0  0  0  0  0  0  0  0  0  0  0
  -21.6629  -28.0912   22.7209 C   0  0  0  0  0  0  0  0  0  0  0  0
  -20.2274  -26.4887   21.4406 C   0  0  0  0  0  0  0  0  0  0  0  0
  -20.0174  -28.9420   21.0408 C   0  0  0  0  0  0  0  0  0  0  0  0
  -23.2202  -26.4917   15.5083 C   0  0  0  0  0  0  0  0  0  0  0  0
  -27.6051  -17.4173   20.0918 C   0  0  0  0  0  0  0  0  0  0  0  0
  -30.2385  -24.6940   19.7955 C   0  0  0  0  0  0  0  0  0  1  0  0
  -30.3629  -23.1935   19.6149 C   0  0  0  0  0  0  0  0  0  0  0  0
  -22.0634  -27.7194   20.1976 C   0  0  1  0  0  0  0  0  0  0  0  0
  -21.0847  -26.3600   16.7970 C   0  0  2  0  0  0  0  0  0  0  0  0
  -21.0211  -27.8093   21.3478 C   0  0  0  0  0  0  0  0  0  0  0  0
  -25.7447  -11.6490   20.8692 N   0  0  0  0  0  0  0  0  0  0  0  0
  -26.4813  -12.4747   20.1064 N   0  0  0  0  0  0  0  0  0  0  0  0
  -24.2755  -28.8280   20.2359 N   0  0  0  0  0  0  0  0  0  0  0  0
  -27.8722  -15.6245   21.7717 N   0  0  0  0  0  0  0  0  0  0  0  0
  -26.8657  -13.1348   17.8643 N   0  0  0  0  0  0  0  0  0  0  0  0
  -23.6487   -9.9876   17.4869 N   0  0  0  0  0  0  0  0  0  0  0  0
  -25.3810  -31.6769   22.0777 N   0  0  0  0  0  0  0  0  0  0  0  0
  -21.4815  -27.4801   18.8813 N   0  0  0  0  0  0  0  0  0  0  0  0
  -21.9414  -25.7691   15.7303 N   0  3  0  0  0  0  0  0  0  0  0  0
  -24.9841  -11.4354   16.3124 O   0  0  0  0  0  0  0  0  0  0  0  0
  -25.3382  -29.4060   22.5914 O   0  0  0  0  0  0  0  0  0  0  0  0
  -29.0539  -17.6170   21.9554 O   0  0  0  0  0  0  0  0  0  0  0  0
  -22.3303  -30.0473   19.8287 O   0  0  0  0  0  0  0  0  0  0  0  0
  -22.6386  -25.5185   18.4446 O   0  0  0  0  0  0  0  0  0  0  0  0
  -21.3099   -7.1505   21.6721 O   0  0  0  0  0  0  0  0  0  0  0  0
  -29.0802  -24.9746   20.5803 O   0  0  0  0  0  0  0  0  0  1  0  0
  -29.2131  -22.7110   18.9304 O   0  0  0  0  0  0  0  0  0  0  0  0
  -22.9898   -3.4720   25.4206 F   0  0  0  0  0  0  0  0  0  0  0  0
  -22.1957   -7.9651   24.1610 F   0  0  0  0  0  0  0  0  0  0  0  0
  1  2  1  0  0  0  0
  1  5  2  0  0  0  0
  2  6  2  0  0  0  0
  3  8  2  0  0  0  0
  3 17  1  0  0  0  0
  4  9  1  0  0  0  0
  4 17  2  0  0  0  0
  5 19  1  0  0  0  0
  6 21  1  0  0  0  0
  7 10  2  0  0  0  0
  7 20  1  0  0  0  0
  8 26  1  0  0  0  0
  9 26  2  0  0  0  0
 10 27  1  0  0  0  0
 11 12  2  0  0  0  0
 11 28  1  0  0  0  0
 12 30  1  0  0  0  0
 13 22  1  0  0  0  0
 13 27  2  0  0  0  0
 14 23  2  0  0  0  0
 14 24  1  0  0  0  0
 15 25  2  0  0  0  0
 15 29  1  0  0  0  0
 16 30  2  0  0  0  0
 16 31  1  0  0  0  0
 17 32  1  0  0  0  0
 18 32  1  0  0  0  0
 18 33  2  0  0  0  0
 18 34  1  0  0  0  0
 19 21  2  0  0  0  0
 19 39  1  0  0  0  0
 20 22  2  0  0  0  0
 20 40  1  0  0  0  0
 21 48  1  0  0  0  0
 22 41  1  0  0  0  0
 23 25  1  0  0  0  0
 23 58  1  0  0  0  0
 24 29  2  0  0  0  0
 24 51  1  0  0  0  0
 25 52  1  0  0  0  0
 26 78  1  0  0  0  0
 27 79  1  0  0  0  0
 28 31  2  0  0  0  0
 28 78  1  0  0  0  0
 29 80  1  0  0  0  0
 30 81  1  0  0  0  0
 31 82  1  0  0  0  0
 32 64  2  0  0  0  0
 33 65  1  0  0  0  0
 33 68  1  0  0  0  0
 34 69  1  0  0  0  0
 34 73  2  0  0  0  0
 35 49  1  0  0  0  0
 35 70  1  0  0  0  0
 35 74  2  0  0  0  0
 36 58  1  0  0  0  0
 36 67  1  0  0  0  0
 36 75  2  0  0  0  0
 37 61  1  0  0  0  0
 37 66  1  0  0  0  0
 37 76  2  0  0  0  0
 38 62  1  0  0  0  0
 38 71  1  0  0  0  0
 38 77  2  0  0  0  0
 39 42  1  0  0  0  0
 40 49  1  0  0  0  0
 41 66  1  0  0  0  0
 42 44  1  0  0  0  0
 43 45  1  0  0  0  0
 43 46  1  0  0  0  0
 44 48  1  0  0  0  0
 45 50  1  0  0  0  0
 46 67  1  0  0  0  0
 47 50  1  0  0  0  0
 47 67  1  0  0  0  0
 48 70  1  0  0  0  0
 49 66  1  0  0  0  0
 50 65  1  0  0  0  0
 53 62  1  0  0  0  0
 54 63  1  0  0  0  0
 55 63  1  0  0  0  0
 56 63  1  0  0  0  0
 57 72  1  0  0  0  0
 59 60  1  0  0  0  0
 59 79  1  0  0  0  0
 60 80  1  0  0  0  0
 61 63  1  0  0  0  0
 61 71  1  0  0  0  0
 62 72  1  0  0  0  0
 64 65  1  0  0  0  0
M  CHG  1  72   1
M  ISO  4  36 100  58 100  59 101  79 101
M  END
> <Batch ID>
0151

> <Smiles>
CNC(C)C(=O)NC(C(=O)N1Cc2cc([101O:1][101CH2:1]COc3cc(C)c([100CH2:0][100C:0](=O)N4CCCC(n5nc(-c6ccc(Oc7ccc(F)cc7F)cc6)c(C(N)=O)c5N)C4)cc3C)ccc2CC1C(=O)NC1CCCc2ccccc21)C(C)(C)C

> <Shape>
0.334

> <Color>
0.104

> <Negative vol penalty>
0.000

$$$$

  -OEChem-04052321433D

 84 93  0     1  0  0  0  0  0999 V2000
  -20.6502   -9.9959   19.5115 C   0  0  0  0  0  0  0  0  0  0  0  0
  -20.8385  -11.2330   18.9037 C   0  0  0  0  0  0  0  0  0  0  0  0
  -19.1654  -28.9647   21.9982 C   0  0  0  0  0  0  0  0  0  0  0  0
  -20.4897  -27.3322   23.1892 C   0  0  0  0  0  0  0  0  0  0  0  0
  -21.4241   -9.6374   20.6145 C   0  0  0  0  0  0  0  0  0  0  0  0
  -21.8001  -12.1129   19.3992 C   0  0  0  0  0  0  0  0  0  0  0  0
  -26.4104  -17.1463   17.2251 C   0  0  0  0  0  0  0  0  0  0  0  0
  -18.1210  -28.0455   21.8995 C   0  0  0  0  0  0  0  0  0  0  0  0
  -19.4452  -26.4130   23.0905 C   0  0  0  0  0  0  0  0  0  0  0  0
  -26.7734  -18.4645   17.4978 C   0  0  0  0  0  0  0  0  0  0  0  0
  -15.6657  -26.8418   23.8884 C   0  0  0  0  0  0  0  0  0  0  0  0
  -14.3765  -27.2926   24.1714 C   0  0  0  0  0  0  0  0  0  0  0  0
  -28.1064  -17.7058   19.3597 C   0  0  0  0  0  0  0  0  0  0  0  0
  -29.9447  -22.3920   19.2276 C   0  0  0  0  0  0  0  0  0  0  0  0
  -13.6787  -26.7006   21.9353 C   0  0  0  0  0  0  0  0  0  0  0  0
  -28.4825  -22.4473   21.1026 C   0  0  0  0  0  0  0  0  0  0  0  0
  -20.3498  -28.6081   22.6431 C   0  0  0  0  0  0  0  0  0  0  0  0
  -21.6482  -30.4879   23.7780 C   0  0  0  0  0  0  0  0  0  0  0  0
  -22.4023  -10.5094   21.1178 C   0  0  0  0  0  0  0  0  0  0  0  0
  -26.8847  -16.0972   18.0256 C   0  0  0  0  0  0  0  0  0  0  0  0
  -22.5869  -11.7663   20.5107 C   0  0  0  0  0  0  0  0  0  0  0  0
  -27.7500  -16.3749   19.0935 C   0  0  0  0  0  0  0  0  0  0  0  0
  -29.0934  -21.7174   20.0956 C   0  0  0  0  0  0  0  0  0  0  0  0
  -30.1562  -23.7565   19.3907 C   0  0  0  0  0  0  0  0  0  0  0  0
  -18.2609  -26.7696   22.4456 C   0  0  0  0  0  0  0  0  0  0  0  0
  -27.6192  -18.7447   18.5670 C   0  0  0  0  0  0  0  0  0  0  0  0
  -15.9615  -26.3204   22.6288 C   0  0  0  0  0  0  0  0  0  0  0  0
  -13.3829  -27.2220   23.1949 C   0  0  0  0  0  0  0  0  0  0  0  0
  -14.9680  -26.2498   21.6524 C   0  0  0  0  0  0  0  0  0  0  0  0
  -21.4293  -29.5570   22.7449 C   0  0  0  0  0  0  0  0  0  0  0  0
  -29.4976  -24.3952   20.4290 C   0  0  0  0  0  0  0  0  0  0  0  0
  -22.7950  -31.1474   23.4086 C   0  0  0  0  0  0  0  0  0  0  0  0
  -20.8833  -30.7345   24.9654 C   0  0  0  0  0  0  0  0  0  0  0  0
  -25.5298  -13.9148   19.8978 C   0  0  0  0  0  0  0  0  0  0  0  0
  -28.5603  -12.7765   20.1047 C   0  0  0  0  0  0  0  0  0  0  0  0
  -31.9090  -13.3941   19.8778 C   0  0  0  0  0  0  0  0  0  0  0  0
  -27.3529  -29.5058   19.8469 C   0  0  0  0  0  0  0  0  0  0  0  0
  -23.1819  -10.0972   22.3413 C   0  0  0  0  0  0  0  0  0  0  0  0
  -26.5053  -14.6782   17.7019 C   0  0  0  0  0  0  0  0  0  0  0  0
  -28.3029  -15.2827   19.9708 C   0  0  0  0  0  0  0  0  0  0  0  0
  -24.4376  -10.9336   22.5738 C   0  0  0  0  0  0  0  0  0  0  0  0
  -25.3020  -32.4548   19.5598 C   0  0  0  0  0  0  0  0  0  0  0  0
  -24.1253  -12.4190   22.4220 C   0  0  0  0  0  0  0  0  0  0  0  0
  -24.0781  -32.1108   20.4081 C   0  0  0  0  0  0  0  0  0  0  0  0
  -29.0361  -26.9060   19.7064 C   0  0  0  0  0  0  0  0  0  0  0  0
  -25.8589  -31.2215   18.8561 C   0  0  0  0  0  0  0  0  0  0  0  0
  -24.9615  -29.7463   20.6379 C   0  0  0  0  0  0  0  0  0  0  0  0
  -23.6371  -12.7380   21.0038 C   0  0  1  0  0  0  0  0  0  0  0  0
  -29.6359  -25.8992   20.7287 C   0  0  1  0  0  0  0  0  0  0  0  0
  -26.6356  -13.7377   18.8960 C   0  0  1  0  0  0  0  0  0  0  0  0
  -28.6612  -26.5322   21.7734 C   0  0  2  0  0  0  0  0  0  0  0  0
  -24.3885  -30.9629   21.3851 C   0  0  2  0  0  0  0  0  0  0  0  0
  -28.6688  -27.8152   20.8974 C   0  0  2  0  0  0  0  0  0  0  0  0
  -31.0643  -24.4942   18.4704 C   0  0  0  0  0  0  0  0  0  0  0  0
  -29.1906  -26.6851   23.1864 C   0  0  0  0  0  0  0  0  0  0  0  0
  -34.1404  -12.2760   20.1386 C   0  0  0  0  0  0  0  0  0  0  0  0
  -28.2697  -12.9098   23.1392 C   0  0  0  0  0  0  0  0  0  0  0  0
  -30.7592  -12.7110   23.3165 C   0  0  0  0  0  0  0  0  0  0  0  0
  -29.4322  -10.8642   22.2914 C   0  0  0  0  0  0  0  0  0  0  0  0
  -32.6235  -13.9013   17.0509 C   0  0  0  0  0  0  0  0  0  0  0  0
  -28.8443  -20.2453   19.9465 C   0  0  0  0  0  0  0  0  0  1  0  0
  -29.7364  -13.0268   21.0175 C   0  0  1  0  0  0  0  0  0  0  0  0
  -33.0257  -12.6459   19.1724 C   0  0  2  0  0  0  0  0  0  0  0  0
  -29.5376  -12.3989   22.4260 C   0  0  0  0  0  0  0  0  0  0  0  0
  -28.6633  -23.7735   21.2923 N   0  0  0  0  0  0  0  0  0  0  0  0
  -22.3620  -29.6168   21.7907 N   0  0  0  0  0  0  0  0  0  0  0  0
  -23.1781  -30.5933   22.2227 N   0  0  0  0  0  0  0  0  0  0  0  0
  -27.8977  -13.9121   19.6178 N   0  0  0  0  0  0  0  0  0  0  0  0
  -26.1064  -30.1378   19.8063 N   0  0  0  0  0  0  0  0  0  0  0  0
  -23.5028  -32.1416   23.9856 N   0  0  0  0  0  0  0  0  0  0  0  0
  -19.7328  -29.9664   25.1905 N   0  0  0  0  0  0  0  0  0  0  0  0
  -24.7534  -12.7870   20.0841 N   0  0  0  0  0  0  0  0  0  0  0  0
  -30.9147  -12.5410   20.3077 N   0  0  0  0  0  0  0  0  0  0  0  0
  -33.6051  -13.4845   18.0852 N   0  3  0  0  0  0  0  0  0  0  0  0
  -21.2014  -31.6210   25.7938 O   0  0  0  0  0  0  0  0  0  0  0  0
  -25.3923  -14.9943   20.4612 O   0  0  0  0  0  0  0  0  0  0  0  0
  -28.2457  -11.6162   19.8281 O   0  0  0  0  0  0  0  0  0  0  0  0
  -31.9196  -14.6130   20.0351 O   0  0  0  0  0  0  0  0  0  0  0  0
  -28.3016  -29.7954   19.1201 O   0  0  0  0  0  0  0  0  0  0  0  0
  -17.2418  -25.8725   22.3497 O   0  0  0  0  0  0  0  0  0  0  0  0
  -27.9746  -20.0305   18.8358 O   0  0  0  0  0  0  0  0  0  1  0  0
  -27.4142  -28.5153   20.7929 O   0  0  0  0  0  0  0  0  0  0  0  0
  -12.1445  -27.6536   23.4673 F   0  0  0  0  0  0  0  0  0  0  0  0
  -15.2458  -25.7488   20.4409 F   0  0  0  0  0  0  0  0  0  0  0  0
  1  2  1  0  0  0  0
  1  5  2  0  0  0  0
  2  6  2  0  0  0  0
  3  8  2  0  0  0  0
  3 17  1  0  0  0  0
  4  9  1  0  0  0  0
  4 17  2  0  0  0  0
  5 19  1  0  0  0  0
  6 21  1  0  0  0  0
  7 10  2  0  0  0  0
  7 20  1  0  0  0  0
  8 25  1  0  0  0  0
  9 25  2  0  0  0  0
 10 26  1  0  0  0  0
 11 12  2  0  0  0  0
 11 27  1  0  0  0  0
 12 28  1  0  0  0  0
 13 22  1  0  0  0  0
 13 26  2  0  0  0  0
 14 23  2  0  0  0  0
 14 24  1  0  0  0  0
 15 28  2  0  0  0  0
 15 29  1  0  0  0  0
 16 23  1  0  0  0  0
 16 65  2  0  0  0  0
 17 30  1  0  0  0  0
 18 30  1  0  0  0  0
 18 32  2  0  0  0  0
 18 33  1  0  0  0  0
 19 21  2  0  0  0  0
 19 38  1  0  0  0  0
 20 22  2  0  0  0  0
 20 39  1  0  0  0  0
 21 48  1  0  0  0  0
 22 40  1  0  0  0  0
 23 61  1  0  0  0  0
 24 31  2  0  0  0  0
 24 54  1  0  0  0  0
 25 80  1  0  0  0  0
 26 81  1  0  0  0  0
 27 29  2  0  0  0  0
 27 80  1  0  0  0  0
 28 83  1  0  0  0  0
 29 84  1  0  0  0  0
 30 66  2  0  0  0  0
 31 49  1  0  0  0  0
 31 65  1  0  0  0  0
 32 67  1  0  0  0  0
 32 70  1  0  0  0  0
 33 71  1  0  0  0  0
 33 75  2  0  0  0  0
 34 50  1  0  0  0  0
 34 72  1  0  0  0  0
 34 76  2  0  0  0  0
 35 62  1  0  0  0  0
 35 68  1  0  0  0  0
 35 77  2  0  0  0  0
 36 63  1  0  0  0  0
 36 73  1  0  0  0  0
 36 78  2  0  0  0  0
 37 69  1  0  0  0  0
 37 79  2  0  0  0  0
 37 82  1  0  0  0  0
 38 41  1  0  0  0  0
 39 50  1  0  0  0  0
 40 68  1  0  0  0  0
 41 43  1  0  0  0  0
 42 44  1  0  0  0  0
 42 46  1  0  0  0  0
 43 48  1  0  0  0  0
 44 52  1  0  0  0  0
 45 49  1  0  0  0  0
 45 53  1  0  0  0  0
 46 69  1  0  0  0  0
 47 52  1  0  0  0  0
 47 69  1  0  0  0  0
 48 72  1  0  0  0  0
 49 51  1  0  0  0  0
 50 68  1  0  0  0  0
 51 53  1  0  0  0  0
 51 55  1  0  0  0  0
 52 67  1  0  0  0  0
 53 82  1  0  0  0  0
 56 63  1  0  0  0  0
 57 64  1  0  0  0  0
 58 64  1  0  0  0  0
 59 64  1  0  0  0  0
 60 74  1  0  0  0  0
 61 81  1  0  0  0  0
 62 64  1  0  0  0  0
 62 73  1  0  0  0  0
 63 74  1  0  0  0  0
 66 67  1  0  0  0  0
M  CHG  1  74   1
M  ISO  4  37 100  61 101  81 101  82 100
M  END
> <Batch ID>
0151

> <Smiles>
CNC(C)C(=O)NC(C(=O)N1Cc2cc([101O:1][101CH2:1]c3cnc(C4CC([100O:0][100C:0](=O)N5CCCC(n6nc(-c7ccc(Oc8ccc(F)cc8F)cc7)c(C(N)=O)c6N)C5)C4C)c(C)c3)ccc2CC1C(=O)NC1CCCc2ccccc21)C(C)(C)C

> <Shape>
0.299

> <Color>
0.081

> <Negative vol penalty>
0.000

$$$$

  -OEChem-04052321433D

 82 91  0     1  0  0  0  0  0999 V2000
  -29.2952  -35.9446   24.5897 C   0  0  0  0  0  0  0  0  0  0  0  0
  -29.4793  -34.6673   24.0700 C   0  0  0  0  0  0  0  0  0  0  0  0
  -24.4026   -9.4745   21.2167 C   0  0  0  0  0  0  0  0  0  0  0  0
  -24.9497  -10.3777   23.3897 C   0  0  0  0  0  0  0  0  0  0  0  0
  -28.0632  -36.3031   25.1351 C   0  0  0  0  0  0  0  0  0  0  0  0
  -28.4317  -33.7474   24.0964 C   0  0  0  0  0  0  0  0  0  0  0  0
  -28.1679  -21.8864   18.4655 C   0  0  0  0  0  0  0  0  0  0  0  0
  -27.1831  -29.4680   19.8972 C   0  0  0  0  0  0  0  0  0  0  0  0
  -28.0719  -23.2775   18.4773 C   0  0  0  0  0  0  0  0  0  0  0  0
  -24.0960   -8.2471   21.8041 C   0  0  0  0  0  0  0  0  0  0  0  0
  -24.6430   -9.1503   23.9771 C   0  0  0  0  0  0  0  0  0  0  0  0
  -27.4648  -28.1040   19.8355 C   0  0  0  0  0  0  0  0  0  0  0  0
  -21.5222   -6.8797   23.5184 C   0  0  0  0  0  0  0  0  0  0  0  0
  -20.3522   -6.2398   23.1097 C   0  0  0  0  0  0  0  0  0  0  0  0
  -28.3463  -23.2722   20.8740 C   0  0  0  0  0  0  0  0  0  0  0  0
  -25.2734  -27.6175   20.7187 C   0  0  0  0  0  0  0  0  0  0  0  0
  -21.6499   -4.3425   22.3656 C   0  0  0  0  0  0  0  0  0  0  0  0
  -24.8295  -10.5398   22.0096 C   0  0  0  0  0  0  0  0  0  0  0  0
  -24.2696  -12.8851   21.1767 C   0  0  0  0  0  0  0  0  0  0  0  0
  -26.9970  -35.3903   25.1596 C   0  0  0  0  0  0  0  0  0  0  0  0
  -28.3624  -21.1728   19.6581 C   0  0  0  0  0  0  0  0  0  0  0  0
  -25.9463  -29.9182   20.3811 C   0  0  0  0  0  0  0  0  0  0  0  0
  -27.1847  -34.0936   24.6440 C   0  0  0  0  0  0  0  0  0  0  0  0
  -28.4340  -21.8717   20.8770 C   0  0  0  0  0  0  0  0  0  0  0  0
  -24.9774  -28.9877   20.7831 C   0  0  0  0  0  0  0  0  0  0  0  0
  -28.1636  -23.9703   19.6808 C   0  0  0  0  0  0  0  0  0  0  0  0
  -24.2161   -8.0849   23.1843 C   0  0  0  0  0  0  0  0  0  0  0  0
  -26.5110  -27.1786   20.2490 C   0  0  0  0  0  0  0  0  0  0  0  0
  -22.7561   -6.2511   23.3507 C   0  0  0  0  0  0  0  0  0  0  0  0
  -20.4160   -4.9712   22.5333 C   0  0  0  0  0  0  0  0  0  0  0  0
  -22.8199   -4.9825   22.7743 C   0  0  0  0  0  0  0  0  0  0  0  0
  -25.1470  -11.8078   21.4034 C   0  0  0  0  0  0  0  0  0  0  0  0
  -25.0511  -13.8452   20.5818 C   0  0  0  0  0  0  0  0  0  0  0  0
  -22.8729  -13.0071   21.4771 C   0  0  0  0  0  0  0  0  0  0  0  0
  -25.0158  -31.7103   22.8360 C   0  0  0  0  0  0  0  0  0  0  0  0
  -22.1027  -31.4240   21.4381 C   0  0  0  0  0  0  0  0  0  0  0  0
  -20.0380  -29.6478   19.3817 C   0  0  0  0  0  0  0  0  0  0  0  0
  -29.7995  -16.7632   20.2932 C   0  0  0  0  0  0  0  0  0  0  0  0
  -25.6982  -35.8082   25.8024 C   0  0  0  0  0  0  0  0  0  0  0  0
  -25.6479  -31.3920   20.4162 C   0  0  0  0  0  0  0  0  0  0  0  0
  -28.4269  -19.6652   19.6067 C   0  0  0  0  0  0  0  0  0  0  0  0
  -28.6655  -21.1564   22.1842 C   0  0  0  0  0  0  0  0  0  0  0  0
  -23.6268  -29.4187   21.2915 C   0  0  0  0  0  0  0  0  0  0  0  0
  -24.5246  -34.8968   25.4525 C   0  0  0  0  0  0  0  0  0  0  0  0
  -28.3692  -19.6581   22.1161 C   0  0  0  0  0  0  0  0  0  0  0  0
  -29.7419  -13.5756   18.7082 C   0  0  0  0  0  0  0  0  0  0  0  0
  -24.9254  -33.4319   25.5946 C   0  0  0  0  0  0  0  0  0  0  0  0
  -28.4730  -12.9185   19.2541 C   0  0  0  0  0  0  0  0  0  0  0  0
  -30.4368  -14.4278   19.7679 C   0  0  0  0  0  0  0  0  0  0  0  0
  -28.3077  -14.7810   20.9578 C   0  0  0  0  0  0  0  0  0  0  0  0
  -26.0648  -33.0758   24.6320 C   0  0  1  0  0  0  0  0  0  0  0  0
  -24.5479  -31.7554   21.4089 C   0  0  1  0  0  0  0  0  0  0  0  0
  -27.5417  -13.9561   19.9094 C   0  0  2  0  0  0  0  0  0  0  0  0
  -29.0189  -19.0457   20.8764 C   0  0  1  0  0  0  0  0  0  0  0  0
  -17.7030  -29.6415   18.4625 C   0  0  0  0  0  0  0  0  0  0  0  0
  -21.0510  -30.4271   24.1232 C   0  0  0  0  0  0  0  0  0  0  0  0
  -19.0292  -29.5576   22.9296 C   0  0  0  0  0  0  0  0  0  0  0  0
  -19.5231  -32.0027   22.9243 C   0  0  0  0  0  0  0  0  0  0  0  0
  -21.0104  -29.8596   16.5945 C   0  0  0  0  0  0  0  0  0  0  0  0
  -28.0670  -25.4676   19.6948 C   0  0  0  0  0  0  0  0  0  1  0  0
  -20.9580  -30.4454   21.5431 C   0  0  1  0  0  0  0  0  0  0  0  0
  -19.1411  -30.0812   18.2362 C   0  0  2  0  0  0  0  0  0  0  0  0
  -20.1664  -30.5998   22.8723 C   0  0  0  0  0  0  0  0  0  0  0  0
  -26.3907  -12.0592   20.9863 N   0  0  0  0  0  0  0  0  0  0  0  0
  -26.3004  -13.3055   20.4915 N   0  0  0  0  0  0  0  0  0  0  0  0
  -23.3849  -30.8708   21.3127 N   0  0  0  0  0  0  0  0  0  0  0  0
  -29.4995  -15.3921   20.3489 N   0  0  0  0  0  0  0  0  0  0  0  0
  -24.7847  -15.0899   20.1323 N   0  0  0  0  0  0  0  0  0  0  0  0
  -22.2242  -11.9259   22.0890 N   0  0  0  0  0  0  0  0  0  0  0  0
  -25.5552  -32.8991   23.2891 N   0  0  0  0  0  0  0  0  0  0  0  0
  -20.1510  -30.6308   20.3420 N   0  0  0  0  0  0  0  0  0  0  0  0
  -28.8550  -17.6092   20.8615 N   0  0  0  0  0  0  0  0  0  0  0  0
  -19.6170  -29.4903   16.9535 N   0  3  0  0  0  0  0  0  0  0  0  0
  -22.2159  -14.0380   21.1959 O   0  0  0  0  0  0  0  0  0  0  0  0
  -24.8951  -30.6741   23.4790 O   0  0  0  0  0  0  0  0  0  0  0  0
  -21.8672  -32.6347   21.4591 O   0  0  0  0  0  0  0  0  0  0  0  0
  -20.5808  -28.5459   19.4224 O   0  0  0  0  0  0  0  0  0  0  0  0
  -30.8300  -17.2014   19.7707 O   0  0  0  0  0  0  0  0  0  0  0  0
  -23.9168   -6.8874   23.7578 O   0  0  0  0  0  0  0  0  0  0  0  0
  -26.7837  -25.8466   20.1905 O   0  0  0  0  0  0  0  0  0  1  0  0
  -19.2922   -4.3561   22.1422 F   0  0  0  0  0  0  0  0  0  0  0  0
  -24.0023   -4.3731   22.6117 F   0  0  0  0  0  0  0  0  0  0  0  0
  1  2  1  0  0  0  0
  1  5  2  0  0  0  0
  2  6  2  0  0  0  0
  3 10  2  0  0  0  0
  3 18  1  0  0  0  0
  4 11  1  0  0  0  0
  4 18  2  0  0  0  0
  5 20  1  0  0  0  0
  6 23  1  0  0  0  0
  7  9  2  0  0  0  0
  7 21  1  0  0  0  0
  8 12  2  0  0  0  0
  8 22  1  0  0  0  0
  9 26  1  0  0  0  0
 10 27  1  0  0  0  0
 11 27  2  0  0  0  0
 12 28  1  0  0  0  0
 13 14  2  0  0  0  0
 13 29  1  0  0  0  0
 14 30  1  0  0  0  0
 15 24  1  0  0  0  0
 15 26  2  0  0  0  0
 16 25  1  0  0  0  0
 16 28  2  0  0  0  0
 17 30  2  0  0  0  0
 17 31  1  0  0  0  0
 18 32  1  0  0  0  0
 19 32  1  0  0  0  0
 19 33  2  0  0  0  0
 19 34  1  0  0  0  0
 20 23  2  0  0  0  0
 20 39  1  0  0  0  0
 21 24  2  0  0  0  0
 21 41  1  0  0  0  0
 22 25  2  0  0  0  0
 22 40  1  0  0  0  0
 23 51  1  0  0  0  0
 24 42  1  0  0  0  0
 25 43  1  0  0  0  0
 26 60  1  0  0  0  0
 27 79  1  0  0  0  0
 28 80  1  0  0  0  0
 29 31  2  0  0  0  0
 29 79  1  0  0  0  0
 30 81  1  0  0  0  0
 31 82  1  0  0  0  0
 32 64  2  0  0  0  0
 33 65  1  0  0  0  0
 33 68  1  0  0  0  0
 34 69  1  0  0  0  0
 34 74  2  0  0  0  0
 35 52  1  0  0  0  0
 35 70  1  0  0  0  0
 35 75  2  0  0  0  0
 36 61  1  0  0  0  0
 36 66  1  0  0  0  0
 36 76  2  0  0  0  0
 37 62  1  0  0  0  0
 37 71  1  0  0  0  0
 37 77  2  0  0  0  0
 38 67  1  0  0  0  0
 38 72  1  0  0  0  0
 38 78  2  0  0  0  0
 39 44  1  0  0  0  0
 40 52  1  0  0  0  0
 41 54  1  0  0  0  0
 42 45  1  0  0  0  0
 43 66  1  0  0  0  0
 44 47  1  0  0  0  0
 45 54  1  0  0  0  0
 46 48  1  0  0  0  0
 46 49  1  0  0  0  0
 47 51  1  0  0  0  0
 48 53  1  0  0  0  0
 49 67  1  0  0  0  0
 50 53  1  0  0  0  0
 50 67  1  0  0  0  0
 51 70  1  0  0  0  0
 52 66  1  0  0  0  0
 53 65  1  0  0  0  0
 54 72  1  0  0  0  0
 55 62  1  0  0  0  0
 56 63  1  0  0  0  0
 57 63  1  0  0  0  0
 58 63  1  0  0  0  0
 59 73  1  0  0  0  0
 60 80  1  0  0  0  0
 61 63  1  0  0  0  0
 61 71  1  0  0  0  0
 62 73  1  0  0  0  0
 64 65  1  0  0  0  0
M  CHG  1  73   1
M  ISO  4  38 100  60 101  72 100  80 101
M  END
> <Batch ID>
0151

> <Smiles>
CNC(C)C(=O)NC(C(=O)N1Cc2cc([101O:1][101CH2:1]c3ccc4c(c3)CCC([100NH:0][100C:0](=O)N3CCCC(n5nc(-c6ccc(Oc7ccc(F)cc7F)cc6)c(C(N)=O)c5N)C3)C4)ccc2CC1C(=O)NC1CCCc2ccccc21)C(C)(C)C

> <Shape>
0.342

> <Color>
0.146

> <Negative vol penalty>
0.000

$$$$

  -OEChem-04052321433D

 86 95  0     1  0  0  0  0  0999 V2000
  -27.7859  -23.9138   17.4432 C   0  0  0  0  0  0  0  0  0  0  0  0
  -26.5932  -24.2630   18.0686 C   0  0  0  0  0  0  0  0  0  0  0  0
  -23.2469  -14.0978   21.1707 C   0  0  0  0  0  0  0  0  0  0  0  0
  -25.3691  -15.2517   21.2120 C   0  0  0  0  0  0  0  0  0  0  0  0
  -29.0003  -24.3627   17.9605 C   0  0  0  0  0  0  0  0  0  0  0  0
  -26.6144  -25.0603   19.2124 C   0  0  0  0  0  0  0  0  0  0  0  0
  -23.1323  -28.7349   19.0839 C   0  0  0  0  0  0  0  0  0  0  0  0
  -23.9030  -12.9014   20.8814 C   0  0  0  0  0  0  0  0  0  0  0  0
  -26.0252  -14.0553   20.9228 C   0  0  0  0  0  0  0  0  0  0  0  0
  -21.8157  -28.3747   19.3681 C   0  0  0  0  0  0  0  0  0  0  0  0
  -25.0498   -9.4742   20.4888 C   0  0  0  0  0  0  0  0  0  0  0  0
  -24.6605   -8.3345   21.1924 C   0  0  0  0  0  0  0  0  0  0  0  0
  -22.0788  -29.2104   21.6158 C   0  0  0  0  0  0  0  0  0  0  0  0
  -22.1369  -25.6898   25.2966 C   0  0  0  0  0  0  0  0  0  0  0  0
  -25.2660   -9.4099   23.2694 C   0  0  0  0  0  0  0  0  0  0  0  0
  -23.9799  -15.2730   21.3359 C   0  0  0  0  0  0  0  0  0  0  0  0
  -22.4918  -16.7864   22.7510 C   0  0  0  0  0  0  0  0  0  0  0  0
  -29.0359  -25.1739   19.1057 C   0  0  0  0  0  0  0  0  0  0  0  0
  -23.9367  -29.3266   20.0684 C   0  0  0  0  0  0  0  0  0  0  0  0
  -27.8306  -25.5193   19.7463 C   0  0  0  0  0  0  0  0  0  0  0  0
  -23.4044  -29.5794   21.3407 C   0  0  0  0  0  0  0  0  0  0  0  0
  -20.7551  -25.7653   25.1223 C   0  0  0  0  0  0  0  0  0  0  0  0
  -22.9010  -24.8704   24.4656 C   0  0  0  0  0  0  0  0  0  0  0  0
  -20.1372  -25.0212   24.1172 C   0  0  0  0  0  0  0  0  0  0  0  0
  -20.9013  -24.2018   23.2862 C   0  0  0  0  0  0  0  0  0  0  0  0
  -22.2832  -24.1264   23.4605 C   0  0  0  0  0  0  0  0  0  0  0  0
  -25.2922  -12.8801   20.7575 C   0  0  0  0  0  0  0  0  0  0  0  0
  -21.2897  -28.6098   20.6351 C   0  0  0  0  0  0  0  0  0  0  0  0
  -25.5474  -10.5817   21.1754 C   0  0  0  0  0  0  0  0  0  0  0  0
  -24.7685   -8.3023   22.5827 C   0  0  0  0  0  0  0  0  0  0  0  0
  -25.6554  -10.5496   22.5657 C   0  0  0  0  0  0  0  0  0  0  0  0
  -23.3026  -16.5093   21.6341 C   0  0  0  0  0  0  0  0  0  0  0  0
  -22.0902  -18.0873   22.5695 C   0  0  0  0  0  0  0  0  0  0  0  0
  -22.1336  -15.9433   23.8540 C   0  0  0  0  0  0  0  0  0  0  0  0
  -26.6424  -28.5275   21.5328 C   0  0  0  0  0  0  0  0  0  0  0  0
  -26.3687  -31.4947   22.8147 C   0  0  0  0  0  0  0  0  0  0  0  0
  -24.3445  -34.1056   23.6705 C   0  0  0  0  0  0  0  0  0  0  0  0
  -23.1822  -23.3800   21.2287 C   0  0  0  0  0  0  0  0  0  0  0  0
  -30.3755  -25.5957   19.6552 C   0  0  0  0  0  0  0  0  0  0  0  0
  -25.3465  -29.7336   19.7379 C   0  0  0  0  0  0  0  0  0  0  0  0
  -24.2201  -30.2305   22.4266 C   0  0  0  0  0  0  0  0  0  0  0  0
  -30.2891  -26.7465   20.6543 C   0  0  0  0  0  0  0  0  0  0  0  0
  -22.5105  -21.1338   18.5490 C   0  0  0  0  0  0  0  0  0  0  0  0
  -29.1766  -26.4923   21.6666 C   0  0  0  0  0  0  0  0  0  0  0  0
  -22.5900  -19.7532   19.2046 C   0  0  0  0  0  0  0  0  0  0  0  0
  -17.1432  -27.4759   22.1122 C   0  0  0  0  0  0  0  0  0  0  0  0
  -23.5427  -22.0981   19.1306 C   0  0  0  0  0  0  0  0  0  0  0  0
  -23.6003  -20.8422   21.2493 C   0  0  0  0  0  0  0  0  0  0  0  0
  -16.7589  -26.4880   23.2244 C   0  0  0  0  0  0  0  0  0  0  0  0
  -27.8110  -26.4030   20.9746 C   0  0  1  0  0  0  0  0  0  0  0  0
  -26.2364  -29.8604   20.9705 C   0  0  1  0  0  0  0  0  0  0  0  0
  -22.5363  -19.8553   20.7416 C   0  0  2  0  0  0  0  0  0  0  0  0
  -18.5678  -26.9013   22.2592 C   0  0  1  0  0  0  0  0  0  0  0  0
  -19.9603  -26.6515   26.0245 C   0  0  0  0  0  0  0  0  0  0  0  0
  -24.3795  -24.8118   24.6764 C   0  0  0  0  0  0  0  0  0  0  0  0
  -20.2332  -23.4051   22.2092 C   0  0  0  0  0  0  0  0  0  0  0  0
  -24.4033  -36.3768   24.7361 C   0  0  0  0  0  0  0  0  0  0  0  0
  -26.6354  -30.1958   25.5628 C   0  0  0  0  0  0  0  0  0  0  0  0
  -25.7505  -32.3098   26.5708 C   0  0  0  0  0  0  0  0  0  0  0  0
  -27.8944  -32.3401   25.2958 C   0  0  0  0  0  0  0  0  0  0  0  0
  -23.3373  -35.4122   21.2134 C   0  0  0  0  0  0  0  0  0  0  0  0
  -18.6507  -25.1046   23.9325 C   0  0  0  0  0  0  0  0  0  0  0  0
  -19.7103  -27.8965   22.2638 C   0  0  0  0  0  0  0  0  0  1  0  0
  -25.7130  -32.0709   24.0464 C   0  0  1  0  0  0  0  0  0  0  0  0
  -24.4715  -35.5992   23.4309 C   0  0  2  0  0  0  0  0  0  0  0  0
  -26.4833  -31.7151   25.3493 C   0  0  0  0  0  0  0  0  0  0  0  0
  -23.4107  -17.5504   20.8043 N   0  0  0  0  0  0  0  0  0  0  0  0
  -22.6624  -18.4943   21.4002 N   0  0  0  0  0  0  0  0  0  0  0  0
  -25.5951  -30.6045   22.0565 N   0  0  0  0  0  0  0  0  0  0  0  0
  -23.4296  -22.1465   20.5900 N   0  0  0  0  0  0  0  0  0  0  0  0
  -21.3069  -18.9113   23.2975 N   0  0  0  0  0  0  0  0  0  0  0  0
  -22.9559  -15.9426   24.9889 N   0  0  0  0  0  0  0  0  0  0  0  0
  -23.0619  -23.2973   22.6155 N   0  0  0  0  0  0  0  0  0  0  0  0
  -27.3266  -27.7250   20.6399 N   0  0  0  0  0  0  0  0  0  0  0  0
  -25.5775  -33.5032   23.8045 N   0  0  0  0  0  0  0  0  0  0  0  0
  -18.1803  -26.4740   23.6263 N   0  3  2  0  0  0  0  0  0  0  0  0
  -23.3748  -36.0763   22.5417 N   0  3  0  0  0  0  0  0  0  0  0  0
  -21.1235  -15.2000   23.8273 O   0  0  0  0  0  0  0  0  0  0  0  0
  -26.3573  -28.2484   22.6915 O   0  0  0  0  0  0  0  0  0  0  0  0
  -27.5222  -31.8278   22.5318 O   0  0  0  0  0  0  0  0  0  0  0  0
  -23.2598  -33.5314   23.7361 O   0  0  0  0  0  0  0  0  0  0  0  0
  -23.0571  -24.4280   20.5898 O   0  0  0  0  0  0  0  0  0  0  0  0
  -25.9328  -11.7128   20.4755 O   0  0  0  0  0  0  0  0  0  0  0  0
  -20.0052  -28.2586   20.9154 O   0  0  0  0  0  0  0  0  0  1  0  0
  -24.3931   -7.2084   23.2584 F   0  0  0  0  0  0  0  0  0  0  0  0
  -26.1316  -11.6109   23.2310 F   0  0  0  0  0  0  0  0  0  0  0  0
  1  2  1  0  0  0  0
  1  5  2  0  0  0  0
  2  6  2  0  0  0  0
  3  8  2  0  0  0  0
  3 16  1  0  0  0  0
  4  9  1  0  0  0  0
  4 16  2  0  0  0  0
  5 18  1  0  0  0  0
  6 20  1  0  0  0  0
  7 10  2  0  0  0  0
  7 19  1  0  0  0  0
  8 27  1  0  0  0  0
  9 27  2  0  0  0  0
 10 28  1  0  0  0  0
 11 12  2  0  0  0  0
 11 29  1  0  0  0  0
 12 30  1  0  0  0  0
 13 21  1  0  0  0  0
 13 28  2  0  0  0  0
 14 22  2  0  0  0  0
 14 23  1  0  0  0  0
 15 30  2  0  0  0  0
 15 31  1  0  0  0  0
 16 32  1  0  0  0  0
 17 32  1  0  0  0  0
 17 33  2  0  0  0  0
 17 34  1  0  0  0  0
 18 20  2  0  0  0  0
 18 39  1  0  0  0  0
 19 21  2  0  0  0  0
 19 40  1  0  0  0  0
 20 50  1  0  0  0  0
 21 41  1  0  0  0  0
 22 24  1  0  0  0  0
 22 54  1  0  0  0  0
 23 26  2  0  0  0  0
 23 55  1  0  0  0  0
 24 25  2  0  0  0  0
 24 62  1  0  0  0  0
 25 26  1  0  0  0  0
 25 56  1  0  0  0  0
 26 73  1  0  0  0  0
 27 83  1  0  0  0  0
 28 84  1  0  0  0  0
 29 31  2  0  0  0  0
 29 83  1  0  0  0  0
 30 85  1  0  0  0  0
 31 86  1  0  0  0  0
 32 67  2  0  0  0  0
 33 68  1  0  0  0  0
 33 71  1  0  0  0  0
 34 72  1  0  0  0  0
 34 78  2  0  0  0  0
 35 51  1  0  0  0  0
 35 74  1  0  0  0  0
 35 79  2  0  0  0  0
 36 64  1  0  0  0  0
 36 69  1  0  0  0  0
 36 80  2  0  0  0  0
 37 65  1  0  0  0  0
 37 75  1  0  0  0  0
 37 81  2  0  0  0  0
 38 70  1  0  0  0  0
 38 73  1  0  0  0  0
 38 82  2  0  0  0  0
 39 42  1  0  0  0  0
 40 51  1  0  0  0  0
 41 69  1  0  0  0  0
 42 44  1  0  0  0  0
 43 45  1  0  0  0  0
 43 47  1  0  0  0  0
 44 50  1  0  0  0  0
 45 52  1  0  0  0  0
 46 49  1  0  0  0  0
 46 53  1  0  0  0  0
 47 70  1  0  0  0  0
 48 52  1  0  0  0  0
 48 70  1  0  0  0  0
 49 76  1  0  0  0  0
 50 74  1  0  0  0  0
 51 69  1  0  0  0  0
 52 68  1  0  0  0  0
 53 63  1  0  0  0  0
 53 76  1  0  0  0  0
 57 65  1  0  0  0  0
 58 66  1  0  0  0  0
 59 66  1  0  0  0  0
 60 66  1  0  0  0  0
 61 77  1  0  0  0  0
 62 76  1  0  0  0  0
 63 84  1  0  0  0  0
 64 66  1  0  0  0  0
 64 75  1  0  0  0  0
 65 77  1  0  0  0  0
 67 68  1  0  0  0  0
M  CHG  2  76   1  77   1
M  ISO  4  38 100  63 101  73 100  84 101
M  END
> <Batch ID>
0151

> <Smiles>
CNC(C)C(=O)NC(C(=O)N1Cc2cc([101O:1][101CH2:1]C3CCN3Cc3c(C)cc(C)c([100NH:0][100C:0](=O)N4CCCC(n5nc(-c6ccc(Oc7ccc(F)cc7F)cc6)c(C(N)=O)c5N)C4)c3C)ccc2CC1C(=O)NC1CCCc2ccccc21)C(C)(C)C

> <Shape>
0.259

> <Color>
0.071

> <Negative vol penalty>
0.000

$$$$

  -OEChem-04052321433D

 90 99  0     1  0  0  0  0  0999 V2000
  -30.5357  -35.5645   20.2984 C   0  0  0  0  0  0  0  0  0  0  0  0
  -30.3833  -34.1873   20.4230 C   0  0  0  0  0  0  0  0  0  0  0  0
  -24.1381  -23.6095   27.9927 C   0  0  0  0  0  0  0  0  0  0  0  0
  -25.7445  -21.9097   28.5986 C   0  0  0  0  0  0  0  0  0  0  0  0
  -29.6903  -36.4244   20.9982 C   0  0  0  0  0  0  0  0  0  0  0  0
  -29.3860  -33.6692   21.2484 C   0  0  0  0  0  0  0  0  0  0  0  0
  -26.8471  -29.8647   19.0748 C   0  0  0  0  0  0  0  0  0  0  0  0
  -23.4009  -23.3223   29.1414 C   0  0  0  0  0  0  0  0  0  0  0  0
  -25.0073  -21.6225   29.7474 C   0  0  0  0  0  0  0  0  0  0  0  0
  -27.4672  -28.6161   19.0524 C   0  0  0  0  0  0  0  0  0  0  0  0
  -23.7408  -20.6892   33.0250 C   0  0  0  0  0  0  0  0  0  0  0  0
  -24.4390  -20.5339   34.2226 C   0  0  0  0  0  0  0  0  0  0  0  0
  -26.1398  -27.9296   20.9460 C   0  0  0  0  0  0  0  0  0  0  0  0
  -30.9521  -16.7707   22.2829 C   0  0  0  0  0  0  0  0  0  0  0  0
  -28.8176  -23.8468   18.1654 C   0  0  0  0  0  0  0  0  0  0  0  0
  -30.5897  -23.1552   20.2061 C   0  0  0  0  0  0  0  0  0  0  0  0
  -31.3289  -18.3276   20.4744 C   0  0  0  0  0  0  0  0  0  0  0  0
  -25.2769  -22.7915   34.0268 C   0  0  0  0  0  0  0  0  0  0  0  0
  -25.3099  -22.9032   27.7212 C   0  0  0  0  0  0  0  0  0  0  0  0
  -27.1133  -24.1370   26.4047 C   0  0  0  0  0  0  0  0  0  0  0  0
  -28.6759  -35.9165   21.8252 C   0  0  0  0  0  0  0  0  0  0  0  0
  -25.8749  -30.1593   20.0414 C   0  0  0  0  0  0  0  0  0  0  0  0
  -28.5271  -34.5231   21.9611 C   0  0  0  0  0  0  0  0  0  0  0  0
  -25.5070  -29.1818   20.9770 C   0  0  0  0  0  0  0  0  0  0  0  0
  -31.7620  -17.2572   21.2569 C   0  0  0  0  0  0  0  0  0  0  0  0
  -29.2926  -22.5390   18.2631 C   0  0  0  0  0  0  0  0  0  0  0  0
  -30.1147  -24.4631   20.1084 C   0  0  0  0  0  0  0  0  0  0  0  0
  -29.2287  -24.8089   19.0880 C   0  0  0  0  0  0  0  0  0  0  0  0
  -30.1786  -22.1932   19.2835 C   0  0  0  0  0  0  0  0  0  0  0  0
  -29.7088  -17.3545   22.5264 C   0  0  0  0  0  0  0  0  0  0  0  0
  -29.2757  -18.4249   21.7439 C   0  0  0  0  0  0  0  0  0  0  0  0
  -23.8355  -22.3288   30.0188 C   0  0  0  0  0  0  0  0  0  0  0  0
  -27.1156  -27.6494   19.9899 C   0  0  0  0  0  0  0  0  0  0  0  0
  -23.8108  -21.8956   32.3283 C   0  0  0  0  0  0  0  0  0  0  0  0
  -30.0857  -18.9114   20.7179 C   0  0  0  0  0  0  0  0  0  0  0  0
  -25.2070  -21.5850   34.7235 C   0  0  0  0  0  0  0  0  0  0  0  0
  -24.5788  -22.9467   32.8292 C   0  0  0  0  0  0  0  0  0  0  0  0
  -26.0716  -23.1990   26.5344 C   0  0  0  0  0  0  0  0  0  0  0  0
  -27.5039  -24.0369   25.0917 C   0  0  0  0  0  0  0  0  0  0  0  0
  -27.6775  -25.0197   27.3836 C   0  0  0  0  0  0  0  0  0  0  0  0
  -25.6224  -32.2808   22.3950 C   0  0  0  0  0  0  0  0  0  0  0  0
  -22.6261  -31.0638   22.6462 C   0  0  0  0  0  0  0  0  0  0  0  0
  -21.0895  -27.8019   22.5190 C   0  0  0  0  0  0  0  0  0  0  0  0
  -27.1773  -19.6393   21.0594 C   0  0  0  0  0  0  0  0  0  0  0  0
  -27.8168  -36.8852   22.5986 C   0  0  0  0  0  0  0  0  0  0  0  0
  -25.1962  -31.5016   20.0355 C   0  0  0  0  0  0  0  0  0  0  0  0
  -24.4546  -29.4411   22.0227 C   0  0  0  0  0  0  0  0  0  0  0  0
  -26.5443  -36.2565   23.1604 C   0  0  0  0  0  0  0  0  0  0  0  0
  -25.8094  -22.9125   20.7560 C   0  0  0  0  0  0  0  0  0  0  0  0
  -26.8591  -34.9239   23.8326 C   0  0  0  0  0  0  0  0  0  0  0  0
  -25.8218  -23.4450   22.1907 C   0  0  0  0  0  0  0  0  0  0  0  0
  -25.4815  -21.4212   20.7074 C   0  0  0  0  0  0  0  0  0  0  0  0
  -26.3338  -21.1053   22.9972 C   0  0  0  0  0  0  0  0  0  0  0  0
  -27.4411  -33.9228   22.8274 C   0  0  1  0  0  0  0  0  0  0  0  0
  -24.5883  -31.8698   21.3854 C   0  0  1  0  0  0  0  0  0  0  0  0
  -26.7232  -22.5889   23.1018 C   0  0  2  0  0  0  0  0  0  0  0  0
  -33.0908  -16.6327   20.9947 C   0  0  0  0  0  0  0  0  0  0  0  0
  -28.8380  -21.5259   17.2644 C   0  0  0  0  0  0  0  0  0  0  0  0
  -30.5694  -25.4762   21.1071 C   0  0  0  0  0  0  0  0  0  0  0  0
  -28.8629  -16.8108   23.6319 C   0  0  0  0  0  0  0  0  0  0  0  0
  -18.7635  -27.1183   21.8710 C   0  0  0  0  0  0  0  0  0  0  0  0
  -22.0503  -31.2475   25.6370 C   0  0  0  0  0  0  0  0  0  0  0  0
  -20.5935  -29.2240   25.4100 C   0  0  0  0  0  0  0  0  0  0  0  0
  -20.0205  -31.3158   24.1777 C   0  0  0  0  0  0  0  0  0  0  0  0
  -22.0904  -25.9075   20.4773 C   0  0  0  0  0  0  0  0  0  0  0  0
  -28.7051  -26.2094   18.9624 C   0  0  0  0  0  0  0  0  0  1  0  0
  -30.6999  -20.7992   19.4083 C   0  0  0  0  0  0  0  0  0  0  0  0
  -21.9937  -29.9303   23.4171 C   0  0  1  0  0  0  0  0  0  0  0  0
  -20.2067  -27.2558   21.4114 C   0  0  2  0  0  0  0  0  0  0  0  0
  -21.1918  -30.4285   24.6525 C   0  0  0  0  0  0  0  0  0  0  0  0
  -25.8164  -22.5509   25.3948 N   0  0  0  0  0  0  0  0  0  0  0  0
  -26.7033  -23.0825   24.5364 N   0  0  0  0  0  0  0  0  0  0  0  0
  -23.8244  -30.7710   21.9798 N   0  0  0  0  0  0  0  0  0  0  0  0
  -26.3781  -20.6732   21.5914 N   0  0  0  0  0  0  0  0  0  0  0  0
  -28.4505  -24.6731   24.3696 N   0  0  0  0  0  0  0  0  0  0  0  0
  -27.1580  -24.9937   28.6850 N   0  0  0  0  0  0  0  0  0  0  0  0
  -28.0137  -19.0210   21.9883 N   0  0  0  0  0  0  0  0  0  0  0  0
  -26.3898  -33.3622   22.0060 N   0  0  0  0  0  0  0  0  0  0  0  0
  -21.1997  -29.1748   22.4543 N   0  0  0  0  0  0  0  0  0  0  0  0
  -20.6911  -25.9153   20.9762 N   0  3  0  0  0  0  0  0  0  0  0  0
  -28.6035  -25.8198   27.1080 O   0  0  0  0  0  0  0  0  0  0  0  0
  -25.7162  -31.6636   23.4494 O   0  0  0  0  0  0  0  0  0  0  0  0
  -22.0733  -32.1665   22.6299 O   0  0  0  0  0  0  0  0  0  0  0  0
  -21.6247  -27.0828   23.3599 O   0  0  0  0  0  0  0  0  0  0  0  0
  -27.1437  -19.3437   19.8621 O   0  0  0  0  0  0  0  0  0  0  0  0
  -23.1165  -22.0485   31.1399 O   0  0  0  0  0  0  0  0  0  0  0  0
  -27.7198  -26.4302   19.9707 O   0  0  0  0  0  0  0  0  0  1  0  0
  -29.6799  -19.9611   19.9358 O   0  0  0  0  0  0  0  0  0  0  0  0
  -25.8761  -21.4363   35.8743 F   0  0  0  0  0  0  0  0  0  0  0  0
  -24.6489  -24.1085   32.1650 F   0  0  0  0  0  0  0  0  0  0  0  0
  1  2  1  0  0  0  0
  1  5  2  0  0  0  0
  2  6  2  0  0  0  0
  3  8  2  0  0  0  0
  3 19  1  0  0  0  0
  4  9  1  0  0  0  0
  4 19  2  0  0  0  0
  5 21  1  0  0  0  0
  6 23  1  0  0  0  0
  7 10  2  0  0  0  0
  7 22  1  0  0  0  0
  8 32  1  0  0  0  0
  9 32  2  0  0  0  0
 10 33  1  0  0  0  0
 11 12  2  0  0  0  0
 11 34  1  0  0  0  0
 12 36  1  0  0  0  0
 13 24  1  0  0  0  0
 13 33  2  0  0  0  0
 14 25  1  0  0  0  0
 14 30  2  0  0  0  0
 15 26  2  0  0  0  0
 15 28  1  0  0  0  0
 16 27  1  0  0  0  0
 16 29  2  0  0  0  0
 17 25  2  0  0  0  0
 17 35  1  0  0  0  0
 18 36  2  0  0  0  0
 18 37  1  0  0  0  0
 19 38  1  0  0  0  0
 20 38  1  0  0  0  0
 20 39  2  0  0  0  0
 20 40  1  0  0  0  0
 21 23  2  0  0  0  0
 21 45  1  0  0  0  0
 22 24  2  0  0  0  0
 22 46  1  0  0  0  0
 23 54  1  0  0  0  0
 24 47  1  0  0  0  0
 25 57  1  0  0  0  0
 26 29  1  0  0  0  0
 26 58  1  0  0  0  0
 27 28  2  0  0  0  0
 27 59  1  0  0  0  0
 28 66  1  0  0  0  0
 29 67  1  0  0  0  0
 30 31  1  0  0  0  0
 30 60  1  0  0  0  0
 31 35  2  0  0  0  0
 31 77  1  0  0  0  0
 32 86  1  0  0  0  0
 33 87  1  0  0  0  0
 34 37  2  0  0  0  0
 34 86  1  0  0  0  0
 35 88  1  0  0  0  0
 36 89  1  0  0  0  0
 37 90  1  0  0  0  0
 38 71  2  0  0  0  0
 39 72  1  0  0  0  0
 39 75  1  0  0  0  0
 40 76  1  0  0  0  0
 40 81  2  0  0  0  0
 41 55  1  0  0  0  0
 41 78  1  0  0  0  0
 41 82  2  0  0  0  0
 42 68  1  0  0  0  0
 42 73  1  0  0  0  0
 42 83  2  0  0  0  0
 43 69  1  0  0  0  0
 43 79  1  0  0  0  0
 43 84  2  0  0  0  0
 44 74  1  0  0  0  0
 44 77  1  0  0  0  0
 44 85  2  0  0  0  0
 45 48  1  0  0  0  0
 46 55  1  0  0  0  0
 47 73  1  0  0  0  0
 48 50  1  0  0  0  0
 49 51  1  0  0  0  0
 49 52  1  0  0  0  0
 50 54  1  0  0  0  0
 51 56  1  0  0  0  0
 52 74  1  0  0  0  0
 53 56  1  0  0  0  0
 53 74  1  0  0  0  0
 54 78  1  0  0  0  0
 55 73  1  0  0  0  0
 56 72  1  0  0  0  0
 61 69  1  0  0  0  0
 62 70  1  0  0  0  0
 63 70  1  0  0  0  0
 64 70  1  0  0  0  0
 65 80  1  0  0  0  0
 66 87  1  0  0  0  0
 67 88  1  0  0  0  0
 68 70  1  0  0  0  0
 68 79  1  0  0  0  0
 69 80  1  0  0  0  0
 71 72  1  0  0  0  0
M  CHG  1  80   1
M  ISO  4  44 100  66 101  77 100  87 101
M  END
> <Batch ID>
0151

> <Smiles>
CNC(C)C(=O)NC(C(=O)N1Cc2cc([101O:1][101CH2:1]c3cc(C)c(COc4cc(C)cc(C)c4[100NH:0][100C:0](=O)N4CCCC(n5nc(-c6ccc(Oc7ccc(F)cc7F)cc6)c(C(N)=O)c5N)C4)cc3C)ccc2CC1C(=O)NC1CCCc2ccccc21)C(C)(C)C

> <Shape>
0.204

> <Color>
0.070

> <Negative vol penalty>
0.000

$$$$

  -OEChem-04052321433D

 85 94  0     1  0  0  0  0  0999 V2000
  -21.0855  -17.2380   16.7624 C   0  0  0  0  0  0  0  0  0  0  0  0
  -21.9396  -17.3751   17.8520 C   0  0  0  0  0  0  0  0  0  0  0  0
  -22.9996   -9.8941   19.9814 C   0  0  0  0  0  0  0  0  0  0  0  0
  -23.7244   -9.9458   22.2855 C   0  0  0  0  0  0  0  0  0  0  0  0
  -20.4168  -18.3524   16.2577 C   0  0  0  0  0  0  0  0  0  0  0  0
  -22.1262  -18.6271   18.4368 C   0  0  0  0  0  0  0  0  0  0  0  0
  -23.0479  -19.8169   24.3732 C   0  0  0  0  0  0  0  0  0  0  0  0
  -22.2327   -8.7599   20.2480 C   0  0  0  0  0  0  0  0  0  0  0  0
  -22.9574   -8.8116   22.5522 C   0  0  0  0  0  0  0  0  0  0  0  0
  -24.2042  -20.0646   25.1117 C   0  0  0  0  0  0  0  0  0  0  0  0
  -23.2009   -5.4724   22.0817 C   0  0  0  0  0  0  0  0  0  0  0  0
  -23.7880   -4.4554   22.8343 C   0  0  0  0  0  0  0  0  0  0  0  0
  -23.8365  -22.4375   24.8801 C   0  0  0  0  0  0  0  0  0  0  0  0
  -31.8771  -17.4251   21.6422 C   0  0  0  0  0  0  0  0  0  0  0  0
  -22.0639   -4.6995   24.5091 C   0  0  0  0  0  0  0  0  0  0  0  0
  -29.9193  -17.8000   22.6893 C   0  0  0  0  0  0  0  0  0  0  0  0
  -23.7455  -10.4870   21.0001 C   0  0  0  0  0  0  0  0  0  0  0  0
  -24.1316  -13.0024   20.8232 C   0  0  0  0  0  0  0  0  0  0  0  0
  -20.5879  -19.6170   16.8427 C   0  0  0  0  0  0  0  0  0  0  0  0
  -22.2819  -20.8793   23.8725 C   0  0  0  0  0  0  0  0  0  0  0  0
  -21.4602  -19.7598   17.9386 C   0  0  0  0  0  0  0  0  0  0  0  0
  -22.6695  -22.2005   24.1378 C   0  0  0  0  0  0  0  0  0  0  0  0
  -30.5954  -16.8853   21.9124 C   0  0  0  0  0  0  0  0  0  0  0  0
  -22.2116   -8.2187   21.5334 C   0  0  0  0  0  0  0  0  0  0  0  0
  -24.6003  -21.3751   25.3628 C   0  0  0  0  0  0  0  0  0  0  0  0
  -22.0453   -6.1031   22.5428 C   0  0  0  0  0  0  0  0  0  0  0  0
  -23.2195   -4.0689   24.0480 C   0  0  0  0  0  0  0  0  0  0  0  0
  -21.4768   -5.7166   23.7565 C   0  0  0  0  0  0  0  0  0  0  0  0
  -24.5384  -11.6583   20.7252 C   0  0  0  0  0  0  0  0  0  0  0  0
  -31.9453  -18.6531   22.2625 C   0  0  0  0  0  0  0  0  0  0  0  0
  -25.2416  -13.7246   20.4587 C   0  0  0  0  0  0  0  0  0  0  0  0
  -22.8637  -13.5494   21.2093 C   0  0  0  0  0  0  0  0  0  0  0  0
  -21.4511  -21.8729   20.9697 C   0  0  0  0  0  0  0  0  0  0  0  0
  -19.6370  -23.9833   22.6363 C   0  0  0  0  0  0  0  0  0  0  0  0
  -19.1156  -25.6919   25.5442 C   0  0  0  0  0  0  0  0  0  0  0  0
  -30.7213  -14.6844   20.6933 C   0  0  0  0  0  0  0  0  0  0  0  0
  -19.8802  -20.8009   16.2325 C   0  0  0  0  0  0  0  0  0  0  0  0
  -21.0226  -20.5954   23.1004 C   0  0  0  0  0  0  0  0  0  0  0  0
  -21.8708  -23.3764   23.6399 C   0  0  0  0  0  0  0  0  0  0  0  0
  -19.8435  -22.0247   17.1442 C   0  0  0  0  0  0  0  0  0  0  0  0
  -29.6028  -12.2306   18.3683 C   0  0  0  0  0  0  0  0  0  0  0  0
  -21.2197  -22.2802   17.7506 C   0  0  0  0  0  0  0  0  0  0  0  0
  -28.1521  -11.9736   18.7823 C   0  0  0  0  0  0  0  0  0  0  0  0
  -29.2008  -20.7672   23.0354 C   0  0  0  0  0  0  0  0  0  0  0  0
  -30.1072  -19.6598   25.1278 C   0  0  0  0  0  0  0  0  0  0  0  0
  -30.5032  -12.4744   19.5782 C   0  0  0  0  0  0  0  0  0  0  0  0
  -28.5877  -13.2644   20.9109 C   0  0  0  0  0  0  0  0  0  0  0  0
  -28.7685  -21.9644   23.8719 C   0  0  0  0  0  0  0  0  0  0  0  0
  -29.6648  -20.8677   25.9432 C   0  0  0  0  0  0  0  0  0  0  0  0
  -21.6696  -21.0968   18.6158 C   0  0  1  0  0  0  0  0  0  0  0  0
  -20.5991  -21.7528   22.2014 C   0  0  1  0  0  0  0  0  0  0  0  0
  -27.6303  -13.0777   19.7226 C   0  0  2  0  0  0  0  0  0  0  0  0
  -30.3988  -20.0440   23.6692 C   0  0  0  0  0  0  0  0  0  0  0  0
  -33.0487  -19.6344   22.3026 C   0  0  0  0  0  0  0  0  0  0  0  0
  -17.5735  -27.3710   26.5930 C   0  0  0  0  0  0  0  0  0  0  0  0
  -20.9662  -26.2072   21.0247 C   0  0  0  0  0  0  0  0  0  0  0  0
  -20.1275  -27.8442   22.7232 C   0  0  0  0  0  0  0  0  0  0  0  0
  -18.5085  -26.5028   21.3807 C   0  0  0  0  0  0  0  0  0  0  0  0
  -18.3036  -23.7942   27.6650 C   0  0  0  0  0  0  0  0  0  0  0  0
  -27.9103  -22.6309   26.1157 C   0  0  0  0  0  0  0  0  0  0  0  0
  -26.4431  -22.8182   25.7835 C   0  0  0  0  0  0  0  0  0  1  0  0
  -19.8518  -25.3682   23.1973 C   0  0  1  0  0  0  0  0  0  0  0  0
  -17.8673  -25.8936   26.3840 C   0  0  2  0  0  0  0  0  0  0  0  0
  -19.8798  -26.4587   22.0893 C   0  0  0  0  0  0  0  0  0  0  0  0
  -25.8077  -11.5313   20.3293 N   0  0  0  0  0  0  0  0  0  0  0  0
  -30.7498  -18.8705   22.8961 N   0  0  0  0  0  0  0  0  0  0  0  0
  -26.2081  -12.8049   20.1753 N   0  0  0  0  0  0  0  0  0  0  0  0
  -20.6509  -23.0471   22.8843 N   0  0  0  0  0  0  0  0  0  0  0  0
  -29.9482  -13.5359   20.4209 N   0  0  0  0  0  0  0  0  0  0  0  0
  -25.4755  -15.0502   20.3562 N   0  0  0  0  0  0  0  0  0  0  0  0
  -21.8316  -12.6656   21.5529 N   0  0  0  0  0  0  0  0  0  0  0  0
  -30.0771  -15.6401   21.4783 N   0  0  0  0  0  0  0  0  0  0  0  0
  -21.0003  -21.1253   19.8986 N   0  0  0  0  0  0  0  0  0  0  0  0
  -18.8150  -25.5661   24.2044 N   0  0  0  0  0  0  0  0  0  0  0  0
  -28.4620  -21.5256   25.2922 N   0  3  0  0  0  0  0  0  0  0  0  0
  -18.0327  -25.2538   27.7198 N   0  3  0  0  0  0  0  0  0  0  0  0
  -22.6473  -14.7847   21.2325 O   0  0  0  0  0  0  0  0  0  0  0  0
  -22.4433  -22.5919   20.9891 O   0  0  0  0  0  0  0  0  0  0  0  0
  -18.6042  -23.7390   22.0076 O   0  0  0  0  0  0  0  0  0  0  0  0
  -20.2449  -25.6539   26.0278 O   0  0  0  0  0  0  0  0  0  0  0  0
  -31.8600  -14.8228   20.2395 O   0  0  0  0  0  0  0  0  0  0  0  0
  -21.4632   -7.1121   21.7940 O   0  0  0  0  0  0  0  0  0  0  0  0
  -25.7288  -21.6197   26.0828 O   0  0  0  0  0  0  0  0  0  1  0  0
  -23.7825   -3.0911   24.7699 F   0  0  0  0  0  0  0  0  0  0  0  0
  -20.3660   -6.3179   24.2040 F   0  0  0  0  0  0  0  0  0  0  0  0
  1  2  1  0  0  0  0
  1  5  2  0  0  0  0
  2  6  2  0  0  0  0
  3  8  2  0  0  0  0
  3 17  1  0  0  0  0
  4  9  1  0  0  0  0
  4 17  2  0  0  0  0
  5 19  1  0  0  0  0
  6 21  1  0  0  0  0
  7 10  2  0  0  0  0
  7 20  1  0  0  0  0
  8 24  1  0  0  0  0
  9 24  2  0  0  0  0
 10 25  1  0  0  0  0
 11 12  2  0  0  0  0
 11 26  1  0  0  0  0
 12 27  1  0  0  0  0
 13 22  1  0  0  0  0
 13 25  2  0  0  0  0
 14 23  1  0  0  0  0
 14 30  2  0  0  0  0
 15 27  2  0  0  0  0
 15 28  1  0  0  0  0
 16 23  2  0  0  0  0
 16 66  1  0  0  0  0
 17 29  1  0  0  0  0
 18 29  1  0  0  0  0
 18 31  2  0  0  0  0
 18 32  1  0  0  0  0
 19 21  2  0  0  0  0
 19 37  1  0  0  0  0
 20 22  2  0  0  0  0
 20 38  1  0  0  0  0
 21 50  1  0  0  0  0
 22 39  1  0  0  0  0
 23 72  1  0  0  0  0
 24 82  1  0  0  0  0
 25 83  1  0  0  0  0
 26 28  2  0  0  0  0
 26 82  1  0  0  0  0
 27 84  1  0  0  0  0
 28 85  1  0  0  0  0
 29 65  2  0  0  0  0
 30 54  1  0  0  0  0
 30 66  1  0  0  0  0
 31 67  1  0  0  0  0
 31 70  1  0  0  0  0
 32 71  1  0  0  0  0
 32 77  2  0  0  0  0
 33 51  1  0  0  0  0
 33 73  1  0  0  0  0
 33 78  2  0  0  0  0
 34 62  1  0  0  0  0
 34 68  1  0  0  0  0
 34 79  2  0  0  0  0
 35 63  1  0  0  0  0
 35 74  1  0  0  0  0
 35 80  2  0  0  0  0
 36 69  1  0  0  0  0
 36 72  1  0  0  0  0
 36 81  2  0  0  0  0
 37 40  1  0  0  0  0
 38 51  1  0  0  0  0
 39 68  1  0  0  0  0
 40 42  1  0  0  0  0
 41 43  1  0  0  0  0
 41 46  1  0  0  0  0
 42 50  1  0  0  0  0
 43 52  1  0  0  0  0
 44 48  1  0  0  0  0
 44 53  1  0  0  0  0
 45 49  1  0  0  0  0
 45 53  1  0  0  0  0
 46 69  1  0  0  0  0
 47 52  1  0  0  0  0
 47 69  1  0  0  0  0
 48 75  1  0  0  0  0
 49 75  1  0  0  0  0
 50 73  1  0  0  0  0
 51 68  1  0  0  0  0
 52 67  1  0  0  0  0
 53 66  1  0  0  0  0
 55 63  1  0  0  0  0
 56 64  1  0  0  0  0
 57 64  1  0  0  0  0
 58 64  1  0  0  0  0
 59 76  1  0  0  0  0
 60 61  1  0  0  0  0
 60 75  1  0  0  0  0
 61 83  1  0  0  0  0
 62 64  1  0  0  0  0
 62 74  1  0  0  0  0
 63 76  1  0  0  0  0
 65 67  1  0  0  0  0
M  CHG  2  75   1  76   1
M  ISO  4  36 100  61 101  72 100  83 101
M  END
> <Batch ID>
0151

> <Smiles>
CNC(C)C(=O)NC(C(=O)N1Cc2cc([101O:1][101CH2:1]CN3CCC(n4cc([100NH:0][100C:0](=O)N5CCCC(n6nc(-c7ccc(Oc8ccc(F)cc8F)cc7)c(C(N)=O)c6N)C5)cc4C)CC3)ccc2CC1C(=O)NC1CCCc2ccccc21)C(C)(C)C

> <Shape>
0.210

> <Color>
0.193

> <Negative vol penalty>
0.000

$$$$

  -OEChem-04052321433D

 89 99  0     1  0  0  0  0  0999 V2000
  -18.1990  -30.4989   16.6732 C   0  0  0  0  0  0  0  0  0  0  0  0
  -19.3764  -29.7580   16.6598 C   0  0  0  0  0  0  0  0  0  0  0  0
  -23.4641   -9.9809   22.2398 C   0  0  0  0  0  0  0  0  0  0  0  0
  -23.9728   -8.8012   20.1937 C   0  0  0  0  0  0  0  0  0  0  0  0
  -18.1861  -31.7752   17.2344 C   0  0  0  0  0  0  0  0  0  0  0  0
  -20.5420  -30.2934   17.2067 C   0  0  0  0  0  0  0  0  0  0  0  0
  -24.9599  -27.2480   20.1586 C   0  0  0  0  0  0  0  0  0  0  0  0
  -22.1401   -9.5496   22.1594 C   0  0  0  0  0  0  0  0  0  0  0  0
  -22.6487   -8.3698   20.1133 C   0  0  0  0  0  0  0  0  0  0  0  0
  -26.1992  -26.7602   19.7465 C   0  0  0  0  0  0  0  0  0  0  0  0
  -20.3942   -6.7307   22.8216 C   0  0  0  0  0  0  0  0  0  0  0  0
  -19.7999   -6.2420   23.9851 C   0  0  0  0  0  0  0  0  0  0  0  0
  -27.2592  -28.7547   20.5935 C   0  0  0  0  0  0  0  0  0  0  0  0
  -32.0048  -23.9081   19.8274 C   0  0  0  0  0  0  0  0  0  0  0  0
  -29.8778  -22.8541   20.2145 C   0  0  0  0  0  0  0  0  0  0  0  0
  -18.1167   -7.9701   23.8511 C   0  0  0  0  0  0  0  0  0  0  0  0
  -24.3805   -9.6068   21.2569 C   0  0  0  0  0  0  0  0  0  0  0  0
  -26.8178   -9.4002   21.9809 C   0  0  0  0  0  0  0  0  0  0  0  0
  -19.3498  -32.3226   17.7972 C   0  0  0  0  0  0  0  0  0  0  0  0
  -24.8594  -28.4999   20.7825 C   0  0  0  0  0  0  0  0  0  0  0  0
  -20.5450  -31.5787   17.7748 C   0  0  0  0  0  0  0  0  0  0  0  0
  -26.0178  -29.2550   21.0149 C   0  0  0  0  0  0  0  0  0  0  0  0
  -21.7324   -8.7439   21.0962 C   0  0  0  0  0  0  0  0  0  0  0  0
  -27.3488  -27.5148   19.9613 C   0  0  0  0  0  0  0  0  0  0  0  0
  -19.8498   -7.8391   22.1730 C   0  0  0  0  0  0  0  0  0  0  0  0
  -30.6912  -23.9801   20.2775 C   0  0  0  0  0  0  0  0  0  0  0  0
  -18.6611   -6.8617   24.4998 C   0  0  0  0  0  0  0  0  0  0  0  0
  -18.7111   -8.4588   22.6877 C   0  0  0  0  0  0  0  0  0  0  0  0
  -25.7482  -10.0526   21.3390 C   0  0  0  0  0  0  0  0  0  0  0  0
  -32.4533  -22.6964   19.3270 C   0  0  0  0  0  0  0  0  0  0  0  0
  -30.4215  -21.6897   19.6966 C   0  0  0  0  0  0  0  0  0  0  0  0
  -27.8969  -10.2241   21.7731 C   0  0  0  0  0  0  0  0  0  0  0  0
  -26.8345   -8.1602   22.7005 C   0  0  0  0  0  0  0  0  0  0  0  0
  -23.4024  -31.2394   20.0929 C   0  0  0  0  0  0  0  0  0  0  0  0
  -24.4400  -32.0846   23.0478 C   0  0  0  0  0  0  0  0  0  0  0  0
  -26.6821  -31.6104   25.5766 C   0  0  0  0  0  0  0  0  0  0  0  0
  -28.5015  -15.9060   20.9142 C   0  0  0  0  0  0  0  0  0  0  0  0
  -19.2985  -33.7249   18.3499 C   0  0  0  0  0  0  0  0  0  0  0  0
  -23.5185  -29.0000   21.2452 C   0  0  0  0  0  0  0  0  0  0  0  0
  -25.9663  -30.5960   21.6987 C   0  0  0  0  0  0  0  0  0  0  0  0
  -20.4858  -34.0707   19.2449 C   0  0  0  0  0  0  0  0  0  0  0  0
  -29.6260  -13.4369   18.6868 C   0  0  0  0  0  0  0  0  0  0  0  0
  -21.7926  -33.6339   18.5905 C   0  0  0  0  0  0  0  0  0  0  0  0
  -34.7601  -21.5369   19.4182 C   0  0  0  0  0  0  0  0  0  0  0  0
  -34.9849  -22.9755   19.7646 C   0  0  0  0  0  0  0  0  0  0  0  0
  -28.8573  -12.2111   19.1794 C   0  0  0  0  0  0  0  0  0  0  0  0
  -30.9404  -18.6039   20.1926 C   0  0  0  0  0  0  0  0  0  0  0  0
  -29.2017  -18.5508   18.3532 C   0  0  0  0  0  0  0  0  0  0  0  0
  -28.7621  -14.6991   18.7017 C   0  0  0  0  0  0  0  0  0  0  0  0
  -29.9516  -17.8913   21.1140 C   0  0  0  0  0  0  0  0  0  0  0  0
  -28.2521  -17.8433   19.3172 C   0  0  0  0  0  0  0  0  0  0  0  0
  -27.3552  -13.7495   20.5004 C   0  0  0  0  0  0  0  0  0  0  0  0
  -21.8238  -32.1152   18.3806 C   0  0  1  0  0  0  0  0  0  0  0  0
  -33.8596  -22.5957   18.8388 C   0  0  0  0  0  0  0  0  0  0  0  0
  -23.4700  -30.5161   21.4082 C   0  0  1  0  0  0  0  0  0  0  0  0
  -28.2147  -12.4768   20.5525 C   0  0  1  0  0  0  0  0  0  0  0  0
  -30.2474  -19.3955   19.0830 C   0  0  0  0  0  0  0  0  0  0  0  0
  -27.3006  -32.4767   27.8491 C   0  0  0  0  0  0  0  0  0  0  0  0
  -25.7058  -34.5455   21.7625 C   0  0  0  0  0  0  0  0  0  0  0  0
  -27.0705  -34.8427   23.8403 C   0  0  0  0  0  0  0  0  0  0  0  0
  -24.5821  -34.9751   23.9550 C   0  0  0  0  0  0  0  0  0  0  0  0
  -26.1933  -28.9792   26.8403 C   0  0  0  0  0  0  0  0  0  0  0  0
  -29.6993  -27.4459   20.3165 C   0  0  0  0  0  0  0  0  0  1  0  0
  -30.7535  -26.3574   20.2580 C   0  0  0  0  0  0  0  0  0  0  0  0
  -25.6888  -32.7301   23.5982 C   0  0  1  0  0  0  0  0  0  0  0  0
  -26.4921  -31.4480   27.0739 C   0  0  2  0  0  0  0  0  0  0  0  0
  -25.7629  -34.2490   23.2744 C   0  0  0  0  0  0  0  0  0  0  0  0
  -26.1144  -11.2024   20.7665 N   0  0  0  0  0  0  0  0  0  0  0  0
  -31.6929  -21.5813   19.2498 N   0  0  0  0  0  0  0  0  0  0  0  0
  -27.4263  -11.2790   21.0480 N   0  0  0  0  0  0  0  0  0  0  0  0
  -24.6311  -31.0447   22.1270 N   0  0  0  0  0  0  0  0  0  0  0  0
  -28.1397  -14.8883   20.0188 N   0  0  0  0  0  0  0  0  0  0  0  0
  -28.9815  -17.1026   20.3553 N   0  0  0  0  0  0  0  0  0  0  0  0
  -29.1930  -10.1419   22.1418 N   0  0  0  0  0  0  0  0  0  0  0  0
  -25.6378   -7.4403   22.8190 N   0  0  0  0  0  0  0  0  0  0  0  0
  -22.1172  -31.4388   19.6259 N   0  0  0  0  0  0  0  0  0  0  0  0
  -25.7134  -32.4212   25.0238 N   0  0  0  0  0  0  0  0  0  0  0  0
  -26.9232  -30.0886   27.5063 N   0  3  0  0  0  0  0  0  0  0  0  0
  -27.8762   -7.7122   23.2370 O   0  0  0  0  0  0  0  0  0  0  0  0
  -24.4393  -31.5919   19.5432 O   0  0  0  0  0  0  0  0  0  0  0  0
  -23.3359  -32.4835   23.4264 O   0  0  0  0  0  0  0  0  0  0  0  0
  -27.6002  -31.0748   24.9597 O   0  0  0  0  0  0  0  0  0  0  0  0
  -28.4060  -15.7562   22.1387 O   0  0  0  0  0  0  0  0  0  0  0  0
  -20.4406   -8.3226   21.0176 O   0  0  0  0  0  0  0  0  0  0  0  0
  -28.5679  -27.0381   19.5567 O   0  0  0  0  0  0  0  0  0  1  0  0
  -30.2036  -25.1475   20.7778 O   0  0  0  0  0  0  0  0  0  0  0  0
  -29.6399  -20.5668   19.6237 O   0  0  0  0  0  0  0  0  0  0  0  0
  -18.0896   -6.3913   25.6162 F   0  0  0  0  0  0  0  0  0  0  0  0
  -18.1829   -9.5233   22.0682 F   0  0  0  0  0  0  0  0  0  0  0  0
  1  2  1  0  0  0  0
  1  5  2  0  0  0  0
  2  6  2  0  0  0  0
  3  8  2  0  0  0  0
  3 17  1  0  0  0  0
  4  9  1  0  0  0  0
  4 17  2  0  0  0  0
  5 19  1  0  0  0  0
  6 21  1  0  0  0  0
  7 10  2  0  0  0  0
  7 20  1  0  0  0  0
  8 23  1  0  0  0  0
  9 23  2  0  0  0  0
 10 24  1  0  0  0  0
 11 12  2  0  0  0  0
 11 25  1  0  0  0  0
 12 27  1  0  0  0  0
 13 22  1  0  0  0  0
 13 24  2  0  0  0  0
 14 26  2  0  0  0  0
 14 30  1  0  0  0  0
 15 26  1  0  0  0  0
 15 31  2  0  0  0  0
 16 27  2  0  0  0  0
 16 28  1  0  0  0  0
 17 29  1  0  0  0  0
 18 29  1  0  0  0  0
 18 32  2  0  0  0  0
 18 33  1  0  0  0  0
 19 21  2  0  0  0  0
 19 38  1  0  0  0  0
 20 22  2  0  0  0  0
 20 39  1  0  0  0  0
 21 53  1  0  0  0  0
 22 40  1  0  0  0  0
 23 84  1  0  0  0  0
 24 85  1  0  0  0  0
 25 28  2  0  0  0  0
 25 84  1  0  0  0  0
 26 86  1  0  0  0  0
 27 88  1  0  0  0  0
 28 89  1  0  0  0  0
 29 68  2  0  0  0  0
 30 54  1  0  0  0  0
 30 69  2  0  0  0  0
 31 69  1  0  0  0  0
 31 87  1  0  0  0  0
 32 70  1  0  0  0  0
 32 74  1  0  0  0  0
 33 75  1  0  0  0  0
 33 79  2  0  0  0  0
 34 55  1  0  0  0  0
 34 76  1  0  0  0  0
 34 80  2  0  0  0  0
 35 65  1  0  0  0  0
 35 71  1  0  0  0  0
 35 81  2  0  0  0  0
 36 66  1  0  0  0  0
 36 77  1  0  0  0  0
 36 82  2  0  0  0  0
 37 72  1  0  0  0  0
 37 73  1  0  0  0  0
 37 83  2  0  0  0  0
 38 41  1  0  0  0  0
 39 55  1  0  0  0  0
 40 71  1  0  0  0  0
 41 43  1  0  0  0  0
 42 46  1  0  0  0  0
 42 49  1  0  0  0  0
 43 53  1  0  0  0  0
 44 45  1  0  0  0  0
 44 54  1  0  0  0  0
 45 54  1  0  0  0  0
 46 56  1  0  0  0  0
 47 50  1  0  0  0  0
 47 57  1  0  0  0  0
 48 51  1  0  0  0  0
 48 57  1  0  0  0  0
 49 72  1  0  0  0  0
 50 73  1  0  0  0  0
 51 73  1  0  0  0  0
 52 56  1  0  0  0  0
 52 72  1  0  0  0  0
 53 76  1  0  0  0  0
 55 71  1  0  0  0  0
 56 70  1  0  0  0  0
 57 87  1  0  0  0  0
 58 66  1  0  0  0  0
 59 67  1  0  0  0  0
 60 67  1  0  0  0  0
 61 67  1  0  0  0  0
 62 78  1  0  0  0  0
 63 64  1  0  0  0  0
 63 85  1  0  0  0  0
 64 86  1  0  0  0  0
 65 67  1  0  0  0  0
 65 77  1  0  0  0  0
 66 78  1  0  0  0  0
 68 70  1  0  0  0  0
M  CHG  1  78   1
M  ISO  4  37 100  63 101  73 100  85 101
M  END
> <Batch ID>
0151

> <Smiles>
CNC(C)C(=O)NC(C(=O)N1Cc2cc([101O:1][101CH2:1]COc3cc(OC4CC[100N:0]([100C:0](=O)N5CCCC(n6nc(-c7ccc(Oc8ccc(F)cc8F)cc7)c(C(N)=O)c6N)C5)CC4)nc(C4CC4)c3)ccc2CC1C(=O)NC1CCCc2ccccc21)C(C)(C)C

> <Shape>
0.291

> <Color>
0.124

> <Negative vol penalty>
0.000

$$$$

  -OEChem-04052321433D

 87 96  0     1  0  0  0  0  0999 V2000
  -21.0186  -27.9213   19.6506 C   0  0  0  0  0  0  0  0  0  0  0  0
  -21.8484  -27.5187   18.6091 C   0  0  0  0  0  0  0  0  0  0  0  0
  -23.0862   -9.9376   19.9552 C   0  0  0  0  0  0  0  0  0  0  0  0
  -23.5293  -10.0383   22.3281 C   0  0  0  0  0  0  0  0  0  0  0  0
  -21.5605  -28.5608   20.7648 C   0  0  0  0  0  0  0  0  0  0  0  0
  -23.2205  -27.7564   18.6806 C   0  0  0  0  0  0  0  0  0  0  0  0
  -25.9642  -23.7378   17.2778 C   0  0  0  0  0  0  0  0  0  0  0  0
  -22.2744   -8.8209   20.1542 C   0  0  0  0  0  0  0  0  0  0  0  0
  -22.7174   -8.9216   22.5271 C   0  0  0  0  0  0  0  0  0  0  0  0
  -26.0848  -23.4952   15.9102 C   0  0  0  0  0  0  0  0  0  0  0  0
  -21.0505   -5.8813   23.6167 C   0  0  0  0  0  0  0  0  0  0  0  0
  -21.5243   -4.8775   24.4615 C   0  0  0  0  0  0  0  0  0  0  0  0
  -28.2701  -24.5167   15.9278 C   0  0  0  0  0  0  0  0  0  0  0  0
  -29.3815  -21.0303   14.9657 C   0  0  0  0  0  0  0  0  0  0  0  0
  -27.3060  -20.6277   13.7964 C   0  0  0  0  0  0  0  0  0  0  0  0
  -23.4351   -4.5636   23.0167 C   0  0  0  0  0  0  0  0  0  0  0  0
  -23.7137  -10.5462   21.0422 C   0  0  0  0  0  0  0  0  0  0  0  0
  -24.1593  -13.0509   20.8535 C   0  0  0  0  0  0  0  0  0  0  0  0
  -22.9412  -28.7979   20.8543 C   0  0  0  0  0  0  0  0  0  0  0  0
  -26.9927  -24.3825   17.9797 C   0  0  0  0  0  0  0  0  0  0  0  0
  -23.7812  -28.4009   19.7964 C   0  0  0  0  0  0  0  0  0  0  0  0
  -28.1611  -24.7640   17.3048 C   0  0  0  0  0  0  0  0  0  0  0  0
  -28.3802  -21.4651   14.0974 C   0  0  0  0  0  0  0  0  0  0  0  0
  -29.3088  -19.7580   15.5328 C   0  0  0  0  0  0  0  0  0  0  0  0
  -27.2332  -19.3554   14.3637 C   0  0  0  0  0  0  0  0  0  0  0  0
  -28.2346  -18.9206   15.2319 C   0  0  0  0  0  0  0  0  0  0  0  0
  -22.0900   -8.3129   21.4401 C   0  0  0  0  0  0  0  0  0  0  0  0
  -27.2366  -23.8872   15.2344 C   0  0  0  0  0  0  0  0  0  0  0  0
  -21.7690   -6.2262   22.4719 C   0  0  0  0  0  0  0  0  0  0  0  0
  -22.7166   -4.2187   24.1615 C   0  0  0  0  0  0  0  0  0  0  0  0
  -22.9613   -5.5674   22.1719 C   0  0  0  0  0  0  0  0  0  0  0  0
  -24.5529  -11.6994   20.8372 C   0  0  0  0  0  0  0  0  0  0  0  0
  -25.3167  -13.7487   20.6086 C   0  0  0  0  0  0  0  0  0  0  0  0
  -22.8633  -13.6244   21.0707 C   0  0  0  0  0  0  0  0  0  0  0  0
  -27.2350  -27.1013   19.6086 C   0  0  0  0  0  0  0  0  0  0  0  0
  -30.1846  -25.9562   20.3235 C   0  0  0  0  0  0  0  0  0  0  0  0
  -32.7822  -23.9113   19.4764 C   0  0  0  0  0  0  0  0  0  0  0  0
  -29.9307  -14.1600   17.3422 C   0  0  0  0  0  0  0  0  0  0  0  0
  -23.4747  -29.5349   22.0571 C   0  0  0  0  0  0  0  0  0  0  0  0
  -26.8585  -24.6129   19.4600 C   0  0  0  0  0  0  0  0  0  0  0  0
  -29.3028  -25.4413   18.0164 C   0  0  0  0  0  0  0  0  0  0  0  0
  -24.9872  -29.4139   22.2242 C   0  0  0  0  0  0  0  0  0  0  0  0
  -30.1388  -12.2455   20.5007 C   0  0  0  0  0  0  0  0  0  0  0  0
  -25.6926  -29.6606   20.8944 C   0  0  0  0  0  0  0  0  0  0  0  0
  -28.6686  -11.9859   20.8280 C   0  0  0  0  0  0  0  0  0  0  0  0
  -30.3706  -12.3859   18.9987 C   0  0  0  0  0  0  0  0  0  0  0  0
  -28.1391  -16.4721   14.9279 C   0  0  0  0  0  0  0  0  0  0  0  0
  -29.1842  -15.4692   15.4038 C   0  0  0  0  0  0  0  0  0  0  0  0
  -28.0421  -13.1427   18.6740 C   0  0  0  0  0  0  0  0  0  0  0  0
  -28.1272  -15.9368   17.6041 C   0  0  0  0  0  0  0  0  0  0  0  0
  -25.2779  -28.6189   19.8483 C   0  0  1  0  0  0  0  0  0  0  0  0
  -27.7517  -25.7382   19.9730 C   0  0  1  0  0  0  0  0  0  0  0  0
  -27.7656  -13.0514   20.1816 C   0  0  1  0  0  0  0  0  0  0  0  0
  -28.2204  -17.4363   17.2569 C   0  0  2  0  0  0  0  0  0  0  0  0
  -30.3972  -19.3197   16.4581 C   0  0  0  0  0  0  0  0  0  0  0  0
  -26.0710  -18.4804   14.0224 C   0  0  0  0  0  0  0  0  0  0  0  0
  -27.0701  -18.1609   17.9666 C   0  0  0  0  0  0  0  0  0  0  0  0
  -28.4809  -22.7951   11.9611 C   0  0  0  0  0  0  0  0  0  0  0  0
  -35.0717  -23.2180   20.2347 C   0  0  0  0  0  0  0  0  0  0  0  0
  -31.3207  -28.5962   19.2989 C   0  0  0  0  0  0  0  0  0  0  0  0
  -33.5708  -27.5041   19.1865 C   0  0  0  0  0  0  0  0  0  0  0  0
  -32.4050  -27.7316   21.3801 C   0  0  0  0  0  0  0  0  0  0  0  0
  -31.9506  -21.0883   19.7891 C   0  0  0  0  0  0  0  0  0  0  0  0
  -28.4582  -22.8259   13.4917 C   0  0  1  0  0  0  0  0  0  1  0  0
  -31.5519  -26.0548   19.6911 C   0  0  1  0  0  0  0  0  0  0  0  0
  -33.5833  -22.9109   20.2900 C   0  0  2  0  0  0  0  0  0  0  0  0
  -32.1899  -27.4607   19.8751 C   0  0  0  0  0  0  0  0  0  0  0  0
  -25.8584  -11.5454   20.6005 N   0  0  0  0  0  0  0  0  0  0  0  0
  -26.2951  -12.8092   20.4657 N   0  0  0  0  0  0  0  0  0  0  0  0
  -28.1622  -17.6492   15.7983 N   0  0  3  0  0  0  0  0  0  0  0  0
  -29.1213  -25.6502   19.4624 N   0  0  0  0  0  0  0  0  0  0  0  0
  -29.4687  -13.3756   18.4093 N   0  0  0  0  0  0  0  0  0  0  0  0
  -29.0471  -15.1147   16.8125 N   0  0  0  0  0  0  0  0  0  0  0  0
  -25.5828  -15.0680   20.5037 N   0  0  0  0  0  0  0  0  0  0  0  0
  -21.7830  -12.7636   21.3082 N   0  0  0  0  0  0  0  0  0  0  0  0
  -25.9643  -27.3665   20.0824 N   0  0  0  0  0  0  0  0  0  0  0  0
  -32.3404  -24.9627   20.2514 N   0  0  0  0  0  0  0  0  0  0  0  0
  -33.3686  -21.5306   19.7706 N   0  3  0  0  0  0  0  0  0  0  0  0
  -22.6659  -14.8628   21.0384 O   0  0  0  0  0  0  0  0  0  0  0  0
  -27.9378  -27.8570   18.9479 O   0  0  0  0  0  0  0  0  0  0  0  0
  -30.0656  -26.1368   21.5379 O   0  0  0  0  0  0  0  0  0  0  0  0
  -32.5727  -23.7757   18.2730 O   0  0  0  0  0  0  0  0  0  0  0  0
  -31.0782  -14.0286   16.8964 O   0  0  0  0  0  0  0  0  0  0  0  0
  -21.2977   -7.2235   21.6347 O   0  0  0  0  0  0  0  0  0  0  0  0
  -27.3570  -23.6516   13.8955 O   0  0  0  0  0  0  0  0  0  1  0  0
  -23.1722   -3.2558   24.9736 F   0  0  0  0  0  0  0  0  0  0  0  0
  -23.6565   -5.8952   21.0742 F   0  0  0  0  0  0  0  0  0  0  0  0
  1  2  1  0  0  0  0
  1  5  2  0  0  0  0
  2  6  2  0  0  0  0
  3  8  2  0  0  0  0
  3 17  1  0  0  0  0
  4  9  1  0  0  0  0
  4 17  2  0  0  0  0
  5 19  1  0  0  0  0
  6 21  1  0  0  0  0
  7 10  2  0  0  0  0
  7 20  1  0  0  0  0
  8 27  1  0  0  0  0
  9 27  2  0  0  0  0
 10 28  1  0  0  0  0
 11 12  2  0  0  0  0
 11 29  1  0  0  0  0
 12 30  1  0  0  0  0
 13 22  1  0  0  0  0
 13 28  2  0  0  0  0
 14 23  1  0  0  0  0
 14 24  2  0  0  0  0
 15 23  2  0  0  0  0
 15 25  1  0  0  0  0
 16 30  2  0  0  0  0
 16 31  1  0  0  0  0
 17 32  1  0  0  0  0
 18 32  1  0  0  0  0
 18 33  2  0  0  0  0
 18 34  1  0  0  0  0
 19 21  2  0  0  0  0
 19 39  1  0  0  0  0
 20 22  2  0  0  0  0
 20 40  1  0  0  0  0
 21 51  1  0  0  0  0
 22 41  1  0  0  0  0
 23 64  1  0  0  0  0
 24 26  1  0  0  0  0
 24 55  1  0  0  0  0
 25 26  2  0  0  0  0
 25 56  1  0  0  0  0
 26 70  1  0  0  0  0
 27 84  1  0  0  0  0
 28 85  1  0  0  0  0
 29 31  2  0  0  0  0
 29 84  1  0  0  0  0
 30 86  1  0  0  0  0
 31 87  1  0  0  0  0
 32 68  2  0  0  0  0
 33 69  1  0  0  0  0
 33 74  1  0  0  0  0
 34 75  1  0  0  0  0
 34 79  2  0  0  0  0
 35 52  1  0  0  0  0
 35 76  1  0  0  0  0
 35 80  2  0  0  0  0
 36 65  1  0  0  0  0
 36 71  1  0  0  0  0
 36 81  2  0  0  0  0
 37 66  1  0  0  0  0
 37 77  1  0  0  0  0
 37 82  2  0  0  0  0
 38 72  1  0  0  0  0
 38 73  1  0  0  0  0
 38 83  2  0  0  0  0
 39 42  1  0  0  0  0
 40 52  1  0  0  0  0
 41 71  1  0  0  0  0
 42 44  1  0  0  0  0
 43 45  1  0  0  0  0
 43 46  1  0  0  0  0
 44 51  1  0  0  0  0
 45 53  1  0  0  0  0
 46 72  1  0  0  0  0
 47 48  1  0  0  0  0
 47 70  1  0  0  0  0
 48 73  1  0  0  0  0
 49 53  1  0  0  0  0
 49 72  1  0  0  0  0
 50 54  1  0  0  0  0
 50 73  1  0  0  0  0
 51 76  1  0  0  0  0
 52 71  1  0  0  0  0
 53 69  1  0  0  0  0
 54 57  1  0  0  0  0
 54 70  1  0  0  0  0
 58 64  1  0  0  0  0
 59 66  1  0  0  0  0
 60 67  1  0  0  0  0
 61 67  1  0  0  0  0
 62 67  1  0  0  0  0
 63 78  1  0  0  0  0
 64 85  1  0  0  0  0
 65 67  1  0  0  0  0
 65 77  1  0  0  0  0
 66 78  1  0  0  0  0
 68 69  1  0  0  0  0
M  CHG  1  78   1
M  ISO  4  38 100  64 101  73 100  85 101
M  END
> <Batch ID>
0151

> <Smiles>
CNC(C)C(=O)NC(C(=O)N1Cc2cc([101O:1][101CH:1](C)c3cc(C)c(N4CC[100N:0]([100C:0](=O)N5CCCC(n6nc(-c7ccc(Oc8ccc(F)cc8F)cc7)c(C(N)=O)c6N)C5)CC4C)c(C)c3)ccc2CC1C(=O)NC1CCCc2ccccc21)C(C)(C)C

> <Shape>
0.251

> <Color>
0.196

> <Negative vol penalty>
0.000

$$$$

  -OEChem-04052321433D

 86 95  0     1  0  0  0  0  0999 V2000
  -30.9070  -32.4957   24.7254 C   0  0  0  0  0  0  0  0  0  0  0  0
  -30.3889  -31.3404   24.1488 C   0  0  0  0  0  0  0  0  0  0  0  0
  -24.1425  -11.8199   23.1037 C   0  0  0  0  0  0  0  0  0  0  0  0
  -22.9642  -12.4386   21.0873 C   0  0  0  0  0  0  0  0  0  0  0  0
  -30.0610  -33.3795   25.3939 C   0  0  0  0  0  0  0  0  0  0  0  0
  -29.0245  -31.0679   24.2413 C   0  0  0  0  0  0  0  0  0  0  0  0
  -27.0519  -29.5111   19.8447 C   0  0  0  0  0  0  0  0  0  0  0  0
  -23.2175  -12.5357   23.8638 C   0  0  0  0  0  0  0  0  0  0  0  0
  -22.0393  -13.1544   21.8474 C   0  0  0  0  0  0  0  0  0  0  0  0
  -27.2841  -28.1867   19.4761 C   0  0  0  0  0  0  0  0  0  0  0  0
  -19.1606  -14.8462   23.2858 C   0  0  0  0  0  0  0  0  0  0  0  0
  -17.8087  -14.6887   22.9805 C   0  0  0  0  0  0  0  0  0  0  0  0
  -25.0792  -27.5905   20.2521 C   0  0  0  0  0  0  0  0  0  0  0  0
  -29.3725  -21.5448   21.4663 C   0  0  0  0  0  0  0  0  0  0  0  0
  -29.2891  -20.9603   19.1236 C   0  0  0  0  0  0  0  0  0  0  0  0
  -17.9779  -12.3249   23.4507 C   0  0  0  0  0  0  0  0  0  0  0  0
  -24.0159  -11.7714   21.7154 C   0  0  0  0  0  0  0  0  0  0  0  0
  -24.8983   -9.6773   20.5562 C   0  0  0  0  0  0  0  0  0  0  0  0
  -28.6840  -33.1225   25.4863 C   0  0  0  0  0  0  0  0  0  0  0  0
  -25.8337  -29.8837   20.4308 C   0  0  0  0  0  0  0  0  0  0  0  0
  -28.1595  -31.9485   24.9128 C   0  0  0  0  0  0  0  0  0  0  0  0
  -24.8331  -28.9207   20.6249 C   0  0  0  0  0  0  0  0  0  0  0  0
  -29.3767  -19.2225   20.7998 C   0  0  0  0  0  0  0  0  0  0  0  0
  -29.3155  -21.9292   20.1266 C   0  0  0  0  0  0  0  0  0  0  0  0
  -29.4032  -20.1915   21.8028 C   0  0  0  0  0  0  0  0  0  0  0  0
  -29.3197  -19.6069   19.4601 C   0  0  0  0  0  0  0  0  0  0  0  0
  -22.1659  -13.2029   23.2357 C   0  0  0  0  0  0  0  0  0  0  0  0
  -26.2988  -27.2256   19.6824 C   0  0  0  0  0  0  0  0  0  0  0  0
  -19.9212  -13.7431   23.6735 C   0  0  0  0  0  0  0  0  0  0  0  0
  -17.2174  -13.4281   23.0629 C   0  0  0  0  0  0  0  0  0  0  0  0
  -19.3299  -12.4825   23.7560 C   0  0  0  0  0  0  0  0  0  0  0  0
  -24.9713  -11.0327   20.9296 C   0  0  0  0  0  0  0  0  0  0  0  0
  -26.0391   -9.4614   19.8224 C   0  0  0  0  0  0  0  0  0  0  0  0
  -23.8894   -8.7009   20.8466 C   0  0  0  0  0  0  0  0  0  0  0  0
  -24.9759  -31.1109   23.2347 C   0  0  0  0  0  0  0  0  0  0  0  0
  -22.0501  -31.2458   21.8404 C   0  0  0  0  0  0  0  0  0  0  0  0
  -19.9164  -30.0479   19.4615 C   0  0  0  0  0  0  0  0  0  0  0  0
  -28.0619  -14.6630   19.5620 C   0  0  0  0  0  0  0  0  0  0  0  0
  -27.8165  -34.0837   26.2598 C   0  0  0  0  0  0  0  0  0  0  0  0
  -25.5887  -31.3215   20.7982 C   0  0  0  0  0  0  0  0  0  0  0  0
  -23.5004  -29.2731   21.2317 C   0  0  0  0  0  0  0  0  0  0  0  0
  -26.3241  -33.9098   25.9897 C   0  0  0  0  0  0  0  0  0  0  0  0
  -29.5318  -11.6219   21.0812 C   0  0  0  0  0  0  0  0  0  0  0  0
  -25.9399  -32.4346   26.0455 C   0  0  0  0  0  0  0  0  0  0  0  0
  -29.2303  -10.5715   20.0109 C   0  0  0  0  0  0  0  0  0  0  0  0
  -30.6004  -16.9873   20.5846 C   0  0  0  0  0  0  0  0  0  0  0  0
  -29.7179  -12.9902   20.4446 C   0  0  0  0  0  0  0  0  0  0  0  0
  -30.1244  -15.5448   20.6303 C   0  0  0  0  0  0  0  0  0  0  0  0
  -28.1877  -16.9625   20.6804 C   0  0  0  0  0  0  0  0  0  0  0  0
  -28.2096  -12.3986   18.5822 C   0  0  0  0  0  0  0  0  0  0  0  0
  -29.4094  -17.7589   21.1641 C   0  0  2  0  0  0  0  0  0  0  0  0
  -26.6811  -31.6305   24.9705 C   0  0  1  0  0  0  0  0  0  0  0  0
  -24.5055  -31.4909   21.8591 C   0  0  1  0  0  0  0  0  0  0  0  0
  -28.0301  -10.9609   19.1183 C   0  0  2  0  0  0  0  0  0  0  0  0
  -29.4630  -19.8063   23.2450 C   0  0  0  0  0  0  0  0  0  0  0  0
  -29.2903  -18.5889   18.3671 C   0  0  0  0  0  0  0  0  0  0  0  0
  -17.5799  -30.3283   18.5900 C   0  0  0  0  0  0  0  0  0  0  0  0
  -20.9713  -29.7093   24.2457 C   0  0  0  0  0  0  0  0  0  0  0  0
  -18.9159  -29.1996   22.9101 C   0  0  0  0  0  0  0  0  0  0  0  0
  -19.4976  -31.5652   23.4469 C   0  0  0  0  0  0  0  0  0  0  0  0
  -20.8873  -30.8454   16.7819 C   0  0  0  0  0  0  0  0  0  0  0  0
  -29.2835  -23.3761   19.7668 C   0  0  0  0  0  0  0  0  0  0  0  0
  -27.8702  -23.9721   19.6680 C   0  0  0  0  0  0  0  0  0  0  0  0
  -27.8706  -25.4677   19.3741 C   0  0  0  0  0  0  0  0  0  1  0  0
  -20.8712  -30.3086   21.7363 C   0  0  1  0  0  0  0  0  0  0  0  0
  -19.0322  -30.7577   18.4521 C   0  0  2  0  0  0  0  0  0  0  0  0
  -20.0897  -30.1883   23.0750 C   0  0  0  0  0  0  0  0  0  0  0  0
  -26.0716  -11.6353   20.4710 N   0  0  0  0  0  0  0  0  0  0  0  0
  -26.7005  -10.6540   19.8020 N   0  0  0  0  0  0  0  0  0  0  0  0
  -23.3112  -30.6909   21.5802 N   0  0  0  0  0  0  0  0  0  0  0  0
  -28.5514  -13.3531   19.6407 N   0  0  0  0  0  0  0  0  0  0  0  0
  -28.6953  -15.6253   20.3544 N   0  0  0  0  0  0  0  0  0  0  0  0
  -26.5309   -8.3696   19.1991 N   0  0  0  0  0  0  0  0  0  0  0  0
  -22.7831   -9.0909   21.6136 N   0  0  0  0  0  0  0  0  0  0  0  0
  -26.0683  -31.8334   23.6752 N   0  0  0  0  0  0  0  0  0  0  0  0
  -20.0677  -30.7862   20.6162 N   0  0  0  0  0  0  0  0  0  0  0  0
  -19.4826  -30.4533   17.0645 N   0  3  0  0  0  0  0  0  0  0  0  0
  -23.9748   -7.5132   20.4519 O   0  0  0  0  0  0  0  0  0  0  0  0
  -24.3901  -30.2287   23.8513 O   0  0  0  0  0  0  0  0  0  0  0  0
  -21.8584  -32.4283   22.1346 O   0  0  0  0  0  0  0  0  0  0  0  0
  -20.4193  -28.9469   19.2485 O   0  0  0  0  0  0  0  0  0  0  0  0
  -27.0720  -14.9370   18.8721 O   0  0  0  0  0  0  0  0  0  0  0  0
  -21.2630  -13.9012   23.9771 O   0  0  0  0  0  0  0  0  0  0  0  0
  -26.5247  -25.9230   19.3216 O   0  0  0  0  0  0  0  0  0  1  0  0
  -15.9188  -13.2773   22.7712 F   0  0  0  0  0  0  0  0  0  0  0  0
  -20.0551  -11.4192   24.1290 F   0  0  0  0  0  0  0  0  0  0  0  0
  1  2  1  0  0  0  0
  1  5  2  0  0  0  0
  2  6  2  0  0  0  0
  3  8  2  0  0  0  0
  3 17  1  0  0  0  0
  4  9  1  0  0  0  0
  4 17  2  0  0  0  0
  5 19  1  0  0  0  0
  6 21  1  0  0  0  0
  7 10  2  0  0  0  0
  7 20  1  0  0  0  0
  8 27  1  0  0  0  0
  9 27  2  0  0  0  0
 10 28  1  0  0  0  0
 11 12  2  0  0  0  0
 11 29  1  0  0  0  0
 12 30  1  0  0  0  0
 13 22  1  0  0  0  0
 13 28  2  0  0  0  0
 14 24  1  0  0  0  0
 14 25  2  0  0  0  0
 15 24  2  0  0  0  0
 15 26  1  0  0  0  0
 16 30  2  0  0  0  0
 16 31  1  0  0  0  0
 17 32  1  0  0  0  0
 18 32  1  0  0  0  0
 18 33  2  0  0  0  0
 18 34  1  0  0  0  0
 19 21  2  0  0  0  0
 19 39  1  0  0  0  0
 20 22  2  0  0  0  0
 20 40  1  0  0  0  0
 21 52  1  0  0  0  0
 22 41  1  0  0  0  0
 23 25  1  0  0  0  0
 23 26  2  0  0  0  0
 23 51  1  0  0  0  0
 24 62  1  0  0  0  0
 25 55  1  0  0  0  0
 26 56  1  0  0  0  0
 27 83  1  0  0  0  0
 28 84  1  0  0  0  0
 29 31  2  0  0  0  0
 29 83  1  0  0  0  0
 30 85  1  0  0  0  0
 31 86  1  0  0  0  0
 32 68  2  0  0  0  0
 33 69  1  0  0  0  0
 33 73  1  0  0  0  0
 34 74  1  0  0  0  0
 34 78  2  0  0  0  0
 35 53  1  0  0  0  0
 35 75  1  0  0  0  0
 35 79  2  0  0  0  0
 36 65  1  0  0  0  0
 36 70  1  0  0  0  0
 36 80  2  0  0  0  0
 37 66  1  0  0  0  0
 37 76  1  0  0  0  0
 37 81  2  0  0  0  0
 38 71  1  0  0  0  0
 38 72  1  0  0  0  0
 38 82  2  0  0  0  0
 39 42  1  0  0  0  0
 40 53  1  0  0  0  0
 41 70  1  0  0  0  0
 42 44  1  0  0  0  0
 43 45  1  0  0  0  0
 43 47  1  0  0  0  0
 44 52  1  0  0  0  0
 45 54  1  0  0  0  0
 46 48  1  0  0  0  0
 46 51  1  0  0  0  0
 47 71  1  0  0  0  0
 48 72  1  0  0  0  0
 49 51  1  0  0  0  0
 49 72  1  0  0  0  0
 50 54  1  0  0  0  0
 50 71  1  0  0  0  0
 52 75  1  0  0  0  0
 53 70  1  0  0  0  0
 54 69  1  0  0  0  0
 57 66  1  0  0  0  0
 58 67  1  0  0  0  0
 59 67  1  0  0  0  0
 60 67  1  0  0  0  0
 61 77  1  0  0  0  0
 62 63  1  0  0  0  0
 63 64  1  0  0  0  0
 64 84  1  0  0  0  0
 65 67  1  0  0  0  0
 65 76  1  0  0  0  0
 66 77  1  0  0  0  0
 68 69  1  0  0  0  0
M  CHG  1  77   1
M  ISO  4  38 100  64 101  72 100  84 101
M  END
> <Batch ID>
0151

> <Smiles>
CNC(C)C(=O)NC(C(=O)N1Cc2cc([101O:1][101CH2:1]CCc3cc(C)c(C4CC[100N:0]([100C:0](=O)N5CCCC(n6nc(-c7ccc(Oc8ccc(F)cc8F)cc7)c(C(N)=O)c6N)C5)C4)c(C)c3)ccc2CC1C(=O)NC1CCCc2ccccc21)C(C)(C)C

> <Shape>
0.306

> <Color>
0.068

> <Negative vol penalty>
0.000

$$$$

  -OEChem-04052321433D

 92102  0     1  0  0  0  0  0999 V2000
  -29.9115  -27.2572   35.6608 C   0  0  0  0  0  0  0  0  0  0  0  0
  -29.9327  -27.1951   34.2712 C   0  0  0  0  0  0  0  0  0  0  0  0
  -23.1587   -9.8936   19.9125 C   0  0  0  0  0  0  0  0  0  0  0  0
  -23.8418   -9.9224   22.2298 C   0  0  0  0  0  0  0  0  0  0  0  0
  -30.9447  -26.6818   36.3991 C   0  0  0  0  0  0  0  0  0  0  0  0
  -30.9880  -26.5583   33.6190 C   0  0  0  0  0  0  0  0  0  0  0  0
  -29.4151  -23.5311   29.8764 C   0  0  0  0  0  0  0  0  0  0  0  0
  -22.4192   -8.7340   20.1449 C   0  0  0  0  0  0  0  0  0  0  0  0
  -23.1023   -8.7627   22.4622 C   0  0  0  0  0  0  0  0  0  0  0  0
  -29.0500  -24.1394   28.6762 C   0  0  0  0  0  0  0  0  0  0  0  0
  -19.8646   -7.9336   22.9622 C   0  0  0  0  0  0  0  0  0  0  0  0
  -19.0696   -7.8924   24.1076 C   0  0  0  0  0  0  0  0  0  0  0  0
  -31.0649  -19.8507   22.3975 C   0  0  0  0  0  0  0  0  0  0  0  0
  -31.1975  -23.5659   27.7391 C   0  0  0  0  0  0  0  0  0  0  0  0
  -30.2526  -18.2878   20.2341 C   0  0  0  0  0  0  0  0  0  0  0  0
  -20.3063   -5.9729   24.8970 C   0  0  0  0  0  0  0  0  0  0  0  0
  -23.8700  -10.4878   20.9550 C   0  0  0  0  0  0  0  0  0  0  0  0
  -24.1888  -13.0157   20.8305 C   0  0  0  0  0  0  0  0  0  0  0  0
  -32.0082  -26.0291   35.7559 C   0  0  0  0  0  0  0  0  0  0  0  0
  -30.6805  -22.9441   30.0207 C   0  0  0  0  0  0  0  0  0  0  0  0
  -32.0371  -25.9747   34.3493 C   0  0  0  0  0  0  0  0  0  0  0  0
  -29.8888  -20.1616   21.7152 C   0  0  0  0  0  0  0  0  0  0  0  0
  -31.5753  -22.9485   28.9412 C   0  0  0  0  0  0  0  0  0  0  0  0
  -31.4288  -17.9769   20.9164 C   0  0  0  0  0  0  0  0  0  0  0  0
  -31.8350  -18.7583   21.9980 C   0  0  0  0  0  0  0  0  0  0  0  0
  -22.3910   -8.1685   21.4197 C   0  0  0  0  0  0  0  0  0  0  0  0
  -29.9423  -24.1594   27.6083 C   0  0  0  0  0  0  0  0  0  0  0  0
  -20.8804   -6.9944   22.7842 C   0  0  0  0  0  0  0  0  0  0  0  0
  -29.4826  -19.3802   20.6335 C   0  0  0  0  0  0  0  0  0  0  0  0
  -19.2905   -6.9121   25.0750 C   0  0  0  0  0  0  0  0  0  0  0  0
  -21.1013   -6.0141   23.7516 C   0  0  0  0  0  0  0  0  0  0  0  0
  -24.6346  -11.6854   20.7154 C   0  0  0  0  0  0  0  0  0  0  0  0
  -25.2844  -13.7749   20.4990 C   0  0  0  0  0  0  0  0  0  0  0  0
  -22.8997  -13.5202   21.2038 C   0  0  0  0  0  0  0  0  0  0  0  0
  -33.1915  -23.4606   31.8999 C   0  0  0  0  0  0  0  0  0  0  0  0
  -34.3160  -20.7693   30.4803 C   0  0  0  0  0  0  0  0  0  0  0  0
  -34.2456  -18.6643   27.7950 C   0  0  0  0  0  0  0  0  0  0  0  0
  -30.6393  -14.8434   21.0296 C   0  0  0  0  0  0  0  0  0  0  0  0
  -33.1265  -25.4633   36.5949 C   0  0  0  0  0  0  0  0  0  0  0  0
  -31.0491  -22.2684   31.3130 C   0  0  0  0  0  0  0  0  0  0  0  0
  -32.9381  -22.3145   29.0383 C   0  0  0  0  0  0  0  0  0  0  0  0
  -34.0173  -24.4803   35.8395 C   0  0  0  0  0  0  0  0  0  0  0  0
  -29.7197  -12.4425   18.4603 C   0  0  0  0  0  0  0  0  0  0  0  0
  -34.3960  -25.0441   34.4736 C   0  0  0  0  0  0  0  0  0  0  0  0
  -28.2653  -12.1449   18.8311 C   0  0  0  0  0  0  0  0  0  0  0  0
  -32.6596  -16.6368   18.9521 C   0  0  0  0  0  0  0  0  0  0  0  0
  -28.5949  -21.1362   23.6028 C   0  0  0  0  0  0  0  0  0  0  0  0
  -29.8994  -22.6284   22.0349 C   0  0  0  0  0  0  0  0  0  0  0  0
  -30.5686  -12.6434   19.7102 C   0  0  0  0  0  0  0  0  0  0  0  0
  -32.2621  -15.1621   18.9854 C   0  0  0  0  0  0  0  0  0  0  0  0
  -28.6313  -13.4086   21.0067 C   0  0  0  0  0  0  0  0  0  0  0  0
  -27.8328  -22.3532   24.1114 C   0  0  0  0  0  0  0  0  0  0  0  0
  -29.1270  -23.8339   22.5552 C   0  0  0  0  0  0  0  0  0  0  0  0
  -29.0770  -21.3347   22.1561 C   0  0  0  0  0  0  0  0  0  0  0  0
  -32.2888  -16.7302   20.4453 C   0  0  2  0  0  0  0  0  0  0  0  0
  -33.1520  -25.2710   33.6062 C   0  0  1  0  0  0  0  0  0  0  0  0
  -32.5564  -22.1534   31.5184 C   0  0  1  0  0  0  0  0  0  0  0  0
  -27.7026  -13.2079   19.7938 C   0  0  2  0  0  0  0  0  0  0  0  0
  -33.0904  -18.4421   22.7417 C   0  0  0  0  0  0  0  0  0  0  0  0
  -25.9690  -19.3293   19.8545 C   0  0  0  0  0  0  0  0  0  0  0  0
  -35.3042  -16.5703   26.9052 C   0  0  0  0  0  0  0  0  0  0  0  0
  -36.8290  -22.3459   29.7668 C   0  0  0  0  0  0  0  0  0  0  0  0
  -37.3977  -20.5559   28.1113 C   0  0  0  0  0  0  0  0  0  0  0  0
  -37.2504  -20.0051   30.5399 C   0  0  0  0  0  0  0  0  0  0  0  0
  -31.6515  -17.2411   27.7320 C   0  0  0  0  0  0  0  0  0  0  0  0
  -28.0456  -24.7910   24.5873 C   0  0  0  0  0  0  0  0  0  0  0  0
  -27.3265  -18.6637   19.9310 C   0  0  0  0  0  0  0  0  0  0  0  0
  -28.2044  -24.7451   26.0942 C   0  0  0  0  0  0  0  0  0  1  0  0
  -35.1304  -20.4730   29.2442 C   0  0  1  0  0  0  0  0  0  0  0  0
  -34.1475  -17.1523   27.7027 C   0  0  2  0  0  0  0  0  0  0  0  0
  -36.6270  -20.8587   29.4140 C   0  0  0  0  0  0  0  0  0  0  0  0
  -25.9136  -11.6008   20.3399 N   0  0  0  0  0  0  0  0  0  0  0  0
  -26.2809  -12.8876   20.2161 N   0  0  0  0  0  0  0  0  0  0  0  0
  -33.2543  -21.6719   30.3246 N   0  0  0  0  0  0  0  0  0  0  0  0
  -29.9989  -13.6956   20.5565 N   0  0  0  0  0  0  0  0  0  0  0  0
  -31.6161  -15.4295   20.2574 N   0  0  0  0  0  0  0  0  0  0  0  0
  -25.4829  -15.1081   20.4246 N   0  0  0  0  0  0  0  0  0  0  0  0
  -21.8868  -12.6022   21.5130 N   0  0  0  0  0  0  0  0  0  0  0  0
  -32.6824  -24.0167   33.0579 N   0  0  0  0  0  0  0  0  0  0  0  0
  -34.9075  -19.0645   28.9365 N   0  0  0  0  0  0  0  0  0  0  0  0
  -28.7021  -23.5808   23.9818 N   0  3  0  0  0  0  0  0  0  0  0  0
  -32.8730  -16.7554   27.0400 N   0  3  0  0  0  0  0  0  0  0  0  0
  -22.6486  -14.7485   21.2455 O   0  0  0  0  0  0  0  0  0  0  0  0
  -34.0789  -23.9292   31.1966 O   0  0  0  0  0  0  0  0  0  0  0  0
  -34.6064  -20.2148   31.5432 O   0  0  0  0  0  0  0  0  0  0  0  0
  -33.7846  -19.4153   26.9382 O   0  0  0  0  0  0  0  0  0  0  0  0
  -30.3149  -15.3571   22.1096 O   0  0  0  0  0  0  0  0  0  0  0  0
  -21.6693   -7.0371   21.6469 O   0  0  0  0  0  0  0  0  0  0  0  0
  -29.5861  -24.7574   26.4276 O   0  0  0  0  0  0  0  0  0  1  0  0
  -28.3365  -19.6702   19.9560 O   0  0  0  0  0  0  0  0  0  0  0  0
  -18.5280   -6.8736   26.1756 F   0  0  0  0  0  0  0  0  0  0  0  0
  -22.0765   -5.1099   23.5866 F   0  0  0  0  0  0  0  0  0  0  0  0
  1  2  1  0  0  0  0
  1  5  2  0  0  0  0
  2  6  2  0  0  0  0
  3  8  2  0  0  0  0
  3 17  1  0  0  0  0
  4  9  1  0  0  0  0
  4 17  2  0  0  0  0
  5 19  1  0  0  0  0
  6 21  1  0  0  0  0
  7 10  2  0  0  0  0
  7 20  1  0  0  0  0
  8 26  1  0  0  0  0
  9 26  2  0  0  0  0
 10 27  1  0  0  0  0
 11 12  2  0  0  0  0
 11 28  1  0  0  0  0
 12 30  1  0  0  0  0
 13 22  1  0  0  0  0
 13 25  2  0  0  0  0
 14 23  1  0  0  0  0
 14 27  2  0  0  0  0
 15 24  2  0  0  0  0
 15 29  1  0  0  0  0
 16 30  2  0  0  0  0
 16 31  1  0  0  0  0
 17 32  1  0  0  0  0
 18 32  1  0  0  0  0
 18 33  2  0  0  0  0
 18 34  1  0  0  0  0
 19 21  2  0  0  0  0
 19 39  1  0  0  0  0
 20 23  2  0  0  0  0
 20 40  1  0  0  0  0
 21 56  1  0  0  0  0
 22 29  2  0  0  0  0
 22 54  1  0  0  0  0
 23 41  1  0  0  0  0
 24 25  1  0  0  0  0
 24 55  1  0  0  0  0
 25 59  1  0  0  0  0
 26 88  1  0  0  0  0
 27 89  1  0  0  0  0
 28 31  2  0  0  0  0
 28 88  1  0  0  0  0
 29 90  1  0  0  0  0
 30 91  1  0  0  0  0
 31 92  1  0  0  0  0
 32 72  2  0  0  0  0
 33 73  1  0  0  0  0
 33 77  1  0  0  0  0
 34 78  1  0  0  0  0
 34 83  2  0  0  0  0
 35 57  1  0  0  0  0
 35 79  1  0  0  0  0
 35 84  2  0  0  0  0
 36 69  1  0  0  0  0
 36 74  1  0  0  0  0
 36 85  2  0  0  0  0
 37 70  1  0  0  0  0
 37 80  1  0  0  0  0
 37 86  2  0  0  0  0
 38 75  1  0  0  0  0
 38 76  1  0  0  0  0
 38 87  2  0  0  0  0
 39 42  1  0  0  0  0
 40 57  1  0  0  0  0
 41 74  1  0  0  0  0
 42 44  1  0  0  0  0
 43 45  1  0  0  0  0
 43 49  1  0  0  0  0
 44 56  1  0  0  0  0
 45 58  1  0  0  0  0
 46 50  1  0  0  0  0
 46 55  1  0  0  0  0
 47 52  1  0  0  0  0
 47 54  1  0  0  0  0
 48 53  1  0  0  0  0
 48 54  1  0  0  0  0
 49 75  1  0  0  0  0
 50 76  1  0  0  0  0
 51 58  1  0  0  0  0
 51 75  1  0  0  0  0
 52 81  1  0  0  0  0
 53 81  1  0  0  0  0
 55 76  1  0  0  0  0
 56 79  1  0  0  0  0
 57 74  1  0  0  0  0
 58 73  1  0  0  0  0
 60 67  1  0  0  0  0
 61 70  1  0  0  0  0
 62 71  1  0  0  0  0
 63 71  1  0  0  0  0
 64 71  1  0  0  0  0
 65 82  1  0  0  0  0
 66 68  1  0  0  0  0
 66 81  1  0  0  0  0
 67 90  1  0  0  0  0
 68 89  1  0  0  0  0
 69 71  1  0  0  0  0
 69 80  1  0  0  0  0
 70 82  1  0  0  0  0
 72 73  1  0  0  0  0
M  CHG  2  81   1  82   1
M  ISO  4  38 100  68 101  76 100  89 101
M  END
> <Batch ID>
0151

> <Smiles>
CCOc1cc(C2CC[100N:0]2[100C:0](=O)N2CCCC(n3nc(-c4ccc(Oc5ccc(F)cc5F)cc4)c(C(N)=O)c3N)C2)c(C)cc1C1CCN(C[101CH2:1][101O:1]c2ccc3c(c2)CN(C(=O)C(NC(=O)C(C)NC)C(C)(C)C)C(C(=O)NC2CCCc4ccccc42)C3)CC1

> <Shape>
0.189

> <Color>
0.168

> <Negative vol penalty>
0.000

$$$$

  -OEChem-04052321433D

 85 94  0     1  0  0  0  0  0999 V2000
  -17.8598  -30.1574   21.5307 C   0  0  0  0  0  0  0  0  0  0  0  0
  -19.2443  -30.1797   21.3954 C   0  0  0  0  0  0  0  0  0  0  0  0
  -26.4036  -12.9622   21.5906 C   0  0  0  0  0  0  0  0  0  0  0  0
  -25.8955  -13.8594   19.4056 C   0  0  0  0  0  0  0  0  0  0  0  0
  -17.2265  -29.0150   22.0183 C   0  0  0  0  0  0  0  0  0  0  0  0
  -19.9963  -29.0599   21.7488 C   0  0  0  0  0  0  0  0  0  0  0  0
  -25.1238  -27.0694   19.0557 C   0  0  0  0  0  0  0  0  0  0  0  0
  -25.1593  -12.3327   21.6215 C   0  0  0  0  0  0  0  0  0  0  0  0
  -24.6512  -13.2298   19.4365 C   0  0  0  0  0  0  0  0  0  0  0  0
  -26.4719  -27.2208   19.3775 C   0  0  0  0  0  0  0  0  0  0  0  0
  -23.7397   -9.5555   20.3159 C   0  0  0  0  0  0  0  0  0  0  0  0
  -23.6946   -8.2293   20.7458 C   0  0  0  0  0  0  0  0  0  0  0  0
  -26.4409  -25.0800   20.4889 C   0  0  0  0  0  0  0  0  0  0  0  0
  -29.3031  -23.4834   16.3123 C   0  0  0  0  0  0  0  0  0  0  0  0
  -22.2178   -8.8642   22.5494 C   0  0  0  0  0  0  0  0  0  0  0  0
  -26.7717  -13.7256   20.4826 C   0  0  0  0  0  0  0  0  0  0  0  0
  -29.2641  -13.8504   19.9532 C   0  0  0  0  0  0  0  0  0  0  0  0
  -17.9704  -27.8772   22.3687 C   0  0  0  0  0  0  0  0  0  0  0  0
  -24.4202  -25.9251   19.4582 C   0  0  0  0  0  0  0  0  0  0  0  0
  -19.3725  -27.9016   22.2428 C   0  0  0  0  0  0  0  0  0  0  0  0
  -25.0846  -24.9153   20.1687 C   0  0  0  0  0  0  0  0  0  0  0  0
  -28.7761  -22.2237   16.0499 C   0  0  0  0  0  0  0  0  0  0  0  0
  -28.7513  -21.2634   17.0551 C   0  0  0  0  0  0  0  0  0  0  0  0
  -24.2831  -12.4665   20.5445 C   0  0  0  0  0  0  0  0  0  0  0  0
  -27.1299  -26.2273   20.0967 C   0  0  0  0  0  0  0  0  0  0  0  0
  -23.0238  -10.5361   21.0027 C   0  0  0  0  0  0  0  0  0  0  0  0
  -22.9337   -7.8837   21.8626 C   0  0  0  0  0  0  0  0  0  0  0  0
  -22.2628  -10.1904   22.1195 C   0  0  0  0  0  0  0  0  0  0  0  0
  -28.0567  -14.3766   20.4504 C   0  0  0  0  0  0  0  0  0  0  0  0
  -29.2617  -21.6098   18.2957 C   0  0  0  0  0  0  0  0  0  0  0  0
  -29.7886  -23.7305   17.5863 C   0  0  0  0  0  0  0  0  0  0  0  0
  -30.1824  -14.8525   20.1502 C   0  0  0  0  0  0  0  0  0  0  0  0
  -29.5316  -12.5701   19.3658 C   0  0  0  0  0  0  0  0  0  0  0  0
  -21.9137  -25.3776   21.3348 C   0  0  0  0  0  0  0  0  0  0  0  0
  -22.2583  -22.3397   20.2511 C   0  0  0  0  0  0  0  0  0  0  0  0
  -24.3032  -19.9518   18.9231 C   0  0  0  0  0  0  0  0  0  0  0  0
  -29.7052  -20.7890   20.6358 C   0  0  0  0  0  0  0  0  0  0  0  0
  -17.2455  -26.6824   22.9359 C   0  0  0  0  0  0  0  0  0  0  0  0
  -22.9732  -25.7647   19.0801 C   0  0  0  0  0  0  0  0  0  0  0  0
  -24.3796  -23.6585   20.6067 C   0  0  0  0  0  0  0  0  0  0  0  0
  -18.0821  -25.4055   22.9347 C   0  0  0  0  0  0  0  0  0  0  0  0
  -31.1159  -18.5632   23.0301 C   0  0  0  0  0  0  0  0  0  0  0  0
  -28.7873  -20.7436   13.9326 C   0  0  0  0  0  0  0  0  0  0  0  0
  -29.1385  -22.1305   13.4929 C   0  0  0  0  0  0  0  0  0  0  0  0
  -19.4817  -25.6837   23.4735 C   0  0  0  0  0  0  0  0  0  0  0  0
  -30.6064  -17.1884   22.5915 C   0  0  0  0  0  0  0  0  0  0  0  0
  -30.0661  -19.6521   22.8158 C   0  0  0  0  0  0  0  0  0  0  0  0
  -29.0008  -18.3452   21.0195 C   0  0  0  0  0  0  0  0  0  0  0  0
  -28.2441  -21.9278   14.6869 C   0  0  0  0  0  0  0  0  0  0  0  0
  -20.2206  -26.6980   22.5921 C   0  0  1  0  0  0  0  0  0  0  0  0
  -22.2232  -24.7928   19.9858 C   0  0  1  0  0  0  0  0  0  0  0  0
  -30.0466  -17.2266   21.1559 C   0  0  2  0  0  0  0  0  0  0  0  0
  -28.1891  -19.9045   16.7940 C   0  0  0  0  0  0  0  0  0  0  0  0
  -24.9650  -17.7502   17.9170 C   0  0  0  0  0  0  0  0  0  0  0  0
  -22.3295  -21.4410   23.1661 C   0  0  0  0  0  0  0  0  0  0  0  0
  -23.2710  -19.2527   22.3958 C   0  0  0  0  0  0  0  0  0  0  0  0
  -20.9986  -19.9622   21.6508 C   0  0  0  0  0  0  0  0  0  0  0  0
  -23.7248  -20.8999   16.1799 C   0  0  0  0  0  0  0  0  0  0  0  0
  -30.6874  -26.6382   19.5608 C   0  0  0  0  0  0  0  0  0  0  0  0
  -29.2500  -27.1318   19.5107 C   0  0  0  0  0  0  0  0  0  1  0  0
  -30.7970  -25.1673   19.1908 C   0  0  0  0  0  0  0  0  0  0  0  0
  -23.0332  -21.1251   20.7021 C   0  0  1  0  0  0  0  0  0  0  0  0
  -24.1152  -19.0010   17.7548 C   0  0  2  0  0  0  0  0  0  0  0  0
  -22.4211  -20.4697   21.9723 C   0  0  0  0  0  0  0  0  0  0  0  0
  -28.1925  -15.6168   20.9274 N   0  0  0  0  0  0  0  0  0  0  0  0
  -29.7816  -22.8230   18.5883 N   0  0  0  0  0  0  0  0  0  0  0  0
  -29.4961  -15.8781   20.7311 N   0  0  0  0  0  0  0  0  0  0  0  0
  -22.9635  -23.5510   20.2184 N   0  0  0  0  0  0  0  0  0  0  0  0
  -29.5848  -19.6309   21.4327 N   0  0  0  0  0  0  0  0  0  0  0  0
  -31.5019  -14.9477   19.8817 N   0  0  0  0  0  0  0  0  0  0  0  0
  -28.4739  -11.6592   19.2386 N   0  0  0  0  0  0  0  0  0  0  0  0
  -29.2434  -20.6399   19.3285 N   0  0  0  0  0  0  0  0  0  0  0  0
  -20.7130  -26.0593   21.3905 N   0  0  0  0  0  0  0  0  0  0  0  0
  -23.1072  -20.2363   19.5477 N   0  0  0  0  0  0  0  0  0  0  0  0
  -24.4984  -19.6671   16.4780 N   0  3  0  0  0  0  0  0  0  0  0  0
  -30.6780  -12.2373   18.9806 O   0  0  0  0  0  0  0  0  0  0  0  0
  -22.7049  -25.2207   22.2573 O   0  0  0  0  0  0  0  0  0  0  0  0
  -21.0730  -22.2168   19.9325 O   0  0  0  0  0  0  0  0  0  0  0  0
  -25.4016  -20.3948   19.2514 O   0  0  0  0  0  0  0  0  0  0  0  0
  -30.2077  -21.8277   21.0723 O   0  0  0  0  0  0  0  0  0  0  0  0
  -23.0689  -11.8521   20.5742 O   0  0  0  0  0  0  0  0  0  0  0  0
  -28.4455  -26.3729   20.4126 O   0  0  0  0  0  0  0  0  0  1  0  0
  -30.3126  -24.9648   17.8702 O   0  0  0  0  0  0  0  0  0  0  0  0
  -22.8893   -6.6099   22.2744 F   0  0  0  0  0  0  0  0  0  0  0  0
  -21.5720  -11.1278   22.7827 F   0  0  0  0  0  0  0  0  0  0  0  0
  1  2  1  0  0  0  0
  1  5  2  0  0  0  0
  2  6  2  0  0  0  0
  3  8  2  0  0  0  0
  3 16  1  0  0  0  0
  4  9  1  0  0  0  0
  4 16  2  0  0  0  0
  5 18  1  0  0  0  0
  6 20  1  0  0  0  0
  7 10  2  0  0  0  0
  7 19  1  0  0  0  0
  8 24  1  0  0  0  0
  9 24  2  0  0  0  0
 10 25  1  0  0  0  0
 11 12  2  0  0  0  0
 11 26  1  0  0  0  0
 12 27  1  0  0  0  0
 13 21  1  0  0  0  0
 13 25  2  0  0  0  0
 14 22  2  0  0  0  0
 14 31  1  0  0  0  0
 15 27  2  0  0  0  0
 15 28  1  0  0  0  0
 16 29  1  0  0  0  0
 17 29  1  0  0  0  0
 17 32  2  0  0  0  0
 17 33  1  0  0  0  0
 18 20  2  0  0  0  0
 18 38  1  0  0  0  0
 19 21  2  0  0  0  0
 19 39  1  0  0  0  0
 20 50  1  0  0  0  0
 21 40  1  0  0  0  0
 22 23  1  0  0  0  0
 22 49  1  0  0  0  0
 23 30  2  0  0  0  0
 23 53  1  0  0  0  0
 24 81  1  0  0  0  0
 25 82  1  0  0  0  0
 26 28  2  0  0  0  0
 26 81  1  0  0  0  0
 27 84  1  0  0  0  0
 28 85  1  0  0  0  0
 29 65  2  0  0  0  0
 30 66  1  0  0  0  0
 30 72  1  0  0  0  0
 31 66  2  0  0  0  0
 31 83  1  0  0  0  0
 32 67  1  0  0  0  0
 32 70  1  0  0  0  0
 33 71  1  0  0  0  0
 33 76  2  0  0  0  0
 34 51  1  0  0  0  0
 34 73  1  0  0  0  0
 34 77  2  0  0  0  0
 35 62  1  0  0  0  0
 35 68  1  0  0  0  0
 35 78  2  0  0  0  0
 36 63  1  0  0  0  0
 36 74  1  0  0  0  0
 36 79  2  0  0  0  0
 37 69  1  0  0  0  0
 37 72  1  0  0  0  0
 37 80  2  0  0  0  0
 38 41  1  0  0  0  0
 39 51  1  0  0  0  0
 40 68  1  0  0  0  0
 41 45  1  0  0  0  0
 42 46  1  0  0  0  0
 42 47  1  0  0  0  0
 43 44  1  0  0  0  0
 43 49  1  0  0  0  0
 44 49  1  0  0  0  0
 45 50  1  0  0  0  0
 46 52  1  0  0  0  0
 47 69  1  0  0  0  0
 48 52  1  0  0  0  0
 48 69  1  0  0  0  0
 50 73  1  0  0  0  0
 51 68  1  0  0  0  0
 52 67  1  0  0  0  0
 54 63  1  0  0  0  0
 55 64  1  0  0  0  0
 56 64  1  0  0  0  0
 57 64  1  0  0  0  0
 58 75  1  0  0  0  0
 59 60  1  0  0  0  0
 59 61  1  0  0  0  0
 60 82  1  0  0  0  0
 61 83  1  0  0  0  0
 62 64  1  0  0  0  0
 62 74  1  0  0  0  0
 63 75  1  0  0  0  0
 65 67  1  0  0  0  0
M  CHG  1  75   1
M  ISO  4  37 100  60 101  72 100  82 101
M  END
> <Batch ID>
0151

> <Smiles>
CNC(C)C(=O)NC(C(=O)N1Cc2cc([101O:1][101CH2:1]CCOc3cc(C4CC4)c(C)c([100NH:0][100C:0](=O)N4CCCC(n5nc(-c6ccc(Oc7ccc(F)cc7F)cc6)c(C(N)=O)c5N)C4)n3)ccc2CC1C(=O)NC1CCCc2ccccc21)C(C)(C)C

> <Shape>
0.268

> <Color>
0.080

> <Negative vol penalty>
0.000

$$$$

  -OEChem-04052321433D

 89 98  0     1  0  0  0  0  0999 V2000
  -25.8214  -35.7578   22.1176 C   0  0  0  0  0  0  0  0  0  0  0  0
  -26.4178  -34.5047   22.0199 C   0  0  0  0  0  0  0  0  0  0  0  0
  -22.3705  -10.2401   22.0764 C   0  0  0  0  0  0  0  0  0  0  0  0
  -22.8827   -9.8499   19.7477 C   0  0  0  0  0  0  0  0  0  0  0  0
  -24.5574  -35.8840   22.6922 C   0  0  0  0  0  0  0  0  0  0  0  0
  -25.7509  -33.3772   22.4979 C   0  0  0  0  0  0  0  0  0  0  0  0
  -25.9941  -29.4693   19.2864 C   0  0  0  0  0  0  0  0  0  0  0  0
  -21.9307   -8.9223   22.2005 C   0  0  0  0  0  0  0  0  0  0  0  0
  -22.4429   -8.5320   19.8719 C   0  0  0  0  0  0  0  0  0  0  0  0
  -27.1841  -28.7435   19.2557 C   0  0  0  0  0  0  0  0  0  0  0  0
  -21.0103   -5.5572   23.2221 C   0  0  0  0  0  0  0  0  0  0  0  0
  -21.4272   -4.8371   24.3416 C   0  0  0  0  0  0  0  0  0  0  0  0
  -26.1824  -27.0534   20.6554 C   0  0  0  0  0  0  0  0  0  0  0  0
  -25.9763  -21.0612   18.1594 C   0  0  0  0  0  0  0  0  0  0  0  0
  -23.7304   -5.1364   23.6764 C   0  0  0  0  0  0  0  0  0  0  0  0
  -22.8465  -10.7040   20.8499 C   0  0  0  0  0  0  0  0  0  0  0  0
  -24.6063  -12.5492   20.9269 C   0  0  0  0  0  0  0  0  0  0  0  0
  -23.8705  -34.7562   23.1687 C   0  0  0  0  0  0  0  0  0  0  0  0
  -24.8909  -28.9971   20.0121 C   0  0  0  0  0  0  0  0  0  0  0  0
  -24.4771  -33.4887   23.0807 C   0  0  0  0  0  0  0  0  0  0  0  0
  -24.9787  -27.7738   20.6917 C   0  0  0  0  0  0  0  0  0  0  0  0
  -27.0840  -20.9212   17.3233 C   0  0  0  0  0  0  0  0  0  0  0  0
  -27.1934  -19.8071   16.4913 C   0  0  0  0  0  0  0  0  0  0  0  0
  -26.1951  -18.8328   16.4953 C   0  0  0  0  0  0  0  0  0  0  0  0
  -25.0874  -18.9728   17.3314 C   0  0  0  0  0  0  0  0  0  0  0  0
  -21.9669   -8.0682   21.0983 C   0  0  0  0  0  0  0  0  0  0  0  0
  -27.2793  -27.5368   19.9426 C   0  0  0  0  0  0  0  0  0  0  0  0
  -21.9535   -6.0668   22.3297 C   0  0  0  0  0  0  0  0  0  0  0  0
  -24.9780  -20.0869   18.1635 C   0  0  0  0  0  0  0  0  0  0  0  0
  -22.7872   -4.6267   24.5688 C   0  0  0  0  0  0  0  0  0  0  0  0
  -23.3135   -5.8564   22.5569 C   0  0  0  0  0  0  0  0  0  0  0  0
  -23.3004  -12.0654   20.7209 C   0  0  0  0  0  0  0  0  0  0  0  0
  -24.5159  -13.8973   20.6802 C   0  0  0  0  0  0  0  0  0  0  0  0
  -25.7948  -11.8431   21.3071 C   0  0  0  0  0  0  0  0  0  0  0  0
  -23.2075  -30.0701   22.4856 C   0  0  0  0  0  0  0  0  0  0  0  0
  -21.3361  -27.5038   21.8262 C   0  0  0  0  0  0  0  0  0  0  0  0
  -21.0608  -24.4001   20.4341 C   0  0  0  0  0  0  0  0  0  0  0  0
  -22.7134  -18.1767   17.6075 C   0  0  0  0  0  0  0  0  0  0  0  0
  -22.5262  -34.9486   23.8249 C   0  0  0  0  0  0  0  0  0  0  0  0
  -23.6058  -29.7787   20.0133 C   0  0  0  0  0  0  0  0  0  0  0  0
  -23.8167  -27.2132   21.4688 C   0  0  0  0  0  0  0  0  0  0  0  0
  -21.7273  -33.6556   23.9671 C   0  0  0  0  0  0  0  0  0  0  0  0
  -20.4653  -16.8638   20.0365 C   0  0  0  0  0  0  0  0  0  0  0  0
  -22.6106  -32.5400   24.5167 C   0  0  0  0  0  0  0  0  0  0  0  0
  -21.1099  -15.5382   20.4480 C   0  0  0  0  0  0  0  0  0  0  0  0
  -27.5414  -23.3301   16.9048 C   0  0  0  0  0  0  0  0  0  0  0  0
  -28.7657  -22.0900   18.7351 C   0  0  0  0  0  0  0  0  0  0  0  0
  -20.6555  -17.1489   18.5477 C   0  0  0  0  0  0  0  0  0  0  0  0
  -22.6894  -15.7600   18.4876 C   0  0  0  0  0  0  0  0  0  0  0  0
  -28.5720  -24.4489   16.9868 C   0  0  0  0  0  0  0  0  0  0  0  0
  -29.7872  -23.2181   18.8028 C   0  0  0  0  0  0  0  0  0  0  0  0
  -28.1383  -21.9807   17.3360 C   0  0  0  0  0  0  0  0  0  0  0  0
  -23.7749  -32.2388   23.5652 C   0  0  1  0  0  0  0  0  0  0  0  0
  -22.7117  -29.4566   21.2067 C   0  0  1  0  0  0  0  0  0  0  0  0
  -22.5801  -15.4608   19.9917 C   0  0  2  0  0  0  0  0  0  0  0  0
  -28.3821  -19.6609   15.5946 C   0  0  0  0  0  0  0  0  0  0  0  0
  -26.3138  -17.6402   15.5980 C   0  0  0  0  0  0  0  0  0  0  0  0
  -19.4170  -22.5363   20.0853 C   0  0  0  0  0  0  0  0  0  0  0  0
  -21.6604  -26.6749   24.7447 C   0  0  0  0  0  0  0  0  0  0  0  0
  -20.8344  -24.3964   24.1168 C   0  0  0  0  0  0  0  0  0  0  0  0
  -19.3524  -26.3820   23.8273 C   0  0  0  0  0  0  0  0  0  0  0  0
  -21.2540  -24.6251   17.4894 C   0  0  0  0  0  0  0  0  0  0  0  0
  -24.0092  -19.6937   20.2995 C   0  0  0  0  0  0  0  0  0  0  0  0
  -30.0628  -25.6836   18.5577 C   0  0  0  0  0  0  0  0  0  0  0  0
  -29.2475  -26.9479   18.7446 C   0  0  0  0  0  0  0  0  0  1  0  0
  -21.3112  -26.0587   22.2619 C   0  0  1  0  0  0  0  0  0  0  0  0
  -20.0227  -23.8030   19.5012 C   0  0  2  0  0  0  0  0  0  0  0  0
  -20.8123  -25.8892   23.7247 C   0  0  0  0  0  0  0  0  0  0  0  0
  -22.4432  -13.0279   20.3706 N   0  0  0  0  0  0  0  0  0  0  0  0
  -23.2121  -14.1300   20.3545 N   0  0  0  0  0  0  0  0  0  0  0  0
  -22.5838  -28.0175   21.4450 N   0  0  0  0  0  0  0  0  0  0  0  0
  -22.0728  -17.0621   18.1892 N   0  0  0  0  0  0  0  0  0  0  0  0
  -25.4252  -14.8945   20.7123 N   0  0  0  0  0  0  0  0  0  0  0  0
  -25.7110  -10.4605   21.5211 N   0  0  0  0  0  0  0  0  0  0  0  0
  -24.0688  -17.9879   17.3398 N   0  0  0  0  0  0  0  0  0  0  0  0
  -23.3186  -31.4468   22.4432 N   0  0  0  0  0  0  0  0  0  0  0  0
  -20.5104  -25.3474   21.2713 N   0  0  0  0  0  0  0  0  0  0  0  0
  -29.1449  -24.5289   18.3893 N   0  3  0  0  0  0  0  0  0  0  0  0
  -20.6399  -23.4662   18.1872 N   0  3  0  0  0  0  0  0  0  0  0  0
  -26.8949  -12.4237   21.4687 O   0  0  0  0  0  0  0  0  0  0  0  0
  -23.4683  -29.3480   23.4407 O   0  0  0  0  0  0  0  0  0  0  0  0
  -20.2860  -28.1510   21.8174 O   0  0  0  0  0  0  0  0  0  0  0  0
  -22.2411  -24.0575   20.4239 O   0  0  0  0  0  0  0  0  0  0  0  0
  -22.1108  -19.2309   17.3899 O   0  0  0  0  0  0  0  0  0  0  0  0
  -21.5380   -6.7821   21.2191 O   0  0  0  0  0  0  0  0  0  0  0  0
  -23.9045  -20.2448   18.9886 O   0  0  0  0  0  0  0  0  0  0  0  0
  -28.4398  -26.8267   19.9148 O   0  0  0  0  0  0  0  0  0  1  0  0
  -23.1875   -3.9366   25.6448 F   0  0  0  0  0  0  0  0  0  0  0  0
  -24.2244   -6.3446   21.7037 F   0  0  0  0  0  0  0  0  0  0  0  0
  1  2  1  0  0  0  0
  1  5  2  0  0  0  0
  2  6  2  0  0  0  0
  3  8  2  0  0  0  0
  3 16  1  0  0  0  0
  4  9  1  0  0  0  0
  4 16  2  0  0  0  0
  5 18  1  0  0  0  0
  6 20  1  0  0  0  0
  7 10  2  0  0  0  0
  7 19  1  0  0  0  0
  8 26  1  0  0  0  0
  9 26  2  0  0  0  0
 10 27  1  0  0  0  0
 11 12  2  0  0  0  0
 11 28  1  0  0  0  0
 12 30  1  0  0  0  0
 13 21  1  0  0  0  0
 13 27  2  0  0  0  0
 14 22  1  0  0  0  0
 14 29  2  0  0  0  0
 15 30  2  0  0  0  0
 15 31  1  0  0  0  0
 16 32  1  0  0  0  0
 17 32  1  0  0  0  0
 17 33  2  0  0  0  0
 17 34  1  0  0  0  0
 18 20  2  0  0  0  0
 18 39  1  0  0  0  0
 19 21  2  0  0  0  0
 19 40  1  0  0  0  0
 20 53  1  0  0  0  0
 21 41  1  0  0  0  0
 22 23  2  0  0  0  0
 22 52  1  0  0  0  0
 23 24  1  0  0  0  0
 23 56  1  0  0  0  0
 24 25  2  0  0  0  0
 24 57  1  0  0  0  0
 25 29  1  0  0  0  0
 25 75  1  0  0  0  0
 26 85  1  0  0  0  0
 27 87  1  0  0  0  0
 28 31  2  0  0  0  0
 28 85  1  0  0  0  0
 29 86  1  0  0  0  0
 30 88  1  0  0  0  0
 31 89  1  0  0  0  0
 32 69  2  0  0  0  0
 33 70  1  0  0  0  0
 33 73  1  0  0  0  0
 34 74  1  0  0  0  0
 34 80  2  0  0  0  0
 35 54  1  0  0  0  0
 35 76  1  0  0  0  0
 35 81  2  0  0  0  0
 36 66  1  0  0  0  0
 36 71  1  0  0  0  0
 36 82  2  0  0  0  0
 37 67  1  0  0  0  0
 37 77  1  0  0  0  0
 37 83  2  0  0  0  0
 38 72  1  0  0  0  0
 38 75  1  0  0  0  0
 38 84  2  0  0  0  0
 39 42  1  0  0  0  0
 40 54  1  0  0  0  0
 41 71  1  0  0  0  0
 42 44  1  0  0  0  0
 43 45  1  0  0  0  0
 43 48  1  0  0  0  0
 44 53  1  0  0  0  0
 45 55  1  0  0  0  0
 46 50  1  0  0  0  0
 46 52  1  0  0  0  0
 47 51  1  0  0  0  0
 47 52  1  0  0  0  0
 48 72  1  0  0  0  0
 49 55  1  0  0  0  0
 49 72  1  0  0  0  0
 50 78  1  0  0  0  0
 51 78  1  0  0  0  0
 53 76  1  0  0  0  0
 54 71  1  0  0  0  0
 55 70  1  0  0  0  0
 58 67  1  0  0  0  0
 59 68  1  0  0  0  0
 60 68  1  0  0  0  0
 61 68  1  0  0  0  0
 62 79  1  0  0  0  0
 63 86  1  0  0  0  0
 64 65  1  0  0  0  0
 64 78  1  0  0  0  0
 65 87  1  0  0  0  0
 66 68  1  0  0  0  0
 66 77  1  0  0  0  0
 67 79  1  0  0  0  0
 69 70  1  0  0  0  0
M  CHG  2  78   1  79   1
M  ISO  4  38 100  65 101  75 100  87 101
M  END
> <Batch ID>
0151

> <Smiles>
CNC(C)C(=O)NC(C(=O)N1Cc2cc([101O:1][101CH2:1]CN3CCC(c4cc(OC)c([100NH:0][100C:0](=O)N5CCCC(n6nc(-c7ccc(Oc8ccc(F)cc8F)cc7)c(C(N)=O)c6N)C5)c(C)c4C)CC3)ccc2CC1C(=O)NC1CCCc2ccccc21)C(C)(C)C

> <Shape>
0.252

> <Color>
0.129

> <Negative vol penalty>
0.000

$$$$

  -OEChem-04052321433D

 89 98  0     1  0  0  0  0  0999 V2000
  -28.3310  -32.6061   24.2103 C   0  0  0  0  0  0  0  0  0  0  0  0
  -28.8281  -31.3195   24.3915 C   0  0  0  0  0  0  0  0  0  0  0  0
  -22.8468  -10.0190   20.0634 C   0  0  0  0  0  0  0  0  0  0  0  0
  -24.2435   -9.4730   21.9576 C   0  0  0  0  0  0  0  0  0  0  0  0
  -27.5705  -32.9058   23.0808 C   0  0  0  0  0  0  0  0  0  0  0  0
  -28.5641  -30.3314   23.4437 C   0  0  0  0  0  0  0  0  0  0  0  0
  -32.2768  -25.7625   21.7565 C   0  0  0  0  0  0  0  0  0  0  0  0
  -22.1354   -8.8333   20.2461 C   0  0  0  0  0  0  0  0  0  0  0  0
  -23.5321   -8.2872   22.1404 C   0  0  0  0  0  0  0  0  0  0  0  0
  -32.3406  -24.4201   22.1275 C   0  0  0  0  0  0  0  0  0  0  0  0
  -20.5770   -7.3382   23.4773 C   0  0  0  0  0  0  0  0  0  0  0  0
  -20.1950   -7.0072   24.7773 C   0  0  0  0  0  0  0  0  0  0  0  0
  -31.0309  -23.8285   20.1900 C   0  0  0  0  0  0  0  0  0  0  0  0
  -33.0136  -19.4939   22.1406 C   0  0  0  0  0  0  0  0  0  0  0  0
  -31.9085  -19.8105   24.2656 C   0  0  0  0  0  0  0  0  0  0  0  0
  -21.4689   -4.9596   24.6302 C   0  0  0  0  0  0  0  0  0  0  0  0
  -23.9010  -10.3389   20.9191 C   0  0  0  0  0  0  0  0  0  0  0  0
  -24.1276  -12.8753   20.7687 C   0  0  0  0  0  0  0  0  0  0  0  0
  -27.3051  -31.9233   22.1139 C   0  0  0  0  0  0  0  0  0  0  0  0
  -31.5791  -26.1498   20.6034 C   0  0  0  0  0  0  0  0  0  0  0  0
  -27.7982  -30.6178   22.3009 C   0  0  0  0  0  0  0  0  0  0  0  0
  -30.9619  -25.1762   19.8051 C   0  0  0  0  0  0  0  0  0  0  0  0
  -32.4265  -17.5805   23.4938 C   0  0  0  0  0  0  0  0  0  0  0  0
  -32.4725  -20.3428   23.1062 C   0  0  0  0  0  0  0  0  0  0  0  0
  -32.9905  -18.1127   22.3344 C   0  0  0  0  0  0  0  0  0  0  0  0
  -22.4780   -7.9673   21.2846 C   0  0  0  0  0  0  0  0  0  0  0  0
  -31.7152  -23.4532   21.3458 C   0  0  0  0  0  0  0  0  0  0  0  0
  -21.4049   -6.4799   22.7536 C   0  0  0  0  0  0  0  0  0  0  0  0
  -31.8854  -18.4293   24.4594 C   0  0  0  0  0  0  0  0  0  0  0  0
  -20.6410   -5.8179   25.3538 C   0  0  0  0  0  0  0  0  0  0  0  0
  -21.8509   -5.2906   23.3301 C   0  0  0  0  0  0  0  0  0  0  0  0
  -24.6366  -11.5634   20.7305 C   0  0  0  0  0  0  0  0  0  0  0  0
  -25.2196  -13.6742   20.5324 C   0  0  0  0  0  0  0  0  0  0  0  0
  -22.7876  -13.3311   20.9973 C   0  0  0  0  0  0  0  0  0  0  0  0
  -29.0595  -27.9980   20.0208 C   0  0  0  0  0  0  0  0  0  0  0  0
  -29.8531  -27.4367   16.9260 C   0  0  0  0  0  0  0  0  0  0  0  0
  -31.4010  -25.4161   14.6527 C   0  0  0  0  0  0  0  0  0  0  0  0
  -31.0983  -12.8932   21.3584 C   0  0  0  0  0  0  0  0  0  0  0  0
  -26.4385  -32.2824   20.9329 C   0  0  0  0  0  0  0  0  0  0  0  0
  -31.5422  -27.5990   20.2023 C   0  0  0  0  0  0  0  0  0  0  0  0
  -30.2174  -25.5378   18.5467 C   0  0  0  0  0  0  0  0  0  0  0  0
  -26.5191  -31.2744   19.7894 C   0  0  0  0  0  0  0  0  0  0  0  0
  -29.4506  -13.6681   18.2987 C   0  0  0  0  0  0  0  0  0  0  0  0
  -26.4026  -29.8504   20.3237 C   0  0  0  0  0  0  0  0  0  0  0  0
  -27.9841  -13.3349   18.5785 C   0  0  0  0  0  0  0  0  0  0  0  0
  -30.9744  -15.5195   23.8379 C   0  0  0  0  0  0  0  0  0  0  0  0
  -32.1927  -14.6367   25.6962 C   0  0  0  0  0  0  0  0  0  0  0  0
  -30.3942  -12.6880   18.9922 C   0  0  0  0  0  0  0  0  0  0  0  0
  -28.7073  -12.2040   20.7224 C   0  0  0  0  0  0  0  0  0  0  0  0
  -32.3996  -16.0828   23.7096 C   0  0  2  0  0  0  0  0  0  0  0  0
  -27.5541  -29.5251   21.2828 C   0  0  1  0  0  0  0  0  0  0  0  0
  -30.3692  -27.9360   19.2870 C   0  0  1  0  0  0  0  0  0  0  0  0
  -27.7186  -13.1982   20.0898 C   0  0  2  0  0  0  0  0  0  0  0  0
  -33.1331  -15.6175   24.9859 C   0  0  2  0  0  0  0  0  0  0  0  0
  -31.1424  -14.2258   24.6493 C   0  0  1  0  0  0  0  0  0  0  0  0
  -33.5751  -17.2252   21.2848 C   0  0  0  0  0  0  0  0  0  0  0  0
  -29.8262  -13.8076   25.3113 C   0  0  0  0  0  0  0  0  0  0  0  0
  -31.8482  -25.1991   12.1930 C   0  0  0  0  0  0  0  0  0  0  0  0
  -26.9793  -26.5101   16.4877 C   0  0  0  0  0  0  0  0  0  0  0  0
  -27.7238  -25.4406   14.3500 C   0  0  0  0  0  0  0  0  0  0  0  0
  -27.9170  -27.9106   14.6402 C   0  0  0  0  0  0  0  0  0  0  0  0
  -34.3299  -25.5499   15.0555 C   0  0  0  0  0  0  0  0  0  0  0  0
  -30.8023  -18.8684   26.5306 C   0  0  0  0  0  0  0  0  0  0  0  0
  -32.4963  -21.8284   22.8969 C   0  0  0  0  0  0  0  0  0  1  0  0
  -31.6488  -13.0692   23.7719 C   0  0  0  0  0  0  0  0  0  0  0  0
  -29.4910  -26.3874   15.9029 C   0  0  1  0  0  0  0  0  0  0  0  0
  -32.3659  -25.7257   13.5224 C   0  0  2  0  0  0  0  0  0  0  0  0
  -28.0401  -26.5553   15.3699 C   0  0  0  0  0  0  0  0  0  0  0  0
  -25.9497  -11.5265   20.4889 N   0  0  0  0  0  0  0  0  0  0  0  0
  -26.2751  -12.8253   20.3730 N   0  0  0  0  0  0  0  0  0  0  0  0
  -30.2043  -26.9686   18.2001 N   0  0  0  0  0  0  0  0  0  0  0  0
  -30.0906  -12.6059   20.4229 N   0  0  0  0  0  0  0  0  0  0  0  0
  -25.3703  -15.0131   20.4475 N   0  0  0  0  0  0  0  0  0  0  0  0
  -22.3873  -13.5953   22.3142 N   0  0  0  0  0  0  0  0  0  0  0  0
  -28.7648  -29.2435   20.5417 N   0  0  0  0  0  0  0  0  0  0  0  0
  -30.5186  -26.4533   14.8694 N   0  0  0  0  0  0  0  0  0  0  0  0
  -30.7248  -12.7978   22.6933 N   0  0  0  0  0  0  0  0  0  0  0  0
  -33.6934  -25.1034   13.7896 N   0  3  0  0  0  0  0  0  0  0  0  0
  -21.9644  -13.4835   20.0631 O   0  0  0  0  0  0  0  0  0  0  0  0
  -28.3668  -26.9908   20.1067 O   0  0  0  0  0  0  0  0  0  0  0  0
  -29.8323  -28.6275   16.6045 O   0  0  0  0  0  0  0  0  0  0  0  0
  -31.4250  -24.3584   15.2782 O   0  0  0  0  0  0  0  0  0  0  0  0
  -32.2444  -13.2163   21.0282 O   0  0  0  0  0  0  0  0  0  0  0  0
  -34.3388  -14.9454   24.6336 O   0  0  0  0  0  0  0  0  0  0  0  0
  -21.7838   -6.8103   21.4633 O   0  0  0  0  0  0  0  0  0  0  0  0
  -31.3313  -17.9275   25.5985 O   0  0  0  0  0  0  0  0  0  0  0  0
  -31.7754  -22.1422   21.7060 O   0  0  0  0  0  0  0  0  0  1  0  0
  -20.2754   -5.5009   26.6028 F   0  0  0  0  0  0  0  0  0  0  0  0
  -22.6474   -4.4626   22.6403 F   0  0  0  0  0  0  0  0  0  0  0  0
  1  2  1  0  0  0  0
  1  5  2  0  0  0  0
  2  6  2  0  0  0  0
  3  8  2  0  0  0  0
  3 17  1  0  0  0  0
  4  9  1  0  0  0  0
  4 17  2  0  0  0  0
  5 19  1  0  0  0  0
  6 21  1  0  0  0  0
  7 10  2  0  0  0  0
  7 20  1  0  0  0  0
  8 26  1  0  0  0  0
  9 26  2  0  0  0  0
 10 27  1  0  0  0  0
 11 12  2  0  0  0  0
 11 28  1  0  0  0  0
 12 30  1  0  0  0  0
 13 22  1  0  0  0  0
 13 27  2  0  0  0  0
 14 24  1  0  0  0  0
 14 25  2  0  0  0  0
 15 24  2  0  0  0  0
 15 29  1  0  0  0  0
 16 30  2  0  0  0  0
 16 31  1  0  0  0  0
 17 32  1  0  0  0  0
 18 32  1  0  0  0  0
 18 33  2  0  0  0  0
 18 34  1  0  0  0  0
 19 21  2  0  0  0  0
 19 39  1  0  0  0  0
 20 22  2  0  0  0  0
 20 40  1  0  0  0  0
 21 51  1  0  0  0  0
 22 41  1  0  0  0  0
 23 25  1  0  0  0  0
 23 29  2  0  0  0  0
 23 50  1  0  0  0  0
 24 64  1  0  0  0  0
 25 56  1  0  0  0  0
 26 85  1  0  0  0  0
 27 87  1  0  0  0  0
 28 31  2  0  0  0  0
 28 85  1  0  0  0  0
 29 86  1  0  0  0  0
 30 88  1  0  0  0  0
 31 89  1  0  0  0  0
 32 69  2  0  0  0  0
 33 70  1  0  0  0  0
 33 73  1  0  0  0  0
 34 74  1  0  0  0  0
 34 79  2  0  0  0  0
 35 52  1  0  0  0  0
 35 75  1  0  0  0  0
 35 80  2  0  0  0  0
 36 66  1  0  0  0  0
 36 71  1  0  0  0  0
 36 81  2  0  0  0  0
 37 67  1  0  0  0  0
 37 76  1  0  0  0  0
 37 82  2  0  0  0  0
 38 72  1  0  0  0  0
 38 77  1  0  0  0  0
 38 83  2  0  0  0  0
 39 42  1  0  0  0  0
 40 52  1  0  0  0  0
 41 71  1  0  0  0  0
 42 44  1  0  0  0  0
 43 45  1  0  0  0  0
 43 48  1  0  0  0  0
 44 51  1  0  0  0  0
 45 53  1  0  0  0  0
 46 50  1  0  0  0  0
 46 55  1  0  0  0  0
 47 54  1  0  0  0  0
 47 55  1  0  0  0  0
 48 72  1  0  0  0  0
 49 53  1  0  0  0  0
 49 72  1  0  0  0  0
 50 54  1  0  0  0  0
 51 75  1  0  0  0  0
 52 71  1  0  0  0  0
 53 70  1  0  0  0  0
 54 84  1  0  0  0  0
 55 57  1  0  0  0  0
 55 65  1  0  0  0  0
 58 67  1  0  0  0  0
 59 68  1  0  0  0  0
 60 68  1  0  0  0  0
 61 68  1  0  0  0  0
 62 78  1  0  0  0  0
 63 86  1  0  0  0  0
 64 87  1  0  0  0  0
 65 77  1  0  0  0  0
 66 68  1  0  0  0  0
 66 76  1  0  0  0  0
 67 78  1  0  0  0  0
 69 70  1  0  0  0  0
M  CHG  1  78   1
M  ISO  4  38 100  64 101  77 100  87 101
M  END
> <Batch ID>
0151

> <Smiles>
CNC(C)C(=O)NC(C(=O)N1Cc2cc([101O:1][101CH2:1]c3cc(C)c(C4CC(C)(C[100NH:0][100C:0](=O)N5CCCC(n6nc(-c7ccc(Oc8ccc(F)cc8F)cc7)c(C(N)=O)c6N)C5)CC4O)c(OC)c3)ccc2CC1C(=O)NC1CCCc2ccccc21)C(C)(C)C

> <Shape>
0.250

> <Color>
0.174

> <Negative vol penalty>
0.000

$$$$

  -OEChem-04052321433D

 90 99  0     1  0  0  0  0  0999 V2000
  -34.6310  -14.4159   19.0325 C   0  0  0  0  0  0  0  0  0  0  0  0
  -33.5621  -15.1729   18.5635 C   0  0  0  0  0  0  0  0  0  0  0  0
  -28.4369  -28.5570   19.8844 C   0  0  0  0  0  0  0  0  0  0  0  0
  -27.2278  -26.5983   20.6181 C   0  0  0  0  0  0  0  0  0  0  0  0
  -34.4615  -13.0559   19.2881 C   0  0  0  0  0  0  0  0  0  0  0  0
  -32.3232  -14.5698   18.3488 C   0  0  0  0  0  0  0  0  0  0  0  0
  -28.4797  -17.3326   20.1486 C   0  0  0  0  0  0  0  0  0  0  0  0
  -29.5080  -27.7513   19.4984 C   0  0  0  0  0  0  0  0  0  0  0  0
  -28.2989  -25.7925   20.2320 C   0  0  0  0  0  0  0  0  0  0  0  0
  -28.0709  -18.4268   19.3874 C   0  0  0  0  0  0  0  0  0  0  0  0
  -30.5691  -23.1848   19.1075 C   0  0  0  0  0  0  0  0  0  0  0  0
  -30.2817  -22.0187   18.3981 C   0  0  0  0  0  0  0  0  0  0  0  0
  -26.2391  -17.1248   18.5108 C   0  0  0  0  0  0  0  0  0  0  0  0
  -25.4461  -23.6970   22.4423 C   0  0  0  0  0  0  0  0  0  0  0  0
  -23.7152  -25.2188   21.7176 C   0  0  0  0  0  0  0  0  0  0  0  0
  -29.2505  -23.3343   16.6536 C   0  0  0  0  0  0  0  0  0  0  0  0
  -27.2968  -27.9805   20.4444 C   0  0  0  0  0  0  0  0  0  0  0  0
  -25.0885  -29.1974   20.0567 C   0  0  0  0  0  0  0  0  0  0  0  0
  -33.2174  -12.4379   19.0856 C   0  0  0  0  0  0  0  0  0  0  0  0
  -27.7765  -16.1209   20.0882 C   0  0  0  0  0  0  0  0  0  0  0  0
  -32.1373  -13.1999   18.6007 C   0  0  0  0  0  0  0  0  0  0  0  0
  -26.6395  -16.0175   19.2741 C   0  0  0  0  0  0  0  0  0  0  0  0
  -25.5184  -23.1659   21.1545 C   0  0  0  0  0  0  0  0  0  0  0  0
  -23.7875  -24.6878   20.4298 C   0  0  0  0  0  0  0  0  0  0  0  0
  -24.6891  -23.6613   20.1483 C   0  0  0  0  0  0  0  0  0  0  0  0
  -24.5445  -24.7234   22.7238 C   0  0  0  0  0  0  0  0  0  0  0  0
  -29.4390  -26.3690   19.6721 C   0  0  0  0  0  0  0  0  0  0  0  0
  -26.9521  -18.3221   18.5661 C   0  0  0  0  0  0  0  0  0  0  0  0
  -30.1972  -24.4256   18.5901 C   0  0  0  0  0  0  0  0  0  0  0  0
  -29.6224  -22.0935   17.1712 C   0  0  0  0  0  0  0  0  0  0  0  0
  -29.5379  -24.5004   17.3631 C   0  0  0  0  0  0  0  0  0  0  0  0
  -26.1903  -28.8124   20.8439 C   0  0  0  0  0  0  0  0  0  0  0  0
  -24.3269  -29.9789   20.8908 C   0  0  0  0  0  0  0  0  0  0  0  0
  -24.7810  -28.8771   18.6934 C   0  0  0  0  0  0  0  0  0  0  0  0
  -28.4908  -13.1549   19.1958 C   0  0  0  0  0  0  0  0  0  0  0  0
  -25.5180  -12.5152   20.3250 C   0  0  0  0  0  0  0  0  0  0  0  0
  -22.3928  -13.6653   21.0716 C   0  0  0  0  0  0  0  0  0  0  0  0
  -25.8436  -28.1924   25.7377 C   0  0  0  0  0  0  0  0  0  0  0  0
  -33.0951  -10.9548   19.3309 C   0  0  0  0  0  0  0  0  0  0  0  0
  -28.2146  -14.9582   20.9358 C   0  0  0  0  0  0  0  0  0  0  0  0
  -25.8380  -14.7452   19.1891 C   0  0  0  0  0  0  0  0  0  0  0  0
  -31.6507  -10.4716   19.4340 C   0  0  0  0  0  0  0  0  0  0  0  0
  -26.7846  -31.3868   24.4425 C   0  0  0  0  0  0  0  0  0  0  0  0
  -23.1760  -26.5165   27.5335 C   0  0  0  0  0  0  0  0  0  0  0  0
  -30.8103  -11.0560   18.3031 C   0  0  0  0  0  0  0  0  0  0  0  0
  -25.5540  -31.8814   23.6905 C   0  0  0  0  0  0  0  0  0  0  0  0
  -23.8075  -25.3057   26.8610 C   0  0  0  0  0  0  0  0  0  0  0  0
  -26.3770  -30.6020   25.6798 C   0  0  0  0  0  0  0  0  0  0  0  0
  -23.4995  -27.6420   26.5632 C   0  0  0  0  0  0  0  0  0  0  0  0
  -24.2881  -29.8369   24.5675 C   0  0  0  0  0  0  0  0  0  0  0  0
  -30.7715  -12.5871   18.3790 C   0  0  1  0  0  0  0  0  0  0  0  0
  -27.7261  -13.6140   20.4049 C   0  0  1  0  0  0  0  0  0  0  0  0
  -24.5754  -30.7460   23.3502 C   0  0  2  0  0  0  0  0  0  0  0  0
  -25.0991  -25.8698   26.2626 C   0  0  1  0  0  0  0  0  0  0  0  0
  -26.4920  -22.0669   20.8794 C   0  0  0  0  0  0  0  0  0  0  0  0
  -22.8885  -25.2358   19.3701 C   0  0  0  0  0  0  0  0  0  0  0  0
  -25.7978  -23.7959   17.8799 C   0  0  0  0  0  0  0  0  0  0  0  0
  -20.1680  -12.8991   21.9437 C   0  0  0  0  0  0  0  0  0  0  0  0
  -24.9056  -11.2296   17.6264 C   0  0  0  0  0  0  0  0  0  0  0  0
  -22.4715  -11.3498   18.2000 C   0  0  0  0  0  0  0  0  0  0  0  0
  -24.0155   -9.9817   19.6025 C   0  0  0  0  0  0  0  0  0  0  0  0
  -22.5479  -15.4862   23.3995 C   0  0  0  0  0  0  0  0  0  0  0  0
  -25.5038  -25.1376   24.9896 C   0  0  0  0  0  0  0  0  0  0  0  0
  -24.7635  -20.9614   17.4632 C   0  0  0  0  0  0  0  0  0  0  0  0
  -25.1575  -19.4997   17.5421 C   0  0  0  0  0  0  0  0  0  1  0  0
  -24.7659  -23.0915   18.7676 C   0  0  1  0  0  0  0  0  0  0  0  0
  -24.1291  -12.5040   19.7334 C   0  0  1  0  0  0  0  0  0  0  0  0
  -21.5225  -13.4900   22.3029 C   0  0  2  0  0  0  0  0  0  0  0  0
  -23.8964  -11.2898   18.7905 C   0  0  0  0  0  0  0  0  0  0  0  0
  -26.1373  -29.3086   22.0829 N   0  0  0  0  0  0  0  0  0  0  0  0
  -24.9930  -30.0135   22.0805 N   0  0  0  0  0  0  0  0  0  0  0  0
  -26.3101  -13.6344   20.0322 N   0  0  0  0  0  0  0  0  0  0  0  0
  -25.4815  -29.4920   25.3535 N   0  0  0  0  0  0  0  0  0  0  0  0
  -24.8171  -27.2916   26.0305 N   0  0  0  0  0  0  0  0  0  0  0  0
  -23.1592  -30.6331   20.7153 N   0  0  0  0  0  0  0  0  0  0  0  0
  -25.6713  -28.0618   17.9815 N   0  0  0  0  0  0  0  0  0  0  0  0
  -24.4726  -25.2552   24.0125 N   0  0  0  0  0  0  0  0  0  0  0  0
  -29.8495  -13.0189   19.4076 N   0  0  0  0  0  0  0  0  0  0  0  0
  -23.2049  -12.5712   20.8601 N   0  0  0  0  0  0  0  0  0  0  0  0
  -21.3000  -14.8034   22.9712 N   0  3  0  0  0  0  0  0  0  0  0  0
  -25.0824  -21.6238   18.7489 N   0  3  0  0  0  0  0  0  0  0  0  0
  -23.7556  -29.3149   18.1185 O   0  0  0  0  0  0  0  0  0  0  0  0
  -27.8923  -12.9386   18.1485 O   0  0  0  0  0  0  0  0  0  0  0  0
  -25.8839  -11.5693   21.0271 O   0  0  0  0  0  0  0  0  0  0  0  0
  -22.3533  -14.6706   20.3656 O   0  0  0  0  0  0  0  0  0  0  0  0
  -27.0315  -27.8542   25.8252 O   0  0  0  0  0  0  0  0  0  0  0  0
  -30.4839  -25.5824   19.2952 O   0  0  0  0  0  0  0  0  0  0  0  0
  -26.5484  -19.3960   17.8163 O   0  0  0  0  0  0  0  0  0  1  0  0
  -29.3478  -20.9738   16.4893 F   0  0  0  0  0  0  0  0  0  0  0  0
  -29.1791  -25.6896   16.8604 F   0  0  0  0  0  0  0  0  0  0  0  0
  1  2  1  0  0  0  0
  1  5  2  0  0  0  0
  2  6  2  0  0  0  0
  3  8  2  0  0  0  0
  3 17  1  0  0  0  0
  4  9  1  0  0  0  0
  4 17  2  0  0  0  0
  5 19  1  0  0  0  0
  6 21  1  0  0  0  0
  7 10  2  0  0  0  0
  7 20  1  0  0  0  0
  8 27  1  0  0  0  0
  9 27  2  0  0  0  0
 10 28  1  0  0  0  0
 11 12  2  0  0  0  0
 11 29  1  0  0  0  0
 12 30  1  0  0  0  0
 13 22  1  0  0  0  0
 13 28  2  0  0  0  0
 14 23  2  0  0  0  0
 14 26  1  0  0  0  0
 15 24  1  0  0  0  0
 15 26  2  0  0  0  0
 16 30  2  0  0  0  0
 16 31  1  0  0  0  0
 17 32  1  0  0  0  0
 18 32  1  0  0  0  0
 18 33  2  0  0  0  0
 18 34  1  0  0  0  0
 19 21  2  0  0  0  0
 19 39  1  0  0  0  0
 20 22  2  0  0  0  0
 20 40  1  0  0  0  0
 21 51  1  0  0  0  0
 22 41  1  0  0  0  0
 23 25  1  0  0  0  0
 23 55  1  0  0  0  0
 24 25  2  0  0  0  0
 24 56  1  0  0  0  0
 25 66  1  0  0  0  0
 26 77  1  0  0  0  0
 27 87  1  0  0  0  0
 28 88  1  0  0  0  0
 29 31  2  0  0  0  0
 29 87  1  0  0  0  0
 30 89  1  0  0  0  0
 31 90  1  0  0  0  0
 32 70  2  0  0  0  0
 33 71  1  0  0  0  0
 33 75  1  0  0  0  0
 34 76  1  0  0  0  0
 34 82  2  0  0  0  0
 35 52  1  0  0  0  0
 35 78  1  0  0  0  0
 35 83  2  0  0  0  0
 36 67  1  0  0  0  0
 36 72  1  0  0  0  0
 36 84  2  0  0  0  0
 37 68  1  0  0  0  0
 37 79  1  0  0  0  0
 37 85  2  0  0  0  0
 38 73  1  0  0  0  0
 38 74  1  0  0  0  0
 38 86  2  0  0  0  0
 39 42  1  0  0  0  0
 40 52  1  0  0  0  0
 41 72  1  0  0  0  0
 42 45  1  0  0  0  0
 43 46  1  0  0  0  0
 43 48  1  0  0  0  0
 44 47  1  0  0  0  0
 44 49  1  0  0  0  0
 45 51  1  0  0  0  0
 46 53  1  0  0  0  0
 47 54  1  0  0  0  0
 48 73  1  0  0  0  0
 49 74  1  0  0  0  0
 50 53  1  0  0  0  0
 50 73  1  0  0  0  0
 51 78  1  0  0  0  0
 52 72  1  0  0  0  0
 53 71  1  0  0  0  0
 54 63  1  0  0  0  0
 54 74  1  0  0  0  0
 57 66  1  0  0  0  0
 58 68  1  0  0  0  0
 59 69  1  0  0  0  0
 60 69  1  0  0  0  0
 61 69  1  0  0  0  0
 62 80  1  0  0  0  0
 63 77  1  0  0  0  0
 64 65  1  0  0  0  0
 64 81  1  0  0  0  0
 65 88  1  0  0  0  0
 66 81  1  0  0  0  0
 67 69  1  0  0  0  0
 67 79  1  0  0  0  0
 68 80  1  0  0  0  0
 70 71  1  0  0  0  0
M  CHG  2  80   1  81   1
M  ISO  4  38 100  65 101  74 100  88 101
M  END
> <Batch ID>
0151

> <Smiles>
CNC(C)C(=O)NC(C(=O)N1Cc2cc([101O:1][101CH2:1]CNC(C)c3c(C)cc(NCC4CCC[100N:0]4[100C:0](=O)N4CCCC(n5nc(-c6ccc(Oc7ccc(F)cc7F)cc6)c(C(N)=O)c5N)C4)cc3C)ccc2CC1C(=O)NC1CCCc2ccccc21)C(C)(C)C

> <Shape>
0.248

> <Color>
0.058

> <Negative vol penalty>
0.000

$$$$

  -OEChem-04052321433D

 90 99  0     1  0  0  0  0  0999 V2000
  -18.3516  -28.0854   22.0921 C   0  0  0  0  0  0  0  0  0  0  0  0
  -19.0299  -27.1001   21.3819 C   0  0  0  0  0  0  0  0  0  0  0  0
  -26.8928  -25.4881   21.1038 C   0  0  0  0  0  0  0  0  0  0  0  0
  -26.1546  -24.7385   18.9289 C   0  0  0  0  0  0  0  0  0  0  0  0
  -18.8688  -28.5540   23.2991 C   0  0  0  0  0  0  0  0  0  0  0  0
  -20.2265  -26.5835   21.8777 C   0  0  0  0  0  0  0  0  0  0  0  0
  -20.4463  -21.5348   21.5512 C   0  0  0  0  0  0  0  0  0  0  0  0
  -25.8684  -26.4345   21.1254 C   0  0  0  0  0  0  0  0  0  0  0  0
  -25.1300  -25.6848   18.9505 C   0  0  0  0  0  0  0  0  0  0  0  0
  -20.7372  -20.9896   20.3014 C   0  0  0  0  0  0  0  0  0  0  0  0
  -23.6663  -29.2901   21.5942 C   0  0  0  0  0  0  0  0  0  0  0  0
  -23.9840  -30.5827   22.0111 C   0  0  0  0  0  0  0  0  0  0  0  0
  -25.2281  -14.5662   20.8102 C   0  0  0  0  0  0  0  0  0  0  0  0
  -23.0312  -20.6761   20.9788 C   0  0  0  0  0  0  0  0  0  0  0  0
  -26.1448  -12.4575   21.5520 C   0  0  0  0  0  0  0  0  0  0  0  0
  -25.5774  -30.7735   20.2050 C   0  0  0  0  0  0  0  0  0  0  0  0
  -27.0360  -24.6402   20.0055 C   0  0  0  0  0  0  0  0  0  0  0  0
  -29.4791  -23.9074   20.0506 C   0  0  0  0  0  0  0  0  0  0  0  0
  -20.0674  -28.0360   23.8148 C   0  0  0  0  0  0  0  0  0  0  0  0
  -21.4498  -21.6650   22.5220 C   0  0  0  0  0  0  0  0  0  0  0  0
  -20.7609  -27.0466   23.0920 C   0  0  0  0  0  0  0  0  0  0  0  0
  -24.5509  -13.9102   19.7823 C   0  0  0  0  0  0  0  0  0  0  0  0
  -22.7498  -21.2209   22.2410 C   0  0  0  0  0  0  0  0  0  0  0  0
  -26.0251  -13.8398   21.6951 C   0  0  0  0  0  0  0  0  0  0  0  0
  -24.6706  -12.5278   19.6392 C   0  0  0  0  0  0  0  0  0  0  0  0
  -24.9870  -26.5328   20.0488 C   0  0  0  0  0  0  0  0  0  0  0  0
  -22.0304  -20.5629   20.0140 C   0  0  0  0  0  0  0  0  0  0  0  0
  -24.3041  -28.7391   20.4828 C   0  0  0  0  0  0  0  0  0  0  0  0
  -25.4676  -11.8015   20.5241 C   0  0  0  0  0  0  0  0  0  0  0  0
  -24.9396  -31.3244   21.3165 C   0  0  0  0  0  0  0  0  0  0  0  0
  -25.2597  -29.4808   19.7882 C   0  0  0  0  0  0  0  0  0  0  0  0
  -28.0944  -23.6628   19.9823 C   0  0  0  0  0  0  0  0  0  0  0  0
  -30.0514  -22.6603   19.9917 C   0  0  0  0  0  0  0  0  0  0  0  0
  -30.1848  -25.1509   20.1577 C   0  0  0  0  0  0  0  0  0  0  0  0
  -22.7856  -24.1091   24.0536 C   0  0  0  0  0  0  0  0  0  0  0  0
  -24.2812  -21.7517   25.7053 C   0  0  0  0  0  0  0  0  0  0  0  0
  -25.3705  -18.5187   25.7946 C   0  0  0  0  0  0  0  0  0  0  0  0
  -28.0264  -17.3274   21.5133 C   0  0  0  0  0  0  0  0  0  0  0  0
  -20.6117  -28.6076   25.1000 C   0  0  0  0  0  0  0  0  0  0  0  0
  -21.1138  -22.2305   23.8746 C   0  0  0  0  0  0  0  0  0  0  0  0
  -23.8584  -21.3200   23.2558 C   0  0  0  0  0  0  0  0  0  0  0  0
  -21.6918  -27.7412   25.7426 C   0  0  0  0  0  0  0  0  0  0  0  0
  -29.2862  -18.2671   18.2534 C   0  0  0  0  0  0  0  0  0  0  0  0
  -22.7110  -27.2967   24.6984 C   0  0  0  0  0  0  0  0  0  0  0  0
  -29.2519  -19.7938   18.3425 C   0  0  0  0  0  0  0  0  0  0  0  0
  -22.5738  -15.4109   19.6206 C   0  0  0  0  0  0  0  0  0  0  0  0
  -24.5642  -15.7413   18.0989 C   0  0  0  0  0  0  0  0  0  0  0  0
  -28.0892  -17.6446   18.9662 C   0  0  0  0  0  0  0  0  0  0  0  0
  -27.9059  -19.5783   20.4831 C   0  0  0  0  0  0  0  0  0  0  0  0
  -21.7407  -16.3021   18.7083 C   0  0  0  0  0  0  0  0  0  0  0  0
  -23.7158  -16.6296   17.1980 C   0  0  0  0  0  0  0  0  0  0  0  0
  -23.7032  -14.7111   18.8474 C   0  0  0  0  0  0  0  0  0  0  0  0
  -22.0490  -26.4438   23.6094 C   0  0  1  0  0  0  0  0  0  0  0  0
  -22.3296  -22.7889   24.6076 C   0  0  1  0  0  0  0  0  0  0  0  0
  -29.1019  -20.2667   19.8006 C   0  0  2  0  0  0  0  0  0  0  0  0
  -23.9468  -11.8192   18.5391 C   0  0  0  0  0  0  0  0  0  0  0  0
  -26.5927  -16.8917   27.2630 C   0  0  0  0  0  0  0  0  0  0  0  0
  -26.9226  -23.1110   25.0088 C   0  0  0  0  0  0  0  0  0  0  0  0
  -28.0999  -20.9974   25.6527 C   0  0  0  0  0  0  0  0  0  0  0  0
  -26.7770  -22.2539   27.3537 C   0  0  0  0  0  0  0  0  0  0  0  0
  -23.0383  -16.7009   25.9191 C   0  0  0  0  0  0  0  0  0  0  0  0
  -26.6582   -9.9742   19.5757 C   0  0  0  0  0  0  0  0  0  0  0  0
  -26.7501  -14.5409   22.7936 C   0  0  0  0  0  0  0  0  0  0  0  0
  -28.1547  -15.0131   22.3992 C   0  0  0  0  0  0  0  0  0  0  0  0
  -21.8538  -18.2874   17.2048 C   0  0  0  0  0  0  0  0  0  0  0  0
  -21.2647  -19.3390   18.1241 C   0  0  0  0  0  0  0  0  0  1  0  0
  -25.5667  -20.9783   25.5371 C   0  0  1  0  0  0  0  0  0  0  0  0
  -25.2344  -17.4388   26.8527 C   0  0  2  0  0  0  0  0  0  0  0  0
  -26.8213  -21.8349   25.8681 C   0  0  0  0  0  0  0  0  0  0  0  0
  -27.8046  -22.3624   19.8872 N   0  0  0  0  0  0  0  0  0  0  0  0
  -29.0152  -21.7788   19.8952 N   0  0  0  0  0  0  0  0  0  0  0  0
  -23.4813  -21.8858   24.5616 N   0  0  0  0  0  0  0  0  0  0  0  0
  -28.0146  -18.1213   20.3544 N   0  0  0  0  0  0  0  0  0  0  0  0
  -31.3350  -22.2426   20.0135 N   0  0  0  0  0  0  0  0  0  0  0  0
  -30.5602  -25.8098   18.9791 N   0  0  0  0  0  0  0  0  0  0  0  0
  -21.8211  -25.0980   24.0903 N   0  0  0  0  0  0  0  0  0  0  0  0
  -25.4305  -19.7775   26.3543 N   0  0  0  0  0  0  0  0  0  0  0  0
  -28.1247  -15.9572   21.3043 N   0  0  0  0  0  0  0  0  0  0  0  0
  -22.6315  -17.3125   18.0104 N   0  3  0  0  0  0  0  0  0  0  0  0
  -24.4091  -16.3099   26.3375 N   0  3  0  0  0  0  0  0  0  0  0  0
  -30.4884  -25.6543   21.2659 O   0  0  0  0  0  0  0  0  0  0  0  0
  -23.9283  -24.2225   23.6259 O   0  0  0  0  0  0  0  0  0  0  0  0
  -23.9938  -22.2135   26.8125 O   0  0  0  0  0  0  0  0  0  0  0  0
  -25.4224  -18.2702   24.5920 O   0  0  0  0  0  0  0  0  0  0  0  0
  -27.9598  -17.8048   22.6512 O   0  0  0  0  0  0  0  0  0  0  0  0
  -23.9870  -27.4560   20.0697 O   0  0  0  0  0  0  0  0  0  0  0  0
  -25.5964  -10.4505   20.3999 O   0  0  0  0  0  0  0  0  0  0  0  0
  -22.3172  -20.0310   18.7947 O   0  0  0  0  0  0  0  0  0  1  0  0
  -25.2435  -32.5662   21.7160 F   0  0  0  0  0  0  0  0  0  0  0  0
  -25.8750  -28.9573   18.7190 F   0  0  0  0  0  0  0  0  0  0  0  0
  1  2  1  0  0  0  0
  1  5  2  0  0  0  0
  2  6  2  0  0  0  0
  3  8  2  0  0  0  0
  3 17  1  0  0  0  0
  4  9  1  0  0  0  0
  4 17  2  0  0  0  0
  5 19  1  0  0  0  0
  6 21  1  0  0  0  0
  7 10  2  0  0  0  0
  7 20  1  0  0  0  0
  8 26  1  0  0  0  0
  9 26  2  0  0  0  0
 10 27  1  0  0  0  0
 11 12  2  0  0  0  0
 11 28  1  0  0  0  0
 12 30  1  0  0  0  0
 13 22  1  0  0  0  0
 13 24  2  0  0  0  0
 14 23  1  0  0  0  0
 14 27  2  0  0  0  0
 15 24  1  0  0  0  0
 15 29  2  0  0  0  0
 16 30  2  0  0  0  0
 16 31  1  0  0  0  0
 17 32  1  0  0  0  0
 18 32  1  0  0  0  0
 18 33  2  0  0  0  0
 18 34  1  0  0  0  0
 19 21  2  0  0  0  0
 19 39  1  0  0  0  0
 20 23  2  0  0  0  0
 20 40  1  0  0  0  0
 21 53  1  0  0  0  0
 22 25  2  0  0  0  0
 22 52  1  0  0  0  0
 23 41  1  0  0  0  0
 24 63  1  0  0  0  0
 25 29  1  0  0  0  0
 25 56  1  0  0  0  0
 26 86  1  0  0  0  0
 27 88  1  0  0  0  0
 28 31  2  0  0  0  0
 28 86  1  0  0  0  0
 29 87  1  0  0  0  0
 30 89  1  0  0  0  0
 31 90  1  0  0  0  0
 32 70  2  0  0  0  0
 33 71  1  0  0  0  0
 33 74  1  0  0  0  0
 34 75  1  0  0  0  0
 34 81  2  0  0  0  0
 35 54  1  0  0  0  0
 35 76  1  0  0  0  0
 35 82  2  0  0  0  0
 36 67  1  0  0  0  0
 36 72  1  0  0  0  0
 36 83  2  0  0  0  0
 37 68  1  0  0  0  0
 37 77  1  0  0  0  0
 37 84  2  0  0  0  0
 38 73  1  0  0  0  0
 38 78  1  0  0  0  0
 38 85  2  0  0  0  0
 39 42  1  0  0  0  0
 40 54  1  0  0  0  0
 41 72  1  0  0  0  0
 42 44  1  0  0  0  0
 43 45  1  0  0  0  0
 43 48  1  0  0  0  0
 44 53  1  0  0  0  0
 45 55  1  0  0  0  0
 46 50  1  0  0  0  0
 46 52  1  0  0  0  0
 47 51  1  0  0  0  0
 47 52  1  0  0  0  0
 48 73  1  0  0  0  0
 49 55  1  0  0  0  0
 49 73  1  0  0  0  0
 50 79  1  0  0  0  0
 51 79  1  0  0  0  0
 53 76  1  0  0  0  0
 54 72  1  0  0  0  0
 55 71  1  0  0  0  0
 57 68  1  0  0  0  0
 58 69  1  0  0  0  0
 59 69  1  0  0  0  0
 60 69  1  0  0  0  0
 61 80  1  0  0  0  0
 62 87  1  0  0  0  0
 63 64  1  0  0  0  0
 64 78  1  0  0  0  0
 65 66  1  0  0  0  0
 65 79  1  0  0  0  0
 66 88  1  0  0  0  0
 67 69  1  0  0  0  0
 67 77  1  0  0  0  0
 68 80  1  0  0  0  0
 70 71  1  0  0  0  0
M  CHG  2  79   1  80   1
M  ISO  4  38 100  66 101  78 100  88 101
M  END
> <Batch ID>
0151

> <Smiles>
CNC(C)C(=O)NC(C(=O)N1Cc2cc([101O:1][101CH2:1]CN3CCC(c4cc(CC[100NH:0][100C:0](=O)N5CCCC(n6nc(-c7ccc(Oc8ccc(F)cc8F)cc7)c(C(N)=O)c6N)C5)cc(OC)c4C)CC3)ccc2CC1C(=O)NC1CCCc2ccccc21)C(C)(C)C

> <Shape>
0.203

> <Color>
0.054

> <Negative vol penalty>
0.000

$$$$

  -OEChem-04052321433D

 86 94  0     1  0  0  0  0  0999 V2000
  -29.1920  -37.1613   22.3424 C   0  0  0  0  0  0  0  0  0  0  0  0
  -29.4888  -35.8778   21.8952 C   0  0  0  0  0  0  0  0  0  0  0  0
  -25.2993  -18.6813   24.5496 C   0  0  0  0  0  0  0  0  0  0  0  0
  -24.8632  -20.0343   22.5960 C   0  0  0  0  0  0  0  0  0  0  0  0
  -28.1864  -37.3533   23.2889 C   0  0  0  0  0  0  0  0  0  0  0  0
  -28.7808  -34.7854   22.3950 C   0  0  0  0  0  0  0  0  0  0  0  0
  -27.2205  -29.7050   19.3519 C   0  0  0  0  0  0  0  0  0  0  0  0
  -24.9313  -19.7475   25.3702 C   0  0  0  0  0  0  0  0  0  0  0  0
  -24.4951  -21.1005   23.4166 C   0  0  0  0  0  0  0  0  0  0  0  0
  -27.7894  -28.4334   19.2954 C   0  0  0  0  0  0  0  0  0  0  0  0
  -26.0422  -23.4707   25.2658 C   0  0  0  0  0  0  0  0  0  0  0  0
  -26.5424  -24.7340   24.9504 C   0  0  0  0  0  0  0  0  0  0  0  0
  -26.2472  -27.6747   20.9882 C   0  0  0  0  0  0  0  0  0  0  0  0
  -30.4479  -22.1167   18.8307 C   0  0  0  0  0  0  0  0  0  0  0  0
  -29.1642  -22.5157   16.8232 C   0  0  0  0  0  0  0  0  0  0  0  0
  -24.2878  -25.5602   24.6838 C   0  0  0  0  0  0  0  0  0  0  0  0
  -25.2654  -18.8247   23.1625 C   0  0  0  0  0  0  0  0  0  0  0  0
  -24.8076  -16.7154   21.8027 C   0  0  0  0  0  0  0  0  0  0  0  0
  -27.4591  -36.2637   23.7934 C   0  0  0  0  0  0  0  0  0  0  0  0
  -26.1661  -29.9743   20.2363 C   0  0  0  0  0  0  0  0  0  0  0  0
  -27.7653  -34.9629   23.3501 C   0  0  0  0  0  0  0  0  0  0  0  0
  -25.6650  -28.9499   21.0522 C   0  0  0  0  0  0  0  0  0  0  0  0
  -31.0579  -21.0195   18.2226 C   0  0  0  0  0  0  0  0  0  0  0  0
  -29.7743  -21.4185   16.2151 C   0  0  0  0  0  0  0  0  0  0  0  0
  -30.7211  -20.6704   16.9148 C   0  0  0  0  0  0  0  0  0  0  0  0
  -24.5291  -20.9570   24.8037 C   0  0  0  0  0  0  0  0  0  0  0  0
  -27.3047  -27.4188   20.1157 C   0  0  0  0  0  0  0  0  0  0  0  0
  -24.6647  -23.2521   25.2901 C   0  0  0  0  0  0  0  0  0  0  0  0
  -29.5010  -22.8647   18.1310 C   0  0  0  0  0  0  0  0  0  0  0  0
  -25.6652  -25.7787   24.6595 C   0  0  0  0  0  0  0  0  0  0  0  0
  -23.7875  -24.2969   24.9991 C   0  0  0  0  0  0  0  0  0  0  0  0
  -25.6460  -17.7239   22.3143 C   0  0  0  0  0  0  0  0  0  0  0  0
  -25.6439  -15.9166   21.0618 C   0  0  0  0  0  0  0  0  0  0  0  0
  -23.3987  -16.5183   21.9813 C   0  0  0  0  0  0  0  0  0  0  0  0
  -25.7563  -31.9287   22.7094 C   0  0  0  0  0  0  0  0  0  0  0  0
  -22.7041  -30.8401   22.5650 C   0  0  0  0  0  0  0  0  0  0  0  0
  -20.5508  -28.3716   21.6076 C   0  0  0  0  0  0  0  0  0  0  0  0
  -30.8636  -16.9257   18.3073 C   0  0  0  0  0  0  0  0  0  0  0  0
  -26.4131  -36.5160   24.8503 C   0  0  0  0  0  0  0  0  0  0  0  0
  -25.5455  -31.3441   20.2661 C   0  0  0  0  0  0  0  0  0  0  0  0
  -24.5213  -29.1821   22.0043 C   0  0  0  0  0  0  0  0  0  0  0  0
  -25.4558  -35.3442   25.0516 C   0  0  0  0  0  0  0  0  0  0  0  0
  -30.2014  -14.4825   20.8110 C   0  0  0  0  0  0  0  0  0  0  0  0
  -26.2293  -34.0328   25.1448 C   0  0  0  0  0  0  0  0  0  0  0  0
  -28.8832  -14.9452   21.4341 C   0  0  0  0  0  0  0  0  0  0  0  0
  -31.0895  -15.6639   20.4270 C   0  0  0  0  0  0  0  0  0  0  0  0
  -29.1249  -17.1323   20.1863 C   0  0  0  0  0  0  0  0  0  0  0  0
  -27.0027  -33.7552   23.8501 C   0  0  1  0  0  0  0  0  0  0  0  0
  -24.8165  -31.6416   21.5727 C   0  0  1  0  0  0  0  0  0  0  0  0
  -28.1718  -15.9775   20.5388 C   0  0  2  0  0  0  0  0  0  0  0  0
  -32.0693  -20.2364   18.9939 C   0  0  0  0  0  0  0  0  0  0  0  0
  -29.7358  -22.1827   13.8134 C   0  0  0  0  0  0  0  0  0  0  0  0
  -27.9090  -20.6818   14.6879 C   0  0  0  0  0  0  0  0  0  0  0  0
  -18.1206  -27.7480   21.6593 C   0  0  0  0  0  0  0  0  0  0  0  0
  -22.9554  -30.1152   25.5182 C   0  0  0  0  0  0  0  0  0  0  0  0
  -20.9234  -28.6745   25.2659 C   0  0  0  0  0  0  0  0  0  0  0  0
  -20.7631  -31.1333   24.8769 C   0  0  0  0  0  0  0  0  0  0  0  0
  -20.3855  -28.3055   18.6534 C   0  0  0  0  0  0  0  0  0  0  0  0
  -31.3751  -19.4935   16.2633 C   0  0  0  0  0  0  0  0  0  0  0  0
  -30.4920  -18.2424   16.2367 C   0  0  0  0  0  0  0  0  0  0  0  0
  -29.2403  -26.0963   19.7150 C   0  0  0  0  0  0  0  0  0  1  0  0
  -29.6641  -24.6403   19.7047 C   0  0  0  0  0  0  0  0  0  0  0  0
  -29.3950  -21.0639   14.8145 C   0  0  0  0  0  0  0  0  0  0  0  0
  -21.9509  -29.6848   23.1791 C   0  0  1  0  0  0  0  0  0  0  0  0
  -19.2283  -28.4211   20.8639 C   0  0  2  0  0  0  0  0  0  0  0  0
  -21.6711  -29.8978   24.6936 C   0  0  0  0  0  0  0  0  0  0  0  0
  -26.9175  -17.5811   21.9309 N   0  0  0  0  0  0  0  0  0  0  0  0
  -26.8842  -16.4734   21.1706 N   0  0  0  0  0  0  0  0  0  0  0  0
  -23.9522  -30.5400   22.0012 N   0  0  0  0  0  0  0  0  0  0  0  0
  -30.3558  -16.6046   19.5769 N   0  0  0  0  0  0  0  0  0  0  0  0
  -25.4320  -14.7993   20.3344 N   0  0  0  0  0  0  0  0  0  0  0  0
  -22.6912  -17.4328   22.7735 N   0  0  0  0  0  0  0  0  0  0  0  0
  -26.1100  -33.2596   22.8245 N   0  0  0  0  0  0  0  0  0  0  0  0
  -20.7510  -29.5033   22.3694 N   0  0  0  0  0  0  0  0  0  0  0  0
  -30.1032  -17.8200   17.5638 N   0  0  0  0  0  0  0  0  0  0  0  0
  -19.3478  -27.7314   19.5482 N   0  3  0  0  0  0  0  0  0  0  0  0
  -22.7883  -15.5504   21.4674 O   0  0  0  0  0  0  0  0  0  0  0  0
  -26.1316  -31.0110   23.4296 O   0  0  0  0  0  0  0  0  0  0  0  0
  -22.2002  -31.9659   22.5786 O   0  0  0  0  0  0  0  0  0  0  0  0
  -21.3268  -27.4222   21.5242 O   0  0  0  0  0  0  0  0  0  0  0  0
  -31.9139  -16.4465   17.8666 O   0  0  0  0  0  0  0  0  0  0  0  0
  -24.1696  -21.9975   25.6041 O   0  0  0  0  0  0  0  0  0  0  0  0
  -27.8587  -26.1769   20.0630 O   0  0  0  0  0  0  0  0  0  1  0  0
  -28.9005  -23.9410   18.7294 O   0  0  0  0  0  0  0  0  0  0  0  0
  -26.1457  -26.9922   24.3581 F   0  0  0  0  0  0  0  0  0  0  0  0
  -22.4632  -24.0932   25.0220 F   0  0  0  0  0  0  0  0  0  0  0  0
  1  2  1  0  0  0  0
  1  5  2  0  0  0  0
  2  6  2  0  0  0  0
  3  8  2  0  0  0  0
  3 17  1  0  0  0  0
  4  9  1  0  0  0  0
  4 17  2  0  0  0  0
  5 19  1  0  0  0  0
  6 21  1  0  0  0  0
  7 10  2  0  0  0  0
  7 20  1  0  0  0  0
  8 26  1  0  0  0  0
  9 26  2  0  0  0  0
 10 27  1  0  0  0  0
 11 12  2  0  0  0  0
 11 28  1  0  0  0  0
 12 30  1  0  0  0  0
 13 22  1  0  0  0  0
 13 27  2  0  0  0  0
 14 23  2  0  0  0  0
 14 29  1  0  0  0  0
 15 24  1  0  0  0  0
 15 29  2  0  0  0  0
 16 30  2  0  0  0  0
 16 31  1  0  0  0  0
 17 32  1  0  0  0  0
 18 32  1  0  0  0  0
 18 33  2  0  0  0  0
 18 34  1  0  0  0  0
 19 21  2  0  0  0  0
 19 39  1  0  0  0  0
 20 22  2  0  0  0  0
 20 40  1  0  0  0  0
 21 48  1  0  0  0  0
 22 41  1  0  0  0  0
 23 25  1  0  0  0  0
 23 51  1  0  0  0  0
 24 25  2  0  0  0  0
 24 63  1  0  0  0  0
 25 59  1  0  0  0  0
 26 82  1  0  0  0  0
 27 83  1  0  0  0  0
 28 31  2  0  0  0  0
 28 82  1  0  0  0  0
 29 84  1  0  0  0  0
 30 85  1  0  0  0  0
 31 86  1  0  0  0  0
 32 67  2  0  0  0  0
 33 68  1  0  0  0  0
 33 71  1  0  0  0  0
 34 72  1  0  0  0  0
 34 77  2  0  0  0  0
 35 49  1  0  0  0  0
 35 73  1  0  0  0  0
 35 78  2  0  0  0  0
 36 64  1  0  0  0  0
 36 69  1  0  0  0  0
 36 79  2  0  0  0  0
 37 65  1  0  0  0  0
 37 74  1  0  0  0  0
 37 80  2  0  0  0  0
 38 70  1  0  0  0  0
 38 75  1  0  0  0  0
 38 81  2  0  0  0  0
 39 42  1  0  0  0  0
 40 49  1  0  0  0  0
 41 69  1  0  0  0  0
 42 44  1  0  0  0  0
 43 45  1  0  0  0  0
 43 46  1  0  0  0  0
 44 48  1  0  0  0  0
 45 50  1  0  0  0  0
 46 70  1  0  0  0  0
 47 50  1  0  0  0  0
 47 70  1  0  0  0  0
 48 73  1  0  0  0  0
 49 69  1  0  0  0  0
 50 68  1  0  0  0  0
 52 63  1  0  0  0  0
 53 63  1  0  0  0  0
 54 65  1  0  0  0  0
 55 66  1  0  0  0  0
 56 66  1  0  0  0  0
 57 66  1  0  0  0  0
 58 76  1  0  0  0  0
 59 60  1  0  0  0  0
 60 75  1  0  0  0  0
 61 62  1  0  0  0  0
 61 83  1  0  0  0  0
 62 84  1  0  0  0  0
 64 66  1  0  0  0  0
 64 74  1  0  0  0  0
 65 76  1  0  0  0  0
 67 68  1  0  0  0  0
M  CHG  1  76   1
M  ISO  4  38 100  61 101  75 100  83 101
M  END
> <Batch ID>
0151

> <Smiles>
CNC(C)C(=O)NC(C(=O)N1Cc2cc([101O:1][101CH2:1]COc3cc(C)c(CC[100NH:0][100C:0](=O)N4CCCC(n5nc(-c6ccc(Oc7ccc(F)cc7F)cc6)c(C(N)=O)c5N)C4)c(C(C)C)c3)ccc2CC1C(=O)NC1CCCc2ccccc21)C(C)(C)C

> <Shape>
0.212

> <Color>
0.096

> <Negative vol penalty>
0.000

$$$$

  -OEChem-04052321433D

 87 96  0     1  0  0  0  0  0999 V2000
  -18.8837  -25.3914   24.5025 C   0  0  0  0  0  0  0  0  0  0  0  0
  -20.2577  -25.5977   24.5725 C   0  0  0  0  0  0  0  0  0  0  0  0
  -23.5467  -10.2520   22.1947 C   0  0  0  0  0  0  0  0  0  0  0  0
  -23.3811   -9.7279   19.8421 C   0  0  0  0  0  0  0  0  0  0  0  0
  -18.1262  -26.0675   23.5470 C   0  0  0  0  0  0  0  0  0  0  0  0
  -20.8753  -26.4795   23.6862 C   0  0  0  0  0  0  0  0  0  0  0  0
  -24.1973  -29.5343   25.9834 C   0  0  0  0  0  0  0  0  0  0  0  0
  -22.7482   -9.1490   22.4967 C   0  0  0  0  0  0  0  0  0  0  0  0
  -22.5826   -8.6248   20.1440 C   0  0  0  0  0  0  0  0  0  0  0  0
  -25.4426  -28.9950   26.3032 C   0  0  0  0  0  0  0  0  0  0  0  0
  -23.1233   -5.7986   22.7566 C   0  0  0  0  0  0  0  0  0  0  0  0
  -23.5268   -4.9745   23.8071 C   0  0  0  0  0  0  0  0  0  0  0  0
  -26.3918  -30.0433   24.3489 C   0  0  0  0  0  0  0  0  0  0  0  0
  -21.4565   -5.4357   24.9640 C   0  0  0  0  0  0  0  0  0  0  0  0
  -26.9079  -26.2297   23.4073 C   0  0  0  0  0  0  0  0  0  0  0  0
  -23.8632  -10.5415   20.8674 C   0  0  0  0  0  0  0  0  0  0  0  0
  -26.0910  -11.7117   20.4489 C   0  0  0  0  0  0  0  0  0  0  0  0
  -18.7334  -26.9653   22.6548 C   0  0  0  0  0  0  0  0  0  0  0  0
  -24.0373  -30.3244   24.8360 C   0  0  0  0  0  0  0  0  0  0  0  0
  -20.1254  -27.1672   22.7169 C   0  0  0  0  0  0  0  0  0  0  0  0
  -25.1440  -30.5935   24.0181 C   0  0  0  0  0  0  0  0  0  0  0  0
  -26.0036  -25.2357   23.1050 C   0  0  0  0  0  0  0  0  0  0  0  0
  -26.5101  -24.0258   23.6405 C   0  0  0  0  0  0  0  0  0  0  0  0
  -22.2661   -8.3353   21.4714 C   0  0  0  0  0  0  0  0  0  0  0  0
  -26.5394  -29.2471   25.4844 C   0  0  0  0  0  0  0  0  0  0  0  0
  -21.8865   -6.4414   22.8098 C   0  0  0  0  0  0  0  0  0  0  0  0
  -22.6934   -4.7930   24.9108 C   0  0  0  0  0  0  0  0  0  0  0  0
  -21.0531   -6.2599   23.9135 C   0  0  0  0  0  0  0  0  0  0  0  0
  -24.6875  -11.6811   20.5547 C   0  0  0  0  0  0  0  0  0  0  0  0
  -27.7085  -24.3174   24.2539 C   0  0  0  0  0  0  0  0  0  0  0  0
  -26.3834  -13.0169   20.1367 C   0  0  0  0  0  0  0  0  0  0  0  0
  -27.0450  -10.6548   20.6177 C   0  0  0  0  0  0  0  0  0  0  0  0
  -22.3239  -30.0860   22.1693 C   0  0  0  0  0  0  0  0  0  0  0  0
  -23.4790  -33.0676   21.6234 C   0  0  0  0  0  0  0  0  0  0  0  0
  -25.9103  -35.3870   22.2201 C   0  0  0  0  0  0  0  0  0  0  0  0
  -25.8410  -18.3189   20.7689 C   0  0  0  0  0  0  0  0  0  0  0  0
  -17.8802  -27.6372   21.6082 C   0  0  0  0  0  0  0  0  0  0  0  0
  -22.6932  -30.9207   24.5194 C   0  0  0  0  0  0  0  0  0  0  0  0
  -25.0294  -31.4521   22.7860 C   0  0  0  0  0  0  0  0  0  0  0  0
  -18.5557  -28.8380   20.9508 C   0  0  0  0  0  0  0  0  0  0  0  0
  -23.3806  -16.8353   18.7504 C   0  0  0  0  0  0  0  0  0  0  0  0
  -19.9890  -28.4950   20.5573 C   0  0  0  0  0  0  0  0  0  0  0  0
  -23.6124  -15.3509   19.0312 C   0  0  0  0  0  0  0  0  0  0  0  0
  -24.5293  -21.0562   22.5507 C   0  0  0  0  0  0  0  0  0  0  0  0
  -26.8852  -21.4739   21.7490 C   0  0  0  0  0  0  0  0  0  0  0  0
  -23.5054  -17.6845   20.0167 C   0  0  0  0  0  0  0  0  0  0  0  0
  -24.2630  -20.2344   21.2861 C   0  0  0  0  0  0  0  0  0  0  0  0
  -26.5647  -20.6706   20.4916 C   0  0  0  0  0  0  0  0  0  0  0  0
  -25.0077  -16.0010   21.0305 C   0  0  0  0  0  0  0  0  0  0  0  0
  -20.8281  -28.1344   21.7891 C   0  0  1  0  0  0  0  0  0  0  0  0
  -22.5340  -31.2873   23.0471 C   0  0  1  0  0  0  0  0  0  0  0  0
  -24.9462  -15.1295   19.7665 C   0  0  1  0  0  0  0  0  0  0  0  0
  -25.6145  -22.1101   22.3184 C   0  0  0  0  0  0  0  0  0  0  0  0
  -24.7418  -25.4150   22.3583 C   0  0  0  0  0  0  0  0  0  0  0  0
  -28.6563  -23.4357   24.9694 C   0  0  0  0  0  0  0  0  0  0  0  0
  -26.6027  -37.7186   21.6025 C   0  0  0  0  0  0  0  0  0  0  0  0
  -24.4578  -32.0571   18.9159 C   0  0  0  0  0  0  0  0  0  0  0  0
  -25.9256  -34.0801   18.7697 C   0  0  0  0  0  0  0  0  0  0  0  0
  -23.4472  -34.3443   18.8725 C   0  0  0  0  0  0  0  0  0  0  0  0
  -25.7165  -36.3119   25.0247 C   0  0  0  0  0  0  0  0  0  0  0  0
  -29.0190  -26.7000   26.0985 C   0  0  0  0  0  0  0  0  0  0  0  0
  -29.0904  -26.3822   24.6033 C   0  0  0  0  0  0  0  0  0  0  0  0
  -27.7684  -27.4777   26.4918 C   0  0  0  0  0  0  0  0  0  1  0  0
  -24.7049  -33.6320   20.9469 C   0  0  1  0  0  0  0  0  0  0  0  0
  -25.8309  -36.8572   22.5899 C   0  0  2  0  0  0  0  0  0  0  0  0
  -24.6359  -33.5106   19.3983 C   0  0  0  0  0  0  0  0  0  0  0  0
  -24.1273  -12.8723   20.3283 N   0  0  0  0  0  0  0  0  0  0  0  0
  -27.9401  -25.6600   24.1061 N   0  0  0  0  0  0  0  0  0  0  0  0
  -25.1841  -13.6636   20.0771 N   0  0  0  0  0  0  0  0  0  0  0  0
  -23.6930  -32.0072   22.5153 N   0  0  0  0  0  0  0  0  0  0  0  0
  -24.7746  -17.4096   20.7045 N   0  0  0  0  0  0  0  0  0  0  0  0
  -25.5159  -19.6834   20.7499 N   0  0  0  0  0  0  0  0  0  0  0  0
  -27.5469  -13.6629   19.9101 N   0  0  0  0  0  0  0  0  0  0  0  0
  -26.5737   -9.3740   20.9369 N   0  0  0  0  0  0  0  0  0  0  0  0
  -25.9163  -22.7784   23.5651 N   0  0  0  0  0  0  0  0  0  0  0  0
  -21.2160  -29.3313   22.5043 N   0  0  0  0  0  0  0  0  0  0  0  0
  -24.8461  -35.0001   21.4333 N   0  0  0  0  0  0  0  0  0  0  0  0
  -26.3966  -37.0803   23.9505 N   0  3  0  0  0  0  0  0  0  0  0  0
  -28.2799  -10.8442   20.5053 O   0  0  0  0  0  0  0  0  0  0  0  0
  -23.1081  -29.8614   21.2548 O   0  0  0  0  0  0  0  0  0  0  0  0
  -22.3731  -33.5546   21.3752 O   0  0  0  0  0  0  0  0  0  0  0  0
  -26.8267  -34.6559   22.5891 O   0  0  0  0  0  0  0  0  0  0  0  0
  -27.0150  -17.9344   20.8395 O   0  0  0  0  0  0  0  0  0  0  0  0
  -21.4871   -7.2587   21.7657 O   0  0  0  0  0  0  0  0  0  0  0  0
  -27.7644  -28.7178   25.7961 O   0  0  0  0  0  0  0  0  0  1  0  0
  -23.0803   -4.0002   25.9188 F   0  0  0  0  0  0  0  0  0  0  0  0
  -19.8633   -6.8739   23.9697 F   0  0  0  0  0  0  0  0  0  0  0  0
  1  2  1  0  0  0  0
  1  5  2  0  0  0  0
  2  6  2  0  0  0  0
  3  8  2  0  0  0  0
  3 16  1  0  0  0  0
  4  9  1  0  0  0  0
  4 16  2  0  0  0  0
  5 18  1  0  0  0  0
  6 20  1  0  0  0  0
  7 10  2  0  0  0  0
  7 19  1  0  0  0  0
  8 24  1  0  0  0  0
  9 24  2  0  0  0  0
 10 25  1  0  0  0  0
 11 12  2  0  0  0  0
 11 26  1  0  0  0  0
 12 27  1  0  0  0  0
 13 21  1  0  0  0  0
 13 25  2  0  0  0  0
 14 27  2  0  0  0  0
 14 28  1  0  0  0  0
 15 22  2  0  0  0  0
 15 68  1  0  0  0  0
 16 29  1  0  0  0  0
 17 29  1  0  0  0  0
 17 31  2  0  0  0  0
 17 32  1  0  0  0  0
 18 20  2  0  0  0  0
 18 37  1  0  0  0  0
 19 21  2  0  0  0  0
 19 38  1  0  0  0  0
 20 50  1  0  0  0  0
 21 39  1  0  0  0  0
 22 23  1  0  0  0  0
 22 54  1  0  0  0  0
 23 30  2  0  0  0  0
 23 75  1  0  0  0  0
 24 84  1  0  0  0  0
 25 85  1  0  0  0  0
 26 28  2  0  0  0  0
 26 84  1  0  0  0  0
 27 86  1  0  0  0  0
 28 87  1  0  0  0  0
 29 67  2  0  0  0  0
 30 55  1  0  0  0  0
 30 68  1  0  0  0  0
 31 69  1  0  0  0  0
 31 73  1  0  0  0  0
 32 74  1  0  0  0  0
 32 79  2  0  0  0  0
 33 51  1  0  0  0  0
 33 76  1  0  0  0  0
 33 80  2  0  0  0  0
 34 64  1  0  0  0  0
 34 70  1  0  0  0  0
 34 81  2  0  0  0  0
 35 65  1  0  0  0  0
 35 77  1  0  0  0  0
 35 82  2  0  0  0  0
 36 71  1  0  0  0  0
 36 72  1  0  0  0  0
 36 83  2  0  0  0  0
 37 40  1  0  0  0  0
 38 51  1  0  0  0  0
 39 70  1  0  0  0  0
 40 42  1  0  0  0  0
 41 43  1  0  0  0  0
 41 46  1  0  0  0  0
 42 50  1  0  0  0  0
 43 52  1  0  0  0  0
 44 47  1  0  0  0  0
 44 53  1  0  0  0  0
 45 48  1  0  0  0  0
 45 53  1  0  0  0  0
 46 71  1  0  0  0  0
 47 72  1  0  0  0  0
 48 72  1  0  0  0  0
 49 52  1  0  0  0  0
 49 71  1  0  0  0  0
 50 76  1  0  0  0  0
 51 70  1  0  0  0  0
 52 69  1  0  0  0  0
 53 75  1  0  0  0  0
 56 65  1  0  0  0  0
 57 66  1  0  0  0  0
 58 66  1  0  0  0  0
 59 66  1  0  0  0  0
 60 78  1  0  0  0  0
 61 62  1  0  0  0  0
 61 63  1  0  0  0  0
 62 68  1  0  0  0  0
 63 85  1  0  0  0  0
 64 66  1  0  0  0  0
 64 77  1  0  0  0  0
 65 78  1  0  0  0  0
 67 69  1  0  0  0  0
M  CHG  1  78   1
M  ISO  4  36 100  63 101  72 100  85 101
M  END
> <Batch ID>
0151

> <Smiles>
CNC(C)C(=O)NC(C(=O)N1Cc2cc([101O:1][101CH2:1]CCn3cc(C)c(NC4CC[100N:0]([100C:0](=O)N5CCCC(n6nc(-c7ccc(Oc8ccc(F)cc8F)cc7)c(C(N)=O)c6N)C5)CC4)c3C)ccc2CC1C(=O)NC1CCCc2ccccc21)C(C)(C)C

> <Shape>
0.243

> <Color>
0.153

> <Negative vol penalty>
0.000

$$$$

  -OEChem-04052321433D

 89 99  0     1  0  0  0  0  0999 V2000
  -21.5348  -30.1074   14.2922 C   0  0  0  0  0  0  0  0  0  0  0  0
  -22.7060  -29.6446   14.8835 C   0  0  0  0  0  0  0  0  0  0  0  0
  -23.6574  -10.2877   24.4923 C   0  0  0  0  0  0  0  0  0  0  0  0
  -22.7000  -12.2493   23.4566 C   0  0  0  0  0  0  0  0  0  0  0  0
  -20.9757  -31.3151   14.7076 C   0  0  0  0  0  0  0  0  0  0  0  0
  -23.3194  -30.3900   15.8898 C   0  0  0  0  0  0  0  0  0  0  0  0
  -24.7868  -27.5322   19.8045 C   0  0  0  0  0  0  0  0  0  0  0  0
  -23.4137  -10.8341   25.7523 C   0  0  0  0  0  0  0  0  0  0  0  0
  -22.4563  -12.7957   24.7166 C   0  0  0  0  0  0  0  0  0  0  0  0
  -25.9580  -26.7921   19.6488 C   0  0  0  0  0  0  0  0  0  0  0  0
  -20.1773  -12.4384   27.1862 C   0  0  0  0  0  0  0  0  0  0  0  0
  -18.9299  -13.0221   27.4076 C   0  0  0  0  0  0  0  0  0  0  0  0
  -29.4368  -20.2061   22.0087 C   0  0  0  0  0  0  0  0  0  0  0  0
  -28.0407  -20.2449   20.0373 C   0  0  0  0  0  0  0  0  0  0  0  0
  -27.1731  -28.4651   20.8913 C   0  0  0  0  0  0  0  0  0  0  0  0
  -20.0028  -15.1333   27.8860 C   0  0  0  0  0  0  0  0  0  0  0  0
  -23.3006  -10.9954   23.3444 C   0  0  0  0  0  0  0  0  0  0  0  0
  -23.0479   -9.2228   21.5273 C   0  0  0  0  0  0  0  0  0  0  0  0
  -21.5772  -32.0710   15.7261 C   0  0  0  0  0  0  0  0  0  0  0  0
  -24.8021  -28.7518   20.4965 C   0  0  0  0  0  0  0  0  0  0  0  0
  -22.7685  -31.6097   16.3182 C   0  0  0  0  0  0  0  0  0  0  0  0
  -28.7630  -20.9225   21.0196 C   0  0  0  0  0  0  0  0  0  0  0  0
  -26.0003  -29.2175   21.0565 C   0  0  0  0  0  0  0  0  0  0  0  0
  -28.6661  -18.1345   21.0333 C   0  0  0  0  0  0  0  0  0  0  0  0
  -29.3884  -18.8121   22.0156 C   0  0  0  0  0  0  0  0  0  0  0  0
  -27.9923  -18.8509   20.0442 C   0  0  0  0  0  0  0  0  0  0  0  0
  -22.8131  -12.0880   25.8645 C   0  0  0  0  0  0  0  0  0  0  0  0
  -27.1520  -27.2599   20.1897 C   0  0  0  0  0  0  0  0  0  0  0  0
  -21.3374  -13.2021   27.3148 C   0  0  0  0  0  0  0  0  0  0  0  0
  -18.8427  -14.3696   27.7574 C   0  0  0  0  0  0  0  0  0  0  0  0
  -21.2502  -14.5496   27.6646 C   0  0  0  0  0  0  0  0  0  0  0  0
  -23.5526  -10.4318   22.0425 C   0  0  0  0  0  0  0  0  0  0  0  0
  -23.5777   -9.1406   20.2628 C   0  0  0  0  0  0  0  0  0  0  0  0
  -22.1780   -8.2601   22.1373 C   0  0  0  0  0  0  0  0  0  0  0  0
  -24.1690  -31.7719   19.7336 C   0  0  0  0  0  0  0  0  0  0  0  0
  -24.6042  -32.2571   22.9113 C   0  0  0  0  0  0  0  0  0  0  0  0
  -26.0059  -31.2009   25.8381 C   0  0  0  0  0  0  0  0  0  0  0  0
  -26.0864  -14.1199   19.9026 C   0  0  0  0  0  0  0  0  0  0  0  0
  -20.9617  -33.3937   16.1087 C   0  0  0  0  0  0  0  0  0  0  0  0
  -23.5249  -29.5251   20.6787 C   0  0  0  0  0  0  0  0  0  0  0  0
  -26.0661  -30.5107   21.8258 C   0  0  0  0  0  0  0  0  0  0  0  0
  -21.4692  -33.9391   17.4410 C   0  0  0  0  0  0  0  0  0  0  0  0
  -27.5429  -10.7172   19.7701 C   0  0  0  0  0  0  0  0  0  0  0  0
  -27.4224  -23.0624   21.2064 C   0  0  0  0  0  0  0  0  0  0  0  0
  -29.4913  -22.9816   19.7393 C   0  0  0  0  0  0  0  0  0  0  0  0
  -22.9894  -33.8379   17.5150 C   0  0  0  0  0  0  0  0  0  0  0  0
  -26.5413   -9.9928   18.8690 C   0  0  0  0  0  0  0  0  0  0  0  0
  -27.4888  -24.5875   21.2048 C   0  0  0  0  0  0  0  0  0  0  0  0
  -29.5471  -24.5070   19.7459 C   0  0  0  0  0  0  0  0  0  0  0  0
  -29.1632  -15.9661   19.7720 C   0  0  0  0  0  0  0  0  0  0  0  0
  -27.6187  -12.1907   19.4025 C   0  0  0  0  0  0  0  0  0  0  0  0
  -28.5245  -14.5875   19.8036 C   0  0  0  0  0  0  0  0  0  0  0  0
  -27.1965  -16.0471   21.1707 C   0  0  0  0  0  0  0  0  0  0  0  0
  -25.2830  -12.1764   18.6039 C   0  0  0  0  0  0  0  0  0  0  0  0
  -28.8163  -22.4394   21.0117 C   0  0  0  0  0  0  0  0  0  0  0  0
  -28.6135  -16.6268   21.0412 C   0  0  2  0  0  0  0  0  0  0  0  0
  -23.4499  -32.3777   17.4300 C   0  0  1  0  0  0  0  0  0  0  0  0
  -23.7582  -31.0063   20.9595 C   0  0  1  0  0  0  0  0  0  0  0  0
  -25.1477  -10.6612   18.8731 C   0  0  2  0  0  0  0  0  0  0  0  0
  -28.1635  -25.1217   19.9427 C   0  0  0  0  0  0  0  0  0  1  0  0
  -30.1177  -18.0685   23.0865 C   0  0  0  0  0  0  0  0  0  0  0  0
  -27.2117  -18.1490   18.9812 C   0  0  0  0  0  0  0  0  0  0  0  0
  -26.2162  -31.8252   28.2596 C   0  0  0  0  0  0  0  0  0  0  0  0
  -26.6352  -34.4125   22.1768 C   0  0  0  0  0  0  0  0  0  0  0  0
  -27.4796  -34.3211   24.5319 C   0  0  0  0  0  0  0  0  0  0  0  0
  -25.1245  -35.0074   24.0790 C   0  0  0  0  0  0  0  0  0  0  0  0
  -24.6795  -28.7053   26.7165 C   0  0  0  0  0  0  0  0  0  0  0  0
  -25.7867  -32.5845   23.7907 C   0  0  1  0  0  0  0  0  0  0  0  0
  -25.4247  -31.0332   27.2305 C   0  0  2  0  0  0  0  0  0  0  0  0
  -26.2560  -34.0579   23.6285 C   0  0  0  0  0  0  0  0  0  0  0  0
  -24.3424  -11.0717   21.1760 N   0  0  0  0  0  0  0  0  0  0  0  0
  -24.3381  -10.2616   20.1037 N   0  0  0  0  0  0  0  0  0  0  0  0
  -24.7919  -31.2338   21.9714 N   0  0  0  0  0  0  0  0  0  0  0  0
  -26.2945  -12.8090   19.4554 N   0  0  0  0  0  0  0  0  0  0  0  0
  -27.2040  -14.8123   20.3787 N   0  0  0  0  0  0  0  0  0  0  0  0
  -23.4626   -8.2196   19.2826 N   0  0  0  0  0  0  0  0  0  0  0  0
  -21.7263   -8.5000   23.4422 N   0  0  0  0  0  0  0  0  0  0  0  0
  -23.2543  -31.7113   18.6997 N   0  0  0  0  0  0  0  0  0  0  0  0
  -25.3954  -32.2283   25.1502 N   0  0  0  0  0  0  0  0  0  0  0  0
  -25.4405  -29.5972   27.6288 N   0  3  0  0  0  0  0  0  0  0  0  0
  -21.8252   -7.2099   21.5489 O   0  0  0  0  0  0  0  0  0  0  0  0
  -25.2362  -32.3742   19.7269 O   0  0  0  0  0  0  0  0  0  0  0  0
  -23.5504  -32.8813   23.0579 O   0  0  0  0  0  0  0  0  0  0  0  0
  -26.9133  -30.4939   25.4055 O   0  0  0  0  0  0  0  0  0  0  0  0
  -24.9524  -14.6137   19.9350 O   0  0  0  0  0  0  0  0  0  0  0  0
  -22.5750  -12.6213   27.0939 O   0  0  0  0  0  0  0  0  0  0  0  0
  -28.3042  -26.5351   20.0377 O   0  0  0  0  0  0  0  0  0  1  0  0
  -17.6447  -14.9304   27.9685 F   0  0  0  0  0  0  0  0  0  0  0  0
  -22.3611  -15.2886   27.7885 F   0  0  0  0  0  0  0  0  0  0  0  0
  1  2  1  0  0  0  0
  1  5  2  0  0  0  0
  2  6  2  0  0  0  0
  3  8  2  0  0  0  0
  3 17  1  0  0  0  0
  4  9  1  0  0  0  0
  4 17  2  0  0  0  0
  5 19  1  0  0  0  0
  6 21  1  0  0  0  0
  7 10  2  0  0  0  0
  7 20  1  0  0  0  0
  8 27  1  0  0  0  0
  9 27  2  0  0  0  0
 10 28  1  0  0  0  0
 11 12  2  0  0  0  0
 11 29  1  0  0  0  0
 12 30  1  0  0  0  0
 13 22  1  0  0  0  0
 13 25  2  0  0  0  0
 14 22  2  0  0  0  0
 14 26  1  0  0  0  0
 15 23  1  0  0  0  0
 15 28  2  0  0  0  0
 16 30  2  0  0  0  0
 16 31  1  0  0  0  0
 17 32  1  0  0  0  0
 18 32  1  0  0  0  0
 18 33  2  0  0  0  0
 18 34  1  0  0  0  0
 19 21  2  0  0  0  0
 19 39  1  0  0  0  0
 20 23  2  0  0  0  0
 20 40  1  0  0  0  0
 21 57  1  0  0  0  0
 22 55  1  0  0  0  0
 23 41  1  0  0  0  0
 24 25  1  0  0  0  0
 24 26  2  0  0  0  0
 24 56  1  0  0  0  0
 25 61  1  0  0  0  0
 26 62  1  0  0  0  0
 27 86  1  0  0  0  0
 28 87  1  0  0  0  0
 29 31  2  0  0  0  0
 29 86  1  0  0  0  0
 30 88  1  0  0  0  0
 31 89  1  0  0  0  0
 32 71  2  0  0  0  0
 33 72  1  0  0  0  0
 33 76  1  0  0  0  0
 34 77  1  0  0  0  0
 34 81  2  0  0  0  0
 35 58  1  0  0  0  0
 35 78  1  0  0  0  0
 35 82  2  0  0  0  0
 36 68  1  0  0  0  0
 36 73  1  0  0  0  0
 36 83  2  0  0  0  0
 37 69  1  0  0  0  0
 37 79  1  0  0  0  0
 37 84  2  0  0  0  0
 38 74  1  0  0  0  0
 38 75  1  0  0  0  0
 38 85  2  0  0  0  0
 39 42  1  0  0  0  0
 40 58  1  0  0  0  0
 41 73  1  0  0  0  0
 42 46  1  0  0  0  0
 43 47  1  0  0  0  0
 43 51  1  0  0  0  0
 44 48  1  0  0  0  0
 44 55  1  0  0  0  0
 45 49  1  0  0  0  0
 45 55  1  0  0  0  0
 46 57  1  0  0  0  0
 47 59  1  0  0  0  0
 48 60  1  0  0  0  0
 49 60  1  0  0  0  0
 50 52  1  0  0  0  0
 50 56  1  0  0  0  0
 51 74  1  0  0  0  0
 52 75  1  0  0  0  0
 53 56  1  0  0  0  0
 53 75  1  0  0  0  0
 54 59  1  0  0  0  0
 54 74  1  0  0  0  0
 57 78  1  0  0  0  0
 58 73  1  0  0  0  0
 59 72  1  0  0  0  0
 60 87  1  0  0  0  0
 63 69  1  0  0  0  0
 64 70  1  0  0  0  0
 65 70  1  0  0  0  0
 66 70  1  0  0  0  0
 67 80  1  0  0  0  0
 68 70  1  0  0  0  0
 68 79  1  0  0  0  0
 69 80  1  0  0  0  0
 71 72  1  0  0  0  0
M  CHG  1  80   1
M  ISO  4  38 100  60 101  75 100  87 101
M  END
> <Batch ID>
0151

> <Smiles>
CNC(C)C(=O)NC(C(=O)N1Cc2cc([101O:1][101CH:1]3CCC(c4cc(C)c(C5CC[100N:0]([100C:0](=O)N6CCCC(n7nc(-c8ccc(Oc9ccc(F)cc9F)cc8)c(C(N)=O)c7N)C6)C5)c(C)c4)CC3)ccc2CC1C(=O)NC1CCCc2ccccc21)C(C)(C)C

> <Shape>
0.278

> <Color>
0.098

> <Negative vol penalty>
0.000

$$$$

  -OEChem-04052321433D

 84 92  0     1  0  0  0  0  0999 V2000
  -27.9411  -33.4688   27.0009 C   0  0  0  0  0  0  0  0  0  0  0  0
  -27.8340  -32.1967   26.4479 C   0  0  0  0  0  0  0  0  0  0  0  0
  -24.4153   -9.6680   21.6150 C   0  0  0  0  0  0  0  0  0  0  0  0
  -24.7771  -10.8839   23.6712 C   0  0  0  0  0  0  0  0  0  0  0  0
  -26.8635  -34.3508   26.9313 C   0  0  0  0  0  0  0  0  0  0  0  0
  -26.6489  -31.8056   25.8259 C   0  0  0  0  0  0  0  0  0  0  0  0
  -27.4551  -29.4430   21.4199 C   0  0  0  0  0  0  0  0  0  0  0  0
  -24.0660   -8.5335   22.3474 C   0  0  0  0  0  0  0  0  0  0  0  0
  -24.4277   -9.7494   24.4036 C   0  0  0  0  0  0  0  0  0  0  0  0
  -27.8570  -28.1092   21.4768 C   0  0  0  0  0  0  0  0  0  0  0  0
  -22.7303   -5.4235   23.6739 C   0  0  0  0  0  0  0  0  0  0  0  0
  -21.6029   -4.7105   23.2666 C   0  0  0  0  0  0  0  0  0  0  0  0
  -25.5943  -27.4139   21.0121 C   0  0  0  0  0  0  0  0  0  0  0  0
  -29.5697  -23.4787   20.4956 C   0  0  0  0  0  0  0  0  0  0  0  0
  -20.2359   -6.6714   23.6178 C   0  0  0  0  0  0  0  0  0  0  0  0
  -24.7709  -10.8432   22.2769 C   0  0  0  0  0  0  0  0  0  0  0  0
  -24.2725  -13.0346   21.0698 C   0  0  0  0  0  0  0  0  0  0  0  0
  -25.6679  -33.9737   26.2997 C   0  0  0  0  0  0  0  0  0  0  0  0
  -26.1154  -29.7726   21.1690 C   0  0  0  0  0  0  0  0  0  0  0  0
  -25.5538  -32.6829   25.7491 C   0  0  0  0  0  0  0  0  0  0  0  0
  -25.1785  -28.7526   20.9500 C   0  0  0  0  0  0  0  0  0  0  0  0
  -29.7995  -22.1033   20.4654 C   0  0  0  0  0  0  0  0  0  0  0  0
  -28.9278  -24.0547   21.5920 C   0  0  0  0  0  0  0  0  0  0  0  0
  -28.5157  -23.2551   22.6580 C   0  0  0  0  0  0  0  0  0  0  0  0
  -28.7455  -21.8796   22.6278 C   0  0  0  0  0  0  0  0  0  0  0  0
  -29.3874  -21.3037   21.5314 C   0  0  0  0  0  0  0  0  0  0  0  0
  -24.0721   -8.5741   23.7416 C   0  0  0  0  0  0  0  0  0  0  0  0
  -26.9260  -27.0944   21.2758 C   0  0  0  0  0  0  0  0  0  0  0  0
  -22.6106   -6.7605   24.0532 C   0  0  0  0  0  0  0  0  0  0  0  0
  -20.3556   -5.3344   23.2385 C   0  0  0  0  0  0  0  0  0  0  0  0
  -21.3634   -7.3845   24.0251 C   0  0  0  0  0  0  0  0  0  0  0  0
  -25.1324  -12.0154   21.5210 C   0  0  0  0  0  0  0  0  0  0  0  0
  -25.0968  -13.9111   20.4074 C   0  0  0  0  0  0  0  0  0  0  0  0
  -22.8554  -13.1764   21.2348 C   0  0  0  0  0  0  0  0  0  0  0  0
  -23.8410  -31.2989   22.7819 C   0  0  0  0  0  0  0  0  0  0  0  0
  -22.1819  -30.9390   20.0179 C   0  0  0  0  0  0  0  0  0  0  0  0
  -21.7325  -29.2043   17.1135 C   0  0  0  0  0  0  0  0  0  0  0  0
  -29.8412  -16.8321   20.0854 C   0  0  0  0  0  0  0  0  0  0  0  0
  -24.5139  -34.9447   26.2909 C   0  0  0  0  0  0  0  0  0  0  0  0
  -25.7031  -31.2167   21.0843 C   0  0  0  0  0  0  0  0  0  0  0  0
  -23.7321  -29.0539   20.6572 C   0  0  0  0  0  0  0  0  0  0  0  0
  -23.4234  -34.5857   25.2849 C   0  0  0  0  0  0  0  0  0  0  0  0
  -29.9276  -13.4486   18.9804 C   0  0  0  0  0  0  0  0  0  0  0  0
  -23.0775  -33.1030   25.3789 C   0  0  0  0  0  0  0  0  0  0  0  0
  -28.6204  -12.8571   19.5108 C   0  0  0  0  0  0  0  0  0  0  0  0
  -30.5290  -14.4557   19.9581 C   0  0  0  0  0  0  0  0  0  0  0  0
  -28.3074  -14.9430   20.9071 C   0  0  0  0  0  0  0  0  0  0  0  0
  -24.2933  -32.2305   25.0443 C   0  0  1  0  0  0  0  0  0  0  0  0
  -24.2126  -31.4280   21.3318 C   0  0  1  0  0  0  0  0  0  0  0  0
  -27.6340  -13.9634   19.9308 C   0  0  2  0  0  0  0  0  0  0  0  0
  -30.4884  -21.5117   19.2793 C   0  0  0  0  0  0  0  0  0  0  0  0
  -27.8268  -23.8753   23.8322 C   0  0  0  0  0  0  0  0  0  0  0  0
  -28.3039  -21.0219   23.7716 C   0  0  0  0  0  0  0  0  0  0  0  0
  -20.2725  -29.1217   15.0741 C   0  0  0  0  0  0  0  0  0  0  0  0
  -19.9537  -29.6648   21.6675 C   0  0  0  0  0  0  0  0  0  0  0  0
  -18.9878  -28.7656   19.5400 C   0  0  0  0  0  0  0  0  0  0  0  0
  -19.1660  -31.2300   19.8831 C   0  0  0  0  0  0  0  0  0  0  0  0
  -24.0256  -29.7006   15.3096 C   0  0  0  0  0  0  0  0  0  0  0  0
  -28.6936  -25.5367   21.6001 C   0  0  0  0  0  0  0  0  0  1  0  0
  -29.0061  -19.1622   20.2657 C   0  0  0  0  0  0  0  0  0  0  0  0
  -29.6353  -19.8288   21.4965 C   0  0  1  0  0  0  0  0  0  0  0  0
  -21.2623  -29.8837   19.4527 C   0  0  1  0  0  0  0  0  0  0  0  0
  -21.5556  -29.6695   15.6794 C   0  0  2  0  0  0  0  0  0  0  0  0
  -19.8692  -29.8800   20.1432 C   0  0  0  0  0  0  0  0  0  0  0  0
  -26.4054  -12.2237   21.1743 N   0  0  0  0  0  0  0  0  0  0  0  0
  -26.3514  -13.3840   20.4983 N   0  0  0  0  0  0  0  0  0  0  0  0
  -23.3768  -30.4811   20.5909 N   0  0  0  0  0  0  0  0  0  0  0  0
  -29.5431  -15.4788   20.3149 N   0  0  0  0  0  0  0  0  0  0  0  0
  -24.8636  -15.0736   19.7619 N   0  0  0  0  0  0  0  0  0  0  0  0
  -22.1625  -12.1846   21.9423 N   0  0  0  0  0  0  0  0  0  0  0  0
  -24.5025  -32.1827   23.6131 N   0  0  0  0  0  0  0  0  0  0  0  0
  -21.2147  -30.1124   18.0126 N   0  0  0  0  0  0  0  0  0  0  0  0
  -28.8496  -17.7361   20.4463 N   0  0  0  0  0  0  0  0  0  0  0  0
  -22.7017  -29.2150   14.8422 N   0  3  0  0  0  0  0  0  0  0  0  0
  -22.2197  -14.1453   20.7544 O   0  0  0  0  0  0  0  0  0  0  0  0
  -23.0142  -30.4606   23.1214 O   0  0  0  0  0  0  0  0  0  0  0  0
  -21.8555  -32.1265   19.9470 O   0  0  0  0  0  0  0  0  0  0  0  0
  -22.2723  -28.1398   17.4066 O   0  0  0  0  0  0  0  0  0  0  0  0
  -30.9097  -17.2067   19.5904 O   0  0  0  0  0  0  0  0  0  0  0  0
  -31.0483  -19.5932   21.4896 O   0  0  0  0  0  0  0  0  0  0  0  0
  -23.7311   -7.4673   24.4566 O   0  0  0  0  0  0  0  0  0  0  0  0
  -27.3155  -25.7916   21.3314 O   0  0  0  0  0  0  0  0  0  1  0  0
  -19.2732   -4.6500   22.8459 F   0  0  0  0  0  0  0  0  0  0  0  0
  -21.2423   -8.6690   24.3873 F   0  0  0  0  0  0  0  0  0  0  0  0
  1  2  1  0  0  0  0
  1  5  2  0  0  0  0
  2  6  2  0  0  0  0
  3  8  2  0  0  0  0
  3 16  1  0  0  0  0
  4  9  1  0  0  0  0
  4 16  2  0  0  0  0
  5 18  1  0  0  0  0
  6 20  1  0  0  0  0
  7 10  2  0  0  0  0
  7 19  1  0  0  0  0
  8 27  1  0  0  0  0
  9 27  2  0  0  0  0
 10 28  1  0  0  0  0
 11 12  2  0  0  0  0
 11 29  1  0  0  0  0
 12 30  1  0  0  0  0
 13 21  1  0  0  0  0
 13 28  2  0  0  0  0
 14 22  2  0  0  0  0
 14 23  1  0  0  0  0
 15 30  2  0  0  0  0
 15 31  1  0  0  0  0
 16 32  1  0  0  0  0
 17 32  1  0  0  0  0
 17 33  2  0  0  0  0
 17 34  1  0  0  0  0
 18 20  2  0  0  0  0
 18 39  1  0  0  0  0
 19 21  2  0  0  0  0
 19 40  1  0  0  0  0
 20 48  1  0  0  0  0
 21 41  1  0  0  0  0
 22 26  1  0  0  0  0
 22 51  1  0  0  0  0
 23 24  2  0  0  0  0
 23 59  1  0  0  0  0
 24 25  1  0  0  0  0
 24 52  1  0  0  0  0
 25 26  2  0  0  0  0
 25 53  1  0  0  0  0
 26 61  1  0  0  0  0
 27 81  1  0  0  0  0
 28 82  1  0  0  0  0
 29 31  2  0  0  0  0
 29 81  1  0  0  0  0
 30 83  1  0  0  0  0
 31 84  1  0  0  0  0
 32 65  2  0  0  0  0
 33 66  1  0  0  0  0
 33 69  1  0  0  0  0
 34 70  1  0  0  0  0
 34 75  2  0  0  0  0
 35 49  1  0  0  0  0
 35 71  1  0  0  0  0
 35 76  2  0  0  0  0
 36 62  1  0  0  0  0
 36 67  1  0  0  0  0
 36 77  2  0  0  0  0
 37 63  1  0  0  0  0
 37 72  1  0  0  0  0
 37 78  2  0  0  0  0
 38 68  1  0  0  0  0
 38 73  1  0  0  0  0
 38 79  2  0  0  0  0
 39 42  1  0  0  0  0
 40 49  1  0  0  0  0
 41 67  1  0  0  0  0
 42 44  1  0  0  0  0
 43 45  1  0  0  0  0
 43 46  1  0  0  0  0
 44 48  1  0  0  0  0
 45 50  1  0  0  0  0
 46 68  1  0  0  0  0
 47 50  1  0  0  0  0
 47 68  1  0  0  0  0
 48 71  1  0  0  0  0
 49 67  1  0  0  0  0
 50 66  1  0  0  0  0
 54 63  1  0  0  0  0
 55 64  1  0  0  0  0
 56 64  1  0  0  0  0
 57 64  1  0  0  0  0
 58 74  1  0  0  0  0
 59 82  1  0  0  0  0
 60 61  1  0  0  0  0
 60 73  1  0  0  0  0
 61 80  1  0  0  0  0
 62 64  1  0  0  0  0
 62 72  1  0  0  0  0
 63 74  1  0  0  0  0
 65 66  1  0  0  0  0
M  CHG  1  74   1
M  ISO  4  38 100  59 101  73 100  82 101
M  END
> <Batch ID>
0151

> <Smiles>
CNC(C)C(=O)NC(C(=O)N1Cc2cc([101O:1][101CH2:1]c3cc(C)c(C(O)C[100NH:0][100C:0](=O)N4CCCC(n5nc(-c6ccc(Oc7ccc(F)cc7F)cc6)c(C(N)=O)c5N)C4)c(C)c3C)ccc2CC1C(=O)NC1CCCc2ccccc21)C(C)(C)C

> <Shape>
0.303

> <Color>
0.123

> <Negative vol penalty>
0.000

$$$$

  -OEChem-04052321433D

 87 96  0     1  0  0  0  0  0999 V2000
  -29.2757  -31.2291   20.0914 C   0  0  0  0  0  0  0  0  0  0  0  0
  -29.0755  -29.9766   20.6628 C   0  0  0  0  0  0  0  0  0  0  0  0
  -23.1913   -9.8621   19.9119 C   0  0  0  0  0  0  0  0  0  0  0  0
  -23.9637   -9.8506   22.2011 C   0  0  0  0  0  0  0  0  0  0  0  0
  -28.1805  -32.0204   19.7477 C   0  0  0  0  0  0  0  0  0  0  0  0
  -27.7797  -29.5151   20.8919 C   0  0  0  0  0  0  0  0  0  0  0  0
  -27.1560  -24.6931   19.4761 C   0  0  0  0  0  0  0  0  0  0  0  0
  -22.5156   -8.6622   20.1339 C   0  0  0  0  0  0  0  0  0  0  0  0
  -23.2880   -8.6507   22.4231 C   0  0  0  0  0  0  0  0  0  0  0  0
  -27.6499  -23.7093   20.3317 C   0  0  0  0  0  0  0  0  0  0  0  0
  -20.1141   -7.6547   23.0188 C   0  0  0  0  0  0  0  0  0  0  0  0
  -19.3679   -7.5404   24.1917 C   0  0  0  0  0  0  0  0  0  0  0  0
  -25.4266  -23.3555   21.1984 C   0  0  0  0  0  0  0  0  0  0  0  0
  -20.7217   -5.6576   24.8694 C   0  0  0  0  0  0  0  0  0  0  0  0
  -23.9154  -10.4563   20.9455 C   0  0  0  0  0  0  0  0  0  0  0  0
  -24.1127  -12.9991   20.8926 C   0  0  0  0  0  0  0  0  0  0  0  0
  -26.8705  -31.5644   19.9639 C   0  0  0  0  0  0  0  0  0  0  0  0
  -25.7932  -25.0237   19.4830 C   0  0  0  0  0  0  0  0  0  0  0  0
  -26.6659  -30.3017   20.5521 C   0  0  0  0  0  0  0  0  0  0  0  0
  -24.9175  -24.3421   20.3402 C   0  0  0  0  0  0  0  0  0  0  0  0
  -29.2523  -19.4179   22.4979 C   0  0  0  0  0  0  0  0  0  0  0  0
  -28.9901  -20.7097   22.9404 C   0  0  0  0  0  0  0  0  0  0  0  0
  -22.5639   -8.0565   21.3895 C   0  0  0  0  0  0  0  0  0  0  0  0
  -26.7857  -23.0424   21.1951 C   0  0  0  0  0  0  0  0  0  0  0  0
  -21.1641   -6.7705   22.7711 C   0  0  0  0  0  0  0  0  0  0  0  0
  -29.5508  -18.4205   23.4195 C   0  0  0  0  0  0  0  0  0  0  0  0
  -19.6717   -6.5418   25.1170 C   0  0  0  0  0  0  0  0  0  0  0  0
  -21.4679   -5.7719   23.6964 C   0  0  0  0  0  0  0  0  0  0  0  0
  -24.6141  -11.6955   20.7167 C   0  0  0  0  0  0  0  0  0  0  0  0
  -29.0386  -20.9505   24.3040 C   0  0  0  0  0  0  0  0  0  0  0  0
  -29.5744  -18.7638   24.7617 C   0  0  0  0  0  0  0  0  0  0  0  0
  -25.1583  -13.8190   20.5447 C   0  0  0  0  0  0  0  0  0  0  0  0
  -22.8176  -13.4304   21.3313 C   0  0  0  0  0  0  0  0  0  0  0  0
  -24.1258  -27.6521   20.1273 C   0  0  0  0  0  0  0  0  0  0  0  0
  -21.6314  -25.8529   19.0963 C   0  0  0  0  0  0  0  0  0  0  0  0
  -20.3182  -22.7453   18.5812 C   0  0  0  0  0  0  0  0  0  0  0  0
  -30.9310  -14.0893   20.8868 C   0  0  0  0  0  0  0  0  0  0  0  0
  -25.7187  -32.4752   19.6195 C   0  0  0  0  0  0  0  0  0  0  0  0
  -25.2717  -26.0685   18.5350 C   0  0  0  0  0  0  0  0  0  0  0  0
  -23.4426  -24.6454   20.3718 C   0  0  0  0  0  0  0  0  0  0  0  0
  -24.3737  -31.7566   19.5503 C   0  0  0  0  0  0  0  0  0  0  0  0
  -29.2656  -13.2733   17.8475 C   0  0  0  0  0  0  0  0  0  0  0  0
  -24.1939  -30.8426   20.7582 C   0  0  0  0  0  0  0  0  0  0  0  0
  -27.8498  -12.9044   18.2939 C   0  0  0  0  0  0  0  0  0  0  0  0
  -27.9092  -19.3239   20.3002 C   0  0  0  0  0  0  0  0  0  0  0  0
  -28.3571  -17.9268   20.5962 C   0  0  0  0  0  0  0  0  0  0  0  0
  -30.3141  -12.8106   18.8568 C   0  0  0  0  0  0  0  0  0  0  0  0
  -28.6667  -12.8936   20.6879 C   0  0  0  0  0  0  0  0  0  0  0  0
  -25.2753  -29.7558   20.7934 C   0  0  1  0  0  0  0  0  0  0  0  0
  -23.9525  -26.6841   18.9912 C   0  0  1  0  0  0  0  0  0  0  0  0
  -27.5703  -13.3889   19.7293 C   0  0  2  0  0  0  0  0  0  0  0  0
  -29.2135  -19.0967   21.0383 C   0  0  0  0  0  0  0  0  0  0  0  0
  -28.7668  -22.3187   24.8388 C   0  0  0  0  0  0  0  0  0  0  0  0
  -29.8887  -17.7308   25.7938 C   0  0  0  0  0  0  0  0  0  0  0  0
  -30.4966  -19.3523   20.3015 C   0  0  0  0  0  0  0  0  0  0  0  0
  -18.2442  -21.5942   17.7621 C   0  0  0  0  0  0  0  0  0  0  0  0
  -20.2275  -26.5191   21.7221 C   0  0  0  0  0  0  0  0  0  0  0  0
  -18.6440  -24.6325   21.2736 C   0  0  0  0  0  0  0  0  0  0  0  0
  -18.7484  -26.5703   19.7062 C   0  0  0  0  0  0  0  0  0  0  0  0
  -21.7859  -21.4119   16.3842 C   0  0  0  0  0  0  0  0  0  0  0  0
  -28.6645  -21.8088   21.9722 C   0  0  0  0  0  0  0  0  0  1  0  0
  -31.3986  -15.3421   22.9775 C   0  0  0  0  0  0  0  0  0  0  0  0
  -31.1722  -16.8229   22.7306 C   0  0  0  0  0  0  0  0  0  0  0  0
  -20.6526  -24.9077   19.7502 C   0  0  1  0  0  0  0  0  0  0  0  0
  -19.6138  -22.1354   17.3827 C   0  0  2  0  0  0  0  0  0  0  0  0
  -19.5962  -25.6528   20.6140 C   0  0  0  0  0  0  0  0  0  0  0  0
  -25.8797  -11.6830   20.2900 N   0  0  0  0  0  0  0  0  0  0  0  0
  -29.3251  -20.0075   25.2294 N   0  0  0  0  0  0  0  0  0  0  0  0
  -26.1824  -12.9889   20.1949 N   0  0  0  0  0  0  0  0  0  0  0  0
  -22.9820  -25.6795   19.4305 N   0  0  0  0  0  0  0  0  0  0  0  0
  -29.9915  -13.3050   20.1975 N   0  0  0  0  0  0  0  0  0  0  0  0
  -25.2924  -15.1617   20.5069 N   0  0  0  0  0  0  0  0  0  0  0  0
  -21.8610  -12.4564   21.6484 N   0  0  0  0  0  0  0  0  0  0  0  0
  -24.9701  -28.7083   19.8427 N   0  0  0  0  0  0  0  0  0  0  0  0
  -20.0843  -24.1009   18.6757 N   0  0  0  0  0  0  0  0  0  0  0  0
  -30.5431  -14.5221   22.1489 N   0  0  0  0  0  0  0  0  0  0  0  0
  -20.4221  -21.0165   16.8209 N   0  3  0  0  0  0  0  0  0  0  0  0
  -22.5123  -14.6436   21.4231 O   0  0  0  0  0  0  0  0  0  0  0  0
  -23.5360  -27.4560   21.1834 O   0  0  0  0  0  0  0  0  0  0  0  0
  -21.2138  -26.7087   18.3121 O   0  0  0  0  0  0  0  0  0  0  0  0
  -21.0040  -22.0845   19.3581 O   0  0  0  0  0  0  0  0  0  0  0  0
  -32.0318  -14.3865   20.4105 O   0  0  0  0  0  0  0  0  0  0  0  0
  -21.9045   -6.8858   21.6065 O   0  0  0  0  0  0  0  0  0  0  0  0
  -27.2652  -22.0822   22.0317 O   0  0  0  0  0  0  0  0  0  1  0  0
  -29.8121  -17.1489   23.0169 O   0  0  0  0  0  0  0  0  0  0  0  0
  -18.9561   -6.4331   26.2440 F   0  0  0  0  0  0  0  0  0  0  0  0
  -22.4762   -4.9202   23.4646 F   0  0  0  0  0  0  0  0  0  0  0  0
  1  2  1  0  0  0  0
  1  5  2  0  0  0  0
  2  6  2  0  0  0  0
  3  8  2  0  0  0  0
  3 15  1  0  0  0  0
  4  9  1  0  0  0  0
  4 15  2  0  0  0  0
  5 17  1  0  0  0  0
  6 19  1  0  0  0  0
  7 10  2  0  0  0  0
  7 18  1  0  0  0  0
  8 23  1  0  0  0  0
  9 23  2  0  0  0  0
 10 24  1  0  0  0  0
 11 12  2  0  0  0  0
 11 25  1  0  0  0  0
 12 27  1  0  0  0  0
 13 20  1  0  0  0  0
 13 24  2  0  0  0  0
 14 27  2  0  0  0  0
 14 28  1  0  0  0  0
 15 29  1  0  0  0  0
 16 29  1  0  0  0  0
 16 32  2  0  0  0  0
 16 33  1  0  0  0  0
 17 19  2  0  0  0  0
 17 38  1  0  0  0  0
 18 20  2  0  0  0  0
 18 39  1  0  0  0  0
 19 49  1  0  0  0  0
 20 40  1  0  0  0  0
 21 22  2  0  0  0  0
 21 26  1  0  0  0  0
 21 52  1  0  0  0  0
 22 30  1  0  0  0  0
 22 61  1  0  0  0  0
 23 83  1  0  0  0  0
 24 84  1  0  0  0  0
 25 28  2  0  0  0  0
 25 83  1  0  0  0  0
 26 31  2  0  0  0  0
 26 85  1  0  0  0  0
 27 86  1  0  0  0  0
 28 87  1  0  0  0  0
 29 67  2  0  0  0  0
 30 53  1  0  0  0  0
 30 68  2  0  0  0  0
 31 54  1  0  0  0  0
 31 68  1  0  0  0  0
 32 69  1  0  0  0  0
 32 72  1  0  0  0  0
 33 73  1  0  0  0  0
 33 78  2  0  0  0  0
 34 50  1  0  0  0  0
 34 74  1  0  0  0  0
 34 79  2  0  0  0  0
 35 64  1  0  0  0  0
 35 70  1  0  0  0  0
 35 80  2  0  0  0  0
 36 65  1  0  0  0  0
 36 75  1  0  0  0  0
 36 81  2  0  0  0  0
 37 71  1  0  0  0  0
 37 76  1  0  0  0  0
 37 82  2  0  0  0  0
 38 41  1  0  0  0  0
 39 50  1  0  0  0  0
 40 70  1  0  0  0  0
 41 43  1  0  0  0  0
 42 44  1  0  0  0  0
 42 47  1  0  0  0  0
 43 49  1  0  0  0  0
 44 51  1  0  0  0  0
 45 46  1  0  0  0  0
 45 52  1  0  0  0  0
 46 52  1  0  0  0  0
 47 71  1  0  0  0  0
 48 51  1  0  0  0  0
 48 71  1  0  0  0  0
 49 74  1  0  0  0  0
 50 70  1  0  0  0  0
 51 69  1  0  0  0  0
 52 55  1  0  0  0  0
 56 65  1  0  0  0  0
 57 66  1  0  0  0  0
 58 66  1  0  0  0  0
 59 66  1  0  0  0  0
 60 77  1  0  0  0  0
 61 84  1  0  0  0  0
 62 63  1  0  0  0  0
 62 76  1  0  0  0  0
 63 85  1  0  0  0  0
 64 66  1  0  0  0  0
 64 75  1  0  0  0  0
 65 77  1  0  0  0  0
 67 69  1  0  0  0  0
M  CHG  1  77   1
M  ISO  4  37 100  61 101  76 100  84 101
M  END
> <Batch ID>
0151

> <Smiles>
CNC(C)C(=O)NC(C(=O)N1Cc2cc([101O:1][101CH2:1]c3c(C)nc(C)c(OCC[100NH:0][100C:0](=O)N4CCCC(n5nc(-c6ccc(Oc7ccc(F)cc7F)cc6)c(C(N)=O)c5N)C4)c3C3(C)CC3)ccc2CC1C(=O)NC1CCCc2ccccc21)C(C)(C)C

> <Shape>
0.279

> <Color>
0.185

> <Negative vol penalty>
0.000

$$$$

  -OEChem-04052321433D

 90 99  0     1  0  0  0  0  0999 V2000
  -23.8931  -29.7893   18.3817 C   0  0  0  0  0  0  0  0  0  0  0  0
  -24.3122  -29.0535   19.4856 C   0  0  0  0  0  0  0  0  0  0  0  0
  -22.6586  -10.2520   20.2676 C   0  0  0  0  0  0  0  0  0  0  0  0
  -24.1928   -9.6856   22.0460 C   0  0  0  0  0  0  0  0  0  0  0  0
  -22.9049  -30.7619   18.5281 C   0  0  0  0  0  0  0  0  0  0  0  0
  -23.7440  -29.2907   20.7367 C   0  0  0  0  0  0  0  0  0  0  0  0
  -22.5738  -25.0130   23.1815 C   0  0  0  0  0  0  0  0  0  0  0  0
  -21.8898   -9.1290   20.5731 C   0  0  0  0  0  0  0  0  0  0  0  0
  -23.4239   -8.5626   22.3516 C   0  0  0  0  0  0  0  0  0  0  0  0
  -23.6191  -24.3239   23.7949 C   0  0  0  0  0  0  0  0  0  0  0  0
  -20.5555   -7.8844   24.0046 C   0  0  0  0  0  0  0  0  0  0  0  0
  -20.2802   -7.6356   25.3491 C   0  0  0  0  0  0  0  0  0  0  0  0
  -28.8576  -18.5274   24.5386 C   0  0  0  0  0  0  0  0  0  0  0  0
  -28.5712  -19.8606   22.5443 C   0  0  0  0  0  0  0  0  0  0  0  0
  -22.9904  -25.2748   25.9209 C   0  0  0  0  0  0  0  0  0  0  0  0
  -21.3925   -5.4974   25.1812 C   0  0  0  0  0  0  0  0  0  0  0  0
  -23.8102  -10.5303   21.0040 C   0  0  0  0  0  0  0  0  0  0  0  0
  -24.1921  -13.0356   20.7115 C   0  0  0  0  0  0  0  0  0  0  0  0
  -22.3175  -31.0044   19.7798 C   0  0  0  0  0  0  0  0  0  0  0  0
  -21.7343  -25.8482   23.9327 C   0  0  0  0  0  0  0  0  0  0  0  0
  -22.7480  -30.2684   20.9002 C   0  0  0  0  0  0  0  0  0  0  0  0
  -28.3000  -19.6310   23.8931 C   0  0  0  0  0  0  0  0  0  0  0  0
  -21.9337  -25.9714   25.3151 C   0  0  0  0  0  0  0  0  0  0  0  0
  -29.9578  -17.8829   22.4864 C   0  0  0  0  0  0  0  0  0  0  0  0
  -22.2724   -8.2843   21.6151 C   0  0  0  0  0  0  0  0  0  0  0  0
  -23.8293  -24.4569   25.1643 C   0  0  0  0  0  0  0  0  0  0  0  0
  -21.2492   -6.9397   23.2482 C   0  0  0  0  0  0  0  0  0  0  0  0
  -29.6866  -17.6534   23.8353 C   0  0  0  0  0  0  0  0  0  0  0  0
  -29.4001  -18.9865   21.8409 C   0  0  0  0  0  0  0  0  0  0  0  0
  -20.6987   -6.4421   25.9375 C   0  0  0  0  0  0  0  0  0  0  0  0
  -21.6677   -5.7462   23.8365 C   0  0  0  0  0  0  0  0  0  0  0  0
  -24.6051  -11.6899   20.6886 C   0  0  0  0  0  0  0  0  0  0  0  0
  -25.3074  -13.7435   20.3355 C   0  0  0  0  0  0  0  0  0  0  0  0
  -22.9145  -13.5955   21.0431 C   0  0  0  0  0  0  0  0  0  0  0  0
  -21.0596  -28.9543   23.9128 C   0  0  0  0  0  0  0  0  0  0  0  0
  -18.8589  -28.0933   26.1348 C   0  0  0  0  0  0  0  0  0  0  0  0
  -17.8705  -25.8624   28.5208 C   0  0  0  0  0  0  0  0  0  0  0  0
  -30.7945  -14.7106   20.6551 C   0  0  0  0  0  0  0  0  0  0  0  0
  -21.2864  -32.0988   19.8980 C   0  0  0  0  0  0  0  0  0  0  0  0
  -20.5947  -26.5638   23.2606 C   0  0  0  0  0  0  0  0  0  0  0  0
  -21.0480  -26.8396   26.1698 C   0  0  0  0  0  0  0  0  0  0  0  0
  -20.4691  -32.0291   21.1854 C   0  0  0  0  0  0  0  0  0  0  0  0
  -29.7116  -12.1691   18.4091 C   0  0  0  0  0  0  0  0  0  0  0  0
  -25.9707  -20.6054   24.0832 C   0  0  0  0  0  0  0  0  0  0  0  0
  -27.9897  -22.0013   24.7267 C   0  0  0  0  0  0  0  0  0  0  0  0
  -21.3830  -31.8089   22.3866 C   0  0  0  0  0  0  0  0  0  0  0  0
  -28.2552  -11.9248   18.8079 C   0  0  0  0  0  0  0  0  0  0  0  0
  -25.0705  -21.5586   24.8651 C   0  0  0  0  0  0  0  0  0  0  0  0
  -27.0790  -22.9469   25.5056 C   0  0  0  0  0  0  0  0  0  0  0  0
  -30.5870  -12.4677   19.6242 C   0  0  0  0  0  0  0  0  0  0  0  0
  -28.6461  -13.3213   20.8805 C   0  0  0  0  0  0  0  0  0  0  0  0
  -27.3981  -20.5821   24.6585 C   0  0  0  0  0  0  0  0  0  0  0  0
  -22.1381  -30.4794   22.2690 C   0  0  1  0  0  0  0  0  0  0  0  0
  -20.1189  -27.7891   24.0350 C   0  0  1  0  0  0  0  0  0  0  0  0
  -27.7136  -13.0712   19.6830 C   0  0  2  0  0  0  0  0  0  0  0  0
  -25.6631  -22.9649   24.9347 C   0  0  0  0  0  0  0  0  0  1  0  0
  -29.9408  -14.2652   25.0231 C   0  0  0  0  0  0  0  0  0  0  0  0
  -28.9766  -18.8087   18.2659 C   0  0  0  0  0  0  0  0  0  0  0  0
  -16.0473  -25.4465   30.1943 C   0  0  0  0  0  0  0  0  0  0  0  0
  -20.0522  -30.2262   27.9614 C   0  0  0  0  0  0  0  0  0  0  0  0
  -18.8698  -29.1423   29.8837 C   0  0  0  0  0  0  0  0  0  0  0  0
  -17.5546  -30.1031   27.9943 C   0  0  0  0  0  0  0  0  0  0  0  0
  -17.1022  -23.3153   27.2242 C   0  0  0  0  0  0  0  0  0  0  0  0
  -30.8454  -16.9460   21.7320 C   0  0  0  0  0  0  0  0  0  0  0  0
  -29.3093  -15.6409   25.0450 C   0  0  0  0  0  0  0  0  0  0  0  0
  -28.5325  -19.2542   19.6428 C   0  0  0  0  0  0  0  0  0  0  0  0
  -18.8526  -27.9628   27.6388 C   0  0  1  0  0  0  0  0  0  0  0  0
  -16.5351  -25.1875   28.7774 C   0  0  2  0  0  0  0  0  0  0  0  0
  -18.8504  -29.3437   28.3534 C   0  0  0  0  0  0  0  0  0  0  0  0
  -25.8830  -11.5489   20.3265 N   0  0  0  0  0  0  0  0  0  0  0  0
  -26.2826  -12.8150   20.1184 N   0  0  0  0  0  0  0  0  0  0  0  0
  -19.9512  -27.5239   25.4653 N   0  0  0  0  0  0  0  0  0  0  0  0
  -30.0189  -13.5653   20.4107 N   0  0  0  0  0  0  0  0  0  0  0  0
  -25.5393  -15.0634   20.1727 N   0  0  0  0  0  0  0  0  0  0  0  0
  -22.6629  -13.9419   22.3777 N   0  0  0  0  0  0  0  0  0  0  0  0
  -21.2705  -29.3733   22.6130 N   0  0  0  0  0  0  0  0  0  0  0  0
  -17.7114  -27.1166   27.9704 N   0  0  0  0  0  0  0  0  0  0  0  0
  -30.1781  -15.7061   21.4033 N   0  0  0  0  0  0  0  0  0  0  0  0
  -16.6533  -23.7146   28.5829 N   0  3  0  0  0  0  0  0  0  0  0  0
  -22.0166  -13.7680   20.1844 O   0  0  0  0  0  0  0  0  0  0  0  0
  -21.5562  -29.4385   24.9231 O   0  0  0  0  0  0  0  0  0  0  0  0
  -17.9252  -28.6726   25.5741 O   0  0  0  0  0  0  0  0  0  0  0  0
  -18.9469  -25.3317   28.7859 O   0  0  0  0  0  0  0  0  0  0  0  0
  -31.9487  -14.8390   20.2330 O   0  0  0  0  0  0  0  0  0  0  0  0
  -21.5223   -7.1885   21.9136 O   0  0  0  0  0  0  0  0  0  0  0  0
  -24.8492  -23.7859   25.7654 O   0  0  0  0  0  0  0  0  0  1  0  0
  -30.2226  -16.5802   24.4816 O   0  0  0  0  0  0  0  0  0  0  0  0
  -29.6536  -19.2270   20.5239 O   0  0  0  0  0  0  0  0  0  0  0  0
  -20.4357   -6.2040   27.2291 F   0  0  0  0  0  0  0  0  0  0  0  0
  -22.3355   -4.8354   23.1153 F   0  0  0  0  0  0  0  0  0  0  0  0
  1  2  1  0  0  0  0
  1  5  2  0  0  0  0
  2  6  2  0  0  0  0
  3  8  2  0  0  0  0
  3 17  1  0  0  0  0
  4  9  1  0  0  0  0
  4 17  2  0  0  0  0
  5 19  1  0  0  0  0
  6 21  1  0  0  0  0
  7 10  2  0  0  0  0
  7 20  1  0  0  0  0
  8 25  1  0  0  0  0
  9 25  2  0  0  0  0
 10 26  1  0  0  0  0
 11 12  2  0  0  0  0
 11 27  1  0  0  0  0
 12 30  1  0  0  0  0
 13 22  2  0  0  0  0
 13 28  1  0  0  0  0
 14 22  1  0  0  0  0
 14 29  2  0  0  0  0
 15 23  1  0  0  0  0
 15 26  2  0  0  0  0
 16 30  2  0  0  0  0
 16 31  1  0  0  0  0
 17 32  1  0  0  0  0
 18 32  1  0  0  0  0
 18 33  2  0  0  0  0
 18 34  1  0  0  0  0
 19 21  2  0  0  0  0
 19 39  1  0  0  0  0
 20 23  2  0  0  0  0
 20 40  1  0  0  0  0
 21 53  1  0  0  0  0
 22 52  1  0  0  0  0
 23 41  1  0  0  0  0
 24 28  2  0  0  0  0
 24 29  1  0  0  0  0
 24 64  1  0  0  0  0
 25 85  1  0  0  0  0
 26 86  1  0  0  0  0
 27 31  2  0  0  0  0
 27 85  1  0  0  0  0
 28 87  1  0  0  0  0
 29 88  1  0  0  0  0
 30 89  1  0  0  0  0
 31 90  1  0  0  0  0
 32 70  2  0  0  0  0
 33 71  1  0  0  0  0
 33 74  1  0  0  0  0
 34 75  1  0  0  0  0
 34 80  2  0  0  0  0
 35 54  1  0  0  0  0
 35 76  1  0  0  0  0
 35 81  2  0  0  0  0
 36 67  1  0  0  0  0
 36 72  1  0  0  0  0
 36 82  2  0  0  0  0
 37 68  1  0  0  0  0
 37 77  1  0  0  0  0
 37 83  2  0  0  0  0
 38 73  1  0  0  0  0
 38 78  1  0  0  0  0
 38 84  2  0  0  0  0
 39 42  1  0  0  0  0
 40 54  1  0  0  0  0
 41 72  1  0  0  0  0
 42 46  1  0  0  0  0
 43 47  1  0  0  0  0
 43 50  1  0  0  0  0
 44 48  1  0  0  0  0
 44 52  1  0  0  0  0
 45 49  1  0  0  0  0
 45 52  1  0  0  0  0
 46 53  1  0  0  0  0
 47 55  1  0  0  0  0
 48 56  1  0  0  0  0
 49 56  1  0  0  0  0
 50 73  1  0  0  0  0
 51 55  1  0  0  0  0
 51 73  1  0  0  0  0
 53 76  1  0  0  0  0
 54 72  1  0  0  0  0
 55 71  1  0  0  0  0
 56 86  1  0  0  0  0
 57 65  1  0  0  0  0
 58 66  1  0  0  0  0
 59 68  1  0  0  0  0
 60 69  1  0  0  0  0
 61 69  1  0  0  0  0
 62 69  1  0  0  0  0
 63 79  1  0  0  0  0
 64 78  1  0  0  0  0
 65 87  1  0  0  0  0
 66 88  1  0  0  0  0
 67 69  1  0  0  0  0
 67 77  1  0  0  0  0
 68 79  1  0  0  0  0
 70 71  1  0  0  0  0
M  CHG  1  79   1
M  ISO  4  38 100  56 101  78 100  86 101
M  END
> <Batch ID>
0151

> <Smiles>
CCOc1cc(C2CC[101CH:1]([101O:1]c3ccc4c(c3)CN(C(=O)C(NC(=O)C(C)NC)C(C)(C)C)C(C(=O)NC3CCCc5ccccc53)C4)CC2)cc(OCC)c1C[100NH:0][100C:0](=O)N1CCCC(n2nc(-c3ccc(Oc4ccc(F)cc4F)cc3)c(C(N)=O)c2N)C1

> <Shape>
0.267

> <Color>
0.187

> <Negative vol penalty>
0.000

$$$$

  -OEChem-04052321433D

 92103  0     1  0  0  0  0  0999 V2000
  -18.8404  -23.8355   23.1957 C   0  0  0  0  0  0  0  0  0  0  0  0
  -20.2186  -23.8368   23.0056 C   0  0  0  0  0  0  0  0  0  0  0  0
  -23.6039  -12.8657   23.0899 C   0  0  0  0  0  0  0  0  0  0  0  0
  -21.7556  -11.9278   21.8485 C   0  0  0  0  0  0  0  0  0  0  0  0
  -18.1060  -24.9993   22.9722 C   0  0  0  0  0  0  0  0  0  0  0  0
  -20.8629  -25.0017   22.5907 C   0  0  0  0  0  0  0  0  0  0  0  0
  -25.1080  -25.9078   25.1990 C   0  0  0  0  0  0  0  0  0  0  0  0
  -23.5162  -11.8209   24.0099 C   0  0  0  0  0  0  0  0  0  0  0  0
  -21.6678  -10.8830   22.7685 C   0  0  0  0  0  0  0  0  0  0  0  0
  -26.2381  -25.1681   24.8530 C   0  0  0  0  0  0  0  0  0  0  0  0
  -21.1904   -7.7730   24.5901 C   0  0  0  0  0  0  0  0  0  0  0  0
  -21.0400   -6.4793   24.0909 C   0  0  0  0  0  0  0  0  0  0  0  0
  -27.0639  -27.0394   23.5742 C   0  0  0  0  0  0  0  0  0  0  0  0
  -23.1374   -6.6910   22.9106 C   0  0  0  0  0  0  0  0  0  0  0  0
  -22.7236  -12.9191   22.0092 C   0  0  0  0  0  0  0  0  0  0  0  0
  -23.5856  -14.0331   19.8823 C   0  0  0  0  0  0  0  0  0  0  0  0
  -18.7430  -26.1817   22.5637 C   0  0  0  0  0  0  0  0  0  0  0  0
  -24.9420  -27.2172   24.7255 C   0  0  0  0  0  0  0  0  0  0  0  0
  -20.1362  -26.1821   22.3603 C   0  0  0  0  0  0  0  0  0  0  0  0
  -25.9321  -27.7945   23.9177 C   0  0  0  0  0  0  0  0  0  0  0  0
  -27.9061  -19.5931   20.4909 C   0  0  0  0  0  0  0  0  0  0  0  0
  -27.8871  -18.4065   19.7868 C   0  0  0  0  0  0  0  0  0  0  0  0
  -29.1437  -20.1053   20.8734 C   0  0  0  0  0  0  0  0  0  0  0  0
  -22.5482  -10.8295   23.8491 C   0  0  0  0  0  0  0  0  0  0  0  0
  -27.2148  -25.7329   24.0381 C   0  0  0  0  0  0  0  0  0  0  0  0
  -22.3142   -8.5258   24.2495 C   0  0  0  0  0  0  0  0  0  0  0  0
  -22.0135   -5.9382   23.2512 C   0  0  0  0  0  0  0  0  0  0  0  0
  -23.2877   -7.9847   23.4098 C   0  0  0  0  0  0  0  0  0  0  0  0
  -22.8133  -13.9984   21.0588 C   0  0  0  0  0  0  0  0  0  0  0  0
  -29.0901  -17.7691   19.5029 C   0  0  0  0  0  0  0  0  0  0  0  0
  -30.2953  -19.3928   20.5378 C   0  0  0  0  0  0  0  0  0  0  0  0
  -23.3251  -15.2664   19.3369 C   0  0  0  0  0  0  0  0  0  0  0  0
  -24.4602  -13.0394   19.3318 C   0  0  0  0  0  0  0  0  0  0  0  0
  -22.8069  -28.6818   22.8816 C   0  0  0  0  0  0  0  0  0  0  0  0
  -24.4885  -31.3300   23.7070 C   0  0  0  0  0  0  0  0  0  0  0  0
  -27.4370  -32.6718   24.7808 C   0  0  0  0  0  0  0  0  0  0  0  0
  -22.3254  -20.6686   20.7207 C   0  0  0  0  0  0  0  0  0  0  0  0
  -17.9008  -27.4024   22.2890 C   0  0  0  0  0  0  0  0  0  0  0  0
  -23.7301  -28.0112   25.1296 C   0  0  0  0  0  0  0  0  0  0  0  0
  -26.7228  -17.6199   19.2859 C   0  0  0  0  0  0  0  0  0  0  0  0
  -25.8111  -29.2036   23.3998 C   0  0  0  0  0  0  0  0  0  0  0  0
  -28.8479  -16.4740   18.7822 C   0  0  0  0  0  0  0  0  0  0  0  0
  -18.7088  -28.6952   22.2124 C   0  0  0  0  0  0  0  0  0  0  0  0
  -27.4121  -16.6846   18.2787 C   0  0  0  0  0  0  0  0  0  0  0  0
  -19.7139  -18.6021   19.7926 C   0  0  0  0  0  0  0  0  0  0  0  0
  -28.5430  -21.3071   23.0195 C   0  0  0  0  0  0  0  0  0  0  0  0
  -28.6844  -22.5947   20.8374 C   0  0  0  0  0  0  0  0  0  0  0  0
  -19.9467  -28.5003   21.3425 C   0  0  0  0  0  0  0  0  0  0  0  0
  -20.3076  -17.1976   19.9023 C   0  0  0  0  0  0  0  0  0  0  0  0
  -28.6469  -22.6191   23.7929 C   0  0  0  0  0  0  0  0  0  0  0  0
  -28.7881  -23.8998   21.6223 C   0  0  0  0  0  0  0  0  0  0  0  0
  -25.8446  -20.7493   19.5787 C   0  0  0  0  0  0  0  0  0  0  0  0
  -25.7130  -19.4609   21.7520 C   0  0  0  0  0  0  0  0  0  0  0  0
  -20.1657  -19.4787   20.9553 C   0  0  0  0  0  0  0  0  0  0  0  0
  -24.5339  -21.4450   19.9385 C   0  0  0  0  0  0  0  0  0  0  0  0
  -24.4073  -20.1864   22.0635 C   0  0  0  0  0  0  0  0  0  0  0  0
  -22.2562  -18.1821   21.2053 C   0  0  0  0  0  0  0  0  0  0  0  0
  -26.6135  -20.3086   20.8362 C   0  0  0  0  0  0  0  0  0  0  0  0
  -29.2342  -21.4074   21.6480 C   0  0  0  0  0  0  0  0  0  0  0  0
  -20.8745  -27.4326   21.9347 C   0  0  1  0  0  0  0  0  0  0  0  0
  -23.4180  -29.1553   24.1699 C   0  0  1  0  0  0  0  0  0  0  0  0
  -21.8387  -17.2552   20.0462 C   0  0  1  0  0  0  0  0  0  0  0  0
  -28.1047  -23.7958   22.9836 C   0  0  0  0  0  0  0  0  0  1  0  0
  -31.6389  -19.9123   20.9369 C   0  0  0  0  0  0  0  0  0  0  0  0
  -28.5182  -34.8697   25.3262 C   0  0  0  0  0  0  0  0  0  0  0  0
  -24.7642  -31.9308   20.7283 C   0  0  0  0  0  0  0  0  0  0  0  0
  -26.5994  -33.5373   21.2932 C   0  0  0  0  0  0  0  0  0  0  0  0
  -24.2919  -33.9289   22.1561 C   0  0  0  0  0  0  0  0  0  0  0  0
  -27.9130  -31.8725   27.5903 C   0  0  0  0  0  0  0  0  0  0  0  0
  -25.6817  -32.0591   23.1382 C   0  0  1  0  0  0  0  0  0  0  0  0
  -27.7466  -33.6790   25.8735 C   0  0  2  0  0  0  0  0  0  0  0  0
  -25.3360  -32.8368   21.8370 C   0  0  0  0  0  0  0  0  0  0  0  0
  -22.1146  -15.1206   21.2503 N   0  0  0  0  0  0  0  0  0  0  0  0
  -30.3041  -18.2204   19.8588 N   0  0  0  0  0  0  0  0  0  0  0  0
  -22.4470  -15.8720   20.1869 N   0  0  0  0  0  0  0  0  0  0  0  0
  -24.6049  -29.9371   23.8175 N   0  0  0  0  0  0  0  0  0  0  0  0
  -21.6243  -19.5020   21.0620 N   0  0  0  0  0  0  0  0  0  0  0  0
  -23.7243  -20.6248   20.8387 N   0  0  0  0  0  0  0  0  0  0  0  0
  -23.7637  -15.8812   18.2179 N   0  0  0  0  0  0  0  0  0  0  0  0
  -24.6131  -11.8284   20.0205 N   0  0  0  0  0  0  0  0  0  0  0  0
  -21.6292  -27.9772   23.0430 N   0  0  0  0  0  0  0  0  0  0  0  0
  -26.1999  -32.8963   24.2148 N   0  0  0  0  0  0  0  0  0  0  0  0
  -28.5618  -33.0441   26.9474 N   0  3  0  0  0  0  0  0  0  0  0  0
  -25.1003  -13.2264   18.2693 O   0  0  0  0  0  0  0  0  0  0  0  0
  -23.3619  -28.9380   21.8195 O   0  0  0  0  0  0  0  0  0  0  0  0
  -23.4927  -31.9733   24.0476 O   0  0  0  0  0  0  0  0  0  0  0  0
  -28.2164  -31.7777   24.4588 O   0  0  0  0  0  0  0  0  0  0  0  0
  -21.7406  -21.6862   20.3290 O   0  0  0  0  0  0  0  0  0  0  0  0
  -22.4625   -9.8098   24.7465 O   0  0  0  0  0  0  0  0  0  0  0  0
  -28.3257  -25.0082   23.6961 O   0  0  0  0  0  0  0  0  0  1  0  0
  -21.8697   -4.6953   22.7731 F   0  0  0  0  0  0  0  0  0  0  0  0
  -24.3702   -8.7026   23.0800 F   0  0  0  0  0  0  0  0  0  0  0  0
  1  2  1  0  0  0  0
  1  5  2  0  0  0  0
  2  6  2  0  0  0  0
  3  8  2  0  0  0  0
  3 15  1  0  0  0  0
  4  9  1  0  0  0  0
  4 15  2  0  0  0  0
  5 17  1  0  0  0  0
  6 19  1  0  0  0  0
  7 10  2  0  0  0  0
  7 18  1  0  0  0  0
  8 24  1  0  0  0  0
  9 24  2  0  0  0  0
 10 25  1  0  0  0  0
 11 12  2  0  0  0  0
 11 26  1  0  0  0  0
 12 27  1  0  0  0  0
 13 20  1  0  0  0  0
 13 25  2  0  0  0  0
 14 27  2  0  0  0  0
 14 28  1  0  0  0  0
 15 29  1  0  0  0  0
 16 29  1  0  0  0  0
 16 32  2  0  0  0  0
 16 33  1  0  0  0  0
 17 19  2  0  0  0  0
 17 38  1  0  0  0  0
 18 20  2  0  0  0  0
 18 39  1  0  0  0  0
 19 60  1  0  0  0  0
 20 41  1  0  0  0  0
 21 22  1  0  0  0  0
 21 23  2  0  0  0  0
 21 58  1  0  0  0  0
 22 30  2  0  0  0  0
 22 40  1  0  0  0  0
 23 31  1  0  0  0  0
 23 59  1  0  0  0  0
 24 89  1  0  0  0  0
 25 90  1  0  0  0  0
 26 28  2  0  0  0  0
 26 89  1  0  0  0  0
 27 91  1  0  0  0  0
 28 92  1  0  0  0  0
 29 73  2  0  0  0  0
 30 42  1  0  0  0  0
 30 74  1  0  0  0  0
 31 64  1  0  0  0  0
 31 74  2  0  0  0  0
 32 75  1  0  0  0  0
 32 79  1  0  0  0  0
 33 80  1  0  0  0  0
 33 84  2  0  0  0  0
 34 61  1  0  0  0  0
 34 81  1  0  0  0  0
 34 85  2  0  0  0  0
 35 70  1  0  0  0  0
 35 76  1  0  0  0  0
 35 86  2  0  0  0  0
 36 71  1  0  0  0  0
 36 82  1  0  0  0  0
 36 87  2  0  0  0  0
 37 77  1  0  0  0  0
 37 78  1  0  0  0  0
 37 88  2  0  0  0  0
 38 43  1  0  0  0  0
 39 61  1  0  0  0  0
 40 44  1  0  0  0  0
 41 76  1  0  0  0  0
 42 44  1  0  0  0  0
 43 48  1  0  0  0  0
 45 49  1  0  0  0  0
 45 54  1  0  0  0  0
 46 50  1  0  0  0  0
 46 59  1  0  0  0  0
 47 51  1  0  0  0  0
 47 59  1  0  0  0  0
 48 60  1  0  0  0  0
 49 62  1  0  0  0  0
 50 63  1  0  0  0  0
 51 63  1  0  0  0  0
 52 55  1  0  0  0  0
 52 58  1  0  0  0  0
 53 56  1  0  0  0  0
 53 58  1  0  0  0  0
 54 77  1  0  0  0  0
 55 78  1  0  0  0  0
 56 78  1  0  0  0  0
 57 62  1  0  0  0  0
 57 77  1  0  0  0  0
 60 81  1  0  0  0  0
 61 76  1  0  0  0  0
 62 75  1  0  0  0  0
 63 90  1  0  0  0  0
 65 71  1  0  0  0  0
 66 72  1  0  0  0  0
 67 72  1  0  0  0  0
 68 72  1  0  0  0  0
 69 83  1  0  0  0  0
 70 72  1  0  0  0  0
 70 82  1  0  0  0  0
 71 83  1  0  0  0  0
 73 75  1  0  0  0  0
M  CHG  1  83   1
M  ISO  4  37 100  63 101  78 100  90 101
M  END
> <Batch ID>
0151

> <Smiles>
CNC(C)C(=O)NC(C(=O)N1Cc2cc([101O:1][101CH:1]3CCC(c4c(C)nc5c(c4C4CC[100N:0]([100C:0](=O)N6CCCC(n7nc(-c8ccc(Oc9ccc(F)cc9F)cc8)c(C(N)=O)c7N)C6)CC4)CCC5)CC3)ccc2CC1C(=O)NC1CCCc2ccccc21)C(C)(C)C

> <Shape>
0.236

> <Color>
0.063

> <Negative vol penalty>
0.000

$$$$

  -OEChem-04052321433D

 85 94  0     1  0  0  0  0  0999 V2000
  -16.9687  -30.5699   23.2530 C   0  0  0  0  0  0  0  0  0  0  0  0
  -18.2502  -31.0007   22.9249 C   0  0  0  0  0  0  0  0  0  0  0  0
  -26.1583  -12.9358   19.4796 C   0  0  0  0  0  0  0  0  0  0  0  0
  -24.4566  -14.6470   19.5916 C   0  0  0  0  0  0  0  0  0  0  0  0
  -16.7392  -29.2253   23.5419 C   0  0  0  0  0  0  0  0  0  0  0  0
  -19.3031  -30.0873   22.8865 C   0  0  0  0  0  0  0  0  0  0  0  0
  -25.4240  -28.7667   19.4069 C   0  0  0  0  0  0  0  0  0  0  0  0
  -25.1705  -11.9515   19.5091 C   0  0  0  0  0  0  0  0  0  0  0  0
  -23.4687  -13.6627   19.6211 C   0  0  0  0  0  0  0  0  0  0  0  0
  -26.7711  -28.5092   19.6570 C   0  0  0  0  0  0  0  0  0  0  0  0
  -23.1991  -10.4701   21.8207 C   0  0  0  0  0  0  0  0  0  0  0  0
  -23.3972   -9.3793   22.6671 C   0  0  0  0  0  0  0  0  0  0  0  0
  -26.2413  -26.1973   20.0971 C   0  0  0  0  0  0  0  0  0  0  0  0
  -29.5711  -23.0443   19.6107 C   0  0  0  0  0  0  0  0  0  0  0  0
  -23.3120   -7.8895   20.7671 C   0  0  0  0  0  0  0  0  0  0  0  0
  -25.8014  -14.2836   19.5209 C   0  0  0  0  0  0  0  0  0  0  0  0
  -27.3701  -15.9213   18.3528 C   0  0  0  0  0  0  0  0  0  0  0  0
  -17.7880  -28.2933   23.4975 C   0  0  0  0  0  0  0  0  0  0  0  0
  -24.4722  -27.7421   19.5108 C   0  0  0  0  0  0  0  0  0  0  0  0
  -19.0876  -28.7292   23.1763 C   0  0  0  0  0  0  0  0  0  0  0  0
  -24.8831  -26.4438   19.8452 C   0  0  0  0  0  0  0  0  0  0  0  0
  -30.0038  -24.2935   19.1798 C   0  0  0  0  0  0  0  0  0  0  0  0
  -30.8055  -25.0696   20.0093 C   0  0  0  0  0  0  0  0  0  0  0  0
  -23.8257  -12.3149   19.5798 C   0  0  0  0  0  0  0  0  0  0  0  0
  -27.1796  -27.2250   20.0050 C   0  0  0  0  0  0  0  0  0  0  0  0
  -23.0573  -10.2706   20.4474 C   0  0  0  0  0  0  0  0  0  0  0  0
  -23.4537   -8.0890   22.1403 C   0  0  0  0  0  0  0  0  0  0  0  0
  -23.1138   -8.9803   19.9206 C   0  0  0  0  0  0  0  0  0  0  0  0
  -26.8214  -15.3008   19.4911 C   0  0  0  0  0  0  0  0  0  0  0  0
  -31.1437  -24.5553   21.2506 C   0  0  0  0  0  0  0  0  0  0  0  0
  -29.9648  -22.6206   20.8698 C   0  0  0  0  0  0  0  0  0  0  0  0
  -28.2922  -16.8066   18.8553 C   0  0  0  0  0  0  0  0  0  0  0  0
  -27.0728  -15.7159   16.9653 C   0  0  0  0  0  0  0  0  0  0  0  0
  -21.9155  -27.2314   21.3291 C   0  0  0  0  0  0  0  0  0  0  0  0
  -21.5298  -24.6624   19.3864 C   0  0  0  0  0  0  0  0  0  0  0  0
  -22.9486  -22.3895   17.2726 C   0  0  0  0  0  0  0  0  0  0  0  0
  -29.7914  -20.7233   22.5180 C   0  0  0  0  0  0  0  0  0  0  0  0
  -17.5003  -26.8588   23.8637 C   0  0  0  0  0  0  0  0  0  0  0  0
  -23.0266  -28.0302   19.2117 C   0  0  0  0  0  0  0  0  0  0  0  0
  -23.9036  -25.3045   19.9504 C   0  0  0  0  0  0  0  0  0  0  0  0
  -18.5983  -25.8888   23.4350 C   0  0  0  0  0  0  0  0  0  0  0  0
  -30.1453  -17.3300   23.5365 C   0  0  0  0  0  0  0  0  0  0  0  0
  -19.9712  -26.4358   23.8128 C   0  0  0  0  0  0  0  0  0  0  0  0
  -32.9802  -24.6354   23.0658 C   0  0  0  0  0  0  0  0  0  0  0  0
  -31.7576  -25.2625   23.6592 C   0  0  0  0  0  0  0  0  0  0  0  0
  -29.3572  -16.5506   22.4812 C   0  0  0  0  0  0  0  0  0  0  0  0
  -29.4790  -18.6632   23.8720 C   0  0  0  0  0  0  0  0  0  0  0  0
  -28.3972  -18.7394   21.6599 C   0  0  0  0  0  0  0  0  0  0  0  0
  -20.2509  -27.7643   23.0999 C   0  0  1  0  0  0  0  0  0  0  0  0
  -32.0020  -25.3547   22.1776 C   0  0  0  0  0  0  0  0  0  0  0  0
  -22.0726  -27.0248   19.8491 C   0  0  1  0  0  0  0  0  0  0  0  0
  -29.0640  -17.4187   21.2419 C   0  0  2  0  0  0  0  0  0  0  0  0
  -29.5954  -24.7772   17.8277 C   0  0  0  0  0  0  0  0  0  0  0  0
  -32.8216  -26.4555   19.4573 C   0  0  0  0  0  0  0  0  0  0  0  0
  -22.3868  -20.3873   15.8680 C   0  0  0  0  0  0  0  0  0  0  0  0
  -21.3999  -22.9382   21.9004 C   0  0  0  0  0  0  0  0  0  0  0  0
  -21.7959  -20.9297   20.4591 C   0  0  0  0  0  0  0  0  0  0  0  0
  -19.7514  -22.3192   20.1246 C   0  0  0  0  0  0  0  0  0  0  0  0
  -23.7880  -23.7546   14.7845 C   0  0  0  0  0  0  0  0  0  0  0  0
  -30.8048  -27.5797   20.4754 C   0  0  0  0  0  0  0  0  0  0  0  0
  -29.4001  -28.0672   20.1329 C   0  0  0  0  0  0  0  0  0  1  0  0
  -31.2918  -26.4376   19.5628 C   0  0  2  0  0  0  0  0  0  0  0  0
  -21.9986  -23.2275   19.4056 C   0  0  1  0  0  0  0  0  0  0  0  0
  -22.5367  -21.9004   15.8958 C   0  0  2  0  0  0  0  0  0  0  0  0
  -21.2549  -22.3753   20.4724 C   0  0  0  0  0  0  0  0  0  0  0  0
  -27.3508  -15.7534   20.6308 N   0  0  0  0  0  0  0  0  0  0  0  0
  -30.7426  -23.3465   21.7039 N   0  0  0  0  0  0  0  0  0  0  0  0
  -28.2420  -16.6677   20.2111 N   0  0  0  0  0  0  0  0  0  0  0  0
  -22.5005  -25.6379   19.6546 N   0  0  0  0  0  0  0  0  0  0  0  0
  -29.2358  -19.4331   22.6501 N   0  0  0  0  0  0  0  0  0  0  0  0
  -29.1331  -17.6824   18.2652 N   0  0  0  0  0  0  0  0  0  0  0  0
  -26.0984  -14.7681   16.6240 N   0  0  0  0  0  0  0  0  0  0  0  0
  -29.5198  -21.3460   21.3002 N   0  0  0  0  0  0  0  0  0  0  0  0
  -20.6246  -27.5295   21.7216 N   0  0  0  0  0  0  0  0  0  0  0  0
  -21.8561  -22.7332   18.0405 N   0  0  0  0  0  0  0  0  0  0  0  0
  -23.5562  -22.2904   14.8812 N   0  3  0  0  0  0  0  0  0  0  0  0
  -27.6658  -16.3421   16.0544 O   0  0  0  0  0  0  0  0  0  0  0  0
  -22.8929  -27.1265   22.0608 O   0  0  0  0  0  0  0  0  0  0  0  0
  -20.3475  -24.9090   19.1354 O   0  0  0  0  0  0  0  0  0  0  0  0
  -24.1219  -22.4563   17.6324 O   0  0  0  0  0  0  0  0  0  0  0  0
  -30.4817  -21.2269   23.4078 O   0  0  0  0  0  0  0  0  0  0  0  0
  -22.8615  -11.3547   19.6083 O   0  0  0  0  0  0  0  0  0  0  0  0
  -28.4939  -26.9711   20.2503 O   0  0  0  0  0  0  0  0  0  1  0  0
  -23.6455   -7.0417   22.9531 F   0  0  0  0  0  0  0  0  0  0  0  0
  -22.9795   -8.7825   18.6021 F   0  0  0  0  0  0  0  0  0  0  0  0
  1  2  1  0  0  0  0
  1  5  2  0  0  0  0
  2  6  2  0  0  0  0
  3  8  2  0  0  0  0
  3 16  1  0  0  0  0
  4  9  1  0  0  0  0
  4 16  2  0  0  0  0
  5 18  1  0  0  0  0
  6 20  1  0  0  0  0
  7 10  2  0  0  0  0
  7 19  1  0  0  0  0
  8 24  1  0  0  0  0
  9 24  2  0  0  0  0
 10 25  1  0  0  0  0
 11 12  2  0  0  0  0
 11 26  1  0  0  0  0
 12 27  1  0  0  0  0
 13 21  1  0  0  0  0
 13 25  2  0  0  0  0
 14 22  2  0  0  0  0
 14 31  1  0  0  0  0
 15 27  2  0  0  0  0
 15 28  1  0  0  0  0
 16 29  1  0  0  0  0
 17 29  1  0  0  0  0
 17 32  2  0  0  0  0
 17 33  1  0  0  0  0
 18 20  2  0  0  0  0
 18 38  1  0  0  0  0
 19 21  2  0  0  0  0
 19 39  1  0  0  0  0
 20 49  1  0  0  0  0
 21 40  1  0  0  0  0
 22 23  1  0  0  0  0
 22 53  1  0  0  0  0
 23 30  2  0  0  0  0
 23 62  1  0  0  0  0
 24 82  1  0  0  0  0
 25 83  1  0  0  0  0
 26 28  2  0  0  0  0
 26 82  1  0  0  0  0
 27 84  1  0  0  0  0
 28 85  1  0  0  0  0
 29 66  2  0  0  0  0
 30 50  1  0  0  0  0
 30 67  1  0  0  0  0
 31 67  2  0  0  0  0
 31 73  1  0  0  0  0
 32 68  1  0  0  0  0
 32 71  1  0  0  0  0
 33 72  1  0  0  0  0
 33 77  2  0  0  0  0
 34 51  1  0  0  0  0
 34 74  1  0  0  0  0
 34 78  2  0  0  0  0
 35 63  1  0  0  0  0
 35 69  1  0  0  0  0
 35 79  2  0  0  0  0
 36 64  1  0  0  0  0
 36 75  1  0  0  0  0
 36 80  2  0  0  0  0
 37 70  1  0  0  0  0
 37 73  1  0  0  0  0
 37 81  2  0  0  0  0
 38 41  1  0  0  0  0
 39 51  1  0  0  0  0
 40 69  1  0  0  0  0
 41 43  1  0  0  0  0
 42 46  1  0  0  0  0
 42 47  1  0  0  0  0
 43 49  1  0  0  0  0
 44 45  1  0  0  0  0
 44 50  1  0  0  0  0
 45 50  1  0  0  0  0
 46 52  1  0  0  0  0
 47 70  1  0  0  0  0
 48 52  1  0  0  0  0
 48 70  1  0  0  0  0
 49 74  1  0  0  0  0
 51 69  1  0  0  0  0
 52 68  1  0  0  0  0
 54 62  1  0  0  0  0
 55 64  1  0  0  0  0
 56 65  1  0  0  0  0
 57 65  1  0  0  0  0
 58 65  1  0  0  0  0
 59 76  1  0  0  0  0
 60 61  1  0  0  0  0
 60 62  1  0  0  0  0
 61 83  1  0  0  0  0
 63 65  1  0  0  0  0
 63 75  1  0  0  0  0
 64 76  1  0  0  0  0
 66 68  1  0  0  0  0
M  CHG  1  76   1
M  ISO  4  37 100  61 101  73 100  83 101
M  END
> <Batch ID>
0151

> <Smiles>
CNC(C)C(=O)NC(C(=O)N1Cc2cc([101O:1][101CH2:1]CC(C)c3c(C)cc([100NH:0][100C:0](=O)N4CCCC(n5nc(-c6ccc(Oc7ccc(F)cc7F)cc6)c(C(N)=O)c5N)C4)nc3C3CC3)ccc2CC1C(=O)NC1CCCc2ccccc21)C(C)(C)C

> <Shape>
0.249

> <Color>
0.071

> <Negative vol penalty>
0.000

$$$$

  -OEChem-04052321433D

 87 96  0     1  0  0  0  0  0999 V2000
  -17.4334  -29.0402   24.3714 C   0  0  0  0  0  0  0  0  0  0  0  0
  -18.4312  -28.2297   23.8394 C   0  0  0  0  0  0  0  0  0  0  0  0
  -24.3783   -9.2778   22.2341 C   0  0  0  0  0  0  0  0  0  0  0  0
  -23.9462   -9.1824   19.8590 C   0  0  0  0  0  0  0  0  0  0  0  0
  -17.2262  -30.3186   23.8551 C   0  0  0  0  0  0  0  0  0  0  0  0
  -19.2217  -28.6970   22.7900 C   0  0  0  0  0  0  0  0  0  0  0  0
  -25.1425  -27.4737   21.8136 C   0  0  0  0  0  0  0  0  0  0  0  0
  -23.2826   -8.4466   22.4668 C   0  0  0  0  0  0  0  0  0  0  0  0
  -22.8505   -8.3512   20.0917 C   0  0  0  0  0  0  0  0  0  0  0  0
  -25.7865  -26.5609   20.9795 C   0  0  0  0  0  0  0  0  0  0  0  0
  -22.5742   -5.1461   22.2726 C   0  0  0  0  0  0  0  0  0  0  0  0
  -22.7392   -4.0926   23.1717 C   0  0  0  0  0  0  0  0  0  0  0  0
  -26.0547  -28.2832   19.3118 C   0  0  0  0  0  0  0  0  0  0  0  0
  -28.4405  -24.5772   17.3559 C   0  0  0  0  0  0  0  0  0  0  0  0
  -20.9814   -5.0007   24.5584 C   0  0  0  0  0  0  0  0  0  0  0  0
  -24.7101   -9.6458   20.9301 C   0  0  0  0  0  0  0  0  0  0  0  0
  -27.1741  -10.1120   20.4622 C   0  0  0  0  0  0  0  0  0  0  0  0
  -18.0209  -30.8054   22.8053 C   0  0  0  0  0  0  0  0  0  0  0  0
  -24.9397  -28.7976   21.3979 C   0  0  0  0  0  0  0  0  0  0  0  0
  -19.0240  -29.9826   22.2583 C   0  0  0  0  0  0  0  0  0  0  0  0
  -25.4101  -29.2115   20.1436 C   0  0  0  0  0  0  0  0  0  0  0  0
  -29.1376  -23.8350   16.4026 C   0  0  0  0  0  0  0  0  0  0  0  0
  -27.7689  -23.9272   18.3914 C   0  0  0  0  0  0  0  0  0  0  0  0
  -27.7943  -22.5350   18.4734 C   0  0  0  0  0  0  0  0  0  0  0  0
  -29.1630  -22.4428   16.4846 C   0  0  0  0  0  0  0  0  0  0  0  0
  -28.4913  -21.7927   17.5201 C   0  0  0  0  0  0  0  0  0  0  0  0
  -22.5188   -7.9833   21.3957 C   0  0  0  0  0  0  0  0  0  0  0  0
  -26.2402  -26.9648   19.7272 C   0  0  0  0  0  0  0  0  0  0  0  0
  -21.6128   -6.1270   22.5164 C   0  0  0  0  0  0  0  0  0  0  0  0
  -21.9428   -4.0199   24.3146 C   0  0  0  0  0  0  0  0  0  0  0  0
  -20.8165   -6.0543   23.6592 C   0  0  0  0  0  0  0  0  0  0  0  0
  -25.8414  -10.5049   20.6891 C   0  0  0  0  0  0  0  0  0  0  0  0
  -27.8554  -11.2921   20.2900 C   0  0  0  0  0  0  0  0  0  0  0  0
  -27.7451   -8.7978   20.4116 C   0  0  0  0  0  0  0  0  0  0  0  0
  -22.3871  -30.6150   20.8644 C   0  0  0  0  0  0  0  0  0  0  0  0
  -24.6118  -32.9393   20.4513 C   0  0  0  0  0  0  0  0  0  0  0  0
  -27.8320  -33.7629   19.6773 C   0  0  0  0  0  0  0  0  0  0  0  0
  -28.4475  -16.2118   18.2188 C   0  0  0  0  0  0  0  0  0  0  0  0
  -17.7283  -32.1763   22.2488 C   0  0  0  0  0  0  0  0  0  0  0  0
  -24.2669  -29.7769   22.3203 C   0  0  0  0  0  0  0  0  0  0  0  0
  -25.2352  -30.6267   19.6585 C   0  0  0  0  0  0  0  0  0  0  0  0
  -18.8562  -32.7370   21.3864 C   0  0  0  0  0  0  0  0  0  0  0  0
  -26.4376  -16.0727   21.0963 C   0  0  0  0  0  0  0  0  0  0  0  0
  -19.3493  -31.6824   20.4007 C   0  0  0  0  0  0  0  0  0  0  0  0
  -26.2055  -14.5682   21.2323 C   0  0  0  0  0  0  0  0  0  0  0  0
  -26.3739  -16.5329   19.6390 C   0  0  0  0  0  0  0  0  0  0  0  0
  -29.5833  -19.7388   18.3668 C   0  0  0  0  0  0  0  0  0  0  0  0
  -27.2347  -19.6823   17.5143 C   0  0  0  0  0  0  0  0  0  0  0  0
  -29.7549  -18.2843   17.9371 C   0  0  0  0  0  0  0  0  0  0  0  0
  -27.4518  -18.2345   17.0886 C   0  0  0  0  0  0  0  0  0  0  0  0
  -27.0408  -14.2790   18.8688 C   0  0  0  0  0  0  0  0  0  0  0  0
  -19.9185  -30.4631   21.1362 C   0  0  1  0  0  0  0  0  0  0  0  0
  -23.6570  -30.9670   21.5862 C   0  0  1  0  0  0  0  0  0  0  0  0
  -27.1569  -13.7775   20.3166 C   0  0  2  0  0  0  0  0  0  0  0  0
  -29.8484  -24.5559   15.3042 C   0  0  0  0  0  0  0  0  0  0  0  0
  -27.0715  -21.8436   19.5869 C   0  0  0  0  0  0  0  0  0  0  0  0
  -29.1522  -21.5514   14.1412 C   0  0  0  0  0  0  0  0  0  0  0  0
  -29.3422  -35.7455   19.3842 C   0  0  0  0  0  0  0  0  0  0  0  0
  -23.3232  -33.5179   17.7467 C   0  0  0  0  0  0  0  0  0  0  0  0
  -25.3839  -34.7923   17.1159 C   0  0  0  0  0  0  0  0  0  0  0  0
  -23.9905  -35.5513   19.0407 C   0  0  0  0  0  0  0  0  0  0  0  0
  -29.6244  -32.8658   21.8548 C   0  0  0  0  0  0  0  0  0  0  0  0
  -29.9128  -21.6522   15.4585 C   0  0  0  0  0  0  0  0  0  0  0  0
  -27.0301  -24.7458   19.3991 C   0  0  0  0  0  0  0  0  0  1  0  0
  -25.4015  -33.4669   19.2778 C   0  0  1  0  0  0  0  0  0  0  0  0
  -28.8237  -34.6932   20.3520 C   0  0  2  0  0  0  0  0  0  0  0  0
  -24.5265  -34.3049   18.3033 C   0  0  0  0  0  0  0  0  0  0  0  0
  -25.6834  -11.8309   20.6641 N   0  0  0  0  0  0  0  0  0  0  0  0
  -26.9257  -12.2816   20.4195 N   0  0  0  0  0  0  0  0  0  0  0  0
  -28.5168  -20.3947   17.6024 N   0  0  0  0  0  0  0  0  0  0  0  0
  -24.5657  -31.5453   20.5942 N   0  0  0  0  0  0  0  0  0  0  0  0
  -27.2666  -15.7242   18.7981 N   0  0  0  0  0  0  0  0  0  0  0  0
  -28.4800  -17.5782   17.8989 N   0  0  0  0  0  0  0  0  0  0  0  0
  -29.1530  -11.5696   20.0421 N   0  0  0  0  0  0  0  0  0  0  0  0
  -26.9028   -7.6953   20.6099 N   0  0  0  0  0  0  0  0  0  0  0  0
  -21.2471  -30.7480   21.6341 N   0  0  0  0  0  0  0  0  0  0  0  0
  -26.5330  -34.1952   19.8415 N   0  0  0  0  0  0  0  0  0  0  0  0
  -29.9866  -33.9206   20.8734 N   0  3  0  0  0  0  0  0  0  0  0  0
  -28.9690   -8.6075   20.2132 O   0  0  0  0  0  0  0  0  0  0  0  0
  -22.4375  -30.2512   19.6953 O   0  0  0  0  0  0  0  0  0  0  0  0
  -24.0622  -33.7350   21.2171 O   0  0  0  0  0  0  0  0  0  0  0  0
  -28.1755  -32.7556   19.0626 O   0  0  0  0  0  0  0  0  0  0  0  0
  -29.4167  -15.4736   18.0024 O   0  0  0  0  0  0  0  0  0  0  0  0
  -21.4497   -7.1719   21.6224 O   0  0  0  0  0  0  0  0  0  0  0  0
  -26.8731  -26.0694   18.9050 O   0  0  0  0  0  0  0  0  0  1  0  0
  -22.1003   -3.0072   25.1771 F   0  0  0  0  0  0  0  0  0  0  0  0
  -19.8905   -6.9930   23.8982 F   0  0  0  0  0  0  0  0  0  0  0  0
  1  2  1  0  0  0  0
  1  5  2  0  0  0  0
  2  6  2  0  0  0  0
  3  8  2  0  0  0  0
  3 16  1  0  0  0  0
  4  9  1  0  0  0  0
  4 16  2  0  0  0  0
  5 18  1  0  0  0  0
  6 20  1  0  0  0  0
  7 10  2  0  0  0  0
  7 19  1  0  0  0  0
  8 27  1  0  0  0  0
  9 27  2  0  0  0  0
 10 28  1  0  0  0  0
 11 12  2  0  0  0  0
 11 29  1  0  0  0  0
 12 30  1  0  0  0  0
 13 21  1  0  0  0  0
 13 28  2  0  0  0  0
 14 22  2  0  0  0  0
 14 23  1  0  0  0  0
 15 30  2  0  0  0  0
 15 31  1  0  0  0  0
 16 32  1  0  0  0  0
 17 32  1  0  0  0  0
 17 33  2  0  0  0  0
 17 34  1  0  0  0  0
 18 20  2  0  0  0  0
 18 39  1  0  0  0  0
 19 21  2  0  0  0  0
 19 40  1  0  0  0  0
 20 52  1  0  0  0  0
 21 41  1  0  0  0  0
 22 25  1  0  0  0  0
 22 55  1  0  0  0  0
 23 24  2  0  0  0  0
 23 64  1  0  0  0  0
 24 26  1  0  0  0  0
 24 56  1  0  0  0  0
 25 26  2  0  0  0  0
 25 63  1  0  0  0  0
 26 70  1  0  0  0  0
 27 84  1  0  0  0  0
 28 85  1  0  0  0  0
 29 31  2  0  0  0  0
 29 84  1  0  0  0  0
 30 86  1  0  0  0  0
 31 87  1  0  0  0  0
 32 68  2  0  0  0  0
 33 69  1  0  0  0  0
 33 74  1  0  0  0  0
 34 75  1  0  0  0  0
 34 79  2  0  0  0  0
 35 53  1  0  0  0  0
 35 76  1  0  0  0  0
 35 80  2  0  0  0  0
 36 65  1  0  0  0  0
 36 71  1  0  0  0  0
 36 81  2  0  0  0  0
 37 66  1  0  0  0  0
 37 77  1  0  0  0  0
 37 82  2  0  0  0  0
 38 72  1  0  0  0  0
 38 73  1  0  0  0  0
 38 83  2  0  0  0  0
 39 42  1  0  0  0  0
 40 53  1  0  0  0  0
 41 71  1  0  0  0  0
 42 44  1  0  0  0  0
 43 45  1  0  0  0  0
 43 46  1  0  0  0  0
 44 52  1  0  0  0  0
 45 54  1  0  0  0  0
 46 72  1  0  0  0  0
 47 49  1  0  0  0  0
 47 70  1  0  0  0  0
 48 50  1  0  0  0  0
 48 70  1  0  0  0  0
 49 73  1  0  0  0  0
 50 73  1  0  0  0  0
 51 54  1  0  0  0  0
 51 72  1  0  0  0  0
 52 76  1  0  0  0  0
 53 71  1  0  0  0  0
 54 69  1  0  0  0  0
 57 63  1  0  0  0  0
 58 66  1  0  0  0  0
 59 67  1  0  0  0  0
 60 67  1  0  0  0  0
 61 67  1  0  0  0  0
 62 78  1  0  0  0  0
 64 85  1  0  0  0  0
 65 67  1  0  0  0  0
 65 77  1  0  0  0  0
 66 78  1  0  0  0  0
 68 69  1  0  0  0  0
M  CHG  1  78   1
M  ISO  4  38 100  64 101  73 100  85 101
M  END
> <Batch ID>
0151

> <Smiles>
CCc1c(C)cc([101CH2:1][101O:1]c2ccc3c(c2)CN(C(=O)C(NC(=O)C(C)NC)C(C)(C)C)C(C(=O)NC2CCCc4ccccc42)C3)c(C)c1N1CC[100N:0]([100C:0](=O)N2CCCC(n3nc(-c4ccc(Oc5ccc(F)cc5F)cc4)c(C(N)=O)c3N)C2)CC1

> <Shape>
0.232

> <Color>
0.121

> <Negative vol penalty>
0.000

$$$$

  -OEChem-04052321433D

 85 94  0     1  0  0  0  0  0999 V2000
  -26.8300  -34.4505   25.5691 C   0  0  0  0  0  0  0  0  0  0  0  0
  -27.2369  -33.2612   24.9730 C   0  0  0  0  0  0  0  0  0  0  0  0
  -22.1958  -19.6187   25.1104 C   0  0  0  0  0  0  0  0  0  0  0  0
  -21.1979  -18.2008   23.4279 C   0  0  0  0  0  0  0  0  0  0  0  0
  -25.5049  -34.6087   25.9728 C   0  0  0  0  0  0  0  0  0  0  0  0
  -26.3192  -32.2289   24.7813 C   0  0  0  0  0  0  0  0  0  0  0  0
  -26.6648  -30.1526   20.1754 C   0  0  0  0  0  0  0  0  0  0  0  0
  -21.1498  -19.3192   25.9832 C   0  0  0  0  0  0  0  0  0  0  0  0
  -20.1519  -17.9012   24.3007 C   0  0  0  0  0  0  0  0  0  0  0  0
  -27.7091  -29.2547   19.9585 C   0  0  0  0  0  0  0  0  0  0  0  0
  -19.6280  -15.8782   26.9565 C   0  0  0  0  0  0  0  0  0  0  0  0
  -19.2344  -14.5441   27.0603 C   0  0  0  0  0  0  0  0  0  0  0  0
  -29.9887  -21.7382   19.5504 C   0  0  0  0  0  0  0  0  0  0  0  0
  -31.8919  -23.5375   20.4858 C   0  0  0  0  0  0  0  0  0  0  0  0
  -26.1822  -27.4131   20.2690 C   0  0  0  0  0  0  0  0  0  0  0  0
  -17.0144  -15.1412   26.3173 C   0  0  0  0  0  0  0  0  0  0  0  0
  -22.2198  -19.0595   23.8327 C   0  0  0  0  0  0  0  0  0  0  0  0
  -23.6662  -20.6394   22.4472 C   0  0  0  0  0  0  0  0  0  0  0  0
  -24.5682  -33.5816   25.7772 C   0  0  0  0  0  0  0  0  0  0  0  0
  -25.3715  -29.6867   20.4520 C   0  0  0  0  0  0  0  0  0  0  0  0
  -24.9807  -32.3731   25.1840 C   0  0  0  0  0  0  0  0  0  0  0  0
  -31.0540  -21.2580   20.3333 C   0  0  0  0  0  0  0  0  0  0  0  0
  -32.0316  -22.1709   20.7786 C   0  0  0  0  0  0  0  0  0  0  0  0
  -25.1227  -28.3071   20.4865 C   0  0  0  0  0  0  0  0  0  0  0  0
  -29.8683  -23.0968   19.2561 C   0  0  0  0  0  0  0  0  0  0  0  0
  -20.1279  -18.4605   25.5784 C   0  0  0  0  0  0  0  0  0  0  0  0
  -27.4685  -27.8848   20.0081 C   0  0  0  0  0  0  0  0  0  0  0  0
  -18.7147  -16.8439   26.5332 C   0  0  0  0  0  0  0  0  0  0  0  0
  -30.8164  -23.9971   19.7288 C   0  0  0  0  0  0  0  0  0  0  0  0
  -17.9276  -14.1755   26.7407 C   0  0  0  0  0  0  0  0  0  0  0  0
  -17.4080  -16.4753   26.2136 C   0  0  0  0  0  0  0  0  0  0  0  0
  -23.2997  -19.3689   22.9304 C   0  0  0  0  0  0  0  0  0  0  0  0
  -24.7439  -20.3983   21.6305 C   0  0  0  0  0  0  0  0  0  0  0  0
  -23.0846  -21.9226   22.7128 C   0  0  0  0  0  0  0  0  0  0  0  0
  -23.3702  -29.9489   22.9076 C   0  0  0  0  0  0  0  0  0  0  0  0
  -21.3224  -28.4360   20.8976 C   0  0  0  0  0  0  0  0  0  0  0  0
  -20.8922  -26.3969   18.1950 C   0  0  0  0  0  0  0  0  0  0  0  0
  -29.6060  -17.8550   20.6122 C   0  0  0  0  0  0  0  0  0  0  0  0
  -23.1579  -33.7811   26.2731 C   0  0  0  0  0  0  0  0  0  0  0  0
  -24.2503  -30.6682   20.6573 C   0  0  0  0  0  0  0  0  0  0  0  0
  -33.2113  -21.7288   21.6082 C   0  0  0  0  0  0  0  0  0  0  0  0
  -23.7480  -27.7558   20.7596 C   0  0  0  0  0  0  0  0  0  0  0  0
  -22.1613  -32.7804   25.6937 C   0  0  0  0  0  0  0  0  0  0  0  0
  -33.4897  -20.2332   21.4972 C   0  0  0  0  0  0  0  0  0  0  0  0
  -26.6297  -16.0491   19.8657 C   0  0  0  0  0  0  0  0  0  0  0  0
  -22.7242  -31.3645   25.7643 C   0  0  0  0  0  0  0  0  0  0  0  0
  -32.2039  -19.4467   21.7119 C   0  0  0  0  0  0  0  0  0  0  0  0
  -25.5299  -16.8529   20.5616 C   0  0  0  0  0  0  0  0  0  0  0  0
  -27.9221  -16.0393   20.6790 C   0  0  0  0  0  0  0  0  0  0  0  0
  -27.3269  -18.1767   21.7519 C   0  0  0  0  0  0  0  0  0  0  0  0
  -24.0090  -31.2397   24.9365 C   0  0  1  0  0  0  0  0  0  0  0  0
  -31.1822  -19.7719   20.6149 C   0  0  1  0  0  0  0  0  0  0  0  0
  -23.0790  -30.0822   21.4396 C   0  0  1  0  0  0  0  0  0  0  0  0
  -26.0213  -18.2623   20.9429 C   0  0  2  0  0  0  0  0  0  0  0  0
  -28.7161  -23.5655   18.4301 C   0  0  0  0  0  0  0  0  0  0  0  0
  -19.1020  -25.3087   16.8135 C   0  0  0  0  0  0  0  0  0  0  0  0
  -20.8722  -26.3789   23.1057 C   0  0  0  0  0  0  0  0  0  0  0  0
  -19.8688  -24.8582   21.3885 C   0  0  0  0  0  0  0  0  0  0  0  0
  -18.8032  -27.0602   21.8770 C   0  0  0  0  0  0  0  0  0  0  0  0
  -21.7557  -27.8179   15.7467 C   0  0  0  0  0  0  0  0  0  0  0  0
  -29.7963  -27.4272   20.1750 C   0  0  0  0  0  0  0  0  0  1  0  0
  -30.6121  -26.2117   20.5711 C   0  0  0  0  0  0  0  0  0  0  0  0
  -20.9848  -26.9948   20.6009 C   0  0  1  0  0  0  0  0  0  0  0  0
  -20.0050  -26.5224   16.9696 C   0  0  2  0  0  0  0  0  0  0  0  0
  -20.1587  -26.3331   21.7398 C   0  0  0  0  0  0  0  0  0  0  0  0
  -24.0811  -18.3932   22.4598 N   0  0  0  0  0  0  0  0  0  0  0  0
  -24.9492  -19.0506   21.6722 N   0  0  0  0  0  0  0  0  0  0  0  0
  -22.6861  -28.7556   20.9599 N   0  0  0  0  0  0  0  0  0  0  0  0
  -28.3347  -17.4062   21.0065 N   0  0  0  0  0  0  0  0  0  0  0  0
  -25.5264  -21.2098   20.8878 N   0  0  0  0  0  0  0  0  0  0  0  0
  -23.5730  -22.6663   23.7957 N   0  0  0  0  0  0  0  0  0  0  0  0
  -23.6946  -31.1405   23.5273 N   0  0  0  0  0  0  0  0  0  0  0  0
  -20.3218  -26.9900   19.3014 N   0  0  0  0  0  0  0  0  0  0  0  0
  -29.9150  -19.1651   20.9567 N   0  0  0  0  0  0  0  0  0  0  0  0
  -20.8362  -26.6511   15.7393 N   0  3  0  0  0  0  0  0  0  0  0  0
  -22.1479  -22.3887   22.0207 O   0  0  0  0  0  0  0  0  0  0  0  0
  -23.3039  -28.8466   23.4390 O   0  0  0  0  0  0  0  0  0  0  0  0
  -20.4097  -29.2496   21.0607 O   0  0  0  0  0  0  0  0  0  0  0  0
  -21.9805  -25.8263   18.1738 O   0  0  0  0  0  0  0  0  0  0  0  0
  -30.4042  -17.1426   19.9939 O   0  0  0  0  0  0  0  0  0  0  0  0
  -19.1072  -18.1678   26.4299 O   0  0  0  0  0  0  0  0  0  0  0  0
  -28.4862  -27.0062   19.7974 O   0  0  0  0  0  0  0  0  0  1  0  0
  -30.7121  -25.3355   19.4551 O   0  0  0  0  0  0  0  0  0  0  0  0
  -17.5503  -12.8941   26.8390 F   0  0  0  0  0  0  0  0  0  0  0  0
  -16.5265  -17.3984   25.8052 F   0  0  0  0  0  0  0  0  0  0  0  0
  1  2  1  0  0  0  0
  1  5  2  0  0  0  0
  2  6  2  0  0  0  0
  3  8  2  0  0  0  0
  3 17  1  0  0  0  0
  4  9  1  0  0  0  0
  4 17  2  0  0  0  0
  5 19  1  0  0  0  0
  6 21  1  0  0  0  0
  7 10  2  0  0  0  0
  7 20  1  0  0  0  0
  8 26  1  0  0  0  0
  9 26  2  0  0  0  0
 10 27  1  0  0  0  0
 11 12  2  0  0  0  0
 11 28  1  0  0  0  0
 12 30  1  0  0  0  0
 13 22  2  0  0  0  0
 13 25  1  0  0  0  0
 14 23  2  0  0  0  0
 14 29  1  0  0  0  0
 15 24  1  0  0  0  0
 15 27  2  0  0  0  0
 16 30  2  0  0  0  0
 16 31  1  0  0  0  0
 17 32  1  0  0  0  0
 18 32  1  0  0  0  0
 18 33  2  0  0  0  0
 18 34  1  0  0  0  0
 19 21  2  0  0  0  0
 19 39  1  0  0  0  0
 20 24  2  0  0  0  0
 20 40  1  0  0  0  0
 21 51  1  0  0  0  0
 22 23  1  0  0  0  0
 22 52  1  0  0  0  0
 23 41  1  0  0  0  0
 24 42  1  0  0  0  0
 25 29  2  0  0  0  0
 25 55  1  0  0  0  0
 26 81  1  0  0  0  0
 27 82  1  0  0  0  0
 28 31  2  0  0  0  0
 28 81  1  0  0  0  0
 29 83  1  0  0  0  0
 30 84  1  0  0  0  0
 31 85  1  0  0  0  0
 32 66  2  0  0  0  0
 33 67  1  0  0  0  0
 33 70  1  0  0  0  0
 34 71  1  0  0  0  0
 34 76  2  0  0  0  0
 35 53  1  0  0  0  0
 35 72  1  0  0  0  0
 35 77  2  0  0  0  0
 36 63  1  0  0  0  0
 36 68  1  0  0  0  0
 36 78  2  0  0  0  0
 37 64  1  0  0  0  0
 37 73  1  0  0  0  0
 37 79  2  0  0  0  0
 38 69  1  0  0  0  0
 38 74  1  0  0  0  0
 38 80  2  0  0  0  0
 39 43  1  0  0  0  0
 40 53  1  0  0  0  0
 41 44  1  0  0  0  0
 42 68  1  0  0  0  0
 43 46  1  0  0  0  0
 44 47  1  0  0  0  0
 45 48  1  0  0  0  0
 45 49  1  0  0  0  0
 46 51  1  0  0  0  0
 47 52  1  0  0  0  0
 48 54  1  0  0  0  0
 49 69  1  0  0  0  0
 50 54  1  0  0  0  0
 50 69  1  0  0  0  0
 51 72  1  0  0  0  0
 52 74  1  0  0  0  0
 53 68  1  0  0  0  0
 54 67  1  0  0  0  0
 56 64  1  0  0  0  0
 57 65  1  0  0  0  0
 58 65  1  0  0  0  0
 59 65  1  0  0  0  0
 60 75  1  0  0  0  0
 61 62  1  0  0  0  0
 61 82  1  0  0  0  0
 62 83  1  0  0  0  0
 63 65  1  0  0  0  0
 63 73  1  0  0  0  0
 64 75  1  0  0  0  0
 66 67  1  0  0  0  0
M  CHG  1  75   1
M  ISO  4  38 100  61 101  74 100  82 101
M  END
> <Batch ID>
0151

> <Smiles>
CNC(C)C(=O)NC(C(=O)N1Cc2cc([101O:1][101CH2:1]COc3cc4c(cc3C)C([100NH:0][100C:0](=O)N3CCCC(n5nc(-c6ccc(Oc7ccc(F)cc7F)cc6)c(C(N)=O)c5N)C3)CCC4)ccc2CC1C(=O)NC1CCCc2ccccc21)C(C)(C)C

> <Shape>
0.202

> <Color>
0.087

> <Negative vol penalty>
0.000

$$$$

  -OEChem-04052321433D

 86 95  0     1  0  0  0  0  0999 V2000
  -28.1672  -26.4924   20.0463 C   0  0  0  0  0  0  0  0  0  0  0  0
  -27.3788  -25.3601   20.2248 C   0  0  0  0  0  0  0  0  0  0  0  0
  -20.5805  -26.4292   23.2288 C   0  0  0  0  0  0  0  0  0  0  0  0
  -22.4235  -25.5006   21.9725 C   0  0  0  0  0  0  0  0  0  0  0  0
  -29.3228  -26.4204   19.2696 C   0  0  0  0  0  0  0  0  0  0  0  0
  -27.7451  -24.1554   19.6259 C   0  0  0  0  0  0  0  0  0  0  0  0
  -26.9375  -18.5229   21.8906 C   0  0  0  0  0  0  0  0  0  0  0  0
  -21.3300  -27.5788   23.4786 C   0  0  0  0  0  0  0  0  0  0  0  0
  -23.1730  -26.6502   22.2223 C   0  0  0  0  0  0  0  0  0  0  0  0
  -25.9678  -17.5485   21.6580 C   0  0  0  0  0  0  0  0  0  0  0  0
  -25.4409  -29.4918   22.2248 C   0  0  0  0  0  0  0  0  0  0  0  0
  -26.1426  -30.0539   21.1584 C   0  0  0  0  0  0  0  0  0  0  0  0
  -20.2531  -15.1547   20.8712 C   0  0  0  0  0  0  0  0  0  0  0  0
  -27.4213  -16.4952   20.0465 C   0  0  0  0  0  0  0  0  0  0  0  0
  -19.8578  -15.5921   18.1445 C   0  0  0  0  0  0  0  0  0  0  0  0
  -24.0686  -30.3694   19.9600 C   0  0  0  0  0  0  0  0  0  0  0  0
  -21.1273  -25.3901   22.4758 C   0  0  0  0  0  0  0  0  0  0  0  0
  -19.4934  -23.9678   21.1285 C   0  0  0  0  0  0  0  0  0  0  0  0
  -29.7086  -25.2118   18.6687 C   0  0  0  0  0  0  0  0  0  0  0  0
  -28.1541  -18.4969   21.1937 C   0  0  0  0  0  0  0  0  0  0  0  0
  -28.9063  -24.0674   18.8393 C   0  0  0  0  0  0  0  0  0  0  0  0
  -20.4853  -14.1254   19.9590 C   0  0  0  0  0  0  0  0  0  0  0  0
  -28.4058  -17.4689   20.2739 C   0  0  0  0  0  0  0  0  0  0  0  0
  -20.2877  -14.3441   18.5956 C   0  0  0  0  0  0  0  0  0  0  0  0
  -19.6256  -16.6214   19.0567 C   0  0  0  0  0  0  0  0  0  0  0  0
  -19.8232  -16.4027   20.4201 C   0  0  0  0  0  0  0  0  0  0  0  0
  -22.6262  -27.6893   22.9754 C   0  0  0  0  0  0  0  0  0  0  0  0
  -26.2084  -16.5362   20.7338 C   0  0  0  0  0  0  0  0  0  0  0  0
  -24.0530  -29.3685   22.1588 C   0  0  0  0  0  0  0  0  0  0  0  0
  -25.4564  -30.4927   20.0260 C   0  0  0  0  0  0  0  0  0  0  0  0
  -23.3669  -29.8073   21.0265 C   0  0  0  0  0  0  0  0  0  0  0  0
  -20.3538  -24.2021   22.2179 C   0  0  0  0  0  0  0  0  0  0  0  0
  -19.0038  -22.7027   21.3437 C   0  0  0  0  0  0  0  0  0  0  0  0
  -19.1661  -24.8176   20.0211 C   0  0  0  0  0  0  0  0  0  0  0  0
  -29.6191  -20.4565   19.1645 C   0  0  0  0  0  0  0  0  0  0  0  0
  -32.0448  -18.3238   19.4645 C   0  0  0  0  0  0  0  0  0  0  0  0
  -33.0306  -15.1439   20.2150 C   0  0  0  0  0  0  0  0  0  0  0  0
  -19.7462  -17.3657   22.7467 C   0  0  0  0  0  0  0  0  0  0  0  0
  -30.9408  -25.1943   17.7991 C   0  0  0  0  0  0  0  0  0  0  0  0
  -29.2005  -19.5400   21.4755 C   0  0  0  0  0  0  0  0  0  0  0  0
  -29.7038  -17.3845   19.5145 C   0  0  0  0  0  0  0  0  0  0  0  0
  -31.4599  -23.7888   17.5066 C   0  0  0  0  0  0  0  0  0  0  0  0
  -19.3161  -19.6962   25.4039 C   0  0  0  0  0  0  0  0  0  0  0  0
  -30.3128  -22.8705   17.0972 C   0  0  0  0  0  0  0  0  0  0  0  0
  -19.4769  -21.0570   24.7223 C   0  0  0  0  0  0  0  0  0  0  0  0
  -20.2585  -18.6501   24.8113 C   0  0  0  0  0  0  0  0  0  0  0  0
  -20.3467  -19.8655   22.6703 C   0  0  0  0  0  0  0  0  0  0  0  0
  -20.9418  -12.8057   20.4604 C   0  0  2  0  0  0  0  0  0  0  0  0
  -29.2837  -22.7364   18.2262 C   0  0  1  0  0  0  0  0  0  0  0  0
  -30.1974  -19.7101   20.3333 C   0  0  1  0  0  0  0  0  0  0  0  0
  -21.6642  -12.7331   21.7916 C   0  0  2  0  0  0  0  0  0  0  0  0
  -19.3722  -20.9353   23.1894 C   0  0  2  0  0  0  0  0  0  0  0  0
  -22.4136  -12.4502   20.5207 C   0  0  2  0  0  0  0  0  0  0  0  0
  -20.5298  -13.2586   17.5985 C   0  0  0  0  0  0  0  0  0  0  0  0
  -19.1658  -17.9479   18.5451 C   0  0  0  0  0  0  0  0  0  0  0  0
  -21.3690  -11.6253   22.7439 C   0  0  0  0  0  0  0  0  0  0  0  0
  -35.0732  -13.6910   20.3335 C   0  0  0  0  0  0  0  0  0  0  0  0
  -32.0652  -18.1085   16.4209 C   0  0  0  0  0  0  0  0  0  0  0  0
  -33.4092  -16.0084   16.6481 C   0  0  0  0  0  0  0  0  0  0  0  0
  -34.3311  -18.1729   17.4774 C   0  0  0  0  0  0  0  0  0  0  0  0
  -32.6604  -14.6600   23.1112 C   0  0  0  0  0  0  0  0  0  0  0  0
  -24.7816  -13.2332   20.6559 C   0  0  0  0  0  0  0  0  0  0  0  0
  -25.7251  -14.2906   20.1175 C   0  0  0  0  0  0  0  0  0  1  0  0
  -32.4507  -17.0586   18.7480 C   0  0  1  0  0  0  0  0  0  0  0  0
  -34.1442  -14.6175   21.1023 C   0  0  2  0  0  0  0  0  0  0  0  0
  -33.0387  -17.3395   17.3363 C   0  0  0  0  0  0  0  0  0  0  0  0
  -20.4095  -23.1689   23.0625 N   0  0  0  0  0  0  0  0  0  0  0  0
  -19.5780  -22.2731   22.5038 N   0  0  0  0  0  0  0  0  0  0  0  0
  -30.6929  -18.4312   19.8204 N   0  0  0  0  0  0  0  0  0  0  0  0
  -20.1007  -18.5876   23.3567 N   0  0  0  0  0  0  0  0  0  0  0  0
  -18.1423  -21.9270   20.6519 N   0  0  0  0  0  0  0  0  0  0  0  0
  -19.7587  -26.0860   19.9543 N   0  0  0  0  0  0  0  0  0  0  0  0
  -19.5927  -17.4355   21.3624 N   0  0  0  0  0  0  0  0  0  0  0  0
  -29.7660  -21.8281   19.2445 N   0  0  0  0  0  0  0  0  0  0  0  0
  -33.3610  -16.3553   19.6453 N   0  0  0  0  0  0  0  0  0  0  0  0
  -23.4274  -13.4491   20.0868 N   0  3  0  0  0  0  0  0  0  0  0  0
  -33.5754  -13.8625   22.2545 N   0  3  0  0  0  0  0  0  0  0  0  0
  -18.3591  -24.4691   19.1262 O   0  0  0  0  0  0  0  0  0  0  0  0
  -29.0808  -19.8339   18.2566 O   0  0  0  0  0  0  0  0  0  0  0  0
  -32.8974  -19.1820   19.7060 O   0  0  0  0  0  0  0  0  0  0  0  0
  -31.9749  -14.5390   20.0415 O   0  0  0  0  0  0  0  0  0  0  0  0
  -19.5636  -16.3397   23.4070 O   0  0  0  0  0  0  0  0  0  0  0  0
  -23.3577  -28.8110   23.2187 O   0  0  0  0  0  0  0  0  0  0  0  0
  -25.2634  -15.5843   20.5044 O   0  0  0  0  0  0  0  0  0  1  0  0
  -26.1303  -31.0338   19.0026 F   0  0  0  0  0  0  0  0  0  0  0  0
  -22.0335  -29.6926   20.9578 F   0  0  0  0  0  0  0  0  0  0  0  0
  1  2  1  0  0  0  0
  1  5  2  0  0  0  0
  2  6  2  0  0  0  0
  3  8  2  0  0  0  0
  3 17  1  0  0  0  0
  4  9  1  0  0  0  0
  4 17  2  0  0  0  0
  5 19  1  0  0  0  0
  6 21  1  0  0  0  0
  7 10  2  0  0  0  0
  7 20  1  0  0  0  0
  8 27  1  0  0  0  0
  9 27  2  0  0  0  0
 10 28  1  0  0  0  0
 11 12  2  0  0  0  0
 11 29  1  0  0  0  0
 12 30  1  0  0  0  0
 13 22  1  0  0  0  0
 13 26  2  0  0  0  0
 14 23  1  0  0  0  0
 14 28  2  0  0  0  0
 15 24  1  0  0  0  0
 15 25  2  0  0  0  0
 16 30  2  0  0  0  0
 16 31  1  0  0  0  0
 17 32  1  0  0  0  0
 18 32  1  0  0  0  0
 18 33  2  0  0  0  0
 18 34  1  0  0  0  0
 19 21  2  0  0  0  0
 19 39  1  0  0  0  0
 20 23  2  0  0  0  0
 20 40  1  0  0  0  0
 21 49  1  0  0  0  0
 22 24  2  0  0  0  0
 22 48  1  0  0  0  0
 23 41  1  0  0  0  0
 24 54  1  0  0  0  0
 25 26  1  0  0  0  0
 25 55  1  0  0  0  0
 26 73  1  0  0  0  0
 27 83  1  0  0  0  0
 28 84  1  0  0  0  0
 29 31  2  0  0  0  0
 29 83  1  0  0  0  0
 30 85  1  0  0  0  0
 31 86  1  0  0  0  0
 32 67  2  0  0  0  0
 33 68  1  0  0  0  0
 33 71  1  0  0  0  0
 34 72  1  0  0  0  0
 34 78  2  0  0  0  0
 35 50  1  0  0  0  0
 35 74  1  0  0  0  0
 35 79  2  0  0  0  0
 36 64  1  0  0  0  0
 36 69  1  0  0  0  0
 36 80  2  0  0  0  0
 37 65  1  0  0  0  0
 37 75  1  0  0  0  0
 37 81  2  0  0  0  0
 38 70  1  0  0  0  0
 38 73  1  0  0  0  0
 38 82  2  0  0  0  0
 39 42  1  0  0  0  0
 40 50  1  0  0  0  0
 41 69  1  0  0  0  0
 42 44  1  0  0  0  0
 43 45  1  0  0  0  0
 43 46  1  0  0  0  0
 44 49  1  0  0  0  0
 45 52  1  0  0  0  0
 46 70  1  0  0  0  0
 47 52  1  0  0  0  0
 47 70  1  0  0  0  0
 48 51  1  0  0  0  0
 48 53  1  0  0  0  0
 49 74  1  0  0  0  0
 50 69  1  0  0  0  0
 51 53  1  0  0  0  0
 51 56  1  0  0  0  0
 52 68  1  0  0  0  0
 53 76  1  0  0  0  0
 57 65  1  0  0  0  0
 58 66  1  0  0  0  0
 59 66  1  0  0  0  0
 60 66  1  0  0  0  0
 61 77  1  0  0  0  0
 62 63  1  0  0  0  0
 62 76  1  0  0  0  0
 63 84  1  0  0  0  0
 64 66  1  0  0  0  0
 64 75  1  0  0  0  0
 65 77  1  0  0  0  0
 67 68  1  0  0  0  0
M  CHG  2  76   1  77   1
M  ISO  4  38 100  63 101  73 100  84 101
M  END
> <Batch ID>
0151

> <Smiles>
CNC(C)C(=O)NC(C(=O)N1Cc2cc([101O:1][101CH2:1]CNC3C(C)C3c3cc([100NH:0][100C:0](=O)N4CCCC(n5nc(-c6ccc(Oc7ccc(F)cc7F)cc6)c(C(N)=O)c5N)C4)c(C)cc3C)ccc2CC1C(=O)NC1CCCc2ccccc21)C(C)(C)C

> <Shape>
0.192

> <Color>
0.072

> <Negative vol penalty>
0.000

$$$$

  -OEChem-04052321433D

 86 95  0     1  0  0  0  0  0999 V2000
  -26.9376  -37.7372   21.3231 C   0  0  0  0  0  0  0  0  0  0  0  0
  -27.5160  -36.5278   20.9513 C   0  0  0  0  0  0  0  0  0  0  0  0
  -25.0698   -9.5920   21.3004 C   0  0  0  0  0  0  0  0  0  0  0  0
  -22.8407  -10.1362   22.0568 C   0  0  0  0  0  0  0  0  0  0  0  0
  -25.9816  -37.7687   22.3375 C   0  0  0  0  0  0  0  0  0  0  0  0
  -27.1395  -35.3493   21.5945 C   0  0  0  0  0  0  0  0  0  0  0  0
  -26.7023  -29.7725   19.1017 C   0  0  0  0  0  0  0  0  0  0  0  0
  -25.0458   -8.4274   22.0677 C   0  0  0  0  0  0  0  0  0  0  0  0
  -22.8167   -8.9716   22.8241 C   0  0  0  0  0  0  0  0  0  0  0  0
  -27.5667  -28.6786   19.0928 C   0  0  0  0  0  0  0  0  0  0  0  0
  -22.3214   -5.6671   22.3182 C   0  0  0  0  0  0  0  0  0  0  0  0
  -21.1676   -4.8848   22.2702 C   0  0  0  0  0  0  0  0  0  0  0  0
  -26.3809  -27.7339   20.9692 C   0  0  0  0  0  0  0  0  0  0  0  0
  -31.4416  -25.3868   19.4012 C   0  0  0  0  0  0  0  0  0  0  0  0
  -29.4470  -24.0841   18.9997 C   0  0  0  0  0  0  0  0  0  0  0  0
  -20.8714   -5.1756   24.6503 C   0  0  0  0  0  0  0  0  0  0  0  0
  -23.9672  -10.4464   21.2950 C   0  0  0  0  0  0  0  0  0  0  0  0
  -23.5737  -11.7967   19.1667 C   0  0  0  0  0  0  0  0  0  0  0  0
  -25.5862  -36.5886   22.9869 C   0  0  0  0  0  0  0  0  0  0  0  0
  -25.6757  -29.8607   20.0529 C   0  0  0  0  0  0  0  0  0  0  0  0
  -26.1783  -35.3652   22.6195 C   0  0  0  0  0  0  0  0  0  0  0  0
  -25.5032  -28.8287   20.9864 C   0  0  0  0  0  0  0  0  0  0  0  0
  -30.0717  -25.3226   19.1465 C   0  0  0  0  0  0  0  0  0  0  0  0
  -32.1868  -24.2126   19.5090 C   0  0  0  0  0  0  0  0  0  0  0  0
  -23.9193   -8.1172   22.8296 C   0  0  0  0  0  0  0  0  0  0  0  0
  -27.4079  -27.6605   20.0284 C   0  0  0  0  0  0  0  0  0  0  0  0
  -22.7503   -6.2036   23.5323 C   0  0  0  0  0  0  0  0  0  0  0  0
  -30.1922  -22.9099   19.1076 C   0  0  0  0  0  0  0  0  0  0  0  0
  -20.4426   -4.6391   23.4362 C   0  0  0  0  0  0  0  0  0  0  0  0
  -22.0253   -5.9579   24.6983 C   0  0  0  0  0  0  0  0  0  0  0  0
  -31.5621  -22.9742   19.3623 C   0  0  0  0  0  0  0  0  0  0  0  0
  -23.9915  -11.6499   20.5030 C   0  0  0  0  0  0  0  0  0  0  0  0
  -23.7989  -13.1210   18.8801 C   0  0  0  0  0  0  0  0  0  0  0  0
  -23.0306  -10.8231   18.2651 C   0  0  0  0  0  0  0  0  0  0  0  0
  -24.9558  -31.8855   22.3950 C   0  0  0  0  0  0  0  0  0  0  0  0
  -22.2713  -30.0769   22.6066 C   0  0  0  0  0  0  0  0  0  0  0  0
  -20.7464  -27.0775   22.0368 C   0  0  0  0  0  0  0  0  0  0  0  0
  -26.7780  -17.5857   18.9391 C   0  0  0  0  0  0  0  0  0  0  0  0
  -24.5837  -36.6791   24.1101 C   0  0  0  0  0  0  0  0  0  0  0  0
  -24.7351  -31.0342   20.0323 C   0  0  0  0  0  0  0  0  0  0  0  0
  -24.4043  -28.8659   22.0157 C   0  0  0  0  0  0  0  0  0  0  0  0
  -23.9663  -35.3343   24.4852 C   0  0  0  0  0  0  0  0  0  0  0  0
  -24.9772  -16.9992   21.8946 C   0  0  0  0  0  0  0  0  0  0  0  0
  -25.0483  -34.2663   24.6098 C   0  0  0  0  0  0  0  0  0  0  0  0
  -24.5211  -15.5547   21.6904 C   0  0  0  0  0  0  0  0  0  0  0  0
  -27.1738  -21.2674   19.1288 C   0  0  0  0  0  0  0  0  0  0  0  0
  -28.8376  -20.1776   20.6953 C   0  0  0  0  0  0  0  0  0  0  0  0
  -26.4145  -17.2188   21.4196 C   0  0  0  0  0  0  0  0  0  0  0  0
  -27.0926  -19.9588   18.3443 C   0  0  0  0  0  0  0  0  0  0  0  0
  -28.7212  -18.8960   19.8733 C   0  0  0  0  0  0  0  0  0  0  0  0
  -26.2031  -15.3435   19.8211 C   0  0  0  0  0  0  0  0  0  0  0  0
  -25.7781  -34.0621   23.2767 C   0  0  1  0  0  0  0  0  0  0  0  0
  -24.0440  -31.2697   21.3718 C   0  0  1  0  0  0  0  0  0  0  0  0
  -24.7425  -15.1058   20.2350 C   0  0  1  0  0  0  0  0  0  0  0  0
  -28.4975  -21.4250   19.8779 C   0  0  0  0  0  0  0  0  0  0  0  0
  -33.6519  -24.3282   19.7820 C   0  0  0  0  0  0  0  0  0  0  0  0
  -18.5592  -25.8883   22.3521 C   0  0  0  0  0  0  0  0  0  0  0  0
  -22.8936  -29.7237   25.5727 C   0  0  0  0  0  0  0  0  0  0  0  0
  -21.2754  -27.8138   25.6134 C   0  0  0  0  0  0  0  0  0  0  0  0
  -20.4781  -30.1099   25.0523 C   0  0  0  0  0  0  0  0  0  0  0  0
  -20.4054  -26.6882   19.1229 C   0  0  0  0  0  0  0  0  0  0  0  0
  -29.2754  -26.5782   19.0300 C   0  0  0  0  0  0  0  0  0  1  0  0
  -21.8747  -28.8377   23.3721 C   0  0  1  0  0  0  0  0  0  0  0  0
  -19.4070  -26.7311   21.4120 C   0  0  2  0  0  0  0  0  0  0  0  0
  -21.6525  -29.1212   24.8846 C   0  0  0  0  0  0  0  0  0  0  0  0
  -24.4477  -12.7898   21.0288 N   0  0  0  0  0  0  0  0  0  0  0  0
  -24.3179  -13.6655   20.0177 N   0  0  0  0  0  0  0  0  0  0  0  0
  -23.5142  -30.0372   21.9588 N   0  0  0  0  0  0  0  0  0  0  0  0
  -26.5862  -16.7396   20.0416 N   0  0  0  0  0  0  0  0  0  0  0  0
  -27.4280  -18.8077   19.1818 N   0  0  0  0  0  0  0  0  0  0  0  0
  -23.6015  -13.8610   17.7685 N   0  0  0  0  0  0  0  0  0  0  0  0
  -22.8654   -9.5084   18.7218 N   0  0  0  0  0  0  0  0  0  0  0  0
  -24.9715  -33.2672   22.3756 N   0  0  0  0  0  0  0  0  0  0  0  0
  -20.7071  -28.2920   22.6886 N   0  0  0  0  0  0  0  0  0  0  0  0
  -19.6071  -25.9677   20.1478 N   0  3  0  0  0  0  0  0  0  0  0  0
  -22.7168  -11.1068   17.0842 O   0  0  0  0  0  0  0  0  0  0  0  0
  -25.5965  -31.1609   23.1474 O   0  0  0  0  0  0  0  0  0  0  0  0
  -21.5034  -31.0419   22.5783 O   0  0  0  0  0  0  0  0  0  0  0  0
  -21.7282  -26.3424   21.9580 O   0  0  0  0  0  0  0  0  0  0  0  0
  -26.3900  -17.2728   17.8066 O   0  0  0  0  0  0  0  0  0  0  0  0
  -23.8956   -6.9807   23.5782 O   0  0  0  0  0  0  0  0  0  0  0  0
  -29.5494  -21.7092   18.9580 O   0  0  0  0  0  0  0  0  0  0  0  0
  -28.2564  -26.5847   20.0223 O   0  0  0  0  0  0  0  0  0  1  0  0
  -19.3337   -3.8891   23.3897 F   0  0  0  0  0  0  0  0  0  0  0  0
  -22.4317   -6.4715   25.8674 F   0  0  0  0  0  0  0  0  0  0  0  0
  -32.4790  -21.5125   19.4944 Cl  0  0  0  0  0  0  0  0  0  0  0  0
  1  2  1  0  0  0  0
  1  5  2  0  0  0  0
  2  6  2  0  0  0  0
  3  8  2  0  0  0  0
  3 17  1  0  0  0  0
  4  9  1  0  0  0  0
  4 17  2  0  0  0  0
  5 19  1  0  0  0  0
  6 21  1  0  0  0  0
  7 10  2  0  0  0  0
  7 20  1  0  0  0  0
  8 25  1  0  0  0  0
  9 25  2  0  0  0  0
 10 26  1  0  0  0  0
 11 12  2  0  0  0  0
 11 27  1  0  0  0  0
 12 29  1  0  0  0  0
 13 22  1  0  0  0  0
 13 26  2  0  0  0  0
 14 23  1  0  0  0  0
 14 24  2  0  0  0  0
 15 23  2  0  0  0  0
 15 28  1  0  0  0  0
 16 29  2  0  0  0  0
 16 30  1  0  0  0  0
 17 32  1  0  0  0  0
 18 32  1  0  0  0  0
 18 33  2  0  0  0  0
 18 34  1  0  0  0  0
 19 21  2  0  0  0  0
 19 39  1  0  0  0  0
 20 22  2  0  0  0  0
 20 40  1  0  0  0  0
 21 52  1  0  0  0  0
 22 41  1  0  0  0  0
 23 62  1  0  0  0  0
 24 31  1  0  0  0  0
 24 56  1  0  0  0  0
 25 81  1  0  0  0  0
 26 83  1  0  0  0  0
 27 30  2  0  0  0  0
 27 81  1  0  0  0  0
 28 31  2  0  0  0  0
 28 82  1  0  0  0  0
 29 84  1  0  0  0  0
 30 85  1  0  0  0  0
 31 86  1  0  0  0  0
 32 66  2  0  0  0  0
 33 67  1  0  0  0  0
 33 71  1  0  0  0  0
 34 72  1  0  0  0  0
 34 76  2  0  0  0  0
 35 53  1  0  0  0  0
 35 73  1  0  0  0  0
 35 77  2  0  0  0  0
 36 63  1  0  0  0  0
 36 68  1  0  0  0  0
 36 78  2  0  0  0  0
 37 64  1  0  0  0  0
 37 74  1  0  0  0  0
 37 79  2  0  0  0  0
 38 69  1  0  0  0  0
 38 70  1  0  0  0  0
 38 80  2  0  0  0  0
 39 42  1  0  0  0  0
 40 53  1  0  0  0  0
 41 68  1  0  0  0  0
 42 44  1  0  0  0  0
 43 45  1  0  0  0  0
 43 48  1  0  0  0  0
 44 52  1  0  0  0  0
 45 54  1  0  0  0  0
 46 49  1  0  0  0  0
 46 55  1  0  0  0  0
 47 50  1  0  0  0  0
 47 55  1  0  0  0  0
 48 69  1  0  0  0  0
 49 70  1  0  0  0  0
 50 70  1  0  0  0  0
 51 54  1  0  0  0  0
 51 69  1  0  0  0  0
 52 73  1  0  0  0  0
 53 68  1  0  0  0  0
 54 67  1  0  0  0  0
 55 82  1  0  0  0  0
 57 64  1  0  0  0  0
 58 65  1  0  0  0  0
 59 65  1  0  0  0  0
 60 65  1  0  0  0  0
 61 75  1  0  0  0  0
 62 83  1  0  0  0  0
 63 65  1  0  0  0  0
 63 74  1  0  0  0  0
 64 75  1  0  0  0  0
 66 67  1  0  0  0  0
M  CHG  1  75   1
M  ISO  4  38 100  62 101  70 100  83 101
M  END
> <Batch ID>
0151

> <Smiles>
CNC(C)C(=O)NC(C(=O)N1Cc2cc([101O:1][101CH2:1]c3cc(C)c(Cl)c(OC4CC[100N:0]([100C:0](=O)N5CCCC(n6nc(-c7ccc(Oc8ccc(F)cc8F)cc7)c(C(N)=O)c6N)C5)CC4)c3)ccc2CC1C(=O)NC1CCCc2ccccc21)C(C)(C)C

> <Shape>
0.338

> <Color>
0.085

> <Negative vol penalty>
0.000

$$$$

  -OEChem-04052321433D

 87 96  0     1  0  0  0  0  0999 V2000
  -28.3582  -37.6664   24.9796 C   0  0  0  0  0  0  0  0  0  0  0  0
  -28.8963  -36.8519   23.9884 C   0  0  0  0  0  0  0  0  0  0  0  0
  -23.5950   -9.6742   21.7974 C   0  0  0  0  0  0  0  0  0  0  0  0
  -24.1965  -10.9922   23.7308 C   0  0  0  0  0  0  0  0  0  0  0  0
  -27.5655  -37.1104   25.9829 C   0  0  0  0  0  0  0  0  0  0  0  0
  -28.6430  -35.4807   24.0006 C   0  0  0  0  0  0  0  0  0  0  0  0
  -27.7145  -29.9355   19.5616 C   0  0  0  0  0  0  0  0  0  0  0  0
  -23.0307   -8.7087   22.6311 C   0  0  0  0  0  0  0  0  0  0  0  0
  -23.6321  -10.0267   24.5645 C   0  0  0  0  0  0  0  0  0  0  0  0
  -28.1933  -28.6460   19.3342 C   0  0  0  0  0  0  0  0  0  0  0  0
  -24.1064   -6.1695   24.5854 C   0  0  0  0  0  0  0  0  0  0  0  0
  -24.3965   -4.8320   24.3160 C   0  0  0  0  0  0  0  0  0  0  0  0
  -26.7446  -27.8082   21.0716 C   0  0  0  0  0  0  0  0  0  0  0  0
  -28.9930  -21.4472   19.2474 C   0  0  0  0  0  0  0  0  0  0  0  0
  -30.8153  -22.3698   20.5704 C   0  0  0  0  0  0  0  0  0  0  0  0
  -22.0434   -4.3854   23.9988 C   0  0  0  0  0  0  0  0  0  0  0  0
  -24.1780  -10.8159   22.3472 C   0  0  0  0  0  0  0  0  0  0  0  0
  -24.1187  -12.9322   20.9241 C   0  0  0  0  0  0  0  0  0  0  0  0
  -27.2944  -35.7332   26.0019 C   0  0  0  0  0  0  0  0  0  0  0  0
  -26.7535  -30.1730   20.5549 C   0  0  0  0  0  0  0  0  0  0  0  0
  -27.8471  -34.9056   25.0058 C   0  0  0  0  0  0  0  0  0  0  0  0
  -26.2533  -29.1012   21.3079 C   0  0  0  0  0  0  0  0  0  0  0  0
  -29.4074  -20.1766   19.6162 C   0  0  0  0  0  0  0  0  0  0  0  0
  -30.5125  -20.0037   20.4619 C   0  0  0  0  0  0  0  0  0  0  0  0
  -31.2206  -21.0895   20.9505 C   0  0  0  0  0  0  0  0  0  0  0  0
  -23.0492   -8.8850   24.0146 C   0  0  0  0  0  0  0  0  0  0  0  0
  -27.7105  -27.5825   20.0912 C   0  0  0  0  0  0  0  0  0  0  0  0
  -22.7847   -6.6150   24.5615 C   0  0  0  0  0  0  0  0  0  0  0  0
  -29.7095  -22.5473   19.7251 C   0  0  0  0  0  0  0  0  0  0  0  0
  -23.3651   -3.9400   24.0227 C   0  0  0  0  0  0  0  0  0  0  0  0
  -21.7533   -5.7229   24.2682 C   0  0  0  0  0  0  0  0  0  0  0  0
  -24.7617  -11.8133   21.4866 C   0  0  0  0  0  0  0  0  0  0  0  0
  -25.0979  -13.5593   20.1930 C   0  0  0  0  0  0  0  0  0  0  0  0
  -22.7581  -13.3660   21.0512 C   0  0  0  0  0  0  0  0  0  0  0  0
  -26.6696  -31.8863   23.2309 C   0  0  0  0  0  0  0  0  0  0  0  0
  -23.5513  -30.9930   23.2440 C   0  0  0  0  0  0  0  0  0  0  0  0
  -21.1728  -28.7608   22.2406 C   0  0  0  0  0  0  0  0  0  0  0  0
  -30.3250  -15.4420   19.6657 C   0  0  0  0  0  0  0  0  0  0  0  0
  -26.4709  -35.1709   27.1334 C   0  0  0  0  0  0  0  0  0  0  0  0
  -26.2276  -31.5658   20.7697 C   0  0  0  0  0  0  0  0  0  0  0  0
  -30.7422  -18.5539   20.7604 C   0  0  0  0  0  0  0  0  0  0  0  0
  -25.2065  -29.3001   22.3724 C   0  0  0  0  0  0  0  0  0  0  0  0
  -25.9422  -33.7649   26.8619 C   0  0  0  0  0  0  0  0  0  0  0  0
  -29.7374  -12.0155   18.8975 C   0  0  0  0  0  0  0  0  0  0  0  0
  -27.0504  -32.8759   26.3063 C   0  0  0  0  0  0  0  0  0  0  0  0
  -28.3408  -11.7485   19.4616 C   0  0  0  0  0  0  0  0  0  0  0  0
  -30.5291  -12.9760   19.7821 C   0  0  0  0  0  0  0  0  0  0  0  0
  -28.4507  -13.9828   20.6424 C   0  0  0  0  0  0  0  0  0  0  0  0
  -28.7898  -18.8461   19.2750 C   0  0  2  0  0  0  0  0  0  0  0  0
  -27.5747  -33.4175   24.9709 C   0  0  1  0  0  0  0  0  0  0  0  0
  -25.6257  -31.7699   22.1565 C   0  0  1  0  0  0  0  0  0  0  0  0
  -27.5939  -13.0634   19.7553 C   0  0  2  0  0  0  0  0  0  0  0  0
  -29.9674  -17.8971   19.6042 C   0  0  2  0  0  0  0  0  0  0  0  0
  -32.3848  -20.9139   21.8624 C   0  0  0  0  0  0  0  0  0  0  0  0
  -18.7190  -28.2742   22.4397 C   0  0  0  0  0  0  0  0  0  0  0  0
  -29.4725  -18.9292   16.8605 C   0  0  0  0  0  0  0  0  0  0  0  0
  -27.6756  -17.3408   17.6034 C   0  0  0  0  0  0  0  0  0  0  0  0
  -23.9890  -29.9589   26.0811 C   0  0  0  0  0  0  0  0  0  0  0  0
  -21.8541  -28.6690   25.8657 C   0  0  0  0  0  0  0  0  0  0  0  0
  -21.8234  -31.1597   25.7310 C   0  0  0  0  0  0  0  0  0  0  0  0
  -20.7691  -29.0045   19.3189 C   0  0  0  0  0  0  0  0  0  0  0  0
  -29.5179  -26.1997   19.4006 C   0  0  0  0  0  0  0  0  0  1  0  0
  -30.0972  -24.8877   19.8931 C   0  0  0  0  0  0  0  0  0  0  0  0
  -22.7759  -29.8260   23.8059 C   0  0  1  0  0  0  0  0  0  0  0  0
  -19.8014  -28.9605   21.6211 C   0  0  2  0  0  0  0  0  0  0  0  0
  -28.3153  -18.7096   17.8349 C   0  0  0  0  0  0  0  0  0  0  0  0
  -22.6317  -29.8996   25.3522 C   0  0  0  0  0  0  0  0  0  0  0  0
  -26.0496  -11.7315   21.1423 N   0  0  0  0  0  0  0  0  0  0  0  0
  -26.2239  -12.8069   20.3555 N   0  0  0  0  0  0  0  0  0  0  0  0
  -24.7285  -30.6813   22.5491 N   0  0  0  0  0  0  0  0  0  0  0  0
  -29.7660  -14.2034   20.0211 N   0  0  0  0  0  0  0  0  0  0  0  0
  -25.0970  -14.6753   19.4335 N   0  0  0  0  0  0  0  0  0  0  0  0
  -21.8851  -12.6050   21.8406 N   0  0  0  0  0  0  0  0  0  0  0  0
  -26.6565  -33.0956   23.8995 N   0  0  0  0  0  0  0  0  0  0  0  0
  -21.5060  -29.7961   23.0881 N   0  0  0  0  0  0  0  0  0  0  0  0
  -29.5328  -16.5548   19.9203 N   0  0  0  0  0  0  0  0  0  0  0  0
  -19.7708  -28.4024   20.2396 N   0  3  0  0  0  0  0  0  0  0  0  0
  -22.3250  -14.3888   20.4683 O   0  0  0  0  0  0  0  0  0  0  0  0
  -27.4297  -30.9479   23.4390 O   0  0  0  0  0  0  0  0  0  0  0  0
  -23.1244  -32.1385   23.4092 O   0  0  0  0  0  0  0  0  0  0  0  0
  -21.8763  -27.7822   21.9999 O   0  0  0  0  0  0  0  0  0  0  0  0
  -31.4448  -15.5479   19.1541 O   0  0  0  0  0  0  0  0  0  0  0  0
  -22.4984   -7.9433   24.8284 O   0  0  0  0  0  0  0  0  0  0  0  0
  -28.1766  -26.3230   19.8717 O   0  0  0  0  0  0  0  0  0  1  0  0
  -29.3239  -23.8136   19.3717 O   0  0  0  0  0  0  0  0  0  0  0  0
  -23.6440   -2.6560   23.7625 F   0  0  0  0  0  0  0  0  0  0  0  0
  -20.4818   -6.1453   24.2426 F   0  0  0  0  0  0  0  0  0  0  0  0
  1  2  1  0  0  0  0
  1  5  2  0  0  0  0
  2  6  2  0  0  0  0
  3  8  2  0  0  0  0
  3 17  1  0  0  0  0
  4  9  1  0  0  0  0
  4 17  2  0  0  0  0
  5 19  1  0  0  0  0
  6 21  1  0  0  0  0
  7 10  2  0  0  0  0
  7 20  1  0  0  0  0
  8 26  1  0  0  0  0
  9 26  2  0  0  0  0
 10 27  1  0  0  0  0
 11 12  2  0  0  0  0
 11 28  1  0  0  0  0
 12 30  1  0  0  0  0
 13 22  1  0  0  0  0
 13 27  2  0  0  0  0
 14 23  1  0  0  0  0
 14 29  2  0  0  0  0
 15 25  2  0  0  0  0
 15 29  1  0  0  0  0
 16 30  2  0  0  0  0
 16 31  1  0  0  0  0
 17 32  1  0  0  0  0
 18 32  1  0  0  0  0
 18 33  2  0  0  0  0
 18 34  1  0  0  0  0
 19 21  2  0  0  0  0
 19 39  1  0  0  0  0
 20 22  2  0  0  0  0
 20 40  1  0  0  0  0
 21 50  1  0  0  0  0
 22 42  1  0  0  0  0
 23 24  2  0  0  0  0
 23 49  1  0  0  0  0
 24 25  1  0  0  0  0
 24 41  1  0  0  0  0
 25 54  1  0  0  0  0
 26 83  1  0  0  0  0
 27 84  1  0  0  0  0
 28 31  2  0  0  0  0
 28 83  1  0  0  0  0
 29 85  1  0  0  0  0
 30 86  1  0  0  0  0
 31 87  1  0  0  0  0
 32 68  2  0  0  0  0
 33 69  1  0  0  0  0
 33 72  1  0  0  0  0
 34 73  1  0  0  0  0
 34 78  2  0  0  0  0
 35 51  1  0  0  0  0
 35 74  1  0  0  0  0
 35 79  2  0  0  0  0
 36 64  1  0  0  0  0
 36 70  1  0  0  0  0
 36 80  2  0  0  0  0
 37 65  1  0  0  0  0
 37 75  1  0  0  0  0
 37 81  2  0  0  0  0
 38 71  1  0  0  0  0
 38 76  1  0  0  0  0
 38 82  2  0  0  0  0
 39 43  1  0  0  0  0
 40 51  1  0  0  0  0
 41 53  1  0  0  0  0
 42 70  1  0  0  0  0
 43 45  1  0  0  0  0
 44 46  1  0  0  0  0
 44 47  1  0  0  0  0
 45 50  1  0  0  0  0
 46 52  1  0  0  0  0
 47 71  1  0  0  0  0
 48 52  1  0  0  0  0
 48 71  1  0  0  0  0
 49 53  1  0  0  0  0
 49 66  1  0  0  0  0
 50 74  1  0  0  0  0
 51 70  1  0  0  0  0
 52 69  1  0  0  0  0
 53 76  1  0  0  0  0
 55 65  1  0  0  0  0
 56 66  1  0  0  0  0
 57 66  1  0  0  0  0
 58 67  1  0  0  0  0
 59 67  1  0  0  0  0
 60 67  1  0  0  0  0
 61 77  1  0  0  0  0
 62 63  1  0  0  0  0
 62 84  1  0  0  0  0
 63 85  1  0  0  0  0
 64 67  1  0  0  0  0
 64 75  1  0  0  0  0
 65 77  1  0  0  0  0
 68 69  1  0  0  0  0
M  CHG  1  77   1
M  ISO  4  38 100  62 101  76 100  84 101
M  END
> <Batch ID>
0151

> <Smiles>
CNC(C)C(=O)NC(C(=O)N1Cc2cc([101O:1][101CH2:1]COc3cc(C)c4c(c3)C(C(C)C)C([100NH:0][100C:0](=O)N3CCCC(n5nc(-c6ccc(Oc7ccc(F)cc7F)cc6)c(C(N)=O)c5N)C3)C4)ccc2CC1C(=O)NC1CCCc2ccccc21)C(C)(C)C

> <Shape>
0.367

> <Color>
0.167

> <Negative vol penalty>
0.000

$$$$

  -OEChem-04052321433D

 88 97  0     1  0  0  0  0  0999 V2000
  -29.0493  -32.5878   23.0857 C   0  0  0  0  0  0  0  0  0  0  0  0
  -28.8423  -31.2151   22.9949 C   0  0  0  0  0  0  0  0  0  0  0  0
  -22.9111  -10.0713   19.9939 C   0  0  0  0  0  0  0  0  0  0  0  0
  -23.7912   -9.9060   22.2378 C   0  0  0  0  0  0  0  0  0  0  0  0
  -27.9783  -33.4362   23.3636 C   0  0  0  0  0  0  0  0  0  0  0  0
  -27.5644  -30.6898   23.1830 C   0  0  0  0  0  0  0  0  0  0  0  0
  -26.3693  -27.1979   19.7155 C   0  0  0  0  0  0  0  0  0  0  0  0
  -22.1186   -8.9464   20.2219 C   0  0  0  0  0  0  0  0  0  0  0  0
  -22.9987   -8.7811   22.4658 C   0  0  0  0  0  0  0  0  0  0  0  0
  -26.9098  -25.9237   19.8826 C   0  0  0  0  0  0  0  0  0  0  0  0
  -23.0742   -5.4861   21.7120 C   0  0  0  0  0  0  0  0  0  0  0  0
  -23.6690   -4.3901   22.3370 C   0  0  0  0  0  0  0  0  0  0  0  0
  -28.4815  -21.1525   19.3448 C   0  0  0  0  0  0  0  0  0  0  0  0
  -24.8217  -25.1682   20.8250 C   0  0  0  0  0  0  0  0  0  0  0  0
  -28.6632  -21.5904   21.7138 C   0  0  0  0  0  0  0  0  0  0  0  0
  -22.0732   -4.5542   24.1435 C   0  0  0  0  0  0  0  0  0  0  0  0
  -23.7475  -10.5512   21.0019 C   0  0  0  0  0  0  0  0  0  0  0  0
  -24.2224  -13.0576   21.0012 C   0  0  0  0  0  0  0  0  0  0  0  0
  -26.6849  -32.9220   23.5456 C   0  0  0  0  0  0  0  0  0  0  0  0
  -25.0523  -27.4701   20.1126 C   0  0  0  0  0  0  0  0  0  0  0  0
  -26.4754  -31.5320   23.4649 C   0  0  0  0  0  0  0  0  0  0  0  0
  -28.8374  -19.8217   19.5634 C   0  0  0  0  0  0  0  0  0  0  0  0
  -24.2660  -26.4460   20.6595 C   0  0  0  0  0  0  0  0  0  0  0  0
  -28.3944  -22.0369   20.4199 C   0  0  0  0  0  0  0  0  0  0  0  0
  -29.0191  -20.2596   21.9325 C   0  0  0  0  0  0  0  0  0  0  0  0
  -22.1623   -8.3013   21.4578 C   0  0  0  0  0  0  0  0  0  0  0  0
  -26.1369  -24.9093   20.4401 C   0  0  0  0  0  0  0  0  0  0  0  0
  -21.9789   -6.1162   22.3028 C   0  0  0  0  0  0  0  0  0  0  0  0
  -29.1062  -19.3752   20.8573 C   0  0  0  0  0  0  0  0  0  0  0  0
  -23.1685   -3.9241   23.5527 C   0  0  0  0  0  0  0  0  0  0  0  0
  -21.4784   -5.6502   23.5185 C   0  0  0  0  0  0  0  0  0  0  0  0
  -24.5668  -11.7128   20.7668 C   0  0  0  0  0  0  0  0  0  0  0  0
  -25.3337  -13.7683   20.6186 C   0  0  0  0  0  0  0  0  0  0  0  0
  -23.0067  -13.6144   21.5186 C   0  0  0  0  0  0  0  0  0  0  0  0
  -23.7058  -29.4198   22.2315 C   0  0  0  0  0  0  0  0  0  0  0  0
  -20.9550  -28.3470   20.8883 C   0  0  0  0  0  0  0  0  0  0  0  0
  -19.3464  -25.8920   19.1469 C   0  0  0  0  0  0  0  0  0  0  0  0
  -30.8678  -14.4852   20.5535 C   0  0  0  0  0  0  0  0  0  0  0  0
  -25.5672  -33.8740   23.8909 C   0  0  0  0  0  0  0  0  0  0  0  0
  -24.4753  -28.8430   19.9011 C   0  0  0  0  0  0  0  0  0  0  0  0
  -22.8401  -26.6814   21.0834 C   0  0  0  0  0  0  0  0  0  0  0  0
  -24.1762  -33.2728   23.7062 C   0  0  0  0  0  0  0  0  0  0  0  0
  -27.9933  -17.4182   17.0213 C   0  0  0  0  0  0  0  0  0  0  0  0
  -29.4739  -12.3055   18.1076 C   0  0  0  0  0  0  0  0  0  0  0  0
  -28.4241  -17.3668   18.4995 C   0  0  0  0  0  0  0  0  0  0  0  0
  -27.8750  -18.9452   17.1901 C   0  0  0  0  0  0  0  0  0  0  0  0
  -24.1109  -31.8789   24.3222 C   0  0  0  0  0  0  0  0  0  0  0  0
  -28.0474  -12.0632   18.6040 C   0  0  0  0  0  0  0  0  0  0  0  0
  -30.4645  -12.4081   19.2652 C   0  0  0  0  0  0  0  0  0  0  0  0
  -28.6829  -13.1569   20.7946 C   0  0  0  0  0  0  0  0  0  0  0  0
  -28.9308  -18.8312   18.3310 C   0  0  0  0  0  0  0  0  0  0  0  0
  -25.0993  -30.9266   23.6382 C   0  0  1  0  0  0  0  0  0  0  0  0
  -23.2905  -29.1406   20.8148 C   0  0  1  0  0  0  0  0  0  0  0  0
  -27.6392  -13.1020   19.6659 C   0  0  2  0  0  0  0  0  0  0  0  0
  -28.4429  -18.5004   25.3205 C   0  0  0  0  0  0  0  0  0  0  0  0
  -17.0912  -25.2806   18.2316 C   0  0  0  0  0  0  0  0  0  0  0  0
  -20.0167  -27.6127   23.6972 C   0  0  0  0  0  0  0  0  0  0  0  0
  -18.2446  -26.1830   22.6562 C   0  0  0  0  0  0  0  0  0  0  0  0
  -18.2596  -28.6436   22.2466 C   0  0  0  0  0  0  0  0  0  0  0  0
  -20.3613  -25.8349   16.3674 C   0  0  0  0  0  0  0  0  0  0  0  0
  -29.3040  -19.8005   23.3247 C   0  0  0  0  0  0  0  0  0  0  0  0
  -28.0117  -23.4685   20.1846 C   0  0  0  0  0  0  0  0  0  1  0  0
  -28.1375  -18.9957   23.9157 C   0  0  0  0  0  0  0  0  0  0  0  0
  -31.1190  -16.5544   21.9006 C   0  0  0  0  0  0  0  0  0  0  0  0
  -30.8429  -17.7585   21.0180 C   0  0  0  0  0  0  0  0  0  0  0  0
  -20.0165  -27.1938   21.1496 C   0  0  1  0  0  0  0  0  0  0  0  0
  -18.4255  -25.9502   17.9415 C   0  0  2  0  0  0  0  0  0  0  0  0
  -19.1618  -27.4040   22.4313 C   0  0  0  0  0  0  0  0  0  0  0  0
  -25.8003  -11.5750   20.2734 N   0  0  0  0  0  0  0  0  0  0  0  0
  -26.2407  -12.8422   20.1945 N   0  0  0  0  0  0  0  0  0  0  0  0
  -22.3233  -28.0421   20.8620 N   0  0  0  0  0  0  0  0  0  0  0  0
  -30.0200  -13.4113   20.2358 N   0  0  0  0  0  0  0  0  0  0  0  0
  -25.6136  -15.0889   20.6068 N   0  0  0  0  0  0  0  0  0  0  0  0
  -21.9651  -12.7417   21.8620 N   0  0  0  0  0  0  0  0  0  0  0  0
  -24.5758  -30.4853   22.3632 N   0  0  0  0  0  0  0  0  0  0  0  0
  -19.2333  -27.0206   19.9309 N   0  0  0  0  0  0  0  0  0  0  0  0
  -30.3670  -15.3941   21.4775 N   0  0  0  0  0  0  0  0  0  0  0  0
  -19.0525  -25.2636   16.7769 N   0  3  0  0  0  0  0  0  0  0  0  0
  -22.8426  -14.8504   21.6564 O   0  0  0  0  0  0  0  0  0  0  0  0
  -23.2682  -28.7212   23.1383 O   0  0  0  0  0  0  0  0  0  0  0  0
  -20.4908  -29.4753   20.7068 O   0  0  0  0  0  0  0  0  0  0  0  0
  -20.0888  -24.9389   19.3725 O   0  0  0  0  0  0  0  0  0  0  0  0
  -31.9860  -14.6266   20.0469 O   0  0  0  0  0  0  0  0  0  0  0  0
  -21.3889   -7.2036   21.6807 O   0  0  0  0  0  0  0  0  0  0  0  0
  -26.6622  -23.6648   20.6049 O   0  0  0  0  0  0  0  0  0  1  0  0
  -29.4534  -18.0736   21.0681 O   0  0  0  0  0  0  0  0  0  0  0  0
  -23.7389   -2.8707   24.1520 F   0  0  0  0  0  0  0  0  0  0  0  0
  -20.4256   -6.2506   24.0903 F   0  0  0  0  0  0  0  0  0  0  0  0
  1  2  1  0  0  0  0
  1  5  2  0  0  0  0
  2  6  2  0  0  0  0
  3  8  2  0  0  0  0
  3 17  1  0  0  0  0
  4  9  1  0  0  0  0
  4 17  2  0  0  0  0
  5 19  1  0  0  0  0
  6 21  1  0  0  0  0
  7 10  2  0  0  0  0
  7 20  1  0  0  0  0
  8 26  1  0  0  0  0
  9 26  2  0  0  0  0
 10 27  1  0  0  0  0
 11 12  2  0  0  0  0
 11 28  1  0  0  0  0
 12 30  1  0  0  0  0
 13 22  2  0  0  0  0
 13 24  1  0  0  0  0
 14 23  1  0  0  0  0
 14 27  2  0  0  0  0
 15 24  2  0  0  0  0
 15 25  1  0  0  0  0
 16 30  2  0  0  0  0
 16 31  1  0  0  0  0
 17 32  1  0  0  0  0
 18 32  1  0  0  0  0
 18 33  2  0  0  0  0
 18 34  1  0  0  0  0
 19 21  2  0  0  0  0
 19 39  1  0  0  0  0
 20 23  2  0  0  0  0
 20 40  1  0  0  0  0
 21 52  1  0  0  0  0
 22 29  1  0  0  0  0
 22 51  1  0  0  0  0
 23 41  1  0  0  0  0
 24 62  1  0  0  0  0
 25 29  2  0  0  0  0
 25 61  1  0  0  0  0
 26 84  1  0  0  0  0
 27 85  1  0  0  0  0
 28 31  2  0  0  0  0
 28 84  1  0  0  0  0
 29 86  1  0  0  0  0
 30 87  1  0  0  0  0
 31 88  1  0  0  0  0
 32 69  2  0  0  0  0
 33 70  1  0  0  0  0
 33 73  1  0  0  0  0
 34 74  1  0  0  0  0
 34 79  2  0  0  0  0
 35 53  1  0  0  0  0
 35 75  1  0  0  0  0
 35 80  2  0  0  0  0
 36 66  1  0  0  0  0
 36 71  1  0  0  0  0
 36 81  2  0  0  0  0
 37 67  1  0  0  0  0
 37 76  1  0  0  0  0
 37 82  2  0  0  0  0
 38 72  1  0  0  0  0
 38 77  1  0  0  0  0
 38 83  2  0  0  0  0
 39 42  1  0  0  0  0
 40 53  1  0  0  0  0
 41 71  1  0  0  0  0
 42 47  1  0  0  0  0
 43 45  1  0  0  0  0
 43 46  1  0  0  0  0
 44 48  1  0  0  0  0
 44 49  1  0  0  0  0
 45 51  1  0  0  0  0
 46 51  1  0  0  0  0
 47 52  1  0  0  0  0
 48 54  1  0  0  0  0
 49 72  1  0  0  0  0
 50 54  1  0  0  0  0
 50 72  1  0  0  0  0
 52 75  1  0  0  0  0
 53 71  1  0  0  0  0
 54 70  1  0  0  0  0
 55 63  1  0  0  0  0
 56 67  1  0  0  0  0
 57 68  1  0  0  0  0
 58 68  1  0  0  0  0
 59 68  1  0  0  0  0
 60 78  1  0  0  0  0
 61 63  1  0  0  0  0
 62 85  1  0  0  0  0
 64 65  1  0  0  0  0
 64 77  1  0  0  0  0
 65 86  1  0  0  0  0
 66 68  1  0  0  0  0
 66 76  1  0  0  0  0
 67 78  1  0  0  0  0
 69 70  1  0  0  0  0
M  CHG  1  78   1
M  ISO  4  38 100  62 101  77 100  85 101
M  END
> <Batch ID>
0151

> <Smiles>
CCCc1cc([101CH2:1][101O:1]c2ccc3c(c2)CN(C(=O)C(NC(=O)C(C)NC)C(C)(C)C)C(C(=O)NC2CCCc4ccccc42)C3)cc(C2CCC2)c1OCC[100NH:0][100C:0](=O)N1CCCC(n2nc(-c3ccc(Oc4ccc(F)cc4F)cc3)c(C(N)=O)c2N)C1

> <Shape>
0.405

> <Color>
0.211

> <Negative vol penalty>
0.000

$$$$

  -OEChem-04052321433D

 90 99  0     1  0  0  0  0  0999 V2000
  -26.4948  -38.5156   20.7420 C   0  0  0  0  0  0  0  0  0  0  0  0
  -26.7469  -37.4659   19.8646 C   0  0  0  0  0  0  0  0  0  0  0  0
  -21.9978  -14.8910   22.3650 C   0  0  0  0  0  0  0  0  0  0  0  0
  -21.5962  -14.7016   19.9902 C   0  0  0  0  0  0  0  0  0  0  0  0
  -26.4959  -38.2884   22.1176 C   0  0  0  0  0  0  0  0  0  0  0  0
  -27.0013  -36.1884   20.3623 C   0  0  0  0  0  0  0  0  0  0  0  0
  -26.0229  -29.2754   18.7596 C   0  0  0  0  0  0  0  0  0  0  0  0
  -20.7088  -15.3934   22.5429 C   0  0  0  0  0  0  0  0  0  0  0  0
  -20.3071  -15.2040   20.1681 C   0  0  0  0  0  0  0  0  0  0  0  0
  -26.7394  -28.0852   18.6417 C   0  0  0  0  0  0  0  0  0  0  0  0
  -17.5609  -14.1712   22.7169 C   0  0  0  0  0  0  0  0  0  0  0  0
  -16.8058  -13.6598   23.7723 C   0  0  0  0  0  0  0  0  0  0  0  0
  -26.6374  -27.7939   21.0342 C   0  0  0  0  0  0  0  0  0  0  0  0
  -28.1943  -23.3148   18.0164 C   0  0  0  0  0  0  0  0  0  0  0  0
  -30.8230  -23.1720   18.9396 C   0  0  0  0  0  0  0  0  0  0  0  0
  -16.6414  -15.8730   24.7271 C   0  0  0  0  0  0  0  0  0  0  0  0
  -22.4415  -14.5452   21.0886 C   0  0  0  0  0  0  0  0  0  0  0  0
  -24.1731  -12.6775   20.9438 C   0  0  0  0  0  0  0  0  0  0  0  0
  -26.7410  -37.0054   22.6321 C   0  0  0  0  0  0  0  0  0  0  0  0
  -25.6170  -29.7401   20.0188 C   0  0  0  0  0  0  0  0  0  0  0  0
  -27.0070  -35.9441   21.7461 C   0  0  0  0  0  0  0  0  0  0  0  0
  -25.9136  -28.9890   21.1651 C   0  0  0  0  0  0  0  0  0  0  0  0
  -28.8549  -24.4743   18.4220 C   0  0  0  0  0  0  0  0  0  0  0  0
  -28.8480  -22.0838   18.0724 C   0  0  0  0  0  0  0  0  0  0  0  0
  -30.1692  -24.4030   18.8836 C   0  0  0  0  0  0  0  0  0  0  0  0
  -19.8635  -15.5499   21.4445 C   0  0  0  0  0  0  0  0  0  0  0  0
  -27.0493  -27.3458   19.7794 C   0  0  0  0  0  0  0  0  0  0  0  0
  -17.8564  -15.5335   22.6666 C   0  0  0  0  0  0  0  0  0  0  0  0
  -30.1623  -22.0124   18.5340 C   0  0  0  0  0  0  0  0  0  0  0  0
  -16.3460  -14.5107   24.7774 C   0  0  0  0  0  0  0  0  0  0  0  0
  -17.3966  -16.3844   23.6717 C   0  0  0  0  0  0  0  0  0  0  0  0
  -23.7731  -14.0267   20.9041 C   0  0  0  0  0  0  0  0  0  0  0  0
  -25.5263  -12.7136   20.7113 C   0  0  0  0  0  0  0  0  0  0  0  0
  -23.3914  -11.4972   21.1706 C   0  0  0  0  0  0  0  0  0  0  0  0
  -26.2215  -32.3335   21.7544 C   0  0  0  0  0  0  0  0  0  0  0  0
  -23.9667  -31.0710   23.7151 C   0  0  0  0  0  0  0  0  0  0  0  0
  -22.2923  -28.3022   24.8000 C   0  0  0  0  0  0  0  0  0  0  0  0
  -29.6547  -16.6489   21.6521 C   0  0  0  0  0  0  0  0  0  0  0  0
  -26.7785  -36.8183   24.1282 C   0  0  0  0  0  0  0  0  0  0  0  0
  -24.8217  -31.0122   20.1264 C   0  0  0  0  0  0  0  0  0  0  0  0
  -25.4833  -29.4340   22.5381 C   0  0  0  0  0  0  0  0  0  0  0  0
  -26.6868  -35.3575   24.5618 C   0  0  0  0  0  0  0  0  0  0  0  0
  -33.2452  -17.4307   21.1804 C   0  0  0  0  0  0  0  0  0  0  0  0
  -28.8871  -15.2958   18.5039 C   0  0  0  0  0  0  0  0  0  0  0  0
  -27.6337  -34.4944   23.7339 C   0  0  0  0  0  0  0  0  0  0  0  0
  -33.2038  -18.8777   20.6954 C   0  0  0  0  0  0  0  0  0  0  0  0
  -27.5136  -14.6784   18.7653 C   0  0  0  0  0  0  0  0  0  0  0  0
  -32.0466  -17.0953   22.0613 C   0  0  0  0  0  0  0  0  0  0  0  0
  -29.0458  -16.6523   19.1926 C   0  0  0  0  0  0  0  0  0  0  0  0
  -30.6962  -18.8339   20.9326 C   0  0  0  0  0  0  0  0  0  0  0  0
  -27.3809  -16.0096   20.9049 C   0  0  0  0  0  0  0  0  0  0  0  0
  -27.2628  -34.5390   22.2467 C   0  0  1  0  0  0  0  0  0  0  0  0
  -24.9044  -31.6536   21.5082 C   0  0  1  0  0  0  0  0  0  0  0  0
  -31.8670  -19.1931   20.0114 C   0  0  1  0  0  0  0  0  0  0  0  0
  -27.2127  -14.6189   20.2735 C   0  0  1  0  0  0  0  0  0  0  0  0
  -30.8972  -25.6306   19.3233 C   0  0  0  0  0  0  0  0  0  0  0  0
  -28.8510  -20.9963   15.1810 C   0  0  0  0  0  0  0  0  0  0  0  0
  -26.9022  -20.5684   18.5289 C   0  0  0  0  0  0  0  0  0  0  0  0
  -20.5338  -27.5793   26.4378 C   0  0  0  0  0  0  0  0  0  0  0  0
  -25.9889  -31.3090   25.9876 C   0  0  0  0  0  0  0  0  0  0  0  0
  -24.5667  -29.7407   27.3241 C   0  0  0  0  0  0  0  0  0  0  0  0
  -23.6495  -31.9452   26.6019 C   0  0  0  0  0  0  0  0  0  0  0  0
  -20.5220  -27.3182   22.6420 C   0  0  0  0  0  0  0  0  0  0  0  0
  -28.1347  -25.7810   18.3548 C   0  0  0  0  0  0  0  0  0  1  0  0
  -31.8019  -20.6640   19.6060 C   0  0  0  0  0  0  0  0  0  0  0  0
  -27.6782  -20.8787   16.1468 C   0  0  0  0  0  0  0  0  0  0  0  0
  -28.1259  -20.8528   17.6333 C   0  0  1  0  0  0  0  0  0  0  0  0
  -23.9803  -30.1182   24.8860 C   0  0  1  0  0  0  0  0  0  0  0  0
  -20.8128  -28.0399   25.0155 C   0  0  2  0  0  0  0  0  0  0  0  0
  -24.5563  -30.7706   26.1744 C   0  0  0  0  0  0  0  0  0  0  0  0
  -24.7900  -14.8591   20.6653 N   0  0  0  0  0  0  0  0  0  0  0  0
  -25.8423  -14.0309   20.5529 N   0  0  0  0  0  0  0  0  0  0  0  0
  -24.7133  -30.6877   22.5920 N   0  0  0  0  0  0  0  0  0  0  0  0
  -30.7861  -17.4451   21.4071 N   0  0  0  0  0  0  0  0  0  0  0  0
  -28.7099  -16.5543   20.6193 N   0  0  0  0  0  0  0  0  0  0  0  0
  -26.4648  -11.7467   20.6289 N   0  0  0  0  0  0  0  0  0  0  0  0
  -22.0150  -11.6399   21.3927 N   0  0  0  0  0  0  0  0  0  0  0  0
  -26.1188  -33.6920   21.9854 N   0  0  0  0  0  0  0  0  0  0  0  0
  -22.6149  -29.6237   25.0257 N   0  0  0  0  0  0  0  0  0  0  0  0
  -20.3314  -26.9866   24.0775 N   0  3  0  0  0  0  0  0  0  0  0  0
  -23.9012  -10.3513   21.1923 O   0  0  0  0  0  0  0  0  0  0  0  0
  -27.2543  -31.6742   21.7377 O   0  0  0  0  0  0  0  0  0  0  0  0
  -23.3118  -32.1136   23.7915 O   0  0  0  0  0  0  0  0  0  0  0  0
  -23.0835  -27.4221   24.4684 O   0  0  0  0  0  0  0  0  0  0  0  0
  -29.5009  -16.0565   22.7276 O   0  0  0  0  0  0  0  0  0  0  0  0
  -18.6055  -16.0399   21.6178 O   0  0  0  0  0  0  0  0  0  0  0  0
  -27.7541  -26.1758   19.6664 O   0  0  0  0  0  0  0  0  0  1  0  0
  -30.8200  -20.8086   18.5969 O   0  0  0  0  0  0  0  0  0  0  0  0
  -15.6196  -14.0197   25.7900 F   0  0  0  0  0  0  0  0  0  0  0  0
  -17.6762  -17.6943   23.6282 F   0  0  0  0  0  0  0  0  0  0  0  0
  1  2  1  0  0  0  0
  1  5  2  0  0  0  0
  2  6  2  0  0  0  0
  3  8  2  0  0  0  0
  3 17  1  0  0  0  0
  4  9  1  0  0  0  0
  4 17  2  0  0  0  0
  5 19  1  0  0  0  0
  6 21  1  0  0  0  0
  7 10  2  0  0  0  0
  7 20  1  0  0  0  0
  8 26  1  0  0  0  0
  9 26  2  0  0  0  0
 10 27  1  0  0  0  0
 11 12  2  0  0  0  0
 11 28  1  0  0  0  0
 12 30  1  0  0  0  0
 13 22  1  0  0  0  0
 13 27  2  0  0  0  0
 14 23  2  0  0  0  0
 14 24  1  0  0  0  0
 15 25  2  0  0  0  0
 15 29  1  0  0  0  0
 16 30  2  0  0  0  0
 16 31  1  0  0  0  0
 17 32  1  0  0  0  0
 18 32  1  0  0  0  0
 18 33  2  0  0  0  0
 18 34  1  0  0  0  0
 19 21  2  0  0  0  0
 19 39  1  0  0  0  0
 20 22  2  0  0  0  0
 20 40  1  0  0  0  0
 21 52  1  0  0  0  0
 22 41  1  0  0  0  0
 23 25  1  0  0  0  0
 23 64  1  0  0  0  0
 24 29  2  0  0  0  0
 24 67  1  0  0  0  0
 25 56  1  0  0  0  0
 26 86  1  0  0  0  0
 27 87  1  0  0  0  0
 28 31  2  0  0  0  0
 28 86  1  0  0  0  0
 29 88  1  0  0  0  0
 30 89  1  0  0  0  0
 31 90  1  0  0  0  0
 32 71  2  0  0  0  0
 33 72  1  0  0  0  0
 33 76  1  0  0  0  0
 34 77  1  0  0  0  0
 34 81  2  0  0  0  0
 35 53  1  0  0  0  0
 35 78  1  0  0  0  0
 35 82  2  0  0  0  0
 36 68  1  0  0  0  0
 36 73  1  0  0  0  0
 36 83  2  0  0  0  0
 37 69  1  0  0  0  0
 37 79  1  0  0  0  0
 37 84  2  0  0  0  0
 38 74  1  0  0  0  0
 38 75  1  0  0  0  0
 38 85  2  0  0  0  0
 39 42  1  0  0  0  0
 40 53  1  0  0  0  0
 41 73  1  0  0  0  0
 42 45  1  0  0  0  0
 43 46  1  0  0  0  0
 43 48  1  0  0  0  0
 44 47  1  0  0  0  0
 44 49  1  0  0  0  0
 45 52  1  0  0  0  0
 46 54  1  0  0  0  0
 47 55  1  0  0  0  0
 48 74  1  0  0  0  0
 49 75  1  0  0  0  0
 50 54  1  0  0  0  0
 50 74  1  0  0  0  0
 51 55  1  0  0  0  0
 51 75  1  0  0  0  0
 52 78  1  0  0  0  0
 53 73  1  0  0  0  0
 54 65  1  0  0  0  0
 55 72  1  0  0  0  0
 57 66  1  0  0  0  0
 58 67  1  0  0  0  0
 59 69  1  0  0  0  0
 60 70  1  0  0  0  0
 61 70  1  0  0  0  0
 62 70  1  0  0  0  0
 63 80  1  0  0  0  0
 64 87  1  0  0  0  0
 65 88  1  0  0  0  0
 66 67  1  0  0  0  0
 68 70  1  0  0  0  0
 68 79  1  0  0  0  0
 69 80  1  0  0  0  0
 71 72  1  0  0  0  0
M  CHG  1  80   1
M  ISO  4  38 100  64 101  74 100  87 101
M  END
> <Batch ID>
0151

> <Smiles>
CCC(C)c1cc([101CH2:1][101O:1]c2ccc3c(c2)CN(C(=O)C(NC(=O)C(C)NC)C(C)(C)C)C(C(=O)NC2CCCc4ccccc42)C3)c(C)cc1OCC1CCC[100N:0]([100C:0](=O)N2CCCC(n3nc(-c4ccc(Oc5ccc(F)cc5F)cc4)c(C(N)=O)c3N)C2)C1

> <Shape>
0.267

> <Color>
0.090

> <Negative vol penalty>
0.000

$$$$

  -OEChem-04052321433D

 90100  0     1  0  0  0  0  0999 V2000
  -28.8708  -35.5763   26.1790 C   0  0  0  0  0  0  0  0  0  0  0  0
  -29.3361  -34.8497   25.0877 C   0  0  0  0  0  0  0  0  0  0  0  0
  -25.1640   -8.4129   22.3765 C   0  0  0  0  0  0  0  0  0  0  0  0
  -26.6932   -6.6470   21.7596 C   0  0  0  0  0  0  0  0  0  0  0  0
  -27.9061  -35.0256   27.0216 C   0  0  0  0  0  0  0  0  0  0  0  0
  -28.8376  -33.5714   24.8389 C   0  0  0  0  0  0  0  0  0  0  0  0
  -27.3060  -29.1313   19.4301 C   0  0  0  0  0  0  0  0  0  0  0  0
  -24.0932   -7.5269   22.2582 C   0  0  0  0  0  0  0  0  0  0  0  0
  -25.6224   -5.7611   21.6413 C   0  0  0  0  0  0  0  0  0  0  0  0
  -27.5604  -27.8297   19.0001 C   0  0  0  0  0  0  0  0  0  0  0  0
  -22.6891   -5.0573   24.0919 C   0  0  0  0  0  0  0  0  0  0  0  0
  -21.7273   -5.0643   25.1021 C   0  0  0  0  0  0  0  0  0  0  0  0
  -25.8381  -27.0114   20.4776 C   0  0  0  0  0  0  0  0  0  0  0  0
  -20.0308   -5.6450   23.4828 C   0  0  0  0  0  0  0  0  0  0  0  0
  -29.3609  -20.0469   20.2530 C   0  0  0  0  0  0  0  0  0  0  0  0
  -26.4641   -7.9729   22.1272 C   0  0  0  0  0  0  0  0  0  0  0  0
  -28.3360   -9.1478   23.4012 C   0  0  0  0  0  0  0  0  0  0  0  0
  -27.3886  -33.7437   26.7775 C   0  0  0  0  0  0  0  0  0  0  0  0
  -26.3216  -29.3820   20.3967 C   0  0  0  0  0  0  0  0  0  0  0  0
  -27.8661  -33.0024   25.6798 C   0  0  0  0  0  0  0  0  0  0  0  0
  -25.5714  -28.3174   20.9164 C   0  0  0  0  0  0  0  0  0  0  0  0
  -29.2447  -19.6301   21.5693 C   0  0  0  0  0  0  0  0  0  0  0  0
  -28.6216  -21.8844   22.1300 C   0  0  0  0  0  0  0  0  0  0  0  0
  -28.8676  -20.5725   22.5196 C   0  0  0  0  0  0  0  0  0  0  0  0
  -24.3224   -6.2010   21.8906 C   0  0  0  0  0  0  0  0  0  0  0  0
  -26.8284  -26.7692   19.5260 C   0  0  0  0  0  0  0  0  0  0  0  0
  -22.3218   -5.3443   22.7771 C   0  0  0  0  0  0  0  0  0  0  0  0
  -20.3982   -5.3581   24.7976 C   0  0  0  0  0  0  0  0  0  0  0  0
  -20.9927   -5.6381   22.4726 C   0  0  0  0  0  0  0  0  0  0  0  0
  -27.5706   -8.8878   22.2487 C   0  0  0  0  0  0  0  0  0  0  0  0
  -28.7658  -22.2003   20.7887 C   0  0  0  0  0  0  0  0  0  0  0  0
  -29.2563  -10.0843   22.9982 C   0  0  0  0  0  0  0  0  0  0  0  0
  -28.2252   -8.5922   24.7183 C   0  0  0  0  0  0  0  0  0  0  0  0
  -26.3183  -30.6083   23.3293 C   0  0  0  0  0  0  0  0  0  0  0  0
  -23.1003  -30.3481   23.0136 C   0  0  0  0  0  0  0  0  0  0  0  0
  -20.4521  -28.8194   21.4981 C   0  0  0  0  0  0  0  0  0  0  0  0
  -30.7102  -14.6195   20.2891 C   0  0  0  0  0  0  0  0  0  0  0  0
  -26.3814  -33.1714   27.7434 C   0  0  0  0  0  0  0  0  0  0  0  0
  -26.0410  -30.7946   20.8304 C   0  0  0  0  0  0  0  0  0  0  0  0
  -24.4897  -28.5355   21.9414 C   0  0  0  0  0  0  0  0  0  0  0  0
  -25.6316  -31.9601   27.1949 C   0  0  0  0  0  0  0  0  0  0  0  0
  -30.4763  -11.7433   18.3862 C   0  0  0  0  0  0  0  0  0  0  0  0
  -29.0259  -24.1862   23.2310 C   0  0  0  0  0  0  0  0  0  0  0  0
  -29.0877  -23.1664   24.3249 C   0  0  0  0  0  0  0  0  0  0  0  0
  -26.6037  -30.9782   26.5486 C   0  0  0  0  0  0  0  0  0  0  0  0
  -29.7634  -10.7546   19.3083 C   0  0  0  0  0  0  0  0  0  0  0  0
  -28.5499  -17.2146   21.2462 C   0  0  0  0  0  0  0  0  0  0  0  0
  -30.9839  -17.7881   21.6415 C   0  0  0  0  0  0  0  0  0  0  0  0
  -29.8627  -13.1341   18.4986 C   0  0  0  0  0  0  0  0  0  0  0  0
  -28.8597  -15.7560   21.5948 C   0  0  0  0  0  0  0  0  0  0  0  0
  -31.2301  -16.3266   22.0050 C   0  0  0  0  0  0  0  0  0  0  0  0
  -29.1418  -12.7002   20.8245 C   0  0  0  0  0  0  0  0  0  0  0  0
  -29.5259  -18.1850   21.9357 C   0  0  0  0  0  0  0  0  0  0  0  0
  -28.2150  -22.9222   23.1224 C   0  0  0  0  0  0  0  0  0  0  0  0
  -27.3318  -31.6226   25.3627 C   0  0  1  0  0  0  0  0  0  0  0  0
  -25.3680  -30.8776   22.1970 C   0  0  1  0  0  0  0  0  0  0  0  0
  -29.7280  -11.2753   20.7560 C   0  0  1  0  0  0  0  0  0  0  0  0
  -27.4345  -19.4090   24.2164 C   0  0  0  0  0  0  0  0  0  0  0  0
  -17.9429  -28.7923   21.4741 C   0  0  0  0  0  0  0  0  0  0  0  0
  -23.0945  -28.7904   25.6372 C   0  0  0  0  0  0  0  0  0  0  0  0
  -20.7876  -27.9940   25.0785 C   0  0  0  0  0  0  0  0  0  0  0  0
  -21.2220  -30.4302   25.3934 C   0  0  0  0  0  0  0  0  0  0  0  0
  -20.3550  -29.6205   18.6507 C   0  0  0  0  0  0  0  0  0  0  0  0
  -28.7281  -20.1728   23.9538 C   0  0  0  0  0  0  0  0  0  0  0  0
  -28.4071  -25.1962   18.6957 C   0  0  0  0  0  0  0  0  0  1  0  0
  -28.7002  -23.7344   18.9726 C   0  0  0  0  0  0  0  0  0  0  0  0
  -22.0798  -29.2768   23.3135 C   0  0  1  0  0  0  0  0  0  0  0  0
  -19.1990  -29.3821   20.8519 C   0  0  2  0  0  0  0  0  0  0  0  0
  -21.8176  -29.1182   24.8378 C   0  0  0  0  0  0  0  0  0  0  0  0
  -29.1303  -21.3123   19.8368 N   0  0  0  0  0  0  0  0  0  0  0  0
  -27.9697   -9.6017   21.1928 N   0  0  0  0  0  0  0  0  0  0  0  0
  -28.9960  -10.3195   21.6802 N   0  0  0  0  0  0  0  0  0  0  0  0
  -24.2572  -29.9341   22.3382 N   0  0  0  0  0  0  0  0  0  0  0  0
  -29.8440  -13.5913   19.8880 N   0  0  0  0  0  0  0  0  0  0  0  0
  -30.2726  -15.4485   21.3330 N   0  0  0  0  0  0  0  0  0  0  0  0
  -30.2545  -10.7215   23.6462 N   0  0  0  0  0  0  0  0  0  0  0  0
  -27.2241   -7.6417   24.9605 N   0  0  0  0  0  0  0  0  0  0  0  0
  -26.4671  -31.6683   24.2031 N   0  0  0  0  0  0  0  0  0  0  0  0
  -20.8930  -29.6142   22.5350 N   0  0  0  0  0  0  0  0  0  0  0  0
  -19.1877  -29.0789   19.3928 N   0  3  0  0  0  0  0  0  0  0  0  0
  -28.9807   -8.9409   25.6570 O   0  0  0  0  0  0  0  0  0  0  0  0
  -26.8741  -29.5188   23.4054 O   0  0  0  0  0  0  0  0  0  0  0  0
  -22.8760  -31.5108   23.3593 O   0  0  0  0  0  0  0  0  0  0  0  0
  -20.9843  -27.7770   21.1231 O   0  0  0  0  0  0  0  0  0  0  0  0
  -31.8101  -14.7872   19.7476 O   0  0  0  0  0  0  0  0  0  0  0  0
  -23.2777   -5.3362   21.7752 O   0  0  0  0  0  0  0  0  0  0  0  0
  -27.0767  -25.4890   19.1056 O   0  0  0  0  0  0  0  0  0  1  0  0
  -28.5330  -23.4823   20.3624 O   0  0  0  0  0  0  0  0  0  0  0  0
  -19.4744   -5.3633   25.7675 F   0  0  0  0  0  0  0  0  0  0  0  0
  -20.6336   -5.9133   21.2113 F   0  0  0  0  0  0  0  0  0  0  0  0
  1  2  1  0  0  0  0
  1  5  2  0  0  0  0
  2  6  2  0  0  0  0
  3  8  2  0  0  0  0
  3 16  1  0  0  0  0
  4  9  1  0  0  0  0
  4 16  2  0  0  0  0
  5 18  1  0  0  0  0
  6 20  1  0  0  0  0
  7 10  2  0  0  0  0
  7 19  1  0  0  0  0
  8 25  1  0  0  0  0
  9 25  2  0  0  0  0
 10 26  1  0  0  0  0
 11 12  2  0  0  0  0
 11 27  1  0  0  0  0
 12 28  1  0  0  0  0
 13 21  1  0  0  0  0
 13 26  2  0  0  0  0
 14 28  2  0  0  0  0
 14 29  1  0  0  0  0
 15 22  2  0  0  0  0
 15 70  1  0  0  0  0
 16 30  1  0  0  0  0
 17 30  1  0  0  0  0
 17 32  2  0  0  0  0
 17 33  1  0  0  0  0
 18 20  2  0  0  0  0
 18 38  1  0  0  0  0
 19 21  2  0  0  0  0
 19 39  1  0  0  0  0
 20 55  1  0  0  0  0
 21 40  1  0  0  0  0
 22 24  1  0  0  0  0
 22 53  1  0  0  0  0
 23 24  2  0  0  0  0
 23 31  1  0  0  0  0
 23 54  1  0  0  0  0
 24 64  1  0  0  0  0
 25 86  1  0  0  0  0
 26 87  1  0  0  0  0
 27 29  2  0  0  0  0
 27 86  1  0  0  0  0
 28 89  1  0  0  0  0
 29 90  1  0  0  0  0
 30 71  2  0  0  0  0
 31 70  2  0  0  0  0
 31 88  1  0  0  0  0
 32 72  1  0  0  0  0
 32 76  1  0  0  0  0
 33 77  1  0  0  0  0
 33 81  2  0  0  0  0
 34 56  1  0  0  0  0
 34 78  1  0  0  0  0
 34 82  2  0  0  0  0
 35 67  1  0  0  0  0
 35 73  1  0  0  0  0
 35 83  2  0  0  0  0
 36 68  1  0  0  0  0
 36 79  1  0  0  0  0
 36 84  2  0  0  0  0
 37 74  1  0  0  0  0
 37 75  1  0  0  0  0
 37 85  2  0  0  0  0
 38 41  1  0  0  0  0
 39 56  1  0  0  0  0
 40 73  1  0  0  0  0
 41 45  1  0  0  0  0
 42 46  1  0  0  0  0
 42 49  1  0  0  0  0
 43 44  1  0  0  0  0
 43 54  1  0  0  0  0
 44 54  1  0  0  0  0
 45 55  1  0  0  0  0
 46 57  1  0  0  0  0
 47 50  1  0  0  0  0
 47 53  1  0  0  0  0
 48 51  1  0  0  0  0
 48 53  1  0  0  0  0
 49 74  1  0  0  0  0
 50 75  1  0  0  0  0
 51 75  1  0  0  0  0
 52 57  1  0  0  0  0
 52 74  1  0  0  0  0
 55 78  1  0  0  0  0
 56 73  1  0  0  0  0
 57 72  1  0  0  0  0
 58 64  1  0  0  0  0
 59 68  1  0  0  0  0
 60 69  1  0  0  0  0
 61 69  1  0  0  0  0
 62 69  1  0  0  0  0
 63 80  1  0  0  0  0
 65 66  1  0  0  0  0
 65 87  1  0  0  0  0
 66 88  1  0  0  0  0
 67 69  1  0  0  0  0
 67 79  1  0  0  0  0
 68 80  1  0  0  0  0
 71 72  1  0  0  0  0
M  CHG  1  80   1
M  ISO  4  37 100  65 101  75 100  87 101
M  END
> <Batch ID>
0151

> <Smiles>
CCc1c(C2CC[100N:0]([100C:0](=O)N3CCCC(n4nc(-c5ccc(Oc6ccc(F)cc6F)cc5)c(C(N)=O)c4N)C3)CC2)cnc(OC[101CH2:1][101O:1]c2ccc3c(c2)CN(C(=O)C(NC(=O)C(C)NC)C(C)(C)C)C(C(=O)NC2CCCc4ccccc42)C3)c1C1CC1

> <Shape>
0.295

> <Color>
0.096

> <Negative vol penalty>
0.000

$$$$

  -OEChem-04052321433D

 89 99  0     1  0  0  0  0  0999 V2000
  -27.4295  -30.1915   28.4142 C   0  0  0  0  0  0  0  0  0  0  0  0
  -27.6133  -29.4223   27.2696 C   0  0  0  0  0  0  0  0  0  0  0  0
  -24.7406   -8.9176   21.5168 C   0  0  0  0  0  0  0  0  0  0  0  0
  -23.2165  -10.0230   20.0028 C   0  0  0  0  0  0  0  0  0  0  0  0
  -26.1615  -30.6781   28.7295 C   0  0  0  0  0  0  0  0  0  0  0  0
  -26.5289  -29.1384   26.4402 C   0  0  0  0  0  0  0  0  0  0  0  0
  -27.6265  -29.7398   21.5332 C   0  0  0  0  0  0  0  0  0  0  0  0
  -29.1680  -21.1168   18.2444 C   0  0  0  0  0  0  0  0  0  0  0  0
  -23.7403   -8.0079   21.8595 C   0  0  0  0  0  0  0  0  0  0  0  0
  -22.2162   -9.1133   20.3455 C   0  0  0  0  0  0  0  0  0  0  0  0
  -28.3558  -28.7251   20.9149 C   0  0  0  0  0  0  0  0  0  0  0  0
  -29.4579  -22.2763   18.9635 C   0  0  0  0  0  0  0  0  0  0  0  0
  -22.3356   -5.2332   20.5327 C   0  0  0  0  0  0  0  0  0  0  0  0
  -22.6799   -3.8828   20.5913 C   0  0  0  0  0  0  0  0  0  0  0  0
  -26.3182  -27.8441   19.9709 C   0  0  0  0  0  0  0  0  0  0  0  0
  -27.1139  -22.5373   19.4875 C   0  0  0  0  0  0  0  0  0  0  0  0
  -22.0408   -3.8210   22.9204 C   0  0  0  0  0  0  0  0  0  0  0  0
  -24.4787   -9.9252   20.5884 C   0  0  0  0  0  0  0  0  0  0  0  0
  -26.4536  -10.7424   19.1956 C   0  0  0  0  0  0  0  0  0  0  0  0
  -25.0629  -30.4082   27.8984 C   0  0  0  0  0  0  0  0  0  0  0  0
  -26.2339  -29.8079   21.3836 C   0  0  0  0  0  0  0  0  0  0  0  0
  -25.2448  -29.6208   26.7454 C   0  0  0  0  0  0  0  0  0  0  0  0
  -27.8511  -20.6676   18.1468 C   0  0  0  0  0  0  0  0  0  0  0  0
  -25.5739  -28.8621   20.5863 C   0  0  0  0  0  0  0  0  0  0  0  0
  -26.8240  -21.3778   18.7684 C   0  0  0  0  0  0  0  0  0  0  0  0
  -22.4781   -8.1057   21.2739 C   0  0  0  0  0  0  0  0  0  0  0  0
  -27.7014  -27.7754   20.1360 C   0  0  0  0  0  0  0  0  0  0  0  0
  -28.4309  -22.9866   19.5851 C   0  0  0  0  0  0  0  0  0  0  0  0
  -21.8440   -5.8775   21.6679 C   0  0  0  0  0  0  0  0  0  0  0  0
  -22.5325   -3.1766   21.7851 C   0  0  0  0  0  0  0  0  0  0  0  0
  -21.6966   -5.1714   22.8618 C   0  0  0  0  0  0  0  0  0  0  0  0
  -25.5114  -10.8656   20.2344 C   0  0  0  0  0  0  0  0  0  0  0  0
  -27.2048  -11.8894   19.2756 C   0  0  0  0  0  0  0  0  0  0  0  0
  -26.6335   -9.6856   18.2435 C   0  0  0  0  0  0  0  0  0  0  0  0
  -23.7540  -29.6351   23.3645 C   0  0  0  0  0  0  0  0  0  0  0  0
  -22.0685  -30.3881   20.6972 C   0  0  0  0  0  0  0  0  0  0  0  0
  -21.8901  -30.3973   17.2892 C   0  0  0  0  0  0  0  0  0  0  0  0
  -27.5878  -17.4233   19.8883 C   0  0  0  0  0  0  0  0  0  0  0  0
  -23.7025  -30.9162   28.3056 C   0  0  0  0  0  0  0  0  0  0  0  0
  -25.4649  -30.9243   22.0354 C   0  0  0  0  0  0  0  0  0  0  0  0
  -24.0828  -28.9029   20.3775 C   0  0  0  0  0  0  0  0  0  0  0  0
  -22.6770  -30.8843   27.1752 C   0  0  0  0  0  0  0  0  0  0  0  0
  -27.3895  -15.4612   22.8527 C   0  0  0  0  0  0  0  0  0  0  0  0
  -22.7245  -29.5438   26.4490 C   0  0  0  0  0  0  0  0  0  0  0  0
  -29.5562  -15.5500   15.4087 C   0  0  0  0  0  0  0  0  0  0  0  0
  -29.3042  -16.3318   14.1508 C   0  0  0  0  0  0  0  0  0  0  0  0
  -26.9550  -14.0830   22.3507 C   0  0  0  0  0  0  0  0  0  0  0  0
  -28.1078  -19.2841   15.8977 C   0  0  0  0  0  0  0  0  0  0  0  0
  -26.7308  -16.5853   22.0562 C   0  0  0  0  0  0  0  0  0  0  0  0
  -26.4748  -15.1177   20.0929 C   0  0  0  0  0  0  0  0  0  0  0  0
  -27.5504  -19.3735   17.3405 C   0  0  1  0  0  0  0  0  0  0  0  0
  -24.0979  -29.3122   25.8075 C   0  0  1  0  0  0  0  0  0  0  0  0
  -23.9882  -30.5964   22.2337 C   0  0  1  0  0  0  0  0  0  0  0  0
  -29.4428  -17.0470   15.4647 C   0  0  0  0  0  0  0  0  0  0  0  0
  -28.2965  -17.7647   16.1405 C   0  0  1  0  0  0  0  0  0  0  0  0
  -27.1562  -13.9514   20.8291 C   0  0  2  0  0  0  0  0  0  0  0  0
  -28.4093  -18.1174   17.6516 C   0  0  2  0  0  0  0  0  0  0  0  0
  -24.7791  -21.2363   17.3245 C   0  0  0  0  0  0  0  0  0  0  0  0
  -20.3727  -31.0432   15.3977 C   0  0  0  0  0  0  0  0  0  0  0  0
  -20.3446  -27.9308   21.2443 C   0  0  0  0  0  0  0  0  0  0  0  0
  -19.5052  -28.0817   18.8904 C   0  0  0  0  0  0  0  0  0  0  0  0
  -19.0750  -29.9484   20.4883 C   0  0  0  0  0  0  0  0  0  0  0  0
  -23.8639  -32.3197   16.2087 C   0  0  0  0  0  0  0  0  0  0  0  0
  -25.4079  -20.9137   18.6768 C   0  0  0  0  0  0  0  0  0  0  0  0
  -29.6018  -26.3465   20.1851 C   0  0  0  0  0  0  0  0  0  1  0  0
  -29.8376  -24.8845   19.8587 C   0  0  0  0  0  0  0  0  0  0  0  0
  -21.4122  -29.6002   19.5893 C   0  0  1  0  0  0  0  0  0  0  0  0
  -21.5108  -31.4875   16.3033 C   0  0  2  0  0  0  0  0  0  0  0  0
  -20.1121  -28.8881   20.0584 C   0  0  0  0  0  0  0  0  0  0  0  0
  -25.6495  -12.0012   20.9238 N   0  0  0  0  0  0  0  0  0  0  0  0
  -26.6873  -12.6020   20.3171 N   0  0  0  0  0  0  0  0  0  0  0  0
  -23.3742  -30.0100   21.0407 N   0  0  0  0  0  0  0  0  0  0  0  0
  -26.9603  -16.4023   20.6210 N   0  0  0  0  0  0  0  0  0  0  0  0
  -28.2509  -12.3479   18.5561 N   0  0  0  0  0  0  0  0  0  0  0  0
  -25.7743   -8.5799   18.3023 N   0  0  0  0  0  0  0  0  0  0  0  0
  -24.2214  -30.0794   24.5867 N   0  0  0  0  0  0  0  0  0  0  0  0
  -21.2172  -30.5334   18.4850 N   0  0  0  0  0  0  0  0  0  0  0  0
  -27.7728  -17.1662   18.5353 N   0  0  0  0  0  0  0  0  0  0  0  0
  -22.6793  -31.8432   15.4494 N   0  3  0  0  0  0  0  0  0  0  0  0
  -27.5402   -9.7132   17.3771 O   0  0  0  0  0  0  0  0  0  0  0  0
  -23.1895  -28.5698   23.1448 O   0  0  0  0  0  0  0  0  0  0  0  0
  -21.4483  -31.3099   21.2331 O   0  0  0  0  0  0  0  0  0  0  0  0
  -22.6994  -29.5112   17.0236 O   0  0  0  0  0  0  0  0  0  0  0  0
  -27.9608  -18.4830   20.4028 O   0  0  0  0  0  0  0  0  0  0  0  0
  -21.5019   -7.2181   21.6079 O   0  0  0  0  0  0  0  0  0  0  0  0
  -28.4108  -26.7836   19.5319 O   0  0  0  0  0  0  0  0  0  1  0  0
  -28.7159  -24.1248   20.2924 O   0  0  0  0  0  0  0  0  0  0  0  0
  -22.8616   -1.8794   21.8409 F   0  0  0  0  0  0  0  0  0  0  0  0
  -21.2237   -5.7847   23.9554 F   0  0  0  0  0  0  0  0  0  0  0  0
  1  2  1  0  0  0  0
  1  5  2  0  0  0  0
  2  6  2  0  0  0  0
  3  9  2  0  0  0  0
  3 18  1  0  0  0  0
  4 10  1  0  0  0  0
  4 18  2  0  0  0  0
  5 20  1  0  0  0  0
  6 22  1  0  0  0  0
  7 11  2  0  0  0  0
  7 21  1  0  0  0  0
  8 12  2  0  0  0  0
  8 23  1  0  0  0  0
  9 26  1  0  0  0  0
 10 26  2  0  0  0  0
 11 27  1  0  0  0  0
 12 28  1  0  0  0  0
 13 14  2  0  0  0  0
 13 29  1  0  0  0  0
 14 30  1  0  0  0  0
 15 24  1  0  0  0  0
 15 27  2  0  0  0  0
 16 25  1  0  0  0  0
 16 28  2  0  0  0  0
 17 30  2  0  0  0  0
 17 31  1  0  0  0  0
 18 32  1  0  0  0  0
 19 32  1  0  0  0  0
 19 33  2  0  0  0  0
 19 34  1  0  0  0  0
 20 22  2  0  0  0  0
 20 39  1  0  0  0  0
 21 24  2  0  0  0  0
 21 40  1  0  0  0  0
 22 52  1  0  0  0  0
 23 25  2  0  0  0  0
 23 51  1  0  0  0  0
 24 41  1  0  0  0  0
 25 64  1  0  0  0  0
 26 85  1  0  0  0  0
 27 86  1  0  0  0  0
 28 87  1  0  0  0  0
 29 31  2  0  0  0  0
 29 85  1  0  0  0  0
 30 88  1  0  0  0  0
 31 89  1  0  0  0  0
 32 70  2  0  0  0  0
 33 71  1  0  0  0  0
 33 74  1  0  0  0  0
 34 75  1  0  0  0  0
 34 80  2  0  0  0  0
 35 53  1  0  0  0  0
 35 76  1  0  0  0  0
 35 81  2  0  0  0  0
 36 67  1  0  0  0  0
 36 72  1  0  0  0  0
 36 82  2  0  0  0  0
 37 68  1  0  0  0  0
 37 77  1  0  0  0  0
 37 83  2  0  0  0  0
 38 73  1  0  0  0  0
 38 78  1  0  0  0  0
 38 84  2  0  0  0  0
 39 42  1  0  0  0  0
 40 53  1  0  0  0  0
 41 72  1  0  0  0  0
 42 44  1  0  0  0  0
 43 47  1  0  0  0  0
 43 49  1  0  0  0  0
 44 52  1  0  0  0  0
 45 46  1  0  0  0  0
 45 54  1  0  0  0  0
 46 54  1  0  0  0  0
 47 56  1  0  0  0  0
 48 51  1  0  0  0  0
 48 55  1  0  0  0  0
 49 73  1  0  0  0  0
 50 56  1  0  0  0  0
 50 73  1  0  0  0  0
 51 57  1  0  0  0  0
 52 76  1  0  0  0  0
 53 72  1  0  0  0  0
 54 55  1  0  0  0  0
 55 57  1  0  0  0  0
 56 71  1  0  0  0  0
 57 78  1  0  0  0  0
 58 64  1  0  0  0  0
 59 68  1  0  0  0  0
 60 69  1  0  0  0  0
 61 69  1  0  0  0  0
 62 69  1  0  0  0  0
 63 79  1  0  0  0  0
 65 66  1  0  0  0  0
 65 86  1  0  0  0  0
 66 87  1  0  0  0  0
 67 69  1  0  0  0  0
 67 77  1  0  0  0  0
 68 79  1  0  0  0  0
 70 71  1  0  0  0  0
M  CHG  1  79   1
M  ISO  4  38 100  65 101  78 100  86 101
M  END
> <Batch ID>
0151

> <Smiles>
CCc1cc(OC[101CH2:1][101O:1]c2ccc3c(c2)CN(C(=O)C(NC(=O)C(C)NC)C(C)(C)C)C(C(=O)NC2CCCc4ccccc42)C3)ccc1C1CC(C2CC2)C1[100NH:0][100C:0](=O)N1CCCC(n2nc(-c3ccc(Oc4ccc(F)cc4F)cc3)c(C(N)=O)c2N)C1

> <Shape>
0.259

> <Color>
0.102

> <Negative vol penalty>
0.000

$$$$

  -OEChem-04052321433D

 87 96  0     1  0  0  0  0  0999 V2000
  -24.8266  -28.5212   19.6689 C   0  0  0  0  0  0  0  0  0  0  0  0
  -24.5994  -27.1512   19.7519 C   0  0  0  0  0  0  0  0  0  0  0  0
  -19.3558  -22.5964   22.0873 C   0  0  0  0  0  0  0  0  0  0  0  0
  -19.0660  -22.6439   19.6892 C   0  0  0  0  0  0  0  0  0  0  0  0
  -26.0809  -28.9969   19.2888 C   0  0  0  0  0  0  0  0  0  0  0  0
  -25.6261  -26.2560   19.4536 C   0  0  0  0  0  0  0  0  0  0  0  0
  -25.2183  -11.4374   19.9702 C   0  0  0  0  0  0  0  0  0  0  0  0
  -26.6619  -20.8292   22.0961 C   0  0  0  0  0  0  0  0  0  0  0  0
  -23.9667  -11.6403   20.5498 C   0  0  0  0  0  0  0  0  0  0  0  0
  -18.8563  -23.8958   22.1735 C   0  0  0  0  0  0  0  0  0  0  0  0
  -18.5664  -23.9434   19.7754 C   0  0  0  0  0  0  0  0  0  0  0  0
  -26.3476  -19.5253   21.7155 C   0  0  0  0  0  0  0  0  0  0  0  0
  -19.9860  -27.0380   21.6493 C   0  0  0  0  0  0  0  0  0  0  0  0
  -20.6685  -27.9412   22.4642 C   0  0  0  0  0  0  0  0  0  0  0  0
  -24.7122  -13.7727   21.3888 C   0  0  0  0  0  0  0  0  0  0  0  0
  -28.5506  -19.2783   20.7643 C   0  0  0  0  0  0  0  0  0  0  0  0
  -18.6786  -28.2378   23.8020 C   0  0  0  0  0  0  0  0  0  0  0  0
  -19.4607  -21.9704   20.8452 C   0  0  0  0  0  0  0  0  0  0  0  0
  -21.2490  -20.1782   21.1575 C   0  0  0  0  0  0  0  0  0  0  0  0
  -27.1263  -28.1072   18.9951 C   0  0  0  0  0  0  0  0  0  0  0  0
  -26.2332  -12.4015   20.0910 C   0  0  0  0  0  0  0  0  0  0  0  0
  -27.9214  -21.3720   21.8035 C   0  0  0  0  0  0  0  0  0  0  0  0
  -26.8952  -26.7202   19.0679 C   0  0  0  0  0  0  0  0  0  0  0  0
  -25.9787  -13.5813   20.8107 C   0  0  0  0  0  0  0  0  0  0  0  0
  -28.8794  -20.5884   21.1446 C   0  0  0  0  0  0  0  0  0  0  0  0
  -23.7132  -12.8089   21.2585 C   0  0  0  0  0  0  0  0  0  0  0  0
  -18.4615  -24.5693   21.0175 C   0  0  0  0  0  0  0  0  0  0  0  0
  -27.2909  -18.7506   21.0469 C   0  0  0  0  0  0  0  0  0  0  0  0
  -18.6498  -26.7348   21.9107 C   0  0  0  0  0  0  0  0  0  0  0  0
  -20.0148  -28.5411   23.5406 C   0  0  0  0  0  0  0  0  0  0  0  0
  -17.9961  -27.3346   22.9871 C   0  0  0  0  0  0  0  0  0  0  0  0
  -19.9772  -20.6283   20.7554 C   0  0  0  0  0  0  0  0  0  0  0  0
  -21.2470  -18.8364   20.8640 C   0  0  0  0  0  0  0  0  0  0  0  0
  -22.3351  -20.9078   21.7438 C   0  0  0  0  0  0  0  0  0  0  0  0
  -28.9590  -23.8217   20.0639 C   0  0  0  0  0  0  0  0  0  0  0  0
  -31.8257  -23.0184   21.3520 C   0  0  0  0  0  0  0  0  0  0  0  0
  -33.7926  -20.6196   22.7746 C   0  0  0  0  0  0  0  0  0  0  0  0
  -18.7286  -13.8562   20.8746 C   0  0  0  0  0  0  0  0  0  0  0  0
  -28.4513  -28.6679   18.5428 C   0  0  0  0  0  0  0  0  0  0  0  0
  -27.5711  -12.1511   19.4450 C   0  0  0  0  0  0  0  0  0  0  0  0
  -28.2542  -22.7710   22.2446 C   0  0  0  0  0  0  0  0  0  0  0  0
  -27.0367  -14.6443   20.9800 C   0  0  0  0  0  0  0  0  0  0  0  0
  -30.2529  -21.1174   20.8249 C   0  0  0  0  0  0  0  0  0  0  0  0
  -29.5939  -27.6576   18.6064 C   0  0  0  0  0  0  0  0  0  0  0  0
  -27.8833  -13.1497   18.3304 C   0  0  0  0  0  0  0  0  0  0  0  0
  -17.9824  -16.0586   18.1784 C   0  0  0  0  0  0  0  0  0  0  0  0
  -29.1638  -26.3264   17.9983 C   0  0  0  0  0  0  0  0  0  0  0  0
  -18.5340  -17.4072   18.6444 C   0  0  0  0  0  0  0  0  0  0  0  0
  -17.3876  -15.2614   19.3372 C   0  0  0  0  0  0  0  0  0  0  0  0
  -18.8431  -16.4208   20.9531 C   0  0  0  0  0  0  0  0  0  0  0  0
  -27.9908  -25.7178   18.7763 C   0  0  1  0  0  0  0  0  0  0  0  0
  -29.3888  -23.3972   21.4397 C   0  0  1  0  0  0  0  0  0  0  0  0
  -27.4161  -15.3449   19.6571 C   0  0  2  0  0  0  0  0  0  0  0  0
  -19.5038  -17.2372   19.8292 C   0  0  2  0  0  0  0  0  0  0  0  0
  -28.4147  -14.5024   18.8258 C   0  0  2  0  0  0  0  0  0  0  0  0
  -36.1010  -20.2511   23.6873 C   0  0  0  0  0  0  0  0  0  0  0  0
  -32.9272  -22.8941   18.5093 C   0  0  0  0  0  0  0  0  0  0  0  0
  -34.8953  -21.6298   19.4016 C   0  0  0  0  0  0  0  0  0  0  0  0
  -34.4574  -23.9605   20.1752 C   0  0  0  0  0  0  0  0  0  0  0  0
  -32.7497  -19.9650   25.4659 C   0  0  0  0  0  0  0  0  0  0  0  0
  -27.9852  -16.7337   19.9953 C   0  0  0  0  0  0  0  0  0  1  0  0
  -21.3807  -12.0721   21.7506 C   0  0  0  0  0  0  0  0  0  0  0  0
  -20.1425  -12.5852   22.4698 C   0  0  0  0  0  0  0  0  0  0  0  0
  -32.9502  -22.0895   20.9625 C   0  0  1  0  0  0  0  0  0  0  0  0
  -34.6676  -20.6396   24.0149 C   0  0  2  0  0  0  0  0  0  0  0  0
  -33.7810  -22.6339   19.7663 C   0  0  0  0  0  0  0  0  0  0  0  0
  -19.2221  -19.6517   20.2453 N   0  0  0  0  0  0  0  0  0  0  0  0
  -20.0219  -18.5746   20.3248 N   0  0  0  0  0  0  0  0  0  0  0  0
  -30.5282  -22.4931   21.2711 N   0  0  0  0  0  0  0  0  0  0  0  0
  -18.3583  -15.1351   20.4270 N   0  0  0  0  0  0  0  0  0  0  0  0
  -22.1737  -17.8668   21.0172 N   0  0  0  0  0  0  0  0  0  0  0  0
  -23.2832  -21.4929   20.8934 N   0  0  0  0  0  0  0  0  0  0  0  0
  -22.4483  -13.0192   21.8454 N   0  0  0  0  0  0  0  0  0  0  0  0
  -28.4594  -25.1086   20.0025 N   0  0  0  0  0  0  0  0  0  0  0  0
  -33.7282  -21.8595   22.1749 N   0  0  0  0  0  0  0  0  0  0  0  0
  -19.6585  -13.8259   21.9066 N   0  0  0  0  0  0  0  0  0  0  0  0
  -28.8161  -15.2711   17.6021 N   0  3  0  0  0  0  0  0  0  0  0  0
  -34.1436  -19.6867   25.0340 N   0  3  0  0  0  0  0  0  0  0  0  0
  -22.4702  -21.0231   22.9856 O   0  0  0  0  0  0  0  0  0  0  0  0
  -29.0736  -23.0400   19.1271 O   0  0  0  0  0  0  0  0  0  0  0  0
  -32.0892  -24.1654   21.7215 O   0  0  0  0  0  0  0  0  0  0  0  0
  -33.2261  -19.6046   22.3754 O   0  0  0  0  0  0  0  0  0  0  0  0
  -18.2688  -12.8181   20.3868 O   0  0  0  0  0  0  0  0  0  0  0  0
  -17.9738  -25.8373   21.1013 O   0  0  0  0  0  0  0  0  0  0  0  0
  -26.9833  -17.4647   20.6698 O   0  0  0  0  0  0  0  0  0  1  0  0
  -20.6708  -29.4072   24.3240 F   0  0  0  0  0  0  0  0  0  0  0  0
  -16.7129  -27.0463   23.2439 F   0  0  0  0  0  0  0  0  0  0  0  0
  1  2  1  0  0  0  0
  1  5  2  0  0  0  0
  2  6  2  0  0  0  0
  3 10  2  0  0  0  0
  3 18  1  0  0  0  0
  4 11  1  0  0  0  0
  4 18  2  0  0  0  0
  5 20  1  0  0  0  0
  6 23  1  0  0  0  0
  7  9  2  0  0  0  0
  7 21  1  0  0  0  0
  8 12  2  0  0  0  0
  8 22  1  0  0  0  0
  9 26  1  0  0  0  0
 10 27  1  0  0  0  0
 11 27  2  0  0  0  0
 12 28  1  0  0  0  0
 13 14  2  0  0  0  0
 13 29  1  0  0  0  0
 14 30  1  0  0  0  0
 15 24  1  0  0  0  0
 15 26  2  0  0  0  0
 16 25  1  0  0  0  0
 16 28  2  0  0  0  0
 17 30  2  0  0  0  0
 17 31  1  0  0  0  0
 18 32  1  0  0  0  0
 19 32  1  0  0  0  0
 19 33  2  0  0  0  0
 19 34  1  0  0  0  0
 20 23  2  0  0  0  0
 20 39  1  0  0  0  0
 21 24  2  0  0  0  0
 21 40  1  0  0  0  0
 22 25  2  0  0  0  0
 22 41  1  0  0  0  0
 23 51  1  0  0  0  0
 24 42  1  0  0  0  0
 25 43  1  0  0  0  0
 26 73  1  0  0  0  0
 27 84  1  0  0  0  0
 28 85  1  0  0  0  0
 29 31  2  0  0  0  0
 29 84  1  0  0  0  0
 30 86  1  0  0  0  0
 31 87  1  0  0  0  0
 32 67  2  0  0  0  0
 33 68  1  0  0  0  0
 33 71  1  0  0  0  0
 34 72  1  0  0  0  0
 34 79  2  0  0  0  0
 35 52  1  0  0  0  0
 35 74  1  0  0  0  0
 35 80  2  0  0  0  0
 36 64  1  0  0  0  0
 36 69  1  0  0  0  0
 36 81  2  0  0  0  0
 37 65  1  0  0  0  0
 37 75  1  0  0  0  0
 37 82  2  0  0  0  0
 38 70  1  0  0  0  0
 38 76  1  0  0  0  0
 38 83  2  0  0  0  0
 39 44  1  0  0  0  0
 40 45  1  0  0  0  0
 41 52  1  0  0  0  0
 42 53  1  0  0  0  0
 43 69  1  0  0  0  0
 44 47  1  0  0  0  0
 45 55  1  0  0  0  0
 46 48  1  0  0  0  0
 46 49  1  0  0  0  0
 47 51  1  0  0  0  0
 48 54  1  0  0  0  0
 49 70  1  0  0  0  0
 50 54  1  0  0  0  0
 50 70  1  0  0  0  0
 51 74  1  0  0  0  0
 52 69  1  0  0  0  0
 53 55  1  0  0  0  0
 53 61  1  0  0  0  0
 54 68  1  0  0  0  0
 55 77  1  0  0  0  0
 56 65  1  0  0  0  0
 57 66  1  0  0  0  0
 58 66  1  0  0  0  0
 59 66  1  0  0  0  0
 60 78  1  0  0  0  0
 61 85  1  0  0  0  0
 62 63  1  0  0  0  0
 62 73  1  0  0  0  0
 63 76  1  0  0  0  0
 64 66  1  0  0  0  0
 64 75  1  0  0  0  0
 65 78  1  0  0  0  0
 67 68  1  0  0  0  0
M  CHG  2  77   1  78   1
M  ISO  4  38 100  61 101  76 100  85 101
M  END
> <Batch ID>
0151

> <Smiles>
CNC(C)C(=O)NC(C(=O)N1Cc2cc([101O:1][101CH2:1]C3Cc4cc(NCC[100NH:0][100C:0](=O)N5CCCC(n6nc(-c7ccc(Oc8ccc(F)cc8F)cc7)c(C(N)=O)c6N)C5)ccc4CCC3N)ccc2CC1C(=O)NC1CCCc2ccccc21)C(C)(C)C

> <Shape>
0.198

> <Color>
0.074

> <Negative vol penalty>
0.000

$$$$

  -OEChem-04052321433D

 89 98  0     1  0  0  0  0  0999 V2000
  -28.2935  -33.4102   25.4716 C   0  0  0  0  0  0  0  0  0  0  0  0
  -28.2762  -32.0264   25.3286 C   0  0  0  0  0  0  0  0  0  0  0  0
  -23.3127  -10.4850   22.5781 C   0  0  0  0  0  0  0  0  0  0  0  0
  -24.8759  -11.4124   24.1697 C   0  0  0  0  0  0  0  0  0  0  0  0
  -27.1171  -34.1411   25.3117 C   0  0  0  0  0  0  0  0  0  0  0  0
  -27.0821  -31.3727   25.0266 C   0  0  0  0  0  0  0  0  0  0  0  0
  -27.6454  -27.8685   21.4144 C   0  0  0  0  0  0  0  0  0  0  0  0
  -22.7890   -9.6598   23.5732 C   0  0  0  0  0  0  0  0  0  0  0  0
  -24.3522  -10.5872   25.1649 C   0  0  0  0  0  0  0  0  0  0  0  0
  -28.2087  -26.6502   21.7915 C   0  0  0  0  0  0  0  0  0  0  0  0
  -20.6557   -9.9478   26.1808 C   0  0  0  0  0  0  0  0  0  0  0  0
  -19.2677   -9.8499   26.2777 C   0  0  0  0  0  0  0  0  0  0  0  0
  -26.0073  -25.6681   21.8844 C   0  0  0  0  0  0  0  0  0  0  0  0
  -28.2898  -18.5654   24.8320 C   0  0  0  0  0  0  0  0  0  0  0  0
  -27.7672  -20.8993   25.1735 C   0  0  0  0  0  0  0  0  0  0  0  0
  -29.6686  -20.2724   23.8211 C   0  0  0  0  0  0  0  0  0  0  0  0
  -19.4077   -7.4710   25.8798 C   0  0  0  0  0  0  0  0  0  0  0  0
  -24.3562  -11.3613   22.8763 C   0  0  0  0  0  0  0  0  0  0  0  0
  -24.2099  -13.1903   21.1040 C   0  0  0  0  0  0  0  0  0  0  0  0
  -25.9099  -33.4970   24.9980 C   0  0  0  0  0  0  0  0  0  0  0  0
  -26.2557  -27.9989   21.2798 C   0  0  0  0  0  0  0  0  0  0  0  0
  -25.8882  -32.0956   24.8637 C   0  0  0  0  0  0  0  0  0  0  0  0
  -25.4291  -26.8885   21.5030 C   0  0  0  0  0  0  0  0  0  0  0  0
  -27.4818  -19.5523   25.3967 C   0  0  0  0  0  0  0  0  0  0  0  0
  -29.3832  -18.9254   24.0443 C   0  0  0  0  0  0  0  0  0  0  0  0
  -23.3087   -9.7109   24.8666 C   0  0  0  0  0  0  0  0  0  0  0  0
  -27.3894  -25.5505   22.0294 C   0  0  0  0  0  0  0  0  0  0  0  0
  -21.4197   -8.8073   25.9332 C   0  0  0  0  0  0  0  0  0  0  0  0
  -28.8606  -21.2594   24.3857 C   0  0  0  0  0  0  0  0  0  0  0  0
  -18.6437   -8.6115   26.1273 C   0  0  0  0  0  0  0  0  0  0  0  0
  -20.7957   -7.5689   25.7828 C   0  0  0  0  0  0  0  0  0  0  0  0
  -24.8980  -12.2136   21.8486 C   0  0  0  0  0  0  0  0  0  0  0  0
  -25.1619  -13.7165   20.2654 C   0  0  0  0  0  0  0  0  0  0  0  0
  -22.8334  -13.5865   21.1650 C   0  0  0  0  0  0  0  0  0  0  0  0
  -24.0188  -29.7515   22.7041 C   0  0  0  0  0  0  0  0  0  0  0  0
  -22.1031  -28.4461   20.4351 C   0  0  0  0  0  0  0  0  0  0  0  0
  -21.5287  -25.8888   18.2494 C   0  0  0  0  0  0  0  0  0  0  0  0
  -31.1286  -14.0917   20.5961 C   0  0  0  0  0  0  0  0  0  0  0  0
  -24.6544  -34.3246   24.8813 C   0  0  0  0  0  0  0  0  0  0  0  0
  -25.6658  -29.3129   20.8463 C   0  0  0  0  0  0  0  0  0  0  0  0
  -23.9327  -26.9708   21.3525 C   0  0  0  0  0  0  0  0  0  0  0  0
  -23.5049  -33.5937   24.1925 C   0  0  0  0  0  0  0  0  0  0  0  0
  -29.2200  -12.5569   18.0119 C   0  0  0  0  0  0  0  0  0  0  0  0
  -23.3531  -32.1850   24.7577 C   0  0  0  0  0  0  0  0  0  0  0  0
  -27.8338  -12.3830   18.6349 C   0  0  0  0  0  0  0  0  0  0  0  0
  -31.5858  -17.2063   21.5710 C   0  0  0  0  0  0  0  0  0  0  0  0
  -31.6603  -15.9703   23.7476 C   0  0  0  0  0  0  0  0  0  0  0  0
  -30.3308  -12.3398   19.0370 C   0  0  0  0  0  0  0  0  0  0  0  0
  -30.2996  -17.9051   22.0119 C   0  0  0  0  0  0  0  0  0  0  0  0
  -30.3666  -16.6595   24.1821 C   0  0  0  0  0  0  0  0  0  0  0  0
  -28.8288  -12.9844   20.8815 C   0  0  0  0  0  0  0  0  0  0  0  0
  -24.6175  -31.3528   24.5119 C   0  0  1  0  0  0  0  0  0  0  0  0
  -24.2000  -29.4685   21.2396 C   0  0  1  0  0  0  0  0  0  0  0  0
  -27.6748  -13.2486   19.8993 C   0  0  2  0  0  0  0  0  0  0  0  0
  -31.7814  -15.8415   22.2305 C   0  0  0  0  0  0  0  0  0  0  0  0
  -26.7267  -18.3906   27.5023 C   0  0  0  0  0  0  0  0  0  0  0  0
  -25.2599  -18.3632   25.4522 C   0  0  0  0  0  0  0  0  0  0  0  0
  -19.8608  -25.0806   16.5576 C   0  0  0  0  0  0  0  0  0  0  0  0
  -20.2526  -27.5517   22.6903 C   0  0  0  0  0  0  0  0  0  0  0  0
  -19.1596  -25.9805   21.0764 C   0  0  0  0  0  0  0  0  0  0  0  0
  -19.0792  -28.4401   20.6684 C   0  0  0  0  0  0  0  0  0  0  0  0
  -23.5187  -26.0028   16.0617 C   0  0  0  0  0  0  0  0  0  0  0  0
  -29.3571  -24.3093   22.5225 C   0  0  0  0  0  0  0  0  0  1  0  0
  -29.7684  -22.9084   22.9322 C   0  0  0  0  0  0  0  0  0  0  0  0
  -26.3124  -19.1677   26.2383 C   0  0  0  0  0  0  0  0  0  0  0  0
  -21.2572  -27.1994   20.3382 C   0  0  1  0  0  0  0  0  0  0  0  0
  -21.1307  -25.8861   16.7845 C   0  0  2  0  0  0  0  0  0  0  0  0
  -19.9652  -27.2916   21.1981 C   0  0  0  0  0  0  0  0  0  0  0  0
  -26.1875  -12.1226   21.5125 N   0  0  0  0  0  0  0  0  0  0  0  0
  -26.3172  -13.0488   20.5474 N   0  0  0  0  0  0  0  0  0  0  0  0
  -30.1944  -17.9339   23.4770 N   0  0  0  0  0  0  0  0  0  0  0  0
  -23.4032  -28.2789   20.9328 N   0  0  0  0  0  0  0  0  0  0  0  0
  -30.1218  -13.1912   20.2106 N   0  0  0  0  0  0  0  0  0  0  0  0
  -25.1151  -14.6806   19.3216 N   0  0  0  0  0  0  0  0  0  0  0  0
  -21.9929  -12.9430   22.0836 N   0  0  0  0  0  0  0  0  0  0  0  0
  -24.6620  -30.8942   23.1400 N   0  0  0  0  0  0  0  0  0  0  0  0
  -21.0143  -26.9805   18.9164 N   0  0  0  0  0  0  0  0  0  0  0  0
  -30.8471  -14.8654   21.7154 N   0  0  0  0  0  0  0  0  0  0  0  0
  -22.2172  -25.2946   15.9535 N   0  3  0  0  0  0  0  0  0  0  0  0
  -22.3587  -14.4732   20.4153 O   0  0  0  0  0  0  0  0  0  0  0  0
  -23.3442  -28.9904   23.3876 O   0  0  0  0  0  0  0  0  0  0  0  0
  -21.6302  -29.5272   20.0756 O   0  0  0  0  0  0  0  0  0  0  0  0
  -22.2233  -25.0085   18.7526 O   0  0  0  0  0  0  0  0  0  0  0  0
  -32.1967  -14.2020   19.9847 O   0  0  0  0  0  0  0  0  0  0  0  0
  -22.7977   -8.9060   25.8380 O   0  0  0  0  0  0  0  0  0  0  0  0
  -27.9365  -24.3604   22.3982 O   0  0  0  0  0  0  0  0  0  1  0  0
  -29.1413  -22.5824   24.1667 O   0  0  0  0  0  0  0  0  0  0  0  0
  -17.3109   -8.5174   26.2219 F   0  0  0  0  0  0  0  0  0  0  0  0
  -21.5245   -6.4695   25.5460 F   0  0  0  0  0  0  0  0  0  0  0  0
  1  2  1  0  0  0  0
  1  5  2  0  0  0  0
  2  6  2  0  0  0  0
  3  8  2  0  0  0  0
  3 18  1  0  0  0  0
  4  9  1  0  0  0  0
  4 18  2  0  0  0  0
  5 20  1  0  0  0  0
  6 22  1  0  0  0  0
  7 10  2  0  0  0  0
  7 21  1  0  0  0  0
  8 26  1  0  0  0  0
  9 26  2  0  0  0  0
 10 27  1  0  0  0  0
 11 12  2  0  0  0  0
 11 28  1  0  0  0  0
 12 30  1  0  0  0  0
 13 23  1  0  0  0  0
 13 27  2  0  0  0  0
 14 24  1  0  0  0  0
 14 25  2  0  0  0  0
 15 24  2  0  0  0  0
 15 29  1  0  0  0  0
 16 25  1  0  0  0  0
 16 29  2  0  0  0  0
 17 30  2  0  0  0  0
 17 31  1  0  0  0  0
 18 32  1  0  0  0  0
 19 32  1  0  0  0  0
 19 33  2  0  0  0  0
 19 34  1  0  0  0  0
 20 22  2  0  0  0  0
 20 39  1  0  0  0  0
 21 23  2  0  0  0  0
 21 40  1  0  0  0  0
 22 52  1  0  0  0  0
 23 41  1  0  0  0  0
 24 65  1  0  0  0  0
 25 71  1  0  0  0  0
 26 85  1  0  0  0  0
 27 86  1  0  0  0  0
 28 31  2  0  0  0  0
 28 85  1  0  0  0  0
 29 87  1  0  0  0  0
 30 88  1  0  0  0  0
 31 89  1  0  0  0  0
 32 69  2  0  0  0  0
 33 70  1  0  0  0  0
 33 74  1  0  0  0  0
 34 75  1  0  0  0  0
 34 80  2  0  0  0  0
 35 53  1  0  0  0  0
 35 76  1  0  0  0  0
 35 81  2  0  0  0  0
 36 66  1  0  0  0  0
 36 72  1  0  0  0  0
 36 82  2  0  0  0  0
 37 67  1  0  0  0  0
 37 77  1  0  0  0  0
 37 83  2  0  0  0  0
 38 73  1  0  0  0  0
 38 78  1  0  0  0  0
 38 84  2  0  0  0  0
 39 42  1  0  0  0  0
 40 53  1  0  0  0  0
 41 72  1  0  0  0  0
 42 44  1  0  0  0  0
 43 45  1  0  0  0  0
 43 48  1  0  0  0  0
 44 52  1  0  0  0  0
 45 54  1  0  0  0  0
 46 49  1  0  0  0  0
 46 55  1  0  0  0  0
 47 50  1  0  0  0  0
 47 55  1  0  0  0  0
 48 73  1  0  0  0  0
 49 71  1  0  0  0  0
 50 71  1  0  0  0  0
 51 54  1  0  0  0  0
 51 73  1  0  0  0  0
 52 76  1  0  0  0  0
 53 72  1  0  0  0  0
 54 70  1  0  0  0  0
 55 78  1  0  0  0  0
 56 65  1  0  0  0  0
 57 65  1  0  0  0  0
 58 67  1  0  0  0  0
 59 68  1  0  0  0  0
 60 68  1  0  0  0  0
 61 68  1  0  0  0  0
 62 79  1  0  0  0  0
 63 64  1  0  0  0  0
 63 86  1  0  0  0  0
 64 87  1  0  0  0  0
 66 68  1  0  0  0  0
 66 77  1  0  0  0  0
 67 79  1  0  0  0  0
 69 70  1  0  0  0  0
M  CHG  1  79   1
M  ISO  4  38 100  63 101  78 100  86 101
M  END
> <Batch ID>
0151

> <Smiles>
CNC(C)C(=O)NC(C(=O)N1Cc2cc([101O:1][101CH2:1]COc3cc(C(C)C)cc(N4CCC([100NH:0][100C:0](=O)N5CCCC(n6nc(-c7ccc(Oc8ccc(F)cc8F)cc7)c(C(N)=O)c6N)C5)CC4)c3)ccc2CC1C(=O)NC1CCCc2ccccc21)C(C)(C)C

> <Shape>
0.254

> <Color>
0.121

> <Negative vol penalty>
0.000

$$$$

  -OEChem-04052321433D

 87 96  0     1  0  0  0  0  0999 V2000
  -32.9178  -28.5738   18.7524 C   0  0  0  0  0  0  0  0  0  0  0  0
  -32.2302  -27.5678   19.4237 C   0  0  0  0  0  0  0  0  0  0  0  0
  -22.9821   -9.9786   19.9684 C   0  0  0  0  0  0  0  0  0  0  0  0
  -23.7125   -9.9416   22.2710 C   0  0  0  0  0  0  0  0  0  0  0  0
  -32.4619  -29.8899   18.8155 C   0  0  0  0  0  0  0  0  0  0  0  0
  -31.0868  -27.8776   20.1593 C   0  0  0  0  0  0  0  0  0  0  0  0
  -27.3125  -24.5981   19.3566 C   0  0  0  0  0  0  0  0  0  0  0  0
  -22.1948   -8.8507   20.2000 C   0  0  0  0  0  0  0  0  0  0  0  0
  -22.9251   -8.8138   22.5027 C   0  0  0  0  0  0  0  0  0  0  0  0
  -27.3890  -23.3675   20.0074 C   0  0  0  0  0  0  0  0  0  0  0  0
  -23.1054   -5.4878   21.9229 C   0  0  0  0  0  0  0  0  0  0  0  0
  -23.6751   -4.4360   22.6404 C   0  0  0  0  0  0  0  0  0  0  0  0
  -25.8464  -24.1640   21.6822 C   0  0  0  0  0  0  0  0  0  0  0  0
  -21.9593   -4.6572   24.3269 C   0  0  0  0  0  0  0  0  0  0  0  0
  -23.7410  -10.5240   21.0039 C   0  0  0  0  0  0  0  0  0  0  0  0
  -24.1734  -13.0363   20.9080 C   0  0  0  0  0  0  0  0  0  0  0  0
  -31.3069  -30.2144   19.5444 C   0  0  0  0  0  0  0  0  0  0  0  0
  -26.5094  -25.6263   19.8706 C   0  0  0  0  0  0  0  0  0  0  0  0
  -30.6158  -29.1995   20.2333 C   0  0  0  0  0  0  0  0  0  0  0  0
  -25.7594  -25.4059   21.0347 C   0  0  0  0  0  0  0  0  0  0  0  0
  -22.1663   -8.2683   21.4671 C   0  0  0  0  0  0  0  0  0  0  0  0
  -26.6582  -23.1513   21.1720 C   0  0  0  0  0  0  0  0  0  0  0  0
  -21.9627   -6.1243   22.4075 C   0  0  0  0  0  0  0  0  0  0  0  0
  -23.1020   -4.0207   23.8424 C   0  0  0  0  0  0  0  0  0  0  0  0
  -21.3897   -5.7090   23.6094 C   0  0  0  0  0  0  0  0  0  0  0  0
  -24.5549  -11.6888   20.7651 C   0  0  0  0  0  0  0  0  0  0  0  0
  -25.2959  -13.7492   20.5642 C   0  0  0  0  0  0  0  0  0  0  0  0
  -22.9167  -13.5937   21.3151 C   0  0  0  0  0  0  0  0  0  0  0  0
  -27.0507  -28.5612   20.9649 C   0  0  0  0  0  0  0  0  0  0  0  0
  -23.8116  -28.6972   21.0745 C   0  0  0  0  0  0  0  0  0  0  0  0
  -20.8465  -27.0195   21.2746 C   0  0  0  0  0  0  0  0  0  0  0  0
  -30.6937  -14.6574   20.6639 C   0  0  0  0  0  0  0  0  0  0  0  0
  -30.8795  -31.6587   19.6221 C   0  0  0  0  0  0  0  0  0  0  0  0
  -26.4169  -26.9390   19.1421 C   0  0  0  0  0  0  0  0  0  0  0  0
  -24.8665  -26.4703   21.6162 C   0  0  0  0  0  0  0  0  0  0  0  0
  -29.4470  -31.8442   20.1159 C   0  0  0  0  0  0  0  0  0  0  0  0
  -29.6170  -12.2719   18.4046 C   0  0  0  0  0  0  0  0  0  0  0  0
  -29.1908  -30.9811   21.3472 C   0  0  0  0  0  0  0  0  0  0  0  0
  -28.1689  -12.0088   18.8173 C   0  0  0  0  0  0  0  0  0  0  0  0
  -29.1561  -17.8564   21.7260 C   0  0  0  0  0  0  0  0  0  0  0  0
  -28.6058  -16.0805   23.4267 C   0  0  0  0  0  0  0  0  0  0  0  0
  -26.3226  -17.9957   22.7673 C   0  0  0  0  0  0  0  0  0  0  0  0
  -30.5158  -12.4151   19.6276 C   0  0  0  0  0  0  0  0  0  0  0  0
  -30.3520  -17.0244   21.2715 C   0  0  0  0  0  0  0  0  0  0  0  0
  -29.8144  -15.2851   22.9442 C   0  0  0  0  0  0  0  0  0  0  0  0
  -28.6273  -13.2285   21.0015 C   0  0  0  0  0  0  0  0  0  0  0  0
  -29.3575  -29.4919   21.0215 C   0  0  1  0  0  0  0  0  0  0  0  0
  -25.9667  -28.0890   20.0377 C   0  0  1  0  0  0  0  0  0  0  0  0
  -28.8006  -17.5848   23.1935 C   0  0  0  0  0  0  0  0  0  0  0  0
  -27.5537  -18.3642   23.6045 C   0  0  1  0  0  0  0  0  0  0  0  0
  -26.2199  -20.3312   23.5265 C   0  0  2  0  0  0  0  0  0  0  0  0
  -27.6709  -13.0827   19.8009 C   0  0  2  0  0  0  0  0  0  0  0  0
  -27.6688  -19.8698   23.3968 C   0  0  1  0  0  0  0  0  0  0  0  0
  -25.4547  -19.2632   22.7280 C   0  0  2  0  0  0  0  0  0  0  0  0
  -18.3690  -27.4038   21.3822 C   0  0  0  0  0  0  0  0  0  0  0  0
  -24.0703  -29.5300   23.9985 C   0  0  0  0  0  0  0  0  0  0  0  0
  -21.6470  -28.9769   24.2980 C   0  0  0  0  0  0  0  0  0  0  0  0
  -22.3267  -30.7759   22.7093 C   0  0  0  0  0  0  0  0  0  0  0  0
  -20.3892  -25.5321   18.7571 C   0  0  0  0  0  0  0  0  0  0  0  0
  -29.1222  -21.8089   23.9698 C   0  0  0  0  0  0  0  0  0  0  0  0
  -27.8354  -20.6467   25.7570 C   0  0  0  0  0  0  0  0  0  0  0  0
  -23.3171  -18.3378   22.4166 C   0  0  0  0  0  0  0  0  0  0  0  0
  -25.9754  -21.7411   23.0060 C   0  0  0  0  0  0  0  0  0  1  0  0
  -22.7617  -28.3597   22.1054 C   0  0  1  0  0  0  0  0  0  0  0  0
  -19.5620  -27.1453   20.4753 C   0  0  2  0  0  0  0  0  0  0  0  0
  -22.7197  -29.3910   23.2682 C   0  0  0  0  0  0  0  0  0  0  0  0
  -25.8208  -11.5512   20.3619 N   0  0  0  0  0  0  0  0  0  0  0  0
  -26.2445  -12.8215   20.2484 N   0  0  0  0  0  0  0  0  0  0  0  0
  -24.8146  -27.7389   20.8709 N   0  0  0  0  0  0  0  0  0  0  0  0
  -30.0068  -13.4404   20.5384 N   0  0  0  0  0  0  0  0  0  0  0  0
  -30.1521  -15.6029   21.5503 N   0  0  0  0  0  0  0  0  0  0  0  0
  -25.5542  -15.0729   20.5043 N   0  0  0  0  0  0  0  0  0  0  0  0
  -21.8691  -12.7185   21.6326 N   0  0  0  0  0  0  0  0  0  0  0  0
  -28.1934  -28.9946   20.3201 N   0  0  0  0  0  0  0  0  0  0  0  0
  -21.5037  -28.2272   21.3785 N   0  0  0  0  0  0  0  0  0  0  0  0
  -19.3057  -25.8945   19.7066 N   0  3  0  0  0  0  0  0  0  0  0  0
  -28.5285  -20.4940   24.4220 N   0  3  0  0  0  0  0  0  0  0  0  0
  -22.7234  -14.8315   21.3791 O   0  0  0  0  0  0  0  0  0  0  0  0
  -26.8636  -28.5356   22.1757 O   0  0  0  0  0  0  0  0  0  0  0  0
  -23.7403  -29.7684   20.4670 O   0  0  0  0  0  0  0  0  0  0  0  0
  -21.2267  -25.9569   21.7614 O   0  0  0  0  0  0  0  0  0  0  0  0
  -31.7253  -14.8894   20.0213 O   0  0  0  0  0  0  0  0  0  0  0  0
  -21.3979   -7.1679   21.6936 O   0  0  0  0  0  0  0  0  0  0  0  0
  -26.7332  -21.9255   21.8232 O   0  0  0  0  0  0  0  0  0  1  0  0
  -24.1896  -19.0065   23.3184 O   0  0  0  0  0  0  0  0  0  0  0  0
  -23.6483   -3.0096   24.5305 F   0  0  0  0  0  0  0  0  0  0  0  0
  -20.2912   -6.3159   24.0793 F   0  0  0  0  0  0  0  0  0  0  0  0
  1  2  1  0  0  0  0
  1  5  2  0  0  0  0
  2  6  2  0  0  0  0
  3  8  2  0  0  0  0
  3 15  1  0  0  0  0
  4  9  1  0  0  0  0
  4 15  2  0  0  0  0
  5 17  1  0  0  0  0
  6 19  1  0  0  0  0
  7 10  2  0  0  0  0
  7 18  1  0  0  0  0
  8 21  1  0  0  0  0
  9 21  2  0  0  0  0
 10 22  1  0  0  0  0
 11 12  2  0  0  0  0
 11 23  1  0  0  0  0
 12 24  1  0  0  0  0
 13 20  1  0  0  0  0
 13 22  2  0  0  0  0
 14 24  2  0  0  0  0
 14 25  1  0  0  0  0
 15 26  1  0  0  0  0
 16 26  1  0  0  0  0
 16 27  2  0  0  0  0
 16 28  1  0  0  0  0
 17 19  2  0  0  0  0
 17 33  1  0  0  0  0
 18 20  2  0  0  0  0
 18 34  1  0  0  0  0
 19 47  1  0  0  0  0
 20 35  1  0  0  0  0
 21 83  1  0  0  0  0
 22 84  1  0  0  0  0
 23 25  2  0  0  0  0
 23 83  1  0  0  0  0
 24 86  1  0  0  0  0
 25 87  1  0  0  0  0
 26 67  2  0  0  0  0
 27 68  1  0  0  0  0
 27 72  1  0  0  0  0
 28 73  1  0  0  0  0
 28 78  2  0  0  0  0
 29 48  1  0  0  0  0
 29 74  1  0  0  0  0
 29 79  2  0  0  0  0
 30 64  1  0  0  0  0
 30 69  1  0  0  0  0
 30 80  2  0  0  0  0
 31 65  1  0  0  0  0
 31 75  1  0  0  0  0
 31 81  2  0  0  0  0
 32 70  1  0  0  0  0
 32 71  1  0  0  0  0
 32 82  2  0  0  0  0
 33 36  1  0  0  0  0
 34 48  1  0  0  0  0
 35 69  1  0  0  0  0
 36 38  1  0  0  0  0
 37 39  1  0  0  0  0
 37 43  1  0  0  0  0
 38 47  1  0  0  0  0
 39 52  1  0  0  0  0
 40 44  1  0  0  0  0
 40 49  1  0  0  0  0
 41 45  1  0  0  0  0
 41 49  1  0  0  0  0
 42 50  1  0  0  0  0
 42 54  1  0  0  0  0
 43 70  1  0  0  0  0
 44 71  1  0  0  0  0
 45 71  1  0  0  0  0
 46 52  1  0  0  0  0
 46 70  1  0  0  0  0
 47 74  1  0  0  0  0
 48 69  1  0  0  0  0
 49 50  1  0  0  0  0
 50 53  1  0  0  0  0
 51 53  1  0  0  0  0
 51 54  1  0  0  0  0
 51 63  1  0  0  0  0
 52 68  1  0  0  0  0
 53 77  1  0  0  0  0
 54 85  1  0  0  0  0
 55 65  1  0  0  0  0
 56 66  1  0  0  0  0
 57 66  1  0  0  0  0
 58 66  1  0  0  0  0
 59 76  1  0  0  0  0
 60 77  1  0  0  0  0
 61 77  1  0  0  0  0
 62 85  1  0  0  0  0
 63 84  1  0  0  0  0
 64 66  1  0  0  0  0
 64 75  1  0  0  0  0
 65 76  1  0  0  0  0
 67 68  1  0  0  0  0
M  CHG  2  76   1  77   1
M  ISO  4  32 100  63 101  71 100  84 101
M  END
> <Batch ID>
0151

> <Smiles>
CNC(C)C(=O)NC(C(=O)N1Cc2cc([101O:1][101CH2:1]C3C(OC)CC(C4CC[100N:0]([100C:0](=O)N5CCCC(n6nc(-c7ccc(Oc8ccc(F)cc8F)cc7)c(C(N)=O)c6N)C5)CC4)C3N(C)C)ccc2CC1C(=O)NC1CCCc2ccccc21)C(C)(C)C

> <Shape>
0.304

> <Color>
0.197

> <Negative vol penalty>
0.000

$$$$

  -OEChem-04052321433D

 89 99  0     1  0  0  0  0  0999 V2000
  -29.0754  -24.0738   17.7950 C   0  0  0  0  0  0  0  0  0  0  0  0
  -27.8735  -24.2207   18.4802 C   0  0  0  0  0  0  0  0  0  0  0  0
  -23.6673  -14.0676   19.6670 C   0  0  0  0  0  0  0  0  0  0  0  0
  -25.6617  -14.6431   20.9033 C   0  0  0  0  0  0  0  0  0  0  0  0
  -30.2012  -24.7873   18.2039 C   0  0  0  0  0  0  0  0  0  0  0  0
  -27.7971  -25.0805   19.5753 C   0  0  0  0  0  0  0  0  0  0  0  0
  -23.6439  -27.9766   19.4856 C   0  0  0  0  0  0  0  0  0  0  0  0
  -24.0019  -12.7164   19.7561 C   0  0  0  0  0  0  0  0  0  0  0  0
  -25.9963  -13.2919   20.9925 C   0  0  0  0  0  0  0  0  0  0  0  0
  -22.4450  -27.3827   19.8774 C   0  0  0  0  0  0  0  0  0  0  0  0
  -23.8238  -10.2532   22.0656 C   0  0  0  0  0  0  0  0  0  0  0  0
  -22.8127   -9.3564   22.4105 C   0  0  0  0  0  0  0  0  0  0  0  0
  -22.6588  -28.4010   22.0538 C   0  0  0  0  0  0  0  0  0  0  0  0
  -23.1319   -8.1919   20.3179 C   0  0  0  0  0  0  0  0  0  0  0  0
  -24.4972  -15.0310   20.2405 C   0  0  0  0  0  0  0  0  0  0  0  0
  -23.9825  -17.1848   18.9742 C   0  0  0  0  0  0  0  0  0  0  0  0
  -30.1362  -25.6636   19.2987 C   0  0  0  0  0  0  0  0  0  0  0  0
  -24.3661  -28.7797   20.3800 C   0  0  0  0  0  0  0  0  0  0  0  0
  -28.9236  -25.8054   20.0000 C   0  0  0  0  0  0  0  0  0  0  0  0
  -23.8653  -29.0061   21.6700 C   0  0  0  0  0  0  0  0  0  0  0  0
  -19.8343  -24.1486   28.6594 C   0  0  0  0  0  0  0  0  0  0  0  0
  -19.6722  -22.8218   28.1916 C   0  0  0  0  0  0  0  0  0  0  0  0
  -25.1664  -12.3286   20.4189 C   0  0  0  0  0  0  0  0  0  0  0  0
  -21.9537  -27.5925   21.1626 C   0  0  0  0  0  0  0  0  0  0  0  0
  -24.4889  -10.1194   20.8468 C   0  0  0  0  0  0  0  0  0  0  0  0
  -22.4667   -8.3257   21.5367 C   0  0  0  0  0  0  0  0  0  0  0  0
  -24.1430   -9.0888   19.9730 C   0  0  0  0  0  0  0  0  0  0  0  0
  -24.1524  -16.4269   20.1483 C   0  0  0  0  0  0  0  0  0  0  0  0
  -20.0252  -24.9490   27.5514 C   0  0  0  0  0  0  0  0  0  0  0  0
  -19.7747  -22.8576   26.8161 C   0  0  0  0  0  0  0  0  0  0  0  0
  -23.6633  -18.4437   19.4213 C   0  0  0  0  0  0  0  0  0  0  0  0
  -24.1025  -16.7866   17.6021 C   0  0  0  0  0  0  0  0  0  0  0  0
  -27.2545  -28.6307   21.6985 C   0  0  0  0  0  0  0  0  0  0  0  0
  -26.4600  -31.5634   22.8344 C   0  0  0  0  0  0  0  0  0  0  0  0
  -24.0017  -33.7731   23.6837 C   0  0  0  0  0  0  0  0  0  0  0  0
  -21.1242  -20.3193   24.4104 C   0  0  0  0  0  0  0  0  0  0  0  0
  -31.3917  -26.3777   19.7326 C   0  0  0  0  0  0  0  0  0  0  0  0
  -25.6442  -29.4349   19.9332 C   0  0  0  0  0  0  0  0  0  0  0  0
  -19.7990  -24.6928   30.0453 C   0  0  0  0  0  0  0  0  0  0  0  0
  -24.5922  -29.8762   22.6615 C   0  0  0  0  0  0  0  0  0  0  0  0
  -20.2628  -26.4150   27.5552 C   0  0  0  0  0  0  0  0  0  0  0  0
  -31.1307  -27.5524   20.6719 C   0  0  0  0  0  0  0  0  0  0  0  0
  -19.8895  -26.9987   28.9317 C   0  0  0  0  0  0  0  0  0  0  0  0
  -24.3416  -21.3813   23.1385 C   0  0  0  0  0  0  0  0  0  0  0  0
  -30.1505  -27.1507   21.7694 C   0  0  0  0  0  0  0  0  0  0  0  0
  -24.6368  -20.2897   22.1083 C   0  0  0  0  0  0  0  0  0  0  0  0
  -19.0680  -25.6247   24.5896 C   0  0  0  0  0  0  0  0  0  0  0  0
  -21.5698  -25.2447   24.7817 C   0  0  0  0  0  0  0  0  0  0  0  0
  -19.2568  -26.0932   23.1491 C   0  0  0  0  0  0  0  0  0  0  0  0
  -21.7455  -25.7165   23.3406 C   0  0  0  0  0  0  0  0  0  0  0  0
  -23.6448  -20.8069   24.3684 C   0  0  0  0  0  0  0  0  0  0  0  0
  -22.6850  -18.9642   23.0428 C   0  0  0  0  0  0  0  0  0  0  0  0
  -28.7946  -26.7472   21.1775 C   0  0  1  0  0  0  0  0  0  0  0  0
  -26.5574  -29.8167   21.0941 C   0  0  1  0  0  0  0  0  0  0  0  0
  -20.4017  -26.1204   30.1016 C   0  0  1  0  0  0  0  0  0  0  0  0
  -20.1732  -24.6387   25.0081 C   0  0  0  0  0  0  0  0  0  0  0  0
  -23.3691  -19.4850   21.7657 C   0  0  2  0  0  0  0  0  0  0  0  0
  -20.6441  -26.6912   22.9273 C   0  0  0  0  0  0  0  0  0  1  0  0
  -19.4346  -21.6225   29.0201 C   0  0  0  0  0  0  0  0  0  0  0  0
  -20.0924  -26.7760   31.4458 C   0  0  0  0  0  0  0  0  0  0  0  0
  -23.6606  -36.0766   24.6190 C   0  0  0  0  0  0  0  0  0  0  0  0
  -27.1356  -30.5281   25.6240 C   0  0  0  0  0  0  0  0  0  0  0  0
  -25.9002  -32.4874   26.5744 C   0  0  0  0  0  0  0  0  0  0  0  0
  -27.9196  -32.8567   25.1572 C   0  0  0  0  0  0  0  0  0  0  0  0
  -22.6166  -34.6887   21.2338 C   0  0  0  0  0  0  0  0  0  0  0  0
  -19.6857  -21.7606   25.8283 C   0  0  0  0  0  0  0  0  0  0  0  0
  -25.7712  -32.0788   24.0749 C   0  0  1  0  0  0  0  0  0  0  0  0
  -23.8114  -35.2431   23.3560 C   0  0  2  0  0  0  0  0  0  0  0  0
  -26.6687  -31.9697   25.3398 C   0  0  0  0  0  0  0  0  0  0  0  0
  -23.9574  -17.1444   21.2579 N   0  0  0  0  0  0  0  0  0  0  0  0
  -19.9906  -24.1592   26.4366 N   0  0  0  0  0  0  0  0  0  0  0  0
  -23.6617  -18.3663   20.7830 N   0  0  0  0  0  0  0  0  0  0  0  0
  -25.8408  -30.4895   22.1794 N   0  0  0  0  0  0  0  0  0  0  0  0
  -22.4361  -20.0690   23.9749 N   0  0  0  0  0  0  0  0  0  0  0  0
  -23.3866  -19.5981   18.7786 N   0  0  0  0  0  0  0  0  0  0  0  0
  -25.3541  -16.8976   16.9812 N   0  0  0  0  0  0  0  0  0  0  0  0
  -28.0357  -27.9221   20.8057 N   0  0  0  0  0  0  0  0  0  0  0  0
  -25.3364  -33.4368   23.7661 N   0  0  0  0  0  0  0  0  0  0  0  0
  -20.9753  -21.3784   25.2974 N   0  0  0  0  0  0  0  0  0  0  0  0
  -22.5933  -35.4337   22.5189 N   0  3  0  0  0  0  0  0  0  0  0  0
  -23.1250  -16.3608   16.9413 O   0  0  0  0  0  0  0  0  0  0  0  0
  -27.0965  -28.3782   22.8872 O   0  0  0  0  0  0  0  0  0  0  0  0
  -27.5051  -32.0988   22.4564 O   0  0  0  0  0  0  0  0  0  0  0  0
  -23.0605  -33.0012   23.8535 O   0  0  0  0  0  0  0  0  0  0  0  0
  -20.1556  -19.6514   24.0323 O   0  0  0  0  0  0  0  0  0  0  0  0
  -25.4931  -11.0102   20.5062 O   0  0  0  0  0  0  0  0  0  0  0  0
  -20.7840  -27.0135   21.5478 O   0  0  0  0  0  0  0  0  0  1  0  0
  -21.4968   -7.4636   21.8686 F   0  0  0  0  0  0  0  0  0  0  0  0
  -24.7792   -8.9544   18.8012 F   0  0  0  0  0  0  0  0  0  0  0  0
  1  2  1  0  0  0  0
  1  5  2  0  0  0  0
  2  6  2  0  0  0  0
  3  8  2  0  0  0  0
  3 15  1  0  0  0  0
  4  9  1  0  0  0  0
  4 15  2  0  0  0  0
  5 17  1  0  0  0  0
  6 19  1  0  0  0  0
  7 10  2  0  0  0  0
  7 18  1  0  0  0  0
  8 23  1  0  0  0  0
  9 23  2  0  0  0  0
 10 24  1  0  0  0  0
 11 12  2  0  0  0  0
 11 25  1  0  0  0  0
 12 26  1  0  0  0  0
 13 20  1  0  0  0  0
 13 24  2  0  0  0  0
 14 26  2  0  0  0  0
 14 27  1  0  0  0  0
 15 28  1  0  0  0  0
 16 28  1  0  0  0  0
 16 31  2  0  0  0  0
 16 32  1  0  0  0  0
 17 19  2  0  0  0  0
 17 37  1  0  0  0  0
 18 20  2  0  0  0  0
 18 38  1  0  0  0  0
 19 53  1  0  0  0  0
 20 40  1  0  0  0  0
 21 22  1  0  0  0  0
 21 29  2  0  0  0  0
 21 39  1  0  0  0  0
 22 30  2  0  0  0  0
 22 59  1  0  0  0  0
 23 86  1  0  0  0  0
 24 87  1  0  0  0  0
 25 27  2  0  0  0  0
 25 86  1  0  0  0  0
 26 88  1  0  0  0  0
 27 89  1  0  0  0  0
 28 70  2  0  0  0  0
 29 41  1  0  0  0  0
 29 71  1  0  0  0  0
 30 66  1  0  0  0  0
 30 71  1  0  0  0  0
 31 72  1  0  0  0  0
 31 75  1  0  0  0  0
 32 76  1  0  0  0  0
 32 81  2  0  0  0  0
 33 54  1  0  0  0  0
 33 77  1  0  0  0  0
 33 82  2  0  0  0  0
 34 67  1  0  0  0  0
 34 73  1  0  0  0  0
 34 83  2  0  0  0  0
 35 68  1  0  0  0  0
 35 78  1  0  0  0  0
 35 84  2  0  0  0  0
 36 74  1  0  0  0  0
 36 79  1  0  0  0  0
 36 85  2  0  0  0  0
 37 42  1  0  0  0  0
 38 54  1  0  0  0  0
 39 55  1  0  0  0  0
 40 73  1  0  0  0  0
 41 43  1  0  0  0  0
 42 45  1  0  0  0  0
 43 55  1  0  0  0  0
 44 46  1  0  0  0  0
 44 51  1  0  0  0  0
 45 53  1  0  0  0  0
 46 57  1  0  0  0  0
 47 49  1  0  0  0  0
 47 56  1  0  0  0  0
 48 50  1  0  0  0  0
 48 56  1  0  0  0  0
 49 58  1  0  0  0  0
 50 58  1  0  0  0  0
 51 74  1  0  0  0  0
 52 57  1  0  0  0  0
 52 74  1  0  0  0  0
 53 77  1  0  0  0  0
 54 73  1  0  0  0  0
 55 60  1  0  0  0  0
 56 71  1  0  0  0  0
 57 72  1  0  0  0  0
 58 87  1  0  0  0  0
 61 68  1  0  0  0  0
 62 69  1  0  0  0  0
 63 69  1  0  0  0  0
 64 69  1  0  0  0  0
 65 80  1  0  0  0  0
 66 79  1  0  0  0  0
 67 69  1  0  0  0  0
 67 78  1  0  0  0  0
 68 80  1  0  0  0  0
 70 72  1  0  0  0  0
M  CHG  1  80   1
M  ISO  4  36 100  58 101  79 100  87 101
M  END
> <Batch ID>
0151

> <Smiles>
CNC(C)C(=O)NC(C(=O)N1Cc2cc([101O:1][101CH:1]3CCC(n4c(C[100NH:0][100C:0](=O)N5CCCC(n6nc(-c7ccc(Oc8ccc(F)cc8F)cc7)c(C(N)=O)c6N)C5)c(C)c5c4CCC(C)C5)CC3)ccc2CC1C(=O)NC1CCCc2ccccc21)C(C)(C)C

> <Shape>
0.249

> <Color>
0.075

> <Negative vol penalty>
0.000

$$$$

  -OEChem-04052321433D

 87 96  0     1  0  0  0  0  0999 V2000
  -26.6970  -18.7453   18.0195 C   0  0  0  0  0  0  0  0  0  0  0  0
  -25.8294  -19.8299   17.9414 C   0  0  0  0  0  0  0  0  0  0  0  0
  -24.4019  -14.8146   22.2679 C   0  0  0  0  0  0  0  0  0  0  0  0
  -25.4076  -15.7655   20.2876 C   0  0  0  0  0  0  0  0  0  0  0  0
  -27.7327  -18.7483   18.9528 C   0  0  0  0  0  0  0  0  0  0  0  0
  -25.9963  -20.9179   18.7975 C   0  0  0  0  0  0  0  0  0  0  0  0
  -25.1677  -28.0300   19.0141 C   0  0  0  0  0  0  0  0  0  0  0  0
  -24.9390  -13.5691   21.9425 C   0  0  0  0  0  0  0  0  0  0  0  0
  -25.9447  -14.5200   19.9623 C   0  0  0  0  0  0  0  0  0  0  0  0
  -24.5701  -29.0216   19.7910 C   0  0  0  0  0  0  0  0  0  0  0  0
  -28.5642  -12.6118   20.9201 C   0  0  0  0  0  0  0  0  0  0  0  0
  -29.8971  -12.5694   20.5111 C   0  0  0  0  0  0  0  0  0  0  0  0
  -26.4427  -28.9515   21.3100 C   0  0  0  0  0  0  0  0  0  0  0  0
  -21.4315  -25.7131   21.3540 C   0  0  0  0  0  0  0  0  0  0  0  0
  -23.6647  -25.3054   22.1807 C   0  0  0  0  0  0  0  0  0  0  0  0
  -29.2169  -11.6295   18.3919 C   0  0  0  0  0  0  0  0  0  0  0  0
  -24.6361  -15.9128   21.4404 C   0  0  0  0  0  0  0  0  0  0  0  0
  -24.3202  -17.9507   22.9420 C   0  0  0  0  0  0  0  0  0  0  0  0
  -27.9183  -19.8411   19.8143 C   0  0  0  0  0  0  0  0  0  0  0  0
  -26.4042  -27.4831   19.3860 C   0  0  0  0  0  0  0  0  0  0  0  0
  -27.0347  -20.9350   19.7442 C   0  0  0  0  0  0  0  0  0  0  0  0
  -27.0551  -27.9550   20.5348 C   0  0  0  0  0  0  0  0  0  0  0  0
  -21.3338  -26.8382   22.1727 C   0  0  0  0  0  0  0  0  0  0  0  0
  -22.4016  -27.1970   22.9953 C   0  0  0  0  0  0  0  0  0  0  0  0
  -22.5969  -24.9466   21.3581 C   0  0  0  0  0  0  0  0  0  0  0  0
  -25.7104  -13.4218   20.7898 C   0  0  0  0  0  0  0  0  0  0  0  0
  -25.2062  -29.4805   20.9407 C   0  0  0  0  0  0  0  0  0  0  0  0
  -27.5577  -12.1631   20.0650 C   0  0  0  0  0  0  0  0  0  0  0  0
  -23.5671  -26.4305   22.9993 C   0  0  0  0  0  0  0  0  0  0  0  0
  -30.2234  -12.0782   19.2470 C   0  0  0  0  0  0  0  0  0  0  0  0
  -27.8840  -11.6719   18.8009 C   0  0  0  0  0  0  0  0  0  0  0  0
  -24.0811  -17.1996   21.7756 C   0  0  0  0  0  0  0  0  0  0  0  0
  -23.5649  -19.0864   22.7798 C   0  0  0  0  0  0  0  0  0  0  0  0
  -25.1508  -17.6489   24.0710 C   0  0  0  0  0  0  0  0  0  0  0  0
  -27.4222  -24.5821   20.1929 C   0  0  0  0  0  0  0  0  0  0  0  0
  -30.3309  -26.0176   20.1550 C   0  0  0  0  0  0  0  0  0  0  0  0
  -32.1434  -28.8984   20.4054 C   0  0  0  0  0  0  0  0  0  0  0  0
  -21.7302  -23.3103   19.6500 C   0  0  0  0  0  0  0  0  0  0  0  0
  -29.0233  -19.7782   20.8389 C   0  0  0  0  0  0  0  0  0  0  0  0
  -27.0481  -26.4331   18.5227 C   0  0  0  0  0  0  0  0  0  0  0  0
  -28.3932  -27.4150   20.9664 C   0  0  0  0  0  0  0  0  0  0  0  0
  -29.3599  -21.1335   21.4556 C   0  0  0  0  0  0  0  0  0  0  0  0
  -19.9994  -20.2116   19.3677 C   0  0  0  0  0  0  0  0  0  0  0  0
  -28.0852  -21.8678   21.8589 C   0  0  0  0  0  0  0  0  0  0  0  0
  -20.9267  -19.2135   20.0649 C   0  0  0  0  0  0  0  0  0  0  0  0
  -22.9777  -30.9103   23.5044 C   0  0  0  0  0  0  0  0  0  0  0  0
  -20.7840  -21.2696   18.5939 C   0  0  0  0  0  0  0  0  0  0  0  0
  -22.7341  -20.9799   20.0711 C   0  0  0  0  0  0  0  0  0  0  0  0
  -27.1984  -22.1445   20.6388 C   0  0  1  0  0  0  0  0  0  0  0  0
  -28.0665  -25.5827   19.2757 C   0  0  1  0  0  0  0  0  0  0  0  0
  -23.3431  -29.4540   23.5871 C   0  0  2  0  0  0  0  0  0  0  0  0
  -21.9907  -19.9331   20.9168 C   0  0  2  0  0  0  0  0  0  0  0  0
  -23.3427  -30.1553   22.2551 C   0  0  2  0  0  0  0  0  0  1  0  0
  -20.0752  -27.6423   22.1504 C   0  0  0  0  0  0  0  0  0  0  0  0
  -26.0374  -26.0820   25.6008 C   0  0  0  0  0  0  0  0  0  0  0  0
  -34.1566  -30.3953   20.3458 C   0  0  0  0  0  0  0  0  0  0  0  0
  -30.7513  -24.9588   22.9856 C   0  0  0  0  0  0  0  0  0  0  0  0
  -32.6340  -26.5893   23.2410 C   0  0  0  0  0  0  0  0  0  0  0  0
  -32.7603  -24.8030   21.5043 C   0  0  0  0  0  0  0  0  0  0  0  0
  -31.8069  -29.4296   17.5134 C   0  0  0  0  0  0  0  0  0  0  0  0
  -25.4459  -25.6995   24.2609 C   0  0  0  0  0  0  0  0  0  0  0  0
  -22.3180  -28.0186   25.3898 C   0  0  0  0  0  0  0  0  0  0  0  0
  -22.3007  -28.4363   23.8973 C   0  0  2  0  0  0  0  0  0  0  0  0
  -31.1770  -26.7457   21.1713 C   0  0  1  0  0  0  0  0  0  0  0  0
  -33.2589  -29.4645   19.5454 C   0  0  2  0  0  0  0  0  0  0  0  0
  -31.8045  -25.7832   22.2187 C   0  0  0  0  0  0  0  0  0  0  0  0
  -23.2396  -17.8068   20.9347 N   0  0  0  0  0  0  0  0  0  0  0  0
  -22.9433  -18.9515   21.5734 N   0  0  0  0  0  0  0  0  0  0  0  0
  -28.9792  -26.3851   20.0927 N   0  0  0  0  0  0  0  0  0  0  0  0
  -21.7700  -21.9120   19.4657 N   0  0  0  0  0  0  0  0  0  0  0  0
  -23.3784  -20.1771   23.5530 N   0  0  0  0  0  0  0  0  0  0  0  0
  -26.4896  -18.0626   24.0451 N   0  0  0  0  0  0  0  0  0  0  0  0
  -22.6964  -23.8040   20.5260 N   0  0  0  0  0  0  0  0  0  0  0  0
  -27.7130  -23.2669   19.8841 N   0  0  0  0  0  0  0  0  0  0  0  0
  -32.1525  -27.5196   20.4110 N   0  0  0  0  0  0  0  0  0  0  0  0
  -32.6919  -30.2294   18.3990 N   0  3  0  0  0  0  0  0  0  0  0  0
  -24.7229  -17.0164   25.0661 O   0  0  0  0  0  0  0  0  0  0  0  0
  -26.7149  -24.9742   21.1136 O   0  0  0  0  0  0  0  0  0  0  0  0
  -30.8516  -25.1597   19.4378 O   0  0  0  0  0  0  0  0  0  0  0  0
  -31.3461  -29.6083   21.0144 O   0  0  0  0  0  0  0  0  0  0  0  0
  -20.8830  -24.0142   19.0945 O   0  0  0  0  0  0  0  0  0  0  0  0
  -21.8073  -29.0586   26.2165 O   0  0  0  0  0  0  0  0  0  0  0  0
  -26.2348  -12.2066   20.4721 O   0  0  0  0  0  0  0  0  0  0  0  0
  -24.6249  -30.4477   21.7011 O   0  0  0  0  0  0  0  0  0  1  0  0
  -24.6204  -26.7655   23.7962 O   0  0  0  0  0  0  0  0  0  0  0  0
  -31.5033  -12.0389   18.8539 F   0  0  0  0  0  0  0  0  0  0  0  0
  -26.9213  -11.2405   17.9745 F   0  0  0  0  0  0  0  0  0  0  0  0
  1  2  1  0  0  0  0
  1  5  2  0  0  0  0
  2  6  2  0  0  0  0
  3  8  2  0  0  0  0
  3 17  1  0  0  0  0
  4  9  1  0  0  0  0
  4 17  2  0  0  0  0
  5 19  1  0  0  0  0
  6 21  1  0  0  0  0
  7 10  2  0  0  0  0
  7 20  1  0  0  0  0
  8 26  1  0  0  0  0
  9 26  2  0  0  0  0
 10 27  1  0  0  0  0
 11 12  2  0  0  0  0
 11 28  1  0  0  0  0
 12 30  1  0  0  0  0
 13 22  1  0  0  0  0
 13 27  2  0  0  0  0
 14 23  2  0  0  0  0
 14 25  1  0  0  0  0
 15 25  2  0  0  0  0
 15 29  1  0  0  0  0
 16 30  2  0  0  0  0
 16 31  1  0  0  0  0
 17 32  1  0  0  0  0
 18 32  1  0  0  0  0
 18 33  2  0  0  0  0
 18 34  1  0  0  0  0
 19 21  2  0  0  0  0
 19 39  1  0  0  0  0
 20 22  2  0  0  0  0
 20 40  1  0  0  0  0
 21 49  1  0  0  0  0
 22 41  1  0  0  0  0
 23 24  1  0  0  0  0
 23 54  1  0  0  0  0
 24 29  2  0  0  0  0
 24 63  1  0  0  0  0
 25 73  1  0  0  0  0
 26 83  1  0  0  0  0
 27 84  1  0  0  0  0
 28 31  2  0  0  0  0
 28 83  1  0  0  0  0
 29 85  1  0  0  0  0
 30 86  1  0  0  0  0
 31 87  1  0  0  0  0
 32 67  2  0  0  0  0
 33 68  1  0  0  0  0
 33 71  1  0  0  0  0
 34 72  1  0  0  0  0
 34 77  2  0  0  0  0
 35 50  1  0  0  0  0
 35 74  1  0  0  0  0
 35 78  2  0  0  0  0
 36 64  1  0  0  0  0
 36 69  1  0  0  0  0
 36 79  2  0  0  0  0
 37 65  1  0  0  0  0
 37 75  1  0  0  0  0
 37 80  2  0  0  0  0
 38 70  1  0  0  0  0
 38 73  1  0  0  0  0
 38 81  2  0  0  0  0
 39 42  1  0  0  0  0
 40 50  1  0  0  0  0
 41 69  1  0  0  0  0
 42 44  1  0  0  0  0
 43 45  1  0  0  0  0
 43 47  1  0  0  0  0
 44 49  1  0  0  0  0
 45 52  1  0  0  0  0
 46 51  1  0  0  0  0
 46 53  1  0  0  0  0
 47 70  1  0  0  0  0
 48 52  1  0  0  0  0
 48 70  1  0  0  0  0
 49 74  1  0  0  0  0
 50 69  1  0  0  0  0
 51 53  1  0  0  0  0
 51 63  1  0  0  0  0
 52 68  1  0  0  0  0
 53 84  1  0  0  0  0
 55 61  1  0  0  0  0
 56 65  1  0  0  0  0
 57 66  1  0  0  0  0
 58 66  1  0  0  0  0
 59 66  1  0  0  0  0
 60 76  1  0  0  0  0
 61 85  1  0  0  0  0
 62 63  1  0  0  0  0
 62 82  1  0  0  0  0
 64 66  1  0  0  0  0
 64 75  1  0  0  0  0
 65 76  1  0  0  0  0
 67 68  1  0  0  0  0
M  CHG  1  76   1
M  ISO  4  38 100  53 101  73 100  84 101
M  END
> <Batch ID>
0151

> <Smiles>
CCOc1cc([100NH:0][100C:0](=O)N2CCCC(n3nc(-c4ccc(Oc5ccc(F)cc5F)cc4)c(C(N)=O)c3N)C2)cc(C)c1C(CO)C1C[101CH:1]1[101O:1]c1ccc2c(c1)CN(C(=O)C(NC(=O)C(C)NC)C(C)(C)C)C(C(=O)NC1CCCc3ccccc31)C2

> <Shape>
0.222

> <Color>
0.060

> <Negative vol penalty>
0.000

$$$$

  -OEChem-04052321433D

 87 96  0     1  0  0  0  0  0999 V2000
  -29.4607  -35.1854   26.0730 C   0  0  0  0  0  0  0  0  0  0  0  0
  -29.3027  -33.8424   25.7461 C   0  0  0  0  0  0  0  0  0  0  0  0
  -23.6967   -9.6242   20.6046 C   0  0  0  0  0  0  0  0  0  0  0  0
  -24.1712  -10.2830   22.8801 C   0  0  0  0  0  0  0  0  0  0  0  0
  -28.3480  -36.0236   26.1285 C   0  0  0  0  0  0  0  0  0  0  0  0
  -28.0317  -33.3366   25.4757 C   0  0  0  0  0  0  0  0  0  0  0  0
  -27.9581  -30.3533   21.3843 C   0  0  0  0  0  0  0  0  0  0  0  0
  -23.1434   -8.4297   21.0658 C   0  0  0  0  0  0  0  0  0  0  0  0
  -23.6179   -9.0885   23.3413 C   0  0  0  0  0  0  0  0  0  0  0  0
  -28.4356  -29.0523   21.5363 C   0  0  0  0  0  0  0  0  0  0  0  0
  -20.2328   -7.4019   22.4460 C   0  0  0  0  0  0  0  0  0  0  0  0
  -19.0200   -6.9927   21.8917 C   0  0  0  0  0  0  0  0  0  0  0  0
  -26.1683  -28.2467   21.7084 C   0  0  0  0  0  0  0  0  0  0  0  0
  -28.9444  -21.8317   21.8914 C   0  0  0  0  0  0  0  0  0  0  0  0
  -29.3030  -22.6938   24.1196 C   0  0  0  0  0  0  0  0  0  0  0  0
  -20.0631   -4.9578   21.1117 C   0  0  0  0  0  0  0  0  0  0  0  0
  -24.2106  -10.5509   21.5118 C   0  0  0  0  0  0  0  0  0  0  0  0
  -24.1142  -13.0050   20.8222 C   0  0  0  0  0  0  0  0  0  0  0  0
  -27.0638  -35.5301   25.8492 C   0  0  0  0  0  0  0  0  0  0  0  0
  -26.5801  -30.6126   21.4042 C   0  0  0  0  0  0  0  0  0  0  0  0
  -26.9006  -34.1688   25.5288 C   0  0  0  0  0  0  0  0  0  0  0  0
  -25.6758  -29.5516   21.5539 C   0  0  0  0  0  0  0  0  0  0  0  0
  -28.9423  -20.5309   22.3949 C   0  0  0  0  0  0  0  0  0  0  0  0
  -29.1205  -20.3116   23.7609 C   0  0  0  0  0  0  0  0  0  0  0  0
  -23.1040   -8.1619   22.4341 C   0  0  0  0  0  0  0  0  0  0  0  0
  -27.5407  -27.9991   21.7013 C   0  0  0  0  0  0  0  0  0  0  0  0
  -21.3608   -6.5892   22.3330 C   0  0  0  0  0  0  0  0  0  0  0  0
  -29.1248  -22.9132   22.7537 C   0  0  0  0  0  0  0  0  0  0  0  0
  -29.3008  -21.3930   24.6232 C   0  0  0  0  0  0  0  0  0  0  0  0
  -18.9351   -5.7706   21.2246 C   0  0  0  0  0  0  0  0  0  0  0  0
  -21.2760   -5.3671   21.6659 C   0  0  0  0  0  0  0  0  0  0  0  0
  -24.7827  -11.7847   21.0359 C   0  0  0  0  0  0  0  0  0  0  0  0
  -25.0921  -13.8580   20.3722 C   0  0  0  0  0  0  0  0  0  0  0  0
  -22.7327  -13.3378   21.0135 C   0  0  0  0  0  0  0  0  0  0  0  0
  -24.6449  -32.3163   23.2632 C   0  0  0  0  0  0  0  0  0  0  0  0
  -22.4304  -31.5078   21.0350 C   0  0  0  0  0  0  0  0  0  0  0  0
  -21.4373  -29.3450   18.5890 C   0  0  0  0  0  0  0  0  0  0  0  0
  -30.2510  -15.9594   20.7122 C   0  0  0  0  0  0  0  0  0  0  0  0
  -25.8855  -36.4638   25.9681 C   0  0  0  0  0  0  0  0  0  0  0  0
  -26.0803  -32.0182   21.2121 C   0  0  0  0  0  0  0  0  0  0  0  0
  -24.1862  -29.7743   21.5620 C   0  0  0  0  0  0  0  0  0  0  0  0
  -24.6186  -35.9338   25.3015 C   0  0  0  0  0  0  0  0  0  0  0  0
  -29.8367  -12.9336   18.8821 C   0  0  0  0  0  0  0  0  0  0  0  0
  -24.3850  -34.4754   25.6825 C   0  0  0  0  0  0  0  0  0  0  0  0
  -28.4330  -12.4628   19.2665 C   0  0  0  0  0  0  0  0  0  0  0  0
  -29.6641  -19.2620   20.2638 C   0  0  0  0  0  0  0  0  0  0  0  0
  -30.5545  -13.5890   20.0599 C   0  0  0  0  0  0  0  0  0  0  0  0
  -28.4054  -14.2140   21.0917 C   0  0  0  0  0  0  0  0  0  0  0  0
  -28.7501  -19.3897   21.4517 C   0  0  1  0  0  0  0  0  0  0  0  0
  -25.5411  -33.5884   25.2047 C   0  0  1  0  0  0  0  0  0  0  0  0
  -24.6740  -32.2328   21.7632 C   0  0  1  0  0  0  0  0  0  0  0  0
  -27.6211  -13.5966   19.9212 C   0  0  2  0  0  0  0  0  0  0  0  0
  -29.7927  -18.2978   21.4058 C   0  0  1  0  0  0  0  0  0  0  0  0
  -29.1179  -18.9197   24.3080 C   0  0  0  0  0  0  0  0  0  0  0  0
  -31.0543  -20.8053   27.7171 C   0  0  0  0  0  0  0  0  0  0  0  0
  -19.5639  -28.9243   16.9732 C   0  0  0  0  0  0  0  0  0  0  0  0
  -20.7030  -30.4503   23.3171 C   0  0  0  0  0  0  0  0  0  0  0  0
  -19.3355  -29.2197   21.6189 C   0  0  0  0  0  0  0  0  0  0  0  0
  -19.4498  -31.7108   21.5578 C   0  0  0  0  0  0  0  0  0  0  0  0
  -23.2363  -29.6118   16.2542 C   0  0  0  0  0  0  0  0  0  0  0  0
  -30.6937  -21.6733   26.5304 C   0  0  0  0  0  0  0  0  0  0  0  0
  -29.2797  -26.5708   22.4706 C   0  0  0  0  0  0  0  0  0  1  0  0
  -29.3152  -25.2414   23.1994 C   0  0  0  0  0  0  0  0  0  0  0  0
  -21.4671  -30.3598   20.8526 C   0  0  1  0  0  0  0  0  0  0  0  0
  -20.9178  -29.5845   17.1829 C   0  0  2  0  0  0  0  0  0  0  0  0
  -20.2669  -30.4309   21.8384 C   0  0  0  0  0  0  0  0  0  0  0  0
  -26.0847  -11.8522   20.7454 N   0  0  0  0  0  0  0  0  0  0  0  0
  -26.2421  -13.1252   20.3445 N   0  0  0  0  0  0  0  0  0  0  0  0
  -23.7468  -31.1672   21.3769 N   0  0  0  0  0  0  0  0  0  0  0  0
  -29.7321  -14.6564   20.6345 N   0  0  0  0  0  0  0  0  0  0  0  0
  -25.0719  -15.1559   20.0014 N   0  0  0  0  0  0  0  0  0  0  0  0
  -21.8644  -12.3424   21.4819 N   0  0  0  0  0  0  0  0  0  0  0  0
  -25.4262  -33.3294   23.7855 N   0  0  0  0  0  0  0  0  0  0  0  0
  -21.0851  -30.3674   19.4446 N   0  0  0  0  0  0  0  0  0  0  0  0
  -29.4037  -16.9123   21.2643 N   0  0  0  0  0  0  0  0  0  0  0  0
  -21.8702  -29.0331   16.1779 N   0  3  0  0  0  0  0  0  0  0  0  0
  -22.2785  -14.4793   20.7603 O   0  0  0  0  0  0  0  0  0  0  0  0
  -23.9629  -31.5215   23.8995 O   0  0  0  0  0  0  0  0  0  0  0  0
  -22.0313  -32.6637   20.8730 O   0  0  0  0  0  0  0  0  0  0  0  0
  -22.0872  -28.3488   18.8984 O   0  0  0  0  0  0  0  0  0  0  0  0
  -31.3833  -16.2529   20.3138 O   0  0  0  0  0  0  0  0  0  0  0  0
  -22.5640   -6.9965   22.8845 O   0  0  0  0  0  0  0  0  0  0  0  0
  -28.0041  -26.7283   21.8505 O   0  0  0  0  0  0  0  0  0  1  0  0
  -29.1256  -24.1909   22.2593 O   0  0  0  0  0  0  0  0  0  0  0  0
  -29.4757  -21.1984   25.9606 O   0  0  0  0  0  0  0  0  0  0  0  0
  -17.7700   -5.3771   20.6938 F   0  0  0  0  0  0  0  0  0  0  0  0
  -22.3559   -4.5815   21.5553 F   0  0  0  0  0  0  0  0  0  0  0  0
  1  2  1  0  0  0  0
  1  5  2  0  0  0  0
  2  6  2  0  0  0  0
  3  8  2  0  0  0  0
  3 17  1  0  0  0  0
  4  9  1  0  0  0  0
  4 17  2  0  0  0  0
  5 19  1  0  0  0  0
  6 21  1  0  0  0  0
  7 10  2  0  0  0  0
  7 20  1  0  0  0  0
  8 25  1  0  0  0  0
  9 25  2  0  0  0  0
 10 26  1  0  0  0  0
 11 12  2  0  0  0  0
 11 27  1  0  0  0  0
 12 30  1  0  0  0  0
 13 22  1  0  0  0  0
 13 26  2  0  0  0  0
 14 23  2  0  0  0  0
 14 28  1  0  0  0  0
 15 28  2  0  0  0  0
 15 29  1  0  0  0  0
 16 30  2  0  0  0  0
 16 31  1  0  0  0  0
 17 32  1  0  0  0  0
 18 32  1  0  0  0  0
 18 33  2  0  0  0  0
 18 34  1  0  0  0  0
 19 21  2  0  0  0  0
 19 39  1  0  0  0  0
 20 22  2  0  0  0  0
 20 40  1  0  0  0  0
 21 50  1  0  0  0  0
 22 41  1  0  0  0  0
 23 24  1  0  0  0  0
 23 49  1  0  0  0  0
 24 29  2  0  0  0  0
 24 54  1  0  0  0  0
 25 82  1  0  0  0  0
 26 83  1  0  0  0  0
 27 31  2  0  0  0  0
 27 82  1  0  0  0  0
 28 84  1  0  0  0  0
 29 85  1  0  0  0  0
 30 86  1  0  0  0  0
 31 87  1  0  0  0  0
 32 67  2  0  0  0  0
 33 68  1  0  0  0  0
 33 71  1  0  0  0  0
 34 72  1  0  0  0  0
 34 77  2  0  0  0  0
 35 51  1  0  0  0  0
 35 73  1  0  0  0  0
 35 78  2  0  0  0  0
 36 64  1  0  0  0  0
 36 69  1  0  0  0  0
 36 79  2  0  0  0  0
 37 65  1  0  0  0  0
 37 74  1  0  0  0  0
 37 80  2  0  0  0  0
 38 70  1  0  0  0  0
 38 75  1  0  0  0  0
 38 81  2  0  0  0  0
 39 42  1  0  0  0  0
 40 51  1  0  0  0  0
 41 69  1  0  0  0  0
 42 44  1  0  0  0  0
 43 45  1  0  0  0  0
 43 47  1  0  0  0  0
 44 50  1  0  0  0  0
 45 52  1  0  0  0  0
 46 49  1  0  0  0  0
 46 53  1  0  0  0  0
 47 70  1  0  0  0  0
 48 52  1  0  0  0  0
 48 70  1  0  0  0  0
 49 53  1  0  0  0  0
 50 73  1  0  0  0  0
 51 69  1  0  0  0  0
 52 68  1  0  0  0  0
 53 75  1  0  0  0  0
 55 61  1  0  0  0  0
 56 65  1  0  0  0  0
 57 66  1  0  0  0  0
 58 66  1  0  0  0  0
 59 66  1  0  0  0  0
 60 76  1  0  0  0  0
 61 85  1  0  0  0  0
 62 63  1  0  0  0  0
 62 83  1  0  0  0  0
 63 84  1  0  0  0  0
 64 66  1  0  0  0  0
 64 74  1  0  0  0  0
 65 76  1  0  0  0  0
 67 68  1  0  0  0  0
M  CHG  1  76   1
M  ISO  4  38 100  62 101  75 100  83 101
M  END
> <Batch ID>
0151

> <Smiles>
CCOc1cc(OC[101CH2:1][101O:1]c2ccc3c(c2)CN(C(=O)C(NC(=O)C(C)NC)C(C)(C)C)C(C(=O)NC2CCCc4ccccc42)C3)cc(C2CC2[100NH:0][100C:0](=O)N2CCCC(n3nc(-c4ccc(Oc5ccc(F)cc5F)cc4)c(C(N)=O)c3N)C2)c1C

> <Shape>
0.302

> <Color>
0.157

> <Negative vol penalty>
0.000

$$$$

  -OEChem-04052321433D

 89 98  0     1  0  0  0  0  0999 V2000
  -23.0505   -7.6649   20.9076 C   0  0  0  0  0  0  0  0  0  0  0  0
  -23.1479   -8.5953   19.8778 C   0  0  0  0  0  0  0  0  0  0  0  0
  -23.5583  -32.3199   22.8925 C   0  0  0  0  0  0  0  0  0  0  0  0
  -25.5005  -31.1900   22.0046 C   0  0  0  0  0  0  0  0  0  0  0  0
  -28.9434  -21.7397   22.3092 C   0  0  0  0  0  0  0  0  0  0  0  0
  -22.6255   -8.0689   22.1725 C   0  0  0  0  0  0  0  0  0  0  0  0
  -22.8194   -9.9300   20.1121 C   0  0  0  0  0  0  0  0  0  0  0  0
  -27.6376  -15.1776   19.0447 C   0  0  0  0  0  0  0  0  0  0  0  0
  -27.8230  -22.3745   22.8483 C   0  0  0  0  0  0  0  0  0  0  0  0
  -24.2561  -33.5276   22.8821 C   0  0  0  0  0  0  0  0  0  0  0  0
  -26.1983  -32.3977   21.9942 C   0  0  0  0  0  0  0  0  0  0  0  0
  -28.4358  -16.2561   18.6631 C   0  0  0  0  0  0  0  0  0  0  0  0
  -26.5819  -35.0763   24.7838 C   0  0  0  0  0  0  0  0  0  0  0  0
  -26.4853  -35.8894   25.9129 C   0  0  0  0  0  0  0  0  0  0  0  0
  -26.7665  -17.7980   19.4900 C   0  0  0  0  0  0  0  0  0  0  0  0
  -27.5179  -23.6090   20.7927 C   0  0  0  0  0  0  0  0  0  0  0  0
  -25.5474  -37.6574   24.5595 C   0  0  0  0  0  0  0  0  0  0  0  0
  -24.1805  -31.1511   22.4538 C   0  0  0  0  0  0  0  0  0  0  0  0
  -29.3426  -22.0279   21.0004 C   0  0  0  0  0  0  0  0  0  0  0  0
  -22.2714  -29.6016   21.7739 C   0  0  0  0  0  0  0  0  0  0  0  0
  -22.3008   -9.4111   22.4250 C   0  0  0  0  0  0  0  0  0  0  0  0
  -26.4060  -15.4053   19.6651 C   0  0  0  0  0  0  0  0  0  0  0  0
  -22.3883  -10.3521   21.3813 C   0  0  0  0  0  0  0  0  0  0  0  0
  -25.9681  -16.7215   19.8857 C   0  0  0  0  0  0  0  0  0  0  0  0
  -27.1120  -23.3072   22.0918 C   0  0  0  0  0  0  0  0  0  0  0  0
  -28.6240  -22.9577   20.2479 C   0  0  0  0  0  0  0  0  0  0  0  0
  -25.5761  -33.5665   22.4330 C   0  0  0  0  0  0  0  0  0  0  0  0
  -28.0012  -17.5631   18.8850 C   0  0  0  0  0  0  0  0  0  0  0  0
  -26.1614  -35.5537   23.5424 C   0  0  0  0  0  0  0  0  0  0  0  0
  -25.9680  -37.1800   25.8008 C   0  0  0  0  0  0  0  0  0  0  0  0
  -25.6441  -36.8442   23.4303 C   0  0  0  0  0  0  0  0  0  0  0  0
  -23.4604  -29.9031   22.4648 C   0  0  0  0  0  0  0  0  0  0  0  0
  -21.9986  -28.2987   22.1125 C   0  0  0  0  0  0  0  0  0  0  0  0
  -30.5524  -21.3764   20.4554 C   0  0  0  0  0  0  0  0  0  0  0  0
  -21.4841  -30.4255   20.9038 C   0  0  0  0  0  0  0  0  0  0  0  0
  -23.3278  -13.9217   21.2141 C   0  0  0  0  0  0  0  0  0  0  0  0
  -24.1278  -16.3238   22.9462 C   0  0  0  0  0  0  0  0  0  0  0  0
  -24.6623  -18.5387   25.4851 C   0  0  0  0  0  0  0  0  0  0  0  0
  -25.4243  -23.7449   23.9102 C   0  0  0  0  0  0  0  0  0  0  0  0
  -21.8009   -9.7915   23.7962 C   0  0  0  0  0  0  0  0  0  0  0  0
  -25.4858  -14.2746   20.0371 C   0  0  0  0  0  0  0  0  0  0  0  0
  -24.6207  -16.9190   20.5248 C   0  0  0  0  0  0  0  0  0  0  0  0
  -21.8305  -11.2947   24.0599 C   0  0  0  0  0  0  0  0  0  0  0  0
  -22.6450  -25.1344   25.6485 C   0  0  0  0  0  0  0  0  0  0  0  0
  -21.2441  -12.0562   22.8754 C   0  0  0  0  0  0  0  0  0  0  0  0
  -22.4267  -26.4849   24.9625 C   0  0  0  0  0  0  0  0  0  0  0  0
  -24.1286  -24.7867   25.7570 C   0  0  0  0  0  0  0  0  0  0  0  0
  -24.6560  -26.1974   23.8074 C   0  0  0  0  0  0  0  0  0  0  0  0
  -22.0646  -11.8136   21.6028 C   0  0  1  0  0  0  0  0  0  0  0  0
  -24.6884  -14.5445   21.3257 C   0  0  1  0  0  0  0  0  0  0  0  0
  -23.1744  -26.5608   23.6168 C   0  0  2  0  0  0  0  0  0  0  0  0
  -29.3298  -20.9390   18.2598 C   0  0  2  0  0  0  0  0  0  0  0  0
  -28.7080  -22.3377   18.0156 C   0  0  2  0  0  0  0  0  0  0  0  0
  -28.6452  -24.2767   16.4393 C   0  0  0  0  0  0  0  0  0  0  0  0
  -23.4519  -19.8049   27.2820 C   0  0  0  0  0  0  0  0  0  0  0  0
  -32.1250  -19.1391   19.3071 C   0  0  0  0  0  0  0  0  0  0  0  0
  -32.8497  -21.4407   18.5834 C   0  0  0  0  0  0  0  0  0  0  0  0
  -23.0578  -18.2661   20.8518 C   0  0  0  0  0  0  0  0  0  0  0  0
  -22.7144  -19.9396   22.6821 C   0  0  0  0  0  0  0  0  0  0  0  0
  -21.4751  -17.7751   22.7248 C   0  0  0  0  0  0  0  0  0  0  0  0
  -26.2223  -17.2199   27.6266 C   0  0  0  0  0  0  0  0  0  0  0  0
  -28.2968  -19.9201   18.7632 C   0  0  0  0  0  0  0  0  0  1  0  0
  -29.2040  -22.9155   16.6880 C   0  0  0  0  0  0  0  0  0  0  0  0
  -23.9528  -17.7948   23.2273 C   0  0  1  0  0  0  0  0  0  0  0  0
  -24.2148  -18.5358   26.9356 C   0  0  2  0  0  0  0  0  0  0  0  0
  -31.7449  -20.3953   18.5367 C   0  0  0  0  0  0  0  0  0  0  0  0
  -22.8257  -18.4326   22.3669 C   0  0  0  0  0  0  0  0  0  0  0  0
  -23.9116  -28.8747   23.1878 N   0  0  0  0  0  0  0  0  0  0  0  0
  -23.0014  -27.9142   22.9531 N   0  0  0  0  0  0  0  0  0  0  0  0
  -30.5334  -20.9626   19.1164 N   0  0  0  0  0  0  0  0  0  0  0  0
  -24.4445  -15.9646   21.6305 N   0  0  0  0  0  0  0  0  0  0  0  0
  -24.7703  -24.8756   24.4436 N   0  0  0  0  0  0  0  0  0  0  0  0
  -21.0010  -27.4560   21.7702 N   0  0  0  0  0  0  0  0  0  0  0  0
  -21.7768  -30.4203   19.5332 N   0  0  0  0  0  0  0  0  0  0  0  0
  -25.9689  -23.9390   22.6412 N   0  0  0  0  0  0  0  0  0  0  0  0
  -23.2771  -12.6034   21.6251 N   0  0  0  0  0  0  0  0  0  0  0  0
  -23.7456  -17.9136   24.6665 N   0  0  0  0  0  0  0  0  0  0  0  0
  -25.3940  -18.4343   27.8413 N   0  3  0  0  0  0  0  0  0  0  0  0
  -31.5094  -21.2453   21.2180 O   0  0  0  0  0  0  0  0  0  0  0  0
  -20.5595  -31.1574   21.3314 O   0  0  0  0  0  0  0  0  0  0  0  0
  -22.3916  -14.5877   20.7880 O   0  0  0  0  0  0  0  0  0  0  0  0
  -23.9825  -15.5128   23.8651 O   0  0  0  0  0  0  0  0  0  0  0  0
  -25.7176  -19.0482   25.1146 O   0  0  0  0  0  0  0  0  0  0  0  0
  -25.4725  -22.6745   24.5217 O   0  0  0  0  0  0  0  0  0  0  0  0
  -29.0509  -23.3197   19.0040 O   0  0  0  0  0  0  0  0  0  0  0  0
  -26.2572  -34.7449   22.4225 O   0  0  0  0  0  0  0  0  0  0  0  0
  -28.7952  -18.6216   18.5105 O   0  0  0  0  0  0  0  0  0  1  0  0
  -25.8739  -37.9602   26.8855 F   0  0  0  0  0  0  0  0  0  0  0  0
  -25.2373  -37.3079   22.2406 F   0  0  0  0  0  0  0  0  0  0  0  0
  1  2  1  0  0  0  0
  1  6  2  0  0  0  0
  2  7  2  0  0  0  0
  3 10  2  0  0  0  0
  3 18  1  0  0  0  0
  4 11  1  0  0  0  0
  4 18  2  0  0  0  0
  5  9  2  0  0  0  0
  5 19  1  0  0  0  0
  6 21  1  0  0  0  0
  7 23  1  0  0  0  0
  8 12  2  0  0  0  0
  8 22  1  0  0  0  0
  9 25  1  0  0  0  0
 10 27  1  0  0  0  0
 11 27  2  0  0  0  0
 12 28  1  0  0  0  0
 13 14  2  0  0  0  0
 13 29  1  0  0  0  0
 14 30  1  0  0  0  0
 15 24  1  0  0  0  0
 15 28  2  0  0  0  0
 16 25  2  0  0  0  0
 16 26  1  0  0  0  0
 17 30  2  0  0  0  0
 17 31  1  0  0  0  0
 18 32  1  0  0  0  0
 19 26  2  0  0  0  0
 19 34  1  0  0  0  0
 20 32  1  0  0  0  0
 20 33  2  0  0  0  0
 20 35  1  0  0  0  0
 21 23  2  0  0  0  0
 21 40  1  0  0  0  0
 22 24  2  0  0  0  0
 22 41  1  0  0  0  0
 23 49  1  0  0  0  0
 24 42  1  0  0  0  0
 25 75  1  0  0  0  0
 26 85  1  0  0  0  0
 27 86  1  0  0  0  0
 28 87  1  0  0  0  0
 29 31  2  0  0  0  0
 29 86  1  0  0  0  0
 30 88  1  0  0  0  0
 31 89  1  0  0  0  0
 32 68  2  0  0  0  0
 33 69  1  0  0  0  0
 33 73  1  0  0  0  0
 34 70  1  0  0  0  0
 34 79  2  0  0  0  0
 35 74  1  0  0  0  0
 35 80  2  0  0  0  0
 36 50  1  0  0  0  0
 36 76  1  0  0  0  0
 36 81  2  0  0  0  0
 37 64  1  0  0  0  0
 37 71  1  0  0  0  0
 37 82  2  0  0  0  0
 38 65  1  0  0  0  0
 38 77  1  0  0  0  0
 38 83  2  0  0  0  0
 39 72  1  0  0  0  0
 39 75  1  0  0  0  0
 39 84  2  0  0  0  0
 40 43  1  0  0  0  0
 41 50  1  0  0  0  0
 42 71  1  0  0  0  0
 43 45  1  0  0  0  0
 44 46  1  0  0  0  0
 44 47  1  0  0  0  0
 45 49  1  0  0  0  0
 46 51  1  0  0  0  0
 47 72  1  0  0  0  0
 48 51  1  0  0  0  0
 48 72  1  0  0  0  0
 49 76  1  0  0  0  0
 50 71  1  0  0  0  0
 51 69  1  0  0  0  0
 52 53  1  0  0  0  0
 52 62  1  0  0  0  0
 52 70  1  0  0  0  0
 53 63  1  0  0  0  0
 53 85  1  0  0  0  0
 54 63  1  0  0  0  0
 55 65  1  0  0  0  0
 56 66  1  0  0  0  0
 57 66  1  0  0  0  0
 58 67  1  0  0  0  0
 59 67  1  0  0  0  0
 60 67  1  0  0  0  0
 61 78  1  0  0  0  0
 62 87  1  0  0  0  0
 64 67  1  0  0  0  0
 64 77  1  0  0  0  0
 65 78  1  0  0  0  0
 66 70  1  0  0  0  0
 68 69  1  0  0  0  0
M  CHG  1  78   1
M  ISO  4  39 100  62 101  75 100  87 101
M  END
> <Batch ID>
0151

> <Smiles>
CCC1Oc2cc([100NH:0][100C:0](=O)N3CCCC(n4nc(-c5ccc(Oc6ccc(F)cc6F)cc5)c(C(N)=O)c4N)C3)ccc2C(=O)N(C(C)C)C1[101CH2:1][101O:1]c1ccc2c(c1)CN(C(=O)C(NC(=O)C(C)NC)C(C)(C)C)C(C(=O)NC1CCCc3ccccc31)C2

> <Shape>
0.225

> <Color>
0.083

> <Negative vol penalty>
0.000

$$$$

  -OEChem-04052321433D

 86 95  0     1  0  0  0  0  0999 V2000
  -29.0202  -27.9310   22.3571 C   0  0  0  0  0  0  0  0  0  0  0  0
  -28.2214  -26.7944   22.2820 C   0  0  0  0  0  0  0  0  0  0  0  0
  -23.0713   -9.8715   19.9540 C   0  0  0  0  0  0  0  0  0  0  0  0
  -23.8381   -9.8884   22.2450 C   0  0  0  0  0  0  0  0  0  0  0  0
  -29.7992  -28.1604   23.4904 C   0  0  0  0  0  0  0  0  0  0  0  0
  -28.2021  -25.8860   23.3397 C   0  0  0  0  0  0  0  0  0  0  0  0
  -23.5128  -24.3907   24.5309 C   0  0  0  0  0  0  0  0  0  0  0  0
  -22.3242   -8.7223   20.2124 C   0  0  0  0  0  0  0  0  0  0  0  0
  -23.0909   -8.7392   22.5035 C   0  0  0  0  0  0  0  0  0  0  0  0
  -22.9212  -23.4335   23.7077 C   0  0  0  0  0  0  0  0  0  0  0  0
  -19.9301   -5.9910   20.3628 C   0  0  0  0  0  0  0  0  0  0  0  0
  -18.6228   -5.9448   19.8786 C   0  0  0  0  0  0  0  0  0  0  0  0
  -23.4773  -21.7193   25.3112 C   0  0  0  0  0  0  0  0  0  0  0  0
  -26.8715  -18.4916   20.1270 C   0  0  0  0  0  0  0  0  0  0  0  0
  -27.5583  -19.5830   22.1701 C   0  0  0  0  0  0  0  0  0  0  0  0
  -18.0682   -7.8968   21.1899 C   0  0  0  0  0  0  0  0  0  0  0  0
  -23.8283  -10.4545   20.9703 C   0  0  0  0  0  0  0  0  0  0  0  0
  -24.1784  -12.9778   20.8355 C   0  0  0  0  0  0  0  0  0  0  0  0
  -29.7820  -27.2593   24.5667 C   0  0  0  0  0  0  0  0  0  0  0  0
  -24.1017  -24.0171   25.7475 C   0  0  0  0  0  0  0  0  0  0  0  0
  -28.9827  -26.1029   24.4879 C   0  0  0  0  0  0  0  0  0  0  0  0
  -24.0734  -22.6740   26.1493 C   0  0  0  0  0  0  0  0  0  0  0  0
  -25.2881  -19.8198   21.3782 C   0  0  0  0  0  0  0  0  0  0  0  0
  -25.5870  -19.0133   20.2801 C   0  0  0  0  0  0  0  0  0  0  0  0
  -22.3340   -8.1562   21.4872 C   0  0  0  0  0  0  0  0  0  0  0  0
  -22.9060  -22.0972   24.0964 C   0  0  0  0  0  0  0  0  0  0  0  0
  -20.3065   -6.9900   21.2606 C   0  0  0  0  0  0  0  0  0  0  0  0
  -27.8572  -18.7764   21.0721 C   0  0  0  0  0  0  0  0  0  0  0  0
  -26.2737  -20.1047   22.3232 C   0  0  0  0  0  0  0  0  0  0  0  0
  -17.6919   -6.8977   20.2922 C   0  0  0  0  0  0  0  0  0  0  0  0
  -19.3756   -7.9429   21.6741 C   0  0  0  0  0  0  0  0  0  0  0  0
  -24.6007  -11.6413   20.7038 C   0  0  0  0  0  0  0  0  0  0  0  0
  -25.2721  -13.7215   20.4649 C   0  0  0  0  0  0  0  0  0  0  0  0
  -22.9110  -13.5003   21.2554 C   0  0  0  0  0  0  0  0  0  0  0  0
  -27.0403  -24.1511   26.9518 C   0  0  0  0  0  0  0  0  0  0  0  0
  -25.5643  -23.1063   29.6448 C   0  0  0  0  0  0  0  0  0  0  0  0
  -22.9151  -21.4781   31.0509 C   0  0  0  0  0  0  0  0  0  0  0  0
  -30.7598  -14.7226   20.6314 C   0  0  0  0  0  0  0  0  0  0  0  0
  -30.6772  -27.5257   25.7509 C   0  0  0  0  0  0  0  0  0  0  0  0
  -24.7120  -25.0655   26.6367 C   0  0  0  0  0  0  0  0  0  0  0  0
  -24.6739  -22.2241   27.4552 C   0  0  0  0  0  0  0  0  0  0  0  0
  -30.3139  -26.7054   26.9859 C   0  0  0  0  0  0  0  0  0  0  0  0
  -29.6069  -12.3291   18.2611 C   0  0  0  0  0  0  0  0  0  0  0  0
  -30.0844  -25.2454   26.6084 C   0  0  0  0  0  0  0  0  0  0  0  0
  -28.1698  -12.0427   18.6999 C   0  0  0  0  0  0  0  0  0  0  0  0
  -22.7378  -19.4428   21.5514 C   0  0  0  0  0  0  0  0  0  0  0  0
  -30.5284  -12.5533   19.4580 C   0  0  0  0  0  0  0  0  0  0  0  0
  -28.6333  -13.2985   20.8462 C   0  0  0  0  0  0  0  0  0  0  0  0
  -23.9249  -20.3775   21.5460 C   0  0  1  0  0  0  0  0  0  0  0  0
  -28.9158  -25.1068   25.6252 C   0  0  1  0  0  0  0  0  0  0  0  0
  -25.7367  -24.4974   27.6139 C   0  0  1  0  0  0  0  0  0  0  0  0
  -27.6550  -13.1208   19.6725 C   0  0  2  0  0  0  0  0  0  0  0  0
  -23.1660  -20.1036   22.8260 C   0  0  1  0  0  0  0  0  0  1  0  0
  -24.5507  -18.6933   19.2529 C   0  0  0  0  0  0  0  0  0  0  0  0
  -22.0054  -20.7482   33.2729 C   0  0  0  0  0  0  0  0  0  0  0  0
  -27.6011  -20.8361   29.7302 C   0  0  0  0  0  0  0  0  0  0  0  0
  -26.1050  -19.6479   31.3482 C   0  0  0  0  0  0  0  0  0  0  0  0
  -27.0865  -21.8600   31.9530 C   0  0  0  0  0  0  0  0  0  0  0  0
  -20.4701  -23.1121   30.7173 C   0  0  0  0  0  0  0  0  0  0  0  0
  -27.0700  -21.1285   24.3166 C   0  0  0  0  0  0  0  0  0  0  0  0
  -30.8368  -16.8796   21.8564 C   0  0  0  0  0  0  0  0  0  0  0  0
  -29.8525  -18.0069   22.1124 C   0  0  0  0  0  0  0  0  0  0  0  0
  -25.2398  -21.7530   30.2296 C   0  0  1  0  0  0  0  0  0  0  0  0
  -22.0124  -21.8417   32.2160 C   0  0  2  0  0  0  0  0  0  0  0  0
  -26.4984  -21.0321   30.7897 C   0  0  0  0  0  0  0  0  0  0  0  0
  -25.8640  -11.5389   20.2823 N   0  0  0  0  0  0  0  0  0  0  0  0
  -26.2449  -12.8204   20.1458 N   0  0  0  0  0  0  0  0  0  0  0  0
  -25.2645  -23.2857   28.2870 N   0  0  0  0  0  0  0  0  0  0  0  0
  -29.9840  -13.5885   20.3400 N   0  0  0  0  0  0  0  0  0  0  0  0
  -25.4868  -15.0518   20.3840 N   0  0  0  0  0  0  0  0  0  0  0  0
  -21.8970  -12.5964   21.6006 N   0  0  0  0  0  0  0  0  0  0  0  0
  -27.6526  -25.2182   26.3226 N   0  0  0  0  0  0  0  0  0  0  0  0
  -24.1899  -21.9763   31.2177 N   0  0  0  0  0  0  0  0  0  0  0  0
  -30.1664  -15.6581   21.4702 N   0  0  0  0  0  0  0  0  0  0  0  0
  -20.6141  -22.0475   31.7434 N   0  3  0  0  0  0  0  0  0  0  0  0
  -22.6791  -14.7320   21.3067 O   0  0  0  0  0  0  0  0  0  0  0  0
  -27.4602  -23.0013   27.0088 O   0  0  0  0  0  0  0  0  0  0  0  0
  -26.0588  -23.9748   30.3679 O   0  0  0  0  0  0  0  0  0  0  0  0
  -22.5290  -20.8151   30.0908 O   0  0  0  0  0  0  0  0  0  0  0  0
  -31.8950  -14.8917   20.1735 O   0  0  0  0  0  0  0  0  0  0  0  0
  -21.6049   -7.0349   21.7398 O   0  0  0  0  0  0  0  0  0  0  0  0
  -22.3299  -21.1609   23.2944 O   0  0  0  0  0  0  0  0  0  1  0  0
  -26.0016  -20.8910   23.4025 O   0  0  0  0  0  0  0  0  0  0  0  0
  -29.1107  -18.2678   20.9219 O   0  0  0  0  0  0  0  0  0  0  0  0
  -16.4369   -6.8542   19.8259 F   0  0  0  0  0  0  0  0  0  0  0  0
  -19.7316   -8.9057   22.5355 F   0  0  0  0  0  0  0  0  0  0  0  0
  1  2  1  0  0  0  0
  1  5  2  0  0  0  0
  2  6  2  0  0  0  0
  3  8  2  0  0  0  0
  3 17  1  0  0  0  0
  4  9  1  0  0  0  0
  4 17  2  0  0  0  0
  5 19  1  0  0  0  0
  6 21  1  0  0  0  0
  7 10  2  0  0  0  0
  7 20  1  0  0  0  0
  8 25  1  0  0  0  0
  9 25  2  0  0  0  0
 10 26  1  0  0  0  0
 11 12  2  0  0  0  0
 11 27  1  0  0  0  0
 12 30  1  0  0  0  0
 13 22  1  0  0  0  0
 13 26  2  0  0  0  0
 14 24  2  0  0  0  0
 14 28  1  0  0  0  0
 15 28  2  0  0  0  0
 15 29  1  0  0  0  0
 16 30  2  0  0  0  0
 16 31  1  0  0  0  0
 17 32  1  0  0  0  0
 18 32  1  0  0  0  0
 18 33  2  0  0  0  0
 18 34  1  0  0  0  0
 19 21  2  0  0  0  0
 19 39  1  0  0  0  0
 20 22  2  0  0  0  0
 20 40  1  0  0  0  0
 21 50  1  0  0  0  0
 22 41  1  0  0  0  0
 23 24  1  0  0  0  0
 23 29  2  0  0  0  0
 23 49  1  0  0  0  0
 24 54  1  0  0  0  0
 25 81  1  0  0  0  0
 26 82  1  0  0  0  0
 27 31  2  0  0  0  0
 27 81  1  0  0  0  0
 28 84  1  0  0  0  0
 29 83  1  0  0  0  0
 30 85  1  0  0  0  0
 31 86  1  0  0  0  0
 32 66  2  0  0  0  0
 33 67  1  0  0  0  0
 33 70  1  0  0  0  0
 34 71  1  0  0  0  0
 34 76  2  0  0  0  0
 35 51  1  0  0  0  0
 35 72  1  0  0  0  0
 35 77  2  0  0  0  0
 36 63  1  0  0  0  0
 36 68  1  0  0  0  0
 36 78  2  0  0  0  0
 37 64  1  0  0  0  0
 37 73  1  0  0  0  0
 37 79  2  0  0  0  0
 38 69  1  0  0  0  0
 38 74  1  0  0  0  0
 38 80  2  0  0  0  0
 39 42  1  0  0  0  0
 40 51  1  0  0  0  0
 41 68  1  0  0  0  0
 42 44  1  0  0  0  0
 43 45  1  0  0  0  0
 43 47  1  0  0  0  0
 44 50  1  0  0  0  0
 45 52  1  0  0  0  0
 46 49  1  0  0  0  0
 46 53  1  0  0  0  0
 47 69  1  0  0  0  0
 48 52  1  0  0  0  0
 48 69  1  0  0  0  0
 49 53  1  0  0  0  0
 50 72  1  0  0  0  0
 51 68  1  0  0  0  0
 52 67  1  0  0  0  0
 53 82  1  0  0  0  0
 55 64  1  0  0  0  0
 56 65  1  0  0  0  0
 57 65  1  0  0  0  0
 58 65  1  0  0  0  0
 59 75  1  0  0  0  0
 60 83  1  0  0  0  0
 61 62  1  0  0  0  0
 61 74  1  0  0  0  0
 62 84  1  0  0  0  0
 63 65  1  0  0  0  0
 63 73  1  0  0  0  0
 64 75  1  0  0  0  0
 66 67  1  0  0  0  0
M  CHG  1  75   1
M  ISO  4  38 100  53 101  74 100  82 101
M  END
> <Batch ID>
0151

> <Smiles>
CNC(C)C(=O)NC(C(=O)N1Cc2cc([101O:1][101CH:1]3CC3c3c(C)cc(OCC[100NH:0][100C:0](=O)N4CCCC(n5nc(-c6ccc(Oc7ccc(F)cc7F)cc6)c(C(N)=O)c5N)C4)cc3OC)ccc2CC1C(=O)NC1CCCc2ccccc21)C(C)(C)C

> <Shape>
0.162

> <Color>
0.193

> <Negative vol penalty>
0.000

$$$$

  -OEChem-04052321433D

 87 96  0     1  0  0  0  0  0999 V2000
  -29.8216  -31.9051   26.6111 C   0  0  0  0  0  0  0  0  0  0  0  0
  -29.1627  -30.8861   25.9309 C   0  0  0  0  0  0  0  0  0  0  0  0
  -24.6952   -8.4929   20.7203 C   0  0  0  0  0  0  0  0  0  0  0  0
  -22.9760  -10.1260   20.2571 C   0  0  0  0  0  0  0  0  0  0  0  0
  -29.1532  -33.0938   26.9013 C   0  0  0  0  0  0  0  0  0  0  0  0
  -27.8344  -31.0547   25.5414 C   0  0  0  0  0  0  0  0  0  0  0  0
  -26.9923  -29.5146   20.7912 C   0  0  0  0  0  0  0  0  0  0  0  0
  -23.7198   -7.5797   21.1208 C   0  0  0  0  0  0  0  0  0  0  0  0
  -22.0006   -9.2128   20.6576 C   0  0  0  0  0  0  0  0  0  0  0  0
  -26.8729  -28.1419   20.5787 C   0  0  0  0  0  0  0  0  0  0  0  0
  -21.8142   -7.0096   23.8536 C   0  0  0  0  0  0  0  0  0  0  0  0
  -22.0427   -6.2916   25.0275 C   0  0  0  0  0  0  0  0  0  0  0  0
  -24.4710  -28.3630   20.5400 C   0  0  0  0  0  0  0  0  0  0  0  0
  -26.5609  -23.5104   18.6319 C   0  0  0  0  0  0  0  0  0  0  0  0
  -21.9357   -4.2234   23.7832 C   0  0  0  0  0  0  0  0  0  0  0  0
  -24.3233   -9.7661   20.2885 C   0  0  0  0  0  0  0  0  0  0  0  0
  -25.8481  -10.8874   18.5782 C   0  0  0  0  0  0  0  0  0  0  0  0
  -27.8190  -33.2808   26.5067 C   0  0  0  0  0  0  0  0  0  0  0  0
  -25.8498  -30.3215   20.8908 C   0  0  0  0  0  0  0  0  0  0  0  0
  -27.1471  -32.2465   25.8277 C   0  0  0  0  0  0  0  0  0  0  0  0
  -24.5788  -29.7461   20.7512 C   0  0  0  0  0  0  0  0  0  0  0  0
  -26.2547  -22.1755   18.3678 C   0  0  0  0  0  0  0  0  0  0  0  0
  -26.3624  -24.0318   19.9103 C   0  0  0  0  0  0  0  0  0  0  0  0
  -25.8576  -23.2183   20.9247 C   0  0  0  0  0  0  0  0  0  0  0  0
  -25.5513  -21.8833   20.6606 C   0  0  0  0  0  0  0  0  0  0  0  0
  -25.7499  -21.3619   19.3822 C   0  0  0  0  0  0  0  0  0  0  0  0
  -22.3726   -7.9397   21.0894 C   0  0  0  0  0  0  0  0  0  0  0  0
  -25.6120  -27.5654   20.4559 C   0  0  0  0  0  0  0  0  0  0  0  0
  -21.6464   -6.3345   22.6446 C   0  0  0  0  0  0  0  0  0  0  0  0
  -22.1034   -4.8985   24.9923 C   0  0  0  0  0  0  0  0  0  0  0  0
  -21.7072   -4.9414   22.6094 C   0  0  0  0  0  0  0  0  0  0  0  0
  -25.3304  -10.7100   19.8752 C   0  0  0  0  0  0  0  0  0  0  0  0
  -26.7700  -11.8968   18.7115 C   0  0  0  0  0  0  0  0  0  0  0  0
  -25.5246  -10.2011   17.3616 C   0  0  0  0  0  0  0  0  0  0  0  0
  -28.1523  -16.9189   20.7566 C   0  0  0  0  0  0  0  0  0  0  0  0
  -24.5941  -32.1618   23.1579 C   0  0  0  0  0  0  0  0  0  0  0  0
  -22.5033  -32.9582   20.8091 C   0  0  0  0  0  0  0  0  0  0  0  0
  -20.9852  -32.1115   17.8722 C   0  0  0  0  0  0  0  0  0  0  0  0
  -27.1235  -34.5646   26.8844 C   0  0  0  0  0  0  0  0  0  0  0  0
  -25.9964  -31.8047   21.0935 C   0  0  0  0  0  0  0  0  0  0  0  0
  -23.3215  -30.5717   20.8302 C   0  0  0  0  0  0  0  0  0  0  0  0
  -25.8326  -34.8095   26.1071 C   0  0  0  0  0  0  0  0  0  0  0  0
  -28.7349  -14.0516   22.8354 C   0  0  0  0  0  0  0  0  0  0  0  0
  -24.9798  -33.5451   26.0768 C   0  0  0  0  0  0  0  0  0  0  0  0
  -27.9174  -12.9497   22.1623 C   0  0  0  0  0  0  0  0  0  0  0  0
  -28.3018  -16.1815   18.3041 C   0  0  0  0  0  0  0  0  0  0  0  0
  -28.9243  -17.5417   18.3912 C   0  0  0  0  0  0  0  0  0  0  0  0
  -28.0486  -15.4086   22.7150 C   0  0  0  0  0  0  0  0  0  0  0  0
  -26.9110  -14.7023   20.6321 C   0  0  0  0  0  0  0  0  0  0  0  0
  -25.7140  -32.4013   25.3668 C   0  0  1  0  0  0  0  0  0  0  0  0
  -24.7513  -32.4519   21.6920 C   0  0  1  0  0  0  0  0  0  0  0  0
  -27.5839  -13.3203   20.7062 C   0  0  2  0  0  0  0  0  0  0  0  0
  -27.7924  -17.1743   19.3286 C   0  0  0  0  0  0  0  0  0  0  0  0
  -26.4760  -21.6422   16.9902 C   0  0  0  0  0  0  0  0  0  0  0  0
  -25.6450  -23.7803   22.2947 C   0  0  0  0  0  0  0  0  0  0  0  0
  -25.0104  -21.0104   21.7489 C   0  0  0  0  0  0  0  0  0  0  0  0
  -19.2951  -32.9468   16.2160 C   0  0  0  0  0  0  0  0  0  0  0  0
  -25.3158  -16.9873   19.6140 C   0  0  0  0  0  0  0  0  0  0  0  0
  -20.2539  -32.2029   22.7274 C   0  0  0  0  0  0  0  0  0  0  0  0
  -18.6978  -32.1392   20.7671 C   0  0  0  0  0  0  0  0  0  0  0  0
  -19.8320  -34.2724   21.3881 C   0  0  0  0  0  0  0  0  0  0  0  0
  -22.9801  -32.1619   15.6866 C   0  0  0  0  0  0  0  0  0  0  0  0
  -26.7007  -25.4707   20.1681 C   0  0  0  0  0  0  0  0  0  1  0  0
  -25.4224  -19.9304   19.0963 C   0  0  0  0  0  0  0  0  0  0  0  0
  -21.1799  -32.4153   20.3266 C   0  0  1  0  0  0  0  0  0  0  0  0
  -20.7685  -32.8924   16.5886 C   0  0  2  0  0  0  0  0  0  0  0  0
  -26.4375  -17.8112   19.0597 C   0  0  1  0  0  0  0  0  0  0  0  0
  -20.0143  -32.7413   21.3027 C   0  0  0  0  0  0  0  0  0  0  0  0
  -25.8780  -11.5401   20.7670 N   0  0  0  0  0  0  0  0  0  0  0  0
  -26.7494  -12.2487   20.0291 N   0  0  0  0  0  0  0  0  0  0  0  0
  -27.7236  -15.7133   21.3212 N   0  0  0  0  0  0  0  0  0  0  0  0
  -23.5169  -32.0163   21.0358 N   0  0  0  0  0  0  0  0  0  0  0  0
  -27.5881  -12.5087   17.8291 N   0  0  0  0  0  0  0  0  0  0  0  0
  -24.5545   -9.1904   17.4023 N   0  0  0  0  0  0  0  0  0  0  0  0
  -25.6599  -32.5798   23.9317 N   0  0  0  0  0  0  0  0  0  0  0  0
  -20.9925  -32.9366   18.9770 N   0  0  0  0  0  0  0  0  0  0  0  0
  -21.5144  -32.2590   15.4647 N   0  3  0  0  0  0  0  0  0  0  0  0
  -26.0912  -10.4648   16.2740 O   0  0  0  0  0  0  0  0  0  0  0  0
  -28.8017  -17.7775   21.3479 O   0  0  0  0  0  0  0  0  0  0  0  0
  -23.5800  -31.6017   23.5576 O   0  0  0  0  0  0  0  0  0  0  0  0
  -22.6352  -34.1738   20.9718 O   0  0  0  0  0  0  0  0  0  0  0  0
  -21.1296  -30.8912   17.8931 O   0  0  0  0  0  0  0  0  0  0  0  0
  -21.4205   -7.0488   21.4799 O   0  0  0  0  0  0  0  0  0  0  0  0
  -25.4925  -26.2257   20.2491 O   0  0  0  0  0  0  0  0  0  1  0  0
  -26.4268  -19.0991   19.6609 O   0  0  0  0  0  0  0  0  0  0  0  0
  -22.3244   -4.2093   26.1193 F   0  0  0  0  0  0  0  0  0  0  0  0
  -21.5480   -4.2873   21.4507 F   0  0  0  0  0  0  0  0  0  0  0  0
  1  2  1  0  0  0  0
  1  5  2  0  0  0  0
  2  6  2  0  0  0  0
  3  8  2  0  0  0  0
  3 16  1  0  0  0  0
  4  9  1  0  0  0  0
  4 16  2  0  0  0  0
  5 18  1  0  0  0  0
  6 20  1  0  0  0  0
  7 10  2  0  0  0  0
  7 19  1  0  0  0  0
  8 27  1  0  0  0  0
  9 27  2  0  0  0  0
 10 28  1  0  0  0  0
 11 12  2  0  0  0  0
 11 29  1  0  0  0  0
 12 30  1  0  0  0  0
 13 21  1  0  0  0  0
 13 28  2  0  0  0  0
 14 22  2  0  0  0  0
 14 23  1  0  0  0  0
 15 30  2  0  0  0  0
 15 31  1  0  0  0  0
 16 32  1  0  0  0  0
 17 32  1  0  0  0  0
 17 33  2  0  0  0  0
 17 34  1  0  0  0  0
 18 20  2  0  0  0  0
 18 39  1  0  0  0  0
 19 21  2  0  0  0  0
 19 40  1  0  0  0  0
 20 50  1  0  0  0  0
 21 41  1  0  0  0  0
 22 26  1  0  0  0  0
 22 54  1  0  0  0  0
 23 24  2  0  0  0  0
 23 63  1  0  0  0  0
 24 25  1  0  0  0  0
 24 55  1  0  0  0  0
 25 26  2  0  0  0  0
 25 56  1  0  0  0  0
 26 64  1  0  0  0  0
 27 83  1  0  0  0  0
 28 84  1  0  0  0  0
 29 31  2  0  0  0  0
 29 83  1  0  0  0  0
 30 86  1  0  0  0  0
 31 87  1  0  0  0  0
 32 69  2  0  0  0  0
 33 70  1  0  0  0  0
 33 73  1  0  0  0  0
 34 74  1  0  0  0  0
 34 78  2  0  0  0  0
 35 53  1  0  0  0  0
 35 71  1  0  0  0  0
 35 79  2  0  0  0  0
 36 51  1  0  0  0  0
 36 75  1  0  0  0  0
 36 80  2  0  0  0  0
 37 65  1  0  0  0  0
 37 72  1  0  0  0  0
 37 81  2  0  0  0  0
 38 66  1  0  0  0  0
 38 76  1  0  0  0  0
 38 82  2  0  0  0  0
 39 42  1  0  0  0  0
 40 51  1  0  0  0  0
 41 72  1  0  0  0  0
 42 44  1  0  0  0  0
 43 45  1  0  0  0  0
 43 48  1  0  0  0  0
 44 50  1  0  0  0  0
 45 52  1  0  0  0  0
 46 47  1  0  0  0  0
 46 53  1  0  0  0  0
 47 53  1  0  0  0  0
 48 71  1  0  0  0  0
 49 52  1  0  0  0  0
 49 71  1  0  0  0  0
 50 75  1  0  0  0  0
 51 72  1  0  0  0  0
 52 70  1  0  0  0  0
 53 67  1  0  0  0  0
 57 66  1  0  0  0  0
 58 67  1  0  0  0  0
 59 68  1  0  0  0  0
 60 68  1  0  0  0  0
 61 68  1  0  0  0  0
 62 77  1  0  0  0  0
 63 84  1  0  0  0  0
 64 85  1  0  0  0  0
 65 68  1  0  0  0  0
 65 76  1  0  0  0  0
 66 77  1  0  0  0  0
 67 85  1  0  0  0  0
 69 70  1  0  0  0  0
M  CHG  1  77   1
M  ISO  4  35 100  53 100  63 101  84 101
M  END
> <Batch ID>
0151

> <Smiles>
CNC(C)C(=O)NC(C(=O)N1Cc2cc([101O:1][101CH2:1]c3cc(C)c(COC(C)[100C:0]4([100C:0](=O)N5CCCC(n6nc(-c7ccc(Oc8ccc(F)cc8F)cc7)c(C(N)=O)c6N)C5)CC4)c(C)c3C)ccc2CC1C(=O)NC1CCCc2ccccc21)C(C)(C)C

> <Shape>
0.249

> <Color>
0.103

> <Negative vol penalty>
0.000

$$$$

  -OEChem-04052321433D

 93103  0     1  0  0  0  0  0999 V2000
  -18.6768  -25.2670   20.4260 C   0  0  0  0  0  0  0  0  0  0  0  0
  -19.9974  -25.4573   20.0322 C   0  0  0  0  0  0  0  0  0  0  0  0
  -22.2044  -14.6861   19.3644 C   0  0  0  0  0  0  0  0  0  0  0  0
  -22.5871  -15.3612   21.6524 C   0  0  0  0  0  0  0  0  0  0  0  0
  -17.9230  -26.3486   20.8797 C   0  0  0  0  0  0  0  0  0  0  0  0
  -20.5648  -26.7298   20.0908 C   0  0  0  0  0  0  0  0  0  0  0  0
  -25.2200  -26.6913   22.0840 C   0  0  0  0  0  0  0  0  0  0  0  0
  -21.0646  -15.4888   19.3181 C   0  0  0  0  0  0  0  0  0  0  0  0
  -21.4473  -16.1640   21.6061 C   0  0  0  0  0  0  0  0  0  0  0  0
  -26.2625  -26.2724   21.2586 C   0  0  0  0  0  0  0  0  0  0  0  0
  -20.5854  -19.1950   20.3853 C   0  0  0  0  0  0  0  0  0  0  0  0
  -20.6802  -20.4833   20.9114 C   0  0  0  0  0  0  0  0  0  0  0  0
  -28.5008  -20.7294   18.2090 C   0  0  0  0  0  0  0  0  0  0  0  0
  -26.8569  -28.5745   20.8509 C   0  0  0  0  0  0  0  0  0  0  0  0
  -30.5425  -19.9277   16.4852 C   0  0  0  0  0  0  0  0  0  0  0  0
  -18.9372  -19.9623   22.5012 C   0  0  0  0  0  0  0  0  0  0  0  0
  -22.9656  -14.6222   20.5315 C   0  0  0  0  0  0  0  0  0  0  0  0
  -24.2097  -12.3998   20.3881 C   0  0  0  0  0  0  0  0  0  0  0  0
  -18.4844  -27.6332   20.9530 C   0  0  0  0  0  0  0  0  0  0  0  0
  -24.9808  -28.0575   22.2907 C   0  0  0  0  0  0  0  0  0  0  0  0
  -19.8174  -27.8299   20.5446 C   0  0  0  0  0  0  0  0  0  0  0  0
  -29.3341  -21.6827   17.6239 C   0  0  0  0  0  0  0  0  0  0  0  0
  -25.8122  -29.0082   21.6814 C   0  0  0  0  0  0  0  0  0  0  0  0
  -28.6884  -19.3752   17.9322 C   0  0  0  0  0  0  0  0  0  0  0  0
  -30.3550  -21.2819   16.7621 C   0  0  0  0  0  0  0  0  0  0  0  0
  -20.6861  -16.2278   20.4389 C   0  0  0  0  0  0  0  0  0  0  0  0
  -27.0794  -27.2140   20.6396 C   0  0  0  0  0  0  0  0  0  0  0  0
  -19.6665  -18.2903   20.9170 C   0  0  0  0  0  0  0  0  0  0  0  0
  -29.7092  -18.9743   17.0704 C   0  0  0  0  0  0  0  0  0  0  0  0
  -19.8561  -20.8670   21.9694 C   0  0  0  0  0  0  0  0  0  0  0  0
  -18.8424  -18.6740   21.9750 C   0  0  0  0  0  0  0  0  0  0  0  0
  -24.1428  -13.7928   20.5801 C   0  0  0  0  0  0  0  0  0  0  0  0
  -25.5412  -12.0965   20.5348 C   0  0  0  0  0  0  0  0  0  0  0  0
  -23.1619  -11.4637   20.1026 C   0  0  0  0  0  0  0  0  0  0  0  0
  -22.5577  -30.0262   21.6934 C   0  0  0  0  0  0  0  0  0  0  0  0
  -24.3819  -32.1440   23.3395 C   0  0  0  0  0  0  0  0  0  0  0  0
  -27.4867  -33.0823   24.4009 C   0  0  0  0  0  0  0  0  0  0  0  0
  -30.5533  -15.2953   19.8296 C   0  0  0  0  0  0  0  0  0  0  0  0
  -17.6158  -28.7802   21.4054 C   0  0  0  0  0  0  0  0  0  0  0  0
  -23.8688  -28.4927   23.2052 C   0  0  0  0  0  0  0  0  0  0  0  0
  -25.6101  -30.4864   21.8871 C   0  0  0  0  0  0  0  0  0  0  0  0
  -18.4066  -30.0277   21.7911 C   0  0  0  0  0  0  0  0  0  0  0  0
  -29.4975  -13.5910   22.7720 C   0  0  0  0  0  0  0  0  0  0  0  0
  -29.9738  -23.6164   19.1282 C   0  0  0  0  0  0  0  0  0  0  0  0
  -27.6248  -23.4654   18.1804 C   0  0  0  0  0  0  0  0  0  0  0  0
  -19.4642  -30.3367   20.7363 C   0  0  0  0  0  0  0  0  0  0  0  0
  -28.0115  -13.3238   22.5265 C   0  0  0  0  0  0  0  0  0  0  0  0
  -24.8157  -18.6423   16.1510 C   0  0  0  0  0  0  0  0  0  0  0  0
  -26.1890  -19.0430   15.6919 C   0  0  0  0  0  0  0  0  0  0  0  0
  -29.7487  -25.0951   19.4333 C   0  0  0  0  0  0  0  0  0  0  0  0
  -27.4122  -24.9450   18.4899 C   0  0  0  0  0  0  0  0  0  0  0  0
  -29.9303  -14.9394   22.2006 C   0  0  0  0  0  0  0  0  0  0  0  0
  -28.1187  -14.8746   20.5310 C   0  0  0  0  0  0  0  0  0  0  0  0
  -29.1122  -23.1503   17.9411 C   0  0  0  0  0  0  0  0  0  0  0  0
  -20.4759  -29.1905   20.6171 C   0  0  1  0  0  0  0  0  0  0  0  0
  -23.3964  -29.9180   22.9354 C   0  0  1  0  0  0  0  0  0  0  0  0
  -27.6478  -13.5015   21.0401 C   0  0  2  0  0  0  0  0  0  0  0  0
  -26.0298  -18.0716   16.8265 C   0  0  0  0  0  0  0  0  0  0  0  0
  -28.2710  -25.4049   19.6655 C   0  0  0  0  0  0  0  0  0  1  0  0
  -31.2598  -22.2840   16.1237 C   0  0  0  0  0  0  0  0  0  0  0  0
  -28.6661  -34.8788   25.6967 C   0  0  0  0  0  0  0  0  0  0  0  0
  -24.1166  -34.0327   20.9578 C   0  0  0  0  0  0  0  0  0  0  0  0
  -26.0363  -35.3504   21.8778 C   0  0  0  0  0  0  0  0  0  0  0  0
  -23.9271  -35.1390   23.1927 C   0  0  0  0  0  0  0  0  0  0  0  0
  -28.4589  -31.1491   26.4199 C   0  0  0  0  0  0  0  0  0  0  0  0
  -25.4249  -17.9541   19.2391 C   0  0  0  0  0  0  0  0  0  0  0  0
  -27.7864  -18.3683   18.5665 C   0  0  0  0  0  0  0  0  0  0  0  0
  -31.0223  -15.6199   17.4143 C   0  0  0  0  0  0  0  0  0  0  0  0
  -31.1766  -17.1039   17.1331 C   0  0  0  0  0  0  0  0  0  0  0  0
  -25.4576  -33.1384   22.9748 C   0  0  1  0  0  0  0  0  0  0  0  0
  -27.9975  -33.5145   25.7635 C   0  0  2  0  0  0  0  0  0  0  0  0
  -24.8872  -34.3874   22.2452 C   0  0  0  0  0  0  0  0  0  0  0  0
  -25.3368  -14.3368   20.8299 N   0  0  0  0  0  0  0  0  0  0  0  0
  -26.1665  -13.2801   20.7959 N   0  0  0  0  0  0  0  0  0  0  0  0
  -24.5056  -30.8621   22.7851 N   0  0  0  0  0  0  0  0  0  0  0  0
  -29.5576  -15.0434   20.7878 N   0  0  0  0  0  0  0  0  0  0  0  0
  -26.2264  -10.9355   20.4647 N   0  0  0  0  0  0  0  0  0  0  0  0
  -22.5007  -10.8527   21.1768 N   0  0  0  0  0  0  0  0  0  0  0  0
  -21.4235  -29.2370   21.7100 N   0  0  0  0  0  0  0  0  0  0  0  0
  -26.1691  -33.4421   24.2116 N   0  0  0  0  0  0  0  0  0  0  0  0
  -30.1156  -15.3725   18.5131 N   0  0  0  0  0  0  0  0  0  0  0  0
  -28.9892  -32.5299   26.2811 N   0  3  0  0  0  0  0  0  0  0  0  0
  -26.3525  -18.5582   18.2160 N   0  3  1  0  0  0  0  0  0  0  0  0
  -22.8331  -11.1651   18.9295 O   0  0  0  0  0  0  0  0  0  0  0  0
  -22.9126  -30.7716   20.7878 O   0  0  0  0  0  0  0  0  0  0  0  0
  -23.4695  -32.4897   24.0943 O   0  0  0  0  0  0  0  0  0  0  0  0
  -28.1877  -32.4885   23.5844 O   0  0  0  0  0  0  0  0  0  0  0  0
  -31.7451  -15.4352   20.1249 O   0  0  0  0  0  0  0  0  0  0  0  0
  -19.5741  -17.0114   20.3941 O   0  0  0  0  0  0  0  0  0  0  0  0
  -28.0973  -26.8078   19.8330 O   0  0  0  0  0  0  0  0  0  1  0  0
  -29.9070  -17.6556   16.7904 O   0  0  0  0  0  0  0  0  0  0  0  0
  -19.9483  -22.1037   22.4756 F   0  0  0  0  0  0  0  0  0  0  0  0
  -17.9585  -17.8088   22.4909 F   0  0  0  0  0  0  0  0  0  0  0  0
  1  2  1  0  0  0  0
  1  5  2  0  0  0  0
  2  6  2  0  0  0  0
  3  8  2  0  0  0  0
  3 17  1  0  0  0  0
  4  9  1  0  0  0  0
  4 17  2  0  0  0  0
  5 19  1  0  0  0  0
  6 21  1  0  0  0  0
  7 10  2  0  0  0  0
  7 20  1  0  0  0  0
  8 26  1  0  0  0  0
  9 26  2  0  0  0  0
 10 27  1  0  0  0  0
 11 12  2  0  0  0  0
 11 28  1  0  0  0  0
 12 30  1  0  0  0  0
 13 22  1  0  0  0  0
 13 24  2  0  0  0  0
 14 23  1  0  0  0  0
 14 27  2  0  0  0  0
 15 25  1  0  0  0  0
 15 29  2  0  0  0  0
 16 30  2  0  0  0  0
 16 31  1  0  0  0  0
 17 32  1  0  0  0  0
 18 32  1  0  0  0  0
 18 33  2  0  0  0  0
 18 34  1  0  0  0  0
 19 21  2  0  0  0  0
 19 39  1  0  0  0  0
 20 23  2  0  0  0  0
 20 40  1  0  0  0  0
 21 55  1  0  0  0  0
 22 25  2  0  0  0  0
 22 54  1  0  0  0  0
 23 41  1  0  0  0  0
 24 29  1  0  0  0  0
 24 67  1  0  0  0  0
 25 60  1  0  0  0  0
 26 89  1  0  0  0  0
 27 90  1  0  0  0  0
 28 31  2  0  0  0  0
 28 89  1  0  0  0  0
 29 91  1  0  0  0  0
 30 92  1  0  0  0  0
 31 93  1  0  0  0  0
 32 73  2  0  0  0  0
 33 74  1  0  0  0  0
 33 77  1  0  0  0  0
 34 78  1  0  0  0  0
 34 84  2  0  0  0  0
 35 56  1  0  0  0  0
 35 79  1  0  0  0  0
 35 85  2  0  0  0  0
 36 70  1  0  0  0  0
 36 75  1  0  0  0  0
 36 86  2  0  0  0  0
 37 71  1  0  0  0  0
 37 80  1  0  0  0  0
 37 87  2  0  0  0  0
 38 76  1  0  0  0  0
 38 81  1  0  0  0  0
 38 88  2  0  0  0  0
 39 42  1  0  0  0  0
 40 56  1  0  0  0  0
 41 75  1  0  0  0  0
 42 46  1  0  0  0  0
 43 47  1  0  0  0  0
 43 52  1  0  0  0  0
 44 50  1  0  0  0  0
 44 54  1  0  0  0  0
 45 51  1  0  0  0  0
 45 54  1  0  0  0  0
 46 55  1  0  0  0  0
 47 57  1  0  0  0  0
 48 49  1  0  0  0  0
 48 58  1  0  0  0  0
 49 58  1  0  0  0  0
 50 59  1  0  0  0  0
 51 59  1  0  0  0  0
 52 76  1  0  0  0  0
 53 57  1  0  0  0  0
 53 76  1  0  0  0  0
 55 79  1  0  0  0  0
 56 75  1  0  0  0  0
 57 74  1  0  0  0  0
 58 83  1  0  0  0  0
 59 90  1  0  0  0  0
 61 71  1  0  0  0  0
 62 72  1  0  0  0  0
 63 72  1  0  0  0  0
 64 72  1  0  0  0  0
 65 82  1  0  0  0  0
 66 83  1  0  0  0  0
 67 83  1  0  0  0  0
 68 69  1  0  0  0  0
 68 81  1  0  0  0  0
 69 91  1  0  0  0  0
 70 72  1  0  0  0  0
 70 80  1  0  0  0  0
 71 82  1  0  0  0  0
 73 74  1  0  0  0  0
M  CHG  2  82   1  83   1
M  ISO  4  38 100  59 101  81 100  90 101
M  END
> <Batch ID>
0151

> <Smiles>
CNC(C)C(=O)NC(C(=O)N1Cc2cc([101O:1][101CH:1]3CCC(c4cc(CN(C)C5CC5)c(OCC[100NH:0][100C:0](=O)N5CCCC(n6nc(-c7ccc(Oc8ccc(F)cc8F)cc7)c(C(N)=O)c6N)C5)cc4C)CC3)ccc2CC1C(=O)NC1CCCc2ccccc21)C(C)(C)C

> <Shape>
0.256

> <Color>
0.101

> <Negative vol penalty>
0.000

$$$$

  -OEChem-04052321433D

 89 98  0     1  0  0  0  0  0999 V2000
  -23.8117   -7.9586   21.6044 C   0  0  0  0  0  0  0  0  0  0  0  0
  -24.6101   -9.0386   21.2416 C   0  0  0  0  0  0  0  0  0  0  0  0
  -23.6902  -31.1068   20.5139 C   0  0  0  0  0  0  0  0  0  0  0  0
  -23.9913  -28.7612   21.0084 C   0  0  0  0  0  0  0  0  0  0  0  0
  -22.4282   -8.1117   21.6845 C   0  0  0  0  0  0  0  0  0  0  0  0
  -24.0253  -10.2722   20.9577 C   0  0  0  0  0  0  0  0  0  0  0  0
  -26.3593  -15.8107   22.1338 C   0  0  0  0  0  0  0  0  0  0  0  0
  -22.3083  -30.9212   20.4746 C   0  0  0  0  0  0  0  0  0  0  0  0
  -22.6094  -28.5756   20.9693 C   0  0  0  0  0  0  0  0  0  0  0  0
  -27.0435  -16.7285   21.3380 C   0  0  0  0  0  0  0  0  0  0  0  0
  -19.9656  -29.1238   23.0016 C   0  0  0  0  0  0  0  0  0  0  0  0
  -19.3862  -28.3642   24.0179 C   0  0  0  0  0  0  0  0  0  0  0  0
  -24.9739  -17.8918   20.9106 C   0  0  0  0  0  0  0  0  0  0  0  0
  -27.9917  -23.1603   22.0526 C   0  0  0  0  0  0  0  0  0  0  0  0
  -29.3173  -23.0696   20.0347 C   0  0  0  0  0  0  0  0  0  0  0  0
  -18.5618  -26.7957   22.3756 C   0  0  0  0  0  0  0  0  0  0  0  0
  -24.5317  -30.0268   20.7807 C   0  0  0  0  0  0  0  0  0  0  0  0
  -26.7408  -30.5544   21.9423 C   0  0  0  0  0  0  0  0  0  0  0  0
  -21.8270   -9.3504   21.4109 C   0  0  0  0  0  0  0  0  0  0  0  0
  -24.9731  -15.9204   22.3154 C   0  0  0  0  0  0  0  0  0  0  0  0
  -22.6323  -10.4417   21.0330 C   0  0  0  0  0  0  0  0  0  0  0  0
  -24.2748  -16.9756   21.7113 C   0  0  0  0  0  0  0  0  0  0  0  0
  -29.4412  -25.0050   21.4755 C   0  0  0  0  0  0  0  0  0  0  0  0
  -28.5162  -24.4203   22.3405 C   0  0  0  0  0  0  0  0  0  0  0  0
  -21.7679  -29.6556   20.7024 C   0  0  0  0  0  0  0  0  0  0  0  0
  -26.3504  -17.7676   20.7240 C   0  0  0  0  0  0  0  0  0  0  0  0
  -19.8430  -28.7194   21.6722 C   0  0  0  0  0  0  0  0  0  0  0  0
  -28.3923  -22.4849   20.8997 C   0  0  0  0  0  0  0  0  0  0  0  0
  -29.8417  -24.3296   20.3226 C   0  0  0  0  0  0  0  0  0  0  0  0
  -18.6843  -27.2002   23.7049 C   0  0  0  0  0  0  0  0  0  0  0  0
  -19.1411  -27.5553   21.3592 C   0  0  0  0  0  0  0  0  0  0  0  0
  -25.9593  -30.2178   20.8208 C   0  0  0  0  0  0  0  0  0  0  0  0
  -28.0252  -30.6166   21.4596 C   0  0  0  0  0  0  0  0  0  0  0  0
  -26.3414  -30.7896   23.2991 C   0  0  0  0  0  0  0  0  0  0  0  0
  -22.4695  -14.0836   21.6358 C   0  0  0  0  0  0  0  0  0  0  0  0
  -20.8479  -16.3532   23.2916 C   0  0  0  0  0  0  0  0  0  0  0  0
  -20.7016  -19.5747   24.4085 C   0  0  0  0  0  0  0  0  0  0  0  0
  -30.7475  -28.0722   16.7729 C   0  0  0  0  0  0  0  0  0  0  0  0
  -20.3234   -9.4551   21.4648 C   0  0  0  0  0  0  0  0  0  0  0  0
  -24.2540  -14.9378   23.1985 C   0  0  0  0  0  0  0  0  0  0  0  0
  -22.7896  -17.1493   21.8910 C   0  0  0  0  0  0  0  0  0  0  0  0
  -19.8144  -10.8935   21.5124 C   0  0  0  0  0  0  0  0  0  0  0  0
  -30.4819  -31.5550   17.4628 C   0  0  0  0  0  0  0  0  0  0  0  0
  -20.5291  -11.7475   20.4699 C   0  0  0  0  0  0  0  0  0  0  0  0
  -29.3632  -31.6376   18.5028 C   0  0  0  0  0  0  0  0  0  0  0  0
  -30.3811  -26.7967   23.2755 C   0  0  0  0  0  0  0  0  0  0  0  0
  -31.5452  -26.7094   21.4970 C   0  0  0  0  0  0  0  0  0  0  0  0
  -30.2107  -30.4657   16.4275 C   0  0  0  0  0  0  0  0  0  0  0  0
  -28.8203  -29.2125   18.0307 C   0  0  0  0  0  0  0  0  0  0  0  0
  -30.0397  -26.4358   21.7973 C   0  0  0  0  0  0  0  0  0  0  0  0
  -22.0373  -11.8023   20.7416 C   0  0  1  0  0  0  0  0  0  0  0  0
  -22.7612  -14.8454   22.8977 C   0  0  1  0  0  0  0  0  0  0  0  0
  -29.0763  -30.2593   19.1284 C   0  0  2  0  0  0  0  0  0  0  0  0
  -31.5481  -27.6424   22.7256 C   0  0  0  0  0  0  0  0  0  0  0  0
  -28.0734  -25.1254   23.5799 C   0  0  0  0  0  0  0  0  0  0  0  0
  -19.2353  -21.1457   25.7043 C   0  0  0  0  0  0  0  0  0  0  0  0
  -19.0002  -16.6159   20.8777 C   0  0  0  0  0  0  0  0  0  0  0  0
  -18.1911  -18.7892   21.8213 C   0  0  0  0  0  0  0  0  0  0  0  0
  -17.8384  -16.6715   23.0916 C   0  0  0  0  0  0  0  0  0  0  0  0
  -22.7775  -19.9911   26.4764 C   0  0  0  0  0  0  0  0  0  0  0  0
  -31.1715  -25.6712   17.2362 C   0  0  0  0  0  0  0  0  0  0  0  0
  -30.6337  -24.5366   18.0897 C   0  0  0  0  0  0  0  0  0  0  0  0
  -28.3772  -18.9301   20.2808 C   0  0  0  0  0  0  0  0  0  1  0  0
  -28.7141  -20.3560   19.8898 C   0  0  0  0  0  0  0  0  0  0  0  0
  -20.1639  -17.6513   22.9367 C   0  0  1  0  0  0  0  0  0  0  0  0
  -20.3855  -20.1533   25.7758 C   0  0  2  0  0  0  0  0  0  0  0  0
  -18.8261  -17.4278   22.1766 C   0  0  0  0  0  0  0  0  0  0  0  0
  -26.6864  -30.0763   19.7094 N   0  0  0  0  0  0  0  0  0  0  0  0
  -27.9382  -30.3252   20.1301 N   0  0  0  0  0  0  0  0  0  0  0  0
  -22.1302  -16.1594   22.7587 N   0  0  0  0  0  0  0  0  0  0  0  0
  -29.9478  -29.1837   17.0858 N   0  0  0  0  0  0  0  0  0  0  0  0
  -29.2091  -30.8917   22.0470 N   0  0  0  0  0  0  0  0  0  0  0  0
  -24.9819  -30.6843   23.6233 N   0  0  0  0  0  0  0  0  0  0  0  0
  -22.3232  -12.7221   21.8217 N   0  0  0  0  0  0  0  0  0  0  0  0
  -20.0253  -18.3941   24.1847 N   0  0  0  0  0  0  0  0  0  0  0  0
  -30.4351  -26.8976   17.4464 N   0  0  0  0  0  0  0  0  0  0  0  0
  -32.7700  -27.5485   23.5302 N   0  3  0  0  0  0  0  0  0  0  0  0
  -21.5779  -20.8551   26.3296 N   0  3  0  0  0  0  0  0  0  0  0  0
  -27.1636  -31.1007   24.1939 O   0  0  0  0  0  0  0  0  0  0  0  0
  -22.3822  -14.6865   20.5726 O   0  0  0  0  0  0  0  0  0  0  0  0
  -20.2688  -15.5441   24.0207 O   0  0  0  0  0  0  0  0  0  0  0  0
  -21.4688  -20.1177   23.6165 O   0  0  0  0  0  0  0  0  0  0  0  0
  -31.6748  -28.1240   15.9578 O   0  0  0  0  0  0  0  0  0  0  0  0
  -20.4195  -29.4741   20.6644 O   0  0  0  0  0  0  0  0  0  0  0  0
  -27.0157  -18.6644   19.9462 O   0  0  0  0  0  0  0  0  0  1  0  0
  -27.8773  -21.2472   20.6169 O   0  0  0  0  0  0  0  0  0  0  0  0
  -30.7442  -24.8870   19.4678 O   0  0  0  0  0  0  0  0  0  0  0  0
  -18.1292  -26.4700   24.6811 F   0  0  0  0  0  0  0  0  0  0  0  0
  -19.0211  -27.1611   20.0841 F   0  0  0  0  0  0  0  0  0  0  0  0
  1  2  1  0  0  0  0
  1  5  2  0  0  0  0
  2  6  2  0  0  0  0
  3  8  2  0  0  0  0
  3 17  1  0  0  0  0
  4  9  1  0  0  0  0
  4 17  2  0  0  0  0
  5 19  1  0  0  0  0
  6 21  1  0  0  0  0
  7 10  2  0  0  0  0
  7 20  1  0  0  0  0
  8 25  1  0  0  0  0
  9 25  2  0  0  0  0
 10 26  1  0  0  0  0
 11 12  2  0  0  0  0
 11 27  1  0  0  0  0
 12 30  1  0  0  0  0
 13 22  1  0  0  0  0
 13 26  2  0  0  0  0
 14 24  2  0  0  0  0
 14 28  1  0  0  0  0
 15 28  2  0  0  0  0
 15 29  1  0  0  0  0
 16 30  2  0  0  0  0
 16 31  1  0  0  0  0
 17 32  1  0  0  0  0
 18 32  1  0  0  0  0
 18 33  2  0  0  0  0
 18 34  1  0  0  0  0
 19 21  2  0  0  0  0
 19 39  1  0  0  0  0
 20 22  2  0  0  0  0
 20 40  1  0  0  0  0
 21 51  1  0  0  0  0
 22 41  1  0  0  0  0
 23 24  1  0  0  0  0
 23 29  2  0  0  0  0
 23 50  1  0  0  0  0
 24 55  1  0  0  0  0
 25 84  1  0  0  0  0
 26 85  1  0  0  0  0
 27 31  2  0  0  0  0
 27 84  1  0  0  0  0
 28 86  1  0  0  0  0
 29 87  1  0  0  0  0
 30 88  1  0  0  0  0
 31 89  1  0  0  0  0
 32 68  2  0  0  0  0
 33 69  1  0  0  0  0
 33 72  1  0  0  0  0
 34 73  1  0  0  0  0
 34 79  2  0  0  0  0
 35 52  1  0  0  0  0
 35 74  1  0  0  0  0
 35 80  2  0  0  0  0
 36 65  1  0  0  0  0
 36 70  1  0  0  0  0
 36 81  2  0  0  0  0
 37 66  1  0  0  0  0
 37 75  1  0  0  0  0
 37 82  2  0  0  0  0
 38 71  1  0  0  0  0
 38 76  1  0  0  0  0
 38 83  2  0  0  0  0
 39 42  1  0  0  0  0
 40 52  1  0  0  0  0
 41 70  1  0  0  0  0
 42 44  1  0  0  0  0
 43 45  1  0  0  0  0
 43 48  1  0  0  0  0
 44 51  1  0  0  0  0
 45 53  1  0  0  0  0
 46 50  1  0  0  0  0
 46 54  1  0  0  0  0
 47 50  1  0  0  0  0
 47 54  1  0  0  0  0
 48 71  1  0  0  0  0
 49 53  1  0  0  0  0
 49 71  1  0  0  0  0
 51 74  1  0  0  0  0
 52 70  1  0  0  0  0
 53 69  1  0  0  0  0
 54 77  1  0  0  0  0
 56 66  1  0  0  0  0
 57 67  1  0  0  0  0
 58 67  1  0  0  0  0
 59 67  1  0  0  0  0
 60 78  1  0  0  0  0
 61 62  1  0  0  0  0
 61 76  1  0  0  0  0
 62 87  1  0  0  0  0
 63 64  1  0  0  0  0
 63 85  1  0  0  0  0
 64 86  1  0  0  0  0
 65 67  1  0  0  0  0
 65 75  1  0  0  0  0
 66 78  1  0  0  0  0
 68 69  1  0  0  0  0
M  CHG  2  77   1  78   1
M  ISO  4  38 100  63 101  76 100  85 101
M  END
> <Batch ID>
0151

> <Smiles>
CNC(C)C(=O)NC(C(=O)N1Cc2cc([101O:1][101CH2:1]COc3cc(C)c(C4CC(N)C4)c(OCC[100NH:0][100C:0](=O)N4CCCC(n5nc(-c6ccc(Oc7ccc(F)cc7F)cc6)c(C(N)=O)c5N)C4)c3)ccc2CC1C(=O)NC1CCCc2ccccc21)C(C)(C)C

> <Shape>
0.228

> <Color>
0.086

> <Negative vol penalty>
0.000

$$$$

  -OEChem-04052321433D

 88 98  0     1  0  0  0  0  0999 V2000
  -18.2990  -33.5099   16.4417 C   0  0  0  0  0  0  0  0  0  0  0  0
  -19.6749  -33.7159   16.4346 C   0  0  0  0  0  0  0  0  0  0  0  0
  -23.1180   -9.9536   22.0357 C   0  0  0  0  0  0  0  0  0  0  0  0
  -24.7676   -8.2478   21.5820 C   0  0  0  0  0  0  0  0  0  0  0  0
  -17.6322  -33.3053   17.6489 C   0  0  0  0  0  0  0  0  0  0  0  0
  -20.3845  -33.7186   17.6349 C   0  0  0  0  0  0  0  0  0  0  0  0
  -25.7742  -29.0751   18.7667 C   0  0  0  0  0  0  0  0  0  0  0  0
  -22.1011   -9.0118   21.8791 C   0  0  0  0  0  0  0  0  0  0  0  0
  -23.7507   -7.3059   21.4255 C   0  0  0  0  0  0  0  0  0  0  0  0
  -26.9537  -28.3606   18.9772 C   0  0  0  0  0  0  0  0  0  0  0  0
  -21.7382   -5.4612   23.4173 C   0  0  0  0  0  0  0  0  0  0  0  0
  -21.9047   -4.2213   24.0341 C   0  0  0  0  0  0  0  0  0  0  0  0
  -30.0448  -22.0756   17.9888 C   0  0  0  0  0  0  0  0  0  0  0  0
  -29.1765  -19.8070   19.3608 C   0  0  0  0  0  0  0  0  0  0  0  0
  -27.1316  -29.2893   21.2029 C   0  0  0  0  0  0  0  0  0  0  0  0
  -21.7745   -3.1327   21.8812 C   0  0  0  0  0  0  0  0  0  0  0  0
  -24.4513   -9.5716   21.8871 C   0  0  0  0  0  0  0  0  0  0  0  0
  -25.7856  -11.3070   23.1968 C   0  0  0  0  0  0  0  0  0  0  0  0
  -18.3354  -33.2959   18.8638 C   0  0  0  0  0  0  0  0  0  0  0  0
  -25.2601  -29.8885   19.7803 C   0  0  0  0  0  0  0  0  0  0  0  0
  -19.7262  -33.5150   18.8596 C   0  0  0  0  0  0  0  0  0  0  0  0
  -29.4518  -22.2045   19.2447 C   0  0  0  0  0  0  0  0  0  0  0  0
  -29.7694  -19.6782   18.1048 C   0  0  0  0  0  0  0  0  0  0  0  0
  -25.9439  -29.9977   21.0023 C   0  0  0  0  0  0  0  0  0  0  0  0
  -29.0177  -21.0702   19.9307 C   0  0  0  0  0  0  0  0  0  0  0  0
  -30.2035  -20.8124   17.4187 C   0  0  0  0  0  0  0  0  0  0  0  0
  -22.4174   -7.6880   21.5740 C   0  0  0  0  0  0  0  0  0  0  0  0
  -27.6308  -28.4676   20.1923 C   0  0  0  0  0  0  0  0  0  0  0  0
  -21.5898   -5.5369   22.0323 C   0  0  0  0  0  0  0  0  0  0  0  0
  -21.9228   -3.0571   23.2661 C   0  0  0  0  0  0  0  0  0  0  0  0
  -21.6079   -4.3727   21.2643 C   0  0  0  0  0  0  0  0  0  0  0  0
  -25.5022  -10.5441   22.0482 C   0  0  0  0  0  0  0  0  0  0  0  0
  -26.8688  -12.0731   22.8415 C   0  0  0  0  0  0  0  0  0  0  0  0
  -25.1285  -11.3219   24.4711 C   0  0  0  0  0  0  0  0  0  0  0  0
  -22.5358  -32.2214   20.8810 C   0  0  0  0  0  0  0  0  0  0  0  0
  -23.2006  -30.4319   23.2822 C   0  0  0  0  0  0  0  0  0  0  0  0
  -23.9365  -27.9884   25.5461 C   0  0  0  0  0  0  0  0  0  0  0  0
  -29.2557  -15.4467   19.1981 C   0  0  0  0  0  0  0  0  0  0  0  0
  -17.5643  -33.1178   20.1476 C   0  0  0  0  0  0  0  0  0  0  0  0
  -24.0257  -30.7240   19.5754 C   0  0  0  0  0  0  0  0  0  0  0  0
  -25.3722  -30.9116   22.0515 C   0  0  0  0  0  0  0  0  0  0  0  0
  -18.4448  -32.7622   21.3428 C   0  0  0  0  0  0  0  0  0  0  0  0
  -29.9132  -11.8348   18.8312 C   0  0  0  0  0  0  0  0  0  0  0  0
  -27.9195  -24.2032   19.5062 C   0  0  0  0  0  0  0  0  0  0  0  0
  -30.4347  -24.5304   19.4278 C   0  0  0  0  0  0  0  0  0  0  0  0
  -19.6690  -33.6710   21.3930 C   0  0  0  0  0  0  0  0  0  0  0  0
  -28.8030  -11.2451   19.6959 C   0  0  0  0  0  0  0  0  0  0  0  0
  -27.7645  -25.5921   20.1203 C   0  0  0  0  0  0  0  0  0  0  0  0
  -30.2665  -25.9173   20.0428 C   0  0  0  0  0  0  0  0  0  0  0  0
  -31.2950  -17.8678   17.0712 C   0  0  0  0  0  0  0  0  0  0  0  0
  -29.4747  -13.1219   18.1339 C   0  0  0  0  0  0  0  0  0  0  0  0
  -27.8306  -13.5629   19.9357 C   0  0  0  0  0  0  0  0  0  0  0  0
  -29.2900  -23.5896   19.8440 C   0  0  0  0  0  0  0  0  0  0  0  0
  -29.9290  -18.3167   17.5132 C   0  0  1  0  0  0  0  0  0  0  0  0
  -20.5346  -33.5002   20.1388 C   0  0  1  0  0  0  0  0  0  0  0  0
  -23.1730  -30.8633   20.8492 C   0  0  1  0  0  0  0  0  0  0  0  0
  -28.2692  -12.2943   20.6832 C   0  0  1  0  0  0  0  0  0  0  0  0
  -30.6763  -17.2638   18.2970 C   0  0  1  0  0  0  0  0  0  0  0  0
  -28.9048  -26.5217   19.7087 C   0  0  0  0  0  0  0  0  0  1  0  0
  -28.3822  -21.1835   21.2774 C   0  0  0  0  0  0  0  0  0  0  0  0
  -30.8410  -20.7009   16.0723 C   0  0  0  0  0  0  0  0  0  0  0  0
  -23.3473  -27.1996   27.8543 C   0  0  0  0  0  0  0  0  0  0  0  0
  -24.8687  -32.6896   24.4756 C   0  0  0  0  0  0  0  0  0  0  0  0
  -25.0401  -31.3524   26.5853 C   0  0  0  0  0  0  0  0  0  0  0  0
  -22.8088  -32.1161   25.7726 C   0  0  0  0  0  0  0  0  0  0  0  0
  -22.9604  -25.3847   24.5328 C   0  0  0  0  0  0  0  0  0  0  0  0
  -24.0052  -30.2574   24.5454 C   0  0  1  0  0  0  0  0  0  0  0  0
  -23.0452  -27.0758   26.3690 C   0  0  2  0  0  0  0  0  0  0  0  0
  -24.1894  -31.5930   25.3199 C   0  0  0  0  0  0  0  0  0  0  0  0
  -26.3378  -10.8021   21.0387 N   0  0  0  0  0  0  0  0  0  0  0  0
  -27.1570  -11.7358   21.5518 N   0  0  0  0  0  0  0  0  0  0  0  0
  -23.9115  -30.7482   22.1182 N   0  0  0  0  0  0  0  0  0  0  0  0
  -28.9080  -14.0881   19.0879 N   0  0  0  0  0  0  0  0  0  0  0  0
  -27.5934  -12.9956   23.5096 N   0  0  0  0  0  0  0  0  0  0  0  0
  -25.5798  -10.4438   25.4658 N   0  0  0  0  0  0  0  0  0  0  0  0
  -21.3199  -32.2878   20.2279 N   0  0  0  0  0  0  0  0  0  0  0  0
  -23.3399  -29.2092   25.3116 N   0  0  0  0  0  0  0  0  0  0  0  0
  -30.2235  -15.8984   18.3081 N   0  0  0  0  0  0  0  0  0  0  0  0
  -23.2451  -25.6552   25.9655 N   0  3  0  0  0  0  0  0  0  0  0  0
  -24.1589  -12.0796   24.7148 O   0  0  0  0  0  0  0  0  0  0  0  0
  -23.1039  -33.1420   21.4568 O   0  0  0  0  0  0  0  0  0  0  0  0
  -21.9745  -30.2976   23.3247 O   0  0  0  0  0  0  0  0  0  0  0  0
  -25.0521  -27.6534   25.1540 O   0  0  0  0  0  0  0  0  0  0  0  0
  -28.7382  -16.2055   20.0252 O   0  0  0  0  0  0  0  0  0  0  0  0
  -21.4254   -6.7687   21.4213 O   0  0  0  0  0  0  0  0  0  0  0  0
  -28.7794  -27.7638   20.3928 O   0  0  0  0  0  0  0  0  0  1  0  0
  -22.0843   -1.8666   23.8584 F   0  0  0  0  0  0  0  0  0  0  0  0
  -21.4670   -4.4392   19.9333 F   0  0  0  0  0  0  0  0  0  0  0  0
  1  2  1  0  0  0  0
  1  5  2  0  0  0  0
  2  6  2  0  0  0  0
  3  8  2  0  0  0  0
  3 17  1  0  0  0  0
  4  9  1  0  0  0  0
  4 17  2  0  0  0  0
  5 19  1  0  0  0  0
  6 21  1  0  0  0  0
  7 10  2  0  0  0  0
  7 20  1  0  0  0  0
  8 27  1  0  0  0  0
  9 27  2  0  0  0  0
 10 28  1  0  0  0  0
 11 12  2  0  0  0  0
 11 29  1  0  0  0  0
 12 30  1  0  0  0  0
 13 22  1  0  0  0  0
 13 26  2  0  0  0  0
 14 23  2  0  0  0  0
 14 25  1  0  0  0  0
 15 24  1  0  0  0  0
 15 28  2  0  0  0  0
 16 30  2  0  0  0  0
 16 31  1  0  0  0  0
 17 32  1  0  0  0  0
 18 32  1  0  0  0  0
 18 33  2  0  0  0  0
 18 34  1  0  0  0  0
 19 21  2  0  0  0  0
 19 39  1  0  0  0  0
 20 24  2  0  0  0  0
 20 40  1  0  0  0  0
 21 55  1  0  0  0  0
 22 25  2  0  0  0  0
 22 53  1  0  0  0  0
 23 26  1  0  0  0  0
 23 54  1  0  0  0  0
 24 41  1  0  0  0  0
 25 60  1  0  0  0  0
 26 61  1  0  0  0  0
 27 85  1  0  0  0  0
 28 86  1  0  0  0  0
 29 31  2  0  0  0  0
 29 85  1  0  0  0  0
 30 87  1  0  0  0  0
 31 88  1  0  0  0  0
 32 70  2  0  0  0  0
 33 71  1  0  0  0  0
 33 74  1  0  0  0  0
 34 75  1  0  0  0  0
 34 80  2  0  0  0  0
 35 56  1  0  0  0  0
 35 76  1  0  0  0  0
 35 81  2  0  0  0  0
 36 67  1  0  0  0  0
 36 72  1  0  0  0  0
 36 82  2  0  0  0  0
 37 68  1  0  0  0  0
 37 77  1  0  0  0  0
 37 83  2  0  0  0  0
 38 73  1  0  0  0  0
 38 78  1  0  0  0  0
 38 84  2  0  0  0  0
 39 42  1  0  0  0  0
 40 56  1  0  0  0  0
 41 72  1  0  0  0  0
 42 46  1  0  0  0  0
 43 47  1  0  0  0  0
 43 51  1  0  0  0  0
 44 48  1  0  0  0  0
 44 53  1  0  0  0  0
 45 49  1  0  0  0  0
 45 53  1  0  0  0  0
 46 55  1  0  0  0  0
 47 57  1  0  0  0  0
 48 59  1  0  0  0  0
 49 59  1  0  0  0  0
 50 54  1  0  0  0  0
 50 58  1  0  0  0  0
 51 73  1  0  0  0  0
 52 57  1  0  0  0  0
 52 73  1  0  0  0  0
 54 58  1  0  0  0  0
 55 76  1  0  0  0  0
 56 72  1  0  0  0  0
 57 71  1  0  0  0  0
 58 78  1  0  0  0  0
 59 86  1  0  0  0  0
 62 68  1  0  0  0  0
 63 69  1  0  0  0  0
 64 69  1  0  0  0  0
 65 69  1  0  0  0  0
 66 79  1  0  0  0  0
 67 69  1  0  0  0  0
 67 77  1  0  0  0  0
 68 79  1  0  0  0  0
 70 71  1  0  0  0  0
M  CHG  1  79   1
M  ISO  4  38 100  59 101  78 100  86 101
M  END
> <Batch ID>
0151

> <Smiles>
CNC(C)C(=O)NC(C(=O)N1Cc2cc([101O:1][101CH:1]3CCC(c4cc(C)c(C5CC5[100NH:0][100C:0](=O)N5CCCC(n6nc(-c7ccc(Oc8ccc(F)cc8F)cc7)c(C(N)=O)c6N)C5)cc4C)CC3)ccc2CC1C(=O)NC1CCCc2ccccc21)C(C)(C)C

> <Shape>
0.272

> <Color>
0.085

> <Negative vol penalty>
0.000

$$$$

  -OEChem-04052321433D

 90100  0     1  0  0  0  0  0999 V2000
  -27.5217  -32.3462   27.7144 C   0  0  0  0  0  0  0  0  0  0  0  0
  -27.7104  -31.3210   26.7930 C   0  0  0  0  0  0  0  0  0  0  0  0
  -25.3999   -8.1081   22.7597 C   0  0  0  0  0  0  0  0  0  0  0  0
  -23.1603   -8.2336   21.8622 C   0  0  0  0  0  0  0  0  0  0  0  0
  -26.2369  -32.8223   27.9723 C   0  0  0  0  0  0  0  0  0  0  0  0
  -26.6141  -30.7706   26.1299 C   0  0  0  0  0  0  0  0  0  0  0  0
  -27.4503  -30.1548   21.1735 C   0  0  0  0  0  0  0  0  0  0  0  0
  -24.9728   -7.1642   23.6936 C   0  0  0  0  0  0  0  0  0  0  0  0
  -22.7331   -7.2897   22.7961 C   0  0  0  0  0  0  0  0  0  0  0  0
  -28.2233  -29.0599   20.7893 C   0  0  0  0  0  0  0  0  0  0  0  0
  -22.8695   -3.9356   23.1862 C   0  0  0  0  0  0  0  0  0  0  0  0
  -22.0515   -2.9012   22.7322 C   0  0  0  0  0  0  0  0  0  0  0  0
  -26.2153  -27.8481   20.2247 C   0  0  0  0  0  0  0  0  0  0  0  0
  -29.3957  -24.7067   17.9806 C   0  0  0  0  0  0  0  0  0  0  0  0
  -20.3125   -3.6090   24.2527 C   0  0  0  0  0  0  0  0  0  0  0  0
  -24.4937   -8.6429   21.8440 C   0  0  0  0  0  0  0  0  0  0  0  0
  -25.4374   -9.3701   19.5883 C   0  0  0  0  0  0  0  0  0  0  0  0
  -25.1254  -32.2840   27.3050 C   0  0  0  0  0  0  0  0  0  0  0  0
  -26.0512  -30.1005   21.0962 C   0  0  0  0  0  0  0  0  0  0  0  0
  -25.3131  -31.2390   26.3802 C   0  0  0  0  0  0  0  0  0  0  0  0
  -25.4270  -28.9445   20.6061 C   0  0  0  0  0  0  0  0  0  0  0  0
  -28.8029  -23.5044   19.9775 C   0  0  0  0  0  0  0  0  0  0  0  0
  -28.6389  -24.6040   19.1425 C   0  0  0  0  0  0  0  0  0  0  0  0
  -23.6394   -6.7550   23.7118 C   0  0  0  0  0  0  0  0  0  0  0  0
  -27.6057  -27.9053   20.3176 C   0  0  0  0  0  0  0  0  0  0  0  0
  -22.4092   -4.8068   24.1736 C   0  0  0  0  0  0  0  0  0  0  0  0
  -20.7729   -2.7379   23.2654 C   0  0  0  0  0  0  0  0  0  0  0  0
  -21.1306   -4.6434   24.7069 C   0  0  0  0  0  0  0  0  0  0  0  0
  -24.9342   -9.6183   20.8794 C   0  0  0  0  0  0  0  0  0  0  0  0
  -30.2958  -23.6910   17.7010 C   0  0  0  0  0  0  0  0  0  0  0  0
  -29.7294  -22.5425   19.6084 C   0  0  0  0  0  0  0  0  0  0  0  0
  -25.7099  -10.6168   19.0804 C   0  0  0  0  0  0  0  0  0  0  0  0
  -25.6403   -8.1239   18.9089 C   0  0  0  0  0  0  0  0  0  0  0  0
  -23.6790  -30.2971   23.2029 C   0  0  0  0  0  0  0  0  0  0  0  0
  -21.8289  -30.2398   20.5391 C   0  0  0  0  0  0  0  0  0  0  0  0
  -21.5017  -29.3628   17.2572 C   0  0  0  0  0  0  0  0  0  0  0  0
  -27.7118  -15.5855   19.4225 C   0  0  0  0  0  0  0  0  0  0  0  0
  -23.7509  -32.7990   27.6518 C   0  0  0  0  0  0  0  0  0  0  0  0
  -25.2328  -31.2997   21.4892 C   0  0  0  0  0  0  0  0  0  0  0  0
  -23.9292  -28.8429   20.4846 C   0  0  0  0  0  0  0  0  0  0  0  0
  -22.6821  -32.4178   26.6308 C   0  0  0  0  0  0  0  0  0  0  0  0
  -24.4975  -15.2151   20.7839 C   0  0  0  0  0  0  0  0  0  0  0  0
  -28.0407  -24.4805   22.2447 C   0  0  0  0  0  0  0  0  0  0  0  0
  -28.7249  -23.1825   22.5404 C   0  0  0  0  0  0  0  0  0  0  0  0
  -22.7944  -30.9409   26.2664 C   0  0  0  0  0  0  0  0  0  0  0  0
  -24.3604  -13.6934   20.8284 C   0  0  0  0  0  0  0  0  0  0  0  0
  -27.6727  -19.2045   18.6171 C   0  0  0  0  0  0  0  0  0  0  0  0
  -28.0518  -18.9174   21.1037 C   0  0  0  0  0  0  0  0  0  0  0  0
  -25.8983  -15.6763   21.1897 C   0  0  0  0  0  0  0  0  0  0  0  0
  -28.1820  -17.7805   18.4001 C   0  0  0  0  0  0  0  0  0  0  0  0
  -28.5556  -17.5023   20.8295 C   0  0  0  0  0  0  0  0  0  0  0  0
  -26.8513  -13.5112   20.4679 C   0  0  0  0  0  0  0  0  0  0  0  0
  -28.0047  -23.3677   21.2312 C   0  0  0  0  0  0  0  0  0  0  0  0
  -24.1517  -30.6332   25.6225 C   0  0  1  0  0  0  0  0  0  0  0  0
  -23.7938  -30.9478   21.8534 C   0  0  1  0  0  0  0  0  0  0  0  0
  -25.4718  -13.0142   20.0085 C   0  0  1  0  0  0  0  0  0  0  0  0
  -28.2224  -19.8392   19.8950 C   0  0  0  0  0  0  0  0  0  0  0  0
  -31.1250  -23.7681   16.4630 C   0  0  0  0  0  0  0  0  0  0  0  0
  -31.3999  -21.1935   20.9270 C   0  0  0  0  0  0  0  0  0  0  0  0
  -19.8604  -29.4112   15.3594 C   0  0  0  0  0  0  0  0  0  0  0  0
  -20.3123  -27.9087   21.7944 C   0  0  0  0  0  0  0  0  0  0  0  0
  -19.3623  -27.4005   19.5344 C   0  0  0  0  0  0  0  0  0  0  0  0
  -18.8686  -29.5865   20.6303 C   0  0  0  0  0  0  0  0  0  0  0  0
  -23.2826  -31.0555   15.6073 C   0  0  0  0  0  0  0  0  0  0  0  0
  -27.6610  -25.6844   19.4688 C   0  0  0  0  0  0  0  0  0  1  0  0
  -29.9525  -21.3252   20.4737 C   0  0  2  0  0  0  0  0  0  0  0  0
  -21.1834  -29.1567   19.7088 C   0  0  1  0  0  0  0  0  0  0  0  0
  -21.0020  -30.1391   16.0521 C   0  0  2  0  0  0  0  0  0  0  0  0
  -19.9598  -28.5140   20.4210 C   0  0  0  0  0  0  0  0  0  0  0  0
  -24.8888  -10.9204   21.1736 N   0  0  0  0  0  0  0  0  0  0  0  0
  -30.4828  -22.6077   18.4878 N   0  0  0  0  0  0  0  0  0  0  0  0
  -25.3671  -11.5015   20.0601 N   0  0  0  0  0  0  0  0  0  0  0  0
  -23.1722  -30.0397   20.8873 N   0  0  0  0  0  0  0  0  0  0  0  0
  -26.9245  -14.9726   20.4088 N   0  0  0  0  0  0  0  0  0  0  0  0
  -27.9892  -16.9528   19.5904 N   0  0  0  0  0  0  0  0  0  0  0  0
  -26.2071  -11.0315   17.8959 N   0  0  0  0  0  0  0  0  0  0  0  0
  -25.3072   -6.9372   19.5760 N   0  0  0  0  0  0  0  0  0  0  0  0
  -24.1661  -31.0670   24.2419 N   0  0  0  0  0  0  0  0  0  0  0  0
  -20.8736  -29.7618   18.4180 N   0  0  0  0  0  0  0  0  0  0  0  0
  -22.1034  -30.3314   15.0668 N   0  3  0  0  0  0  0  0  0  0  0  0
  -26.1186   -8.0637   17.7508 O   0  0  0  0  0  0  0  0  0  0  0  0
  -23.1839  -29.1800   23.2948 O   0  0  0  0  0  0  0  0  0  0  0  0
  -21.1677  -31.2303   20.8605 O   0  0  0  0  0  0  0  0  0  0  0  0
  -22.3604  -28.4873   17.1762 O   0  0  0  0  0  0  0  0  0  0  0  0
  -28.1390  -14.9532   18.4485 O   0  0  0  0  0  0  0  0  0  0  0  0
  -23.2223   -5.8338   24.6228 O   0  0  0  0  0  0  0  0  0  0  0  0
  -28.3631  -26.8273   19.9400 O   0  0  0  0  0  0  0  0  0  1  0  0
  -29.5984  -20.1719   19.7234 O   0  0  0  0  0  0  0  0  0  0  0  0
  -19.9868   -1.7454   22.8281 F   0  0  0  0  0  0  0  0  0  0  0  0
  -20.6824   -5.4779   25.6548 F   0  0  0  0  0  0  0  0  0  0  0  0
  1  2  1  0  0  0  0
  1  5  2  0  0  0  0
  2  6  2  0  0  0  0
  3  8  2  0  0  0  0
  3 16  1  0  0  0  0
  4  9  1  0  0  0  0
  4 16  2  0  0  0  0
  5 18  1  0  0  0  0
  6 20  1  0  0  0  0
  7 10  2  0  0  0  0
  7 19  1  0  0  0  0
  8 24  1  0  0  0  0
  9 24  2  0  0  0  0
 10 25  1  0  0  0  0
 11 12  2  0  0  0  0
 11 26  1  0  0  0  0
 12 27  1  0  0  0  0
 13 21  1  0  0  0  0
 13 25  2  0  0  0  0
 14 23  1  0  0  0  0
 14 30  2  0  0  0  0
 15 27  2  0  0  0  0
 15 28  1  0  0  0  0
 16 29  1  0  0  0  0
 17 29  1  0  0  0  0
 17 32  2  0  0  0  0
 17 33  1  0  0  0  0
 18 20  2  0  0  0  0
 18 38  1  0  0  0  0
 19 21  2  0  0  0  0
 19 39  1  0  0  0  0
 20 54  1  0  0  0  0
 21 40  1  0  0  0  0
 22 23  2  0  0  0  0
 22 31  1  0  0  0  0
 22 53  1  0  0  0  0
 23 65  1  0  0  0  0
 24 86  1  0  0  0  0
 25 87  1  0  0  0  0
 26 28  2  0  0  0  0
 26 86  1  0  0  0  0
 27 89  1  0  0  0  0
 28 90  1  0  0  0  0
 29 70  2  0  0  0  0
 30 58  1  0  0  0  0
 30 71  1  0  0  0  0
 31 66  1  0  0  0  0
 31 71  2  0  0  0  0
 32 72  1  0  0  0  0
 32 76  1  0  0  0  0
 33 77  1  0  0  0  0
 33 81  2  0  0  0  0
 34 55  1  0  0  0  0
 34 78  1  0  0  0  0
 34 82  2  0  0  0  0
 35 67  1  0  0  0  0
 35 73  1  0  0  0  0
 35 83  2  0  0  0  0
 36 68  1  0  0  0  0
 36 79  1  0  0  0  0
 36 84  2  0  0  0  0
 37 74  1  0  0  0  0
 37 75  1  0  0  0  0
 37 85  2  0  0  0  0
 38 41  1  0  0  0  0
 39 55  1  0  0  0  0
 40 73  1  0  0  0  0
 41 45  1  0  0  0  0
 42 46  1  0  0  0  0
 42 49  1  0  0  0  0
 43 44  1  0  0  0  0
 43 53  1  0  0  0  0
 44 53  1  0  0  0  0
 45 54  1  0  0  0  0
 46 56  1  0  0  0  0
 47 50  1  0  0  0  0
 47 57  1  0  0  0  0
 48 51  1  0  0  0  0
 48 57  1  0  0  0  0
 49 74  1  0  0  0  0
 50 75  1  0  0  0  0
 51 75  1  0  0  0  0
 52 56  1  0  0  0  0
 52 74  1  0  0  0  0
 54 78  1  0  0  0  0
 55 73  1  0  0  0  0
 56 72  1  0  0  0  0
 57 88  1  0  0  0  0
 59 66  1  0  0  0  0
 60 68  1  0  0  0  0
 61 69  1  0  0  0  0
 62 69  1  0  0  0  0
 63 69  1  0  0  0  0
 64 80  1  0  0  0  0
 65 87  1  0  0  0  0
 66 88  1  0  0  0  0
 67 69  1  0  0  0  0
 67 79  1  0  0  0  0
 68 80  1  0  0  0  0
 70 72  1  0  0  0  0
M  CHG  1  80   1
M  ISO  4  37 100  65 101  75 100  87 101
M  END
> <Batch ID>
0151

> <Smiles>
CNC(C)C(=O)NC(C(=O)N1Cc2cc([101O:1][101CH2:1]c3cc(C)nc(C(C)OC4CC[100N:0]([100C:0](=O)N5CCCC(n6nc(-c7ccc(Oc8ccc(F)cc8F)cc7)c(C(N)=O)c6N)C5)CC4)c3C3CC3)ccc2CC1C(=O)NC1CCCc2ccccc21)C(C)(C)C

> <Shape>
0.316

> <Color>
0.082

> <Negative vol penalty>
0.000

$$$$

  -OEChem-04052321433D

 85 94  0     1  0  0  0  0  0999 V2000
  -27.6338  -34.4695   25.0031 C   0  0  0  0  0  0  0  0  0  0  0  0
  -27.8684  -33.1790   24.5393 C   0  0  0  0  0  0  0  0  0  0  0  0
  -26.5243   -8.6926   21.9429 C   0  0  0  0  0  0  0  0  0  0  0  0
  -24.6191   -8.4743   20.4733 C   0  0  0  0  0  0  0  0  0  0  0  0
  -26.3421  -34.8584   25.3553 C   0  0  0  0  0  0  0  0  0  0  0  0
  -26.8114  -32.2763   24.4284 C   0  0  0  0  0  0  0  0  0  0  0  0
  -26.8975  -29.7108   20.0631 C   0  0  0  0  0  0  0  0  0  0  0  0
  -26.1268   -7.5449   22.6287 C   0  0  0  0  0  0  0  0  0  0  0  0
  -24.2216   -7.3265   21.1591 C   0  0  0  0  0  0  0  0  0  0  0  0
  -27.8011  -28.6538   19.9634 C   0  0  0  0  0  0  0  0  0  0  0  0
  -22.6428   -6.5748   24.0527 C   0  0  0  0  0  0  0  0  0  0  0  0
  -21.2937   -6.4534   24.3858 C   0  0  0  0  0  0  0  0  0  0  0  0
  -26.0177  -27.0942   20.4175 C   0  0  0  0  0  0  0  0  0  0  0  0
  -21.1547   -4.4233   23.0834 C   0  0  0  0  0  0  0  0  0  0  0  0
  -28.0151  -24.7930   23.2370 C   0  0  0  0  0  0  0  0  0  0  0  0
  -25.7704   -9.1573   20.8651 C   0  0  0  0  0  0  0  0  0  0  0  0
  -27.0337  -10.4135   19.0393 C   0  0  0  0  0  0  0  0  0  0  0  0
  -25.2671  -33.9630   25.2395 C   0  0  0  0  0  0  0  0  0  0  0  0
  -25.5469  -29.4678   20.3519 C   0  0  0  0  0  0  0  0  0  0  0  0
  -25.5043  -32.6532   24.7806 C   0  0  0  0  0  0  0  0  0  0  0  0
  -25.0984  -28.1497   20.5177 C   0  0  0  0  0  0  0  0  0  0  0  0
  -28.0559  -23.4335   22.9722 C   0  0  0  0  0  0  0  0  0  0  0  0
  -28.2386  -23.9886   20.6392 C   0  0  0  0  0  0  0  0  0  0  0  0
  -24.9755   -6.8619   22.2368 C   0  0  0  0  0  0  0  0  0  0  0  0
  -27.3619  -27.3455   20.1435 C   0  0  0  0  0  0  0  0  0  0  0  0
  -23.2478   -5.6204   23.2349 C   0  0  0  0  0  0  0  0  0  0  0  0
  -28.1699  -23.0319   21.6459 C   0  0  0  0  0  0  0  0  0  0  0  0
  -20.5497   -5.3777   23.9012 C   0  0  0  0  0  0  0  0  0  0  0  0
  -22.5038   -4.5446   22.7503 C   0  0  0  0  0  0  0  0  0  0  0  0
  -26.1802  -10.3431   20.1566 C   0  0  0  0  0  0  0  0  0  0  0  0
  -28.1897  -25.3233   21.0083 C   0  0  0  0  0  0  0  0  0  1  0  0
  -27.1055  -11.7534   18.7459 C   0  0  0  0  0  0  0  0  0  0  0  0
  -27.7019   -9.3618   18.3301 C   0  0  0  0  0  0  0  0  0  0  0  0
  -23.5800  -30.2671   22.7175 C   0  0  0  0  0  0  0  0  0  0  0  0
  -21.3538  -28.8685   20.8173 C   0  0  0  0  0  0  0  0  0  0  0  0
  -20.6579  -26.6471   18.3217 C   0  0  0  0  0  0  0  0  0  0  0  0
  -27.6609  -16.9195   20.0935 C   0  0  0  0  0  0  0  0  0  0  0  0
  -23.8961  -34.4142   25.6771 C   0  0  0  0  0  0  0  0  0  0  0  0
  -24.5797  -30.6170   20.4296 C   0  0  0  0  0  0  0  0  0  0  0  0
  -23.6549  -27.8340   20.8094 C   0  0  0  0  0  0  0  0  0  0  0  0
  -22.7698  -33.5143   25.1754 C   0  0  0  0  0  0  0  0  0  0  0  0
  -24.4053  -15.6608   20.4656 C   0  0  0  0  0  0  0  0  0  0  0  0
  -23.1184  -32.0465   25.4013 C   0  0  0  0  0  0  0  0  0  0  0  0
  -24.6437  -14.1573   20.3281 C   0  0  0  0  0  0  0  0  0  0  0  0
  -26.9257  -20.5265   19.6501 C   0  0  0  0  0  0  0  0  0  0  0  0
  -26.7343  -19.9419   22.1060 C   0  0  0  0  0  0  0  0  0  0  0  0
  -25.5015  -16.3420   21.2865 C   0  0  0  0  0  0  0  0  0  0  0  0
  -27.8100  -19.2964   19.4516 C   0  0  0  0  0  0  0  0  0  0  0  0
  -27.6255  -18.7282   21.8521 C   0  0  0  0  0  0  0  0  0  0  0  0
  -27.1107  -14.5716   20.6599 C   0  0  0  0  0  0  0  0  0  0  0  0
  -24.3796  -31.6529   24.6229 C   0  0  1  0  0  0  0  0  0  0  0  0
  -23.3269  -30.2901   21.2365 C   0  0  1  0  0  0  0  0  0  0  0  0
  -26.0566  -13.8687   19.7904 C   0  0  1  0  0  0  0  0  0  0  0  0
  -26.9654  -21.0563   21.0839 C   0  0  0  0  0  0  0  0  0  0  0  0
  -27.9796  -22.4484   24.0862 C   0  0  0  0  0  0  0  0  0  0  0  0
  -28.3610  -23.5885   19.2078 C   0  0  0  0  0  0  0  0  0  0  0  0
  -18.7423  -25.6936   17.0108 C   0  0  0  0  0  0  0  0  0  0  0  0
  -20.5839  -27.1355   23.2076 C   0  0  0  0  0  0  0  0  0  0  0  0
  -19.3866  -25.6081   21.6259 C   0  0  0  0  0  0  0  0  0  0  0  0
  -18.6501  -27.9794   21.8649 C   0  0  0  0  0  0  0  0  0  0  0  0
  -21.7461  -27.6697   15.7665 C   0  0  0  0  0  0  0  0  0  0  0  0
  -20.8119  -27.4686   20.6575 C   0  0  1  0  0  0  0  0  0  0  0  0
  -19.8117  -26.7734   17.0678 C   0  0  2  0  0  0  0  0  0  0  0  0
  -19.8857  -27.0537   21.8354 C   0  0  0  0  0  0  0  0  0  0  0  0
  -28.0792  -25.7516   22.2858 N   0  0  0  0  0  0  0  0  0  0  0  0
  -25.7413  -11.5428   20.5466 N   0  0  0  0  0  0  0  0  0  0  0  0
  -26.3214  -12.3797   19.6695 N   0  0  0  0  0  0  0  0  0  0  0  0
  -22.7490  -28.9922   20.8820 N   0  0  0  0  0  0  0  0  0  0  0  0
  -26.8310  -16.0055   20.7600 N   0  0  0  0  0  0  0  0  0  0  0  0
  -27.5395  -18.2709   20.4586 N   0  0  0  0  0  0  0  0  0  0  0  0
  -27.7622  -12.4451   17.7906 N   0  0  0  0  0  0  0  0  0  0  0  0
  -27.5191   -8.0418   18.7644 N   0  0  0  0  0  0  0  0  0  0  0  0
  -24.0690  -31.4565   23.2232 N   0  0  0  0  0  0  0  0  0  0  0  0
  -20.1690  -27.4267   19.3485 N   0  0  0  0  0  0  0  0  0  0  0  0
  -20.6656  -26.6537   15.8523 N   0  3  0  0  0  0  0  0  0  0  0  0
  -28.4524   -9.5873   17.3505 O   0  0  0  0  0  0  0  0  0  0  0  0
  -23.3473  -29.2464   23.3544 O   0  0  0  0  0  0  0  0  0  0  0  0
  -20.5686  -29.8181   20.8751 O   0  0  0  0  0  0  0  0  0  0  0  0
  -21.6511  -25.9259   18.3852 O   0  0  0  0  0  0  0  0  0  0  0  0
  -28.4599  -16.5537   19.2223 O   0  0  0  0  0  0  0  0  0  0  0  0
  -24.5874   -5.7418   22.9057 O   0  0  0  0  0  0  0  0  0  0  0  0
  -28.2546  -26.2972   20.0461 O   0  0  0  0  0  0  0  0  0  1  0  0
  -28.2136  -21.6986   21.3339 O   0  0  0  0  0  0  0  0  0  0  0  0
  -19.2546   -5.2605   24.2224 F   0  0  0  0  0  0  0  0  0  0  0  0
  -23.0798   -3.6240   21.9652 F   0  0  0  0  0  0  0  0  0  0  0  0
  1  2  1  0  0  0  0
  1  5  2  0  0  0  0
  2  6  2  0  0  0  0
  3  8  2  0  0  0  0
  3 16  1  0  0  0  0
  4  9  1  0  0  0  0
  4 16  2  0  0  0  0
  5 18  1  0  0  0  0
  6 20  1  0  0  0  0
  7 10  2  0  0  0  0
  7 19  1  0  0  0  0
  8 24  1  0  0  0  0
  9 24  2  0  0  0  0
 10 25  1  0  0  0  0
 11 12  2  0  0  0  0
 11 26  1  0  0  0  0
 12 28  1  0  0  0  0
 13 21  1  0  0  0  0
 13 25  2  0  0  0  0
 14 28  2  0  0  0  0
 14 29  1  0  0  0  0
 15 22  1  0  0  0  0
 15 65  2  0  0  0  0
 16 30  1  0  0  0  0
 17 30  1  0  0  0  0
 17 32  2  0  0  0  0
 17 33  1  0  0  0  0
 18 20  2  0  0  0  0
 18 38  1  0  0  0  0
 19 21  2  0  0  0  0
 19 39  1  0  0  0  0
 20 51  1  0  0  0  0
 21 40  1  0  0  0  0
 22 27  2  0  0  0  0
 22 55  1  0  0  0  0
 23 27  1  0  0  0  0
 23 31  2  0  0  0  0
 23 56  1  0  0  0  0
 24 81  1  0  0  0  0
 25 82  1  0  0  0  0
 26 29  2  0  0  0  0
 26 81  1  0  0  0  0
 27 83  1  0  0  0  0
 28 84  1  0  0  0  0
 29 85  1  0  0  0  0
 30 66  2  0  0  0  0
 31 65  1  0  0  0  0
 31 82  1  0  0  0  0
 32 67  1  0  0  0  0
 32 71  1  0  0  0  0
 33 72  1  0  0  0  0
 33 76  2  0  0  0  0
 34 52  1  0  0  0  0
 34 73  1  0  0  0  0
 34 77  2  0  0  0  0
 35 62  1  0  0  0  0
 35 68  1  0  0  0  0
 35 78  2  0  0  0  0
 36 63  1  0  0  0  0
 36 74  1  0  0  0  0
 36 79  2  0  0  0  0
 37 69  1  0  0  0  0
 37 70  1  0  0  0  0
 37 80  2  0  0  0  0
 38 41  1  0  0  0  0
 39 52  1  0  0  0  0
 40 68  1  0  0  0  0
 41 43  1  0  0  0  0
 42 44  1  0  0  0  0
 42 47  1  0  0  0  0
 43 51  1  0  0  0  0
 44 53  1  0  0  0  0
 45 48  1  0  0  0  0
 45 54  1  0  0  0  0
 46 49  1  0  0  0  0
 46 54  1  0  0  0  0
 47 69  1  0  0  0  0
 48 70  1  0  0  0  0
 49 70  1  0  0  0  0
 50 53  1  0  0  0  0
 50 69  1  0  0  0  0
 51 73  1  0  0  0  0
 52 68  1  0  0  0  0
 53 67  1  0  0  0  0
 54 83  1  0  0  0  0
 57 63  1  0  0  0  0
 58 64  1  0  0  0  0
 59 64  1  0  0  0  0
 60 64  1  0  0  0  0
 61 75  1  0  0  0  0
 62 64  1  0  0  0  0
 62 74  1  0  0  0  0
 63 75  1  0  0  0  0
 66 67  1  0  0  0  0
M  CHG  1  75   1
M  ISO  4  31 101  37 100  70 100  82 101
M  END
> <Batch ID>
0151

> <Smiles>
CNC(C)C(=O)NC(C(=O)N1Cc2cc([101O:1][101c:1]3ncc(C)c(OC4CC[100N:0]([100C:0](=O)N5CCCC(n6nc(-c7ccc(Oc8ccc(F)cc8F)cc7)c(C(N)=O)c6N)C5)CC4)c3C)ccc2CC1C(=O)NC1CCCc2ccccc21)C(C)(C)C

> <Shape>
0.282

> <Color>
0.089

> <Negative vol penalty>
0.000

$$$$

  -OEChem-04052321433D

 89 99  0     1  0  0  0  0  0999 V2000
  -23.9915  -37.3925   20.6703 C   0  0  0  0  0  0  0  0  0  0  0  0
  -24.8299  -36.3712   20.2352 C   0  0  0  0  0  0  0  0  0  0  0  0
  -23.0536  -10.7996   22.3393 C   0  0  0  0  0  0  0  0  0  0  0  0
  -24.4913   -8.9716   21.6847 C   0  0  0  0  0  0  0  0  0  0  0  0
  -23.3371  -37.2810   21.8963 C   0  0  0  0  0  0  0  0  0  0  0  0
  -25.0154  -35.2382   21.0265 C   0  0  0  0  0  0  0  0  0  0  0  0
  -28.9963  -21.9528   20.1191 C   0  0  0  0  0  0  0  0  0  0  0  0
  -25.8553  -29.4903   19.0868 C   0  0  0  0  0  0  0  0  0  0  0  0
  -29.0322  -20.6156   20.5142 C   0  0  0  0  0  0  0  0  0  0  0  0
  -22.4507   -9.9830   23.2959 C   0  0  0  0  0  0  0  0  0  0  0  0
  -23.8884   -8.1549   22.6414 C   0  0  0  0  0  0  0  0  0  0  0  0
  -27.0019  -28.7152   18.9188 C   0  0  0  0  0  0  0  0  0  0  0  0
  -21.0268   -6.3823   22.9572 C   0  0  0  0  0  0  0  0  0  0  0  0
  -20.6731   -5.0884   22.5747 C   0  0  0  0  0  0  0  0  0  0  0  0
  -30.1112  -22.5877   22.1663 C   0  0  0  0  0  0  0  0  0  0  0  0
  -26.6520  -27.7364   21.0957 C   0  0  0  0  0  0  0  0  0  0  0  0
  -22.1269   -4.1866   24.2807 C   0  0  0  0  0  0  0  0  0  0  0  0
  -24.0739  -10.2939   21.5336 C   0  0  0  0  0  0  0  0  0  0  0  0
  -24.0718  -11.7756   19.4570 C   0  0  0  0  0  0  0  0  0  0  0  0
  -29.5359  -22.9389   20.9451 C   0  0  0  0  0  0  0  0  0  0  0  0
  -23.5071  -36.1417   22.6987 C   0  0  0  0  0  0  0  0  0  0  0  0
  -25.1032  -29.4022   20.2671 C   0  0  0  0  0  0  0  0  0  0  0  0
  -24.3637  -35.1119   22.2651 C   0  0  0  0  0  0  0  0  0  0  0  0
  -25.4948  -28.5096   21.2751 C   0  0  0  0  0  0  0  0  0  0  0  0
  -29.6075  -20.2644   21.7354 C   0  0  0  0  0  0  0  0  0  0  0  0
  -22.8681   -8.6606   23.4470 C   0  0  0  0  0  0  0  0  0  0  0  0
  -27.4020  -27.8402   19.9245 C   0  0  0  0  0  0  0  0  0  0  0  0
  -21.9307   -6.5783   24.0015 C   0  0  0  0  0  0  0  0  0  0  0  0
  -30.1471  -21.2505   22.5614 C   0  0  0  0  0  0  0  0  0  0  0  0
  -21.2231   -3.9905   23.2364 C   0  0  0  0  0  0  0  0  0  0  0  0
  -22.4807   -5.4805   24.6632 C   0  0  0  0  0  0  0  0  0  0  0  0
  -24.6967  -11.1368   20.5448 C   0  0  0  0  0  0  0  0  0  0  0  0
  -25.0877  -12.4504   18.8253 C   0  0  0  0  0  0  0  0  0  0  0  0
  -22.6960  -11.7604   19.0537 C   0  0  0  0  0  0  0  0  0  0  0  0
  -24.3220  -31.4311   22.5859 C   0  0  0  0  0  0  0  0  0  0  0  0
  -22.4959  -28.9523   23.6073 C   0  0  0  0  0  0  0  0  0  0  0  0
  -21.9414  -25.5851   23.6454 C   0  0  0  0  0  0  0  0  0  0  0  0
  -30.3597  -14.5747   20.7079 C   0  0  0  0  0  0  0  0  0  0  0  0
  -22.8157  -36.0872   24.0380 C   0  0  0  0  0  0  0  0  0  0  0  0
  -23.8540  -30.2255   20.4217 C   0  0  0  0  0  0  0  0  0  0  0  0
  -24.7108  -28.3628   22.5527 C   0  0  0  0  0  0  0  0  0  0  0  0
  -22.7727  -34.6872   24.6448 C   0  0  0  0  0  0  0  0  0  0  0  0
  -29.8072  -12.2544   18.0645 C   0  0  0  0  0  0  0  0  0  0  0  0
  -30.8867  -25.0305   20.3417 C   0  0  0  0  0  0  0  0  0  0  0  0
  -24.1411  -34.0205   24.5466 C   0  0  0  0  0  0  0  0  0  0  0  0
  -28.3784  -11.7625   18.3022 C   0  0  0  0  0  0  0  0  0  0  0  0
  -30.7119  -26.5353   20.5790 C   0  0  0  0  0  0  0  0  0  0  0  0
  -29.3540  -16.9790   23.3925 C   0  0  0  0  0  0  0  0  0  0  0  0
  -28.7919  -25.3797   21.4558 C   0  0  0  0  0  0  0  0  0  0  0  0
  -30.5479  -12.4930   19.3784 C   0  0  0  0  0  0  0  0  0  0  0  0
  -29.6001  -18.4836   23.5022 C   0  0  0  0  0  0  0  0  0  0  0  0
  -28.4252  -12.8913   20.5655 C   0  0  0  0  0  0  0  0  0  0  0  0
  -29.6800  -17.8181   21.1765 C   0  0  0  0  0  0  0  0  0  0  0  0
  -29.4972  -24.3904   20.5155 C   0  0  2  0  0  0  0  0  0  0  0  0
  -24.5710  -33.8561   23.0838 C   0  0  1  0  0  0  0  0  0  0  0  0
  -23.4509  -30.4318   21.8785 C   0  0  1  0  0  0  0  0  0  0  0  0
  -27.6198  -12.6901   19.2704 C   0  0  2  0  0  0  0  0  0  0  0  0
  -30.0151  -16.6215   22.0684 C   0  0  2  0  0  0  0  0  0  0  0  0
  -29.2453  -26.7384   20.9396 C   0  0  2  0  0  0  0  0  0  1  0  0
  -20.3939  -23.8542   24.5975 C   0  0  0  0  0  0  0  0  0  0  0  0
  -23.8624  -29.2271   26.3215 C   0  0  0  0  0  0  0  0  0  0  0  0
  -23.0082  -26.9470   26.9044 C   0  0  0  0  0  0  0  0  0  0  0  0
  -21.4015  -28.7956   26.4315 C   0  0  0  0  0  0  0  0  0  0  0  0
  -21.0863  -24.7013   20.9535 C   0  0  0  0  0  0  0  0  0  0  0  0
  -31.2398  -22.0008   24.5359 C   0  0  0  0  0  0  0  0  0  0  0  0
  -22.7106  -27.7733   24.5254 C   0  0  1  0  0  0  0  0  0  0  0  0
  -20.6818  -24.7690   23.4173 C   0  0  2  0  0  0  0  0  0  0  0  0
  -22.7618  -28.1897   26.0225 C   0  0  0  0  0  0  0  0  0  0  0  0
  -26.0080  -11.3836   20.6037 N   0  0  0  0  0  0  0  0  0  0  0  0
  -26.2154  -12.1849   19.5449 N   0  0  0  0  0  0  0  0  0  0  0  0
  -29.6358  -18.9391   22.1139 N   0  0  3  0  0  0  0  0  0  0  0  0
  -23.5003  -29.1940   22.6594 N   0  0  0  0  0  0  0  0  0  0  0  0
  -29.7761  -13.3817   20.2504 N   0  0  0  0  0  0  0  0  0  0  0  0
  -25.1174  -13.2390   17.7301 N   0  0  0  0  0  0  0  0  0  0  0  0
  -22.2723  -10.7663   18.1612 N   0  0  0  0  0  0  0  0  0  0  0  0
  -23.8827  -32.7367   22.4775 N   0  0  0  0  0  0  0  0  0  0  0  0
  -21.6600  -26.8121   24.2080 N   0  0  0  0  0  0  0  0  0  0  0  0
  -29.5576  -15.3622   21.5246 N   0  0  0  0  0  0  0  0  0  0  0  0
  -20.8235  -23.9286   22.1948 N   0  3  0  0  0  0  0  0  0  0  0  0
  -21.8706  -12.6134   19.4596 O   0  0  0  0  0  0  0  0  0  0  0  0
  -25.3181  -31.0459   23.1868 O   0  0  0  0  0  0  0  0  0  0  0  0
  -21.4712  -29.6294   23.7221 O   0  0  0  0  0  0  0  0  0  0  0  0
  -23.0630  -25.1737   23.3570 O   0  0  0  0  0  0  0  0  0  0  0  0
  -31.5085  -14.9155   20.4061 O   0  0  0  0  0  0  0  0  0  0  0  0
  -22.2802   -7.8635   24.3806 O   0  0  0  0  0  0  0  0  0  0  0  0
  -28.5212  -27.0829   19.7633 O   0  0  0  0  0  0  0  0  0  1  0  0
  -30.7140  -20.9276   23.7580 O   0  0  0  0  0  0  0  0  0  0  0  0
  -20.8821   -2.7481   22.8700 F   0  0  0  0  0  0  0  0  0  0  0  0
  -23.3486   -5.6625   25.6678 F   0  0  0  0  0  0  0  0  0  0  0  0
  1  2  1  0  0  0  0
  1  5  2  0  0  0  0
  2  6  2  0  0  0  0
  3 10  2  0  0  0  0
  3 18  1  0  0  0  0
  4 11  1  0  0  0  0
  4 18  2  0  0  0  0
  5 21  1  0  0  0  0
  6 23  1  0  0  0  0
  7  9  2  0  0  0  0
  7 20  1  0  0  0  0
  8 12  2  0  0  0  0
  8 22  1  0  0  0  0
  9 25  1  0  0  0  0
 10 26  1  0  0  0  0
 11 26  2  0  0  0  0
 12 27  1  0  0  0  0
 13 14  2  0  0  0  0
 13 28  1  0  0  0  0
 14 30  1  0  0  0  0
 15 20  2  0  0  0  0
 15 29  1  0  0  0  0
 16 24  1  0  0  0  0
 16 27  2  0  0  0  0
 17 30  2  0  0  0  0
 17 31  1  0  0  0  0
 18 32  1  0  0  0  0
 19 32  1  0  0  0  0
 19 33  2  0  0  0  0
 19 34  1  0  0  0  0
 20 54  1  0  0  0  0
 21 23  2  0  0  0  0
 21 39  1  0  0  0  0
 22 24  2  0  0  0  0
 22 40  1  0  0  0  0
 23 55  1  0  0  0  0
 24 41  1  0  0  0  0
 25 29  2  0  0  0  0
 25 71  1  0  0  0  0
 26 85  1  0  0  0  0
 27 86  1  0  0  0  0
 28 31  2  0  0  0  0
 28 85  1  0  0  0  0
 29 87  1  0  0  0  0
 30 88  1  0  0  0  0
 31 89  1  0  0  0  0
 32 69  2  0  0  0  0
 33 70  1  0  0  0  0
 33 74  1  0  0  0  0
 34 75  1  0  0  0  0
 34 80  2  0  0  0  0
 35 56  1  0  0  0  0
 35 76  1  0  0  0  0
 35 81  2  0  0  0  0
 36 66  1  0  0  0  0
 36 72  1  0  0  0  0
 36 82  2  0  0  0  0
 37 67  1  0  0  0  0
 37 77  1  0  0  0  0
 37 83  2  0  0  0  0
 38 73  1  0  0  0  0
 38 78  1  0  0  0  0
 38 84  2  0  0  0  0
 39 42  1  0  0  0  0
 40 56  1  0  0  0  0
 41 72  1  0  0  0  0
 42 45  1  0  0  0  0
 43 46  1  0  0  0  0
 43 50  1  0  0  0  0
 44 47  1  0  0  0  0
 44 54  1  0  0  0  0
 45 55  1  0  0  0  0
 46 57  1  0  0  0  0
 47 59  1  0  0  0  0
 48 51  1  0  0  0  0
 48 58  1  0  0  0  0
 49 54  1  0  0  0  0
 49 59  1  0  0  0  0
 50 73  1  0  0  0  0
 51 71  1  0  0  0  0
 52 57  1  0  0  0  0
 52 73  1  0  0  0  0
 53 58  1  0  0  0  0
 53 71  1  0  0  0  0
 55 76  1  0  0  0  0
 56 72  1  0  0  0  0
 57 70  1  0  0  0  0
 58 78  1  0  0  0  0
 59 86  1  0  0  0  0
 60 67  1  0  0  0  0
 61 68  1  0  0  0  0
 62 68  1  0  0  0  0
 63 68  1  0  0  0  0
 64 79  1  0  0  0  0
 65 87  1  0  0  0  0
 66 68  1  0  0  0  0
 66 77  1  0  0  0  0
 67 79  1  0  0  0  0
 69 70  1  0  0  0  0
M  CHG  1  79   1
M  ISO  4  38 100  59 101  78 100  86 101
M  END
> <Batch ID>
0151

> <Smiles>
CNC(C)C(=O)NC(C(=O)N1Cc2cc([101O:1][101CH:1]3CCC(c4ccc(N5CCC([100NH:0][100C:0](=O)N6CCCC(n7nc(-c8ccc(Oc9ccc(F)cc9F)cc8)c(C(N)=O)c7N)C6)C5)c(OC)c4)C3)ccc2CC1C(=O)NC1CCCc2ccccc21)C(C)(C)C

> <Shape>
0.322

> <Color>
0.118

> <Negative vol penalty>
0.000

$$$$

  -OEChem-04052321433D

 86 95  0     1  0  0  0  0  0999 V2000
  -28.3745  -11.2021   21.2217 C   0  0  0  0  0  0  0  0  0  0  0  0
  -28.8900  -12.4332   20.8292 C   0  0  0  0  0  0  0  0  0  0  0  0
  -19.8095  -28.6626   23.4271 C   0  0  0  0  0  0  0  0  0  0  0  0
  -20.7623  -26.7382   22.3199 C   0  0  0  0  0  0  0  0  0  0  0  0
  -27.0002  -10.9735   21.1664 C   0  0  0  0  0  0  0  0  0  0  0  0
  -28.0316  -13.4361   20.3801 C   0  0  0  0  0  0  0  0  0  0  0  0
  -28.6581  -19.4693   21.2252 C   0  0  0  0  0  0  0  0  0  0  0  0
  -18.6073  -28.4568   22.7503 C   0  0  0  0  0  0  0  0  0  0  0  0
  -19.5602  -26.5323   21.6431 C   0  0  0  0  0  0  0  0  0  0  0  0
  -29.1551  -20.4842   20.4087 C   0  0  0  0  0  0  0  0  0  0  0  0
  -16.5242  -25.2056   22.3090 C   0  0  0  0  0  0  0  0  0  0  0  0
  -16.0325  -23.9018   22.2463 C   0  0  0  0  0  0  0  0  0  0  0  0
  -30.4382  -28.2537   17.2682 C   0  0  0  0  0  0  0  0  0  0  0  0
  -26.9095  -21.0012   19.6949 C   0  0  0  0  0  0  0  0  0  0  0  0
  -30.9796  -25.5903   16.6392 C   0  0  0  0  0  0  0  0  0  0  0  0
  -16.1342  -23.9794   19.8337 C   0  0  0  0  0  0  0  0  0  0  0  0
  -20.8870  -27.8033   23.2119 C   0  0  0  0  0  0  0  0  0  0  0  0
  -22.5046  -27.4833   25.1583 C   0  0  0  0  0  0  0  0  0  0  0  0
  -26.1236  -11.9774   20.7256 C   0  0  0  0  0  0  0  0  0  0  0  0
  -27.2818  -19.2051   21.2745 C   0  0  0  0  0  0  0  0  0  0  0  0
  -26.6444  -13.2203   20.3176 C   0  0  0  0  0  0  0  0  0  0  0  0
  -29.7025  -27.2319   17.8685 C   0  0  0  0  0  0  0  0  0  0  0  0
  -26.3974  -19.9841   20.5148 C   0  0  0  0  0  0  0  0  0  0  0  0
  -31.4446  -27.9438   16.3534 C   0  0  0  0  0  0  0  0  0  0  0  0
  -31.7153  -26.6121   16.0390 C   0  0  0  0  0  0  0  0  0  0  0  0
  -18.4827  -27.3917   21.8583 C   0  0  0  0  0  0  0  0  0  0  0  0
  -28.2810  -21.2484   19.6411 C   0  0  0  0  0  0  0  0  0  0  0  0
  -16.8209  -25.8963   21.1340 C   0  0  0  0  0  0  0  0  0  0  0  0
  -29.9732  -25.9002   17.5540 C   0  0  0  0  0  0  0  0  0  0  0  0
  -15.8375  -23.2887   21.0087 C   0  0  0  0  0  0  0  0  0  0  0  0
  -16.6259  -25.2832   19.8964 C   0  0  0  0  0  0  0  0  0  0  0  0
  -22.1292  -28.0157   23.9104 C   0  0  0  0  0  0  0  0  0  0  0  0
  -23.7660  -27.9803   25.3783 C   0  0  0  0  0  0  0  0  0  0  0  0
  -21.7781  -26.6169   26.0399 C   0  0  0  0  0  0  0  0  0  0  0  0
  -25.4498  -16.7086   20.5567 C   0  0  0  0  0  0  0  0  0  0  0  0
  -23.1097  -18.5504   21.8430 C   0  0  0  0  0  0  0  0  0  0  0  0
  -21.9869  -21.6748   22.6331 C   0  0  0  0  0  0  0  0  0  0  0  0
  -28.0497  -29.9348   21.6866 C   0  0  0  0  0  0  0  0  0  0  0  0
  -24.6501  -11.6677   20.6385 C   0  0  0  0  0  0  0  0  0  0  0  0
  -26.7591  -18.1244   22.1807 C   0  0  0  0  0  0  0  0  0  0  0  0
  -24.9093  -19.7540   20.5475 C   0  0  0  0  0  0  0  0  0  0  0  0
  -23.7733  -12.9101   20.5053 C   0  0  0  0  0  0  0  0  0  0  0  0
  -26.5691  -31.7002   24.3649 C   0  0  0  0  0  0  0  0  0  0  0  0
  -24.3435  -13.8556   19.4528 C   0  0  0  0  0  0  0  0  0  0  0  0
  -25.2806  -30.9348   24.6536 C   0  0  0  0  0  0  0  0  0  0  0  0
  -27.4905  -28.5046   18.3555 C   0  0  0  0  0  0  0  0  0  0  0  0
  -26.8503  -31.7413   22.8689 C   0  0  0  0  0  0  0  0  0  0  0  0
  -26.8328  -28.9798   19.6441 C   0  0  0  0  0  0  0  0  0  0  0  0
  -29.1045  -28.3619   20.0912 C   0  0  0  0  0  0  0  0  0  0  0  0
  -25.6778  -29.5823   22.5309 C   0  0  0  0  0  0  0  0  0  0  0  0
  -28.6160  -27.5866   18.8595 C   0  0  2  0  0  0  0  0  0  0  0  0
  -25.7431  -14.3416   19.8481 C   0  0  1  0  0  0  0  0  0  0  0  0
  -25.3875  -17.6045   21.7614 C   0  0  1  0  0  0  0  0  0  0  0  0
  -25.3350  -29.5297   24.0341 C   0  0  2  0  0  0  0  0  0  0  0  0
  -32.2171  -29.0552   15.7220 C   0  0  0  0  0  0  0  0  0  0  0  0
  -32.7867  -26.2570   15.0611 C   0  0  0  0  0  0  0  0  0  0  0  0
  -20.0216  -22.8650   23.6422 C   0  0  0  0  0  0  0  0  0  0  0  0
  -21.5346  -18.1311   19.2637 C   0  0  0  0  0  0  0  0  0  0  0  0
  -20.0761  -20.0561   19.9235 C   0  0  0  0  0  0  0  0  0  0  0  0
  -20.1652  -18.0137   21.3530 C   0  0  0  0  0  0  0  0  0  0  0  0
  -23.6369  -22.7849   24.8250 C   0  0  0  0  0  0  0  0  0  0  0  0
  -27.8120  -22.9832   18.0834 C   0  0  0  0  0  0  0  0  0  1  0  0
  -28.5344  -24.0300   17.2577 C   0  0  0  0  0  0  0  0  0  0  0  0
  -22.1469  -19.5831   21.3088 C   0  0  1  0  0  0  0  0  0  0  0  0
  -21.3801  -22.2348   23.9069 C   0  0  2  0  0  0  0  0  0  0  0  0
  -21.0089  -18.9493   20.4599 C   0  0  0  0  0  0  0  0  0  0  0  0
  -23.0755  -28.7916   23.3751 N   0  0  0  0  0  0  0  0  0  0  0  0
  -24.0580  -28.7505   24.2911 N   0  0  0  0  0  0  0  0  0  0  0  0
  -24.4475  -18.6816   21.4444 N   0  0  0  0  0  0  0  0  0  0  0  0
  -26.8723  -30.4000   22.2825 N   0  0  0  0  0  0  0  0  0  0  0  0
  -27.9327  -29.0656   20.6026 N   0  0  0  0  0  0  0  0  0  0  0  0
  -24.6428  -27.8294   26.3936 N   0  0  0  0  0  0  0  0  0  0  0  0
  -20.4947  -26.2009   25.6601 N   0  0  0  0  0  0  0  0  0  0  0  0
  -25.6530  -15.3752   20.8571 N   0  0  0  0  0  0  0  0  0  0  0  0
  -21.6792  -20.3414   22.4641 N   0  0  0  0  0  0  0  0  0  0  0  0
  -22.2737  -23.2733   24.4934 N   0  3  0  0  0  0  0  0  0  0  0  0
  -22.2463  -26.2365   27.1397 O   0  0  0  0  0  0  0  0  0  0  0  0
  -25.3214  -17.1912   19.4376 O   0  0  0  0  0  0  0  0  0  0  0  0
  -22.6916  -17.6642   22.5924 O   0  0  0  0  0  0  0  0  0  0  0  0
  -22.6630  -22.3533   21.8631 O   0  0  0  0  0  0  0  0  0  0  0  0
  -29.1618  -30.3125   22.0796 O   0  0  0  0  0  0  0  0  0  0  0  0
  -17.3097  -27.1904   21.1979 O   0  0  0  0  0  0  0  0  0  0  0  0
  -28.7668  -22.2460   18.8374 O   0  0  0  0  0  0  0  0  0  1  0  0
  -29.2636  -24.8902   18.1307 O   0  0  0  0  0  0  0  0  0  0  0  0
  -15.3668  -22.0361   20.9488 F   0  0  0  0  0  0  0  0  0  0  0  0
  -16.9101  -25.9413   18.7642 F   0  0  0  0  0  0  0  0  0  0  0  0
  1  2  1  0  0  0  0
  1  5  2  0  0  0  0
  2  6  2  0  0  0  0
  3  8  2  0  0  0  0
  3 17  1  0  0  0  0
  4  9  1  0  0  0  0
  4 17  2  0  0  0  0
  5 19  1  0  0  0  0
  6 21  1  0  0  0  0
  7 10  2  0  0  0  0
  7 20  1  0  0  0  0
  8 26  1  0  0  0  0
  9 26  2  0  0  0  0
 10 27  1  0  0  0  0
 11 12  2  0  0  0  0
 11 28  1  0  0  0  0
 12 30  1  0  0  0  0
 13 22  1  0  0  0  0
 13 24  2  0  0  0  0
 14 23  1  0  0  0  0
 14 27  2  0  0  0  0
 15 25  2  0  0  0  0
 15 29  1  0  0  0  0
 16 30  2  0  0  0  0
 16 31  1  0  0  0  0
 17 32  1  0  0  0  0
 18 32  1  0  0  0  0
 18 33  2  0  0  0  0
 18 34  1  0  0  0  0
 19 21  2  0  0  0  0
 19 39  1  0  0  0  0
 20 23  2  0  0  0  0
 20 40  1  0  0  0  0
 21 52  1  0  0  0  0
 22 29  2  0  0  0  0
 22 51  1  0  0  0  0
 23 41  1  0  0  0  0
 24 25  1  0  0  0  0
 24 55  1  0  0  0  0
 25 56  1  0  0  0  0
 26 82  1  0  0  0  0
 27 83  1  0  0  0  0
 28 31  2  0  0  0  0
 28 82  1  0  0  0  0
 29 84  1  0  0  0  0
 30 85  1  0  0  0  0
 31 86  1  0  0  0  0
 32 67  2  0  0  0  0
 33 68  1  0  0  0  0
 33 72  1  0  0  0  0
 34 73  1  0  0  0  0
 34 77  2  0  0  0  0
 35 53  1  0  0  0  0
 35 74  1  0  0  0  0
 35 78  2  0  0  0  0
 36 64  1  0  0  0  0
 36 69  1  0  0  0  0
 36 79  2  0  0  0  0
 37 65  1  0  0  0  0
 37 75  1  0  0  0  0
 37 80  2  0  0  0  0
 38 70  1  0  0  0  0
 38 71  1  0  0  0  0
 38 81  2  0  0  0  0
 39 42  1  0  0  0  0
 40 53  1  0  0  0  0
 41 69  1  0  0  0  0
 42 44  1  0  0  0  0
 43 45  1  0  0  0  0
 43 47  1  0  0  0  0
 44 52  1  0  0  0  0
 45 54  1  0  0  0  0
 46 48  1  0  0  0  0
 46 51  1  0  0  0  0
 47 70  1  0  0  0  0
 48 71  1  0  0  0  0
 49 51  1  0  0  0  0
 49 71  1  0  0  0  0
 50 54  1  0  0  0  0
 50 70  1  0  0  0  0
 52 74  1  0  0  0  0
 53 69  1  0  0  0  0
 54 68  1  0  0  0  0
 57 65  1  0  0  0  0
 58 66  1  0  0  0  0
 59 66  1  0  0  0  0
 60 66  1  0  0  0  0
 61 76  1  0  0  0  0
 62 63  1  0  0  0  0
 62 83  1  0  0  0  0
 63 84  1  0  0  0  0
 64 66  1  0  0  0  0
 64 75  1  0  0  0  0
 65 76  1  0  0  0  0
 67 68  1  0  0  0  0
M  CHG  1  76   1
M  ISO  4  38 100  62 101  71 100  83 101
M  END
> <Batch ID>
0151

> <Smiles>
CNC(C)C(=O)NC(C(=O)N1Cc2cc([101O:1][101CH2:1]COc3cc(C)c(C)cc3C3CC[100N:0]([100C:0](=O)N4CCCC(n5nc(-c6ccc(Oc7ccc(F)cc7F)cc6)c(C(N)=O)c5N)C4)C3)ccc2CC1C(=O)NC1CCCc2ccccc21)C(C)(C)C

> <Shape>
0.212

> <Color>
0.076

> <Negative vol penalty>
0.000

$$$$

  -OEChem-04052321433D

 88 97  0     1  0  0  0  0  0999 V2000
  -31.5134  -27.2423   14.0748 C   0  0  0  0  0  0  0  0  0  0  0  0
  -31.2440  -26.6658   15.3119 C   0  0  0  0  0  0  0  0  0  0  0  0
  -27.3029  -12.9324   19.3896 C   0  0  0  0  0  0  0  0  0  0  0  0
  -25.6630  -13.7703   20.9535 C   0  0  0  0  0  0  0  0  0  0  0  0
  -31.3106  -28.6085   13.8846 C   0  0  0  0  0  0  0  0  0  0  0  0
  -30.7727  -27.4556   16.3600 C   0  0  0  0  0  0  0  0  0  0  0  0
  -26.9254  -25.2935   18.8438 C   0  0  0  0  0  0  0  0  0  0  0  0
  -26.4341  -11.9019   19.0307 C   0  0  0  0  0  0  0  0  0  0  0  0
  -24.7942  -12.7398   20.5946 C   0  0  0  0  0  0  0  0  0  0  0  0
  -27.2413  -24.2862   19.7544 C   0  0  0  0  0  0  0  0  0  0  0  0
  -24.4178   -9.4489   21.2723 C   0  0  0  0  0  0  0  0  0  0  0  0
  -23.7624   -8.7672   22.2976 C   0  0  0  0  0  0  0  0  0  0  0  0
  -27.1881  -20.4278   23.0158 C   0  0  0  0  0  0  0  0  0  0  0  0
  -27.0367  -25.8671   21.5649 C   0  0  0  0  0  0  0  0  0  0  0  0
  -29.3872  -21.3990   23.2560 C   0  0  0  0  0  0  0  0  0  0  0  0
  -21.6301   -9.4366   21.3797 C   0  0  0  0  0  0  0  0  0  0  0  0
  -26.9174  -13.8666   20.3511 C   0  0  0  0  0  0  0  0  0  0  0  0
  -27.9079  -16.2076   20.1368 C   0  0  0  0  0  0  0  0  0  0  0  0
  -30.8274  -29.4137   14.9281 C   0  0  0  0  0  0  0  0  0  0  0  0
  -26.6731  -26.5999   19.2867 C   0  0  0  0  0  0  0  0  0  0  0  0
  -30.5645  -28.8341   16.1841 C   0  0  0  0  0  0  0  0  0  0  0  0
  -27.4594  -19.5532   24.0680 C   0  0  0  0  0  0  0  0  0  0  0  0
  -26.7154  -26.8886   20.6581 C   0  0  0  0  0  0  0  0  0  0  0  0
  -28.1520  -21.3507   22.6098 C   0  0  0  0  0  0  0  0  0  0  0  0
  -29.6585  -20.5244   24.3082 C   0  0  0  0  0  0  0  0  0  0  0  0
  -25.1797  -11.8055   19.6332 C   0  0  0  0  0  0  0  0  0  0  0  0
  -27.2998  -24.5735   21.1149 C   0  0  0  0  0  0  0  0  0  0  0  0
  -23.6794  -10.1246   20.3007 C   0  0  0  0  0  0  0  0  0  0  0  0
  -28.6946  -19.6015   24.7142 C   0  0  0  0  0  0  0  0  0  0  0  0
  -22.3686   -8.7610   22.3513 C   0  0  0  0  0  0  0  0  0  0  0  0
  -22.2856  -10.1184   20.3544 C   0  0  0  0  0  0  0  0  0  0  0  0
  -27.8146  -14.9310   20.7227 C   0  0  0  0  0  0  0  0  0  0  0  0
  -28.9027  -16.8379   20.8436 C   0  0  0  0  0  0  0  0  0  0  0  0
  -27.1619  -16.7732   19.0509 C   0  0  0  0  0  0  0  0  0  0  0  0
  -28.0341  -29.4324   18.8093 C   0  0  0  0  0  0  0  0  0  0  0  0
  -25.4856  -30.5069   20.5042 C   0  0  0  0  0  0  0  0  0  0  0  0
  -23.0317  -29.8420   22.7809 C   0  0  0  0  0  0  0  0  0  0  0  0
  -31.0726  -16.0960   26.3747 C   0  0  0  0  0  0  0  0  0  0  0  0
  -30.6689  -30.8943   14.6889 C   0  0  0  0  0  0  0  0  0  0  0  0
  -26.3075  -27.6692   18.2940 C   0  0  0  0  0  0  0  0  0  0  0  0
  -26.4328  -28.2704   21.1867 C   0  0  0  0  0  0  0  0  0  0  0  0
  -29.8113  -31.5929   15.7409 C   0  0  0  0  0  0  0  0  0  0  0  0
  -24.5112  -17.3489   23.5913 C   0  0  0  0  0  0  0  0  0  0  0  0
  -24.0070  -18.7103   24.0357 C   0  0  0  0  0  0  0  0  0  0  0  0
  -32.8930  -15.9228   23.3197 C   0  0  0  0  0  0  0  0  0  0  0  0
  -25.9979  -17.5870   23.3747 C   0  0  0  0  0  0  0  0  0  0  0  0
  -25.0922  -19.2074   24.9839 C   0  0  0  0  0  0  0  0  0  0  0  0
  -30.2290  -31.1609   17.1429 C   0  0  0  0  0  0  0  0  0  0  0  0
  -31.8063  -15.7641   22.2549 C   0  0  0  0  0  0  0  0  0  0  0  0
  -32.5389  -15.1749   24.6032 C   0  0  0  0  0  0  0  0  0  0  0  0
  -30.1316  -15.3489   24.1046 C   0  0  0  0  0  0  0  0  0  0  0  0
  -26.4048  -18.5638   24.4926 C   0  0  0  0  0  0  0  0  0  0  0  0
  -30.0286  -29.6532   17.3382 C   0  0  1  0  0  0  0  0  0  0  0  0
  -26.5735  -29.0799   18.8103 C   0  0  1  0  0  0  0  0  0  0  0  0
  -30.4177  -16.1316   22.8117 C   0  0  2  0  0  0  0  0  0  0  0  0
  -30.9872  -20.5904   24.9868 C   0  0  0  0  0  0  0  0  0  0  0  0
  -21.1239  -30.9298   23.9951 C   0  0  0  0  0  0  0  0  0  0  0  0
  -27.4658  -31.9091   22.3543 C   0  0  0  0  0  0  0  0  0  0  0  0
  -25.6198  -32.1575   24.0273 C   0  0  0  0  0  0  0  0  0  0  0  0
  -25.4317  -33.2516   21.7934 C   0  0  0  0  0  0  0  0  0  0  0  0
  -21.0604  -27.9867   21.5847 C   0  0  0  0  0  0  0  0  0  0  0  0
  -27.8609  -22.2910   21.4773 C   0  0  0  0  0  0  0  0  0  1  0  0
  -29.5686  -18.5317   28.0526 C   0  0  0  0  0  0  0  0  0  0  0  0
  -29.4797  -17.0116   28.0430 C   0  0  0  0  0  0  0  0  0  0  0  0
  -28.6215  -19.1873   27.0549 C   0  0  0  0  0  0  0  0  0  0  0  0
  -25.1963  -30.7404   21.9674 C   0  0  1  0  0  0  0  0  0  0  0  0
  -21.5417  -30.1322   22.7696 C   0  0  2  0  0  0  0  0  0  0  0  0
  -25.9357  -31.9890   22.5258 C   0  0  0  0  0  0  0  0  0  0  0  0
  -28.6812  -14.7588   21.7244 N   0  0  0  0  0  0  0  0  0  0  0  0
  -29.3285  -15.9355   21.7734 N   0  0  0  0  0  0  0  0  0  0  0  0
  -26.0861  -29.2832   20.1761 N   0  0  0  0  0  0  0  0  0  0  0  0
  -31.2112  -15.5700   25.0796 N   0  0  0  0  0  0  0  0  0  0  0  0
  -29.4461  -18.0704   20.7542 N   0  0  0  0  0  0  0  0  0  0  0  0
  -26.1764  -15.9883   18.4369 N   0  0  0  0  0  0  0  0  0  0  0  0
  -28.6309  -29.3544   17.5655 N   0  0  0  0  0  0  0  0  0  0  0  0
  -23.7440  -30.8007   22.0918 N   0  0  0  0  0  0  0  0  0  0  0  0
  -29.7812  -16.4510   26.7447 N   0  0  0  0  0  0  0  0  0  0  0  0
  -20.7663  -28.8597   22.7502 N   0  3  0  0  0  0  0  0  0  0  0  0
  -27.3746  -17.9344   18.6265 O   0  0  0  0  0  0  0  0  0  0  0  0
  -28.5790  -29.7530   19.8591 O   0  0  0  0  0  0  0  0  0  0  0  0
  -25.1831  -31.3753   19.6819 O   0  0  0  0  0  0  0  0  0  0  0  0
  -23.5157  -28.8648   23.3477 O   0  0  0  0  0  0  0  0  0  0  0  0
  -32.0297  -16.2436   27.1422 O   0  0  0  0  0  0  0  0  0  0  0  0
  -24.3316  -10.8002   19.2830 O   0  0  0  0  0  0  0  0  0  0  0  0
  -27.6086  -23.5923   22.0059 O   0  0  0  0  0  0  0  0  0  1  0  0
  -28.9603  -18.7459   25.7424 O   0  0  0  0  0  0  0  0  0  0  0  0
  -21.7392   -8.1050   23.3351 F   0  0  0  0  0  0  0  0  0  0  0  0
  -21.5709  -10.7647   19.4231 F   0  0  0  0  0  0  0  0  0  0  0  0
  1  2  1  0  0  0  0
  1  5  2  0  0  0  0
  2  6  2  0  0  0  0
  3  8  2  0  0  0  0
  3 17  1  0  0  0  0
  4  9  1  0  0  0  0
  4 17  2  0  0  0  0
  5 19  1  0  0  0  0
  6 21  1  0  0  0  0
  7 10  2  0  0  0  0
  7 20  1  0  0  0  0
  8 26  1  0  0  0  0
  9 26  2  0  0  0  0
 10 27  1  0  0  0  0
 11 12  2  0  0  0  0
 11 28  1  0  0  0  0
 12 30  1  0  0  0  0
 13 22  1  0  0  0  0
 13 24  2  0  0  0  0
 14 23  1  0  0  0  0
 14 27  2  0  0  0  0
 15 24  1  0  0  0  0
 15 25  2  0  0  0  0
 16 30  2  0  0  0  0
 16 31  1  0  0  0  0
 17 32  1  0  0  0  0
 18 32  1  0  0  0  0
 18 33  2  0  0  0  0
 18 34  1  0  0  0  0
 19 21  2  0  0  0  0
 19 39  1  0  0  0  0
 20 23  2  0  0  0  0
 20 40  1  0  0  0  0
 21 53  1  0  0  0  0
 22 29  2  0  0  0  0
 22 52  1  0  0  0  0
 23 41  1  0  0  0  0
 24 62  1  0  0  0  0
 25 29  1  0  0  0  0
 25 56  1  0  0  0  0
 26 84  1  0  0  0  0
 27 85  1  0  0  0  0
 28 31  2  0  0  0  0
 28 84  1  0  0  0  0
 29 86  1  0  0  0  0
 30 87  1  0  0  0  0
 31 88  1  0  0  0  0
 32 69  2  0  0  0  0
 33 70  1  0  0  0  0
 33 73  1  0  0  0  0
 34 74  1  0  0  0  0
 34 79  2  0  0  0  0
 35 54  1  0  0  0  0
 35 75  1  0  0  0  0
 35 80  2  0  0  0  0
 36 66  1  0  0  0  0
 36 71  1  0  0  0  0
 36 81  2  0  0  0  0
 37 67  1  0  0  0  0
 37 76  1  0  0  0  0
 37 82  2  0  0  0  0
 38 72  1  0  0  0  0
 38 77  1  0  0  0  0
 38 83  2  0  0  0  0
 39 42  1  0  0  0  0
 40 54  1  0  0  0  0
 41 71  1  0  0  0  0
 42 48  1  0  0  0  0
 43 44  1  0  0  0  0
 43 46  1  0  0  0  0
 44 47  1  0  0  0  0
 45 49  1  0  0  0  0
 45 50  1  0  0  0  0
 46 52  1  0  0  0  0
 47 52  1  0  0  0  0
 48 53  1  0  0  0  0
 49 55  1  0  0  0  0
 50 72  1  0  0  0  0
 51 55  1  0  0  0  0
 51 72  1  0  0  0  0
 53 75  1  0  0  0  0
 54 71  1  0  0  0  0
 55 70  1  0  0  0  0
 57 67  1  0  0  0  0
 58 68  1  0  0  0  0
 59 68  1  0  0  0  0
 60 68  1  0  0  0  0
 61 78  1  0  0  0  0
 62 85  1  0  0  0  0
 63 64  1  0  0  0  0
 63 65  1  0  0  0  0
 64 77  1  0  0  0  0
 65 86  1  0  0  0  0
 66 68  1  0  0  0  0
 66 76  1  0  0  0  0
 67 78  1  0  0  0  0
 69 70  1  0  0  0  0
M  CHG  1  78   1
M  ISO  4  38 100  62 101  77 100  85 101
M  END
> <Batch ID>
0151

> <Smiles>
CNC(C)C(=O)NC(C(=O)N1Cc2cc([101O:1][101CH2:1]c3cc(C)c(OCCC[100NH:0][100C:0](=O)N4CCCC(n5nc(-c6ccc(Oc7ccc(F)cc7F)cc6)c(C(N)=O)c5N)C4)c(C4CCCC4)c3)ccc2CC1C(=O)NC1CCCc2ccccc21)C(C)(C)C

> <Shape>
0.211

> <Color>
0.068

> <Negative vol penalty>
0.000

$$$$

  -OEChem-04052321433D

 85 94  0     1  0  0  0  0  0999 V2000
  -16.2322  -11.4154   24.8440 C   0  0  0  0  0  0  0  0  0  0  0  0
  -17.4974  -11.9907   24.9047 C   0  0  0  0  0  0  0  0  0  0  0  0
  -23.1361   -9.8715   19.9635 C   0  0  0  0  0  0  0  0  0  0  0  0
  -23.8021   -9.9644   22.2840 C   0  0  0  0  0  0  0  0  0  0  0  0
  -15.1591  -12.1460   24.3354 C   0  0  0  0  0  0  0  0  0  0  0  0
  -17.6904  -13.2968   24.4559 C   0  0  0  0  0  0  0  0  0  0  0  0
  -20.5217  -16.0437   27.6313 C   0  0  0  0  0  0  0  0  0  0  0  0
  -22.4091   -8.7088   20.2186 C   0  0  0  0  0  0  0  0  0  0  0  0
  -23.0750   -8.8017   22.5392 C   0  0  0  0  0  0  0  0  0  0  0  0
  -21.9000  -15.8360   27.5975 C   0  0  0  0  0  0  0  0  0  0  0  0
  -23.4637   -5.4726   22.0954 C   0  0  0  0  0  0  0  0  0  0  0  0
  -24.0727   -4.4839   22.8682 C   0  0  0  0  0  0  0  0  0  0  0  0
  -22.1588  -17.8149   26.2424 C   0  0  0  0  0  0  0  0  0  0  0  0
  -22.3000   -4.6671   24.4995 C   0  0  0  0  0  0  0  0  0  0  0  0
  -23.8326  -10.4993   20.9962 C   0  0  0  0  0  0  0  0  0  0  0  0
  -24.1216  -13.0273   20.8130 C   0  0  0  0  0  0  0  0  0  0  0  0
  -15.3372  -13.4650   23.8890 C   0  0  0  0  0  0  0  0  0  0  0  0
  -19.9496  -17.1343   26.9607 C   0  0  0  0  0  0  0  0  0  0  0  0
  -16.6190  -14.0452   23.9396 C   0  0  0  0  0  0  0  0  0  0  0  0
  -20.7733  -18.0356   26.2714 C   0  0  0  0  0  0  0  0  0  0  0  0
  -27.1650  -17.2093   27.2257 C   0  0  0  0  0  0  0  0  0  0  0  0
  -26.2650  -17.0796   26.1393 C   0  0  0  0  0  0  0  0  0  0  0  0
  -22.3785   -8.1739   21.5065 C   0  0  0  0  0  0  0  0  0  0  0  0
  -22.7184  -16.7200   26.9006 C   0  0  0  0  0  0  0  0  0  0  0  0
  -22.2729   -6.0586   22.5247 C   0  0  0  0  0  0  0  0  0  0  0  0
  -23.4909   -4.0812   24.0703 C   0  0  0  0  0  0  0  0  0  0  0  0
  -21.6910   -5.6558   23.7267 C   0  0  0  0  0  0  0  0  0  0  0  0
  -24.5843  -11.7001   20.7331 C   0  0  0  0  0  0  0  0  0  0  0  0
  -28.3852  -16.7246   26.8092 C   0  0  0  0  0  0  0  0  0  0  0  0
  -26.9626  -16.5194   25.0919 C   0  0  0  0  0  0  0  0  0  0  0  0
  -25.2102  -13.7916   20.4708 C   0  0  0  0  0  0  0  0  0  0  0  0
  -22.8238  -13.5247   21.1650 C   0  0  0  0  0  0  0  0  0  0  0  0
  -17.8671  -17.4632   24.5819 C   0  0  0  0  0  0  0  0  0  0  0  0
  -18.1101  -20.6118   25.3234 C   0  0  0  0  0  0  0  0  0  0  0  0
  -19.9510  -23.1275   26.7123 C   0  0  0  0  0  0  0  0  0  0  0  0
  -30.8469  -14.0571   20.9786 C   0  0  0  0  0  0  0  0  0  0  0  0
  -14.1567  -14.1988   23.3035 C   0  0  0  0  0  0  0  0  0  0  0  0
  -18.4640  -17.3593   27.0291 C   0  0  0  0  0  0  0  0  0  0  0  0
  -20.2107  -19.2332   25.5519 C   0  0  0  0  0  0  0  0  0  0  0  0
  -14.3692  -15.7066   23.1959 C   0  0  0  0  0  0  0  0  0  0  0  0
  -29.4183  -12.9886   18.0163 C   0  0  0  0  0  0  0  0  0  0  0  0
  -15.7383  -16.0114   22.5963 C   0  0  0  0  0  0  0  0  0  0  0  0
  -27.9739  -12.6724   18.4043 C   0  0  0  0  0  0  0  0  0  0  0  0
  -29.6806  -16.5661   23.4352 C   0  0  0  0  0  0  0  0  0  0  0  0
  -29.0331  -14.2581   24.2443 C   0  0  0  0  0  0  0  0  0  0  0  0
  -30.3891  -12.5173   19.0933 C   0  0  0  0  0  0  0  0  0  0  0  0
  -30.7762  -15.9339   22.5802 C   0  0  0  0  0  0  0  0  0  0  0  0
  -30.1439  -13.6786   23.3733 C   0  0  0  0  0  0  0  0  0  0  0  0
  -28.6662  -12.7720   20.8488 C   0  0  0  0  0  0  0  0  0  0  0  0
  -16.8633  -15.4680   23.4854 C   0  0  1  0  0  0  0  0  0  0  0  0
  -17.9357  -18.2144   25.8814 C   0  0  1  0  0  0  0  0  0  0  0  0
  -27.6404  -13.2377   19.7963 C   0  0  2  0  0  0  0  0  0  0  0  0
  -29.3560  -15.7024   24.6663 C   0  0  0  0  0  0  0  0  0  0  0  0
  -26.8552  -17.7631   28.5600 C   0  0  0  0  0  0  0  0  0  0  0  0
  -29.6685  -16.6230   27.5363 C   0  0  0  0  0  0  0  0  0  0  0  0
  -26.5131  -16.1649   23.7286 C   0  0  0  0  0  0  0  0  0  0  0  0
  -19.9040  -25.6006   27.1354 C   0  0  0  0  0  0  0  0  0  0  0  0
  -18.7667  -21.1240   22.3880 C   0  0  0  0  0  0  0  0  0  0  0  0
  -19.6238  -23.3825   23.0460 C   0  0  0  0  0  0  0  0  0  0  0  0
  -17.2268  -22.8023   23.4208 C   0  0  0  0  0  0  0  0  0  0  0  0
  -20.0793  -22.7456   29.6443 C   0  0  0  0  0  0  0  0  0  0  0  0
  -24.8399  -17.4692   26.1297 C   0  0  0  0  0  0  0  0  0  1  0  0
  -19.0003  -21.7484   24.8824 C   0  0  1  0  0  0  0  0  0  0  0  0
  -19.5792  -24.2239   27.6942 C   0  0  2  0  0  0  0  0  0  0  0  0
  -18.6651  -22.2408   23.4462 C   0  0  0  0  0  0  0  0  0  0  0  0
  -25.8669  -11.6223   20.3687 N   0  0  0  0  0  0  0  0  0  0  0  0
  -28.2502  -16.3077   25.5106 N   0  0  0  0  0  0  0  0  0  0  0  0
  -26.2194  -12.9101   20.2164 N   0  0  0  0  0  0  0  0  0  0  0  0
  -18.7516  -19.4067   25.6429 N   0  0  0  0  0  0  0  0  0  0  0  0
  -30.0348  -13.0695   20.4007 N   0  0  0  0  0  0  0  0  0  0  0  0
  -30.4497  -14.5516   22.2319 N   0  0  0  0  0  0  0  0  0  0  0  0
  -25.3931  -15.1250   20.3657 N   0  0  0  0  0  0  0  0  0  0  0  0
  -21.8199  -12.6019   21.4893 N   0  0  0  0  0  0  0  0  0  0  0  0
  -17.0702  -16.3352   24.6254 N   0  0  0  0  0  0  0  0  0  0  0  0
  -18.8860  -22.7785   25.9091 N   0  0  0  0  0  0  0  0  0  0  0  0
  -20.3237  -24.0482   28.9732 N   0  3  0  0  0  0  0  0  0  0  0  0
  -22.5575  -14.7504   21.1754 O   0  0  0  0  0  0  0  0  0  0  0  0
  -18.4899  -17.8773   23.6111 O   0  0  0  0  0  0  0  0  0  0  0  0
  -16.8911  -20.7889   25.3892 O   0  0  0  0  0  0  0  0  0  0  0  0
  -21.0749  -22.6328   26.6604 O   0  0  0  0  0  0  0  0  0  0  0  0
  -31.8618  -14.4774   20.4092 O   0  0  0  0  0  0  0  0  0  0  0  0
  -21.6690   -7.0394   21.7559 O   0  0  0  0  0  0  0  0  0  0  0  0
  -24.0711  -16.5182   26.8652 O   0  0  0  0  0  0  0  0  0  1  0  0
  -24.0750   -3.1307   24.8115 F   0  0  0  0  0  0  0  0  0  0  0  0
  -20.5464   -6.2143   24.1437 F   0  0  0  0  0  0  0  0  0  0  0  0
  1  2  1  0  0  0  0
  1  5  2  0  0  0  0
  2  6  2  0  0  0  0
  3  8  2  0  0  0  0
  3 15  1  0  0  0  0
  4  9  1  0  0  0  0
  4 15  2  0  0  0  0
  5 17  1  0  0  0  0
  6 19  1  0  0  0  0
  7 10  2  0  0  0  0
  7 18  1  0  0  0  0
  8 23  1  0  0  0  0
  9 23  2  0  0  0  0
 10 24  1  0  0  0  0
 11 12  2  0  0  0  0
 11 25  1  0  0  0  0
 12 26  1  0  0  0  0
 13 20  1  0  0  0  0
 13 24  2  0  0  0  0
 14 26  2  0  0  0  0
 14 27  1  0  0  0  0
 15 28  1  0  0  0  0
 16 28  1  0  0  0  0
 16 31  2  0  0  0  0
 16 32  1  0  0  0  0
 17 19  2  0  0  0  0
 17 37  1  0  0  0  0
 18 20  2  0  0  0  0
 18 38  1  0  0  0  0
 19 50  1  0  0  0  0
 20 39  1  0  0  0  0
 21 22  1  0  0  0  0
 21 29  2  0  0  0  0
 21 54  1  0  0  0  0
 22 30  2  0  0  0  0
 22 62  1  0  0  0  0
 23 82  1  0  0  0  0
 24 83  1  0  0  0  0
 25 27  2  0  0  0  0
 25 82  1  0  0  0  0
 26 84  1  0  0  0  0
 27 85  1  0  0  0  0
 28 66  2  0  0  0  0
 29 55  1  0  0  0  0
 29 67  1  0  0  0  0
 30 56  1  0  0  0  0
 30 67  1  0  0  0  0
 31 68  1  0  0  0  0
 31 72  1  0  0  0  0
 32 73  1  0  0  0  0
 32 77  2  0  0  0  0
 33 51  1  0  0  0  0
 33 74  1  0  0  0  0
 33 78  2  0  0  0  0
 34 63  1  0  0  0  0
 34 69  1  0  0  0  0
 34 79  2  0  0  0  0
 35 64  1  0  0  0  0
 35 75  1  0  0  0  0
 35 80  2  0  0  0  0
 36 70  1  0  0  0  0
 36 71  1  0  0  0  0
 36 81  2  0  0  0  0
 37 40  1  0  0  0  0
 38 51  1  0  0  0  0
 39 69  1  0  0  0  0
 40 42  1  0  0  0  0
 41 43  1  0  0  0  0
 41 46  1  0  0  0  0
 42 50  1  0  0  0  0
 43 52  1  0  0  0  0
 44 47  1  0  0  0  0
 44 53  1  0  0  0  0
 45 48  1  0  0  0  0
 45 53  1  0  0  0  0
 46 70  1  0  0  0  0
 47 71  1  0  0  0  0
 48 71  1  0  0  0  0
 49 52  1  0  0  0  0
 49 70  1  0  0  0  0
 50 74  1  0  0  0  0
 51 69  1  0  0  0  0
 52 68  1  0  0  0  0
 53 67  1  0  0  0  0
 57 64  1  0  0  0  0
 58 65  1  0  0  0  0
 59 65  1  0  0  0  0
 60 65  1  0  0  0  0
 61 76  1  0  0  0  0
 62 83  1  0  0  0  0
 63 65  1  0  0  0  0
 63 75  1  0  0  0  0
 64 76  1  0  0  0  0
 66 68  1  0  0  0  0
M  CHG  1  76   1
M  ISO  4  36 100  62 101  71 100  83 101
M  END
> <Batch ID>
0151

> <Smiles>
CNC(C)C(=O)NC(C(=O)N1Cc2cc([101O:1][101CH2:1]c3c(C)c(C)n(C4CC[100N:0]([100C:0](=O)N5CCCC(n6nc(-c7ccc(Oc8ccc(F)cc8F)cc7)c(C(N)=O)c6N)C5)CC4)c3C)ccc2CC1C(=O)NC1CCCc2ccccc21)C(C)(C)C

> <Shape>
0.160

> <Color>
0.205

> <Negative vol penalty>
0.000

$$$$

  -OEChem-04052321433D

 85 94  0     1  0  0  0  0  0999 V2000
  -34.0382  -28.0262   15.7957 C   0  0  0  0  0  0  0  0  0  0  0  0
  -33.6017  -26.9912   16.6165 C   0  0  0  0  0  0  0  0  0  0  0  0
  -23.3401   -9.6495   20.9176 C   0  0  0  0  0  0  0  0  0  0  0  0
  -23.9697  -10.3591   23.1396 C   0  0  0  0  0  0  0  0  0  0  0  0
  -33.4377  -29.2817   15.8801 C   0  0  0  0  0  0  0  0  0  0  0  0
  -32.5652  -27.2114   17.5228 C   0  0  0  0  0  0  0  0  0  0  0  0
  -29.1510  -23.4712   17.5157 C   0  0  0  0  0  0  0  0  0  0  0  0
  -22.6674   -8.5537   21.4582 C   0  0  0  0  0  0  0  0  0  0  0  0
  -23.2970   -9.2633   23.6802 C   0  0  0  0  0  0  0  0  0  0  0  0
  -29.4870  -22.3011   18.1953 C   0  0  0  0  0  0  0  0  0  0  0  0
  -21.4409   -6.8509   25.6686 C   0  0  0  0  0  0  0  0  0  0  0  0
  -20.6261   -7.0724   26.7789 C   0  0  0  0  0  0  0  0  0  0  0  0
  -28.3434  -18.4938   22.3867 C   0  0  0  0  0  0  0  0  0  0  0  0
  -28.1532  -23.0163   20.0738 C   0  0  0  0  0  0  0  0  0  0  0  0
  -31.0725  -18.0278   22.7295 C   0  0  0  0  0  0  0  0  0  0  0  0
  -19.2892   -8.6176   25.4896 C   0  0  0  0  0  0  0  0  0  0  0  0
  -23.9913  -10.5523   21.7583 C   0  0  0  0  0  0  0  0  0  0  0  0
  -24.1587  -12.9633   20.9419 C   0  0  0  0  0  0  0  0  0  0  0  0
  -32.3868  -29.5147   16.7811 C   0  0  0  0  0  0  0  0  0  0  0  0
  -28.3210  -24.4293   18.1154 C   0  0  0  0  0  0  0  0  0  0  0  0
  -31.9510  -28.4715   17.6202 C   0  0  0  0  0  0  0  0  0  0  0  0
  -28.7824  -17.2820   22.9199 C   0  0  0  0  0  0  0  0  0  0  0  0
  -27.8061  -24.1965   19.3987 C   0  0  0  0  0  0  0  0  0  0  0  0
  -29.2689  -19.4726   22.0247 C   0  0  0  0  0  0  0  0  0  0  0  0
  -30.6335  -19.2396   22.1962 C   0  0  0  0  0  0  0  0  0  0  0  0
  -22.6458   -8.3605   22.8394 C   0  0  0  0  0  0  0  0  0  0  0  0
  -28.9904  -22.0748   19.4756 C   0  0  0  0  0  0  0  0  0  0  0  0
  -21.1800   -7.5129   24.4688 C   0  0  0  0  0  0  0  0  0  0  0  0
  -30.1469  -17.0490   23.0914 C   0  0  0  0  0  0  0  0  0  0  0  0
  -19.5502   -7.9556   26.6893 C   0  0  0  0  0  0  0  0  0  0  0  0
  -20.1041   -8.3962   24.3793 C   0  0  0  0  0  0  0  0  0  0  0  0
  -24.6868  -11.6842   21.2005 C   0  0  0  0  0  0  0  0  0  0  0  0
  -25.2132  -13.6705   20.4181 C   0  0  0  0  0  0  0  0  0  0  0  0
  -22.8336  -13.4671   21.1560 C   0  0  0  0  0  0  0  0  0  0  0  0
  -28.6629  -27.4700   18.9762 C   0  0  0  0  0  0  0  0  0  0  0  0
  -25.4947  -27.2349   19.6315 C   0  0  0  0  0  0  0  0  0  0  0  0
  -22.8366  -25.2394   20.4057 C   0  0  0  0  0  0  0  0  0  0  0  0
  -31.1528  -13.1094   20.9261 C   0  0  0  0  0  0  0  0  0  0  0  0
  -31.8005  -30.9015   16.8696 C   0  0  0  0  0  0  0  0  0  0  0  0
  -27.9464  -25.6739   17.3586 C   0  0  0  0  0  0  0  0  0  0  0  0
  -26.8948  -25.1842   20.0787 C   0  0  0  0  0  0  0  0  0  0  0  0
  -30.4569  -30.9497   17.5925 C   0  0  0  0  0  0  0  0  0  0  0  0
  -29.2486  -13.0742   17.9178 C   0  0  0  0  0  0  0  0  0  0  0  0
  -26.6801  -16.6082   24.2618 C   0  0  0  0  0  0  0  0  0  0  0  0
  -27.7851  -15.7006   24.7040 C   0  0  0  0  0  0  0  0  0  0  0  0
  -30.5166  -30.1416   18.8849 C   0  0  0  0  0  0  0  0  0  0  0  0
  -27.8159  -12.8294   18.3947 C   0  0  0  0  0  0  0  0  0  0  0  0
  -30.2630  -12.3030   18.7594 C   0  0  0  0  0  0  0  0  0  0  0  0
  -28.7310  -12.2874   20.6898 C   0  0  0  0  0  0  0  0  0  0  0  0
  -27.7796  -16.2440   23.2998 C   0  0  0  0  0  0  0  0  0  0  0  0
  -30.8127  -28.6645   18.5986 C   0  0  1  0  0  0  0  0  0  0  0  0
  -27.5091  -26.8177   18.2685 C   0  0  1  0  0  0  0  0  0  0  0  0
  -27.6763  -13.0880   19.9069 C   0  0  2  0  0  0  0  0  0  0  0  0
  -31.6429  -20.2725   21.8161 C   0  0  0  0  0  0  0  0  0  0  0  0
  -20.3821  -25.3390   20.9185 C   0  0  0  0  0  0  0  0  0  0  0  0
  -26.1241  -28.2738   22.4305 C   0  0  0  0  0  0  0  0  0  0  0  0
  -23.8716  -27.4625   23.1626 C   0  0  0  0  0  0  0  0  0  0  0  0
  -24.0503  -29.2251   21.4065 C   0  0  0  0  0  0  0  0  0  0  0  0
  -22.1616  -23.5540   18.0684 C   0  0  0  0  0  0  0  0  0  0  0  0
  -28.7731  -20.7668   21.4499 C   0  0  0  0  0  0  0  0  0  1  0  0
  -31.8939  -13.9004   23.1586 C   0  0  0  0  0  0  0  0  0  0  0  0
  -31.8758  -15.4184   23.1792 C   0  0  0  0  0  0  0  0  0  0  0  0
  -24.6791  -26.8428   20.8399 C   0  0  1  0  0  0  0  0  0  0  0  0
  -21.4327  -25.1646   19.8329 C   0  0  2  0  0  0  0  0  0  0  0  0
  -24.7000  -27.9331   21.9481 C   0  0  0  0  0  0  0  0  0  0  0  0
  -25.9764  -11.5819   20.8683 N   0  0  0  0  0  0  0  0  0  0  0  0
  -26.2676  -12.8057   20.3955 N   0  0  0  0  0  0  0  0  0  0  0  0
  -26.5626  -26.3889   19.3003 N   0  0  0  0  0  0  0  0  0  0  0  0
  -30.0779  -12.5938   20.1832 N   0  0  0  0  0  0  0  0  0  0  0  0
  -25.3321  -14.9416   19.9793 N   0  0  0  0  0  0  0  0  0  0  0  0
  -21.8718  -12.6065   21.7025 N   0  0  0  0  0  0  0  0  0  0  0  0
  -29.6207  -27.9921   18.1280 N   0  0  0  0  0  0  0  0  0  0  0  0
  -23.3454  -26.5195   20.3448 N   0  0  0  0  0  0  0  0  0  0  0  0
  -30.8905  -13.3629   22.2668 N   0  0  0  0  0  0  0  0  0  0  0  0
  -21.2122  -23.8468   19.1728 N   0  3  0  0  0  0  0  0  0  0  0  0
  -22.5076  -14.6406   20.8558 O   0  0  0  0  0  0  0  0  0  0  0  0
  -28.6821  -27.4988   20.2012 O   0  0  0  0  0  0  0  0  0  0  0  0
  -25.1909  -28.2503   19.0004 O   0  0  0  0  0  0  0  0  0  0  0  0
  -23.4217  -24.2610   20.8648 O   0  0  0  0  0  0  0  0  0  0  0  0
  -32.2623  -13.3326   20.4299 O   0  0  0  0  0  0  0  0  0  0  0  0
  -21.9894   -7.2914   23.3673 O   0  0  0  0  0  0  0  0  0  0  0  0
  -29.3173  -20.9339   20.1414 O   0  0  0  0  0  0  0  0  0  1  0  0
  -30.5941  -15.8710   23.6103 O   0  0  0  0  0  0  0  0  0  0  0  0
  -18.7669   -8.1670   27.7551 F   0  0  0  0  0  0  0  0  0  0  0  0
  -19.8477   -9.0341   23.2290 F   0  0  0  0  0  0  0  0  0  0  0  0
  1  2  1  0  0  0  0
  1  5  2  0  0  0  0
  2  6  2  0  0  0  0
  3  8  2  0  0  0  0
  3 17  1  0  0  0  0
  4  9  1  0  0  0  0
  4 17  2  0  0  0  0
  5 19  1  0  0  0  0
  6 21  1  0  0  0  0
  7 10  2  0  0  0  0
  7 20  1  0  0  0  0
  8 26  1  0  0  0  0
  9 26  2  0  0  0  0
 10 27  1  0  0  0  0
 11 12  2  0  0  0  0
 11 28  1  0  0  0  0
 12 30  1  0  0  0  0
 13 22  2  0  0  0  0
 13 24  1  0  0  0  0
 14 23  1  0  0  0  0
 14 27  2  0  0  0  0
 15 25  1  0  0  0  0
 15 29  2  0  0  0  0
 16 30  2  0  0  0  0
 16 31  1  0  0  0  0
 17 32  1  0  0  0  0
 18 32  1  0  0  0  0
 18 33  2  0  0  0  0
 18 34  1  0  0  0  0
 19 21  2  0  0  0  0
 19 39  1  0  0  0  0
 20 23  2  0  0  0  0
 20 40  1  0  0  0  0
 21 51  1  0  0  0  0
 22 29  1  0  0  0  0
 22 50  1  0  0  0  0
 23 41  1  0  0  0  0
 24 25  2  0  0  0  0
 24 60  1  0  0  0  0
 25 54  1  0  0  0  0
 26 81  1  0  0  0  0
 27 82  1  0  0  0  0
 28 31  2  0  0  0  0
 28 81  1  0  0  0  0
 29 83  1  0  0  0  0
 30 84  1  0  0  0  0
 31 85  1  0  0  0  0
 32 66  2  0  0  0  0
 33 67  1  0  0  0  0
 33 70  1  0  0  0  0
 34 71  1  0  0  0  0
 34 76  2  0  0  0  0
 35 52  1  0  0  0  0
 35 72  1  0  0  0  0
 35 77  2  0  0  0  0
 36 63  1  0  0  0  0
 36 68  1  0  0  0  0
 36 78  2  0  0  0  0
 37 64  1  0  0  0  0
 37 73  1  0  0  0  0
 37 79  2  0  0  0  0
 38 69  1  0  0  0  0
 38 74  1  0  0  0  0
 38 80  2  0  0  0  0
 39 42  1  0  0  0  0
 40 52  1  0  0  0  0
 41 68  1  0  0  0  0
 42 46  1  0  0  0  0
 43 47  1  0  0  0  0
 43 48  1  0  0  0  0
 44 45  1  0  0  0  0
 44 50  1  0  0  0  0
 45 50  1  0  0  0  0
 46 51  1  0  0  0  0
 47 53  1  0  0  0  0
 48 69  1  0  0  0  0
 49 53  1  0  0  0  0
 49 69  1  0  0  0  0
 51 72  1  0  0  0  0
 52 68  1  0  0  0  0
 53 67  1  0  0  0  0
 55 64  1  0  0  0  0
 56 65  1  0  0  0  0
 57 65  1  0  0  0  0
 58 65  1  0  0  0  0
 59 75  1  0  0  0  0
 60 82  1  0  0  0  0
 61 62  1  0  0  0  0
 61 74  1  0  0  0  0
 62 83  1  0  0  0  0
 63 65  1  0  0  0  0
 63 73  1  0  0  0  0
 64 75  1  0  0  0  0
 66 67  1  0  0  0  0
M  CHG  1  75   1
M  ISO  4  38 100  60 101  74 100  82 101
M  END
> <Batch ID>
0151

> <Smiles>
CNC(C)C(=O)NC(C(=O)N1Cc2cc([101O:1][101CH2:1]c3cc(C4CC4)c(OCC[100NH:0][100C:0](=O)N4CCCC(n5nc(-c6ccc(Oc7ccc(F)cc7F)cc6)c(C(N)=O)c5N)C4)cc3C)ccc2CC1C(=O)NC1CCCc2ccccc21)C(C)(C)C

> <Shape>
0.243

> <Color>
0.165

> <Negative vol penalty>
0.000

$$$$

  -OEChem-04052321433D

 87 96  0     1  0  0  0  0  0999 V2000
  -28.7842  -31.7499   26.8622 C   0  0  0  0  0  0  0  0  0  0  0  0
  -28.7291  -30.6901   25.9626 C   0  0  0  0  0  0  0  0  0  0  0  0
  -24.6124   -9.1220   22.5360 C   0  0  0  0  0  0  0  0  0  0  0  0
  -25.3358   -8.0107   20.5163 C   0  0  0  0  0  0  0  0  0  0  0  0
  -27.6046  -32.3237   27.3346 C   0  0  0  0  0  0  0  0  0  0  0  0
  -27.4943  -30.2028   25.5357 C   0  0  0  0  0  0  0  0  0  0  0  0
  -27.3454  -29.3994   20.5380 C   0  0  0  0  0  0  0  0  0  0  0  0
  -23.3793   -8.4756   22.4500 C   0  0  0  0  0  0  0  0  0  0  0  0
  -24.1027   -7.3643   20.4303 C   0  0  0  0  0  0  0  0  0  0  0  0
  -27.9591  -28.2421   20.0606 C   0  0  0  0  0  0  0  0  0  0  0  0
  -22.1164   -5.4170   23.1446 C   0  0  0  0  0  0  0  0  0  0  0  0
  -21.5965   -4.8549   24.3105 C   0  0  0  0  0  0  0  0  0  0  0  0
  -25.8056  -27.1636   19.9248 C   0  0  0  0  0  0  0  0  0  0  0  0
  -27.9812  -22.6622   19.4091 C   0  0  0  0  0  0  0  0  0  0  0  0
  -19.6520   -6.2774   24.1290 C   0  0  0  0  0  0  0  0  0  0  0  0
  -25.5906   -8.8896   21.5691 C   0  0  0  0  0  0  0  0  0  0  0  0
  -28.0190   -9.1018   22.3211 C   0  0  0  0  0  0  0  0  0  0  0  0
  -26.3548  -31.8496   26.9058 C   0  0  0  0  0  0  0  0  0  0  0  0
  -25.9561  -29.4439   20.7230 C   0  0  0  0  0  0  0  0  0  0  0  0
  -26.2969  -30.7700   26.0039 C   0  0  0  0  0  0  0  0  0  0  0  0
  -25.1765  -28.3235   20.4023 C   0  0  0  0  0  0  0  0  0  0  0  0
  -27.7642  -23.7263   18.5409 C   0  0  0  0  0  0  0  0  0  0  0  0
  -28.3176  -23.6998   17.2657 C   0  0  0  0  0  0  0  0  0  0  0  0
  -23.1245   -7.5968   21.3972 C   0  0  0  0  0  0  0  0  0  0  0  0
  -27.1895  -27.1230   19.7567 C   0  0  0  0  0  0  0  0  0  0  0  0
  -21.4043   -6.4093   22.4709 C   0  0  0  0  0  0  0  0  0  0  0  0
  -20.3642   -5.2851   24.8027 C   0  0  0  0  0  0  0  0  0  0  0  0
  -20.1720   -6.8394   22.9631 C   0  0  0  0  0  0  0  0  0  0  0  0
  -26.8643   -9.5574   21.6571 C   0  0  0  0  0  0  0  0  0  0  0  0
  -28.7528  -21.6037   18.9575 C   0  0  0  0  0  0  0  0  0  0  0  0
  -29.0744  -22.5950   16.9101 C   0  0  0  0  0  0  0  0  0  0  0  0
  -28.9492  -10.0900   22.1096 C   0  0  0  0  0  0  0  0  0  0  0  0
  -28.2317   -7.8933   23.0628 C   0  0  0  0  0  0  0  0  0  0  0  0
  -24.0385  -29.8655   23.2228 C   0  0  0  0  0  0  0  0  0  0  0  0
  -21.7226  -29.8719   20.9514 C   0  0  0  0  0  0  0  0  0  0  0  0
  -20.7298  -28.9355   17.8234 C   0  0  0  0  0  0  0  0  0  0  0  0
  -28.6145  -15.7791   21.1559 C   0  0  0  0  0  0  0  0  0  0  0  0
  -25.1065  -32.4709   27.4806 C   0  0  0  0  0  0  0  0  0  0  0  0
  -25.3065  -30.7087   21.2135 C   0  0  0  0  0  0  0  0  0  0  0  0
  -23.6790  -28.3267   20.5640 C   0  0  0  0  0  0  0  0  0  0  0  0
  -23.8426  -32.1411   26.6905 C   0  0  0  0  0  0  0  0  0  0  0  0
  -30.1613  -13.4959   18.9842 C   0  0  0  0  0  0  0  0  0  0  0  0
  -23.7873  -30.6509   26.3696 C   0  0  0  0  0  0  0  0  0  0  0  0
  -29.6002  -12.1674   19.4908 C   0  0  0  0  0  0  0  0  0  0  0  0
  -30.5815  -18.8326   20.4111 C   0  0  0  0  0  0  0  0  0  0  0  0
  -28.8994  -18.4625   18.5555 C   0  0  0  0  0  0  0  0  0  0  0  0
  -29.0999  -14.5973   18.9679 C   0  0  0  0  0  0  0  0  0  0  0  0
  -29.7128  -17.9805   21.3350 C   0  0  0  0  0  0  0  0  0  0  0  0
  -28.0679  -17.6226   19.5224 C   0  0  0  0  0  0  0  0  0  0  0  0
  -27.8469  -13.4559   20.7690 C   0  0  0  0  0  0  0  0  0  0  0  0
  -24.9768  -30.2297   25.4982 C   0  0  1  0  0  0  0  0  0  0  0  0
  -23.9411  -30.4708   21.8510 C   0  0  1  0  0  0  0  0  0  0  0  0
  -28.9048  -12.3446   20.8524 C   0  0  1  0  0  0  0  0  0  0  0  0
  -29.7812  -19.4805   19.2807 C   0  0  0  0  0  0  0  0  0  0  0  0
  -28.1038  -24.8245   16.3098 C   0  0  0  0  0  0  0  0  0  0  0  0
  -18.7691  -29.0523   16.2616 C   0  0  0  0  0  0  0  0  0  0  0  0
  -20.3178  -27.6895   22.5556 C   0  0  0  0  0  0  0  0  0  0  0  0
  -18.9301  -27.1922   20.5319 C   0  0  0  0  0  0  0  0  0  0  0  0
  -18.7953  -29.4358   21.6140 C   0  0  0  0  0  0  0  0  0  0  0  0
  -22.2778  -30.4521   15.8079 C   0  0  0  0  0  0  0  0  0  0  0  0
  -30.4007  -21.3680   15.3638 C   0  0  0  0  0  0  0  0  0  0  0  0
  -26.9385  -24.8825   18.9996 C   0  0  0  0  0  0  0  0  0  1  0  0
  -20.8633  -28.8168   20.2978 C   0  0  1  0  0  0  0  0  0  0  0  0
  -20.0655  -29.7140   16.7022 C   0  0  2  0  0  0  0  0  0  0  0  0
  -19.7550  -28.2825   21.2485 C   0  0  0  0  0  0  0  0  0  0  0  0
  -27.0422  -10.7429   21.0679 N   0  0  0  0  0  0  0  0  0  0  0  0
  -29.3070  -21.5424   17.7260 N   0  0  0  0  0  0  0  0  0  0  0  0
  -28.3195  -11.0405   21.3611 N   0  0  0  0  0  0  0  0  0  0  0  0
  -23.0913  -29.5849   21.0527 N   0  0  0  0  0  0  0  0  0  0  0  0
  -28.4379  -14.7014   20.2752 N   0  0  0  0  0  0  0  0  0  0  0  0
  -28.8966  -17.0298   20.5807 N   0  0  0  0  0  0  0  0  0  0  0  0
  -30.2361  -10.2299   22.4927 N   0  0  0  0  0  0  0  0  0  0  0  0
  -27.1695   -6.9868   23.1820 N   0  0  0  0  0  0  0  0  0  0  0  0
  -24.7610  -30.6252   24.1229 N   0  0  0  0  0  0  0  0  0  0  0  0
  -20.3578  -29.4087   19.0640 N   0  0  0  0  0  0  0  0  0  0  0  0
  -20.9732  -29.8008   15.5234 N   0  3  0  0  0  0  0  0  0  0  0  0
  -29.3262   -7.6330   23.6176 O   0  0  0  0  0  0  0  0  0  0  0  0
  -23.4969  -28.7896   23.4483 O   0  0  0  0  0  0  0  0  0  0  0  0
  -21.1999  -30.9155   21.3507 O   0  0  0  0  0  0  0  0  0  0  0  0
  -21.4987  -27.9986   17.6193 O   0  0  0  0  0  0  0  0  0  0  0  0
  -28.5294  -15.6350   22.3819 O   0  0  0  0  0  0  0  0  0  0  0  0
  -21.9215   -6.9657   21.3131 O   0  0  0  0  0  0  0  0  0  0  0  0
  -27.7901  -25.9839   19.2878 O   0  0  0  0  0  0  0  0  0  1  0  0
  -28.9811  -20.5432   19.7943 O   0  0  0  0  0  0  0  0  0  0  0  0
  -29.6368  -22.5303   15.6617 O   0  0  0  0  0  0  0  0  0  0  0  0
  -19.8643   -4.7442   25.9214 F   0  0  0  0  0  0  0  0  0  0  0  0
  -19.4827   -7.7915   22.3195 F   0  0  0  0  0  0  0  0  0  0  0  0
  1  2  1  0  0  0  0
  1  5  2  0  0  0  0
  2  6  2  0  0  0  0
  3  8  2  0  0  0  0
  3 16  1  0  0  0  0
  4  9  1  0  0  0  0
  4 16  2  0  0  0  0
  5 18  1  0  0  0  0
  6 20  1  0  0  0  0
  7 10  2  0  0  0  0
  7 19  1  0  0  0  0
  8 24  1  0  0  0  0
  9 24  2  0  0  0  0
 10 25  1  0  0  0  0
 11 12  2  0  0  0  0
 11 26  1  0  0  0  0
 12 27  1  0  0  0  0
 13 21  1  0  0  0  0
 13 25  2  0  0  0  0
 14 22  1  0  0  0  0
 14 30  2  0  0  0  0
 15 27  2  0  0  0  0
 15 28  1  0  0  0  0
 16 29  1  0  0  0  0
 17 29  1  0  0  0  0
 17 32  2  0  0  0  0
 17 33  1  0  0  0  0
 18 20  2  0  0  0  0
 18 38  1  0  0  0  0
 19 21  2  0  0  0  0
 19 39  1  0  0  0  0
 20 51  1  0  0  0  0
 21 40  1  0  0  0  0
 22 23  2  0  0  0  0
 22 62  1  0  0  0  0
 23 31  1  0  0  0  0
 23 55  1  0  0  0  0
 24 82  1  0  0  0  0
 25 83  1  0  0  0  0
 26 28  2  0  0  0  0
 26 82  1  0  0  0  0
 27 86  1  0  0  0  0
 28 87  1  0  0  0  0
 29 66  2  0  0  0  0
 30 67  1  0  0  0  0
 30 84  1  0  0  0  0
 31 67  2  0  0  0  0
 31 85  1  0  0  0  0
 32 68  1  0  0  0  0
 32 72  1  0  0  0  0
 33 73  1  0  0  0  0
 33 77  2  0  0  0  0
 34 52  1  0  0  0  0
 34 74  1  0  0  0  0
 34 78  2  0  0  0  0
 35 63  1  0  0  0  0
 35 69  1  0  0  0  0
 35 79  2  0  0  0  0
 36 64  1  0  0  0  0
 36 75  1  0  0  0  0
 36 80  2  0  0  0  0
 37 70  1  0  0  0  0
 37 71  1  0  0  0  0
 37 81  2  0  0  0  0
 38 41  1  0  0  0  0
 39 52  1  0  0  0  0
 40 69  1  0  0  0  0
 41 43  1  0  0  0  0
 42 44  1  0  0  0  0
 42 47  1  0  0  0  0
 43 51  1  0  0  0  0
 44 53  1  0  0  0  0
 45 48  1  0  0  0  0
 45 54  1  0  0  0  0
 46 49  1  0  0  0  0
 46 54  1  0  0  0  0
 47 70  1  0  0  0  0
 48 71  1  0  0  0  0
 49 71  1  0  0  0  0
 50 53  1  0  0  0  0
 50 70  1  0  0  0  0
 51 74  1  0  0  0  0
 52 69  1  0  0  0  0
 53 68  1  0  0  0  0
 54 84  1  0  0  0  0
 56 64  1  0  0  0  0
 57 65  1  0  0  0  0
 58 65  1  0  0  0  0
 59 65  1  0  0  0  0
 60 76  1  0  0  0  0
 61 85  1  0  0  0  0
 62 83  1  0  0  0  0
 63 65  1  0  0  0  0
 63 75  1  0  0  0  0
 64 76  1  0  0  0  0
 66 68  1  0  0  0  0
M  CHG  1  76   1
M  ISO  4  37 100  62 101  71 100  83 101
M  END
> <Batch ID>
0151

> <Smiles>
CNC(C)C(=O)NC(C(=O)N1Cc2cc([101O:1][101CH2:1]c3cc(OC4CC[100N:0]([100C:0](=O)N5CCCC(n6nc(-c7ccc(Oc8ccc(F)cc8F)cc7)c(C(N)=O)c6N)C5)CC4)nc(OC)c3C)ccc2CC1C(=O)NC1CCCc2ccccc21)C(C)(C)C

> <Shape>
0.298

> <Color>
0.107

> <Negative vol penalty>
0.000

$$$$

  -OEChem-04052321433D

 87 96  0     1  0  0  0  0  0999 V2000
  -19.7925  -33.6712   22.9307 C   0  0  0  0  0  0  0  0  0  0  0  0
  -21.0690  -33.3238   22.5004 C   0  0  0  0  0  0  0  0  0  0  0  0
  -24.7643   -8.9112   21.5562 C   0  0  0  0  0  0  0  0  0  0  0  0
  -23.1474  -10.7005   21.4110 C   0  0  0  0  0  0  0  0  0  0  0  0
  -19.0243  -32.7519   23.6439 C   0  0  0  0  0  0  0  0  0  0  0  0
  -21.5786  -32.0572   22.7840 C   0  0  0  0  0  0  0  0  0  0  0  0
  -25.2843  -28.7027   19.2455 C   0  0  0  0  0  0  0  0  0  0  0  0
  -23.7297   -7.9757   21.5493 C   0  0  0  0  0  0  0  0  0  0  0  0
  -22.1128   -9.7650   21.4041 C   0  0  0  0  0  0  0  0  0  0  0  0
  -26.6642  -28.5038   19.2558 C   0  0  0  0  0  0  0  0  0  0  0  0
  -21.4851   -6.7287   23.7473 C   0  0  0  0  0  0  0  0  0  0  0  0
  -21.5507   -5.6841   24.6693 C   0  0  0  0  0  0  0  0  0  0  0  0
  -26.3573  -26.4828   20.5367 C   0  0  0  0  0  0  0  0  0  0  0  0
  -30.2393  -23.9466   20.3075 C   0  0  0  0  0  0  0  0  0  0  0  0
  -28.7149  -25.3290   18.4241 C   0  0  0  0  0  0  0  0  0  0  0  0
  -21.5634   -4.0858   22.8576 C   0  0  0  0  0  0  0  0  0  0  0  0
  -24.4731  -10.2737   21.4871 C   0  0  0  0  0  0  0  0  0  0  0  0
  -26.5905  -11.3557   20.5631 C   0  0  0  0  0  0  0  0  0  0  0  0
  -19.5209  -31.4700   23.9281 C   0  0  0  0  0  0  0  0  0  0  0  0
  -24.4299  -27.7975   19.8912 C   0  0  0  0  0  0  0  0  0  0  0  0
  -20.8168  -31.1203   23.5028 C   0  0  0  0  0  0  0  0  0  0  0  0
  -24.9667  -26.6711   20.5310 C   0  0  0  0  0  0  0  0  0  0  0  0
  -29.9392  -23.3529   19.0815 C   0  0  0  0  0  0  0  0  0  0  0  0
  -29.7771  -25.2316   20.5918 C   0  0  0  0  0  0  0  0  0  0  0  0
  -29.1770  -24.0441   18.1398 C   0  0  0  0  0  0  0  0  0  0  0  0
  -22.4040   -8.4026   21.4732 C   0  0  0  0  0  0  0  0  0  0  0  0
  -27.2011  -27.3953   19.9040 C   0  0  0  0  0  0  0  0  0  0  0  0
  -21.4585   -6.4518   22.3804 C   0  0  0  0  0  0  0  0  0  0  0  0
  -29.0149  -25.9228   19.6501 C   0  0  0  0  0  0  0  0  0  1  0  0
  -21.5899   -4.3627   24.2245 C   0  0  0  0  0  0  0  0  0  0  0  0
  -21.4977   -5.1304   21.9356 C   0  0  0  0  0  0  0  0  0  0  0  0
  -25.5414  -11.2405   21.4948 C   0  0  0  0  0  0  0  0  0  0  0  0
  -27.3324  -12.4210   21.0115 C   0  0  0  0  0  0  0  0  0  0  0  0
  -26.8693  -10.5699   19.3967 C   0  0  0  0  0  0  0  0  0  0  0  0
  -22.3683  -27.9888   22.3030 C   0  0  0  0  0  0  0  0  0  0  0  0
  -21.6850  -24.9348   21.4496 C   0  0  0  0  0  0  0  0  0  0  0  0
  -23.5339  -22.0093   20.4294 C   0  0  0  0  0  0  0  0  0  0  0  0
  -27.6654  -17.6038   23.0545 C   0  0  0  0  0  0  0  0  0  0  0  0
  -18.6719  -30.5267   24.7430 C   0  0  0  0  0  0  0  0  0  0  0  0
  -22.9417  -28.0120   19.8481 C   0  0  0  0  0  0  0  0  0  0  0  0
  -24.0911  -25.6588   21.2216 C   0  0  0  0  0  0  0  0  0  0  0  0
  -19.1400  -29.0752   24.6778 C   0  0  0  0  0  0  0  0  0  0  0  0
  -27.1394  -14.9609   25.3816 C   0  0  0  0  0  0  0  0  0  0  0  0
  -20.6500  -28.9918   24.8767 C   0  0  0  0  0  0  0  0  0  0  0  0
  -30.4742  -19.5477   19.4811 C   0  0  0  0  0  0  0  0  0  0  0  0
  -28.3565  -20.9046   19.7230 C   0  0  0  0  0  0  0  0  0  0  0  0
  -26.7574  -13.7694   24.5017 C   0  0  0  0  0  0  0  0  0  0  0  0
  -29.6073  -18.3923   19.9943 C   0  0  0  0  0  0  0  0  0  0  0  0
  -27.7687  -19.9452   20.7641 C   0  0  0  0  0  0  0  0  0  0  0  0
  -26.5749  -16.2703   24.8347 C   0  0  0  0  0  0  0  0  0  0  0  0
  -26.5289  -15.3574   22.5459 C   0  0  0  0  0  0  0  0  0  0  0  0
  -21.3949  -29.7474   23.7695 C   0  0  1  0  0  0  0  0  0  0  0  0
  -22.2026  -27.3009   20.9775 C   0  0  1  0  0  0  0  0  0  0  0  0
  -29.8853  -20.9393   19.7695 C   0  0  0  0  0  0  0  0  0  0  0  0
  -27.1223  -14.0220   23.0264 C   0  0  2  0  0  0  0  0  0  0  0  0
  -28.7275  -18.8168   21.1677 C   0  0  0  0  0  0  0  0  0  0  0  0
  -30.1078  -25.8524   21.9090 C   0  0  0  0  0  0  0  0  0  0  0  0
  -28.8414  -23.4288   16.8212 C   0  0  0  0  0  0  0  0  0  0  0  0
  -31.9840  -21.9081   18.7890 C   0  0  0  0  0  0  0  0  0  0  0  0
  -23.5505  -19.8770   19.1064 C   0  0  0  0  0  0  0  0  0  0  0  0
  -21.0003  -23.6067   24.1099 C   0  0  0  0  0  0  0  0  0  0  0  0
  -21.8767  -21.4533   23.1810 C   0  0  0  0  0  0  0  0  0  0  0  0
  -19.9145  -22.5634   22.1132 C   0  0  0  0  0  0  0  0  0  0  0  0
  -24.9440  -23.2897   18.1642 C   0  0  0  0  0  0  0  0  0  0  0  0
  -30.4459  -21.9766   18.7988 C   0  0  2  0  0  0  0  0  0  0  0  0
  -22.2149  -23.5739   21.8319 C   0  0  1  0  0  0  0  0  0  0  0  0
  -23.5712  -21.3962   19.0412 C   0  0  2  0  0  0  0  0  0  0  0  0
  -21.2681  -22.8225   22.8098 C   0  0  0  0  0  0  0  0  0  0  0  0
  -25.6076  -12.1593   22.4620 N   0  0  0  0  0  0  0  0  0  0  0  0
  -26.7072  -12.8619   22.1406 N   0  0  0  0  0  0  0  0  0  0  0  0
  -22.6429  -25.9160   21.1572 N   0  0  0  0  0  0  0  0  0  0  0  0
  -26.9585  -16.4503   23.4324 N   0  0  0  0  0  0  0  0  0  0  0  0
  -28.4522  -13.0143   20.5461 N   0  0  0  0  0  0  0  0  0  0  0  0
  -26.0050   -9.5127   19.0810 N   0  0  0  0  0  0  0  0  0  0  0  0
  -21.4217  -28.9640   22.5530 N   0  0  0  0  0  0  0  0  0  0  0  0
  -22.4647  -22.8668   20.5805 N   0  0  0  0  0  0  0  0  0  0  0  0
  -27.9955  -17.6927   21.7077 N   0  0  0  0  0  0  0  0  0  0  0  0
  -24.8057  -21.8189   18.3213 N   0  3  0  0  0  0  0  0  0  0  0  0
  -27.8648  -10.7883   18.6655 O   0  0  0  0  0  0  0  0  0  0  0  0
  -23.2860  -27.6582   23.0448 O   0  0  0  0  0  0  0  0  0  0  0  0
  -20.4660  -25.1184   21.4049 O   0  0  0  0  0  0  0  0  0  0  0  0
  -24.3675  -21.7503   21.2946 O   0  0  0  0  0  0  0  0  0  0  0  0
  -27.9838  -18.4862   23.8587 O   0  0  0  0  0  0  0  0  0  0  0  0
  -21.3942   -7.4900   21.4662 O   0  0  0  0  0  0  0  0  0  0  0  0
  -28.5477  -27.1991   19.9161 O   0  0  0  0  0  0  0  0  0  1  0  0
  -21.6545   -3.3598   25.1100 F   0  0  0  0  0  0  0  0  0  0  0  0
  -21.4737   -4.8582   20.6237 F   0  0  0  0  0  0  0  0  0  0  0  0
  1  2  1  0  0  0  0
  1  5  2  0  0  0  0
  2  6  2  0  0  0  0
  3  8  2  0  0  0  0
  3 17  1  0  0  0  0
  4  9  1  0  0  0  0
  4 17  2  0  0  0  0
  5 19  1  0  0  0  0
  6 21  1  0  0  0  0
  7 10  2  0  0  0  0
  7 20  1  0  0  0  0
  8 26  1  0  0  0  0
  9 26  2  0  0  0  0
 10 27  1  0  0  0  0
 11 12  2  0  0  0  0
 11 28  1  0  0  0  0
 12 30  1  0  0  0  0
 13 22  1  0  0  0  0
 13 27  2  0  0  0  0
 14 23  2  0  0  0  0
 14 24  1  0  0  0  0
 15 25  2  0  0  0  0
 15 29  1  0  0  0  0
 16 30  2  0  0  0  0
 16 31  1  0  0  0  0
 17 32  1  0  0  0  0
 18 32  1  0  0  0  0
 18 33  2  0  0  0  0
 18 34  1  0  0  0  0
 19 21  2  0  0  0  0
 19 39  1  0  0  0  0
 20 22  2  0  0  0  0
 20 40  1  0  0  0  0
 21 52  1  0  0  0  0
 22 41  1  0  0  0  0
 23 25  1  0  0  0  0
 23 65  1  0  0  0  0
 24 29  2  0  0  0  0
 24 57  1  0  0  0  0
 25 58  1  0  0  0  0
 26 84  1  0  0  0  0
 27 85  1  0  0  0  0
 28 31  2  0  0  0  0
 28 84  1  0  0  0  0
 29 85  1  0  0  0  0
 30 86  1  0  0  0  0
 31 87  1  0  0  0  0
 32 69  2  0  0  0  0
 33 70  1  0  0  0  0
 33 73  1  0  0  0  0
 34 74  1  0  0  0  0
 34 79  2  0  0  0  0
 35 53  1  0  0  0  0
 35 75  1  0  0  0  0
 35 80  2  0  0  0  0
 36 66  1  0  0  0  0
 36 71  1  0  0  0  0
 36 81  2  0  0  0  0
 37 67  1  0  0  0  0
 37 76  1  0  0  0  0
 37 82  2  0  0  0  0
 38 72  1  0  0  0  0
 38 77  1  0  0  0  0
 38 83  2  0  0  0  0
 39 42  1  0  0  0  0
 40 53  1  0  0  0  0
 41 71  1  0  0  0  0
 42 44  1  0  0  0  0
 43 47  1  0  0  0  0
 43 50  1  0  0  0  0
 44 52  1  0  0  0  0
 45 48  1  0  0  0  0
 45 54  1  0  0  0  0
 46 49  1  0  0  0  0
 46 54  1  0  0  0  0
 47 55  1  0  0  0  0
 48 56  1  0  0  0  0
 49 56  1  0  0  0  0
 50 72  1  0  0  0  0
 51 55  1  0  0  0  0
 51 72  1  0  0  0  0
 52 75  1  0  0  0  0
 53 71  1  0  0  0  0
 54 65  1  0  0  0  0
 55 70  1  0  0  0  0
 56 77  1  0  0  0  0
 59 65  1  0  0  0  0
 60 67  1  0  0  0  0
 61 68  1  0  0  0  0
 62 68  1  0  0  0  0
 63 68  1  0  0  0  0
 64 78  1  0  0  0  0
 66 68  1  0  0  0  0
 66 76  1  0  0  0  0
 67 78  1  0  0  0  0
 69 70  1  0  0  0  0
M  CHG  1  78   1
M  ISO  4  29 101  38 100  77 100  85 101
M  END
> <Batch ID>
0151

> <Smiles>
CNC(C)C(=O)NC(C(=O)N1Cc2cc([101O:1][101c:1]3cc(C)c(C(C)C4CCC([100NH:0][100C:0](=O)N5CCCC(n6nc(-c7ccc(Oc8ccc(F)cc8F)cc7)c(C(N)=O)c6N)C5)CC4)cc3C)ccc2CC1C(=O)NC1CCCc2ccccc21)C(C)(C)C

> <Shape>
0.255

> <Color>
0.097

> <Negative vol penalty>
0.000

$$$$

  -OEChem-04052321433D

 89 98  0     1  0  0  0  0  0999 V2000
  -29.5355  -20.7768   40.3220 C   0  0  0  0  0  0  0  0  0  0  0  0
  -29.3754  -20.9506   38.9510 C   0  0  0  0  0  0  0  0  0  0  0  0
  -23.1022   -9.8619   19.9215 C   0  0  0  0  0  0  0  0  0  0  0  0
  -23.7956   -9.8787   22.2358 C   0  0  0  0  0  0  0  0  0  0  0  0
  -29.3147  -19.5253   40.8954 C   0  0  0  0  0  0  0  0  0  0  0  0
  -28.9954  -19.8725   38.1524 C   0  0  0  0  0  0  0  0  0  0  0  0
  -25.4232  -20.0524   33.1812 C   0  0  0  0  0  0  0  0  0  0  0  0
  -22.3446   -8.7146   20.1569 C   0  0  0  0  0  0  0  0  0  0  0  0
  -23.0379   -8.7315   22.4712 C   0  0  0  0  0  0  0  0  0  0  0  0
  -25.7135  -20.0715   31.8177 C   0  0  0  0  0  0  0  0  0  0  0  0
  -19.7890   -7.9562   22.9850 C   0  0  0  0  0  0  0  0  0  0  0  0
  -18.9984   -7.9279   24.1338 C   0  0  0  0  0  0  0  0  0  0  0  0
  -25.4105  -17.6800   31.7259 C   0  0  0  0  0  0  0  0  0  0  0  0
  -25.4312  -17.4965   26.6497 C   0  0  0  0  0  0  0  0  0  0  0  0
  -27.9044  -18.5797   25.9479 C   0  0  0  0  0  0  0  0  0  0  0  0
  -20.2064   -5.9879   24.9175 C   0  0  0  0  0  0  0  0  0  0  0  0
  -23.8278  -10.4439   20.9610 C   0  0  0  0  0  0  0  0  0  0  0  0
  -24.1881  -12.9662   20.8356 C   0  0  0  0  0  0  0  0  0  0  0  0
  -28.9224  -18.4336   40.1048 C   0  0  0  0  0  0  0  0  0  0  0  0
  -25.1345  -18.8435   33.8306 C   0  0  0  0  0  0  0  0  0  0  0  0
  -28.7704  -18.6048   38.7156 C   0  0  0  0  0  0  0  0  0  0  0  0
  -25.1143  -17.6486   33.0971 C   0  0  0  0  0  0  0  0  0  0  0  0
  -25.7561  -17.6800   25.3057 C   0  0  0  0  0  0  0  0  0  0  0  0
  -27.5795  -18.3962   27.2919 C   0  0  0  0  0  0  0  0  0  0  0  0
  -26.3429  -17.8547   27.6428 C   0  0  0  0  0  0  0  0  0  0  0  0
  -26.9927  -18.2215   24.9548 C   0  0  0  0  0  0  0  0  0  0  0  0
  -22.3124   -8.1494   21.4317 C   0  0  0  0  0  0  0  0  0  0  0  0
  -25.7100  -18.8848   31.0904 C   0  0  0  0  0  0  0  0  0  0  0  0
  -20.7884   -7.0003   22.8024 C   0  0  0  0  0  0  0  0  0  0  0  0
  -19.2071   -6.9438   25.1000 C   0  0  0  0  0  0  0  0  0  0  0  0
  -20.9971   -6.0162   23.7687 C   0  0  0  0  0  0  0  0  0  0  0  0
  -24.6111  -11.6287   20.7184 C   0  0  0  0  0  0  0  0  0  0  0  0
  -25.2947  -13.7071   20.4995 C   0  0  0  0  0  0  0  0  0  0  0  0
  -22.9091  -13.4920   21.2145 C   0  0  0  0  0  0  0  0  0  0  0  0
  -26.4762  -17.1881   36.1893 C   0  0  0  0  0  0  0  0  0  0  0  0
  -23.8433  -15.3231   35.8548 C   0  0  0  0  0  0  0  0  0  0  0  0
  -21.3036  -14.2278   33.8554 C   0  0  0  0  0  0  0  0  0  0  0  0
  -30.6613  -14.7753   20.6720 C   0  0  0  0  0  0  0  0  0  0  0  0
  -28.7412  -17.0887   40.7628 C   0  0  0  0  0  0  0  0  0  0  0  0
  -24.7972  -18.8433   35.2964 C   0  0  0  0  0  0  0  0  0  0  0  0
  -24.7907  -16.3270   33.7430 C   0  0  0  0  0  0  0  0  0  0  0  0
  -27.9768  -16.0870   39.9011 C   0  0  0  0  0  0  0  0  0  0  0  0
  -29.6920  -12.3277   18.4306 C   0  0  0  0  0  0  0  0  0  0  0  0
  -28.5153  -16.0904   38.4739 C   0  0  0  0  0  0  0  0  0  0  0  0
  -28.2456  -12.0278   18.8240 C   0  0  0  0  0  0  0  0  0  0  0  0
  -29.0135  -17.9422   21.6631 C   0  0  0  0  0  0  0  0  0  0  0  0
  -28.4877  -16.1748   23.3802 C   0  0  0  0  0  0  0  0  0  0  0  0
  -30.5660  -12.5145   19.6656 C   0  0  0  0  0  0  0  0  0  0  0  0
  -30.2406  -17.1395   21.2397 C   0  0  0  0  0  0  0  0  0  0  0  0
  -29.7268  -15.4087   22.9287 C   0  0  0  0  0  0  0  0  0  0  0  0
  -28.6323  -13.2909   20.9973 C   0  0  0  0  0  0  0  0  0  0  0  0
  -28.3352  -17.4655   37.8196 C   0  0  1  0  0  0  0  0  0  0  0  0
  -25.0218  -17.4886   35.9611 C   0  0  1  0  0  0  0  0  0  0  0  0
  -28.6422  -17.6808   23.1285 C   0  0  0  0  0  0  0  0  0  0  0  0
  -27.7003  -13.1002   19.7838 C   0  0  2  0  0  0  0  0  0  0  0  0
  -24.7643  -17.2886   24.2599 C   0  0  0  0  0  0  0  0  0  0  0  0
  -28.5713  -18.7877   28.3377 C   0  0  0  0  0  0  0  0  0  0  0  0
  -26.6154  -21.9759   22.8930 C   0  0  0  0  0  0  0  0  0  0  0  0
  -19.3312  -12.6765   33.8483 C   0  0  0  0  0  0  0  0  0  0  0  0
  -25.7234  -12.9378   35.5633 C   0  0  0  0  0  0  0  0  0  0  0  0
  -23.8045  -11.6280   34.6302 C   0  0  0  0  0  0  0  0  0  0  0  0
  -23.6972  -12.5039   36.9635 C   0  0  0  0  0  0  0  0  0  0  0  0
  -19.4106  -16.4500   33.3683 C   0  0  0  0  0  0  0  0  0  0  0  0
  -25.9727  -17.6497   29.0751 C   0  0  0  0  0  0  0  0  0  1  0  0
  -26.3368  -20.5057   23.1226 C   0  0  0  0  0  0  0  0  0  0  0  0
  -27.3664  -18.4287   23.5082 C   0  0  2  0  0  0  0  0  0  0  0  0
  -23.4886  -14.1131   35.0247 C   0  0  1  0  0  0  0  0  0  0  0  0
  -19.8117  -14.0967   34.1030 C   0  0  2  0  0  0  0  0  0  0  0  0
  -24.1865  -12.8202   35.5333 C   0  0  0  0  0  0  0  0  0  0  0  0
  -25.8869  -11.5229   20.3374 N   0  0  0  0  0  0  0  0  0  0  0  0
  -26.2750  -12.8034   20.2122 N   0  0  0  0  0  0  0  0  0  0  0  0
  -24.4738  -16.3779   35.1798 N   0  0  0  0  0  0  0  0  0  0  0  0
  -30.0124  -13.5370   20.5532 N   0  0  0  0  0  0  0  0  0  0  0  0
  -30.0778  -15.7168   21.5359 N   0  0  0  0  0  0  0  0  0  0  0  0
  -25.5151  -15.0368   20.4245 N   0  0  0  0  0  0  0  0  0  0  0  0
  -21.8825  -12.5908   21.5279 N   0  0  0  0  0  0  0  0  0  0  0  0
  -26.9630  -17.6487   37.3977 N   0  0  0  0  0  0  0  0  0  0  0  0
  -22.0316  -14.0400   35.0113 N   0  0  0  0  0  0  0  0  0  0  0  0
  -19.0551  -15.0166   33.2073 N   0  3  0  0  0  0  0  0  0  0  0  0
  -22.6787  -14.7243   21.2575 O   0  0  0  0  0  0  0  0  0  0  0  0
  -27.1095  -16.5818   35.3330 O   0  0  0  0  0  0  0  0  0  0  0  0
  -23.5645  -15.3349   37.0564 O   0  0  0  0  0  0  0  0  0  0  0  0
  -21.7762  -14.4688   32.7468 O   0  0  0  0  0  0  0  0  0  0  0  0
  -31.6960  -15.0287   20.0426 O   0  0  0  0  0  0  0  0  0  0  0  0
  -21.5730   -7.0301   21.6618 O   0  0  0  0  0  0  0  0  0  0  0  0
  -25.9958  -18.9007   29.7501 O   0  0  0  0  0  0  0  0  0  1  0  0
  -27.5700  -19.8216   23.2881 O   0  0  0  0  0  0  0  0  0  0  0  0
  -18.4488   -6.9178   26.2039 F   0  0  0  0  0  0  0  0  0  0  0  0
  -21.9564   -5.0959   23.5994 F   0  0  0  0  0  0  0  0  0  0  0  0
  1  2  1  0  0  0  0
  1  5  2  0  0  0  0
  2  6  2  0  0  0  0
  3  8  2  0  0  0  0
  3 17  1  0  0  0  0
  4  9  1  0  0  0  0
  4 17  2  0  0  0  0
  5 19  1  0  0  0  0
  6 21  1  0  0  0  0
  7 10  2  0  0  0  0
  7 20  1  0  0  0  0
  8 27  1  0  0  0  0
  9 27  2  0  0  0  0
 10 28  1  0  0  0  0
 11 12  2  0  0  0  0
 11 29  1  0  0  0  0
 12 30  1  0  0  0  0
 13 22  1  0  0  0  0
 13 28  2  0  0  0  0
 14 23  1  0  0  0  0
 14 25  2  0  0  0  0
 15 24  2  0  0  0  0
 15 26  1  0  0  0  0
 16 30  2  0  0  0  0
 16 31  1  0  0  0  0
 17 32  1  0  0  0  0
 18 32  1  0  0  0  0
 18 33  2  0  0  0  0
 18 34  1  0  0  0  0
 19 21  2  0  0  0  0
 19 39  1  0  0  0  0
 20 22  2  0  0  0  0
 20 40  1  0  0  0  0
 21 52  1  0  0  0  0
 22 41  1  0  0  0  0
 23 26  2  0  0  0  0
 23 56  1  0  0  0  0
 24 25  1  0  0  0  0
 24 57  1  0  0  0  0
 25 64  1  0  0  0  0
 26 66  1  0  0  0  0
 27 85  1  0  0  0  0
 28 86  1  0  0  0  0
 29 31  2  0  0  0  0
 29 85  1  0  0  0  0
 30 88  1  0  0  0  0
 31 89  1  0  0  0  0
 32 70  2  0  0  0  0
 33 71  1  0  0  0  0
 33 75  1  0  0  0  0
 34 76  1  0  0  0  0
 34 80  2  0  0  0  0
 35 53  1  0  0  0  0
 35 77  1  0  0  0  0
 35 81  2  0  0  0  0
 36 67  1  0  0  0  0
 36 72  1  0  0  0  0
 36 82  2  0  0  0  0
 37 68  1  0  0  0  0
 37 78  1  0  0  0  0
 37 83  2  0  0  0  0
 38 73  1  0  0  0  0
 38 74  1  0  0  0  0
 38 84  2  0  0  0  0
 39 42  1  0  0  0  0
 40 53  1  0  0  0  0
 41 72  1  0  0  0  0
 42 44  1  0  0  0  0
 43 45  1  0  0  0  0
 43 48  1  0  0  0  0
 44 52  1  0  0  0  0
 45 55  1  0  0  0  0
 46 49  1  0  0  0  0
 46 54  1  0  0  0  0
 47 50  1  0  0  0  0
 47 54  1  0  0  0  0
 48 73  1  0  0  0  0
 49 74  1  0  0  0  0
 50 74  1  0  0  0  0
 51 55  1  0  0  0  0
 51 73  1  0  0  0  0
 52 77  1  0  0  0  0
 53 72  1  0  0  0  0
 54 66  1  0  0  0  0
 55 71  1  0  0  0  0
 58 65  1  0  0  0  0
 59 68  1  0  0  0  0
 60 69  1  0  0  0  0
 61 69  1  0  0  0  0
 62 69  1  0  0  0  0
 63 79  1  0  0  0  0
 64 86  1  0  0  0  0
 65 87  1  0  0  0  0
 66 87  1  0  0  0  0
 67 69  1  0  0  0  0
 67 78  1  0  0  0  0
 68 79  1  0  0  0  0
 70 71  1  0  0  0  0
M  CHG  1  79   1
M  ISO  4  38 100  64 101  74 100  86 101
M  END
> <Batch ID>
0151

> <Smiles>
CCOC(c1cc(C)c([101CH2:1][101O:1]c2ccc3c(c2)CN(C(=O)C(NC(=O)C(C)NC)C(C)(C)C)C(C(=O)NC2CCCc4ccccc42)C3)cc1C)C1CC[100N:0]([100C:0](=O)N2CCCC(n3nc(-c4ccc(Oc5ccc(F)cc5F)cc4)c(C(N)=O)c3N)C2)CC1

> <Shape>
0.164

> <Color>
0.194

> <Negative vol penalty>
0.000

$$$$

  -OEChem-04052321433D

 88 98  0     1  0  0  0  0  0999 V2000
  -29.6852  -34.3960   26.6085 C   0  0  0  0  0  0  0  0  0  0  0  0
  -29.3148  -33.1807   26.0417 C   0  0  0  0  0  0  0  0  0  0  0  0
  -26.5602   -8.3713   22.3564 C   0  0  0  0  0  0  0  0  0  0  0  0
  -24.9137   -7.9581   20.6373 C   0  0  0  0  0  0  0  0  0  0  0  0
  -28.7255  -35.3840   26.8253 C   0  0  0  0  0  0  0  0  0  0  0  0
  -27.9844  -32.9522   25.6923 C   0  0  0  0  0  0  0  0  0  0  0  0
  -27.5144  -30.8196   21.1233 C   0  0  0  0  0  0  0  0  0  0  0  0
  -26.0337   -7.3241   23.1124 C   0  0  0  0  0  0  0  0  0  0  0  0
  -24.3872   -6.9108   21.3933 C   0  0  0  0  0  0  0  0  0  0  0  0
  -27.7662  -29.4515   21.0302 C   0  0  0  0  0  0  0  0  0  0  0  0
  -22.3463   -6.5467   24.0641 C   0  0  0  0  0  0  0  0  0  0  0  0
  -20.9589   -6.4690   24.1859 C   0  0  0  0  0  0  0  0  0  0  0  0
  -28.7082  -24.7495   19.4827 C   0  0  0  0  0  0  0  0  0  0  0  0
  -25.3934  -29.0184   21.0682 C   0  0  0  0  0  0  0  0  0  0  0  0
  -28.1364  -24.5068   21.8175 C   0  0  0  0  0  0  0  0  0  0  0  0
  -20.9909   -4.2841   23.1551 C   0  0  0  0  0  0  0  0  0  0  0  0
  -26.0002   -8.6884   21.1188 C   0  0  0  0  0  0  0  0  0  0  0  0
  -27.5675   -9.6934   19.3749 C   0  0  0  0  0  0  0  0  0  0  0  0
  -27.3844  -35.1712   26.4695 C   0  0  0  0  0  0  0  0  0  0  0  0
  -26.1983  -31.2975   21.2006 C   0  0  0  0  0  0  0  0  0  0  0  0
  -27.0057  -33.9378   25.9058 C   0  0  0  0  0  0  0  0  0  0  0  0
  -28.7763  -23.3622   19.3552 C   0  0  0  0  0  0  0  0  0  0  0  0
  -25.1275  -30.3931   21.1595 C   0  0  0  0  0  0  0  0  0  0  0  0
  -28.3883  -25.3218   20.7139 C   0  0  0  0  0  0  0  0  0  0  0  0
  -28.2044  -23.1194   21.6899 C   0  0  0  0  0  0  0  0  0  0  0  0
  -24.9472   -6.5938   22.6309 C   0  0  0  0  0  0  0  0  0  0  0  0
  -26.7058  -28.5505   21.0056 C   0  0  0  0  0  0  0  0  0  0  0  0
  -23.0560   -5.4932   23.4878 C   0  0  0  0  0  0  0  0  0  0  0  0
  -28.5244  -22.5471   20.4587 C   0  0  0  0  0  0  0  0  0  0  0  0
  -20.2813   -5.3377   23.7314 C   0  0  0  0  0  0  0  0  0  0  0  0
  -22.3783   -4.3619   23.0333 C   0  0  0  0  0  0  0  0  0  0  0  0
  -26.5433   -9.7705   20.3376 C   0  0  0  0  0  0  0  0  0  0  0  0
  -27.7130  -10.9827   18.9244 C   0  0  0  0  0  0  0  0  0  0  0  0
  -28.3200   -8.5578   18.9277 C   0  0  0  0  0  0  0  0  0  0  0  0
  -24.5285  -32.9327   23.3550 C   0  0  0  0  0  0  0  0  0  0  0  0
  -22.2638  -32.9253   21.0326 C   0  0  0  0  0  0  0  0  0  0  0  0
  -20.9844  -31.4415   18.2383 C   0  0  0  0  0  0  0  0  0  0  0  0
  -28.1485  -16.2824   19.6571 C   0  0  0  0  0  0  0  0  0  0  0  0
  -26.3744  -36.2511   26.7665 C   0  0  0  0  0  0  0  0  0  0  0  0
  -25.9426  -32.7779   21.2736 C   0  0  0  0  0  0  0  0  0  0  0  0
  -23.6956  -30.8563   21.2193 C   0  0  0  0  0  0  0  0  0  0  0  0
  -25.0533  -36.0707   26.0232 C   0  0  0  0  0  0  0  0  0  0  0  0
  -24.8506  -15.0801   19.6551 C   0  0  0  0  0  0  0  0  0  0  0  0
  -30.2850  -21.8181   17.9362 C   0  0  0  0  0  0  0  0  0  0  0  0
  -30.3944  -23.1898   17.3476 C   0  0  0  0  0  0  0  0  0  0  0  0
  -24.5726  -34.6270   26.1316 C   0  0  0  0  0  0  0  0  0  0  0  0
  -25.0774  -13.5719   19.7561 C   0  0  0  0  0  0  0  0  0  0  0  0
  -27.5684  -19.7981   18.6320 C   0  0  0  0  0  0  0  0  0  0  0  0
  -26.9706  -19.5434   21.0789 C   0  0  0  0  0  0  0  0  0  0  0  0
  -25.8134  -15.8653   20.5474 C   0  0  0  0  0  0  0  0  0  0  0  0
  -28.4480  -18.5536   18.7428 C   0  0  0  0  0  0  0  0  0  0  0  0
  -27.8662  -18.3079   21.1346 C   0  0  0  0  0  0  0  0  0  0  0  0
  -27.4662  -14.0295   20.4284 C   0  0  0  0  0  0  0  0  0  0  0  0
  -29.1205  -22.7676   18.0299 C   0  0  0  0  0  0  0  0  0  0  0  0
  -25.5769  -33.6616   25.4905 C   0  0  1  0  0  0  0  0  0  0  0  0
  -24.5787  -33.1203   21.8651 C   0  0  1  0  0  0  0  0  0  0  0  0
  -26.5525  -13.2164   19.4982 C   0  0  1  0  0  0  0  0  0  0  0  0
  -27.3866  -20.5130   19.9713 C   0  0  0  0  0  0  0  0  0  0  0  0
  -27.9321  -22.2636   22.8831 C   0  0  0  0  0  0  0  0  0  0  0  0
  -19.1058  -31.6412   16.5866 C   0  0  0  0  0  0  0  0  0  0  0  0
  -20.3319  -31.7732   23.0942 C   0  0  0  0  0  0  0  0  0  0  0  0
  -18.8200  -31.1187   21.2090 C   0  0  0  0  0  0  0  0  0  0  0  0
  -19.3465  -33.5246   21.6056 C   0  0  0  0  0  0  0  0  0  0  0  0
  -22.8572  -31.8251   15.9790 C   0  0  0  0  0  0  0  0  0  0  0  0
  -28.3138  -26.8052   20.8498 C   0  0  0  0  0  0  0  0  0  1  0  0
  -21.1284  -32.0071   20.6495 C   0  0  1  0  0  0  0  0  0  0  0  0
  -20.5449  -32.0165   16.9039 C   0  0  2  0  0  0  0  0  0  0  0  0
  -19.9336  -32.0967   21.6404 C   0  0  0  0  0  0  0  0  0  0  0  0
  -26.0716  -11.0107   20.4906 N   0  0  0  0  0  0  0  0  0  0  0  0
  -26.8028  -11.7248   19.6179 N   0  0  0  0  0  0  0  0  0  0  0  0
  -23.4973  -32.3131   21.2964 N   0  0  0  0  0  0  0  0  0  0  0  0
  -27.2033  -15.4637   20.2932 N   0  0  0  0  0  0  0  0  0  0  0  0
  -27.9973  -17.6701   19.8176 N   0  0  0  0  0  0  0  0  0  0  0  0
  -28.5296  -11.5427   18.0068 N   0  0  0  0  0  0  0  0  0  0  0  0
  -28.0424   -7.3068   19.4954 N   0  0  0  0  0  0  0  0  0  0  0  0
  -25.4541  -33.6885   24.0488 N   0  0  0  0  0  0  0  0  0  0  0  0
  -20.7862  -32.3349   19.2697 N   0  0  0  0  0  0  0  0  0  0  0  0
  -21.4163  -31.5065   15.8078 N   0  3  0  0  0  0  0  0  0  0  0  0
  -29.2233   -8.6526   18.0626 O   0  0  0  0  0  0  0  0  0  0  0  0
  -23.7095  -32.1605   23.8395 O   0  0  0  0  0  0  0  0  0  0  0  0
  -22.0655  -34.1415   21.0886 O   0  0  0  0  0  0  0  0  0  0  0  0
  -21.4529  -30.3112   18.3547 O   0  0  0  0  0  0  0  0  0  0  0  0
  -29.0702  -15.8054   18.9832 O   0  0  0  0  0  0  0  0  0  0  0  0
  -24.4334   -5.5716   23.3683 O   0  0  0  0  0  0  0  0  0  0  0  0
  -28.5908  -21.1843   20.3352 O   0  0  0  0  0  0  0  0  0  0  0  0
  -26.9505  -27.2053   20.9148 O   0  0  0  0  0  0  0  0  0  1  0  0
  -18.9492   -5.2625   23.8498 F   0  0  0  0  0  0  0  0  0  0  0  0
  -23.0548   -3.3461   22.4798 F   0  0  0  0  0  0  0  0  0  0  0  0
  1  2  1  0  0  0  0
  1  5  2  0  0  0  0
  2  6  2  0  0  0  0
  3  8  2  0  0  0  0
  3 17  1  0  0  0  0
  4  9  1  0  0  0  0
  4 17  2  0  0  0  0
  5 19  1  0  0  0  0
  6 21  1  0  0  0  0
  7 10  2  0  0  0  0
  7 20  1  0  0  0  0
  8 26  1  0  0  0  0
  9 26  2  0  0  0  0
 10 27  1  0  0  0  0
 11 12  2  0  0  0  0
 11 28  1  0  0  0  0
 12 30  1  0  0  0  0
 13 22  1  0  0  0  0
 13 24  2  0  0  0  0
 14 23  1  0  0  0  0
 14 27  2  0  0  0  0
 15 24  1  0  0  0  0
 15 25  2  0  0  0  0
 16 30  2  0  0  0  0
 16 31  1  0  0  0  0
 17 32  1  0  0  0  0
 18 32  1  0  0  0  0
 18 33  2  0  0  0  0
 18 34  1  0  0  0  0
 19 21  2  0  0  0  0
 19 39  1  0  0  0  0
 20 23  2  0  0  0  0
 20 40  1  0  0  0  0
 21 55  1  0  0  0  0
 22 29  2  0  0  0  0
 22 54  1  0  0  0  0
 23 41  1  0  0  0  0
 24 65  1  0  0  0  0
 25 29  1  0  0  0  0
 25 59  1  0  0  0  0
 26 84  1  0  0  0  0
 27 86  1  0  0  0  0
 28 31  2  0  0  0  0
 28 84  1  0  0  0  0
 29 85  1  0  0  0  0
 30 87  1  0  0  0  0
 31 88  1  0  0  0  0
 32 69  2  0  0  0  0
 33 70  1  0  0  0  0
 33 74  1  0  0  0  0
 34 75  1  0  0  0  0
 34 79  2  0  0  0  0
 35 56  1  0  0  0  0
 35 76  1  0  0  0  0
 35 80  2  0  0  0  0
 36 66  1  0  0  0  0
 36 71  1  0  0  0  0
 36 81  2  0  0  0  0
 37 67  1  0  0  0  0
 37 77  1  0  0  0  0
 37 82  2  0  0  0  0
 38 72  1  0  0  0  0
 38 73  1  0  0  0  0
 38 83  2  0  0  0  0
 39 42  1  0  0  0  0
 40 56  1  0  0  0  0
 41 71  1  0  0  0  0
 42 46  1  0  0  0  0
 43 47  1  0  0  0  0
 43 50  1  0  0  0  0
 44 45  1  0  0  0  0
 44 54  1  0  0  0  0
 45 54  1  0  0  0  0
 46 55  1  0  0  0  0
 47 57  1  0  0  0  0
 48 51  1  0  0  0  0
 48 58  1  0  0  0  0
 49 52  1  0  0  0  0
 49 58  1  0  0  0  0
 50 72  1  0  0  0  0
 51 73  1  0  0  0  0
 52 73  1  0  0  0  0
 53 57  1  0  0  0  0
 53 72  1  0  0  0  0
 55 76  1  0  0  0  0
 56 71  1  0  0  0  0
 57 70  1  0  0  0  0
 58 85  1  0  0  0  0
 60 67  1  0  0  0  0
 61 68  1  0  0  0  0
 62 68  1  0  0  0  0
 63 68  1  0  0  0  0
 64 78  1  0  0  0  0
 65 86  1  0  0  0  0
 66 68  1  0  0  0  0
 66 77  1  0  0  0  0
 67 78  1  0  0  0  0
 69 70  1  0  0  0  0
M  CHG  1  78   1
M  ISO  4  38 100  65 101  73 100  86 101
M  END
> <Batch ID>
0151

> <Smiles>
CNC(C)C(=O)NC(C(=O)N1Cc2cc([101O:1][101CH2:1]c3cc(C)c(OC4CC[100N:0]([100C:0](=O)N5CCCC(n6nc(-c7ccc(Oc8ccc(F)cc8F)cc7)c(C(N)=O)c6N)C5)CC4)c(C4CC4)c3)ccc2CC1C(=O)NC1CCCc2ccccc21)C(C)(C)C

> <Shape>
0.251

> <Color>
0.077

> <Negative vol penalty>
0.000

$$$$

  -OEChem-04052321433D

 89 98  0     1  0  0  0  0  0999 V2000
  -26.6274  -36.5042   26.1856 C   0  0  0  0  0  0  0  0  0  0  0  0
  -27.3431  -35.5163   25.5167 C   0  0  0  0  0  0  0  0  0  0  0  0
  -25.0084   -8.2825   22.2039 C   0  0  0  0  0  0  0  0  0  0  0  0
  -24.9714   -7.6374   19.8759 C   0  0  0  0  0  0  0  0  0  0  0  0
  -25.2958  -36.2832   26.5347 C   0  0  0  0  0  0  0  0  0  0  0  0
  -26.7278  -34.3064   25.1976 C   0  0  0  0  0  0  0  0  0  0  0  0
  -27.7084  -30.8783   20.2184 C   0  0  0  0  0  0  0  0  0  0  0  0
  -23.7459   -7.7165   22.3808 C   0  0  0  0  0  0  0  0  0  0  0  0
  -23.7089   -7.0714   20.0528 C   0  0  0  0  0  0  0  0  0  0  0  0
  -28.4918  -29.7462   19.9984 C   0  0  0  0  0  0  0  0  0  0  0  0
  -29.4714  -23.0916   18.9042 C   0  0  0  0  0  0  0  0  0  0  0  0
  -29.2459  -21.7460   19.1939 C   0  0  0  0  0  0  0  0  0  0  0  0
  -22.4370   -4.6262   22.7930 C   0  0  0  0  0  0  0  0  0  0  0  0
  -22.2353   -3.8313   23.9212 C   0  0  0  0  0  0  0  0  0  0  0  0
  -26.5602  -28.3469   20.3586 C   0  0  0  0  0  0  0  0  0  0  0  0
  -30.7142  -23.3267   20.9627 C   0  0  0  0  0  0  0  0  0  0  0  0
  -20.4863   -5.3248   24.6609 C   0  0  0  0  0  0  0  0  0  0  0  0
  -25.6212   -8.2430   20.9514 C   0  0  0  0  0  0  0  0  0  0  0  0
  -28.1715   -8.1925   20.9240 C   0  0  0  0  0  0  0  0  0  0  0  0
  -24.6610  -35.0736   26.2111 C   0  0  0  0  0  0  0  0  0  0  0  0
  -26.3450  -30.7525   20.5214 C   0  0  0  0  0  0  0  0  0  0  0  0
  -25.3868  -34.0685   25.5439 C   0  0  0  0  0  0  0  0  0  0  0  0
  -25.7611  -29.4790   20.5795 C   0  0  0  0  0  0  0  0  0  0  0  0
  -30.4887  -21.9810   21.2525 C   0  0  0  0  0  0  0  0  0  0  0  0
  -23.0962   -7.1109   21.3053 C   0  0  0  0  0  0  0  0  0  0  0  0
  -27.9184  -28.4801   20.0713 C   0  0  0  0  0  0  0  0  0  0  0  0
  -30.2056  -23.8820   19.7885 C   0  0  0  0  0  0  0  0  0  0  0  0
  -29.7545  -21.1907   20.3681 C   0  0  0  0  0  0  0  0  0  0  0  0
  -21.6634   -5.7706   22.5987 C   0  0  0  0  0  0  0  0  0  0  0  0
  -21.2600   -4.1805   24.8552 C   0  0  0  0  0  0  0  0  0  0  0  0
  -20.6880   -6.1198   23.5326 C   0  0  0  0  0  0  0  0  0  0  0  0
  -26.9251   -8.8280   20.7679 C   0  0  0  0  0  0  0  0  0  0  0  0
  -29.0934   -9.1696   20.6377 C   0  0  0  0  0  0  0  0  0  0  0  0
  -28.4695   -6.8399   21.2945 C   0  0  0  0  0  0  0  0  0  0  0  0
  -24.5177  -31.5303   23.0032 C   0  0  0  0  0  0  0  0  0  0  0  0
  -22.1209  -30.5558   21.0467 C   0  0  0  0  0  0  0  0  0  0  0  0
  -21.1466  -28.6613   18.3805 C   0  0  0  0  0  0  0  0  0  0  0  0
  -29.0852  -14.9343   21.0328 C   0  0  0  0  0  0  0  0  0  0  0  0
  -23.2340  -34.8623   26.6511 C   0  0  0  0  0  0  0  0  0  0  0  0
  -25.5078  -31.9846   20.7297 C   0  0  0  0  0  0  0  0  0  0  0  0
  -24.2976  -29.2907   20.8813 C   0  0  0  0  0  0  0  0  0  0  0  0
  -22.5449  -33.6977   25.9446 C   0  0  0  0  0  0  0  0  0  0  0  0
  -29.6605  -13.1549   18.0621 C   0  0  0  0  0  0  0  0  0  0  0  0
  -23.4514  -32.4711   25.9290 C   0  0  0  0  0  0  0  0  0  0  0  0
  -29.1415  -11.7664   18.4349 C   0  0  0  0  0  0  0  0  0  0  0  0
  -31.0461  -18.0063   20.3505 C   0  0  0  0  0  0  0  0  0  0  0  0
  -28.8553  -18.1292   19.0875 C   0  0  0  0  0  0  0  0  0  0  0  0
  -28.7647  -14.2674   18.6095 C   0  0  0  0  0  0  0  0  0  0  0  0
  -30.4107  -16.9967   21.3051 C   0  0  0  0  0  0  0  0  0  0  0  0
  -28.2694  -17.1203   20.0727 C   0  0  0  0  0  0  0  0  0  0  0  0
  -27.9981  -12.7894   20.4383 C   0  0  0  0  0  0  0  0  0  0  0  0
  -24.7470  -32.7523   25.1584 C   0  0  1  0  0  0  0  0  0  0  0  0
  -24.2420  -31.7173   21.5381 C   0  0  1  0  0  0  0  0  0  0  0  0
  -28.9097  -11.6520   19.9521 C   0  0  1  0  0  0  0  0  0  0  0  0
  -30.0157  -18.9230   19.6902 C   0  0  0  0  0  0  0  0  0  0  0  0
  -30.4555  -22.0725   23.7712 C   0  0  0  0  0  0  0  0  0  0  0  0
  -32.5786  -21.4555   22.5602 C   0  0  0  0  0  0  0  0  0  0  0  0
  -19.1167  -28.0401   17.0422 C   0  0  0  0  0  0  0  0  0  0  0  0
  -21.2130  -28.6983   23.2907 C   0  0  0  0  0  0  0  0  0  0  0  0
  -19.8309  -27.4587   21.6110 C   0  0  0  0  0  0  0  0  0  0  0  0
  -19.3568  -29.8616   22.0841 C   0  0  0  0  0  0  0  0  0  0  0  0
  -22.2918  -29.7973   15.8992 C   0  0  0  0  0  0  0  0  0  0  0  0
  -30.0612  -27.4577   20.2090 C   0  0  0  0  0  0  0  0  0  1  0  0
  -30.5617  -26.0843   20.6125 C   0  0  0  0  0  0  0  0  0  0  0  0
  -31.0404  -21.4032   22.5138 C   0  0  0  0  0  0  0  0  0  0  0  0
  -21.4295  -29.2414   20.7759 C   0  0  1  0  0  0  0  0  0  0  0  0
  -20.2963  -28.9917   17.1671 C   0  0  2  0  0  0  0  0  0  0  0  0
  -20.4856  -28.8181   21.9366 C   0  0  0  0  0  0  0  0  0  0  0  0
  -27.0410  -10.1097   20.4104 N   0  0  0  0  0  0  0  0  0  0  0  0
  -28.3712  -10.2875   20.3395 N   0  0  0  0  0  0  0  0  0  0  0  0
  -23.5222  -30.5258   21.0836 N   0  0  0  0  0  0  0  0  0  0  0  0
  -28.5405  -14.0933   20.0509 N   0  0  0  0  0  0  0  0  0  0  0  0
  -29.3109  -16.2726   20.6686 N   0  0  0  0  0  0  0  0  0  0  0  0
  -30.4431   -9.1731   20.6145 N   0  0  0  0  0  0  0  0  0  0  0  0
  -27.4033   -5.9679   21.5538 N   0  0  0  0  0  0  0  0  0  0  0  0
  -24.5073  -32.7043   23.7320 N   0  0  0  0  0  0  0  0  0  0  0  0
  -20.7624  -29.3891   19.4869 N   0  0  0  0  0  0  0  0  0  0  0  0
  -21.1106  -28.8967   15.9226 N   0  3  0  0  0  0  0  0  0  0  0  0
  -29.6465   -6.4215   21.4087 O   0  0  0  0  0  0  0  0  0  0  0  0
  -24.7231  -30.4041   23.4404 O   0  0  0  0  0  0  0  0  0  0  0  0
  -21.4429  -31.5729   21.2120 O   0  0  0  0  0  0  0  0  0  0  0  0
  -22.0578  -27.8371   18.3508 O   0  0  0  0  0  0  0  0  0  0  0  0
  -29.3577  -14.5170   22.1653 O   0  0  0  0  0  0  0  0  0  0  0  0
  -21.8643   -6.5583   21.4777 O   0  0  0  0  0  0  0  0  0  0  0  0
  -29.5226  -19.8676   20.6378 O   0  0  0  0  0  0  0  0  0  0  0  0
  -28.6861  -27.3659   19.8563 O   0  0  0  0  0  0  0  0  0  1  0  0
  -30.4257  -25.1949   19.5051 O   0  0  0  0  0  0  0  0  0  0  0  0
  -21.0653   -3.4162   25.9378 F   0  0  0  0  0  0  0  0  0  0  0  0
  -19.9408   -7.2173   23.3508 F   0  0  0  0  0  0  0  0  0  0  0  0
  1  2  1  0  0  0  0
  1  5  2  0  0  0  0
  2  6  2  0  0  0  0
  3  8  2  0  0  0  0
  3 18  1  0  0  0  0
  4  9  1  0  0  0  0
  4 18  2  0  0  0  0
  5 20  1  0  0  0  0
  6 22  1  0  0  0  0
  7 10  2  0  0  0  0
  7 21  1  0  0  0  0
  8 25  1  0  0  0  0
  9 25  2  0  0  0  0
 10 26  1  0  0  0  0
 11 12  2  0  0  0  0
 11 27  1  0  0  0  0
 12 28  1  0  0  0  0
 13 14  2  0  0  0  0
 13 29  1  0  0  0  0
 14 30  1  0  0  0  0
 15 23  1  0  0  0  0
 15 26  2  0  0  0  0
 16 24  1  0  0  0  0
 16 27  2  0  0  0  0
 17 30  2  0  0  0  0
 17 31  1  0  0  0  0
 18 32  1  0  0  0  0
 19 32  1  0  0  0  0
 19 33  2  0  0  0  0
 19 34  1  0  0  0  0
 20 22  2  0  0  0  0
 20 39  1  0  0  0  0
 21 23  2  0  0  0  0
 21 40  1  0  0  0  0
 22 52  1  0  0  0  0
 23 41  1  0  0  0  0
 24 28  2  0  0  0  0
 24 65  1  0  0  0  0
 25 84  1  0  0  0  0
 26 86  1  0  0  0  0
 27 87  1  0  0  0  0
 28 85  1  0  0  0  0
 29 31  2  0  0  0  0
 29 84  1  0  0  0  0
 30 88  1  0  0  0  0
 31 89  1  0  0  0  0
 32 69  2  0  0  0  0
 33 70  1  0  0  0  0
 33 74  1  0  0  0  0
 34 75  1  0  0  0  0
 34 79  2  0  0  0  0
 35 53  1  0  0  0  0
 35 76  1  0  0  0  0
 35 80  2  0  0  0  0
 36 66  1  0  0  0  0
 36 71  1  0  0  0  0
 36 81  2  0  0  0  0
 37 67  1  0  0  0  0
 37 77  1  0  0  0  0
 37 82  2  0  0  0  0
 38 72  1  0  0  0  0
 38 73  1  0  0  0  0
 38 83  2  0  0  0  0
 39 42  1  0  0  0  0
 40 53  1  0  0  0  0
 41 71  1  0  0  0  0
 42 44  1  0  0  0  0
 43 45  1  0  0  0  0
 43 48  1  0  0  0  0
 44 52  1  0  0  0  0
 45 54  1  0  0  0  0
 46 49  1  0  0  0  0
 46 55  1  0  0  0  0
 47 50  1  0  0  0  0
 47 55  1  0  0  0  0
 48 72  1  0  0  0  0
 49 73  1  0  0  0  0
 50 73  1  0  0  0  0
 51 54  1  0  0  0  0
 51 72  1  0  0  0  0
 52 76  1  0  0  0  0
 53 71  1  0  0  0  0
 54 70  1  0  0  0  0
 55 85  1  0  0  0  0
 56 65  1  0  0  0  0
 57 65  1  0  0  0  0
 58 67  1  0  0  0  0
 59 68  1  0  0  0  0
 60 68  1  0  0  0  0
 61 68  1  0  0  0  0
 62 78  1  0  0  0  0
 63 64  1  0  0  0  0
 63 86  1  0  0  0  0
 64 87  1  0  0  0  0
 66 68  1  0  0  0  0
 66 77  1  0  0  0  0
 67 78  1  0  0  0  0
 69 70  1  0  0  0  0
M  CHG  1  78   1
M  ISO  4  38 100  63 101  73 100  86 101
M  END
> <Batch ID>
0151

> <Smiles>
CNC(C)C(=O)NC(C(=O)N1Cc2cc([101O:1][101CH2:1]COc3ccc(OC4CC[100N:0]([100C:0](=O)N5CCCC(n6nc(-c7ccc(Oc8ccc(F)cc8F)cc7)c(C(N)=O)c6N)C5)CC4)c(C(C)C)c3)ccc2CC1C(=O)NC1CCCc2ccccc21)C(C)(C)C

> <Shape>
0.323

> <Color>
0.105

> <Negative vol penalty>
0.000

$$$$

  -OEChem-04052321433D

 87 96  0     1  0  0  0  0  0999 V2000
  -36.9697  -15.6867   22.0308 C   0  0  0  0  0  0  0  0  0  0  0  0
  -36.2416  -16.8334   22.3316 C   0  0  0  0  0  0  0  0  0  0  0  0
  -26.5293  -28.0555   21.7413 C   0  0  0  0  0  0  0  0  0  0  0  0
  -24.9716  -28.5409   19.9594 C   0  0  0  0  0  0  0  0  0  0  0  0
  -36.5186  -14.8159   21.0397 C   0  0  0  0  0  0  0  0  0  0  0  0
  -35.0625  -17.1104   21.6408 C   0  0  0  0  0  0  0  0  0  0  0  0
  -28.6291  -20.1238   22.5614 C   0  0  0  0  0  0  0  0  0  0  0  0
  -27.2836  -27.2716   20.8683 C   0  0  0  0  0  0  0  0  0  0  0  0
  -25.7260  -27.7570   19.0864 C   0  0  0  0  0  0  0  0  0  0  0  0
  -27.7971  -21.0836   21.9866 C   0  0  0  0  0  0  0  0  0  0  0  0
  -29.5532  -27.7608   18.4101 C   0  0  0  0  0  0  0  0  0  0  0  0
  -30.9384  -27.9233   18.4255 C   0  0  0  0  0  0  0  0  0  0  0  0
  -27.0729  -19.4666   20.3495 C   0  0  0  0  0  0  0  0  0  0  0  0
  -25.0554  -23.0933   17.5137 C   0  0  0  0  0  0  0  0  0  0  0  0
  -31.2043  -25.5995   19.0307 C   0  0  0  0  0  0  0  0  0  0  0  0
  -25.3732  -28.6901   21.2868 C   0  0  0  0  0  0  0  0  0  0  0  0
  -24.7391  -30.8776   22.4359 C   0  0  0  0  0  0  0  0  0  0  0  0
  -35.3283  -15.0775   20.3431 C   0  0  0  0  0  0  0  0  0  0  0  0
  -28.6976  -18.8291   22.0270 C   0  0  0  0  0  0  0  0  0  0  0  0
  -34.5957  -16.2430   20.6385 C   0  0  0  0  0  0  0  0  0  0  0  0
  -27.9046  -18.4915   20.9209 C   0  0  0  0  0  0  0  0  0  0  0  0
  -24.3279  -24.1776   17.0232 C   0  0  0  0  0  0  0  0  0  0  0  0
  -24.6438  -22.4471   18.6794 C   0  0  0  0  0  0  0  0  0  0  0  0
  -23.1888  -24.6159   17.6985 C   0  0  0  0  0  0  0  0  0  0  0  0
  -23.5047  -22.8854   19.3546 C   0  0  0  0  0  0  0  0  0  0  0  0
  -22.7772  -23.9698   18.8642 C   0  0  0  0  0  0  0  0  0  0  0  0
  -26.8820  -27.1224   19.5409 C   0  0  0  0  0  0  0  0  0  0  0  0
  -27.0210  -20.7559   20.8787 C   0  0  0  0  0  0  0  0  0  0  0  0
  -28.9934  -26.5177   18.7051 C   0  0  0  0  0  0  0  0  0  0  0  0
  -31.7640  -26.8427   18.7358 C   0  0  0  0  0  0  0  0  0  0  0  0
  -29.8190  -25.4370   19.0154 C   0  0  0  0  0  0  0  0  0  0  0  0
  -24.5932  -29.4995   22.1883 C   0  0  0  0  0  0  0  0  0  0  0  0
  -23.7670  -31.1648   23.3627 C   0  0  0  0  0  0  0  0  0  0  0  0
  -25.6701  -31.8145   21.8779 C   0  0  0  0  0  0  0  0  0  0  0  0
  -30.9931  -17.0597   20.7220 C   0  0  0  0  0  0  0  0  0  0  0  0
  -28.7106  -14.7554   20.7770 C   0  0  0  0  0  0  0  0  0  0  0  0
  -25.3908  -13.9668   20.8421 C   0  0  0  0  0  0  0  0  0  0  0  0
  -21.3570  -26.2061   23.6135 C   0  0  0  0  0  0  0  0  0  0  0  0
  -34.9056  -14.1312   19.2473 C   0  0  0  0  0  0  0  0  0  0  0  0
  -29.5799  -17.7977   22.6750 C   0  0  0  0  0  0  0  0  0  0  0  0
  -27.9265  -17.1099   20.3217 C   0  0  0  0  0  0  0  0  0  0  0  0
  -33.4499  -14.3039   18.8214 C   0  0  0  0  0  0  0  0  0  0  0  0
  -22.8757  -28.0824   26.2479 C   0  0  0  0  0  0  0  0  0  0  0  0
  -18.1936  -25.7358   21.9043 C   0  0  0  0  0  0  0  0  0  0  0  0
  -33.1235  -15.7807   18.6225 C   0  0  0  0  0  0  0  0  0  0  0  0
  -22.4478  -29.5242   25.9976 C   0  0  0  0  0  0  0  0  0  0  0  0
  -19.1292  -25.2216   20.8192 C   0  0  0  0  0  0  0  0  0  0  0  0
  -21.7605  -27.1194   25.8712 C   0  0  0  0  0  0  0  0  0  0  0  0
  -19.0639  -26.7389   22.6455 C   0  0  0  0  0  0  0  0  0  0  0  0
  -20.9477  -28.6724   24.1067 C   0  0  0  0  0  0  0  0  0  0  0  0
  -33.2988  -16.5652   19.9283 C   0  0  1  0  0  0  0  0  0  0  0  0
  -29.9574  -16.6580   21.7337 C   0  0  1  0  0  0  0  0  0  0  0  0
  -21.9578  -29.7522   24.5587 C   0  0  2  0  0  0  0  0  0  0  0  0
  -20.4843  -25.1500   21.5285 C   0  0  1  0  0  0  0  0  0  0  0  0
  -24.7904  -24.8515   15.7729 C   0  0  0  0  0  0  0  0  0  0  0  0
  -22.4125  -25.7800   17.1669 C   0  0  0  0  0  0  0  0  0  0  0  0
  -23.0683  -22.1878   20.6049 C   0  0  0  0  0  0  0  0  0  0  0  0
  -23.8331  -11.9994   20.8427 C   0  0  0  0  0  0  0  0  0  0  0  0
  -29.2240  -14.3510   17.7966 C   0  0  0  0  0  0  0  0  0  0  0  0
  -27.0544  -13.1089   17.6625 C   0  0  0  0  0  0  0  0  0  0  0  0
  -28.9013  -12.2385   19.0957 C   0  0  0  0  0  0  0  0  0  0  0  0
  -24.2551  -14.7194   23.4694 C   0  0  0  0  0  0  0  0  0  0  0  0
  -25.4409  -21.2886   19.1830 C   0  0  0  0  0  0  0  0  0  1  0  0
  -21.6422  -25.3945   20.5693 C   0  0  0  0  0  0  0  0  0  0  0  0
  -27.6302  -14.2979   19.8271 C   0  0  1  0  0  0  0  0  0  0  0  0
  -24.6037  -12.9921   21.6992 C   0  0  2  0  0  0  0  0  0  0  0  0
  -28.2033  -13.5258   18.6053 C   0  0  0  0  0  0  0  0  0  0  0  0
  -23.6063  -28.9493   22.9005 N   0  0  0  0  0  0  0  0  0  0  0  0
  -23.1233  -29.9870   23.6048 N   0  0  0  0  0  0  0  0  0  0  0  0
  -28.8101  -16.1381   20.9870 N   0  0  0  0  0  0  0  0  0  0  0  0
  -21.3231  -27.3030   24.4872 N   0  0  0  0  0  0  0  0  0  0  0  0
  -20.4076  -26.1610   22.5900 N   0  0  0  0  0  0  0  0  0  0  0  0
  -23.4087  -32.3073   23.9862 N   0  0  0  0  0  0  0  0  0  0  0  0
  -26.6016  -31.3518   20.9385 N   0  0  0  0  0  0  0  0  0  0  0  0
  -21.6371  -24.4085   19.5400 N   0  0  0  0  0  0  0  0  0  0  0  0
  -32.1710  -16.3422   20.8073 N   0  0  0  0  0  0  0  0  0  0  0  0
  -26.6812  -13.5311   20.6270 N   0  0  0  0  0  0  0  0  0  0  0  0
  -23.6315  -13.7256   22.5580 N   0  3  0  0  0  0  0  0  0  0  0  0
  -25.6863  -33.0227   22.2149 O   0  0  0  0  0  0  0  0  0  0  0  0
  -30.7416  -17.9533   19.9221 O   0  0  0  0  0  0  0  0  0  0  0  0
  -29.4348  -13.9164   21.3185 O   0  0  0  0  0  0  0  0  0  0  0  0
  -24.9081  -15.0087   20.4038 O   0  0  0  0  0  0  0  0  0  0  0  0
  -22.1918  -25.3016   23.7476 O   0  0  0  0  0  0  0  0  0  0  0  0
  -27.6180  -26.3578   18.6887 O   0  0  0  0  0  0  0  0  0  0  0  0
  -26.2027  -21.6976   20.3113 O   0  0  0  0  0  0  0  0  0  1  0  0
  -33.0943  -26.9985   18.7490 F   0  0  0  0  0  0  0  0  0  0  0  0
  -29.2872  -24.2401   19.2985 F   0  0  0  0  0  0  0  0  0  0  0  0
  1  2  1  0  0  0  0
  1  5  2  0  0  0  0
  2  6  2  0  0  0  0
  3  8  2  0  0  0  0
  3 16  1  0  0  0  0
  4  9  1  0  0  0  0
  4 16  2  0  0  0  0
  5 18  1  0  0  0  0
  6 20  1  0  0  0  0
  7 10  2  0  0  0  0
  7 19  1  0  0  0  0
  8 27  1  0  0  0  0
  9 27  2  0  0  0  0
 10 28  1  0  0  0  0
 11 12  2  0  0  0  0
 11 29  1  0  0  0  0
 12 30  1  0  0  0  0
 13 21  1  0  0  0  0
 13 28  2  0  0  0  0
 14 22  2  0  0  0  0
 14 23  1  0  0  0  0
 15 30  2  0  0  0  0
 15 31  1  0  0  0  0
 16 32  1  0  0  0  0
 17 32  1  0  0  0  0
 17 33  2  0  0  0  0
 17 34  1  0  0  0  0
 18 20  2  0  0  0  0
 18 39  1  0  0  0  0
 19 21  2  0  0  0  0
 19 40  1  0  0  0  0
 20 51  1  0  0  0  0
 21 41  1  0  0  0  0
 22 24  1  0  0  0  0
 22 55  1  0  0  0  0
 23 25  2  0  0  0  0
 23 63  1  0  0  0  0
 24 26  2  0  0  0  0
 24 56  1  0  0  0  0
 25 26  1  0  0  0  0
 25 57  1  0  0  0  0
 26 75  1  0  0  0  0
 27 84  1  0  0  0  0
 28 85  1  0  0  0  0
 29 31  2  0  0  0  0
 29 84  1  0  0  0  0
 30 86  1  0  0  0  0
 31 87  1  0  0  0  0
 32 68  2  0  0  0  0
 33 69  1  0  0  0  0
 33 73  1  0  0  0  0
 34 74  1  0  0  0  0
 34 79  2  0  0  0  0
 35 52  1  0  0  0  0
 35 76  1  0  0  0  0
 35 80  2  0  0  0  0
 36 65  1  0  0  0  0
 36 70  1  0  0  0  0
 36 81  2  0  0  0  0
 37 66  1  0  0  0  0
 37 77  1  0  0  0  0
 37 82  2  0  0  0  0
 38 71  1  0  0  0  0
 38 72  1  0  0  0  0
 38 83  2  0  0  0  0
 39 42  1  0  0  0  0
 40 52  1  0  0  0  0
 41 70  1  0  0  0  0
 42 45  1  0  0  0  0
 43 46  1  0  0  0  0
 43 48  1  0  0  0  0
 44 47  1  0  0  0  0
 44 49  1  0  0  0  0
 45 51  1  0  0  0  0
 46 53  1  0  0  0  0
 47 54  1  0  0  0  0
 48 71  1  0  0  0  0
 49 72  1  0  0  0  0
 50 53  1  0  0  0  0
 50 71  1  0  0  0  0
 51 76  1  0  0  0  0
 52 70  1  0  0  0  0
 53 69  1  0  0  0  0
 54 64  1  0  0  0  0
 54 72  1  0  0  0  0
 58 66  1  0  0  0  0
 59 67  1  0  0  0  0
 60 67  1  0  0  0  0
 61 67  1  0  0  0  0
 62 78  1  0  0  0  0
 63 85  1  0  0  0  0
 64 75  1  0  0  0  0
 65 67  1  0  0  0  0
 65 77  1  0  0  0  0
 66 78  1  0  0  0  0
 68 69  1  0  0  0  0
M  CHG  1  78   1
M  ISO  4  38 100  63 101  72 100  85 101
M  END
> <Batch ID>
0151

> <Smiles>
CNC(C)C(=O)NC(C(=O)N1Cc2cc([101O:1][101CH2:1]c3cc(C)c(C)c(NCC4CCC[100N:0]4[100C:0](=O)N4CCCC(n5nc(-c6ccc(Oc7ccc(F)cc7F)cc6)c(C(N)=O)c5N)C4)c3C)ccc2CC1C(=O)NC1CCCc2ccccc21)C(C)(C)C

> <Shape>
0.254

> <Color>
0.084

> <Negative vol penalty>
0.000

$$$$

  -OEChem-04052321433D

 83 92  0     1  0  0  0  0  0999 V2000
  -28.9589  -32.7159   25.5326 C   0  0  0  0  0  0  0  0  0  0  0  0
  -28.8495  -31.4596   24.9451 C   0  0  0  0  0  0  0  0  0  0  0  0
  -24.5789  -12.5927   24.1607 C   0  0  0  0  0  0  0  0  0  0  0  0
  -24.2714  -14.9145   23.5676 C   0  0  0  0  0  0  0  0  0  0  0  0
  -27.8097  -33.4155   25.8985 C   0  0  0  0  0  0  0  0  0  0  0  0
  -27.5908  -30.9017   24.7241 C   0  0  0  0  0  0  0  0  0  0  0  0
  -27.1659  -28.8270   20.1241 C   0  0  0  0  0  0  0  0  0  0  0  0
  -29.7035  -19.1688   19.7263 C   0  0  0  0  0  0  0  0  0  0  0  0
  -24.1751  -12.8727   25.4661 C   0  0  0  0  0  0  0  0  0  0  0  0
  -23.8675  -15.1945   24.8730 C   0  0  0  0  0  0  0  0  0  0  0  0
  -27.7467  -27.5737   19.9348 C   0  0  0  0  0  0  0  0  0  0  0  0
  -29.2684  -20.4621   20.0250 C   0  0  0  0  0  0  0  0  0  0  0  0
  -21.0768  -14.8393   26.7455 C   0  0  0  0  0  0  0  0  0  0  0  0
  -19.9487  -15.6419   26.9152 C   0  0  0  0  0  0  0  0  0  0  0  0
  -29.0050  -20.9692   17.6608 C   0  0  0  0  0  0  0  0  0  0  0  0
  -25.5835  -26.5385   20.1959 C   0  0  0  0  0  0  0  0  0  0  0  0
  -21.2787  -17.2553   28.1257 C   0  0  0  0  0  0  0  0  0  0  0  0
  -24.6271  -13.6137   23.2114 C   0  0  0  0  0  0  0  0  0  0  0  0
  -24.2268  -12.9413   20.7834 C   0  0  0  0  0  0  0  0  0  0  0  0
  -26.5360  -32.8701   25.6731 C   0  0  0  0  0  0  0  0  0  0  0  0
  -25.7889  -28.9447   20.3621 C   0  0  0  0  0  0  0  0  0  0  0  0
  -26.4235  -31.5941   25.0886 C   0  0  0  0  0  0  0  0  0  0  0  0
  -29.7689  -18.7854   18.3958 C   0  0  0  0  0  0  0  0  0  0  0  0
  -29.4250  -19.6810   17.3740 C   0  0  0  0  0  0  0  0  0  0  0  0
  -24.9873  -27.7946   20.3854 C   0  0  0  0  0  0  0  0  0  0  0  0
  -23.8194  -14.1735   25.8223 C   0  0  0  0  0  0  0  0  0  0  0  0
  -26.9559  -26.4290   19.9736 C   0  0  0  0  0  0  0  0  0  0  0  0
  -28.9212  -21.3555   18.9998 C   0  0  0  0  0  0  0  0  0  0  0  0
  -22.3058  -15.2446   27.2660 C   0  0  0  0  0  0  0  0  0  0  0  0
  -20.0497  -16.8499   27.6053 C   0  0  0  0  0  0  0  0  0  0  0  0
  -22.4068  -16.4526   27.9560 C   0  0  0  0  0  0  0  0  0  0  0  0
  -25.0447  -13.3252   21.8629 C   0  0  0  0  0  0  0  0  0  0  0  0
  -25.0962  -12.7886   19.7311 C   0  0  0  0  0  0  0  0  0  0  0  0
  -22.8079  -12.7408   20.7360 C   0  0  0  0  0  0  0  0  0  0  0  0
  -24.0124  -30.0397   22.7597 C   0  0  0  0  0  0  0  0  0  0  0  0
  -21.5764  -29.4985   20.6873 C   0  0  0  0  0  0  0  0  0  0  0  0
  -20.4100  -27.7986   17.9676 C   0  0  0  0  0  0  0  0  0  0  0  0
  -30.4775  -15.1166   18.5174 C   0  0  0  0  0  0  0  0  0  0  0  0
  -25.3240  -33.6435   26.1287 C   0  0  0  0  0  0  0  0  0  0  0  0
  -25.1735  -30.3059   20.5378 C   0  0  0  0  0  0  0  0  0  0  0  0
  -29.6304  -19.0619   16.0267 C   0  0  0  0  0  0  0  0  0  0  0  0
  -23.5009  -27.8685   20.6172 C   0  0  0  0  0  0  0  0  0  0  0  0
  -24.0174  -33.1435   25.5180 C   0  0  0  0  0  0  0  0  0  0  0  0
  -29.6668  -17.5690   16.3888 C   0  0  0  0  0  0  0  0  0  0  0  0
  -29.6452  -11.6637   18.7655 C   0  0  0  0  0  0  0  0  0  0  0  0
  -23.9371  -31.6225   25.6007 C   0  0  0  0  0  0  0  0  0  0  0  0
  -28.2980  -11.6634   19.4901 C   0  0  0  0  0  0  0  0  0  0  0  0
  -30.5665  -12.7639   19.2877 C   0  0  0  0  0  0  0  0  0  0  0  0
  -28.6348  -14.1177   20.0017 C   0  0  0  0  0  0  0  0  0  0  0  0
  -30.2406  -17.4851   17.8148 C   0  0  2  0  0  0  0  0  0  0  0  0
  -25.0752  -30.9661   24.8099 C   0  0  1  0  0  0  0  0  0  0  0  0
  -23.8436  -30.2685   21.2843 C   0  0  1  0  0  0  0  0  0  0  0  0
  -27.6507  -13.0612   19.4710 C   0  0  2  0  0  0  0  0  0  0  0  0
  -18.3678  -27.5420   16.5320 C   0  0  0  0  0  0  0  0  0  0  0  0
  -20.2499  -27.8367   22.8756 C   0  0  0  0  0  0  0  0  0  0  0  0
  -18.7515  -26.8561   21.1259 C   0  0  0  0  0  0  0  0  0  0  0  0
  -18.6873  -29.3062   21.5898 C   0  0  0  0  0  0  0  0  0  0  0  0
  -21.8537  -28.7078   15.5493 C   0  0  0  0  0  0  0  0  0  0  0  0
  -26.7036  -24.1951   19.1978 C   0  0  0  0  0  0  0  0  0  1  0  0
  -27.5857  -23.2364   18.4215 C   0  0  0  0  0  0  0  0  0  0  0  0
  -20.6774  -28.3262   20.3768 C   0  0  1  0  0  0  0  0  0  0  0  0
  -19.6896  -28.2707   16.7175 C   0  0  2  0  0  0  0  0  0  0  0  0
  -19.6198  -28.0794   21.4895 C   0  0  0  0  0  0  0  0  0  0  0  0
  -26.3347  -13.4109   21.5273 N   0  0  0  0  0  0  0  0  0  0  0  0
  -26.3339  -13.0786   20.2252 N   0  0  0  0  0  0  0  0  0  0  0  0
  -22.9471  -29.2216   20.7898 N   0  0  0  0  0  0  0  0  0  0  0  0
  -29.8934  -14.0642   19.2414 N   0  0  0  0  0  0  0  0  0  0  0  0
  -24.9151  -12.4357   18.4407 N   0  0  0  0  0  0  0  0  0  0  0  0
  -22.0653  -12.9409   21.9077 N   0  0  0  0  0  0  0  0  0  0  0  0
  -24.7868  -30.9937   23.3920 N   0  0  0  0  0  0  0  0  0  0  0  0
  -20.1085  -28.5858   19.0588 N   0  0  0  0  0  0  0  0  0  0  0  0
  -29.7710  -16.3132   18.5197 N   0  0  0  0  0  0  0  0  0  0  0  0
  -20.5322  -28.0300   15.5120 N   0  3  0  0  0  0  0  0  0  0  0  0
  -22.2182  -12.3784   19.6898 O   0  0  0  0  0  0  0  0  0  0  0  0
  -23.4784  -29.0703   23.2858 O   0  0  0  0  0  0  0  0  0  0  0  0
  -21.0816  -30.6198   20.8264 O   0  0  0  0  0  0  0  0  0  0  0  0
  -21.1618  -26.8264   17.9761 O   0  0  0  0  0  0  0  0  0  0  0  0
  -31.5465  -14.9971   17.9092 O   0  0  0  0  0  0  0  0  0  0  0  0
  -23.4250  -14.4470   27.0959 O   0  0  0  0  0  0  0  0  0  0  0  0
  -27.5204  -25.2045   19.7897 O   0  0  0  0  0  0  0  0  0  1  0  0
  -28.5040  -22.6214   19.3170 O   0  0  0  0  0  0  0  0  0  0  0  0
  -18.9666  -17.6213   27.7669 F   0  0  0  0  0  0  0  0  0  0  0  0
  -23.5851  -16.8478   28.4573 F   0  0  0  0  0  0  0  0  0  0  0  0
  1  2  1  0  0  0  0
  1  5  2  0  0  0  0
  2  6  2  0  0  0  0
  3  9  2  0  0  0  0
  3 18  1  0  0  0  0
  4 10  1  0  0  0  0
  4 18  2  0  0  0  0
  5 20  1  0  0  0  0
  6 22  1  0  0  0  0
  7 11  2  0  0  0  0
  7 21  1  0  0  0  0
  8 12  2  0  0  0  0
  8 23  1  0  0  0  0
  9 26  1  0  0  0  0
 10 26  2  0  0  0  0
 11 27  1  0  0  0  0
 12 28  1  0  0  0  0
 13 14  2  0  0  0  0
 13 29  1  0  0  0  0
 14 30  1  0  0  0  0
 15 24  1  0  0  0  0
 15 28  2  0  0  0  0
 16 25  1  0  0  0  0
 16 27  2  0  0  0  0
 17 30  2  0  0  0  0
 17 31  1  0  0  0  0
 18 32  1  0  0  0  0
 19 32  1  0  0  0  0
 19 33  2  0  0  0  0
 19 34  1  0  0  0  0
 20 22  2  0  0  0  0
 20 39  1  0  0  0  0
 21 25  2  0  0  0  0
 21 40  1  0  0  0  0
 22 51  1  0  0  0  0
 23 24  2  0  0  0  0
 23 50  1  0  0  0  0
 24 41  1  0  0  0  0
 25 42  1  0  0  0  0
 26 79  1  0  0  0  0
 27 80  1  0  0  0  0
 28 81  1  0  0  0  0
 29 31  2  0  0  0  0
 29 79  1  0  0  0  0
 30 82  1  0  0  0  0
 31 83  1  0  0  0  0
 32 64  2  0  0  0  0
 33 65  1  0  0  0  0
 33 68  1  0  0  0  0
 34 69  1  0  0  0  0
 34 74  2  0  0  0  0
 35 52  1  0  0  0  0
 35 70  1  0  0  0  0
 35 75  2  0  0  0  0
 36 61  1  0  0  0  0
 36 66  1  0  0  0  0
 36 76  2  0  0  0  0
 37 62  1  0  0  0  0
 37 71  1  0  0  0  0
 37 77  2  0  0  0  0
 38 67  1  0  0  0  0
 38 72  1  0  0  0  0
 38 78  2  0  0  0  0
 39 43  1  0  0  0  0
 40 52  1  0  0  0  0
 41 44  1  0  0  0  0
 42 66  1  0  0  0  0
 43 46  1  0  0  0  0
 44 50  1  0  0  0  0
 45 47  1  0  0  0  0
 45 48  1  0  0  0  0
 46 51  1  0  0  0  0
 47 53  1  0  0  0  0
 48 67  1  0  0  0  0
 49 53  1  0  0  0  0
 49 67  1  0  0  0  0
 50 72  1  0  0  0  0
 51 70  1  0  0  0  0
 52 66  1  0  0  0  0
 53 65  1  0  0  0  0
 54 62  1  0  0  0  0
 55 63  1  0  0  0  0
 56 63  1  0  0  0  0
 57 63  1  0  0  0  0
 58 73  1  0  0  0  0
 59 60  1  0  0  0  0
 59 80  1  0  0  0  0
 60 81  1  0  0  0  0
 61 63  1  0  0  0  0
 61 71  1  0  0  0  0
 62 73  1  0  0  0  0
 64 65  1  0  0  0  0
M  CHG  1  73   1
M  ISO  4  38 100  59 101  72 100  80 101
M  END
> <Batch ID>
0151

> <Smiles>
CNC(C)C(=O)NC(C(=O)N1Cc2cc([101O:1][101CH2:1]COc3ccc4c(c3)CCC4[100NH:0][100C:0](=O)N3CCCC(n4nc(-c5ccc(Oc6ccc(F)cc6F)cc5)c(C(N)=O)c4N)C3)ccc2CC1C(=O)NC1CCCc2ccccc21)C(C)(C)C

> <Shape>
0.264

> <Color>
0.102

> <Negative vol penalty>
0.000

$$$$

  -OEChem-04052321433D

 85 93  0     1  0  0  0  0  0999 V2000
  -28.5981  -35.8735   20.5860 C   0  0  0  0  0  0  0  0  0  0  0  0
  -29.2356  -34.7297   20.1161 C   0  0  0  0  0  0  0  0  0  0  0  0
  -22.8586  -10.2938   20.2140 C   0  0  0  0  0  0  0  0  0  0  0  0
  -24.1339   -9.4030   22.0625 C   0  0  0  0  0  0  0  0  0  0  0  0
  -27.5909  -35.7650   21.5440 C   0  0  0  0  0  0  0  0  0  0  0  0
  -28.8669  -33.4768   20.6047 C   0  0  0  0  0  0  0  0  0  0  0  0
  -28.2877  -26.6360   18.5591 C   0  0  0  0  0  0  0  0  0  0  0  0
  -22.0719   -9.1420   20.2017 C   0  0  0  0  0  0  0  0  0  0  0  0
  -23.3472   -8.2513   22.0503 C   0  0  0  0  0  0  0  0  0  0  0  0
  -28.6868  -25.3580   18.9480 C   0  0  0  0  0  0  0  0  0  0  0  0
  -23.1295   -5.4021   20.2432 C   0  0  0  0  0  0  0  0  0  0  0  0
  -23.7798   -4.1721   20.3417 C   0  0  0  0  0  0  0  0  0  0  0  0
  -26.8789  -25.2856   20.5434 C   0  0  0  0  0  0  0  0  0  0  0  0
  -28.9446  -21.2959   22.8181 C   0  0  0  0  0  0  0  0  0  0  0  0
  -22.5588   -3.6890   22.3698 C   0  0  0  0  0  0  0  0  0  0  0  0
  -23.8897  -10.4243   21.1444 C   0  0  0  0  0  0  0  0  0  0  0  0
  -24.4705  -12.7947   21.8870 C   0  0  0  0  0  0  0  0  0  0  0  0
  -27.2030  -34.5094   22.0375 C   0  0  0  0  0  0  0  0  0  0  0  0
  -27.1860  -27.2538   19.1681 C   0  0  0  0  0  0  0  0  0  0  0  0
  -27.8544  -33.3516   21.5711 C   0  0  0  0  0  0  0  0  0  0  0  0
  -26.4663  -26.5704   20.1586 C   0  0  0  0  0  0  0  0  0  0  0  0
  -28.2043  -21.4602   21.6475 C   0  0  0  0  0  0  0  0  0  0  0  0
  -29.5100  -20.0563   23.1175 C   0  0  0  0  0  0  0  0  0  0  0  0
  -28.0292  -20.3851   20.7762 C   0  0  0  0  0  0  0  0  0  0  0  0
  -28.5945  -19.1456   21.0756 C   0  0  0  0  0  0  0  0  0  0  0  0
  -29.3349  -18.9812   22.2462 C   0  0  0  0  0  0  0  0  0  0  0  0
  -22.3162   -8.1208   21.1199 C   0  0  0  0  0  0  0  0  0  0  0  0
  -27.9841  -24.6838   19.9423 C   0  0  0  0  0  0  0  0  0  0  0  0
  -22.1939   -5.7757   21.2080 C   0  0  0  0  0  0  0  0  0  0  0  0
  -23.4944   -3.3155   21.4049 C   0  0  0  0  0  0  0  0  0  0  0  0
  -21.9085   -4.9191   22.2712 C   0  0  0  0  0  0  0  0  0  0  0  0
  -24.7030  -11.6136   21.1572 C   0  0  0  0  0  0  0  0  0  0  0  0
  -25.5221  -13.6145   21.5577 C   0  0  0  0  0  0  0  0  0  0  0  0
  -23.3997  -13.1215   22.7827 C   0  0  0  0  0  0  0  0  0  0  0  0
  -26.7640  -29.8855   20.9000 C   0  0  0  0  0  0  0  0  0  0  0  0
  -23.6302  -29.0933   20.6277 C   0  0  0  0  0  0  0  0  0  0  0  0
  -21.2908  -26.6641   20.1057 C   0  0  0  0  0  0  0  0  0  0  0  0
  -30.9736  -14.4215   20.6771 C   0  0  0  0  0  0  0  0  0  0  0  0
  -26.1417  -34.4461   23.1072 C   0  0  0  0  0  0  0  0  0  0  0  0
  -26.7520  -28.6220   18.7184 C   0  0  0  0  0  0  0  0  0  0  0  0
  -25.2641  -27.1815   20.8293 C   0  0  0  0  0  0  0  0  0  0  0  0
  -25.5519  -33.0511   23.2983 C   0  0  0  0  0  0  0  0  0  0  0  0
  -29.0487  -13.1610   17.9600 C   0  0  0  0  0  0  0  0  0  0  0  0
  -26.6618  -32.0068   23.3641 C   0  0  0  0  0  0  0  0  0  0  0  0
  -27.7306  -12.7380   18.6107 C   0  0  0  0  0  0  0  0  0  0  0  0
  -30.2419  -12.8892   18.8735 C   0  0  0  0  0  0  0  0  0  0  0  0
  -28.8136  -13.0461   20.8758 C   0  0  0  0  0  0  0  0  0  0  0  0
  -27.4655  -31.9727   22.0586 C   0  0  1  0  0  0  0  0  0  0  0  0
  -25.9273  -29.3619   19.7671 C   0  0  1  0  0  0  0  0  0  0  0  0
  -27.5760  -13.3522   20.0150 C   0  0  2  0  0  0  0  0  0  0  0  0
  -30.2980  -19.9109   24.3788 C   0  0  0  0  0  0  0  0  0  0  0  0
  -27.2343  -20.5648   19.5216 C   0  0  0  0  0  0  0  0  0  0  0  0
  -28.4040  -17.9942   20.1381 C   0  0  0  0  0  0  0  0  0  0  0  0
  -18.8091  -26.3140   19.9780 C   0  0  0  0  0  0  0  0  0  0  0  0
  -31.5528  -15.7420   24.0763 C   0  0  0  0  0  0  0  0  0  0  0  0
  -23.4526  -29.2610   23.6692 C   0  0  0  0  0  0  0  0  0  0  0  0
  -21.2894  -28.0069   23.5423 C   0  0  0  0  0  0  0  0  0  0  0  0
  -21.4990  -30.2419   22.4544 C   0  0  0  0  0  0  0  0  0  0  0  0
  -21.4490  -25.7366   17.2997 C   0  0  0  0  0  0  0  0  0  0  0  0
  -27.6065  -22.8037   21.3490 C   0  0  0  0  0  0  0  0  0  1  0  0
  -31.2213  -17.3520   22.1312 C   0  0  0  0  0  0  0  0  0  0  0  0
  -22.6676  -28.2490   21.4274 C   0  0  1  0  0  0  0  0  0  0  0  0
  -20.0777  -26.6130   19.1944 C   0  0  2  0  0  0  0  0  0  0  0  0
  -31.5666  -15.9236   22.5616 C   0  0  2  0  0  0  0  0  0  0  0  0
  -22.2509  -28.9287   22.7622 C   0  0  0  0  0  0  0  0  0  0  0  0
  -25.8150  -11.6737   20.4196 N   0  0  0  0  0  0  0  0  0  0  0  0
  -26.2905  -12.9025   20.6843 N   0  0  0  0  0  0  0  0  0  0  0  0
  -24.8830  -28.5237   20.3595 N   0  0  0  0  0  0  0  0  0  0  0  0
  -30.0330  -13.4997   20.1886 N   0  0  0  0  0  0  0  0  0  0  0  0
  -25.8551  -14.8678   21.9327 N   0  0  0  0  0  0  0  0  0  0  0  0
  -22.4017  -12.1637   23.0087 N   0  0  0  0  0  0  0  0  0  0  0  0
  -29.9085  -17.7251   22.5518 N   0  0  0  0  0  0  0  0  0  0  0  0
  -26.7337  -31.2606   21.0330 N   0  0  0  0  0  0  0  0  0  0  0  0
  -21.5521  -27.9475   20.5367 N   0  0  0  0  0  0  0  0  0  0  0  0
  -30.6964  -14.9577   21.9287 N   0  0  0  0  0  0  0  0  0  0  0  0
  -20.2514  -25.5547   18.1596 N   0  3  0  0  0  0  0  0  0  0  0  0
  -23.3211  -14.2362   23.3527 O   0  0  0  0  0  0  0  0  0  0  0  0
  -27.3895  -29.1000   21.6024 O   0  0  0  0  0  0  0  0  0  0  0  0
  -23.2809  -30.2140   20.2488 O   0  0  0  0  0  0  0  0  0  0  0  0
  -21.9393  -25.6648   20.4080 O   0  0  0  0  0  0  0  0  0  0  0  0
  -31.9827  -14.7468   20.0425 O   0  0  0  0  0  0  0  0  0  0  0  0
  -21.5486   -6.9969   21.1084 O   0  0  0  0  0  0  0  0  0  0  0  0
  -28.3719  -23.4366   20.3243 O   0  0  0  0  0  0  0  0  0  1  0  0
  -24.1178   -2.1336   21.4986 F   0  0  0  0  0  0  0  0  0  0  0  0
  -21.0098   -5.2720   23.2005 F   0  0  0  0  0  0  0  0  0  0  0  0
  1  2  1  0  0  0  0
  1  5  2  0  0  0  0
  2  6  2  0  0  0  0
  3  8  2  0  0  0  0
  3 16  1  0  0  0  0
  4  9  1  0  0  0  0
  4 16  2  0  0  0  0
  5 18  1  0  0  0  0
  6 20  1  0  0  0  0
  7 10  2  0  0  0  0
  7 19  1  0  0  0  0
  8 27  1  0  0  0  0
  9 27  2  0  0  0  0
 10 28  1  0  0  0  0
 11 12  2  0  0  0  0
 11 29  1  0  0  0  0
 12 30  1  0  0  0  0
 13 21  1  0  0  0  0
 13 28  2  0  0  0  0
 14 22  1  0  0  0  0
 14 23  2  0  0  0  0
 15 30  2  0  0  0  0
 15 31  1  0  0  0  0
 16 32  1  0  0  0  0
 17 32  1  0  0  0  0
 17 33  2  0  0  0  0
 17 34  1  0  0  0  0
 18 20  2  0  0  0  0
 18 39  1  0  0  0  0
 19 21  2  0  0  0  0
 19 40  1  0  0  0  0
 20 48  1  0  0  0  0
 21 41  1  0  0  0  0
 22 24  2  0  0  0  0
 22 60  1  0  0  0  0
 23 26  1  0  0  0  0
 23 51  1  0  0  0  0
 24 25  1  0  0  0  0
 24 52  1  0  0  0  0
 25 26  2  0  0  0  0
 25 53  1  0  0  0  0
 26 72  1  0  0  0  0
 27 82  1  0  0  0  0
 28 83  1  0  0  0  0
 29 31  2  0  0  0  0
 29 82  1  0  0  0  0
 30 84  1  0  0  0  0
 31 85  1  0  0  0  0
 32 66  2  0  0  0  0
 33 67  1  0  0  0  0
 33 70  1  0  0  0  0
 34 71  1  0  0  0  0
 34 77  2  0  0  0  0
 35 49  1  0  0  0  0
 35 73  1  0  0  0  0
 35 78  2  0  0  0  0
 36 62  1  0  0  0  0
 36 68  1  0  0  0  0
 36 79  2  0  0  0  0
 37 63  1  0  0  0  0
 37 74  1  0  0  0  0
 37 80  2  0  0  0  0
 38 69  1  0  0  0  0
 38 75  1  0  0  0  0
 38 81  2  0  0  0  0
 39 42  1  0  0  0  0
 40 49  1  0  0  0  0
 41 68  1  0  0  0  0
 42 44  1  0  0  0  0
 43 45  1  0  0  0  0
 43 46  1  0  0  0  0
 44 48  1  0  0  0  0
 45 50  1  0  0  0  0
 46 69  1  0  0  0  0
 47 50  1  0  0  0  0
 47 69  1  0  0  0  0
 48 73  1  0  0  0  0
 49 68  1  0  0  0  0
 50 67  1  0  0  0  0
 54 63  1  0  0  0  0
 55 64  1  0  0  0  0
 56 65  1  0  0  0  0
 57 65  1  0  0  0  0
 58 65  1  0  0  0  0
 59 76  1  0  0  0  0
 60 83  1  0  0  0  0
 61 64  1  0  0  0  0
 61 72  1  0  0  0  0
 62 65  1  0  0  0  0
 62 74  1  0  0  0  0
 63 76  1  0  0  0  0
 64 75  1  0  0  0  0
 66 67  1  0  0  0  0
M  CHG  1  76   1
M  ISO  4  38 100  60 101  75 100  83 101
M  END
> <Batch ID>
0151

> <Smiles>
CNC(C)C(=O)NC(C(=O)N1Cc2cc([101O:1][101CH2:1]c3cc(C)c(NCC(C)[100NH:0][100C:0](=O)N4CCCC(n5nc(-c6ccc(Oc7ccc(F)cc7F)cc6)c(C(N)=O)c5N)C4)c(C)c3C)ccc2CC1C(=O)NC1CCCc2ccccc21)C(C)(C)C

> <Shape>
0.344

> <Color>
0.138

> <Negative vol penalty>
0.000

$$$$

  -OEChem-04052321433D

 86 95  0     1  0  0  0  0  0999 V2000
  -21.9711  -26.4560   17.8111 C   0  0  0  0  0  0  0  0  0  0  0  0
  -23.0279  -25.5512   17.8142 C   0  0  0  0  0  0  0  0  0  0  0  0
  -20.7050  -22.1302   25.3546 C   0  0  0  0  0  0  0  0  0  0  0  0
  -20.5718  -22.2162   22.9438 C   0  0  0  0  0  0  0  0  0  0  0  0
  -22.1943  -27.7880   18.1573 C   0  0  0  0  0  0  0  0  0  0  0  0
  -24.3088  -25.9783   18.1625 C   0  0  0  0  0  0  0  0  0  0  0  0
  -26.6287  -22.7796   21.3298 C   0  0  0  0  0  0  0  0  0  0  0  0
  -20.9570  -23.5017   25.3896 C   0  0  0  0  0  0  0  0  0  0  0  0
  -20.8238  -23.5877   22.9788 C   0  0  0  0  0  0  0  0  0  0  0  0
  -27.1729  -21.6204   20.7786 C   0  0  0  0  0  0  0  0  0  0  0  0
  -19.0965  -26.4203   23.6219 C   0  0  0  0  0  0  0  0  0  0  0  0
  -18.3063  -27.2435   22.8198 C   0  0  0  0  0  0  0  0  0  0  0  0
  -28.5081  -11.8508   19.6821 C   0  0  0  0  0  0  0  0  0  0  0  0
  -28.0940  -14.0309   20.6373 C   0  0  0  0  0  0  0  0  0  0  0  0
  -29.3576  -22.6430   20.8001 C   0  0  0  0  0  0  0  0  0  0  0  0
  -30.2342  -13.5404   19.6294 C   0  0  0  0  0  0  0  0  0  0  0  0
  -20.2809  -28.0004   21.6514 C   0  0  0  0  0  0  0  0  0  0  0  0
  -20.5125  -21.4875   24.1317 C   0  0  0  0  0  0  0  0  0  0  0  0
  -18.9974  -19.4351   24.1413 C   0  0  0  0  0  0  0  0  0  0  0  0
  -23.4767  -28.2294   18.5194 C   0  0  0  0  0  0  0  0  0  0  0  0
  -27.4445  -23.8850   21.6107 C   0  0  0  0  0  0  0  0  0  0  0  0
  -24.5496  -27.3177   18.5126 C   0  0  0  0  0  0  0  0  0  0  0  0
  -27.6567  -12.7409   20.3364 C   0  0  0  0  0  0  0  0  0  0  0  0
  -28.8218  -23.8141   21.3573 C   0  0  0  0  0  0  0  0  0  0  0  0
  -29.7970  -12.2505   19.3286 C   0  0  0  0  0  0  0  0  0  0  0  0
  -21.0164  -24.2304   24.2017 C   0  0  0  0  0  0  0  0  0  0  0  0
  -28.5371  -21.5530   20.5109 C   0  0  0  0  0  0  0  0  0  0  0  0
  -20.4789  -26.3872   23.4389 C   0  0  0  0  0  0  0  0  0  0  0  0
  -29.3828  -14.4306   20.2837 C   0  0  0  0  0  0  0  0  0  0  0  0
  -18.8984  -28.0336   21.8345 C   0  0  0  0  0  0  0  0  0  0  0  0
  -21.0711  -27.1772   22.4536 C   0  0  0  0  0  0  0  0  0  0  0  0
  -20.2527  -20.0707   24.0948 C   0  0  0  0  0  0  0  0  0  0  0  0
  -19.2888  -18.0944   24.0766 C   0  0  0  0  0  0  0  0  0  0  0  0
  -17.6854  -20.0056   24.2346 C   0  0  0  0  0  0  0  0  0  0  0  0
  -27.5728  -26.8941   20.5944 C   0  0  0  0  0  0  0  0  0  0  0  0
  -29.8446  -27.1638   22.8941 C   0  0  0  0  0  0  0  0  0  0  0  0
  -32.1787  -25.6295   24.8549 C   0  0  0  0  0  0  0  0  0  0  0  0
  -23.8618  -15.1716   21.7716 C   0  0  0  0  0  0  0  0  0  0  0  0
  -23.6783  -29.6893   18.8403 C   0  0  0  0  0  0  0  0  0  0  0  0
  -26.8465  -25.1184   22.2301 C   0  0  0  0  0  0  0  0  0  0  0  0
  -29.7441  -24.9659   21.6594 C   0  0  0  0  0  0  0  0  0  0  0  0
  -24.9932  -29.9790   19.5594 C   0  0  0  0  0  0  0  0  0  0  0  0
  -22.7175  -14.9493   25.1967 C   0  0  0  0  0  0  0  0  0  0  0  0
  -25.4057  -11.3629   19.7576 C   0  0  0  0  0  0  0  0  0  0  0  0
  -26.1480  -29.2573   18.8719 C   0  0  0  0  0  0  0  0  0  0  0  0
  -21.8285  -16.1898   25.2995 C   0  0  0  0  0  0  0  0  0  0  0  0
  -24.1201  -12.0730   20.2208 C   0  0  0  0  0  0  0  0  0  0  0  0
  -23.9509  -15.2211   24.3400 C   0  0  0  0  0  0  0  0  0  0  0  0
  -22.7633  -16.9686   23.0735 C   0  0  0  0  0  0  0  0  0  0  0  0
  -26.1903  -12.2865   20.7384 C   0  0  2  0  0  0  0  0  0  0  0  0
  -25.9487  -27.7373   18.9086 C   0  0  1  0  0  0  0  0  0  0  0  0
  -27.6864  -26.3707   21.9983 C   0  0  1  0  0  0  0  0  0  0  0  0
  -21.4872  -16.7508   23.9065 C   0  0  2  0  0  0  0  0  0  0  0  0
  -25.0057  -13.2914   20.5620 C   0  0  2  0  0  0  0  0  0  0  0  0
  -30.7071  -11.2985   18.6290 C   0  0  0  0  0  0  0  0  0  0  0  0
  -33.9053  -26.1169   26.6095 C   0  0  0  0  0  0  0  0  0  0  0  0
  -31.7047  -28.2823   20.7496 C   0  0  0  0  0  0  0  0  0  0  0  0
  -33.6283  -27.8555   22.2942 C   0  0  0  0  0  0  0  0  0  0  0  0
  -31.8314  -29.4545   22.9551 C   0  0  0  0  0  0  0  0  0  0  0  0
  -30.8148  -23.9097   26.8401 C   0  0  0  0  0  0  0  0  0  0  0  0
  -29.4498  -18.0578   20.2621 C   0  0  0  0  0  0  0  0  0  0  0  0
  -28.4321  -19.1873   20.2911 C   0  0  0  0  0  0  0  0  0  1  0  0
  -28.8231  -16.7181   20.6154 C   0  0  0  0  0  0  0  0  0  0  0  0
  -31.3414  -26.9742   22.9457 C   0  0  1  0  0  0  0  0  0  0  0  0
  -32.4612  -25.7213   26.3436 C   0  0  2  0  0  0  0  0  0  0  0  0
  -32.1090  -28.1205   22.2285 C   0  0  0  0  0  0  0  0  0  0  0  0
  -21.2661  -19.2050   24.0074 N   0  0  0  0  0  0  0  0  0  0  0  0
  -20.6480  -18.0117   23.9986 N   0  0  0  0  0  0  0  0  0  0  0  0
  -29.1107  -26.1522   22.2586 N   0  0  0  0  0  0  0  0  0  0  0  0
  -23.5556  -15.7350   23.0206 N   0  0  0  0  0  0  0  0  0  0  0  0
  -18.5125  -16.9901   24.0794 N   0  0  0  0  0  0  0  0  0  0  0  0
  -17.5660  -21.4009   24.2917 N   0  0  0  0  0  0  0  0  0  0  0  0
  -26.2831  -27.2152   20.2163 N   0  0  0  0  0  0  0  0  0  0  0  0
  -31.6844  -26.8156   24.3548 N   0  0  0  0  0  0  0  0  0  0  0  0
  -24.6130  -14.0014   21.7969 N   0  0  0  0  0  0  0  0  0  0  0  0
  -32.2047  -24.4088   27.0013 N   0  3  0  0  0  0  0  0  0  0  0  0
  -16.6505  -19.2984   24.2830 O   0  0  0  0  0  0  0  0  0  0  0  0
  -28.5809  -27.0002   19.9058 O   0  0  0  0  0  0  0  0  0  0  0  0
  -29.3444  -28.1688   23.4053 O   0  0  0  0  0  0  0  0  0  0  0  0
  -32.3801  -24.6090   24.2003 O   0  0  0  0  0  0  0  0  0  0  0  0
  -23.4895  -15.6683   20.7028 O   0  0  0  0  0  0  0  0  0  0  0  0
  -21.2620  -25.5687   24.2355 O   0  0  0  0  0  0  0  0  0  0  0  0
  -29.0707  -20.4230   19.9723 O   0  0  0  0  0  0  0  0  0  1  0  0
  -29.8123  -15.6983   20.5791 O   0  0  0  0  0  0  0  0  0  0  0  0
  -18.1393  -28.8229   21.0633 F   0  0  0  0  0  0  0  0  0  0  0  0
  -22.3985  -27.1488   22.2722 F   0  0  0  0  0  0  0  0  0  0  0  0
  1  2  1  0  0  0  0
  1  5  2  0  0  0  0
  2  6  2  0  0  0  0
  3  8  2  0  0  0  0
  3 18  1  0  0  0  0
  4  9  1  0  0  0  0
  4 18  2  0  0  0  0
  5 20  1  0  0  0  0
  6 22  1  0  0  0  0
  7 10  2  0  0  0  0
  7 21  1  0  0  0  0
  8 26  1  0  0  0  0
  9 26  2  0  0  0  0
 10 27  1  0  0  0  0
 11 12  2  0  0  0  0
 11 28  1  0  0  0  0
 12 30  1  0  0  0  0
 13 23  2  0  0  0  0
 13 25  1  0  0  0  0
 14 23  1  0  0  0  0
 14 29  2  0  0  0  0
 15 24  1  0  0  0  0
 15 27  2  0  0  0  0
 16 25  2  0  0  0  0
 16 29  1  0  0  0  0
 17 30  2  0  0  0  0
 17 31  1  0  0  0  0
 18 32  1  0  0  0  0
 19 32  1  0  0  0  0
 19 33  2  0  0  0  0
 19 34  1  0  0  0  0
 20 22  2  0  0  0  0
 20 39  1  0  0  0  0
 21 24  2  0  0  0  0
 21 40  1  0  0  0  0
 22 51  1  0  0  0  0
 23 50  1  0  0  0  0
 24 41  1  0  0  0  0
 25 55  1  0  0  0  0
 26 82  1  0  0  0  0
 27 83  1  0  0  0  0
 28 31  2  0  0  0  0
 28 82  1  0  0  0  0
 29 84  1  0  0  0  0
 30 85  1  0  0  0  0
 31 86  1  0  0  0  0
 32 67  2  0  0  0  0
 33 68  1  0  0  0  0
 33 71  1  0  0  0  0
 34 72  1  0  0  0  0
 34 77  2  0  0  0  0
 35 52  1  0  0  0  0
 35 73  1  0  0  0  0
 35 78  2  0  0  0  0
 36 64  1  0  0  0  0
 36 69  1  0  0  0  0
 36 79  2  0  0  0  0
 37 65  1  0  0  0  0
 37 74  1  0  0  0  0
 37 80  2  0  0  0  0
 38 70  1  0  0  0  0
 38 75  1  0  0  0  0
 38 81  2  0  0  0  0
 39 42  1  0  0  0  0
 40 52  1  0  0  0  0
 41 69  1  0  0  0  0
 42 45  1  0  0  0  0
 43 46  1  0  0  0  0
 43 48  1  0  0  0  0
 44 47  1  0  0  0  0
 44 50  1  0  0  0  0
 45 51  1  0  0  0  0
 46 53  1  0  0  0  0
 47 54  1  0  0  0  0
 48 70  1  0  0  0  0
 49 53  1  0  0  0  0
 49 70  1  0  0  0  0
 50 54  1  0  0  0  0
 51 73  1  0  0  0  0
 52 69  1  0  0  0  0
 53 68  1  0  0  0  0
 54 75  1  0  0  0  0
 56 65  1  0  0  0  0
 57 66  1  0  0  0  0
 58 66  1  0  0  0  0
 59 66  1  0  0  0  0
 60 76  1  0  0  0  0
 61 62  1  0  0  0  0
 61 63  1  0  0  0  0
 62 83  1  0  0  0  0
 63 84  1  0  0  0  0
 64 66  1  0  0  0  0
 64 74  1  0  0  0  0
 65 76  1  0  0  0  0
 67 68  1  0  0  0  0
M  CHG  1  76   1
M  ISO  4  38 100  62 101  75 100  83 101
M  END
> <Batch ID>
0151

> <Smiles>
CNC(C)C(=O)NC(C(=O)N1Cc2cc([101O:1][101CH2:1]CCOc3cc(C)cc(C4CCC4[100NH:0][100C:0](=O)N4CCCC(n5nc(-c6ccc(Oc7ccc(F)cc7F)cc6)c(C(N)=O)c5N)C4)c3)ccc2CC1C(=O)NC1CCCc2ccccc21)C(C)(C)C

> <Shape>
0.200

> <Color>
0.082

> <Negative vol penalty>
0.000

$$$$

  -OEChem-04052321433D

 90100  0     1  0  0  0  0  0999 V2000
  -17.5102  -28.6665   26.8937 C   0  0  0  0  0  0  0  0  0  0  0  0
  -18.5846  -27.8051   26.6957 C   0  0  0  0  0  0  0  0  0  0  0  0
  -22.7722  -10.2324   20.1000 C   0  0  0  0  0  0  0  0  0  0  0  0
  -23.6678  -10.0618   22.3374 C   0  0  0  0  0  0  0  0  0  0  0  0
  -16.8651  -29.2379   25.7976 C   0  0  0  0  0  0  0  0  0  0  0  0
  -19.0138  -27.5138   25.4014 C   0  0  0  0  0  0  0  0  0  0  0  0
  -24.7702  -26.5015   23.5722 C   0  0  0  0  0  0  0  0  0  0  0  0
  -21.9379   -9.1432   20.3508 C   0  0  0  0  0  0  0  0  0  0  0  0
  -22.8335   -8.9725   22.5882 C   0  0  0  0  0  0  0  0  0  0  0  0
  -25.4860  -25.3292   23.3333 C   0  0  0  0  0  0  0  0  0  0  0  0
  -22.7701   -5.6674   21.8786 C   0  0  0  0  0  0  0  0  0  0  0  0
  -23.3272   -4.5569   22.5127 C   0  0  0  0  0  0  0  0  0  0  0  0
  -24.9615  -25.4945   20.9846 C   0  0  0  0  0  0  0  0  0  0  0  0
  -21.7576   -4.8084   24.3321 C   0  0  0  0  0  0  0  0  0  0  0  0
  -23.6372  -10.6917   21.0932 C   0  0  0  0  0  0  0  0  0  0  0  0
  -24.2115  -13.1770   21.0539 C   0  0  0  0  0  0  0  0  0  0  0  0
  -17.2929  -28.9610   24.4895 C   0  0  0  0  0  0  0  0  0  0  0  0
  -24.1343  -27.1743   22.5188 C   0  0  0  0  0  0  0  0  0  0  0  0
  -18.3731  -28.0810   24.2867 C   0  0  0  0  0  0  0  0  0  0  0  0
  -24.2403  -26.6766   21.2123 C   0  0  0  0  0  0  0  0  0  0  0  0
  -29.3476  -20.8177   21.0995 C   0  0  0  0  0  0  0  0  0  0  0  0
  -28.6602  -21.9516   21.5322 C   0  0  0  0  0  0  0  0  0  0  0  0
  -29.0029  -19.5609   21.5970 C   0  0  0  0  0  0  0  0  0  0  0  0
  -27.9709  -19.4382   22.5273 C   0  0  0  0  0  0  0  0  0  0  0  0
  -27.2835  -20.5721   22.9601 C   0  0  0  0  0  0  0  0  0  0  0  0
  -27.6282  -21.8289   22.4625 C   0  0  0  0  0  0  0  0  0  0  0  0
  -21.9685   -8.5132   21.5949 C   0  0  0  0  0  0  0  0  0  0  0  0
  -25.5794  -24.8240   22.0398 C   0  0  0  0  0  0  0  0  0  0  0  0
  -21.7068   -6.3485   22.4713 C   0  0  0  0  0  0  0  0  0  0  0  0
  -22.8209   -4.1274   23.7394 C   0  0  0  0  0  0  0  0  0  0  0  0
  -21.2005   -5.9190   23.6980 C   0  0  0  0  0  0  0  0  0  0  0  0
  -24.4997  -11.8166   20.8345 C   0  0  0  0  0  0  0  0  0  0  0  0
  -25.3463  -13.8376   20.6510 C   0  0  0  0  0  0  0  0  0  0  0  0
  -23.0243  -13.7887   21.5753 C   0  0  0  0  0  0  0  0  0  0  0  0
  -21.1223  -27.9146   21.8236 C   0  0  0  0  0  0  0  0  0  0  0  0
  -22.4970  -29.5455   19.3797 C   0  0  0  0  0  0  0  0  0  0  0  0
  -25.1675  -29.9237   17.2888 C   0  0  0  0  0  0  0  0  0  0  0  0
  -30.9037  -14.3320   20.5228 C   0  0  0  0  0  0  0  0  0  0  0  0
  -16.5343  -29.5652   23.3345 C   0  0  0  0  0  0  0  0  0  0  0  0
  -23.3884  -28.4522   22.7890 C   0  0  0  0  0  0  0  0  0  0  0  0
  -23.5930  -27.3722   20.0437 C   0  0  0  0  0  0  0  0  0  0  0  0
  -17.2888  -29.4993   22.0091 C   0  0  0  0  0  0  0  0  0  0  0  0
  -32.4262  -17.4897   23.6558 C   0  0  0  0  0  0  0  0  0  0  0  0
  -29.3992  -12.1775   18.1204 C   0  0  0  0  0  0  0  0  0  0  0  0
  -30.1756  -21.6296   18.7910 C   0  0  0  0  0  0  0  0  0  0  0  0
  -30.3884  -20.1486   18.8307 C   0  0  0  0  0  0  0  0  0  0  0  0
  -17.8751  -28.1071   21.7973 C   0  0  0  0  0  0  0  0  0  0  0  0
  -31.4611  -18.4784   22.9982 C   0  0  0  0  0  0  0  0  0  0  0  0
  -27.9694  -11.9990   18.6338 C   0  0  0  0  0  0  0  0  0  0  0  0
  -32.1046  -16.1151   23.0679 C   0  0  0  0  0  0  0  0  0  0  0  0
  -30.4049  -12.2558   19.2669 C   0  0  0  0  0  0  0  0  0  0  0  0
  -28.6701  -13.0953   20.8030 C   0  0  0  0  0  0  0  0  0  0  0  0
  -30.4556  -20.9487   20.1020 C   0  0  0  0  0  0  0  0  0  0  0  0
  -18.8838  -27.7599   22.8989 C   0  0  1  0  0  0  0  0  0  0  0  0
  -22.3496  -28.7752   21.7194 C   0  0  1  0  0  0  0  0  0  0  0  0
  -30.4223  -17.6147   22.2804 C   0  0  2  0  0  0  0  0  0  0  0  0
  -27.6137  -13.0672   19.6853 C   0  0  2  0  0  0  0  0  0  0  0  0
  -31.2507  -16.4071   21.8392 C   0  0  2  0  0  0  0  0  0  0  0  0
  -29.0290  -23.3007   20.9992 C   0  0  0  0  0  0  0  0  0  0  0  0
  -27.6007  -18.0901   23.0610 C   0  0  0  0  0  0  0  0  0  0  0  0
  -26.1754  -20.4412   23.9573 C   0  0  0  0  0  0  0  0  0  0  0  0
  -25.9850  -31.3194   15.3701 C   0  0  0  0  0  0  0  0  0  0  0  0
  -20.6406  -28.0310   17.4902 C   0  0  0  0  0  0  0  0  0  0  0  0
  -22.1162  -28.7301   15.5923 C   0  0  0  0  0  0  0  0  0  0  0  0
  -20.9294  -30.4553   16.9480 C   0  0  0  0  0  0  0  0  0  0  0  0
  -27.4952  -30.8959   18.8365 C   0  0  0  0  0  0  0  0  0  0  0  0
  -29.7397  -18.3434   21.1337 C   0  0  0  0  0  0  0  0  0  0  0  0
  -26.8882  -23.0482   22.9283 C   0  0  0  0  0  0  0  0  0  1  0  0
  -22.8866  -29.2149   17.9592 C   0  0  1  0  0  0  0  0  0  0  0  0
  -25.9620  -31.1515   16.8814 C   0  0  2  0  0  0  0  0  0  0  0  0
  -21.6539  -29.0934   17.0195 C   0  0  0  0  0  0  0  0  0  0  0  0
  -25.7217  -11.6230   20.3312 N   0  0  0  0  0  0  0  0  0  0  0  0
  -26.2113  -12.8705   20.2308 N   0  0  0  0  0  0  0  0  0  0  0  0
  -22.8694  -28.6148   20.3599 N   0  0  0  0  0  0  0  0  0  0  0  0
  -30.0105  -13.2887   20.2279 N   0  0  0  0  0  0  0  0  0  0  0  0
  -25.6785  -15.1457   20.6185 N   0  0  0  0  0  0  0  0  0  0  0  0
  -21.9524  -12.9629   21.9406 N   0  0  0  0  0  0  0  0  0  0  0  0
  -20.1457  -28.4259   22.6568 N   0  0  0  0  0  0  0  0  0  0  0  0
  -23.8499  -30.2324   17.5527 N   0  0  0  0  0  0  0  0  0  0  0  0
  -30.4488  -15.2723   21.4392 N   0  0  0  0  0  0  0  0  0  0  0  0
  -27.3678  -31.0423   17.3637 N   0  3  0  0  0  0  0  0  0  0  0  0
  -22.9110  -15.0319   21.6979 O   0  0  0  0  0  0  0  0  0  0  0  0
  -21.0650  -26.8652   21.1935 O   0  0  0  0  0  0  0  0  0  0  0  0
  -21.8910  -30.5946   19.6120 O   0  0  0  0  0  0  0  0  0  0  0  0
  -25.6652  -28.8023   17.3616 O   0  0  0  0  0  0  0  0  0  0  0  0
  -32.0214  -14.4219   20.0037 O   0  0  0  0  0  0  0  0  0  0  0  0
  -21.1543   -7.4504   21.8402 O   0  0  0  0  0  0  0  0  0  0  0  0
  -26.2769  -23.6796   21.8040 O   0  0  0  0  0  0  0  0  0  1  0  0
  -23.3549   -3.0600   24.3474 F   0  0  0  0  0  0  0  0  0  0  0  0
  -20.1784   -6.5685   24.2717 F   0  0  0  0  0  0  0  0  0  0  0  0
  1  2  1  0  0  0  0
  1  5  2  0  0  0  0
  2  6  2  0  0  0  0
  3  8  2  0  0  0  0
  3 15  1  0  0  0  0
  4  9  1  0  0  0  0
  4 15  2  0  0  0  0
  5 17  1  0  0  0  0
  6 19  1  0  0  0  0
  7 10  2  0  0  0  0
  7 18  1  0  0  0  0
  8 27  1  0  0  0  0
  9 27  2  0  0  0  0
 10 28  1  0  0  0  0
 11 12  2  0  0  0  0
 11 29  1  0  0  0  0
 12 30  1  0  0  0  0
 13 20  1  0  0  0  0
 13 28  2  0  0  0  0
 14 30  2  0  0  0  0
 14 31  1  0  0  0  0
 15 32  1  0  0  0  0
 16 32  1  0  0  0  0
 16 33  2  0  0  0  0
 16 34  1  0  0  0  0
 17 19  2  0  0  0  0
 17 39  1  0  0  0  0
 18 20  2  0  0  0  0
 18 40  1  0  0  0  0
 19 54  1  0  0  0  0
 20 41  1  0  0  0  0
 21 22  1  0  0  0  0
 21 23  2  0  0  0  0
 21 53  1  0  0  0  0
 22 26  2  0  0  0  0
 22 59  1  0  0  0  0
 23 24  1  0  0  0  0
 23 67  1  0  0  0  0
 24 25  2  0  0  0  0
 24 60  1  0  0  0  0
 25 26  1  0  0  0  0
 25 61  1  0  0  0  0
 26 68  1  0  0  0  0
 27 87  1  0  0  0  0
 28 88  1  0  0  0  0
 29 31  2  0  0  0  0
 29 87  1  0  0  0  0
 30 89  1  0  0  0  0
 31 90  1  0  0  0  0
 32 72  2  0  0  0  0
 33 73  1  0  0  0  0
 33 76  1  0  0  0  0
 34 77  1  0  0  0  0
 34 82  2  0  0  0  0
 35 55  1  0  0  0  0
 35 78  1  0  0  0  0
 35 83  2  0  0  0  0
 36 69  1  0  0  0  0
 36 74  1  0  0  0  0
 36 84  2  0  0  0  0
 37 70  1  0  0  0  0
 37 79  1  0  0  0  0
 37 85  2  0  0  0  0
 38 75  1  0  0  0  0
 38 80  1  0  0  0  0
 38 86  2  0  0  0  0
 39 42  1  0  0  0  0
 40 55  1  0  0  0  0
 41 74  1  0  0  0  0
 42 47  1  0  0  0  0
 43 48  1  0  0  0  0
 43 50  1  0  0  0  0
 44 49  1  0  0  0  0
 44 51  1  0  0  0  0
 45 46  1  0  0  0  0
 45 53  1  0  0  0  0
 46 53  1  0  0  0  0
 47 54  1  0  0  0  0
 48 56  1  0  0  0  0
 49 57  1  0  0  0  0
 50 58  1  0  0  0  0
 51 75  1  0  0  0  0
 52 57  1  0  0  0  0
 52 75  1  0  0  0  0
 54 78  1  0  0  0  0
 55 74  1  0  0  0  0
 56 58  1  0  0  0  0
 56 67  1  0  0  0  0
 57 73  1  0  0  0  0
 58 80  1  0  0  0  0
 62 70  1  0  0  0  0
 63 71  1  0  0  0  0
 64 71  1  0  0  0  0
 65 71  1  0  0  0  0
 66 81  1  0  0  0  0
 68 88  1  0  0  0  0
 69 71  1  0  0  0  0
 69 79  1  0  0  0  0
 70 81  1  0  0  0  0
 72 73  1  0  0  0  0
M  CHG  1  81   1
M  ISO  4  38 100  68 101  80 100  88 101
M  END
> <Batch ID>
0151

> <Smiles>
CNC(C)C(=O)NC(C(=O)N1Cc2cc([101O:1][101CH2:1]c3c(C)c(C)c(CC4CCCC4[100NH:0][100C:0](=O)N4CCCC(n5nc(-c6ccc(Oc7ccc(F)cc7F)cc6)c(C(N)=O)c5N)C4)c(C4CC4)c3C)ccc2CC1C(=O)NC1CCCc2ccccc21)C(C)(C)C

> <Shape>
0.302

> <Color>
0.197

> <Negative vol penalty>
0.000

$$$$

  -OEChem-04052321433D

 92102  0     1  0  0  0  0  0999 V2000
  -32.5133  -14.7242   20.3304 C   0  0  0  0  0  0  0  0  0  0  0  0
  -31.6298  -15.7913   20.2034 C   0  0  0  0  0  0  0  0  0  0  0  0
  -26.4233  -24.8146   18.4760 C   0  0  0  0  0  0  0  0  0  0  0  0
  -28.4189  -25.9365   19.2480 C   0  0  0  0  0  0  0  0  0  0  0  0
  -32.0656  -13.4209   20.1182 C   0  0  0  0  0  0  0  0  0  0  0  0
  -30.2982  -15.5558   19.8631 C   0  0  0  0  0  0  0  0  0  0  0  0
  -25.3972  -18.6798   21.7936 C   0  0  0  0  0  0  0  0  0  0  0  0
  -27.0569  -23.5815   18.6300 C   0  0  0  0  0  0  0  0  0  0  0  0
  -29.0525  -24.7034   19.4020 C   0  0  0  0  0  0  0  0  0  0  0  0
  -24.6462  -19.7000   21.2115 C   0  0  0  0  0  0  0  0  0  0  0  0
  -29.3050  -21.7084   16.9383 C   0  0  0  0  0  0  0  0  0  0  0  0
  -29.1698  -20.7780   15.9079 C   0  0  0  0  0  0  0  0  0  0  0  0
  -23.0626  -18.0675   20.4077 C   0  0  0  0  0  0  0  0  0  0  0  0
  -22.2857  -25.7029   23.3071 C   0  0  0  0  0  0  0  0  0  0  0  0
  -28.1360  -19.2265   17.4446 C   0  0  0  0  0  0  0  0  0  0  0  0
  -27.1043  -25.9921   18.7850 C   0  0  0  0  0  0  0  0  0  0  0  0
  -25.9259  -27.8097   17.4377 C   0  0  0  0  0  0  0  0  0  0  0  0
  -30.7256  -13.1686   19.7845 C   0  0  0  0  0  0  0  0  0  0  0  0
  -24.9917  -17.3424   21.6776 C   0  0  0  0  0  0  0  0  0  0  0  0
  -29.8325  -14.2481   19.6449 C   0  0  0  0  0  0  0  0  0  0  0  0
  -23.8089  -17.0323   20.9914 C   0  0  0  0  0  0  0  0  0  0  0  0
  -21.2052  -25.2315   22.5615 C   0  0  0  0  0  0  0  0  0  0  0  0
  -20.0481  -26.0020   22.4465 C   0  0  0  0  0  0  0  0  0  0  0  0
  -21.0520  -27.7152   23.8227 C   0  0  0  0  0  0  0  0  0  0  0  0
  -28.3715  -23.5259   19.0930 C   0  0  0  0  0  0  0  0  0  0  0  0
  -23.4802  -19.3937   20.5160 C   0  0  0  0  0  0  0  0  0  0  0  0
  -28.8558  -21.3978   18.2219 C   0  0  0  0  0  0  0  0  0  0  0  0
  -22.2091  -26.9447   23.9378 C   0  0  0  0  0  0  0  0  0  0  0  0
  -19.9715  -27.2438   23.0771 C   0  0  0  0  0  0  0  0  0  0  0  0
  -28.5853  -19.5370   16.1611 C   0  0  0  0  0  0  0  0  0  0  0  0
  -28.2713  -20.1569   18.4750 C   0  0  0  0  0  0  0  0  0  0  0  0
  -26.4505  -27.2662   18.6256 C   0  0  0  0  0  0  0  0  0  0  0  0
  -25.4162  -29.0285   17.8136 C   0  0  0  0  0  0  0  0  0  0  0  0
  -25.9014  -27.2619   16.1130 C   0  0  0  0  0  0  0  0  0  0  0  0
  -26.2431  -14.7233   20.3822 C   0  0  0  0  0  0  0  0  0  0  0  0
  -23.6822  -13.2883   21.7625 C   0  0  0  0  0  0  0  0  0  0  0  0
  -20.5085  -13.5773   22.9834 C   0  0  0  0  0  0  0  0  0  0  0  0
  -23.4223  -31.1798   23.0336 C   0  0  0  0  0  0  0  0  0  0  0  0
  -30.2991  -11.7467   19.5184 C   0  0  0  0  0  0  0  0  0  0  0  0
  -25.7987  -16.2560   22.3340 C   0  0  0  0  0  0  0  0  0  0  0  0
  -23.3194  -15.6145   20.8554 C   0  0  0  0  0  0  0  0  0  0  0  0
  -28.7849  -11.5529   19.5280 C   0  0  0  0  0  0  0  0  0  0  0  0
  -26.0406  -32.5185   21.0263 C   0  0  0  0  0  0  0  0  0  0  0  0
  -22.1801  -22.8988   22.6990 C   0  0  0  0  0  0  0  0  0  0  0  0
  -21.8266  -23.9984   20.4396 C   0  0  0  0  0  0  0  0  0  0  0  0
  -28.1020  -12.6434   18.7087 C   0  0  0  0  0  0  0  0  0  0  0  0
  -26.3952  -31.3732   20.0762 C   0  0  0  0  0  0  0  0  0  0  0  0
  -22.2760  -21.5377   22.0144 C   0  0  0  0  0  0  0  0  0  0  0  0
  -21.9237  -22.6316   19.7669 C   0  0  0  0  0  0  0  0  0  0  0  0
  -17.0345  -29.0108   24.3396 C   0  0  0  0  0  0  0  0  0  0  0  0
  -16.4112  -27.9488   23.4816 C   0  0  0  0  0  0  0  0  0  0  0  0
  -25.6752  -32.0052   22.4173 C   0  0  0  0  0  0  0  0  0  0  0  0
  -24.9716  -29.8328   21.4902 C   0  0  0  0  0  0  0  0  0  0  0  0
  -21.3138  -23.8768   21.8856 C   0  0  0  0  0  0  0  0  0  0  0  0
  -28.3747  -14.0312   19.3014 C   0  0  1  0  0  0  0  0  0  0  0  0
  -25.5661  -14.8815   21.7142 C   0  0  1  0  0  0  0  0  0  0  0  0
  -25.2930  -30.2971   20.0593 C   0  0  2  0  0  0  0  0  0  0  0  0
  -22.7808  -21.6628   20.5780 C   0  0  0  0  0  0  0  0  0  1  0  0
  -17.8300  -27.7976   23.9505 C   0  0  0  0  0  0  0  0  0  0  0  0
  -18.8873  -25.4990   21.6486 C   0  0  0  0  0  0  0  0  0  0  0  0
  -18.6622  -12.2234   24.0107 C   0  0  0  0  0  0  0  0  0  0  0  0
  -23.0197  -12.1180   19.0236 C   0  0  0  0  0  0  0  0  0  0  0  0
  -20.7260  -11.5943   19.8795 C   0  0  0  0  0  0  0  0  0  0  0  0
  -22.7216  -10.5332   20.9350 C   0  0  0  0  0  0  0  0  0  0  0  0
  -20.5560  -15.1839   25.4684 C   0  0  0  0  0  0  0  0  0  0  0  0
  -24.4157  -26.5360   24.7249 C   0  0  0  0  0  0  0  0  0  0  0  0
  -20.9720  -29.0463   24.4988 C   0  0  0  0  0  0  0  0  0  0  0  0
  -21.1889  -30.2279   23.5482 C   0  0  0  0  0  0  0  0  0  0  0  0
  -22.2660  -12.9877   21.3348 C   0  0  1  0  0  0  0  0  0  0  0  0
  -19.8794  -13.0949   24.2780 C   0  0  2  0  0  0  0  0  0  0  0  0
  -22.1933  -11.8349   20.2939 C   0  0  0  0  0  0  0  0  0  0  0  0
  -26.2892  -28.0735   19.6774 N   0  0  0  0  0  0  0  0  0  0  0  0
  -25.6575  -29.1368   19.1516 N   0  0  0  0  0  0  0  0  0  0  0  0
  -24.1464  -14.5869   21.5093 N   0  0  0  0  0  0  0  0  0  0  0  0
  -24.6237  -30.9889   22.3312 N   0  0  0  0  0  0  0  0  0  0  0  0
  -24.7898  -30.0075   17.1269 N   0  0  0  0  0  0  0  0  0  0  0  0
  -26.9772  -27.5348   15.2571 N   0  0  0  0  0  0  0  0  0  0  0  0
  -27.5415  -14.2573   20.4629 N   0  0  0  0  0  0  0  0  0  0  0  0
  -21.5146  -12.7351   22.5596 N   0  0  0  0  0  0  0  0  0  0  0  0
  -22.4764  -30.1718   22.8925 N   0  0  0  0  0  0  0  0  0  0  0  0
  -19.4531  -14.2551   25.1105 N   0  3  0  0  0  0  0  0  0  0  0  0
  -24.9457  -26.5651   15.6949 O   0  0  0  0  0  0  0  0  0  0  0  0
  -25.6323  -15.0019   19.3571 O   0  0  0  0  0  0  0  0  0  0  0  0
  -24.3496  -12.4057   22.3077 O   0  0  0  0  0  0  0  0  0  0  0  0
  -20.1413  -14.5971   22.4039 O   0  0  0  0  0  0  0  0  0  0  0  0
  -23.2065  -32.1773   23.7301 O   0  0  0  0  0  0  0  0  0  0  0  0
  -28.9900  -22.3229   19.2436 O   0  0  0  0  0  0  0  0  0  0  0  0
  -22.7456  -20.3876   19.9463 O   0  0  0  0  0  0  0  0  0  1  0  0
  -18.8399  -27.9974   22.9647 O   0  0  0  0  0  0  0  0  0  0  0  0
  -23.2746  -27.3891   24.6613 O   0  0  0  0  0  0  0  0  0  0  0  0
  -28.4541  -18.6443   15.1711 F   0  0  0  0  0  0  0  0  0  0  0  0
  -27.8368  -19.8533   19.7058 F   0  0  0  0  0  0  0  0  0  0  0  0
  1  2  1  0  0  0  0
  1  5  2  0  0  0  0
  2  6  2  0  0  0  0
  3  8  2  0  0  0  0
  3 16  1  0  0  0  0
  4  9  1  0  0  0  0
  4 16  2  0  0  0  0
  5 18  1  0  0  0  0
  6 20  1  0  0  0  0
  7 10  2  0  0  0  0
  7 19  1  0  0  0  0
  8 25  1  0  0  0  0
  9 25  2  0  0  0  0
 10 26  1  0  0  0  0
 11 12  2  0  0  0  0
 11 27  1  0  0  0  0
 12 30  1  0  0  0  0
 13 21  1  0  0  0  0
 13 26  2  0  0  0  0
 14 22  1  0  0  0  0
 14 28  2  0  0  0  0
 15 30  2  0  0  0  0
 15 31  1  0  0  0  0
 16 32  1  0  0  0  0
 17 32  1  0  0  0  0
 17 33  2  0  0  0  0
 17 34  1  0  0  0  0
 18 20  2  0  0  0  0
 18 39  1  0  0  0  0
 19 21  2  0  0  0  0
 19 40  1  0  0  0  0
 20 55  1  0  0  0  0
 21 41  1  0  0  0  0
 22 23  2  0  0  0  0
 22 54  1  0  0  0  0
 23 29  1  0  0  0  0
 23 60  1  0  0  0  0
 24 28  1  0  0  0  0
 24 29  2  0  0  0  0
 24 67  1  0  0  0  0
 25 87  1  0  0  0  0
 26 88  1  0  0  0  0
 27 31  2  0  0  0  0
 27 87  1  0  0  0  0
 28 90  1  0  0  0  0
 29 89  1  0  0  0  0
 30 91  1  0  0  0  0
 31 92  1  0  0  0  0
 32 72  2  0  0  0  0
 33 73  1  0  0  0  0
 33 76  1  0  0  0  0
 34 77  1  0  0  0  0
 34 82  2  0  0  0  0
 35 56  1  0  0  0  0
 35 78  1  0  0  0  0
 35 83  2  0  0  0  0
 36 69  1  0  0  0  0
 36 74  1  0  0  0  0
 36 84  2  0  0  0  0
 37 70  1  0  0  0  0
 37 79  1  0  0  0  0
 37 85  2  0  0  0  0
 38 75  1  0  0  0  0
 38 80  1  0  0  0  0
 38 86  2  0  0  0  0
 39 42  1  0  0  0  0
 40 56  1  0  0  0  0
 41 74  1  0  0  0  0
 42 46  1  0  0  0  0
 43 47  1  0  0  0  0
 43 52  1  0  0  0  0
 44 48  1  0  0  0  0
 44 54  1  0  0  0  0
 45 49  1  0  0  0  0
 45 54  1  0  0  0  0
 46 55  1  0  0  0  0
 47 57  1  0  0  0  0
 48 58  1  0  0  0  0
 49 58  1  0  0  0  0
 50 51  1  0  0  0  0
 50 59  1  0  0  0  0
 51 59  1  0  0  0  0
 52 75  1  0  0  0  0
 53 57  1  0  0  0  0
 53 75  1  0  0  0  0
 55 78  1  0  0  0  0
 56 74  1  0  0  0  0
 57 73  1  0  0  0  0
 58 88  1  0  0  0  0
 59 89  1  0  0  0  0
 61 70  1  0  0  0  0
 62 71  1  0  0  0  0
 63 71  1  0  0  0  0
 64 71  1  0  0  0  0
 65 81  1  0  0  0  0
 66 90  1  0  0  0  0
 67 68  1  0  0  0  0
 68 80  1  0  0  0  0
 69 71  1  0  0  0  0
 69 79  1  0  0  0  0
 70 81  1  0  0  0  0
 72 73  1  0  0  0  0
M  CHG  1  81   1
M  ISO  4  38 100  58 101  80 100  88 101
M  END
> <Batch ID>
0151

> <Smiles>
CNC(C)C(=O)NC(C(=O)N1Cc2cc([101O:1][101CH:1]3CCC(c4cc(OC)c(CC[100NH:0][100C:0](=O)N5CCCC(n6nc(-c7ccc(Oc8ccc(F)cc8F)cc7)c(C(N)=O)c6N)C5)c(OC5CC5)c4C)CC3)ccc2CC1C(=O)NC1CCCc2ccccc21)C(C)(C)C

> <Shape>
0.252

> <Color>
0.067

> <Negative vol penalty>
0.000

$$$$

  -OEChem-04052321433D

 89 99  0     1  0  0  0  0  0999 V2000
  -28.3146  -33.6270   25.7715 C   0  0  0  0  0  0  0  0  0  0  0  0
  -28.5043  -32.6343   24.8155 C   0  0  0  0  0  0  0  0  0  0  0  0
  -23.7238   -9.9535   22.1734 C   0  0  0  0  0  0  0  0  0  0  0  0
  -25.0285   -7.9650   21.7483 C   0  0  0  0  0  0  0  0  0  0  0  0
  -27.1515  -33.6399   26.5401 C   0  0  0  0  0  0  0  0  0  0  0  0
  -27.5313  -31.6531   24.6284 C   0  0  0  0  0  0  0  0  0  0  0  0
  -26.5626  -30.7863   19.7340 C   0  0  0  0  0  0  0  0  0  0  0  0
  -22.5499   -9.2210   21.9969 C   0  0  0  0  0  0  0  0  0  0  0  0
  -23.8547   -7.2325   21.5719 C   0  0  0  0  0  0  0  0  0  0  0  0
  -27.4778  -30.0023   19.0329 C   0  0  0  0  0  0  0  0  0  0  0  0
  -21.1975   -4.7597   21.3650 C   0  0  0  0  0  0  0  0  0  0  0  0
  -21.1127   -3.5109   21.9805 C   0  0  0  0  0  0  0  0  0  0  0  0
  -26.0217  -28.0946   19.2777 C   0  0  0  0  0  0  0  0  0  0  0  0
  -29.0815  -22.7853   21.7498 C   0  0  0  0  0  0  0  0  0  0  0  0
  -21.4069   -4.5550   24.1393 C   0  0  0  0  0  0  0  0  0  0  0  0
  -29.6906  -20.7785   20.0042 C   0  0  0  0  0  0  0  0  0  0  0  0
  -24.9631   -9.3255   22.0490 C   0  0  0  0  0  0  0  0  0  0  0  0
  -26.8787  -10.2855   23.4334 C   0  0  0  0  0  0  0  0  0  0  0  0
  -26.1593  -32.6641   26.3556 C   0  0  0  0  0  0  0  0  0  0  0  0
  -25.3731  -30.2269   20.2225 C   0  0  0  0  0  0  0  0  0  0  0  0
  -26.3544  -31.6522   25.3962 C   0  0  0  0  0  0  0  0  0  0  0  0
  -25.0919  -28.8743   19.9825 C   0  0  0  0  0  0  0  0  0  0  0  0
  -29.1047  -21.4710   22.2027 C   0  0  0  0  0  0  0  0  0  0  0  0
  -29.4142  -20.4425   21.3197 C   0  0  0  0  0  0  0  0  0  0  0  0
  -22.6154   -7.8605   21.6962 C   0  0  0  0  0  0  0  0  0  0  0  0
  -27.2087  -28.6555   18.8072 C   0  0  0  0  0  0  0  0  0  0  0  0
  -21.3870   -5.9062   22.1367 C   0  0  0  0  0  0  0  0  0  0  0  0
  -21.2174   -3.4085   23.3677 C   0  0  0  0  0  0  0  0  0  0  0  0
  -21.4916   -5.8038   23.5238 C   0  0  0  0  0  0  0  0  0  0  0  0
  -26.1760  -10.0818   22.2307 C   0  0  0  0  0  0  0  0  0  0  0  0
  -29.3730  -23.0164   20.4151 C   0  0  0  0  0  0  0  0  0  0  0  0
  -27.9518  -11.0649   23.0762 C   0  0  0  0  0  0  0  0  0  0  0  0
  -26.5876   -9.8125   24.7552 C   0  0  0  0  0  0  0  0  0  0  0  0
  -24.1082  -29.8144   23.1092 C   0  0  0  0  0  0  0  0  0  0  0  0
  -21.5452  -28.7803   21.4109 C   0  0  0  0  0  0  0  0  0  0  0  0
  -20.3369  -27.4571   18.5065 C   0  0  0  0  0  0  0  0  0  0  0  0
  -30.2445  -15.2227   20.3418 C   0  0  0  0  0  0  0  0  0  0  0  0
  -24.9401  -32.6916   27.2429 C   0  0  0  0  0  0  0  0  0  0  0  0
  -24.3839  -31.0924   20.9537 C   0  0  0  0  0  0  0  0  0  0  0  0
  -23.8200  -28.2304   20.4683 C   0  0  0  0  0  0  0  0  0  0  0  0
  -23.7891  -31.8340   26.7232 C   0  0  0  0  0  0  0  0  0  0  0  0
  -29.7513  -12.3222   18.5273 C   0  0  0  0  0  0  0  0  0  0  0  0
  -27.3886  -20.8188   24.0203 C   0  0  0  0  0  0  0  0  0  0  0  0
  -27.9392  -22.1563   24.4051 C   0  0  0  0  0  0  0  0  0  0  0  0
  -24.2980  -30.4624   26.2914 C   0  0  0  0  0  0  0  0  0  0  0  0
  -28.8349  -11.4863   19.4205 C   0  0  0  0  0  0  0  0  0  0  0  0
  -28.4089  -18.1352   21.0240 C   0  0  0  0  0  0  0  0  0  0  0  0
  -30.8617  -18.3813   21.6011 C   0  0  0  0  0  0  0  0  0  0  0  0
  -29.3355  -13.7887   18.5395 C   0  0  0  0  0  0  0  0  0  0  0  0
  -28.4793  -16.6654   21.4479 C   0  0  0  0  0  0  0  0  0  0  0  0
  -30.8677  -16.9183   22.0345 C   0  0  0  0  0  0  0  0  0  0  0  0
  -28.3814  -13.5677   20.8108 C   0  0  0  0  0  0  0  0  0  0  0  0
  -28.7968  -21.1873   23.6350 C   0  0  0  0  0  0  0  0  0  0  0  0
  -29.4568  -18.9909   21.7584 C   0  0  0  0  0  0  0  0  0  0  0  0
  -25.3108  -30.5851   25.1466 C   0  0  1  0  0  0  0  0  0  0  0  0
  -23.4421  -30.2960   21.8514 C   0  0  1  0  0  0  0  0  0  0  0  0
  -28.7617  -12.0734   20.8412 C   0  0  1  0  0  0  0  0  0  0  0  0
  -18.2049  -26.6876   17.4294 C   0  0  0  0  0  0  0  0  0  0  0  0
  -21.6232  -26.2300   23.0842 C   0  0  0  0  0  0  0  0  0  0  0  0
  -20.1438  -25.1485   21.3783 C   0  0  0  0  0  0  0  0  0  0  0  0
  -19.3285  -27.1284   22.6581 C   0  0  0  0  0  0  0  0  0  0  0  0
  -20.5698  -29.4631   16.3430 C   0  0  0  0  0  0  0  0  0  0  0  0
  -29.5520  -25.9576   18.2039 C   0  0  0  0  0  0  0  0  0  0  0  0
  -28.1545  -26.5021   18.4547 C   0  0  0  0  0  0  0  0  0  1  0  0
  -29.6625  -24.4851   18.5671 C   0  0  0  0  0  0  0  0  0  0  0  0
  -21.0881  -27.4468   20.8708 C   0  0  1  0  0  0  0  0  0  0  0  0
  -19.1609  -27.8528   17.6318 C   0  0  2  0  0  0  0  0  0  0  0  0
  -20.5708  -26.4998   21.9902 C   0  0  0  0  0  0  0  0  0  0  0  0
  -29.6779  -22.0434   19.5274 N   0  0  0  0  0  0  0  0  0  0  0  0
  -26.7539  -10.6833   21.1875 N   0  0  0  0  0  0  0  0  0  0  0  0
  -27.8311  -11.2729   21.7337 N   0  0  0  0  0  0  0  0  0  0  0  0
  -22.8872  -29.1168   21.1837 N   0  0  0  0  0  0  0  0  0  0  0  0
  -29.2743  -14.3078   19.9057 N   0  0  0  0  0  0  0  0  0  0  0  0
  -29.8499  -16.1521   21.3159 N   0  0  0  0  0  0  0  0  0  0  0  0
  -28.9773  -11.5860   23.7828 N   0  0  0  0  0  0  0  0  0  0  0  0
  -25.4453   -9.0231   24.9458 N   0  0  0  0  0  0  0  0  0  0  0  0
  -24.6295  -30.8263   23.8927 N   0  0  0  0  0  0  0  0  0  0  0  0
  -20.1035  -27.7416   19.8353 N   0  0  0  0  0  0  0  0  0  0  0  0
  -19.6391  -28.3062   16.2951 N   0  3  0  0  0  0  0  0  0  0  0  0
  -27.3098  -10.0955   25.7410 O   0  0  0  0  0  0  0  0  0  0  0  0
  -24.1451  -28.6137   23.3517 O   0  0  0  0  0  0  0  0  0  0  0  0
  -20.7394  -29.5001   22.0061 O   0  0  0  0  0  0  0  0  0  0  0  0
  -21.3586  -26.9432   18.0564 O   0  0  0  0  0  0  0  0  0  0  0  0
  -31.3959  -15.2101   19.8886 O   0  0  0  0  0  0  0  0  0  0  0  0
  -21.4701   -7.1454   21.5242 O   0  0  0  0  0  0  0  0  0  0  0  0
  -28.1071  -27.8822   18.1188 O   0  0  0  0  0  0  0  0  0  1  0  0
  -29.3561  -24.3032   19.9444 O   0  0  0  0  0  0  0  0  0  0  0  0
  -21.1345   -2.2094   23.9587 F   0  0  0  0  0  0  0  0  0  0  0  0
  -21.6726   -6.9018   24.2705 F   0  0  0  0  0  0  0  0  0  0  0  0
  1  2  1  0  0  0  0
  1  5  2  0  0  0  0
  2  6  2  0  0  0  0
  3  8  2  0  0  0  0
  3 17  1  0  0  0  0
  4  9  1  0  0  0  0
  4 17  2  0  0  0  0
  5 19  1  0  0  0  0
  6 21  1  0  0  0  0
  7 10  2  0  0  0  0
  7 20  1  0  0  0  0
  8 25  1  0  0  0  0
  9 25  2  0  0  0  0
 10 26  1  0  0  0  0
 11 12  2  0  0  0  0
 11 27  1  0  0  0  0
 12 28  1  0  0  0  0
 13 22  1  0  0  0  0
 13 26  2  0  0  0  0
 14 23  2  0  0  0  0
 14 31  1  0  0  0  0
 15 28  2  0  0  0  0
 15 29  1  0  0  0  0
 16 24  2  0  0  0  0
 16 69  1  0  0  0  0
 17 30  1  0  0  0  0
 18 30  1  0  0  0  0
 18 32  2  0  0  0  0
 18 33  1  0  0  0  0
 19 21  2  0  0  0  0
 19 38  1  0  0  0  0
 20 22  2  0  0  0  0
 20 39  1  0  0  0  0
 21 55  1  0  0  0  0
 22 40  1  0  0  0  0
 23 24  1  0  0  0  0
 23 53  1  0  0  0  0
 24 54  1  0  0  0  0
 25 85  1  0  0  0  0
 26 86  1  0  0  0  0
 27 29  2  0  0  0  0
 27 85  1  0  0  0  0
 28 88  1  0  0  0  0
 29 89  1  0  0  0  0
 30 70  2  0  0  0  0
 31 69  2  0  0  0  0
 31 87  1  0  0  0  0
 32 71  1  0  0  0  0
 32 75  1  0  0  0  0
 33 76  1  0  0  0  0
 33 80  2  0  0  0  0
 34 56  1  0  0  0  0
 34 77  1  0  0  0  0
 34 81  2  0  0  0  0
 35 66  1  0  0  0  0
 35 72  1  0  0  0  0
 35 82  2  0  0  0  0
 36 67  1  0  0  0  0
 36 78  1  0  0  0  0
 36 83  2  0  0  0  0
 37 73  1  0  0  0  0
 37 74  1  0  0  0  0
 37 84  2  0  0  0  0
 38 41  1  0  0  0  0
 39 56  1  0  0  0  0
 40 72  1  0  0  0  0
 41 45  1  0  0  0  0
 42 46  1  0  0  0  0
 42 49  1  0  0  0  0
 43 44  1  0  0  0  0
 43 53  1  0  0  0  0
 44 53  1  0  0  0  0
 45 55  1  0  0  0  0
 46 57  1  0  0  0  0
 47 50  1  0  0  0  0
 47 54  1  0  0  0  0
 48 51  1  0  0  0  0
 48 54  1  0  0  0  0
 49 73  1  0  0  0  0
 50 74  1  0  0  0  0
 51 74  1  0  0  0  0
 52 57  1  0  0  0  0
 52 73  1  0  0  0  0
 55 77  1  0  0  0  0
 56 72  1  0  0  0  0
 57 71  1  0  0  0  0
 58 67  1  0  0  0  0
 59 68  1  0  0  0  0
 60 68  1  0  0  0  0
 61 68  1  0  0  0  0
 62 79  1  0  0  0  0
 63 64  1  0  0  0  0
 63 65  1  0  0  0  0
 64 86  1  0  0  0  0
 65 87  1  0  0  0  0
 66 68  1  0  0  0  0
 66 78  1  0  0  0  0
 67 79  1  0  0  0  0
 70 71  1  0  0  0  0
M  CHG  1  79   1
M  ISO  4  37 100  64 101  74 100  86 101
M  END
> <Batch ID>
0151

> <Smiles>
CNC(C)C(=O)NC(C(=O)N1Cc2cc([101O:1][101CH2:1]CCOc3cc(C4CC4)c(C4CC[100N:0]([100C:0](=O)N5CCCC(n6nc(-c7ccc(Oc8ccc(F)cc8F)cc7)c(C(N)=O)c6N)C5)CC4)cn3)ccc2CC1C(=O)NC1CCCc2ccccc21)C(C)(C)C

> <Shape>
0.353

> <Color>
0.094

> <Negative vol penalty>
0.000

$$$$

  -OEChem-04052321433D

 88 97  0     1  0  0  0  0  0999 V2000
  -33.6656  -31.4806   25.2914 C   0  0  0  0  0  0  0  0  0  0  0  0
  -33.8791  -30.1075   25.2251 C   0  0  0  0  0  0  0  0  0  0  0  0
  -23.2877   -9.8073   19.9109 C   0  0  0  0  0  0  0  0  0  0  0  0
  -23.7410   -9.9332   22.2807 C   0  0  0  0  0  0  0  0  0  0  0  0
  -32.4904  -32.0279   24.7784 C   0  0  0  0  0  0  0  0  0  0  0  0
  -32.9168  -29.2806   24.6466 C   0  0  0  0  0  0  0  0  0  0  0  0
  -33.9136  -24.1902   21.3909 C   0  0  0  0  0  0  0  0  0  0  0  0
  -22.5596   -8.6348   20.1124 C   0  0  0  0  0  0  0  0  0  0  0  0
  -23.0128   -8.7606   22.4822 C   0  0  0  0  0  0  0  0  0  0  0  0
  -33.8765  -22.8381   21.7291 C   0  0  0  0  0  0  0  0  0  0  0  0
  -19.7645   -7.8537   22.6972 C   0  0  0  0  0  0  0  0  0  0  0  0
  -18.8631   -7.8272   23.7613 C   0  0  0  0  0  0  0  0  0  0  0  0
  -31.6120  -22.7013   20.9090 C   0  0  0  0  0  0  0  0  0  0  0  0
  -29.2275  -18.8707   23.8513 C   0  0  0  0  0  0  0  0  0  0  0  0
  -30.9475  -17.2382   24.3138 C   0  0  0  0  0  0  0  0  0  0  0  0
  -20.0667   -5.9722   24.7347 C   0  0  0  0  0  0  0  0  0  0  0  0
  -23.8785  -10.4565   20.9950 C   0  0  0  0  0  0  0  0  0  0  0  0
  -24.1419  -12.9872   20.8112 C   0  0  0  0  0  0  0  0  0  0  0  0
  -31.5175  -31.2084   24.1845 C   0  0  0  0  0  0  0  0  0  0  0  0
  -32.7945  -24.8116   20.8183 C   0  0  0  0  0  0  0  0  0  0  0  0
  -31.7268  -29.8173   24.1262 C   0  0  0  0  0  0  0  0  0  0  0  0
  -31.6383  -24.0607   20.5621 C   0  0  0  0  0  0  0  0  0  0  0  0
  -28.6396  -16.5451   24.1393 C   0  0  0  0  0  0  0  0  0  0  0  0
  -28.2623  -17.8645   23.8891 C   0  0  0  0  0  0  0  0  0  0  0  0
  -22.4221   -8.1115   21.3980 C   0  0  0  0  0  0  0  0  0  0  0  0
  -32.7246  -22.0942   21.4909 C   0  0  0  0  0  0  0  0  0  0  0  0
  -20.8169   -6.9394   22.6518 C   0  0  0  0  0  0  0  0  0  0  0  0
  -30.5702  -18.5575   24.0636 C   0  0  0  0  0  0  0  0  0  0  0  0
  -29.9822  -16.2320   24.3516 C   0  0  0  0  0  0  0  0  0  0  0  0
  -19.0142   -6.8865   24.7801 C   0  0  0  0  0  0  0  0  0  0  0  0
  -20.9681   -5.9987   23.6705 C   0  0  0  0  0  0  0  0  0  0  0  0
  -24.6312  -11.6674   20.7875 C   0  0  0  0  0  0  0  0  0  0  0  0
  -25.2444  -13.7668   20.5598 C   0  0  0  0  0  0  0  0  0  0  0  0
  -22.8098  -13.4657   21.0401 C   0  0  0  0  0  0  0  0  0  0  0  0
  -30.8686  -27.1918   21.6720 C   0  0  0  0  0  0  0  0  0  0  0  0
  -29.6344  -26.7384   18.7066 C   0  0  0  0  0  0  0  0  0  0  0  0
  -29.1406  -24.6355   16.0645 C   0  0  0  0  0  0  0  0  0  0  0  0
  -31.1147  -12.9092   21.3688 C   0  0  0  0  0  0  0  0  0  0  0  0
  -30.2420  -31.8403   23.6862 C   0  0  0  0  0  0  0  0  0  0  0  0
  -32.8597  -26.2645   20.4346 C   0  0  0  0  0  0  0  0  0  0  0  0
  -30.4170  -24.6758   19.9308 C   0  0  0  0  0  0  0  0  0  0  0  0
  -29.4396  -30.9379   22.7524 C   0  0  0  0  0  0  0  0  0  0  0  0
  -29.4642  -13.6695   18.3071 C   0  0  0  0  0  0  0  0  0  0  0  0
  -26.4436  -15.6036   25.1216 C   0  0  0  0  0  0  0  0  0  0  0  0
  -27.5126  -14.5957   25.4074 C   0  0  0  0  0  0  0  0  0  0  0  0
  -29.3327  -29.5307   23.3313 C   0  0  0  0  0  0  0  0  0  0  0  0
  -27.9942  -13.3617   18.5977 C   0  0  0  0  0  0  0  0  0  0  0  0
  -30.3965  -12.6844   19.0087 C   0  0  0  0  0  0  0  0  0  0  0  0
  -28.7108  -12.2475   20.7527 C   0  0  0  0  0  0  0  0  0  0  0  0
  -27.6095  -15.4623   24.1815 C   0  0  0  0  0  0  0  0  0  0  0  0
  -30.7177  -28.8903   23.4840 C   0  0  1  0  0  0  0  0  0  0  0  0
  -31.4848  -26.9170   20.3294 C   0  0  1  0  0  0  0  0  0  0  0  0
  -27.7339  -13.2481   20.1119 C   0  0  2  0  0  0  0  0  0  0  0  0
  -26.6164  -18.9033   22.3085 C   0  0  0  0  0  0  0  0  0  0  0  0
  -28.0642  -24.5368   13.7998 C   0  0  0  0  0  0  0  0  0  0  0  0
  -26.8941  -26.4788   20.0231 C   0  0  0  0  0  0  0  0  0  0  0  0
  -26.0472  -25.4602   17.8986 C   0  0  0  0  0  0  0  0  0  0  0  0
  -26.9105  -27.8005   17.9001 C   0  0  0  0  0  0  0  0  0  0  0  0
  -31.7295  -24.1142   14.7285 C   0  0  0  0  0  0  0  0  0  0  0  0
  -26.8316  -18.2275   23.6592 C   0  0  0  0  0  0  0  0  0  0  0  0
  -31.6792  -13.1077   23.7774 C   0  0  0  0  0  0  0  0  0  0  0  0
  -31.6780  -14.5746   24.1688 C   0  0  0  0  0  0  0  0  0  0  0  0
  -33.4838  -20.3577   22.9277 C   0  0  0  0  0  0  0  0  0  1  0  0
  -32.8204  -19.1697   23.5971 C   0  0  0  0  0  0  0  0  0  0  0  0
  -28.5381  -25.8789   18.1248 C   0  0  1  0  0  0  0  0  0  0  0  0
  -29.3412  -24.8286   14.5722 C   0  0  2  0  0  0  0  0  0  0  0  0
  -27.1196  -26.3932   18.5004 C   0  0  0  0  0  0  0  0  0  0  0  0
  -25.9425  -11.6081   20.5403 N   0  0  0  0  0  0  0  0  0  0  0  0
  -26.2864  -12.9003   20.4064 N   0  0  0  0  0  0  0  0  0  0  0  0
  -30.5278  -26.1011   19.5793 N   0  0  0  0  0  0  0  0  0  0  0  0
  -30.0985  -12.6250   20.4418 N   0  0  0  0  0  0  0  0  0  0  0  0
  -25.4144  -15.1020   20.4571 N   0  0  0  0  0  0  0  0  0  0  0  0
  -21.7959  -12.5290   21.2830 N   0  0  0  0  0  0  0  0  0  0  0  0
  -31.2025  -28.4231   22.2029 N   0  0  0  0  0  0  0  0  0  0  0  0
  -28.7892  -25.8134   16.6892 N   0  0  0  0  0  0  0  0  0  0  0  0
  -30.7462  -12.8364   22.7066 N   0  0  0  0  0  0  0  0  0  0  0  0
  -30.4113  -23.9202   14.0715 N   0  3  0  0  0  0  0  0  0  0  0  0
  -22.5239  -14.6868   21.0133 O   0  0  0  0  0  0  0  0  0  0  0  0
  -30.1426  -26.3498   22.1873 O   0  0  0  0  0  0  0  0  0  0  0  0
  -29.7001  -27.9294   18.3925 O   0  0  0  0  0  0  0  0  0  0  0  0
  -29.2780  -23.5477   16.6197 O   0  0  0  0  0  0  0  0  0  0  0  0
  -32.2639  -13.2111   21.0294 O   0  0  0  0  0  0  0  0  0  0  0  0
  -21.7115   -6.9675   21.5950 O   0  0  0  0  0  0  0  0  0  0  0  0
  -32.6855  -20.7745   21.8206 O   0  0  0  0  0  0  0  0  0  1  0  0
  -31.5178  -19.5463   24.0271 O   0  0  0  0  0  0  0  0  0  0  0  0
  -30.3708  -14.9492   24.5982 O   0  0  0  0  0  0  0  0  0  0  0  0
  -18.1494   -6.8621   25.8027 F   0  0  0  0  0  0  0  0  0  0  0  0
  -21.9779   -5.1185   23.6329 F   0  0  0  0  0  0  0  0  0  0  0  0
  1  2  1  0  0  0  0
  1  5  2  0  0  0  0
  2  6  2  0  0  0  0
  3  8  2  0  0  0  0
  3 17  1  0  0  0  0
  4  9  1  0  0  0  0
  4 17  2  0  0  0  0
  5 19  1  0  0  0  0
  6 21  1  0  0  0  0
  7 10  2  0  0  0  0
  7 20  1  0  0  0  0
  8 25  1  0  0  0  0
  9 25  2  0  0  0  0
 10 26  1  0  0  0  0
 11 12  2  0  0  0  0
 11 27  1  0  0  0  0
 12 30  1  0  0  0  0
 13 22  1  0  0  0  0
 13 26  2  0  0  0  0
 14 24  1  0  0  0  0
 14 28  2  0  0  0  0
 15 28  1  0  0  0  0
 15 29  2  0  0  0  0
 16 30  2  0  0  0  0
 16 31  1  0  0  0  0
 17 32  1  0  0  0  0
 18 32  1  0  0  0  0
 18 33  2  0  0  0  0
 18 34  1  0  0  0  0
 19 21  2  0  0  0  0
 19 39  1  0  0  0  0
 20 22  2  0  0  0  0
 20 40  1  0  0  0  0
 21 51  1  0  0  0  0
 22 41  1  0  0  0  0
 23 24  2  0  0  0  0
 23 29  1  0  0  0  0
 23 50  1  0  0  0  0
 24 60  1  0  0  0  0
 25 83  1  0  0  0  0
 26 84  1  0  0  0  0
 27 31  2  0  0  0  0
 27 83  1  0  0  0  0
 28 85  1  0  0  0  0
 29 86  1  0  0  0  0
 30 87  1  0  0  0  0
 31 88  1  0  0  0  0
 32 68  2  0  0  0  0
 33 69  1  0  0  0  0
 33 72  1  0  0  0  0
 34 73  1  0  0  0  0
 34 78  2  0  0  0  0
 35 52  1  0  0  0  0
 35 74  1  0  0  0  0
 35 79  2  0  0  0  0
 36 65  1  0  0  0  0
 36 70  1  0  0  0  0
 36 80  2  0  0  0  0
 37 66  1  0  0  0  0
 37 75  1  0  0  0  0
 37 81  2  0  0  0  0
 38 71  1  0  0  0  0
 38 76  1  0  0  0  0
 38 82  2  0  0  0  0
 39 42  1  0  0  0  0
 40 52  1  0  0  0  0
 41 70  1  0  0  0  0
 42 46  1  0  0  0  0
 43 47  1  0  0  0  0
 43 48  1  0  0  0  0
 44 45  1  0  0  0  0
 44 50  1  0  0  0  0
 45 50  1  0  0  0  0
 46 51  1  0  0  0  0
 47 53  1  0  0  0  0
 48 71  1  0  0  0  0
 49 53  1  0  0  0  0
 49 71  1  0  0  0  0
 51 74  1  0  0  0  0
 52 70  1  0  0  0  0
 53 69  1  0  0  0  0
 54 60  1  0  0  0  0
 55 66  1  0  0  0  0
 56 67  1  0  0  0  0
 57 67  1  0  0  0  0
 58 67  1  0  0  0  0
 59 77  1  0  0  0  0
 61 62  1  0  0  0  0
 61 76  1  0  0  0  0
 62 86  1  0  0  0  0
 63 64  1  0  0  0  0
 63 84  1  0  0  0  0
 64 85  1  0  0  0  0
 65 67  1  0  0  0  0
 65 75  1  0  0  0  0
 66 77  1  0  0  0  0
 68 69  1  0  0  0  0
M  CHG  1  77   1
M  ISO  4  38 100  63 101  76 100  84 101
M  END
> <Batch ID>
0151

> <Smiles>
CCc1cc(OC[101CH2:1][101O:1]c2ccc3c(c2)CN(C(=O)C(NC(=O)C(C)NC)C(C)(C)C)C(C(=O)NC2CCCc4ccccc42)C3)cc(OCC[100NH:0][100C:0](=O)N2CCCC(n3nc(-c4ccc(Oc5ccc(F)cc5F)cc4)c(C(N)=O)c3N)C2)c1C1CC1

> <Shape>
0.198

> <Color>
0.171

> <Negative vol penalty>
0.000

$$$$

  -OEChem-04052321433D

 83 91  0     1  0  0  0  0  0999 V2000
  -30.7261  -34.9636   22.4744 C   0  0  0  0  0  0  0  0  0  0  0  0
  -30.7793  -34.1064   21.3799 C   0  0  0  0  0  0  0  0  0  0  0  0
  -22.8608  -10.3068   21.7453 C   0  0  0  0  0  0  0  0  0  0  0  0
  -24.6113   -9.4249   20.3329 C   0  0  0  0  0  0  0  0  0  0  0  0
  -30.1333  -34.5391   23.6627 C   0  0  0  0  0  0  0  0  0  0  0  0
  -30.2406  -32.8237   21.4736 C   0  0  0  0  0  0  0  0  0  0  0  0
  -26.9308  -27.8557   17.5137 C   0  0  0  0  0  0  0  0  0  0  0  0
  -22.2594   -9.0490   21.7853 C   0  0  0  0  0  0  0  0  0  0  0  0
  -24.0099   -8.1670   20.3730 C   0  0  0  0  0  0  0  0  0  0  0  0
  -27.0304  -26.5073   17.1736 C   0  0  0  0  0  0  0  0  0  0  0  0
  -22.7155   -6.1205   23.4129 C   0  0  0  0  0  0  0  0  0  0  0  0
  -29.5823  -19.6838   20.8366 C   0  0  0  0  0  0  0  0  0  0  0  0
  -22.2747   -5.6518   24.6505 C   0  0  0  0  0  0  0  0  0  0  0  0
  -29.2001  -20.9441   20.3906 C   0  0  0  0  0  0  0  0  0  0  0  0
  -25.9604  -25.9103   19.2515 C   0  0  0  0  0  0  0  0  0  0  0  0
  -20.0192   -5.5155   23.7955 C   0  0  0  0  0  0  0  0  0  0  0  0
  -24.0368  -10.4949   21.0190 C   0  0  0  0  0  0  0  0  0  0  0  0
  -25.6282  -12.3017   21.8618 C   0  0  0  0  0  0  0  0  0  0  0  0
  -29.5784  -33.2539   23.7679 C   0  0  0  0  0  0  0  0  0  0  0  0
  -26.3540  -28.2417   18.7322 C   0  0  0  0  0  0  0  0  0  0  0  0
  -29.6409  -32.3811   22.6649 C   0  0  0  0  0  0  0  0  0  0  0  0
  -25.8523  -27.2644   19.6036 C   0  0  0  0  0  0  0  0  0  0  0  0
  -22.8339   -7.9790   21.0992 C   0  0  0  0  0  0  0  0  0  0  0  0
  -26.5479  -25.5342   18.0438 C   0  0  0  0  0  0  0  0  0  0  0  0
  -21.8081   -6.2868   22.3666 C   0  0  0  0  0  0  0  0  0  0  0  0
  -29.6065  -18.6154   19.9471 C   0  0  0  0  0  0  0  0  0  0  0  0
  -20.9266   -5.3493   24.8418 C   0  0  0  0  0  0  0  0  0  0  0  0
  -20.4600   -5.9842   22.5579 C   0  0  0  0  0  0  0  0  0  0  0  0
  -24.6582  -11.7941   20.9768 C   0  0  0  0  0  0  0  0  0  0  0  0
  -29.2424  -18.8577   18.6324 C   0  0  0  0  0  0  0  0  0  0  0  0
  -28.8544  -21.0822   19.0559 C   0  0  0  0  0  0  0  0  0  0  0  0
  -25.8903  -13.5667   21.3953 C   0  0  0  0  0  0  0  0  0  0  0  0
  -26.2379  -11.6848   23.0035 C   0  0  0  0  0  0  0  0  0  0  0  0
  -27.3844  -29.7868   21.3119 C   0  0  0  0  0  0  0  0  0  0  0  0
  -24.2698  -29.5886   22.1962 C   0  0  0  0  0  0  0  0  0  0  0  0
  -21.2736  -27.9798   21.9105 C   0  0  0  0  0  0  0  0  0  0  0  0
  -26.9004  -17.0894   17.1864 C   0  0  0  0  0  0  0  0  0  0  0  0
  -28.9903  -32.8230   25.0882 C   0  0  0  0  0  0  0  0  0  0  0  0
  -26.2298  -29.7016   19.0723 C   0  0  0  0  0  0  0  0  0  0  0  0
  -25.2060  -27.6274   20.9147 C   0  0  0  0  0  0  0  0  0  0  0  0
  -28.1088  -31.5809   24.9859 C   0  0  0  0  0  0  0  0  0  0  0  0
  -23.4947  -16.3568   17.9222 C   0  0  0  0  0  0  0  0  0  0  0  0
  -28.7975  -30.5047   24.1527 C   0  0  0  0  0  0  0  0  0  0  0  0
  -23.5738  -15.1431   18.8499 C   0  0  0  0  0  0  0  0  0  0  0  0
  -24.5734  -16.3128   16.8421 C   0  0  0  0  0  0  0  0  0  0  0  0
  -26.0282  -14.9328   18.2750 C   0  0  0  0  0  0  0  0  0  0  0  0
  -29.0455  -30.9909   22.7196 C   0  0  1  0  0  0  0  0  0  0  0  0
  -26.0889  -29.9563   20.5699 C   0  0  1  0  0  0  0  0  0  0  0  0
  -24.9955  -14.9608   19.4147 C   0  0  2  0  0  0  0  0  0  0  0  0
  -18.9223  -28.0246   22.7860 C   0  0  0  0  0  0  0  0  0  0  0  0
  -25.2215  -28.3339   24.8097 C   0  0  0  0  0  0  0  0  0  0  0  0
  -22.8772  -27.5490   25.2055 C   0  0  0  0  0  0  0  0  0  0  0  0
  -23.3657  -29.9911   25.0631 C   0  0  0  0  0  0  0  0  0  0  0  0
  -20.1551  -28.4610   19.2131 C   0  0  0  0  0  0  0  0  0  0  0  0
  -30.3333  -17.2445   21.7493 C   0  0  0  0  0  0  0  0  0  0  0  0
  -29.2514  -17.7443   17.6369 C   0  0  0  0  0  0  0  0  0  0  0  0
  -27.7448  -23.8328   16.8913 C   0  0  0  0  0  0  0  0  0  1  0  0
  -28.1294  -22.4021   17.2153 C   0  0  0  0  0  0  0  0  0  0  0  0
  -23.4371  -28.5882   22.9610 C   0  0  1  0  0  0  0  0  0  0  0  0
  -19.8656  -28.5039   21.6936 C   0  0  2  0  0  0  0  0  0  0  0  0
  -23.7393  -28.6083   24.4861 C   0  0  0  0  0  0  0  0  0  0  0  0
  -24.3264  -12.6656   20.0205 N   0  0  0  0  0  0  0  0  0  0  0  0
  -28.8656  -20.0679   18.1622 N   0  0  0  0  0  0  0  0  0  0  0  0
  -25.0921  -13.7335   20.3020 N   0  0  0  0  0  0  0  0  0  0  0  0
  -25.1136  -29.0677   21.2050 N   0  0  0  0  0  0  0  0  0  0  0  0
  -25.8977  -16.1400   17.4439 N   0  0  0  0  0  0  0  0  0  0  0  0
  -26.7232  -14.5414   21.8178 N   0  0  0  0  0  0  0  0  0  0  0  0
  -25.8537  -10.3804   23.3430 N   0  0  0  0  0  0  0  0  0  0  0  0
  -27.8229  -30.9328   21.9475 N   0  0  0  0  0  0  0  0  0  0  0  0
  -22.0464  -28.8718   22.6236 N   0  0  0  0  0  0  0  0  0  0  0  0
  -28.1241  -16.8537   17.8009 N   0  0  0  0  0  0  0  0  0  0  0  0
  -19.3370  -28.0403   20.3796 N   0  3  0  0  0  0  0  0  0  0  0  0
  -27.0860  -12.2789   23.7116 O   0  0  0  0  0  0  0  0  0  0  0  0
  -27.9440  -28.6966   21.3092 O   0  0  0  0  0  0  0  0  0  0  0  0
  -24.1697  -30.7887   22.4634 O   0  0  0  0  0  0  0  0  0  0  0  0
  -21.6493  -26.8867   21.4927 O   0  0  0  0  0  0  0  0  0  0  0  0
  -26.7168  -18.0770   16.4668 O   0  0  0  0  0  0  0  0  0  0  0  0
  -22.2475   -6.7514   21.1383 O   0  0  0  0  0  0  0  0  0  0  0  0
  -29.9778  -17.3810   20.3726 O   0  0  0  0  0  0  0  0  0  0  0  0
  -26.6445  -24.2174   17.7146 O   0  0  0  0  0  0  0  0  0  1  0  0
  -28.4741  -22.3142   18.5925 O   0  0  0  0  0  0  0  0  0  0  0  0
  -20.5037   -4.8978   26.0298 F   0  0  0  0  0  0  0  0  0  0  0  0
  -19.5838   -6.1408   21.5561 F   0  0  0  0  0  0  0  0  0  0  0  0
  1  2  1  0  0  0  0
  1  5  2  0  0  0  0
  2  6  2  0  0  0  0
  3  8  2  0  0  0  0
  3 17  1  0  0  0  0
  4  9  1  0  0  0  0
  4 17  2  0  0  0  0
  5 19  1  0  0  0  0
  6 21  1  0  0  0  0
  7 10  2  0  0  0  0
  7 20  1  0  0  0  0
  8 23  1  0  0  0  0
  9 23  2  0  0  0  0
 10 24  1  0  0  0  0
 11 13  2  0  0  0  0
 11 25  1  0  0  0  0
 12 14  2  0  0  0  0
 12 26  1  0  0  0  0
 13 27  1  0  0  0  0
 14 31  1  0  0  0  0
 15 22  1  0  0  0  0
 15 24  2  0  0  0  0
 16 27  2  0  0  0  0
 16 28  1  0  0  0  0
 17 29  1  0  0  0  0
 18 29  1  0  0  0  0
 18 32  2  0  0  0  0
 18 33  1  0  0  0  0
 19 21  2  0  0  0  0
 19 38  1  0  0  0  0
 20 22  2  0  0  0  0
 20 39  1  0  0  0  0
 21 47  1  0  0  0  0
 22 40  1  0  0  0  0
 23 78  1  0  0  0  0
 24 80  1  0  0  0  0
 25 28  2  0  0  0  0
 25 78  1  0  0  0  0
 26 30  2  0  0  0  0
 26 79  1  0  0  0  0
 27 82  1  0  0  0  0
 28 83  1  0  0  0  0
 29 62  2  0  0  0  0
 30 56  1  0  0  0  0
 30 63  1  0  0  0  0
 31 63  2  0  0  0  0
 31 81  1  0  0  0  0
 32 64  1  0  0  0  0
 32 67  1  0  0  0  0
 33 68  1  0  0  0  0
 33 73  2  0  0  0  0
 34 48  1  0  0  0  0
 34 69  1  0  0  0  0
 34 74  2  0  0  0  0
 35 59  1  0  0  0  0
 35 65  1  0  0  0  0
 35 75  2  0  0  0  0
 36 60  1  0  0  0  0
 36 70  1  0  0  0  0
 36 76  2  0  0  0  0
 37 66  1  0  0  0  0
 37 71  1  0  0  0  0
 37 77  2  0  0  0  0
 38 41  1  0  0  0  0
 39 48  1  0  0  0  0
 40 65  1  0  0  0  0
 41 43  1  0  0  0  0
 42 44  1  0  0  0  0
 42 45  1  0  0  0  0
 43 47  1  0  0  0  0
 44 49  1  0  0  0  0
 45 66  1  0  0  0  0
 46 49  1  0  0  0  0
 46 66  1  0  0  0  0
 47 69  1  0  0  0  0
 48 65  1  0  0  0  0
 49 64  1  0  0  0  0
 50 60  1  0  0  0  0
 51 61  1  0  0  0  0
 52 61  1  0  0  0  0
 53 61  1  0  0  0  0
 54 72  1  0  0  0  0
 55 79  1  0  0  0  0
 56 71  1  0  0  0  0
 57 58  1  0  0  0  0
 57 80  1  0  0  0  0
 58 81  1  0  0  0  0
 59 61  1  0  0  0  0
 59 70  1  0  0  0  0
 60 72  1  0  0  0  0
 62 64  1  0  0  0  0
M  CHG  1  72   1
M  ISO  4  37 100  57 101  71 100  80 101
M  END
> <Batch ID>
0151

> <Smiles>
CNC(C)C(=O)NC(C(=O)N1Cc2cc([101O:1][101CH2:1]COc3ccc(OC)c(C[100NH:0][100C:0](=O)N4CCCC(n5nc(-c6ccc(Oc7ccc(F)cc7F)cc6)c(C(N)=O)c5N)C4)n3)ccc2CC1C(=O)NC1CCCc2ccccc21)C(C)(C)C

> <Shape>
0.260

> <Color>
0.110

> <Negative vol penalty>
0.000

$$$$

  -OEChem-04052321433D

 89 99  0     1  0  0  0  0  0999 V2000
  -30.7752  -29.8250   20.1003 C   0  0  0  0  0  0  0  0  0  0  0  0
  -29.6367  -29.0808   20.3923 C   0  0  0  0  0  0  0  0  0  0  0  0
  -23.9138  -11.8904   20.5798 C   0  0  0  0  0  0  0  0  0  0  0  0
  -24.9787  -14.0438   20.8363 C   0  0  0  0  0  0  0  0  0  0  0  0
  -31.7723  -29.2828   19.2904 C   0  0  0  0  0  0  0  0  0  0  0  0
  -29.4940  -27.7943   19.8737 C   0  0  0  0  0  0  0  0  0  0  0  0
  -27.8428  -24.4793   23.3276 C   0  0  0  0  0  0  0  0  0  0  0  0
  -24.9975  -11.4446   19.8233 C   0  0  0  0  0  0  0  0  0  0  0  0
  -26.0625  -13.5980   20.0798 C   0  0  0  0  0  0  0  0  0  0  0  0
  -26.4821  -24.5002   23.6307 C   0  0  0  0  0  0  0  0  0  0  0  0
  -28.8077  -11.6842   20.5509 C   0  0  0  0  0  0  0  0  0  0  0  0
  -30.0881  -11.9747   21.0218 C   0  0  0  0  0  0  0  0  0  0  0  0
  -19.4251  -23.0892   24.0063 C   0  0  0  0  0  0  0  0  0  0  0  0
  -26.1366  -22.6015   22.1834 C   0  0  0  0  0  0  0  0  0  0  0  0
  -21.4219  -21.7492   23.8176 C   0  0  0  0  0  0  0  0  0  0  0  0
  -30.5560  -13.2010   18.9935 C   0  0  0  0  0  0  0  0  0  0  0  0
  -23.9044  -13.1901   21.0863 C   0  0  0  0  0  0  0  0  0  0  0  0
  -22.6284  -13.5627   23.2636 C   0  0  0  0  0  0  0  0  0  0  0  0
  -31.6461  -27.9854   18.7695 C   0  0  0  0  0  0  0  0  0  0  0  0
  -28.3597  -23.5245   22.4401 C   0  0  0  0  0  0  0  0  0  0  0  0
  -30.4896  -27.2348   19.0550 C   0  0  0  0  0  0  0  0  0  0  0  0
  -20.0569  -24.1531   23.3443 C   0  0  0  0  0  0  0  0  0  0  0  0
  -27.5046  -22.5690   21.8726 C   0  0  0  0  0  0  0  0  0  0  0  0
  -21.3807  -23.9979   22.8955 C   0  0  0  0  0  0  0  0  0  0  0  0
  -22.0578  -22.7953   23.1498 C   0  0  0  0  0  0  0  0  0  0  0  0
  -26.0719  -12.2983   19.5733 C   0  0  0  0  0  0  0  0  0  0  0  0
  -25.6283  -23.5631   23.0564 C   0  0  0  0  0  0  0  0  0  0  0  0
  -28.4015  -12.1521   19.3012 C   0  0  0  0  0  0  0  0  0  0  0  0
  -20.1053  -21.8953   24.2436 C   0  0  0  0  0  0  0  0  0  0  0  0
  -30.9622  -12.7331   20.2432 C   0  0  0  0  0  0  0  0  0  0  0  0
  -29.2756  -12.9105   18.5225 C   0  0  0  0  0  0  0  0  0  0  0  0
  -22.7849  -13.6514   21.8674 C   0  0  0  0  0  0  0  0  0  0  0  0
  -21.4060  -14.1389   23.5093 C   0  0  0  0  0  0  0  0  0  0  0  0
  -23.5092  -13.0091   24.2502 C   0  0  0  0  0  0  0  0  0  0  0  0
  -29.8353  -23.6435   19.6272 C   0  0  0  0  0  0  0  0  0  0  0  0
  -30.1426  -20.4479   20.0920 C   0  0  0  0  0  0  0  0  0  0  0  0
  -28.9914  -17.6173   21.6117 C   0  0  0  0  0  0  0  0  0  0  0  0
  -17.6898  -18.2161   22.6660 C   0  0  0  0  0  0  0  0  0  0  0  0
  -32.7285  -27.4598   17.8601 C   0  0  0  0  0  0  0  0  0  0  0  0
  -29.8342  -23.4986   22.1442 C   0  0  0  0  0  0  0  0  0  0  0  0
  -19.2751  -25.4159   23.0772 C   0  0  0  0  0  0  0  0  0  0  0  0
  -22.1134  -25.1169   22.2002 C   0  0  0  0  0  0  0  0  0  0  0  0
  -28.0130  -21.5105   20.9295 C   0  0  0  0  0  0  0  0  0  0  0  0
  -32.6722  -25.9480   17.6566 C   0  0  0  0  0  0  0  0  0  0  0  0
  -21.1849  -26.1993   21.6514 C   0  0  0  0  0  0  0  0  0  0  0  0
  -17.7223  -15.5269   20.3328 C   0  0  0  0  0  0  0  0  0  0  0  0
  -31.2440  -25.5022   17.3594 C   0  0  0  0  0  0  0  0  0  0  0  0
  -19.0318  -14.7962   20.6351 C   0  0  0  0  0  0  0  0  0  0  0  0
  -18.7800  -28.7808   23.2016 C   0  0  0  0  0  0  0  0  0  0  0  0
  -19.8667  -29.1726   22.2391 C   0  0  0  0  0  0  0  0  0  0  0  0
  -17.8692  -17.0383   20.4941 C   0  0  0  0  0  0  0  0  0  0  0  0
  -19.7154  -16.7421   22.0996 C   0  0  0  0  0  0  0  0  0  0  0  0
  -30.3097  -25.8264   18.5314 C   0  0  1  0  0  0  0  0  0  0  0  0
  -30.1673  -22.8032   20.8278 C   0  0  1  0  0  0  0  0  0  0  0  0
  -20.1607  -26.6163   22.7109 C   0  0  1  0  0  0  0  0  0  0  0  0
  -19.6021  -15.2109   22.0048 C   0  0  2  0  0  0  0  0  0  0  0  0
  -19.3082  -27.7834   22.2173 C   0  0  0  0  0  0  0  0  0  0  0  0
  -28.9382  -15.2088   22.3143 C   0  0  0  0  0  0  0  0  0  0  0  0
  -28.8656  -20.0527   17.3492 C   0  0  0  0  0  0  0  0  0  0  0  0
  -28.4580  -17.6594   17.9610 C   0  0  0  0  0  0  0  0  0  0  0  0
  -30.7914  -18.5320   17.8323 C   0  0  0  0  0  0  0  0  0  0  0  0
  -30.6488  -18.1579   24.0033 C   0  0  0  0  0  0  0  0  0  0  0  0
  -23.4826  -22.5921   22.7258 C   0  0  0  0  0  0  0  0  0  1  0  0
  -17.6471  -19.3200   24.8883 C   0  0  0  0  0  0  0  0  0  0  0  0
  -18.0674  -20.7704   24.7309 C   0  0  0  0  0  0  0  0  0  0  0  0
  -29.3101  -19.2339   19.7571 C   0  0  1  0  0  0  0  0  0  0  0  0
  -29.7117  -16.5170   22.3699 C   0  0  2  0  0  0  0  0  0  0  0  0
  -29.3460  -18.8905   18.2411 C   0  0  0  0  0  0  0  0  0  0  0  0
  -21.7451  -14.2376   21.2681 N   0  0  0  0  0  0  0  0  0  0  0  0
  -20.9234  -14.5224   22.2927 N   0  0  0  0  0  0  0  0  0  0  0  0
  -29.4615  -21.5304   20.6665 N   0  0  0  0  0  0  0  0  0  0  0  0
  -18.4131  -17.3647   21.8146 N   0  0  0  0  0  0  0  0  0  0  0  0
  -20.7077  -14.3497   24.6452 N   0  0  0  0  0  0  0  0  0  0  0  0
  -24.7255  -12.4573   23.8256 N   0  0  0  0  0  0  0  0  0  0  0  0
  -30.4836  -24.8635   19.5977 N   0  0  0  0  0  0  0  0  0  0  0  0
  -29.7853  -18.1612   20.6242 N   0  0  0  0  0  0  0  0  0  0  0  0
  -18.2733  -18.4687   23.9015 N   0  0  0  0  0  0  0  0  0  0  0  0
  -29.8843  -16.9005   23.7996 N   0  3  0  0  0  0  0  0  0  0  0  0
  -23.2186  -12.9891   25.4703 O   0  0  0  0  0  0  0  0  0  0  0  0
  -29.0503  -23.2160   18.7890 O   0  0  0  0  0  0  0  0  0  0  0  0
  -31.3539  -20.4335   19.8593 O   0  0  0  0  0  0  0  0  0  0  0  0
  -27.8384  -17.9576   21.8673 O   0  0  0  0  0  0  0  0  0  0  0  0
  -16.6019  -18.7100   22.3508 O   0  0  0  0  0  0  0  0  0  0  0  0
  -18.4527  -27.4427   21.1216 O   0  0  0  0  0  0  0  0  0  0  0  0
  -27.1297  -11.8635   18.8353 O   0  0  0  0  0  0  0  0  0  0  0  0
  -24.2997  -23.5817   23.3500 O   0  0  0  0  0  0  0  0  0  1  0  0
  -19.4814  -20.8741   24.8918 O   0  0  0  0  0  0  0  0  0  0  0  0
  -32.1912  -13.0133   20.6962 F   0  0  0  0  0  0  0  0  0  0  0  0
  -28.8905  -13.3637   17.3216 F   0  0  0  0  0  0  0  0  0  0  0  0
  1  2  1  0  0  0  0
  1  5  2  0  0  0  0
  2  6  2  0  0  0  0
  3  8  2  0  0  0  0
  3 17  1  0  0  0  0
  4  9  1  0  0  0  0
  4 17  2  0  0  0  0
  5 19  1  0  0  0  0
  6 21  1  0  0  0  0
  7 10  2  0  0  0  0
  7 20  1  0  0  0  0
  8 26  1  0  0  0  0
  9 26  2  0  0  0  0
 10 27  1  0  0  0  0
 11 12  2  0  0  0  0
 11 28  1  0  0  0  0
 12 30  1  0  0  0  0
 13 22  2  0  0  0  0
 13 29  1  0  0  0  0
 14 23  1  0  0  0  0
 14 27  2  0  0  0  0
 15 25  1  0  0  0  0
 15 29  2  0  0  0  0
 16 30  2  0  0  0  0
 16 31  1  0  0  0  0
 17 32  1  0  0  0  0
 18 32  1  0  0  0  0
 18 33  2  0  0  0  0
 18 34  1  0  0  0  0
 19 21  2  0  0  0  0
 19 39  1  0  0  0  0
 20 23  2  0  0  0  0
 20 40  1  0  0  0  0
 21 53  1  0  0  0  0
 22 24  1  0  0  0  0
 22 41  1  0  0  0  0
 23 43  1  0  0  0  0
 24 25  2  0  0  0  0
 24 42  1  0  0  0  0
 25 63  1  0  0  0  0
 26 85  1  0  0  0  0
 27 86  1  0  0  0  0
 28 31  2  0  0  0  0
 28 85  1  0  0  0  0
 29 87  1  0  0  0  0
 30 88  1  0  0  0  0
 31 89  1  0  0  0  0
 32 69  2  0  0  0  0
 33 70  1  0  0  0  0
 33 73  1  0  0  0  0
 34 74  1  0  0  0  0
 34 79  2  0  0  0  0
 35 54  1  0  0  0  0
 35 75  1  0  0  0  0
 35 80  2  0  0  0  0
 36 66  1  0  0  0  0
 36 71  1  0  0  0  0
 36 81  2  0  0  0  0
 37 67  1  0  0  0  0
 37 76  1  0  0  0  0
 37 82  2  0  0  0  0
 38 72  1  0  0  0  0
 38 77  1  0  0  0  0
 38 83  2  0  0  0  0
 39 44  1  0  0  0  0
 40 54  1  0  0  0  0
 41 55  1  0  0  0  0
 42 45  1  0  0  0  0
 43 71  1  0  0  0  0
 44 47  1  0  0  0  0
 45 55  1  0  0  0  0
 46 48  1  0  0  0  0
 46 51  1  0  0  0  0
 47 53  1  0  0  0  0
 48 56  1  0  0  0  0
 49 50  1  0  0  0  0
 49 57  1  0  0  0  0
 50 57  1  0  0  0  0
 51 72  1  0  0  0  0
 52 56  1  0  0  0  0
 52 72  1  0  0  0  0
 53 75  1  0  0  0  0
 54 71  1  0  0  0  0
 55 57  1  0  0  0  0
 56 70  1  0  0  0  0
 57 84  1  0  0  0  0
 58 67  1  0  0  0  0
 59 68  1  0  0  0  0
 60 68  1  0  0  0  0
 61 68  1  0  0  0  0
 62 78  1  0  0  0  0
 63 86  1  0  0  0  0
 64 65  1  0  0  0  0
 64 77  1  0  0  0  0
 65 87  1  0  0  0  0
 66 68  1  0  0  0  0
 66 76  1  0  0  0  0
 67 78  1  0  0  0  0
 69 70  1  0  0  0  0
M  CHG  1  78   1
M  ISO  4  38 100  63 101  77 100  86 101
M  END
> <Batch ID>
0151

> <Smiles>
CNC(C)C(=O)NC(C(=O)N1Cc2cc([101O:1][101CH2:1]c3cc(OCC[100NH:0][100C:0](=O)N4CCCC(n5nc(-c6ccc(Oc7ccc(F)cc7F)cc6)c(C(N)=O)c5N)C4)cc4c3CCC(C3(O)CC3)C4)ccc2CC1C(=O)NC1CCCc2ccccc21)C(C)(C)C

> <Shape>
0.239

> <Color>
0.050

> <Negative vol penalty>
0.000

$$$$

  -OEChem-04052321433D

 89 98  0     1  0  0  0  0  0999 V2000
  -21.9581   -5.2662   22.6310 C   0  0  0  0  0  0  0  0  0  0  0  0
  -22.3755   -5.7954   21.4139 C   0  0  0  0  0  0  0  0  0  0  0  0
  -21.3513  -29.4425   21.4657 C   0  0  0  0  0  0  0  0  0  0  0  0
  -22.5501  -28.7249   23.4367 C   0  0  0  0  0  0  0  0  0  0  0  0
  -21.4157   -6.1038   23.6047 C   0  0  0  0  0  0  0  0  0  0  0  0
  -22.2497   -7.1624   21.1695 C   0  0  0  0  0  0  0  0  0  0  0  0
  -27.6765  -12.3992   19.1315 C   0  0  0  0  0  0  0  0  0  0  0  0
  -20.1403  -29.2070   22.1165 C   0  0  0  0  0  0  0  0  0  0  0  0
  -21.3391  -28.4894   24.0876 C   0  0  0  0  0  0  0  0  0  0  0  0
  -28.5744  -13.4465   18.9240 C   0  0  0  0  0  0  0  0  0  0  0  0
  -18.2019  -30.7606   24.4103 C   0  0  0  0  0  0  0  0  0  0  0  0
  -17.2072  -31.7323   24.3004 C   0  0  0  0  0  0  0  0  0  0  0  0
  -27.0553  -14.9792   20.0154 C   0  0  0  0  0  0  0  0  0  0  0  0
  -31.0399  -18.0321   20.0269 C   0  0  0  0  0  0  0  0  0  0  0  0
  -29.6669  -18.9311   18.2540 C   0  0  0  0  0  0  0  0  0  0  0  0
  -15.7376  -30.1120   23.2748 C   0  0  0  0  0  0  0  0  0  0  0  0
  -22.5563  -29.2014   22.1258 C   0  0  0  0  0  0  0  0  0  0  0  0
  -24.2688  -30.6670   20.9312 C   0  0  0  0  0  0  0  0  0  0  0  0
  -21.2921   -7.4833   23.3757 C   0  0  0  0  0  0  0  0  0  0  0  0
  -26.4699  -12.6351   19.7962 C   0  0  0  0  0  0  0  0  0  0  0  0
  -21.7039   -8.0191   22.1405 C   0  0  0  0  0  0  0  0  0  0  0  0
  -26.1576  -13.9316   20.2372 C   0  0  0  0  0  0  0  0  0  0  0  0
  -29.8508  -18.0245   19.2979 C   0  0  0  0  0  0  0  0  0  0  0  0
  -32.0452  -18.9464   19.7120 C   0  0  0  0  0  0  0  0  0  0  0  0
  -31.8613  -19.8531   18.6681 C   0  0  0  0  0  0  0  0  0  0  0  0
  -20.1342  -28.7305   23.4274 C   0  0  0  0  0  0  0  0  0  0  0  0
  -28.2644  -14.7334   19.3646 C   0  0  0  0  0  0  0  0  0  0  0  0
  -17.9644  -29.4646   23.9524 C   0  0  0  0  0  0  0  0  0  0  0  0
  -30.6721  -19.8455   17.9391 C   0  0  0  0  0  0  0  0  0  0  0  0
  -15.9751  -31.4080   23.7327 C   0  0  0  0  0  0  0  0  0  0  0  0
  -16.7323  -29.1403   23.3846 C   0  0  0  0  0  0  0  0  0  0  0  0
  -23.8076  -29.4439   21.4539 C   0  0  0  0  0  0  0  0  0  0  0  0
  -25.5002  -30.3709   20.3999 C   0  0  0  0  0  0  0  0  0  0  0  0
  -23.6402  -31.9557   20.9266 C   0  0  0  0  0  0  0  0  0  0  0  0
  -23.2602  -11.2100   21.1162 C   0  0  0  0  0  0  0  0  0  0  0  0
  -24.2776  -13.2055   23.2122 C   0  0  0  0  0  0  0  0  0  0  0  0
  -25.9513  -15.1646   25.4478 C   0  0  0  0  0  0  0  0  0  0  0  0
  -29.5124  -26.3641   21.6063 C   0  0  0  0  0  0  0  0  0  0  0  0
  -20.6560   -8.3417   24.4402 C   0  0  0  0  0  0  0  0  0  0  0  0
  -25.4458  -11.5496   19.9872 C   0  0  0  0  0  0  0  0  0  0  0  0
  -24.8327  -14.1456   20.9169 C   0  0  0  0  0  0  0  0  0  0  0  0
  -20.9029   -9.8356   24.2460 C   0  0  0  0  0  0  0  0  0  0  0  0
  -27.9843  -26.7874   18.4507 C   0  0  0  0  0  0  0  0  0  0  0  0
  -20.6505  -10.2343   22.7955 C   0  0  0  0  0  0  0  0  0  0  0  0
  -26.7676  -27.6370   18.8152 C   0  0  0  0  0  0  0  0  0  0  0  0
  -31.3651  -25.1258   18.7823 C   0  0  0  0  0  0  0  0  0  0  0  0
  -28.2643  -25.7064   19.4964 C   0  0  0  0  0  0  0  0  0  0  0  0
  -27.1690  -27.0768   21.2414 C   0  0  0  0  0  0  0  0  0  0  0  0
  -31.6647  -23.7819   18.1367 C   0  0  0  0  0  0  0  0  0  0  0  0
  -31.5420  -23.5831   20.5717 C   0  0  0  0  0  0  0  0  0  0  0  0
  -21.6066   -9.5006   21.8473 C   0  0  1  0  0  0  0  0  0  0  0  0
  -24.6731  -11.6753   21.3125 C   0  0  1  0  0  0  0  0  0  0  0  0
  -26.9018  -28.2086   20.2373 C   0  0  2  0  0  0  0  0  0  0  0  0
  -30.7052  -24.7557   20.0995 C   0  0  1  0  0  0  0  0  0  0  0  0
  -33.3087  -18.9351   20.5086 C   0  0  0  0  0  0  0  0  0  0  0  0
  -25.7531  -16.1304   27.7554 C   0  0  0  0  0  0  0  0  0  0  0  0
  -22.2953  -15.2768   22.1710 C   0  0  0  0  0  0  0  0  0  0  0  0
  -22.8646  -16.7092   24.1440 C   0  0  0  0  0  0  0  0  0  0  0  0
  -21.8337  -14.4643   24.4908 C   0  0  0  0  0  0  0  0  0  0  0  0
  -31.9722  -26.1984   21.6107 C   0  0  0  0  0  0  0  0  0  0  0  0
  -28.3756  -13.7436   26.3764 C   0  0  0  0  0  0  0  0  0  0  0  0
  -29.2298  -20.6438   16.2250 C   0  0  0  0  0  0  0  0  0  0  0  0
  -32.9361  -20.8349   18.3257 C   0  0  0  0  0  0  0  0  0  0  0  0
  -28.7691  -17.0417   19.6377 C   0  0  0  0  0  0  0  0  0  1  0  0
  -33.0438  -22.0055   19.3014 C   0  0  0  0  0  0  0  0  0  0  0  0
  -24.2414  -14.6192   23.7351 C   0  0  1  0  0  0  0  0  0  0  0  0
  -26.2679  -14.9690   26.9195 C   0  0  2  0  0  0  0  0  0  0  0  0
  -22.8291  -15.2587   23.6173 C   0  0  0  0  0  0  0  0  0  0  0  0
  -24.6753  -28.4451   21.2709 N   0  0  0  0  0  0  0  0  0  0  0  0
  -25.6940  -29.0401   20.6273 N   0  0  0  0  0  0  0  0  0  0  0  0
  -24.5634  -13.0416   21.8513 N   0  0  0  0  0  0  0  0  0  0  0  0
  -28.3375  -26.2878   20.8438 N   0  0  0  0  0  0  0  0  0  0  0  0
  -26.4252  -31.1215   19.7648 N   0  0  0  0  0  0  0  0  0  0  0  0
  -23.8770  -32.8184   22.0055 N   0  0  0  0  0  0  0  0  0  0  0  0
  -22.9185  -10.1107   21.8806 N   0  0  0  0  0  0  0  0  0  0  0  0
  -24.7606  -14.5640   25.0974 N   0  0  0  0  0  0  0  0  0  0  0  0
  -30.6827  -25.8403   21.0368 N   0  0  0  0  0  0  0  0  0  0  0  0
  -31.7808  -22.8052   19.2939 N   0  3  2  0  0  0  0  0  0  0  0  0
  -27.7403  -14.8602   27.1225 N   0  3  0  0  0  0  0  0  0  0  0  0
  -22.8778  -32.3246   20.0014 O   0  0  0  0  0  0  0  0  0  0  0  0
  -22.5319  -11.8047   20.3303 O   0  0  0  0  0  0  0  0  0  0  0  0
  -24.0533  -12.2703   23.9858 O   0  0  0  0  0  0  0  0  0  0  0  0
  -26.6848  -15.7909   24.6861 O   0  0  0  0  0  0  0  0  0  0  0  0
  -29.5154  -26.8654   22.7380 O   0  0  0  0  0  0  0  0  0  0  0  0
  -18.9526  -28.5008   24.0629 O   0  0  0  0  0  0  0  0  0  0  0  0
  -30.4751  -20.7228   16.9155 O   0  0  0  0  0  0  0  0  0  0  0  0
  -29.1475  -15.7503   19.1627 O   0  0  0  0  0  0  0  0  0  1  0  0
  -15.0195  -32.3408   23.6287 F   0  0  0  0  0  0  0  0  0  0  0  0
  -16.4979  -27.8966   22.9439 F   0  0  0  0  0  0  0  0  0  0  0  0
  1  2  1  0  0  0  0
  1  5  2  0  0  0  0
  2  6  2  0  0  0  0
  3  8  2  0  0  0  0
  3 17  1  0  0  0  0
  4  9  1  0  0  0  0
  4 17  2  0  0  0  0
  5 19  1  0  0  0  0
  6 21  1  0  0  0  0
  7 10  2  0  0  0  0
  7 20  1  0  0  0  0
  8 26  1  0  0  0  0
  9 26  2  0  0  0  0
 10 27  1  0  0  0  0
 11 12  2  0  0  0  0
 11 28  1  0  0  0  0
 12 30  1  0  0  0  0
 13 22  1  0  0  0  0
 13 27  2  0  0  0  0
 14 23  1  0  0  0  0
 14 24  2  0  0  0  0
 15 23  2  0  0  0  0
 15 29  1  0  0  0  0
 16 30  2  0  0  0  0
 16 31  1  0  0  0  0
 17 32  1  0  0  0  0
 18 32  1  0  0  0  0
 18 33  2  0  0  0  0
 18 34  1  0  0  0  0
 19 21  2  0  0  0  0
 19 39  1  0  0  0  0
 20 22  2  0  0  0  0
 20 40  1  0  0  0  0
 21 51  1  0  0  0  0
 22 41  1  0  0  0  0
 23 64  1  0  0  0  0
 24 25  1  0  0  0  0
 24 55  1  0  0  0  0
 25 29  2  0  0  0  0
 25 63  1  0  0  0  0
 26 85  1  0  0  0  0
 27 87  1  0  0  0  0
 28 31  2  0  0  0  0
 28 85  1  0  0  0  0
 29 86  1  0  0  0  0
 30 88  1  0  0  0  0
 31 89  1  0  0  0  0
 32 69  2  0  0  0  0
 33 70  1  0  0  0  0
 33 73  1  0  0  0  0
 34 74  1  0  0  0  0
 34 80  2  0  0  0  0
 35 52  1  0  0  0  0
 35 75  1  0  0  0  0
 35 81  2  0  0  0  0
 36 66  1  0  0  0  0
 36 71  1  0  0  0  0
 36 82  2  0  0  0  0
 37 67  1  0  0  0  0
 37 76  1  0  0  0  0
 37 83  2  0  0  0  0
 38 72  1  0  0  0  0
 38 77  1  0  0  0  0
 38 84  2  0  0  0  0
 39 42  1  0  0  0  0
 40 52  1  0  0  0  0
 41 71  1  0  0  0  0
 42 44  1  0  0  0  0
 43 45  1  0  0  0  0
 43 47  1  0  0  0  0
 44 51  1  0  0  0  0
 45 53  1  0  0  0  0
 46 49  1  0  0  0  0
 46 54  1  0  0  0  0
 47 72  1  0  0  0  0
 48 53  1  0  0  0  0
 48 72  1  0  0  0  0
 49 78  1  0  0  0  0
 50 54  1  0  0  0  0
 50 78  1  0  0  0  0
 51 75  1  0  0  0  0
 52 71  1  0  0  0  0
 53 70  1  0  0  0  0
 54 77  1  0  0  0  0
 56 67  1  0  0  0  0
 57 68  1  0  0  0  0
 58 68  1  0  0  0  0
 59 68  1  0  0  0  0
 60 77  1  0  0  0  0
 61 79  1  0  0  0  0
 62 86  1  0  0  0  0
 63 65  1  0  0  0  0
 64 87  1  0  0  0  0
 65 78  1  0  0  0  0
 66 68  1  0  0  0  0
 66 76  1  0  0  0  0
 67 79  1  0  0  0  0
 69 70  1  0  0  0  0
M  CHG  2  78   1  79   1
M  ISO  4  38 100  64 101  77 100  87 101
M  END
> <Batch ID>
0151

> <Smiles>
CNC(C)C(=O)NC(C(=O)N1Cc2cc([101O:1][101CH2:1]c3cc(C)c(CCN4CCC([100N:0](C)[100C:0](=O)N5CCCC(n6nc(-c7ccc(Oc8ccc(F)cc8F)cc7)c(C(N)=O)c6N)C5)C4)c(OC)c3)ccc2CC1C(=O)NC1CCCc2ccccc21)C(C)(C)C

> <Shape>
0.288

> <Color>
0.035

> <Negative vol penalty>
0.000

$$$$

  -OEChem-04052321433D

 92101  0     1  0  0  0  0  0999 V2000
  -18.3465  -26.4536   19.4041 C   0  0  0  0  0  0  0  0  0  0  0  0
  -19.5871  -25.8757   19.6540 C   0  0  0  0  0  0  0  0  0  0  0  0
  -23.3085   -9.7796   20.9241 C   0  0  0  0  0  0  0  0  0  0  0  0
  -24.0093  -10.4901   23.1244 C   0  0  0  0  0  0  0  0  0  0  0  0
  -17.7589  -27.2809   20.3603 C   0  0  0  0  0  0  0  0  0  0  0  0
  -20.2413  -26.1256   20.8598 C   0  0  0  0  0  0  0  0  0  0  0  0
  -22.1886  -21.9292   22.9197 C   0  0  0  0  0  0  0  0  0  0  0  0
  -22.6360   -8.6957   21.4883 C   0  0  0  0  0  0  0  0  0  0  0  0
  -23.3367   -9.4062   23.6886 C   0  0  0  0  0  0  0  0  0  0  0  0
  -23.3813  -21.4495   22.3803 C   0  0  0  0  0  0  0  0  0  0  0  0
  -20.1539   -8.5883   24.4770 C   0  0  0  0  0  0  0  0  0  0  0  0
  -19.3725   -8.8293   25.6070 C   0  0  0  0  0  0  0  0  0  0  0  0
  -24.6033  -22.4634   24.1964 C   0  0  0  0  0  0  0  0  0  0  0  0
  -28.9446  -21.8513   21.7178 C   0  0  0  0  0  0  0  0  0  0  0  0
  -30.3095  -19.9740   21.0469 C   0  0  0  0  0  0  0  0  0  0  0  0
  -20.7197   -7.2722   26.8709 C   0  0  0  0  0  0  0  0  0  0  0  0
  -23.9952  -10.6769   21.7422 C   0  0  0  0  0  0  0  0  0  0  0  0
  -24.1734  -13.0817   20.9098 C   0  0  0  0  0  0  0  0  0  0  0  0
  -18.4019  -27.5334   21.5824 C   0  0  0  0  0  0  0  0  0  0  0  0
  -22.1953  -22.6901   24.0976 C   0  0  0  0  0  0  0  0  0  0  0  0
  -19.6624  -26.9581   21.8326 C   0  0  0  0  0  0  0  0  0  0  0  0
  -23.4090  -22.9494   24.7501 C   0  0  0  0  0  0  0  0  0  0  0  0
  -28.3973  -19.6256   22.4819 C   0  0  0  0  0  0  0  0  0  0  0  0
  -28.1247  -20.9933   22.4508 C   0  0  0  0  0  0  0  0  0  0  0  0
  -22.6500   -8.5090   22.8706 C   0  0  0  0  0  0  0  0  0  0  0  0
  -24.5892  -21.7191   23.0170 C   0  0  0  0  0  0  0  0  0  0  0  0
  -21.2183   -7.6892   24.5440 C   0  0  0  0  0  0  0  0  0  0  0  0
  -30.0369  -21.3417   21.0158 C   0  0  0  0  0  0  0  0  0  0  0  0
  -29.4896  -19.1160   21.7799 C   0  0  0  0  0  0  0  0  0  0  0  0
  -19.6554   -8.1714   26.8039 C   0  0  0  0  0  0  0  0  0  0  0  0
  -21.5012   -7.0312   25.7409 C   0  0  0  0  0  0  0  0  0  0  0  0
  -24.6906  -11.7964   21.1599 C   0  0  0  0  0  0  0  0  0  0  0  0
  -25.2227  -13.7718   20.3537 C   0  0  0  0  0  0  0  0  0  0  0  0
  -22.8619  -13.6049   21.1581 C   0  0  0  0  0  0  0  0  0  0  0  0
  -21.3351  -25.6541   24.8582 C   0  0  0  0  0  0  0  0  0  0  0  0
  -27.5254  -15.8436   25.6787 C   0  0  0  0  0  0  0  0  0  0  0  0
  -22.0096  -24.6602   27.8715 C   0  0  0  0  0  0  0  0  0  0  0  0
  -23.7092  -22.5043   29.8988 C   0  0  0  0  0  0  0  0  0  0  0  0
  -30.9796  -14.2349   20.7519 C   0  0  0  0  0  0  0  0  0  0  0  0
  -17.7490  -28.4723   22.5657 C   0  0  0  0  0  0  0  0  0  0  0  0
  -20.8975  -23.1776   24.6811 C   0  0  0  0  0  0  0  0  0  0  0  0
  -23.4684  -23.7443   26.0280 C   0  0  0  0  0  0  0  0  0  0  0  0
  -18.3365  -28.3863   23.9721 C   0  0  0  0  0  0  0  0  0  0  0  0
  -29.4164  -12.4901   18.0706 C   0  0  0  0  0  0  0  0  0  0  0  0
  -19.8608  -28.3963   23.9154 C   0  0  0  0  0  0  0  0  0  0  0  0
  -27.9904  -12.2529   18.5706 C   0  0  0  0  0  0  0  0  0  0  0  0
  -26.8402  -17.5451   22.4986 C   0  0  0  0  0  0  0  0  0  0  0  0
  -30.4366  -12.3806   19.2016 C   0  0  0  0  0  0  0  0  0  0  0  0
  -26.3964  -16.5925   23.5975 C   0  0  0  0  0  0  0  0  0  0  0  0
  -28.2347  -17.9168   24.3917 C   0  0  0  0  0  0  0  0  0  0  0  0
  -28.7323  -12.9972   20.8716 C   0  0  0  0  0  0  0  0  0  0  0  0
  -27.5123  -18.6906   23.2757 C   0  0  1  0  0  0  0  0  0  0  0  0
  -20.3920  -27.1854   23.1388 C   0  0  1  0  0  0  0  0  0  0  0  0
  -21.0719  -24.3779   25.6064 C   0  0  1  0  0  0  0  0  0  0  0  0
  -27.6623  -13.1526   19.7774 C   0  0  2  0  0  0  0  0  0  0  0  0
  -28.6222  -16.1431   26.6690 C   0  0  0  0  0  0  0  0  0  0  0  0
  -33.0473  -23.0609   20.0310 C   0  0  0  0  0  0  0  0  0  0  0  0
  -24.0885  -21.9611   32.3192 C   0  0  0  0  0  0  0  0  0  0  0  0
  -23.8499  -27.0809   28.1238 C   0  0  0  0  0  0  0  0  0  0  0  0
  -24.8939  -25.9915   30.1217 C   0  0  0  0  0  0  0  0  0  0  0  0
  -22.4748  -26.5994   30.1565 C   0  0  0  0  0  0  0  0  0  0  0  0
  -22.6009  -19.7786   29.5807 C   0  0  0  0  0  0  0  0  0  0  0  0
  -26.9557  -21.5661   23.1968 C   0  0  0  0  0  0  0  0  0  1  0  0
  -31.3715  -16.0808   22.3638 C   0  0  0  0  0  0  0  0  0  0  0  0
  -32.2084  -21.8080   20.1654 C   0  0  0  0  0  0  0  0  0  0  0  0
  -31.1409  -17.4085   21.6644 C   0  0  0  0  0  0  0  0  0  0  0  0
  -23.2424  -24.6490   28.7427 C   0  0  1  0  0  0  0  0  0  0  0  0
  -23.2577  -21.6649   31.0804 C   0  0  2  0  0  0  0  0  0  0  0  0
  -23.6147  -26.0668   29.2611 C   0  0  0  0  0  0  0  0  0  0  0  0
  -25.9690  -11.6746   20.7926 N   0  0  0  0  0  0  0  0  0  0  0  0
  -26.2639  -12.8921   20.3060 N   0  0  0  0  0  0  0  0  0  0  0  0
  -22.1733  -24.2045   26.5556 N   0  0  0  0  0  0  0  0  0  0  0  0
  -27.4075  -16.7380   24.6302 N   0  0  0  0  0  0  0  0  0  0  0  0
  -30.0683  -13.2597   20.3140 N   0  0  0  0  0  0  0  0  0  0  0  0
  -25.3470  -15.0391   19.9057 N   0  0  0  0  0  0  0  0  0  0  0  0
  -21.9038  -12.7603   21.7352 N   0  0  0  0  0  0  0  0  0  0  0  0
  -20.3411  -25.9956   23.9612 N   0  0  0  0  0  0  0  0  0  0  0  0
  -22.9874  -23.6748   29.7983 N   0  0  0  0  0  0  0  0  0  0  0  0
  -30.5489  -15.0300   21.8069 N   0  0  0  0  0  0  0  0  0  0  0  0
  -23.3859  -20.2142   30.7643 N   0  3  0  0  0  0  0  0  0  0  0  0
  -22.5440  -14.7816   20.8615 O   0  0  0  0  0  0  0  0  0  0  0  0
  -22.3632  -26.2832   25.0796 O   0  0  0  0  0  0  0  0  0  0  0  0
  -26.7988  -14.8603   25.8312 O   0  0  0  0  0  0  0  0  0  0  0  0
  -20.9392  -25.0519   28.3432 O   0  0  0  0  0  0  0  0  0  0  0  0
  -24.6144  -22.1580   29.1430 O   0  0  0  0  0  0  0  0  0  0  0  0
  -32.0922  -14.3893   20.2369 O   0  0  0  0  0  0  0  0  0  0  0  0
  -21.9936   -7.4515   23.4215 O   0  0  0  0  0  0  0  0  0  0  0  0
  -25.7550  -21.2526   22.4923 O   0  0  0  0  0  0  0  0  0  1  0  0
  -30.8374  -22.1790   20.3012 O   0  0  0  0  0  0  0  0  0  0  0  0
  -29.7715  -17.7829   21.7985 O   0  0  0  0  0  0  0  0  0  0  0  0
  -18.9058   -8.4041   27.8894 F   0  0  0  0  0  0  0  0  0  0  0  0
  -22.5231   -6.1672   25.8116 F   0  0  0  0  0  0  0  0  0  0  0  0
  1  2  1  0  0  0  0
  1  5  2  0  0  0  0
  2  6  2  0  0  0  0
  3  8  2  0  0  0  0
  3 17  1  0  0  0  0
  4  9  1  0  0  0  0
  4 17  2  0  0  0  0
  5 19  1  0  0  0  0
  6 21  1  0  0  0  0
  7 10  2  0  0  0  0
  7 20  1  0  0  0  0
  8 25  1  0  0  0  0
  9 25  2  0  0  0  0
 10 26  1  0  0  0  0
 11 12  2  0  0  0  0
 11 27  1  0  0  0  0
 12 30  1  0  0  0  0
 13 22  1  0  0  0  0
 13 26  2  0  0  0  0
 14 24  1  0  0  0  0
 14 28  2  0  0  0  0
 15 28  1  0  0  0  0
 15 29  2  0  0  0  0
 16 30  2  0  0  0  0
 16 31  1  0  0  0  0
 17 32  1  0  0  0  0
 18 32  1  0  0  0  0
 18 33  2  0  0  0  0
 18 34  1  0  0  0  0
 19 21  2  0  0  0  0
 19 40  1  0  0  0  0
 20 22  2  0  0  0  0
 20 41  1  0  0  0  0
 21 53  1  0  0  0  0
 22 42  1  0  0  0  0
 23 24  2  0  0  0  0
 23 29  1  0  0  0  0
 23 52  1  0  0  0  0
 24 63  1  0  0  0  0
 25 87  1  0  0  0  0
 26 88  1  0  0  0  0
 27 31  2  0  0  0  0
 27 87  1  0  0  0  0
 28 89  1  0  0  0  0
 29 90  1  0  0  0  0
 30 91  1  0  0  0  0
 31 92  1  0  0  0  0
 32 70  2  0  0  0  0
 33 71  1  0  0  0  0
 33 75  1  0  0  0  0
 34 76  1  0  0  0  0
 34 81  2  0  0  0  0
 35 54  1  0  0  0  0
 35 77  1  0  0  0  0
 35 82  2  0  0  0  0
 36 56  1  0  0  0  0
 36 73  1  0  0  0  0
 36 83  2  0  0  0  0
 37 67  1  0  0  0  0
 37 72  1  0  0  0  0
 37 84  2  0  0  0  0
 38 68  1  0  0  0  0
 38 78  1  0  0  0  0
 38 85  2  0  0  0  0
 39 74  1  0  0  0  0
 39 79  1  0  0  0  0
 39 86  2  0  0  0  0
 40 43  1  0  0  0  0
 41 54  1  0  0  0  0
 42 72  1  0  0  0  0
 43 45  1  0  0  0  0
 44 46  1  0  0  0  0
 44 48  1  0  0  0  0
 45 53  1  0  0  0  0
 46 55  1  0  0  0  0
 47 49  1  0  0  0  0
 47 52  1  0  0  0  0
 48 74  1  0  0  0  0
 49 73  1  0  0  0  0
 50 52  1  0  0  0  0
 50 73  1  0  0  0  0
 51 55  1  0  0  0  0
 51 74  1  0  0  0  0
 53 77  1  0  0  0  0
 54 72  1  0  0  0  0
 55 71  1  0  0  0  0
 57 65  1  0  0  0  0
 58 68  1  0  0  0  0
 59 69  1  0  0  0  0
 60 69  1  0  0  0  0
 61 69  1  0  0  0  0
 62 80  1  0  0  0  0
 63 88  1  0  0  0  0
 64 66  1  0  0  0  0
 64 79  1  0  0  0  0
 65 89  1  0  0  0  0
 66 90  1  0  0  0  0
 67 69  1  0  0  0  0
 67 78  1  0  0  0  0
 68 80  1  0  0  0  0
 70 71  1  0  0  0  0
M  CHG  1  80   1
M  ISO  4  39 100  63 101  79 100  88 101
M  END
> <Batch ID>
0151

> <Smiles>
CCOc1cc(OCC[100NH:0][100C:0](=O)N2CCCC(n3nc(-c4ccc(Oc5ccc(F)cc5F)cc4)c(C(N)=O)c3N)C2)c(C2CCN(C(C)=O)C2)c([101CH2:1][101O:1]c2ccc3c(c2)CN(C(=O)C(NC(=O)C(C)NC)C(C)(C)C)C(C(=O)NC2CCCc4ccccc42)C3)c1

> <Shape>
0.223

> <Color>
0.165

> <Negative vol penalty>
0.000

$$$$

  -OEChem-04052321433D

 90 99  0     1  0  0  0  0  0999 V2000
  -40.1207  -25.7014   18.8834 C   0  0  0  0  0  0  0  0  0  0  0  0
  -39.2781  -25.0467   19.7760 C   0  0  0  0  0  0  0  0  0  0  0  0
  -23.1922   -9.8205   19.9268 C   0  0  0  0  0  0  0  0  0  0  0  0
  -23.5595   -9.9958   22.3083 C   0  0  0  0  0  0  0  0  0  0  0  0
  -39.6010  -26.2548   17.7139 C   0  0  0  0  0  0  0  0  0  0  0  0
  -37.9150  -24.9459   19.5001 C   0  0  0  0  0  0  0  0  0  0  0  0
  -36.0941  -20.3021   20.3750 C   0  0  0  0  0  0  0  0  0  0  0  0
  -22.4239   -8.6741   20.1297 C   0  0  0  0  0  0  0  0  0  0  0  0
  -22.7912   -8.8495   22.5112 C   0  0  0  0  0  0  0  0  0  0  0  0
  -35.8438  -19.9559   21.7021 C   0  0  0  0  0  0  0  0  0  0  0  0
  -23.1905   -5.5030   22.2424 C   0  0  0  0  0  0  0  0  0  0  0  0
  -23.6838   -4.5394   23.1220 C   0  0  0  0  0  0  0  0  0  0  0  0
  -33.4981  -20.4118   21.3723 C   0  0  0  0  0  0  0  0  0  0  0  0
  -32.7885  -16.5530   24.2598 C   0  0  0  0  0  0  0  0  0  0  0  0
  -30.5567  -15.0610   25.0187 C   0  0  0  0  0  0  0  0  0  0  0  0
  -21.7210   -4.7985   24.5067 C   0  0  0  0  0  0  0  0  0  0  0  0
  -23.7601  -10.4813   21.0161 C   0  0  0  0  0  0  0  0  0  0  0  0
  -24.1022  -12.9981   20.7789 C   0  0  0  0  0  0  0  0  0  0  0  0
  -38.2324  -26.1522   17.4189 C   0  0  0  0  0  0  0  0  0  0  0  0
  -35.0481  -20.7169   19.5382 C   0  0  0  0  0  0  0  0  0  0  0  0
  -37.3762  -25.4995   18.3263 C   0  0  0  0  0  0  0  0  0  0  0  0
  -33.7374  -20.7602   20.0342 C   0  0  0  0  0  0  0  0  0  0  0  0
  -31.7364  -17.1679   24.9386 C   0  0  0  0  0  0  0  0  0  0  0  0
  -31.6087  -14.4461   24.3400 C   0  0  0  0  0  0  0  0  0  0  0  0
  -22.2234   -8.1886   21.4219 C   0  0  0  0  0  0  0  0  0  0  0  0
  -34.5461  -20.0135   22.2018 C   0  0  0  0  0  0  0  0  0  0  0  0
  -21.9624   -6.1144   22.4949 C   0  0  0  0  0  0  0  0  0  0  0  0
  -32.7246  -15.1921   23.9605 C   0  0  0  0  0  0  0  0  0  0  0  0
  -30.6205  -16.4220   25.3180 C   0  0  0  0  0  0  0  0  0  0  0  0
  -22.9491   -4.1872   24.2542 C   0  0  0  0  0  0  0  0  0  0  0  0
  -21.2276   -5.7621   23.6271 C   0  0  0  0  0  0  0  0  0  0  0  0
  -24.5543  -11.6652   20.8071 C   0  0  0  0  0  0  0  0  0  0  0  0
  -25.2352  -13.7402   20.5504 C   0  0  0  0  0  0  0  0  0  0  0  0
  -22.7767  -13.5189   20.9446 C   0  0  0  0  0  0  0  0  0  0  0  0
  -34.3680  -23.3866   17.9527 C   0  0  0  0  0  0  0  0  0  0  0  0
  -31.9329  -21.6006   16.7683 C   0  0  0  0  0  0  0  0  0  0  0  0
  -29.8369  -18.9361   17.1607 C   0  0  0  0  0  0  0  0  0  0  0  0
  -31.0442  -12.7429   21.6049 C   0  0  0  0  0  0  0  0  0  0  0  0
  -37.7089  -26.8073   16.1653 C   0  0  0  0  0  0  0  0  0  0  0  0
  -35.3307  -21.0613   18.1015 C   0  0  0  0  0  0  0  0  0  0  0  0
  -32.5763  -21.1795   19.1712 C   0  0  0  0  0  0  0  0  0  0  0  0
  -36.3149  -26.3307   15.7655 C   0  0  0  0  0  0  0  0  0  0  0  0
  -29.5321  -13.4678   18.4640 C   0  0  0  0  0  0  0  0  0  0  0  0
  -35.3875  -26.3175   16.9765 C   0  0  0  0  0  0  0  0  0  0  0  0
  -28.0441  -13.2083   18.7058 C   0  0  0  0  0  0  0  0  0  0  0  0
  -31.9475  -19.4786   23.9641 C   0  0  0  0  0  0  0  0  0  0  0  0
  -33.4353  -20.3744   25.6441 C   0  0  0  0  0  0  0  0  0  0  0  0
  -30.4090  -12.4761   19.2254 C   0  0  0  0  0  0  0  0  0  0  0  0
  -28.6472  -12.1316   20.9140 C   0  0  0  0  0  0  0  0  0  0  0  0
  -31.8209  -18.6252   25.2491 C   0  0  2  0  0  0  0  0  0  0  0  0
  -35.8960  -25.3479   18.0503 C   0  0  1  0  0  0  0  0  0  0  0  0
  -34.2669  -21.9630   17.4829 C   0  0  1  0  0  0  0  0  0  0  0  0
  -33.0726  -18.9568   26.0911 C   0  0  2  0  0  0  0  0  0  0  0  0
  -27.7240  -13.1417   20.2113 C   0  0  2  0  0  0  0  0  0  0  0  0
  -33.2055  -20.3296   24.1406 C   0  0  1  0  0  0  0  0  0  1  0  0
  -28.0701  -17.2561   16.5663 C   0  0  0  0  0  0  0  0  0  0  0  0
  -32.9263  -17.4130   28.0657 C   0  0  0  0  0  0  0  0  0  0  0  0
  -33.8196  -19.7414   28.3559 C   0  0  0  0  0  0  0  0  0  0  0  0
  -30.0372  -23.8168   17.6654 C   0  0  0  0  0  0  0  0  0  0  0  0
  -28.1403  -22.2034   17.4067 C   0  0  0  0  0  0  0  0  0  0  0  0
  -29.5133  -22.8398   15.4236 C   0  0  0  0  0  0  0  0  0  0  0  0
  -31.8165  -17.1219   15.9164 C   0  0  0  0  0  0  0  0  0  0  0  0
  -34.8610  -15.4441   22.9466 C   0  0  0  0  0  0  0  0  0  0  0  0
  -28.4835  -16.1703   26.3308 C   0  0  0  0  0  0  0  0  0  0  0  0
  -31.5233  -12.9888   24.0275 C   0  0  0  0  0  0  0  0  0  0  0  0
  -30.5087  -21.3241   17.1855 C   0  0  1  0  0  0  0  0  0  0  0  0
  -29.4369  -17.8209   16.2117 C   0  0  2  0  0  0  0  0  0  0  0  0
  -32.8296  -18.8629   27.5912 C   0  0  0  0  0  0  0  0  0  0  0  0
  -29.5718  -22.5400   16.9373 C   0  0  0  0  0  0  0  0  0  0  0  0
  -25.8717  -11.5633   20.6120 N   0  0  0  0  0  0  0  0  0  0  0  0
  -26.2571  -12.8417   20.4588 N   0  0  0  0  0  0  0  0  0  0  0  0
  -32.9046  -21.5126   17.7752 N   0  0  0  0  0  0  0  0  0  0  0  0
  -30.0558  -12.4625   20.6470 N   0  0  0  0  0  0  0  0  0  0  0  0
  -25.4470  -15.0671   20.4207 N   0  0  0  0  0  0  0  0  0  0  0  0
  -21.7281  -12.6172   21.1719 N   0  0  0  0  0  0  0  0  0  0  0  0
  -35.5860  -23.9821   17.6856 N   0  0  0  0  0  0  0  0  0  0  0  0
  -30.1073  -20.1081   16.4865 N   0  0  0  0  0  0  0  0  0  0  0  0
  -30.6237  -12.7153   22.9289 N   0  0  0  0  0  0  0  0  0  0  0  0
  -30.4319  -16.7128   16.2660 N   0  3  0  0  0  0  0  0  0  0  0  0
  -22.5270  -14.7463   20.8762 O   0  0  0  0  0  0  0  0  0  0  0  0
  -33.4113  -23.9068   18.5146 O   0  0  0  0  0  0  0  0  0  0  0  0
  -32.1753  -21.8773   15.5909 O   0  0  0  0  0  0  0  0  0  0  0  0
  -29.8994  -18.7840   18.3787 O   0  0  0  0  0  0  0  0  0  0  0  0
  -32.2134  -13.0040   21.3022 O   0  0  0  0  0  0  0  0  0  0  0  0
  -21.4735   -7.0702   21.6203 O   0  0  0  0  0  0  0  0  0  0  0  0
  -34.2991  -19.6768   23.4969 O   0  0  0  0  0  0  0  0  0  1  0  0
  -33.7605  -14.6072   23.2961 O   0  0  0  0  0  0  0  0  0  0  0  0
  -29.5841  -17.0072   25.9811 O   0  0  0  0  0  0  0  0  0  0  0  0
  -23.4223   -3.2608   25.0980 F   0  0  0  0  0  0  0  0  0  0  0  0
  -20.0466   -6.3451   23.8743 F   0  0  0  0  0  0  0  0  0  0  0  0
  1  2  1  0  0  0  0
  1  5  2  0  0  0  0
  2  6  2  0  0  0  0
  3  8  2  0  0  0  0
  3 17  1  0  0  0  0
  4  9  1  0  0  0  0
  4 17  2  0  0  0  0
  5 19  1  0  0  0  0
  6 21  1  0  0  0  0
  7 10  2  0  0  0  0
  7 20  1  0  0  0  0
  8 25  1  0  0  0  0
  9 25  2  0  0  0  0
 10 26  1  0  0  0  0
 11 12  2  0  0  0  0
 11 27  1  0  0  0  0
 12 30  1  0  0  0  0
 13 22  1  0  0  0  0
 13 26  2  0  0  0  0
 14 23  1  0  0  0  0
 14 28  2  0  0  0  0
 15 24  2  0  0  0  0
 15 29  1  0  0  0  0
 16 30  2  0  0  0  0
 16 31  1  0  0  0  0
 17 32  1  0  0  0  0
 18 32  1  0  0  0  0
 18 33  2  0  0  0  0
 18 34  1  0  0  0  0
 19 21  2  0  0  0  0
 19 39  1  0  0  0  0
 20 22  2  0  0  0  0
 20 40  1  0  0  0  0
 21 51  1  0  0  0  0
 22 41  1  0  0  0  0
 23 29  2  0  0  0  0
 23 50  1  0  0  0  0
 24 28  1  0  0  0  0
 24 65  1  0  0  0  0
 25 85  1  0  0  0  0
 26 86  1  0  0  0  0
 27 31  2  0  0  0  0
 27 85  1  0  0  0  0
 28 87  1  0  0  0  0
 29 88  1  0  0  0  0
 30 89  1  0  0  0  0
 31 90  1  0  0  0  0
 32 70  2  0  0  0  0
 33 71  1  0  0  0  0
 33 74  1  0  0  0  0
 34 75  1  0  0  0  0
 34 80  2  0  0  0  0
 35 52  1  0  0  0  0
 35 76  1  0  0  0  0
 35 81  2  0  0  0  0
 36 66  1  0  0  0  0
 36 72  1  0  0  0  0
 36 82  2  0  0  0  0
 37 67  1  0  0  0  0
 37 77  1  0  0  0  0
 37 83  2  0  0  0  0
 38 73  1  0  0  0  0
 38 78  1  0  0  0  0
 38 84  2  0  0  0  0
 39 42  1  0  0  0  0
 40 52  1  0  0  0  0
 41 72  1  0  0  0  0
 42 44  1  0  0  0  0
 43 45  1  0  0  0  0
 43 48  1  0  0  0  0
 44 51  1  0  0  0  0
 45 54  1  0  0  0  0
 46 50  1  0  0  0  0
 46 55  1  0  0  0  0
 47 53  1  0  0  0  0
 47 55  1  0  0  0  0
 48 73  1  0  0  0  0
 49 54  1  0  0  0  0
 49 73  1  0  0  0  0
 50 53  1  0  0  0  0
 51 76  1  0  0  0  0
 52 72  1  0  0  0  0
 53 68  1  0  0  0  0
 54 71  1  0  0  0  0
 55 86  1  0  0  0  0
 56 67  1  0  0  0  0
 57 68  1  0  0  0  0
 58 68  1  0  0  0  0
 59 69  1  0  0  0  0
 60 69  1  0  0  0  0
 61 69  1  0  0  0  0
 62 79  1  0  0  0  0
 63 87  1  0  0  0  0
 64 88  1  0  0  0  0
 65 78  1  0  0  0  0
 66 69  1  0  0  0  0
 66 77  1  0  0  0  0
 67 79  1  0  0  0  0
 70 71  1  0  0  0  0
M  CHG  1  79   1
M  ISO  4  38 100  55 101  78 100  86 101
M  END
> <Batch ID>
0151

> <Smiles>
CNC(C)C(=O)NC(C(=O)N1Cc2cc([101O:1][101CH:1]3CC(c4cc(OC)c(C[100NH:0][100C:0](=O)N5CCCC(n6nc(-c7ccc(Oc8ccc(F)cc8F)cc7)c(C(N)=O)c6N)C5)cc4OC)C(C(C)C)C3)ccc2CC1C(=O)NC1CCCc2ccccc21)C(C)(C)C

> <Shape>
0.161

> <Color>
0.175

> <Negative vol penalty>
0.000

$$$$

  -OEChem-04052321433D

 81 90  0     1  0  0  0  0  0999 V2000
  -28.4188   -6.3882   33.4965 C   0  0  0  0  0  0  0  0  0  0  0  0
  -28.7426   -7.2636   32.4649 C   0  0  0  0  0  0  0  0  0  0  0  0
  -23.2872   -9.7975   19.9087 C   0  0  0  0  0  0  0  0  0  0  0  0
  -23.7232   -9.9387   22.2809 C   0  0  0  0  0  0  0  0  0  0  0  0
  -27.1521   -5.8075   33.5447 C   0  0  0  0  0  0  0  0  0  0  0  0
  -27.8003   -7.5579   31.4801 C   0  0  0  0  0  0  0  0  0  0  0  0
  -27.5812  -12.5043   30.4171 C   0  0  0  0  0  0  0  0  0  0  0  0
  -22.5562   -8.6272   20.1127 C   0  0  0  0  0  0  0  0  0  0  0  0
  -22.9921   -8.7684   22.4849 C   0  0  0  0  0  0  0  0  0  0  0  0
  -28.5851  -13.0255   29.6021 C   0  0  0  0  0  0  0  0  0  0  0  0
  -20.9374   -6.0151   23.6747 C   0  0  0  0  0  0  0  0  0  0  0  0
  -20.0289   -5.9933   24.7329 C   0  0  0  0  0  0  0  0  0  0  0  0
  -32.8296  -14.8467   25.8387 C   0  0  0  0  0  0  0  0  0  0  0  0
  -27.0907  -12.9301   27.7108 C   0  0  0  0  0  0  0  0  0  0  0  0
  -30.7039  -14.5403   24.7561 C   0  0  0  0  0  0  0  0  0  0  0  0
  -18.8310   -7.8431   23.7427 C   0  0  0  0  0  0  0  0  0  0  0  0
  -33.4186  -14.2655   24.7273 C   0  0  0  0  0  0  0  0  0  0  0  0
  -23.8708  -10.4532   20.9928 C   0  0  0  0  0  0  0  0  0  0  0  0
  -24.1387  -12.9823   20.7939 C   0  0  0  0  0  0  0  0  0  0  0  0
  -26.1906   -6.1023   32.5654 C   0  0  0  0  0  0  0  0  0  0  0  0
  -26.3259  -12.1814   29.8820 C   0  0  0  0  0  0  0  0  0  0  0  0
  -26.5200   -6.9795   31.5145 C   0  0  0  0  0  0  0  0  0  0  0  0
  -31.4459  -14.9830   25.8455 C   0  0  0  0  0  0  0  0  0  0  0  0
  -26.0718  -12.4074   28.5217 C   0  0  0  0  0  0  0  0  0  0  0  0
  -22.4085   -8.1127   21.4008 C   0  0  0  0  0  0  0  0  0  0  0  0
  -28.3409  -13.2357   28.2481 C   0  0  0  0  0  0  0  0  0  0  0  0
  -20.7927   -6.9510   22.6505 C   0  0  0  0  0  0  0  0  0  0  0  0
  -18.9757   -6.9072   24.7669 C   0  0  0  0  0  0  0  0  0  0  0  0
  -19.7395   -7.8649   22.6845 C   0  0  0  0  0  0  0  0  0  0  0  0
  -24.6266  -11.6618   20.7826 C   0  0  0  0  0  0  0  0  0  0  0  0
  -31.3881  -13.9730   23.6932 C   0  0  0  0  0  0  0  0  0  0  0  0
  -25.2441  -13.7588   20.5454 C   0  0  0  0  0  0  0  0  0  0  0  0
  -22.8056  -13.4639   21.0098 C   0  0  0  0  0  0  0  0  0  0  0  0
  -24.6316   -9.5076   29.5921 C   0  0  0  0  0  0  0  0  0  0  0  0
  -22.3480  -11.5350   28.4979 C   0  0  0  0  0  0  0  0  0  0  0  0
  -21.5842  -14.5348   27.0610 C   0  0  0  0  0  0  0  0  0  0  0  0
  -31.0965  -12.9283   21.4194 C   0  0  0  0  0  0  0  0  0  0  0  0
  -24.8505   -5.4135   32.6331 C   0  0  0  0  0  0  0  0  0  0  0  0
  -25.2450  -11.6450   30.7800 C   0  0  0  0  0  0  0  0  0  0  0  0
  -24.7346  -12.0962   27.9024 C   0  0  0  0  0  0  0  0  0  0  0  0
  -23.7842   -6.0683   31.7589 C   0  0  0  0  0  0  0  0  0  0  0  0
  -29.4849  -13.6350   18.3242 C   0  0  0  0  0  0  0  0  0  0  0  0
  -24.3399   -6.3623   30.3691 C   0  0  0  0  0  0  0  0  0  0  0  0
  -28.0109  -13.3352   18.6061 C   0  0  0  0  0  0  0  0  0  0  0  0
  -29.9428  -16.8574   26.7783 C   0  0  0  0  0  0  0  0  0  0  0  0
  -31.2542  -16.9556   27.4929 C   0  0  0  0  0  0  0  0  0  0  0  0
  -30.4107  -12.6576   19.0463 C   0  0  0  0  0  0  0  0  0  0  0  0
  -28.7052  -12.2358   20.7733 C   0  0  0  0  0  0  0  0  0  0  0  0
  -25.5166   -7.3429   30.4415 C   0  0  1  0  0  0  0  0  0  0  0  0
  -24.1698  -10.8706   30.0241 C   0  0  1  0  0  0  0  0  0  0  0  0
  -27.7359  -13.2341   20.1193 C   0  0  2  0  0  0  0  0  0  0  0  0
  -30.7615  -15.6012   27.0158 C   0  0  0  0  0  0  0  0  0  0  0  0
  -19.6343  -15.8934   26.2552 C   0  0  0  0  0  0  0  0  0  0  0  0
  -22.1455   -9.7690   26.0179 C   0  0  0  0  0  0  0  0  0  0  0  0
  -20.9335  -11.6364   24.8725 C   0  0  0  0  0  0  0  0  0  0  0  0
  -19.9513  -10.5762   26.9057 C   0  0  0  0  0  0  0  0  0  0  0  0
  -22.1634  -16.7155   28.9761 C   0  0  0  0  0  0  0  0  0  0  0  0
  -30.2653  -14.6205   28.0605 C   0  0  0  0  0  0  0  0  0  1  0  0
  -21.9659  -12.0849   27.1449 C   0  0  1  0  0  0  0  0  0  0  0  0
  -20.5593  -15.5939   27.4246 C   0  0  2  0  0  0  0  0  0  0  0  0
  -21.2750  -11.0208   26.2462 C   0  0  0  0  0  0  0  0  0  0  0  0
  -32.7310  -13.8235   23.6505 N   0  0  0  0  0  0  0  0  0  0  0  0
  -25.9395  -11.5992   20.5456 N   0  0  0  0  0  0  0  0  0  0  0  0
  -26.2861  -12.8900   20.4055 N   0  0  0  0  0  0  0  0  0  0  0  0
  -23.7121  -11.5677   28.8204 N   0  0  0  0  0  0  0  0  0  0  0  0
  -30.0946  -12.6178   20.4758 N   0  0  0  0  0  0  0  0  0  0  0  0
  -25.4165  -15.0931   20.4350 N   0  0  0  0  0  0  0  0  0  0  0  0
  -21.7888  -12.5301   21.2515 N   0  0  0  0  0  0  0  0  0  0  0  0
  -30.6234  -13.5250   22.5876 N   0  0  0  0  0  0  0  0  0  0  0  0
  -25.0369   -8.6947   30.6334 N   0  0  0  0  0  0  0  0  0  0  0  0
  -21.1537  -13.2696   27.4004 N   0  0  0  0  0  0  0  0  0  0  0  0
  -21.2400  -16.8589   27.8213 N   0  3  0  0  0  0  0  0  0  0  0  0
  -22.5215  -14.6851   20.9727 O   0  0  0  0  0  0  0  0  0  0  0  0
  -24.6196   -9.2146   28.4023 O   0  0  0  0  0  0  0  0  0  0  0  0
  -21.4677  -11.0991   29.2441 O   0  0  0  0  0  0  0  0  0  0  0  0
  -22.6577  -14.8026   26.5258 O   0  0  0  0  0  0  0  0  0  0  0  0
  -32.2895  -12.7079   21.1955 O   0  0  0  0  0  0  0  0  0  0  0  0
  -21.6950   -6.9709   21.6002 O   0  0  0  0  0  0  0  0  0  0  0  0
  -29.3192  -13.7437   27.4501 O   0  0  0  0  0  0  0  0  0  1  0  0
  -18.1025   -6.8851   25.7823 F   0  0  0  0  0  0  0  0  0  0  0  0
  -19.5947   -8.7656   21.7028 F   0  0  0  0  0  0  0  0  0  0  0  0
  1  2  1  0  0  0  0
  1  5  2  0  0  0  0
  2  6  2  0  0  0  0
  3  8  2  0  0  0  0
  3 18  1  0  0  0  0
  4  9  1  0  0  0  0
  4 18  2  0  0  0  0
  5 20  1  0  0  0  0
  6 22  1  0  0  0  0
  7 10  2  0  0  0  0
  7 21  1  0  0  0  0
  8 25  1  0  0  0  0
  9 25  2  0  0  0  0
 10 26  1  0  0  0  0
 11 12  2  0  0  0  0
 11 27  1  0  0  0  0
 12 28  1  0  0  0  0
 13 17  2  0  0  0  0
 13 23  1  0  0  0  0
 14 24  1  0  0  0  0
 14 26  2  0  0  0  0
 15 23  2  0  0  0  0
 15 31  1  0  0  0  0
 16 28  2  0  0  0  0
 16 29  1  0  0  0  0
 17 62  1  0  0  0  0
 18 30  1  0  0  0  0
 19 30  1  0  0  0  0
 19 32  2  0  0  0  0
 19 33  1  0  0  0  0
 20 22  2  0  0  0  0
 20 38  1  0  0  0  0
 21 24  2  0  0  0  0
 21 39  1  0  0  0  0
 22 49  1  0  0  0  0
 23 52  1  0  0  0  0
 24 40  1  0  0  0  0
 25 78  1  0  0  0  0
 26 79  1  0  0  0  0
 27 29  2  0  0  0  0
 27 78  1  0  0  0  0
 28 80  1  0  0  0  0
 29 81  1  0  0  0  0
 30 63  2  0  0  0  0
 31 62  2  0  0  0  0
 31 69  1  0  0  0  0
 32 64  1  0  0  0  0
 32 67  1  0  0  0  0
 33 68  1  0  0  0  0
 33 73  2  0  0  0  0
 34 50  1  0  0  0  0
 34 70  1  0  0  0  0
 34 74  2  0  0  0  0
 35 59  1  0  0  0  0
 35 65  1  0  0  0  0
 35 75  2  0  0  0  0
 36 60  1  0  0  0  0
 36 71  1  0  0  0  0
 36 76  2  0  0  0  0
 37 66  1  0  0  0  0
 37 69  1  0  0  0  0
 37 77  2  0  0  0  0
 38 41  1  0  0  0  0
 39 50  1  0  0  0  0
 40 65  1  0  0  0  0
 41 43  1  0  0  0  0
 42 44  1  0  0  0  0
 42 47  1  0  0  0  0
 43 49  1  0  0  0  0
 44 51  1  0  0  0  0
 45 46  1  0  0  0  0
 45 52  1  0  0  0  0
 46 52  1  0  0  0  0
 47 66  1  0  0  0  0
 48 51  1  0  0  0  0
 48 66  1  0  0  0  0
 49 70  1  0  0  0  0
 50 65  1  0  0  0  0
 51 64  1  0  0  0  0
 52 58  1  0  0  0  0
 53 60  1  0  0  0  0
 54 61  1  0  0  0  0
 55 61  1  0  0  0  0
 56 61  1  0  0  0  0
 57 72  1  0  0  0  0
 58 79  1  0  0  0  0
 59 61  1  0  0  0  0
 59 71  1  0  0  0  0
 60 72  1  0  0  0  0
 63 64  1  0  0  0  0
M  CHG  1  72   1
M  ISO  4  37 100  58 101  69 100  79 101
M  END
> <Batch ID>
0151

> <Smiles>
CNC(C)C(=O)NC(C(=O)N1Cc2cc([101O:1][101CH2:1]C3(c4ccnc([100NH:0][100C:0](=O)N5CCCC(n6nc(-c7ccc(Oc8ccc(F)cc8F)cc7)c(C(N)=O)c6N)C5)c4)CC3)ccc2CC1C(=O)NC1CCCc2ccccc21)C(C)(C)C

> <Shape>
0.129

> <Color>
0.177

> <Negative vol penalty>
0.000

$$$$

  -OEChem-04052321433D

 91101  0     1  0  0  0  0  0999 V2000
  -17.2306  -27.7197   30.3456 C   0  0  0  0  0  0  0  0  0  0  0  0
  -18.0485  -27.0187   29.4653 C   0  0  0  0  0  0  0  0  0  0  0  0
  -23.2187   -9.6788   20.0593 C   0  0  0  0  0  0  0  0  0  0  0  0
  -23.6889  -10.0546   22.3991 C   0  0  0  0  0  0  0  0  0  0  0  0
  -16.0114  -28.2323   29.9045 C   0  0  0  0  0  0  0  0  0  0  0  0
  -17.6471  -26.8288   28.1435 C   0  0  0  0  0  0  0  0  0  0  0  0
  -21.3809  -27.6999   24.8351 C   0  0  0  0  0  0  0  0  0  0  0  0
  -22.4602   -8.5564   20.3919 C   0  0  0  0  0  0  0  0  0  0  0  0
  -22.9305   -8.9322   22.7318 C   0  0  0  0  0  0  0  0  0  0  0  0
  -22.3401  -26.7001   24.6798 C   0  0  0  0  0  0  0  0  0  0  0  0
  -20.8208   -6.3747   24.2239 C   0  0  0  0  0  0  0  0  0  0  0  0
  -19.9259   -6.4879   25.2878 C   0  0  0  0  0  0  0  0  0  0  0  0
  -21.2320  -25.9576   22.6698 C   0  0  0  0  0  0  0  0  0  0  0  0
  -24.8877  -20.7063   22.7028 C   0  0  0  0  0  0  0  0  0  0  0  0
  -18.7635   -8.2562   24.1219 C   0  0  0  0  0  0  0  0  0  0  0  0
  -23.8331  -10.4279   21.0628 C   0  0  0  0  0  0  0  0  0  0  0  0
  -24.1638  -12.9142   20.5979 C   0  0  0  0  0  0  0  0  0  0  0  0
  -15.5992  -28.0570   28.5740 C   0  0  0  0  0  0  0  0  0  0  0  0
  -20.3320  -27.8294   23.9134 C   0  0  0  0  0  0  0  0  0  0  0  0
  -16.4206  -27.3384   27.6845 C   0  0  0  0  0  0  0  0  0  0  0  0
  -20.2622  -26.9615   22.8143 C   0  0  0  0  0  0  0  0  0  0  0  0
  -24.1408  -22.9619   22.3300 C   0  0  0  0  0  0  0  0  0  0  0  0
  -22.3161   -8.1831   21.7282 C   0  0  0  0  0  0  0  0  0  0  0  0
  -22.2641  -25.8270   23.5987 C   0  0  0  0  0  0  0  0  0  0  0  0
  -20.6871   -7.2023   23.1090 C   0  0  0  0  0  0  0  0  0  0  0  0
  -23.8656  -21.6489   22.6957 C   0  0  0  0  0  0  0  0  0  0  0  0
  -18.8972   -7.4286   25.2368 C   0  0  0  0  0  0  0  0  0  0  0  0
  -19.6585   -8.1430   23.0580 C   0  0  0  0  0  0  0  0  0  0  0  0
  -24.6171  -11.5870   20.7198 C   0  0  0  0  0  0  0  0  0  0  0  0
  -25.4442  -23.2788   21.9827 C   0  0  0  0  0  0  0  0  0  0  0  0
  -26.1576  -21.1241   22.3386 C   0  0  0  0  0  0  0  0  0  0  0  0
  -25.2856  -13.6304   20.2583 C   0  0  0  0  0  0  0  0  0  0  0  0
  -22.8466  -13.4517   20.7759 C   0  0  0  0  0  0  0  0  0  0  0  0
  -17.1643  -27.6235   24.0763 C   0  0  0  0  0  0  0  0  0  0  0  0
  -17.3311  -28.6072   20.9898 C   0  0  0  0  0  0  0  0  0  0  0  0
  -19.1602  -28.8399   18.1180 C   0  0  0  0  0  0  0  0  0  0  0  0
  -30.5940  -14.8706   20.7609 C   0  0  0  0  0  0  0  0  0  0  0  0
  -14.2513  -28.5885   28.1556 C   0  0  0  0  0  0  0  0  0  0  0  0
  -19.3205  -28.9299   24.0804 C   0  0  0  0  0  0  0  0  0  0  0  0
  -19.1676  -27.0711   21.7855 C   0  0  0  0  0  0  0  0  0  0  0  0
  -14.0706  -28.6670   26.6418 C   0  0  0  0  0  0  0  0  0  0  0  0
  -29.8805  -12.0939   18.8285 C   0  0  0  0  0  0  0  0  0  0  0  0
  -14.5387  -27.3745   25.9807 C   0  0  0  0  0  0  0  0  0  0  0  0
  -28.4083  -11.8121   19.1279 C   0  0  0  0  0  0  0  0  0  0  0  0
  -28.8100  -18.0983   21.1158 C   0  0  0  0  0  0  0  0  0  0  0  0
  -28.1515  -16.5864   23.0209 C   0  0  0  0  0  0  0  0  0  0  0  0
  -21.0513  -20.8765   24.9472 C   0  0  0  0  0  0  0  0  0  0  0  0
  -30.6304  -12.4851   20.0968 C   0  0  0  0  0  0  0  0  0  0  0  0
  -30.0842  -17.2789   20.9305 C   0  0  0  0  0  0  0  0  0  0  0  0
  -29.4397  -15.7995   22.8035 C   0  0  0  0  0  0  0  0  0  0  0  0
  -28.5670  -13.3905   21.1158 C   0  0  0  0  0  0  0  0  0  0  0  0
  -16.0313  -27.1331   26.2366 C   0  0  1  0  0  0  0  0  0  0  0  0
  -18.0041  -28.6454   23.3636 C   0  0  1  0  0  0  0  0  0  0  0  0
  -28.3054  -18.0432   22.5636 C   0  0  0  0  0  0  0  0  0  0  0  0
  -22.1673  -21.7507   25.4488 C   0  0  2  0  0  0  0  0  0  0  0  0
  -27.7575  -12.9968   19.8639 C   0  0  2  0  0  0  0  0  0  0  0  0
  -22.4311  -20.7429   24.3622 C   0  0  2  0  0  0  0  0  0  0  0  0
  -25.7995  -24.6731   21.5813 C   0  0  0  0  0  0  0  0  0  0  0  0
  -22.7261  -21.5429   26.8138 C   0  0  0  0  0  0  0  0  0  0  0  0
  -19.0151  -29.6610   15.7511 C   0  0  0  0  0  0  0  0  0  0  0  0
  -15.6250  -26.1860   20.2569 C   0  0  0  0  0  0  0  0  0  0  0  0
  -16.3037  -26.5177   17.8700 C   0  0  0  0  0  0  0  0  0  0  0  0
  -15.0152  -28.2937   19.0568 C   0  0  0  0  0  0  0  0  0  0  0  0
  -21.3825  -30.7521   18.5226 C   0  0  0  0  0  0  0  0  0  0  0  0
  -23.0606  -23.9902   22.3150 C   0  0  0  0  0  0  0  0  0  1  0  0
  -26.9878  -18.8006   22.7097 C   0  0  0  0  0  0  0  0  0  0  0  0
  -17.4432  -27.9164   19.6521 C   0  0  1  0  0  0  0  0  0  0  0  0
  -19.4152  -30.0040   17.1777 C   0  0  2  0  0  0  0  0  0  0  0  0
  -16.1164  -27.2249   19.2292 C   0  0  0  0  0  0  0  0  0  0  0  0
  -25.9248  -11.4645   20.4772 N   0  0  0  0  0  0  0  0  0  0  0  0
  -26.4633  -22.3906   21.9776 N   0  0  0  0  0  0  0  0  0  0  0  0
  -26.3029  -12.7238   20.1994 N   0  0  0  0  0  0  0  0  0  0  0  0
  -18.1988  -28.1595   21.9960 N   0  0  0  0  0  0  0  0  0  0  0  0
  -29.9790  -13.6096   20.7683 N   0  0  0  0  0  0  0  0  0  0  0  0
  -29.9164  -15.9108   21.4184 N   0  0  0  0  0  0  0  0  0  0  0  0
  -25.4911  -14.9408   20.0073 N   0  0  0  0  0  0  0  0  0  0  0  0
  -21.8091  -12.5761   21.1243 N   0  0  0  0  0  0  0  0  0  0  0  0
  -27.1739  -20.1662   22.3504 N   0  0  0  0  0  0  0  0  0  0  0  0
  -16.8343  -27.9713   25.3723 N   0  0  0  0  0  0  0  0  0  0  0  0
  -17.9181  -28.9246   18.7106 N   0  0  0  0  0  0  0  0  0  0  0  0
  -20.8600  -30.3694   17.1857 N   0  3  0  0  0  0  0  0  0  0  0  0
  -22.5937  -14.6697   20.6142 O   0  0  0  0  0  0  0  0  0  0  0  0
  -16.8385  -26.5962   23.4931 O   0  0  0  0  0  0  0  0  0  0  0  0
  -16.5091  -29.5155   21.1343 O   0  0  0  0  0  0  0  0  0  0  0  0
  -19.9794  -27.9429   18.3050 O   0  0  0  0  0  0  0  0  0  0  0  0
  -31.6797  -15.0597   20.1983 O   0  0  0  0  0  0  0  0  0  0  0  0
  -21.5759   -7.0881   22.0532 O   0  0  0  0  0  0  0  0  0  0  0  0
  -22.6058  -21.2703   23.0484 O   0  0  0  0  0  0  0  0  0  0  0  0
  -23.2052  -24.8431   23.4440 O   0  0  0  0  0  0  0  0  0  1  0  0
  -18.0370   -7.5362   26.2579 F   0  0  0  0  0  0  0  0  0  0  0  0
  -19.5243   -8.9400   21.9891 F   0  0  0  0  0  0  0  0  0  0  0  0
  1  2  1  0  0  0  0
  1  5  2  0  0  0  0
  2  6  2  0  0  0  0
  3  8  2  0  0  0  0
  3 16  1  0  0  0  0
  4  9  1  0  0  0  0
  4 16  2  0  0  0  0
  5 18  1  0  0  0  0
  6 20  1  0  0  0  0
  7 10  2  0  0  0  0
  7 19  1  0  0  0  0
  8 23  1  0  0  0  0
  9 23  2  0  0  0  0
 10 24  1  0  0  0  0
 11 12  2  0  0  0  0
 11 25  1  0  0  0  0
 12 27  1  0  0  0  0
 13 21  1  0  0  0  0
 13 24  2  0  0  0  0
 14 26  2  0  0  0  0
 14 31  1  0  0  0  0
 15 27  2  0  0  0  0
 15 28  1  0  0  0  0
 16 29  1  0  0  0  0
 17 29  1  0  0  0  0
 17 32  2  0  0  0  0
 17 33  1  0  0  0  0
 18 20  2  0  0  0  0
 18 38  1  0  0  0  0
 19 21  2  0  0  0  0
 19 39  1  0  0  0  0
 20 52  1  0  0  0  0
 21 40  1  0  0  0  0
 22 26  1  0  0  0  0
 22 30  2  0  0  0  0
 22 65  1  0  0  0  0
 23 87  1  0  0  0  0
 24 89  1  0  0  0  0
 25 28  2  0  0  0  0
 25 87  1  0  0  0  0
 26 88  1  0  0  0  0
 27 90  1  0  0  0  0
 28 91  1  0  0  0  0
 29 70  2  0  0  0  0
 30 58  1  0  0  0  0
 30 71  1  0  0  0  0
 31 71  2  0  0  0  0
 31 78  1  0  0  0  0
 32 72  1  0  0  0  0
 32 76  1  0  0  0  0
 33 77  1  0  0  0  0
 33 82  2  0  0  0  0
 34 53  1  0  0  0  0
 34 79  1  0  0  0  0
 34 83  2  0  0  0  0
 35 67  1  0  0  0  0
 35 73  1  0  0  0  0
 35 84  2  0  0  0  0
 36 68  1  0  0  0  0
 36 80  1  0  0  0  0
 36 85  2  0  0  0  0
 37 74  1  0  0  0  0
 37 75  1  0  0  0  0
 37 86  2  0  0  0  0
 38 41  1  0  0  0  0
 39 53  1  0  0  0  0
 40 73  1  0  0  0  0
 41 43  1  0  0  0  0
 42 44  1  0  0  0  0
 42 48  1  0  0  0  0
 43 52  1  0  0  0  0
 44 56  1  0  0  0  0
 45 49  1  0  0  0  0
 45 54  1  0  0  0  0
 46 50  1  0  0  0  0
 46 54  1  0  0  0  0
 47 55  1  0  0  0  0
 47 57  1  0  0  0  0
 48 74  1  0  0  0  0
 49 75  1  0  0  0  0
 50 75  1  0  0  0  0
 51 56  1  0  0  0  0
 51 74  1  0  0  0  0
 52 79  1  0  0  0  0
 53 73  1  0  0  0  0
 54 66  1  0  0  0  0
 55 57  1  0  0  0  0
 55 59  1  0  0  0  0
 56 72  1  0  0  0  0
 57 88  1  0  0  0  0
 60 68  1  0  0  0  0
 61 69  1  0  0  0  0
 62 69  1  0  0  0  0
 63 69  1  0  0  0  0
 64 81  1  0  0  0  0
 65 89  1  0  0  0  0
 66 78  1  0  0  0  0
 67 69  1  0  0  0  0
 67 80  1  0  0  0  0
 68 81  1  0  0  0  0
 70 72  1  0  0  0  0
M  CHG  1  81   1
M  ISO  4  37 100  65 101  75 100  89 101
M  END
> <Batch ID>
0151

> <Smiles>
CNC(C)C(=O)NC(C(=O)N1Cc2cc([101O:1][101CH2:1]c3c(OC4CC4C)cc(NCC4CC[100N:0]([100C:0](=O)N5CCCC(n6nc(-c7ccc(Oc8ccc(F)cc8F)cc7)c(C(N)=O)c6N)C5)CC4)nc3C)ccc2CC1C(=O)NC1CCCc2ccccc21)C(C)(C)C

> <Shape>
0.212

> <Color>
0.185

> <Negative vol penalty>
0.000

$$$$

  -OEChem-04052321433D

 86 96  0     1  0  0  0  0  0999 V2000
  -31.1920  -21.3036   16.8055 C   0  0  0  0  0  0  0  0  0  0  0  0
  -30.8186  -21.5090   18.1298 C   0  0  0  0  0  0  0  0  0  0  0  0
  -23.3304  -13.0894   19.2592 C   0  0  0  0  0  0  0  0  0  0  0  0
  -23.5484  -12.9012   21.6580 C   0  0  0  0  0  0  0  0  0  0  0  0
  -31.2475  -22.3815   15.9228 C   0  0  0  0  0  0  0  0  0  0  0  0
  -30.5014  -22.7927   18.5725 C   0  0  0  0  0  0  0  0  0  0  0  0
  -27.8140  -20.4668   26.4926 C   0  0  0  0  0  0  0  0  0  0  0  0
  -26.3160  -22.8862   21.4218 C   0  0  0  0  0  0  0  0  0  0  0  0
  -28.2593  -19.2741   25.9228 C   0  0  0  0  0  0  0  0  0  0  0  0
  -22.9983  -11.7368   19.1832 C   0  0  0  0  0  0  0  0  0  0  0  0
  -23.2162  -11.5486   21.5820 C   0  0  0  0  0  0  0  0  0  0  0  0
  -26.4378  -22.4674   22.7460 C   0  0  0  0  0  0  0  0  0  0  0  0
  -22.7775   -7.9630   21.9828 C   0  0  0  0  0  0  0  0  0  0  0  0
  -23.5451   -7.0642   22.7235 C   0  0  0  0  0  0  0  0  0  0  0  0
  -30.2330  -20.4019   25.1044 C   0  0  0  0  0  0  0  0  0  0  0  0
  -26.5292  -24.7699   23.4595 C   0  0  0  0  0  0  0  0  0  0  0  0
  -25.5182   -7.7482   21.5085 C   0  0  0  0  0  0  0  0  0  0  0  0
  -23.6056  -13.6716   20.4966 C   0  0  0  0  0  0  0  0  0  0  0  0
  -23.0671  -16.1531   20.7411 C   0  0  0  0  0  0  0  0  0  0  0  0
  -30.9215  -23.6776   16.3526 C   0  0  0  0  0  0  0  0  0  0  0  0
  -26.3109  -24.2522   21.1050 C   0  0  0  0  0  0  0  0  0  0  0  0
  -30.5539  -23.8891   17.6951 C   0  0  0  0  0  0  0  0  0  0  0  0
  -28.5781  -21.6272   26.3682 C   0  0  0  0  0  0  0  0  0  0  0  0
  -29.7876  -21.5947   25.6741 C   0  0  0  0  0  0  0  0  0  0  0  0
  -26.4047  -25.2035   22.1308 C   0  0  0  0  0  0  0  0  0  0  0  0
  -29.4688  -19.2416   25.2287 C   0  0  0  0  0  0  0  0  0  0  0  0
  -22.9411  -10.9664   20.3446 C   0  0  0  0  0  0  0  0  0  0  0  0
  -26.5473  -23.4092   23.7649 C   0  0  0  0  0  0  0  0  0  0  0  0
  -23.3801   -8.7543   21.0049 C   0  0  0  0  0  0  0  0  0  0  0  0
  -24.9155   -6.9569   22.4864 C   0  0  0  0  0  0  0  0  0  0  0  0
  -24.7505   -8.6469   20.7678 C   0  0  0  0  0  0  0  0  0  0  0  0
  -23.9493  -15.0686   20.5756 C   0  0  0  0  0  0  0  0  0  0  0  0
  -23.8814  -17.2591   20.7547 C   0  0  0  0  0  0  0  0  0  0  0  0
  -21.6392  -16.1601   20.8709 C   0  0  0  0  0  0  0  0  0  0  0  0
  -28.1762  -26.1616   19.3791 C   0  0  0  0  0  0  0  0  0  0  0  0
  -25.8704  -28.3503   20.0235 C   0  0  0  0  0  0  0  0  0  0  0  0
  -23.3331  -29.3699   22.0653 C   0  0  0  0  0  0  0  0  0  0  0  0
  -29.6469  -18.0606   22.1571 C   0  0  0  0  0  0  0  0  0  0  0  0
  -31.0418  -24.8186   15.3737 C   0  0  0  0  0  0  0  0  0  0  0  0
  -26.1519  -24.6880   19.6741 C   0  0  0  0  0  0  0  0  0  0  0  0
  -26.3838  -26.6822   21.8454 C   0  0  0  0  0  0  0  0  0  0  0  0
  -30.3281  -26.0891   15.8286 C   0  0  0  0  0  0  0  0  0  0  0  0
  -27.8853  -24.0794   28.8973 C   0  0  0  0  0  0  0  0  0  0  0  0
  -28.0659  -18.8492   19.0659 C   0  0  0  0  0  0  0  0  0  0  0  0
  -30.3229  -23.7790   24.4028 C   0  0  0  0  0  0  0  0  0  0  0  0
  -31.5612  -22.9393   24.3608 C   0  0  0  0  0  0  0  0  0  0  0  0
  -30.6564  -26.3928   17.2869 C   0  0  0  0  0  0  0  0  0  0  0  0
  -26.7520  -18.0675   19.1173 C   0  0  0  0  0  0  0  0  0  0  0  0
  -27.1629  -22.8498   28.3195 C   0  0  0  0  0  0  0  0  0  0  0  0
  -29.0502  -23.7759   27.9387 C   0  0  0  0  0  0  0  0  0  0  0  0
  -29.2089  -18.0752   19.7190 C   0  0  0  0  0  0  0  0  0  0  0  0
  -27.6270  -16.8375   21.1471 C   0  0  0  0  0  0  0  0  0  0  0  0
  -30.6191  -22.8255   25.5299 C   0  0  0  0  0  0  0  0  0  0  0  0
  -30.1785  -25.2629   18.2069 C   0  0  1  0  0  0  0  0  0  0  0  0
  -26.6755  -26.0978   19.4173 C   0  0  1  0  0  0  0  0  0  0  0  0
  -26.4325  -17.6013   20.5504 C   0  0  2  0  0  0  0  0  0  0  0  0
  -28.0457  -22.9854   27.0312 C   0  0  0  0  0  0  0  0  0  0  0  0
  -21.6599  -31.2174   22.3559 C   0  0  0  0  0  0  0  0  0  0  0  0
  -28.0750  -30.1779   21.0768 C   0  0  0  0  0  0  0  0  0  0  0  0
  -26.3057  -31.5517   22.1951 C   0  0  0  0  0  0  0  0  0  0  0  0
  -26.3272  -31.3322   19.7104 C   0  0  0  0  0  0  0  0  0  0  0  0
  -21.0521  -27.5025   21.8029 C   0  0  0  0  0  0  0  0  0  0  0  0
  -29.9444  -17.9665   24.6192 C   0  0  0  0  0  0  0  0  0  0  0  0
  -27.4004  -23.8518   25.9402 C   0  0  0  0  0  0  0  0  0  1  0  0
  -25.6280  -29.3556   21.1233 C   0  0  1  0  0  0  0  0  0  0  0  0
  -21.9232  -29.8430   21.7606 C   0  0  2  0  0  0  0  0  0  0  0  0
  -26.5864  -30.5765   21.0319 C   0  0  0  0  0  0  0  0  0  0  0  0
  -25.2262  -15.4511   20.4901 N   0  0  0  0  0  0  0  0  0  0  0  0
  -25.1523  -16.7882   20.6022 N   0  0  0  0  0  0  0  0  0  0  0  0
  -26.2329  -27.0583   20.4300 N   0  0  0  0  0  0  0  0  0  0  0  0
  -28.8425  -17.6635   21.0763 N   0  0  0  0  0  0  0  0  0  0  0  0
  -23.6270  -18.5788   20.8821 N   0  0  0  0  0  0  0  0  0  0  0  0
  -20.9592  -14.9351   20.8359 N   0  0  0  0  0  0  0  0  0  0  0  0
  -28.7494  -25.3523   18.4168 N   0  0  0  0  0  0  0  0  0  0  0  0
  -24.2122  -29.7009   21.0559 N   0  0  0  0  0  0  0  0  0  0  0  0
  -29.2249  -17.6331   23.4100 N   0  0  0  0  0  0  0  0  0  0  0  0
  -20.9244  -28.8891   22.3204 N   0  3  0  0  0  0  0  0  0  0  0  0
  -20.9843  -17.2225   20.9974 O   0  0  0  0  0  0  0  0  0  0  0  0
  -28.7700  -26.8921   20.1635 O   0  0  0  0  0  0  0  0  0  0  0  0
  -25.7359  -28.6966   18.8472 O   0  0  0  0  0  0  0  0  0  0  0  0
  -23.6260  -28.7703   23.0973 O   0  0  0  0  0  0  0  0  0  0  0  0
  -30.6628  -18.7499   22.0165 O   0  0  0  0  0  0  0  0  0  0  0  0
  -22.6168   -9.6466   20.2709 O   0  0  0  0  0  0  0  0  0  0  0  0
  -26.6669  -23.0031   25.0582 O   0  0  0  0  0  0  0  0  0  1  0  0
  -25.6528   -6.0949   23.1988 F   0  0  0  0  0  0  0  0  0  0  0  0
  -25.3353   -9.4053   19.8304 F   0  0  0  0  0  0  0  0  0  0  0  0
  1  2  1  0  0  0  0
  1  5  2  0  0  0  0
  2  6  2  0  0  0  0
  3 10  2  0  0  0  0
  3 18  1  0  0  0  0
  4 11  1  0  0  0  0
  4 18  2  0  0  0  0
  5 20  1  0  0  0  0
  6 22  1  0  0  0  0
  7  9  2  0  0  0  0
  7 23  1  0  0  0  0
  8 12  2  0  0  0  0
  8 21  1  0  0  0  0
  9 26  1  0  0  0  0
 10 27  1  0  0  0  0
 11 27  2  0  0  0  0
 12 28  1  0  0  0  0
 13 14  2  0  0  0  0
 13 29  1  0  0  0  0
 14 30  1  0  0  0  0
 15 24  1  0  0  0  0
 15 26  2  0  0  0  0
 16 25  1  0  0  0  0
 16 28  2  0  0  0  0
 17 30  2  0  0  0  0
 17 31  1  0  0  0  0
 18 32  1  0  0  0  0
 19 32  1  0  0  0  0
 19 33  2  0  0  0  0
 19 34  1  0  0  0  0
 20 22  2  0  0  0  0
 20 39  1  0  0  0  0
 21 25  2  0  0  0  0
 21 40  1  0  0  0  0
 22 54  1  0  0  0  0
 23 24  2  0  0  0  0
 23 57  1  0  0  0  0
 24 53  1  0  0  0  0
 25 41  1  0  0  0  0
 26 63  1  0  0  0  0
 27 83  1  0  0  0  0
 28 84  1  0  0  0  0
 29 31  2  0  0  0  0
 29 83  1  0  0  0  0
 30 85  1  0  0  0  0
 31 86  1  0  0  0  0
 32 68  2  0  0  0  0
 33 69  1  0  0  0  0
 33 72  1  0  0  0  0
 34 73  1  0  0  0  0
 34 78  2  0  0  0  0
 35 55  1  0  0  0  0
 35 74  1  0  0  0  0
 35 79  2  0  0  0  0
 36 65  1  0  0  0  0
 36 70  1  0  0  0  0
 36 80  2  0  0  0  0
 37 66  1  0  0  0  0
 37 75  1  0  0  0  0
 37 81  2  0  0  0  0
 38 71  1  0  0  0  0
 38 76  1  0  0  0  0
 38 82  2  0  0  0  0
 39 42  1  0  0  0  0
 40 55  1  0  0  0  0
 41 70  1  0  0  0  0
 42 47  1  0  0  0  0
 43 49  1  0  0  0  0
 43 50  1  0  0  0  0
 44 48  1  0  0  0  0
 44 51  1  0  0  0  0
 45 46  1  0  0  0  0
 45 53  1  0  0  0  0
 46 53  1  0  0  0  0
 47 54  1  0  0  0  0
 48 56  1  0  0  0  0
 49 57  1  0  0  0  0
 50 57  1  0  0  0  0
 51 71  1  0  0  0  0
 52 56  1  0  0  0  0
 52 71  1  0  0  0  0
 54 74  1  0  0  0  0
 55 70  1  0  0  0  0
 56 69  1  0  0  0  0
 57 64  1  0  0  0  0
 58 66  1  0  0  0  0
 59 67  1  0  0  0  0
 60 67  1  0  0  0  0
 61 67  1  0  0  0  0
 62 77  1  0  0  0  0
 63 76  1  0  0  0  0
 64 84  1  0  0  0  0
 65 67  1  0  0  0  0
 65 75  1  0  0  0  0
 66 77  1  0  0  0  0
 68 69  1  0  0  0  0
M  CHG  1  77   1
M  ISO  4  38 100  64 101  76 100  84 101
M  END
> <Batch ID>
0151

> <Smiles>
CNC(C)C(=O)NC(C(=O)N1Cc2cc([101O:1][101CH2:1]C3(c4ccc(C[100NH:0][100C:0](=O)N5CCCC(n6nc(-c7ccc(Oc8ccc(F)cc8F)cc7)c(C(N)=O)c6N)C5)cc4C4CC4)CCC3)ccc2CC1C(=O)NC1CCCc2ccccc21)C(C)(C)C

> <Shape>
0.221

> <Color>
0.065

> <Negative vol penalty>
0.000

$$$$

  -OEChem-04052321433D

 86 95  0     1  0  0  0  0  0999 V2000
  -29.4611  -35.1847   26.0734 C   0  0  0  0  0  0  0  0  0  0  0  0
  -29.3031  -33.8417   25.7465 C   0  0  0  0  0  0  0  0  0  0  0  0
  -23.6965   -9.6238   20.6042 C   0  0  0  0  0  0  0  0  0  0  0  0
  -24.1711  -10.2826   22.8797 C   0  0  0  0  0  0  0  0  0  0  0  0
  -28.3484  -36.0230   26.1291 C   0  0  0  0  0  0  0  0  0  0  0  0
  -28.0321  -33.3360   25.4761 C   0  0  0  0  0  0  0  0  0  0  0  0
  -27.9583  -30.3528   21.3846 C   0  0  0  0  0  0  0  0  0  0  0  0
  -23.1433   -8.4293   21.0654 C   0  0  0  0  0  0  0  0  0  0  0  0
  -23.6178   -9.0881   23.3409 C   0  0  0  0  0  0  0  0  0  0  0  0
  -28.4358  -29.0518   21.5365 C   0  0  0  0  0  0  0  0  0  0  0  0
  -20.2327   -7.4015   22.4456 C   0  0  0  0  0  0  0  0  0  0  0  0
  -19.0199   -6.9923   21.8914 C   0  0  0  0  0  0  0  0  0  0  0  0
  -26.1685  -28.2463   21.7087 C   0  0  0  0  0  0  0  0  0  0  0  0
  -28.9445  -21.8312   21.8913 C   0  0  0  0  0  0  0  0  0  0  0  0
  -29.3031  -22.6932   24.1196 C   0  0  0  0  0  0  0  0  0  0  0  0
  -20.0629   -4.9575   21.1112 C   0  0  0  0  0  0  0  0  0  0  0  0
  -24.2105  -10.5504   21.5114 C   0  0  0  0  0  0  0  0  0  0  0  0
  -24.1141  -13.0046   20.8219 C   0  0  0  0  0  0  0  0  0  0  0  0
  -27.0643  -35.5294   25.8497 C   0  0  0  0  0  0  0  0  0  0  0  0
  -26.5804  -30.6122   21.4045 C   0  0  0  0  0  0  0  0  0  0  0  0
  -26.9010  -34.1681   25.5293 C   0  0  0  0  0  0  0  0  0  0  0  0
  -25.6760  -29.5511   21.5542 C   0  0  0  0  0  0  0  0  0  0  0  0
  -28.9424  -20.5304   22.3948 C   0  0  0  0  0  0  0  0  0  0  0  0
  -29.1206  -20.3110   23.7607 C   0  0  0  0  0  0  0  0  0  0  0  0
  -23.1039   -8.1614   22.4337 C   0  0  0  0  0  0  0  0  0  0  0  0
  -27.5409  -27.9986   21.7015 C   0  0  0  0  0  0  0  0  0  0  0  0
  -21.3607   -6.5887   22.3326 C   0  0  0  0  0  0  0  0  0  0  0  0
  -29.1250  -22.9126   22.7536 C   0  0  0  0  0  0  0  0  0  0  0  0
  -29.3010  -21.3924   24.6231 C   0  0  0  0  0  0  0  0  0  0  0  0
  -18.9350   -5.7703   21.2242 C   0  0  0  0  0  0  0  0  0  0  0  0
  -21.2758   -5.3667   21.6654 C   0  0  0  0  0  0  0  0  0  0  0  0
  -24.7826  -11.7843   21.0356 C   0  0  0  0  0  0  0  0  0  0  0  0
  -25.0920  -13.8576   20.3719 C   0  0  0  0  0  0  0  0  0  0  0  0
  -22.7327  -13.3374   21.0132 C   0  0  0  0  0  0  0  0  0  0  0  0
  -24.6452  -32.3158   23.2637 C   0  0  0  0  0  0  0  0  0  0  0  0
  -22.4306  -31.5074   21.0356 C   0  0  0  0  0  0  0  0  0  0  0  0
  -21.4374  -29.3448   18.5895 C   0  0  0  0  0  0  0  0  0  0  0  0
  -30.2509  -15.9589   20.7119 C   0  0  0  0  0  0  0  0  0  0  0  0
  -25.8859  -36.4632   25.9687 C   0  0  0  0  0  0  0  0  0  0  0  0
  -26.0805  -32.0178   21.2126 C   0  0  0  0  0  0  0  0  0  0  0  0
  -24.1864  -29.7739   21.5623 C   0  0  0  0  0  0  0  0  0  0  0  0
  -24.6190  -35.9333   25.3021 C   0  0  0  0  0  0  0  0  0  0  0  0
  -29.8366  -12.9332   18.8816 C   0  0  0  0  0  0  0  0  0  0  0  0
  -24.3855  -34.4748   25.6831 C   0  0  0  0  0  0  0  0  0  0  0  0
  -28.4328  -12.4624   19.2661 C   0  0  0  0  0  0  0  0  0  0  0  0
  -29.6641  -19.2615   20.2636 C   0  0  0  0  0  0  0  0  0  0  0  0
  -30.5544  -13.5885   20.0595 C   0  0  0  0  0  0  0  0  0  0  0  0
  -28.4053  -14.2136   21.0913 C   0  0  0  0  0  0  0  0  0  0  0  0
  -28.7502  -19.3892   21.4515 C   0  0  1  0  0  0  0  0  0  0  0  0
  -25.5415  -33.5878   25.2052 C   0  0  1  0  0  0  0  0  0  0  0  0
  -24.6742  -32.2323   21.7637 C   0  0  1  0  0  0  0  0  0  0  0  0
  -27.6210  -13.5962   19.9209 C   0  0  2  0  0  0  0  0  0  0  0  0
  -29.7927  -18.2973   21.4056 C   0  0  1  0  0  0  0  0  0  0  0  0
  -29.1180  -18.9191   24.3078 C   0  0  0  0  0  0  0  0  0  0  0  0
  -19.5640  -28.9241   16.9737 C   0  0  0  0  0  0  0  0  0  0  0  0
  -20.7033  -30.4499   23.3176 C   0  0  0  0  0  0  0  0  0  0  0  0
  -19.3357  -29.2193   21.6194 C   0  0  0  0  0  0  0  0  0  0  0  0
  -19.4501  -31.7105   21.5584 C   0  0  0  0  0  0  0  0  0  0  0  0
  -23.2363  -29.6116   16.2546 C   0  0  0  0  0  0  0  0  0  0  0  0
  -29.6531  -22.3606   26.7666 C   0  0  0  0  0  0  0  0  0  0  0  0
  -29.2799  -26.5702   22.4707 C   0  0  0  0  0  0  0  0  0  1  0  0
  -29.3154  -25.2409   23.1995 C   0  0  0  0  0  0  0  0  0  0  0  0
  -21.4673  -30.3595   20.8531 C   0  0  1  0  0  0  0  0  0  0  0  0
  -20.9179  -29.5843   17.1833 C   0  0  2  0  0  0  0  0  0  0  0  0
  -20.2672  -30.4305   21.8389 C   0  0  0  0  0  0  0  0  0  0  0  0
  -26.0846  -11.8518   20.7450 N   0  0  0  0  0  0  0  0  0  0  0  0
  -26.2420  -13.1248   20.3441 N   0  0  0  0  0  0  0  0  0  0  0  0
  -23.7471  -31.1668   21.3774 N   0  0  0  0  0  0  0  0  0  0  0  0
  -29.7320  -14.6560   20.6341 N   0  0  0  0  0  0  0  0  0  0  0  0
  -25.0719  -15.1555   20.0012 N   0  0  0  0  0  0  0  0  0  0  0  0
  -21.8643  -12.3420   21.4817 N   0  0  0  0  0  0  0  0  0  0  0  0
  -25.4265  -33.3289   23.7860 N   0  0  0  0  0  0  0  0  0  0  0  0
  -21.0853  -30.3671   19.4451 N   0  0  0  0  0  0  0  0  0  0  0  0
  -29.4037  -16.9119   21.2640 N   0  0  0  0  0  0  0  0  0  0  0  0
  -21.8702  -29.0330   16.1783 N   0  3  0  0  0  0  0  0  0  0  0  0
  -22.2785  -14.4790   20.7602 O   0  0  0  0  0  0  0  0  0  0  0  0
  -23.9632  -31.5210   23.8999 O   0  0  0  0  0  0  0  0  0  0  0  0
  -22.0316  -32.6633   20.8736 O   0  0  0  0  0  0  0  0  0  0  0  0
  -22.0873  -28.3485   18.8988 O   0  0  0  0  0  0  0  0  0  0  0  0
  -31.3832  -16.2524   20.3135 O   0  0  0  0  0  0  0  0  0  0  0  0
  -22.5639   -6.9960   22.8841 O   0  0  0  0  0  0  0  0  0  0  0  0
  -29.4759  -21.1977   25.9605 O   0  0  0  0  0  0  0  0  0  0  0  0
  -28.0043  -26.7278   21.8507 O   0  0  0  0  0  0  0  0  0  1  0  0
  -29.1258  -24.1904   22.2593 O   0  0  0  0  0  0  0  0  0  0  0  0
  -17.7699   -5.3768   20.6934 F   0  0  0  0  0  0  0  0  0  0  0  0
  -22.3558   -4.5811   21.5547 F   0  0  0  0  0  0  0  0  0  0  0  0
  1  2  1  0  0  0  0
  1  5  2  0  0  0  0
  2  6  2  0  0  0  0
  3  8  2  0  0  0  0
  3 17  1  0  0  0  0
  4  9  1  0  0  0  0
  4 17  2  0  0  0  0
  5 19  1  0  0  0  0
  6 21  1  0  0  0  0
  7 10  2  0  0  0  0
  7 20  1  0  0  0  0
  8 25  1  0  0  0  0
  9 25  2  0  0  0  0
 10 26  1  0  0  0  0
 11 12  2  0  0  0  0
 11 27  1  0  0  0  0
 12 30  1  0  0  0  0
 13 22  1  0  0  0  0
 13 26  2  0  0  0  0
 14 23  1  0  0  0  0
 14 28  2  0  0  0  0
 15 28  1  0  0  0  0
 15 29  2  0  0  0  0
 16 30  2  0  0  0  0
 16 31  1  0  0  0  0
 17 32  1  0  0  0  0
 18 32  1  0  0  0  0
 18 33  2  0  0  0  0
 18 34  1  0  0  0  0
 19 21  2  0  0  0  0
 19 39  1  0  0  0  0
 20 22  2  0  0  0  0
 20 40  1  0  0  0  0
 21 50  1  0  0  0  0
 22 41  1  0  0  0  0
 23 24  2  0  0  0  0
 23 49  1  0  0  0  0
 24 29  1  0  0  0  0
 24 54  1  0  0  0  0
 25 81  1  0  0  0  0
 26 83  1  0  0  0  0
 27 31  2  0  0  0  0
 27 81  1  0  0  0  0
 28 84  1  0  0  0  0
 29 82  1  0  0  0  0
 30 85  1  0  0  0  0
 31 86  1  0  0  0  0
 32 66  2  0  0  0  0
 33 67  1  0  0  0  0
 33 70  1  0  0  0  0
 34 71  1  0  0  0  0
 34 76  2  0  0  0  0
 35 51  1  0  0  0  0
 35 72  1  0  0  0  0
 35 77  2  0  0  0  0
 36 63  1  0  0  0  0
 36 68  1  0  0  0  0
 36 78  2  0  0  0  0
 37 64  1  0  0  0  0
 37 73  1  0  0  0  0
 37 79  2  0  0  0  0
 38 69  1  0  0  0  0
 38 74  1  0  0  0  0
 38 80  2  0  0  0  0
 39 42  1  0  0  0  0
 40 51  1  0  0  0  0
 41 68  1  0  0  0  0
 42 44  1  0  0  0  0
 43 45  1  0  0  0  0
 43 47  1  0  0  0  0
 44 50  1  0  0  0  0
 45 52  1  0  0  0  0
 46 49  1  0  0  0  0
 46 53  1  0  0  0  0
 47 69  1  0  0  0  0
 48 52  1  0  0  0  0
 48 69  1  0  0  0  0
 49 53  1  0  0  0  0
 50 72  1  0  0  0  0
 51 68  1  0  0  0  0
 52 67  1  0  0  0  0
 53 74  1  0  0  0  0
 55 64  1  0  0  0  0
 56 65  1  0  0  0  0
 57 65  1  0  0  0  0
 58 65  1  0  0  0  0
 59 75  1  0  0  0  0
 60 82  1  0  0  0  0
 61 62  1  0  0  0  0
 61 83  1  0  0  0  0
 62 84  1  0  0  0  0
 63 65  1  0  0  0  0
 63 73  1  0  0  0  0
 64 75  1  0  0  0  0
 66 67  1  0  0  0  0
M  CHG  1  75   1
M  ISO  4  38 100  61 101  74 100  83 101
M  END
> <Batch ID>
0151

> <Smiles>
CNC(C)C(=O)NC(C(=O)N1Cc2cc([101O:1][101CH2:1]COc3cc(OC)c(C)c(C4CC4[100NH:0][100C:0](=O)N4CCCC(n5nc(-c6ccc(Oc7ccc(F)cc7F)cc6)c(C(N)=O)c5N)C4)c3)ccc2CC1C(=O)NC1CCCc2ccccc21)C(C)(C)C

> <Shape>
0.304

> <Color>
0.157

> <Negative vol penalty>
0.000

$$$$

  -OEChem-04052321433D

 89 99  0     1  0  0  0  0  0999 V2000
  -16.3043  -30.5902   20.2220 C   0  0  0  0  0  0  0  0  0  0  0  0
  -17.0843  -29.5749   19.6776 C   0  0  0  0  0  0  0  0  0  0  0  0
  -23.0694  -10.0355   19.9554 C   0  0  0  0  0  0  0  0  0  0  0  0
  -23.7300   -9.9629   22.2782 C   0  0  0  0  0  0  0  0  0  0  0  0
  -16.2228  -30.7392   21.6058 C   0  0  0  0  0  0  0  0  0  0  0  0
  -17.7842  -28.7088   20.5169 C   0  0  0  0  0  0  0  0  0  0  0  0
  -18.8925  -22.7605   19.5703 C   0  0  0  0  0  0  0  0  0  0  0  0
  -22.2641   -8.9132   20.1493 C   0  0  0  0  0  0  0  0  0  0  0  0
  -22.9247   -8.8406   22.4721 C   0  0  0  0  0  0  0  0  0  0  0  0
  -20.0067  -22.0803   19.0806 C   0  0  0  0  0  0  0  0  0  0  0  0
  -19.6410   -8.1809   22.9218 C   0  0  0  0  0  0  0  0  0  0  0  0
  -18.8336   -8.1531   24.0589 C   0  0  0  0  0  0  0  0  0  0  0  0
  -24.6755  -17.9474   17.8523 C   0  0  0  0  0  0  0  0  0  0  0  0
  -24.3815  -20.5807   16.9793 C   0  0  0  0  0  0  0  0  0  0  0  0
  -20.7430  -21.6713   21.3411 C   0  0  0  0  0  0  0  0  0  0  0  0
  -19.9535   -6.1466   24.8051 C   0  0  0  0  0  0  0  0  0  0  0  0
  -23.8024  -10.5603   21.0198 C   0  0  0  0  0  0  0  0  0  0  0  0
  -24.2629  -13.0689   20.9681 C   0  0  0  0  0  0  0  0  0  0  0  0
  -16.9143  -29.8684   22.4627 C   0  0  0  0  0  0  0  0  0  0  0  0
  -18.7006  -22.9109   20.9513 C   0  0  0  0  0  0  0  0  0  0  0  0
  -17.7129  -28.8471   21.9135 C   0  0  0  0  0  0  0  0  0  0  0  0
  -25.6796  -18.5461   17.0914 C   0  0  0  0  0  0  0  0  0  0  0  0
  -25.5326  -19.8627   16.6549 C   0  0  0  0  0  0  0  0  0  0  0  0
  -19.6243  -22.3517   21.8458 C   0  0  0  0  0  0  0  0  0  0  0  0
  -23.5244  -18.6653   18.1767 C   0  0  0  0  0  0  0  0  0  0  0  0
  -23.3774  -19.9820   17.7403 C   0  0  0  0  0  0  0  0  0  0  0  0
  -22.1918   -8.3158   21.4077 C   0  0  0  0  0  0  0  0  0  0  0  0
  -20.9336  -21.5381   19.9660 C   0  0  0  0  0  0  0  0  0  0  0  0
  -20.6046   -7.1914   22.7263 C   0  0  0  0  0  0  0  0  0  0  0  0
  -18.9898   -7.1361   25.0006 C   0  0  0  0  0  0  0  0  0  0  0  0
  -20.7608   -6.1743   23.6680 C   0  0  0  0  0  0  0  0  0  0  0  0
  -24.6349  -11.7193   20.8199 C   0  0  0  0  0  0  0  0  0  0  0  0
  -25.4023  -13.7741   20.6669 C   0  0  0  0  0  0  0  0  0  0  0  0
  -23.0003  -13.6345   21.3444 C   0  0  0  0  0  0  0  0  0  0  0  0
  -18.5196  -25.3887   22.9341 C   0  0  0  0  0  0  0  0  0  0  0  0
  -17.7667  -23.0987   25.1046 C   0  0  0  0  0  0  0  0  0  0  0  0
  -17.9402  -19.8199   26.0353 C   0  0  0  0  0  0  0  0  0  0  0  0
  -29.8655  -14.7364   17.6555 C   0  0  0  0  0  0  0  0  0  0  0  0
  -16.8332  -30.0982   23.9511 C   0  0  0  0  0  0  0  0  0  0  0  0
  -17.4797  -23.6243   21.4639 C   0  0  0  0  0  0  0  0  0  0  0  0
  -19.4536  -22.4679   23.3377 C   0  0  0  0  0  0  0  0  0  0  0  0
  -17.3071  -28.9059   24.7782 C   0  0  0  0  0  0  0  0  0  0  0  0
  -30.1709  -12.2366   20.0239 C   0  0  0  0  0  0  0  0  0  0  0  0
  -18.6269  -28.3691   24.2333 C   0  0  0  0  0  0  0  0  0  0  0  0
  -28.7302  -11.9785   20.4651 C   0  0  0  0  0  0  0  0  0  0  0  0
  -28.0438  -17.9551   17.7844 C   0  0  0  0  0  0  0  0  0  0  0  0
  -26.6148  -16.2472   16.5837 C   0  0  0  0  0  0  0  0  0  0  0  0
  -26.7148  -22.0572   15.9308 C   0  0  0  0  0  0  0  0  0  0  0  0
  -30.2515  -12.4460   18.5159 C   0  0  0  0  0  0  0  0  0  0  0  0
  -29.2797  -17.1250   17.4459 C   0  0  0  0  0  0  0  0  0  0  0  0
  -27.8821  -15.4570   16.2709 C   0  0  0  0  0  0  0  0  0  0  0  0
  -27.9323  -13.3007   18.4454 C   0  0  0  0  0  0  0  0  0  0  0  0
  -27.6163  -22.4241   14.7700 C   0  0  0  0  0  0  0  0  0  0  0  0
  -26.4383  -20.3393   14.3206 C   0  0  0  0  0  0  0  0  0  0  0  0
  -26.9229  -17.7455   16.7517 C   0  0  0  0  0  0  0  0  0  0  0  0
  -26.6087  -20.5335   15.8288 C   0  0  2  0  0  0  0  0  0  0  0  0
  -18.4671  -27.8722   22.7914 C   0  0  1  0  0  0  0  0  0  0  0  0
  -17.6530  -24.1624   22.8809 C   0  0  1  0  0  0  0  0  0  0  0  0
  -27.7923  -13.0920   19.9666 C   0  0  1  0  0  0  0  0  0  0  0  0
  -22.4624  -18.0032   18.9918 C   0  0  0  0  0  0  0  0  0  0  0  0
  -17.2643  -18.2570   27.8787 C   0  0  0  0  0  0  0  0  0  0  0  0
  -20.0119  -24.1962   26.8551 C   0  0  0  0  0  0  0  0  0  0  0  0
  -19.9197  -22.0752   28.1822 C   0  0  0  0  0  0  0  0  0  0  0  0
  -17.9301  -23.5774   28.0950 C   0  0  0  0  0  0  0  0  0  0  0  0
  -16.2816  -18.1911   24.2036 C   0  0  0  0  0  0  0  0  0  0  0  0
  -22.1536  -20.7700   18.0745 C   0  0  0  0  0  0  0  0  0  1  0  0
  -18.5519  -22.2241   26.0519 C   0  0  1  0  0  0  0  0  0  0  0  0
  -16.8784  -18.8573   26.5358 C   0  0  2  0  0  0  0  0  0  0  0  0
  -19.1079  -23.0175   27.2680 C   0  0  0  0  0  0  0  0  0  0  0  0
  -25.9108  -11.5734   20.4530 N   0  0  0  0  0  0  0  0  0  0  0  0
  -26.3505  -12.8405   20.3680 N   0  0  0  0  0  0  0  0  0  0  0  0
  -18.2469  -23.1800   23.7899 N   0  0  0  0  0  0  0  0  0  0  0  0
  -29.3421  -13.5062   18.0818 N   0  0  0  0  0  0  0  0  0  0  0  0
  -28.9400  -15.7151   17.2573 N   0  0  0  0  0  0  0  0  0  0  0  0
  -25.6757  -15.0957   20.6312 N   0  0  0  0  0  0  0  0  0  0  0  0
  -21.9348  -12.7665   21.6195 N   0  0  0  0  0  0  0  0  0  0  0  0
  -17.8279  -26.5739   22.7721 N   0  0  0  0  0  0  0  0  0  0  0  0
  -17.6707  -21.1186   26.4122 N   0  0  0  0  0  0  0  0  0  0  0  0
  -27.2504  -21.4405   13.7015 N   0  3  0  0  0  0  0  0  0  0  0  0
  -16.6865  -17.7458   25.5618 N   0  3  0  0  0  0  0  0  0  0  0  0
  -22.8176  -14.8733   21.4180 O   0  0  0  0  0  0  0  0  0  0  0  0
  -19.7263  -25.2685   23.1106 O   0  0  0  0  0  0  0  0  0  0  0  0
  -16.7601  -23.6824   25.5141 O   0  0  0  0  0  0  0  0  0  0  0  0
  -18.9135  -19.4556   25.3792 O   0  0  0  0  0  0  0  0  0  0  0  0
  -31.0837  -14.9518   17.6362 O   0  0  0  0  0  0  0  0  0  0  0  0
  -21.4059   -7.2208   21.5973 O   0  0  0  0  0  0  0  0  0  0  0  0
  -22.0300  -20.8695   19.4873 O   0  0  0  0  0  0  0  0  0  1  0  0
  -18.2155   -7.1104   26.0932 F   0  0  0  0  0  0  0  0  0  0  0  0
  -21.6857   -5.2217   23.4863 F   0  0  0  0  0  0  0  0  0  0  0  0
  1  2  1  0  0  0  0
  1  5  2  0  0  0  0
  2  6  2  0  0  0  0
  3  8  2  0  0  0  0
  3 17  1  0  0  0  0
  4  9  1  0  0  0  0
  4 17  2  0  0  0  0
  5 19  1  0  0  0  0
  6 21  1  0  0  0  0
  7 10  2  0  0  0  0
  7 20  1  0  0  0  0
  8 27  1  0  0  0  0
  9 27  2  0  0  0  0
 10 28  1  0  0  0  0
 11 12  2  0  0  0  0
 11 29  1  0  0  0  0
 12 30  1  0  0  0  0
 13 22  2  0  0  0  0
 13 25  1  0  0  0  0
 14 23  2  0  0  0  0
 14 26  1  0  0  0  0
 15 24  1  0  0  0  0
 15 28  2  0  0  0  0
 16 30  2  0  0  0  0
 16 31  1  0  0  0  0
 17 32  1  0  0  0  0
 18 32  1  0  0  0  0
 18 33  2  0  0  0  0
 18 34  1  0  0  0  0
 19 21  2  0  0  0  0
 19 39  1  0  0  0  0
 20 24  2  0  0  0  0
 20 40  1  0  0  0  0
 21 57  1  0  0  0  0
 22 23  1  0  0  0  0
 22 55  1  0  0  0  0
 23 56  1  0  0  0  0
 24 41  1  0  0  0  0
 25 26  2  0  0  0  0
 25 60  1  0  0  0  0
 26 66  1  0  0  0  0
 27 86  1  0  0  0  0
 28 87  1  0  0  0  0
 29 31  2  0  0  0  0
 29 86  1  0  0  0  0
 30 88  1  0  0  0  0
 31 89  1  0  0  0  0
 32 70  2  0  0  0  0
 33 71  1  0  0  0  0
 33 75  1  0  0  0  0
 34 76  1  0  0  0  0
 34 81  2  0  0  0  0
 35 58  1  0  0  0  0
 35 77  1  0  0  0  0
 35 82  2  0  0  0  0
 36 67  1  0  0  0  0
 36 72  1  0  0  0  0
 36 83  2  0  0  0  0
 37 68  1  0  0  0  0
 37 78  1  0  0  0  0
 37 84  2  0  0  0  0
 38 73  1  0  0  0  0
 38 74  1  0  0  0  0
 38 85  2  0  0  0  0
 39 42  1  0  0  0  0
 40 58  1  0  0  0  0
 41 72  1  0  0  0  0
 42 44  1  0  0  0  0
 43 45  1  0  0  0  0
 43 49  1  0  0  0  0
 44 57  1  0  0  0  0
 45 59  1  0  0  0  0
 46 50  1  0  0  0  0
 46 55  1  0  0  0  0
 47 51  1  0  0  0  0
 47 55  1  0  0  0  0
 48 53  1  0  0  0  0
 48 56  1  0  0  0  0
 49 73  1  0  0  0  0
 50 74  1  0  0  0  0
 51 74  1  0  0  0  0
 52 59  1  0  0  0  0
 52 73  1  0  0  0  0
 53 79  1  0  0  0  0
 54 56  1  0  0  0  0
 54 79  1  0  0  0  0
 57 77  1  0  0  0  0
 58 72  1  0  0  0  0
 59 71  1  0  0  0  0
 61 68  1  0  0  0  0
 62 69  1  0  0  0  0
 63 69  1  0  0  0  0
 64 69  1  0  0  0  0
 65 80  1  0  0  0  0
 66 87  1  0  0  0  0
 67 69  1  0  0  0  0
 67 78  1  0  0  0  0
 68 80  1  0  0  0  0
 70 71  1  0  0  0  0
M  CHG  2  79   1  80   1
M  ISO  4  38 100  66 101  74 100  87 101
M  END
> <Batch ID>
0151

> <Smiles>
CNC(C)C(=O)NC(C(=O)N1Cc2cc([101O:1][101CH2:1]c3cc(C4CCNC4)c(C4CC[100N:0]([100C:0](=O)N5CCCC(n6nc(-c7ccc(Oc8ccc(F)cc8F)cc7)c(C(N)=O)c6N)C5)CC4)cc3C)ccc2CC1C(=O)NC1CCCc2ccccc21)C(C)(C)C

> <Shape>
0.174

> <Color>
0.174

> <Negative vol penalty>
0.000

$$$$

  -OEChem-04052321433D

 91100  0     1  0  0  0  0  0999 V2000
  -20.2149  -32.1018   18.6133 C   0  0  0  0  0  0  0  0  0  0  0  0
  -20.6234  -30.7816   18.4531 C   0  0  0  0  0  0  0  0  0  0  0  0
  -23.0420   -9.9452   19.9776 C   0  0  0  0  0  0  0  0  0  0  0  0
  -23.8061   -9.9658   22.2695 C   0  0  0  0  0  0  0  0  0  0  0  0
  -20.4894  -32.7758   19.8026 C   0  0  0  0  0  0  0  0  0  0  0  0
  -21.3077  -30.1350   19.4817 C   0  0  0  0  0  0  0  0  0  0  0  0
  -20.9302  -24.2144   21.0015 C   0  0  0  0  0  0  0  0  0  0  0  0
  -27.5084  -17.8712   22.7932 C   0  0  0  0  0  0  0  0  0  0  0  0
  -28.7190  -18.9995   21.0329 C   0  0  0  0  0  0  0  0  0  0  0  0
  -22.2837   -8.8045   20.2406 C   0  0  0  0  0  0  0  0  0  0  0  0
  -23.0477   -8.8251   22.5326 C   0  0  0  0  0  0  0  0  0  0  0  0
  -21.7374  -23.1168   20.7058 C   0  0  0  0  0  0  0  0  0  0  0  0
  -26.3023  -18.2961   22.2361 C   0  0  0  0  0  0  0  0  0  0  0  0
  -27.5128  -19.4245   20.4758 C   0  0  0  0  0  0  0  0  0  0  0  0
  -19.8105   -8.0758   23.1487 C   0  0  0  0  0  0  0  0  0  0  0  0
  -19.0552   -8.0578   24.3212 C   0  0  0  0  0  0  0  0  0  0  0  0
  -22.8798  -23.3972   22.8119 C   0  0  0  0  0  0  0  0  0  0  0  0
  -20.2726   -6.1119   25.0755 C   0  0  0  0  0  0  0  0  0  0  0  0
  -23.8034  -10.5259   20.9920 C   0  0  0  0  0  0  0  0  0  0  0  0
  -24.1779  -13.0450   20.8454 C   0  0  0  0  0  0  0  0  0  0  0  0
  -21.1689  -32.1340   20.8500 C   0  0  0  0  0  0  0  0  0  0  0  0
  -21.0993  -24.9195   22.2018 C   0  0  0  0  0  0  0  0  0  0  0  0
  -21.5927  -30.8014   20.6856 C   0  0  0  0  0  0  0  0  0  0  0  0
  -22.0717  -24.5018   23.1216 C   0  0  0  0  0  0  0  0  0  0  0  0
  -28.7168  -18.2229   22.1916 C   0  0  0  0  0  0  0  0  0  0  0  0
  -22.2864   -8.2445   21.5181 C   0  0  0  0  0  0  0  0  0  0  0  0
  -26.3045  -19.0727   21.0775 C   0  0  0  0  0  0  0  0  0  0  0  0
  -22.7144  -22.7098   21.6097 C   0  0  0  0  0  0  0  0  0  0  0  0
  -20.7968   -7.1118   22.9395 C   0  0  0  0  0  0  0  0  0  0  0  0
  -19.2863   -7.0759   25.2846 C   0  0  0  0  0  0  0  0  0  0  0  0
  -21.0279   -6.1299   23.9029 C   0  0  0  0  0  0  0  0  0  0  0  0
  -24.5874  -11.7039   20.7207 C   0  0  0  0  0  0  0  0  0  0  0  0
  -25.2790  -13.7764   20.4726 C   0  0  0  0  0  0  0  0  0  0  0  0
  -22.9150  -13.5816   21.2611 C   0  0  0  0  0  0  0  0  0  0  0  0
  -21.8927  -27.9032   22.9578 C   0  0  0  0  0  0  0  0  0  0  0  0
  -21.2147  -26.9067   25.9694 C   0  0  0  0  0  0  0  0  0  0  0  0
  -20.9282  -24.3113   28.1668 C   0  0  0  0  0  0  0  0  0  0  0  0
  -30.7760  -14.7256   20.6412 C   0  0  0  0  0  0  0  0  0  0  0  0
  -21.4845  -32.9185   22.0989 C   0  0  0  0  0  0  0  0  0  0  0  0
  -20.2026  -26.0850   22.5178 C   0  0  0  0  0  0  0  0  0  0  0  0
  -22.2798  -25.2125   24.4331 C   0  0  0  0  0  0  0  0  0  0  0  0
  -21.8846  -32.0427   23.2834 C   0  0  0  0  0  0  0  0  0  0  0  0
  -29.6030  -12.3317   18.2810 C   0  0  0  0  0  0  0  0  0  0  0  0
  -22.9038  -30.9933   22.8513 C   0  0  0  0  0  0  0  0  0  0  0  0
  -28.1626  -12.0613   18.7194 C   0  0  0  0  0  0  0  0  0  0  0  0
  -32.0631  -18.6660   24.0917 C   0  0  0  0  0  0  0  0  0  0  0  0
  -30.5251  -12.5529   19.4780 C   0  0  0  0  0  0  0  0  0  0  0  0
  -28.6356  -13.3229   20.8602 C   0  0  0  0  0  0  0  0  0  0  0  0
  -31.2272  -19.1127   25.2939 C   0  0  0  0  0  0  0  0  0  0  0  0
  -22.3155  -30.0580   21.7879 C   0  0  1  0  0  0  0  0  0  0  0  0
  -20.8063  -27.0435   23.5396 C   0  0  1  0  0  0  0  0  0  0  0  0
  -27.6571  -13.1490   19.6861 C   0  0  2  0  0  0  0  0  0  0  0  0
  -30.8310  -18.9695   23.2229 C   0  0  1  0  0  0  0  0  0  0  0  0
  -20.3955  -23.8126   30.5678 C   0  0  0  0  0  0  0  0  0  0  0  0
  -28.2582  -21.6299   25.6724 C   0  0  0  0  0  0  0  0  0  0  0  0
  -30.1200  -23.3032   25.5847 C   0  0  0  0  0  0  0  0  0  0  0  0
  -23.9804  -27.9025   26.7873 C   0  0  0  0  0  0  0  0  0  0  0  0
  -23.7692  -26.5531   28.8856 C   0  0  0  0  0  0  0  0  0  0  0  0
  -22.1626  -28.4061   28.4294 C   0  0  0  0  0  0  0  0  0  0  0  0
  -18.5933  -22.6509   27.4247 C   0  0  0  0  0  0  0  0  0  0  0  0
  -30.8721  -16.8877   21.8558 C   0  0  0  0  0  0  0  0  0  0  0  0
  -25.1386  -20.7250   19.8259 C   0  0  0  0  0  0  0  0  0  0  0  0
  -23.7782  -21.3842   19.9463 C   0  0  0  0  0  0  0  0  0  1  0  0
  -30.0063  -17.7682   22.7867 C   0  0  2  0  0  0  0  0  0  0  0  0
  -22.0035  -26.2692   27.0876 C   0  0  1  0  0  0  0  0  0  0  0  0
  -19.8386  -23.9471   29.1591 C   0  0  2  0  0  0  0  0  0  0  0  0
  -29.7734  -21.8107   25.5213 C   0  0  0  0  0  0  0  0  0  0  0  0
  -30.3562  -21.1449   24.2501 C   0  0  2  0  0  0  0  0  0  0  0  0
  -22.9766  -27.2703   27.7720 C   0  0  0  0  0  0  0  0  0  0  0  0
  -25.8502  -11.5873   20.3013 N   0  0  0  0  0  0  0  0  0  0  0  0
  -26.2436  -12.8644   20.1591 N   0  0  0  0  0  0  0  0  0  0  0  0
  -21.3824  -26.3501   24.6935 N   0  0  0  0  0  0  0  0  0  0  0  0
  -29.9896  -13.5975   20.3543 N   0  0  0  0  0  0  0  0  0  0  0  0
  -25.5067  -15.1041   20.3855 N   0  0  0  0  0  0  0  0  0  0  0  0
  -21.8919  -12.6893   21.6095 N   0  0  0  0  0  0  0  0  0  0  0  0
  -29.7671  -21.6473   23.0132 N   0  0  0  0  0  0  0  0  0  0  0  0
  -21.4386  -29.0836   22.4011 N   0  0  0  0  0  0  0  0  0  0  0  0
  -21.0240  -25.6755   27.9912 N   0  0  0  0  0  0  0  0  0  0  0  0
  -30.1905  -15.6707   21.4746 N   0  0  0  0  0  0  0  0  0  0  0  0
  -30.2165  -19.6705   24.3751 N   0  3  2  0  0  0  0  0  0  0  0  0
  -19.2034  -22.6536   28.7793 N   0  3  0  0  0  0  0  0  0  0  0  0
  -22.6949  -14.8157   21.3062 O   0  0  0  0  0  0  0  0  0  0  0  0
  -23.0569  -27.5243   23.0115 O   0  0  0  0  0  0  0  0  0  0  0  0
  -20.4714  -27.8588   26.2201 O   0  0  0  0  0  0  0  0  0  0  0  0
  -21.6272  -23.4698   27.6064 O   0  0  0  0  0  0  0  0  0  0  0  0
  -31.9133  -14.8815   20.1839 O   0  0  0  0  0  0  0  0  0  0  0  0
  -21.5463   -7.1315   21.7753 O   0  0  0  0  0  0  0  0  0  0  0  0
  -25.1197  -19.4889   20.5298 O   0  0  0  0  0  0  0  0  0  0  0  0
  -23.5041  -21.6392   21.3233 O   0  0  0  0  0  0  0  0  0  1  0  0
  -18.5620   -7.0596   26.4113 F   0  0  0  0  0  0  0  0  0  0  0  0
  -21.9748   -5.2020   23.7081 F   0  0  0  0  0  0  0  0  0  0  0  0
  1  2  1  0  0  0  0
  1  5  2  0  0  0  0
  2  6  2  0  0  0  0
  3 10  2  0  0  0  0
  3 19  1  0  0  0  0
  4 11  1  0  0  0  0
  4 19  2  0  0  0  0
  5 21  1  0  0  0  0
  6 23  1  0  0  0  0
  7 12  2  0  0  0  0
  7 22  1  0  0  0  0
  8 13  2  0  0  0  0
  8 25  1  0  0  0  0
  9 14  1  0  0  0  0
  9 25  2  0  0  0  0
 10 26  1  0  0  0  0
 11 26  2  0  0  0  0
 12 28  1  0  0  0  0
 13 27  1  0  0  0  0
 14 27  2  0  0  0  0
 15 16  2  0  0  0  0
 15 29  1  0  0  0  0
 16 30  1  0  0  0  0
 17 24  1  0  0  0  0
 17 28  2  0  0  0  0
 18 30  2  0  0  0  0
 18 31  1  0  0  0  0
 19 32  1  0  0  0  0
 20 32  1  0  0  0  0
 20 33  2  0  0  0  0
 20 34  1  0  0  0  0
 21 23  2  0  0  0  0
 21 39  1  0  0  0  0
 22 24  2  0  0  0  0
 22 40  1  0  0  0  0
 23 50  1  0  0  0  0
 24 41  1  0  0  0  0
 25 64  1  0  0  0  0
 26 87  1  0  0  0  0
 27 88  1  0  0  0  0
 28 89  1  0  0  0  0
 29 31  2  0  0  0  0
 29 87  1  0  0  0  0
 30 90  1  0  0  0  0
 31 91  1  0  0  0  0
 32 70  2  0  0  0  0
 33 71  1  0  0  0  0
 33 74  1  0  0  0  0
 34 75  1  0  0  0  0
 34 82  2  0  0  0  0
 35 51  1  0  0  0  0
 35 77  1  0  0  0  0
 35 83  2  0  0  0  0
 36 65  1  0  0  0  0
 36 72  1  0  0  0  0
 36 84  2  0  0  0  0
 37 66  1  0  0  0  0
 37 78  1  0  0  0  0
 37 85  2  0  0  0  0
 38 73  1  0  0  0  0
 38 79  1  0  0  0  0
 38 86  2  0  0  0  0
 39 42  1  0  0  0  0
 40 51  1  0  0  0  0
 41 72  1  0  0  0  0
 42 44  1  0  0  0  0
 43 45  1  0  0  0  0
 43 47  1  0  0  0  0
 44 50  1  0  0  0  0
 45 52  1  0  0  0  0
 46 49  1  0  0  0  0
 46 53  1  0  0  0  0
 47 73  1  0  0  0  0
 48 52  1  0  0  0  0
 48 73  1  0  0  0  0
 49 80  1  0  0  0  0
 50 77  1  0  0  0  0
 51 72  1  0  0  0  0
 52 71  1  0  0  0  0
 53 64  1  0  0  0  0
 53 80  1  0  0  0  0
 54 66  1  0  0  0  0
 55 67  1  0  0  0  0
 56 67  1  0  0  0  0
 57 69  1  0  0  0  0
 58 69  1  0  0  0  0
 59 69  1  0  0  0  0
 60 81  1  0  0  0  0
 61 64  1  0  0  0  0
 61 79  1  0  0  0  0
 62 63  1  0  0  0  0
 62 88  1  0  0  0  0
 63 89  1  0  0  0  0
 65 69  1  0  0  0  0
 65 78  1  0  0  0  0
 66 81  1  0  0  0  0
 67 68  1  0  0  0  0
 68 76  1  0  0  0  0
 68 80  1  0  0  0  0
 70 71  1  0  0  0  0
M  CHG  2  80   1  81   1
M  ISO  4  38 100  63 101  79 100  89 101
M  END
> <Batch ID>
0151

> <Smiles>
CNC(C)C(=O)NC(C(=O)N1Cc2cc([101O:1][101CH2:1]COc3ccc(C(C[100NH:0][100C:0](=O)N4CCCC(n5nc(-c6ccc(Oc7ccc(F)cc7F)cc6)c(C(N)=O)c5N)C4)C4CCN4C(N)C(C)C)cc3)ccc2CC1C(=O)NC1CCCc2ccccc21)C(C)(C)C

> <Shape>
0.230

> <Color>
0.197

> <Negative vol penalty>
0.000

$$$$

  -OEChem-04052321433D

 88 98  0     1  0  0  0  0  0999 V2000
  -26.2324  -37.8076   21.0652 C   0  0  0  0  0  0  0  0  0  0  0  0
  -26.5572  -36.4650   20.9000 C   0  0  0  0  0  0  0  0  0  0  0  0
  -26.5407  -12.2729   21.7791 C   0  0  0  0  0  0  0  0  0  0  0  0
  -25.7305  -13.8045   20.0954 C   0  0  0  0  0  0  0  0  0  0  0  0
  -25.3406  -38.1898   22.0665 C   0  0  0  0  0  0  0  0  0  0  0  0
  -25.9912  -35.5039   21.7368 C   0  0  0  0  0  0  0  0  0  0  0  0
  -31.4114  -25.3104   20.7316 C   0  0  0  0  0  0  0  0  0  0  0  0
  -24.3656  -31.4338   19.1997 C   0  0  0  0  0  0  0  0  0  0  0  0
  -25.3074  -11.6212   21.7798 C   0  0  0  0  0  0  0  0  0  0  0  0
  -24.4972  -13.1528   20.0960 C   0  0  0  0  0  0  0  0  0  0  0  0
  -30.8350  -26.4709   20.2154 C   0  0  0  0  0  0  0  0  0  0  0  0
  -25.3273  -30.5076   18.7984 C   0  0  0  0  0  0  0  0  0  0  0  0
  -23.6842   -9.3596   19.8607 C   0  0  0  0  0  0  0  0  0  0  0  0
  -23.6880   -7.9649   19.8412 C   0  0  0  0  0  0  0  0  0  0  0  0
  -29.4796  -24.9793   22.1443 C   0  0  0  0  0  0  0  0  0  0  0  0
  -24.7537  -29.1072   20.6770 C   0  0  0  0  0  0  0  0  0  0  0  0
  -22.4951   -7.9322   21.9419 C   0  0  0  0  0  0  0  0  0  0  0  0
  -26.7522  -13.3646   20.9369 C   0  0  0  0  0  0  0  0  0  0  0  0
  -29.1426  -13.7447   20.1311 C   0  0  0  0  0  0  0  0  0  0  0  0
  -30.7337  -24.5646   21.6961 C   0  0  0  0  0  0  0  0  0  0  0  0
  -24.7559  -37.2319   22.9097 C   0  0  0  0  0  0  0  0  0  0  0  0
  -23.5970  -31.2085   20.3507 C   0  0  0  0  0  0  0  0  0  0  0  0
  -25.0917  -35.8738   22.7512 C   0  0  0  0  0  0  0  0  0  0  0  0
  -23.7812  -30.0309   21.0893 C   0  0  0  0  0  0  0  0  0  0  0  0
  -24.2857  -12.0611   20.9382 C   0  0  0  0  0  0  0  0  0  0  0  0
  -25.5235  -29.3455   19.5387 C   0  0  0  0  0  0  0  0  0  0  0  0
  -29.5809  -26.8857   20.6636 C   0  0  0  0  0  0  0  0  0  0  0  0
  -23.0859  -10.0406   20.9209 C   0  0  0  0  0  0  0  0  0  0  0  0
  -28.9032  -26.1399   21.6281 C   0  0  0  0  0  0  0  0  0  0  0  0
  -23.0934   -7.2512   20.8818 C   0  0  0  0  0  0  0  0  0  0  0  0
  -22.4914   -9.3270   21.9615 C   0  0  0  0  0  0  0  0  0  0  0  0
  -28.0257  -14.0385   20.9362 C   0  0  0  0  0  0  0  0  0  0  0  0
  -30.0903  -14.6638   20.5100 C   0  0  0  0  0  0  0  0  0  0  0  0
  -29.3085  -12.7315   19.1303 C   0  0  0  0  0  0  0  0  0  0  0  0
  -23.2273  -32.7062   23.1299 C   0  0  0  0  0  0  0  0  0  0  0  0
  -20.9117  -30.4792   23.5780 C   0  0  0  0  0  0  0  0  0  0  0  0
  -19.6667  -27.3977   22.8026 C   0  0  0  0  0  0  0  0  0  0  0  0
  -31.4472  -19.8667   21.6012 C   0  0  0  0  0  0  0  0  0  0  0  0
  -23.8338  -37.6980   24.0084 C   0  0  0  0  0  0  0  0  0  0  0  0
  -22.5451  -32.2046   20.7552 C   0  0  0  0  0  0  0  0  0  0  0  0
  -22.9679  -29.7321   22.3213 C   0  0  0  0  0  0  0  0  0  0  0  0
  -22.9894  -36.5781   24.6110 C   0  0  0  0  0  0  0  0  0  0  0  0
  -30.2396  -17.8517   24.4061 C   0  0  0  0  0  0  0  0  0  0  0  0
  -23.8548  -35.3574   24.9074 C   0  0  0  0  0  0  0  0  0  0  0  0
  -34.5299  -21.4341   20.4883 C   0  0  0  0  0  0  0  0  0  0  0  0
  -34.5976  -22.9349   20.4724 C   0  0  0  0  0  0  0  0  0  0  0  0
  -29.5888  -16.6837   23.6723 C   0  0  0  0  0  0  0  0  0  0  0  0
  -30.1018  -19.1686   23.6416 C   0  0  0  0  0  0  0  0  0  0  0  0
  -30.4765  -22.0389   22.6007 C   0  0  0  0  0  0  0  0  0  0  0  0
  -29.9293  -17.9160   21.5023 C   0  0  0  0  0  0  0  0  0  0  0  0
  -31.3903  -23.2426   22.2839 C   0  0  1  0  0  0  0  0  0  0  0  0
  -24.4794  -34.7990   23.6230 C   0  0  1  0  0  0  0  0  0  0  0  0
  -22.1758  -32.1169   22.2328 C   0  0  1  0  0  0  0  0  0  0  0  0
  -33.6779  -22.2346   21.4319 C   0  0  0  0  0  0  0  0  0  0  0  0
  -30.1271  -16.5830   22.2371 C   0  0  2  0  0  0  0  0  0  0  0  0
  -32.1751  -22.3012   21.3314 C   0  0  1  0  0  0  0  0  0  0  0  0
  -17.7804  -25.8385   23.3578 C   0  0  0  0  0  0  0  0  0  0  0  0
  -22.2716  -29.7781   26.2179 C   0  0  0  0  0  0  0  0  0  0  0  0
  -20.9534  -27.6498   26.2514 C   0  0  0  0  0  0  0  0  0  0  0  0
  -19.7736  -29.8467   26.3171 C   0  0  0  0  0  0  0  0  0  0  0  0
  -18.6797  -27.4122   20.0125 C   0  0  0  0  0  0  0  0  0  0  0  0
  -27.6497  -27.4055   23.2038 C   0  0  0  0  0  0  0  0  0  0  0  0
  -27.6045  -28.9443   18.4596 C   0  0  0  0  0  0  0  0  0  1  0  0
  -28.7978  -28.0532   18.7454 C   0  0  0  0  0  0  0  0  0  0  0  0
  -20.8644  -29.0895   24.1657 C   0  0  1  0  0  0  0  0  0  0  0  0
  -18.2676  -26.9411   22.4306 C   0  0  2  0  0  0  0  0  0  0  0  0
  -20.9826  -29.0972   25.7160 C   0  0  0  0  0  0  0  0  0  0  0  0
  -28.2424  -15.0641   21.7640 N   0  0  0  0  0  0  0  0  0  0  0  0
  -29.5064  -15.4226   21.4813 N   0  0  0  0  0  0  0  0  0  0  0  0
  -21.9562  -30.7398   22.6797 N   0  0  0  0  0  0  0  0  0  0  0  0
  -30.5193  -19.0366   22.2415 N   0  0  0  0  0  0  0  0  0  0  0  0
  -31.5104  -21.1849   22.0208 N   0  0  0  0  0  0  0  0  0  0  0  0
  -31.3579  -14.8888   20.1037 N   0  0  0  0  0  0  0  0  0  0  0  0
  -28.2340  -11.8713   18.8659 N   0  0  0  0  0  0  0  0  0  0  0  0
  -23.5023  -34.0364   22.8759 N   0  0  0  0  0  0  0  0  0  0  0  0
  -19.6404  -28.4751   23.6628 N   0  0  0  0  0  0  0  0  0  0  0  0
  -18.2460  -26.4237   21.0331 N   0  3  0  0  0  0  0  0  0  0  0  0
  -30.3834  -12.5826   18.5010 O   0  0  0  0  0  0  0  0  0  0  0  0
  -23.7493  -32.0064   23.9898 O   0  0  0  0  0  0  0  0  0  0  0  0
  -20.0494  -31.3010   23.8985 O   0  0  0  0  0  0  0  0  0  0  0  0
  -20.6813  -26.8509   22.3760 O   0  0  0  0  0  0  0  0  0  0  0  0
  -32.1667  -19.4621   20.6799 O   0  0  0  0  0  0  0  0  0  0  0  0
  -23.0823  -11.4253   20.9384 O   0  0  0  0  0  0  0  0  0  0  0  0
  -27.6783  -26.5351   22.0743 O   0  0  0  0  0  0  0  0  0  0  0  0
  -26.4684  -28.4340   19.1469 O   0  0  0  0  0  0  0  0  0  1  0  0
  -29.0291  -28.0216   20.1524 O   0  0  0  0  0  0  0  0  0  0  0  0
  -23.0958   -5.9119   20.8621 F   0  0  0  0  0  0  0  0  0  0  0  0
  -21.9140   -9.9757   22.9821 F   0  0  0  0  0  0  0  0  0  0  0  0
  1  2  1  0  0  0  0
  1  5  2  0  0  0  0
  2  6  2  0  0  0  0
  3  9  2  0  0  0  0
  3 18  1  0  0  0  0
  4 10  1  0  0  0  0
  4 18  2  0  0  0  0
  5 21  1  0  0  0  0
  6 23  1  0  0  0  0
  7 11  2  0  0  0  0
  7 20  1  0  0  0  0
  8 12  2  0  0  0  0
  8 22  1  0  0  0  0
  9 25  1  0  0  0  0
 10 25  2  0  0  0  0
 11 27  1  0  0  0  0
 12 26  1  0  0  0  0
 13 14  2  0  0  0  0
 13 28  1  0  0  0  0
 14 30  1  0  0  0  0
 15 20  2  0  0  0  0
 15 29  1  0  0  0  0
 16 24  1  0  0  0  0
 16 26  2  0  0  0  0
 17 30  2  0  0  0  0
 17 31  1  0  0  0  0
 18 32  1  0  0  0  0
 19 32  1  0  0  0  0
 19 33  2  0  0  0  0
 19 34  1  0  0  0  0
 20 51  1  0  0  0  0
 21 23  2  0  0  0  0
 21 39  1  0  0  0  0
 22 24  2  0  0  0  0
 22 40  1  0  0  0  0
 23 52  1  0  0  0  0
 24 41  1  0  0  0  0
 25 83  1  0  0  0  0
 26 85  1  0  0  0  0
 27 29  2  0  0  0  0
 27 86  1  0  0  0  0
 28 31  2  0  0  0  0
 28 83  1  0  0  0  0
 29 84  1  0  0  0  0
 30 87  1  0  0  0  0
 31 88  1  0  0  0  0
 32 68  2  0  0  0  0
 33 69  1  0  0  0  0
 33 73  1  0  0  0  0
 34 74  1  0  0  0  0
 34 78  2  0  0  0  0
 35 53  1  0  0  0  0
 35 75  1  0  0  0  0
 35 79  2  0  0  0  0
 36 65  1  0  0  0  0
 36 70  1  0  0  0  0
 36 80  2  0  0  0  0
 37 66  1  0  0  0  0
 37 76  1  0  0  0  0
 37 81  2  0  0  0  0
 38 71  1  0  0  0  0
 38 72  1  0  0  0  0
 38 82  2  0  0  0  0
 39 42  1  0  0  0  0
 40 53  1  0  0  0  0
 41 70  1  0  0  0  0
 42 44  1  0  0  0  0
 43 47  1  0  0  0  0
 43 48  1  0  0  0  0
 44 52  1  0  0  0  0
 45 46  1  0  0  0  0
 45 54  1  0  0  0  0
 46 54  1  0  0  0  0
 47 55  1  0  0  0  0
 48 71  1  0  0  0  0
 49 51  1  0  0  0  0
 49 72  1  0  0  0  0
 50 55  1  0  0  0  0
 50 71  1  0  0  0  0
 51 56  1  0  0  0  0
 52 75  1  0  0  0  0
 53 70  1  0  0  0  0
 54 56  1  0  0  0  0
 55 69  1  0  0  0  0
 56 72  1  0  0  0  0
 57 66  1  0  0  0  0
 58 67  1  0  0  0  0
 59 67  1  0  0  0  0
 60 67  1  0  0  0  0
 61 77  1  0  0  0  0
 62 84  1  0  0  0  0
 63 64  1  0  0  0  0
 63 85  1  0  0  0  0
 64 86  1  0  0  0  0
 65 67  1  0  0  0  0
 65 76  1  0  0  0  0
 66 77  1  0  0  0  0
 68 69  1  0  0  0  0
M  CHG  1  77   1
M  ISO  4  38 100  63 101  72 100  85 101
M  END
> <Batch ID>
0151

> <Smiles>
CNC(C)C(=O)NC(C(=O)N1Cc2cc([101O:1][101CH2:1]COc3ccc(C4C[100N:0]([100C:0](=O)N5CCCC(n6nc(-c7ccc(Oc8ccc(F)cc8F)cc7)c(C(N)=O)c6N)C5)C4C4CC4)cc3OC)ccc2CC1C(=O)NC1CCCc2ccccc21)C(C)(C)C

> <Shape>
0.307

> <Color>
0.070

> <Negative vol penalty>
0.000

$$$$

  -OEChem-04052321433D

 87 96  0     1  0  0  0  0  0999 V2000
  -26.7835  -34.6459   25.4457 C   0  0  0  0  0  0  0  0  0  0  0  0
  -27.0701  -33.2938   25.6038 C   0  0  0  0  0  0  0  0  0  0  0  0
  -23.0913   -9.9461   22.3410 C   0  0  0  0  0  0  0  0  0  0  0  0
  -23.7658   -9.4779   20.0688 C   0  0  0  0  0  0  0  0  0  0  0  0
  -25.6241  -35.0381   24.7778 C   0  0  0  0  0  0  0  0  0  0  0  0
  -26.1969  -32.3330   25.0951 C   0  0  0  0  0  0  0  0  0  0  0  0
  -28.6134  -28.6009   22.6708 C   0  0  0  0  0  0  0  0  0  0  0  0
  -22.3602   -8.7586   22.3688 C   0  0  0  0  0  0  0  0  0  0  0  0
  -23.0347   -8.2903   20.0966 C   0  0  0  0  0  0  0  0  0  0  0  0
  -29.2223  -27.6220   23.4548 C   0  0  0  0  0  0  0  0  0  0  0  0
  -20.6098   -5.6727   23.1615 C   0  0  0  0  0  0  0  0  0  0  0  0
  -20.7275   -4.8650   24.2926 C   0  0  0  0  0  0  0  0  0  0  0  0
  -27.3455  -26.1559   23.0712 C   0  0  0  0  0  0  0  0  0  0  0  0
  -29.6475  -18.0865   19.4458 C   0  0  0  0  0  0  0  0  0  0  0  0
  -23.1003   -4.6496   23.8918 C   0  0  0  0  0  0  0  0  0  0  0  0
  -28.5092  -20.1005   18.8937 C   0  0  0  0  0  0  0  0  0  0  0  0
  -23.7940  -10.3059   21.1910 C   0  0  0  0  0  0  0  0  0  0  0  0
  -25.8973  -11.7102   21.5250 C   0  0  0  0  0  0  0  0  0  0  0  0
  -24.7411  -34.0817   24.2522 C   0  0  0  0  0  0  0  0  0  0  0  0
  -27.3588  -28.3684   22.0891 C   0  0  0  0  0  0  0  0  0  0  0  0
  -25.0240  -32.7127   24.4208 C   0  0  0  0  0  0  0  0  0  0  0  0
  -26.7239  -27.1326   22.2782 C   0  0  0  0  0  0  0  0  0  0  0  0
  -28.7331  -18.7567   18.6409 C   0  0  0  0  0  0  0  0  0  0  0  0
  -30.3009  -18.7709   20.4646 C   0  0  0  0  0  0  0  0  0  0  0  0
  -22.3320   -7.9306   21.2466 C   0  0  0  0  0  0  0  0  0  0  0  0
  -28.5871  -26.4003   23.6575 C   0  0  0  0  0  0  0  0  0  0  0  0
  -21.7373   -5.9689   22.3955 C   0  0  0  0  0  0  0  0  0  0  0  0
  -21.9728   -4.3535   24.6578 C   0  0  0  0  0  0  0  0  0  0  0  0
  -22.9826   -5.4573   22.7607 C   0  0  0  0  0  0  0  0  0  0  0  0
  -24.5489  -11.5328   21.1615 C   0  0  0  0  0  0  0  0  0  0  0  0
  -30.0070  -20.1141   20.6357 C   0  0  0  0  0  0  0  0  0  0  0  0
  -26.1353  -13.0472   21.3193 C   0  0  0  0  0  0  0  0  0  0  0  0
  -26.8496  -10.7521   22.0056 C   0  0  0  0  0  0  0  0  0  0  0  0
  -24.4860  -29.7046   22.3435 C   0  0  0  0  0  0  0  0  0  0  0  0
  -23.7537  -27.6666   19.9285 C   0  0  0  0  0  0  0  0  0  0  0  0
  -24.4543  -24.7660   18.2724 C   0  0  0  0  0  0  0  0  0  0  0  0
  -25.6598  -17.6518   18.2021 C   0  0  0  0  0  0  0  0  0  0  0  0
  -23.4765  -34.5535   23.5794 C   0  0  0  0  0  0  0  0  0  0  0  0
  -26.7275  -29.4247   21.2242 C   0  0  0  0  0  0  0  0  0  0  0  0
  -25.3856  -26.8256   21.6591 C   0  0  0  0  0  0  0  0  0  0  0  0
  -22.7931  -33.4751   22.7425 C   0  0  0  0  0  0  0  0  0  0  0  0
  -22.9415  -16.8499   20.3572 C   0  0  0  0  0  0  0  0  0  0  0  0
  -22.7139  -32.1656   23.5207 C   0  0  0  0  0  0  0  0  0  0  0  0
  -23.2254  -15.4084   20.7832 C   0  0  0  0  0  0  0  0  0  0  0  0
  -30.8407  -22.3668   21.2817 C   0  0  0  0  0  0  0  0  0  0  0  0
  -29.8745  -20.8082   23.0206 C   0  0  0  0  0  0  0  0  0  0  0  0
  -23.3499  -17.1007   18.9073 C   0  0  0  0  0  0  0  0  0  0  0  0
  -25.0269  -15.2977   19.0109 C   0  0  0  0  0  0  0  0  0  0  0  0
  -31.4486  -23.2137   22.3925 C   0  0  0  0  0  0  0  0  0  0  0  0
  -30.4900  -21.6668   24.1181 C   0  0  0  0  0  0  0  0  0  0  0  0
  -24.1139  -31.6408   23.8613 C   0  0  1  0  0  0  0  0  0  0  0  0
  -30.6795  -20.9005   21.7143 C   0  0  0  0  0  0  0  0  0  0  0  0
  -25.2145  -29.2718   21.1027 C   0  0  1  0  0  0  0  0  0  0  0  0
  -24.6834  -15.0117   20.4828 C   0  0  2  0  0  0  0  0  0  0  0  0
  -31.2805  -18.0584   21.3319 C   0  0  0  0  0  0  0  0  0  0  0  0
  -23.6580  -23.3464   16.3625 C   0  0  0  0  0  0  0  0  0  0  0  0
  -21.4300  -26.6735   21.6385 C   0  0  0  0  0  0  0  0  0  0  0  0
  -21.2744  -24.6728   20.1414 C   0  0  0  0  0  0  0  0  0  0  0  0
  -20.8934  -26.9563   19.2123 C   0  0  0  0  0  0  0  0  0  0  0  0
  -27.0252  -25.0536   16.8349 C   0  0  0  0  0  0  0  0  0  0  0  0
  -28.0183  -18.0537   17.5423 C   0  0  0  0  0  0  0  0  0  0  0  0
  -31.0855  -24.0098   24.7269 C   0  0  0  0  0  0  0  0  0  0  0  0
  -30.6056  -25.4199   24.4451 C   0  0  0  0  0  0  0  0  0  1  0  0
  -23.2375  -26.2504   19.8441 C   0  0  1  0  0  0  0  0  0  0  0  0
  -24.5992  -24.4608   16.7925 C   0  0  2  0  0  0  0  0  0  0  0  0
  -21.7332  -26.1445   20.2225 C   0  0  0  0  0  0  0  0  0  0  0  0
  -29.1248  -20.7989   19.8739 N   0  0  0  0  0  0  0  0  0  0  0  0
  -23.9708  -12.6664   20.7558 N   0  0  0  0  0  0  0  0  0  0  0  0
  -24.9607  -13.5690   20.8632 N   0  0  0  0  0  0  0  0  0  0  0  0
  -24.8060  -27.8929   20.8269 N   0  0  0  0  0  0  0  0  0  0  0  0
  -24.7435  -16.7052   18.6892 N   0  0  0  0  0  0  0  0  0  0  0  0
  -27.2327  -13.8156   21.4859 N   0  0  0  0  0  0  0  0  0  0  0  0
  -26.4389   -9.4209   22.1588 N   0  0  0  0  0  0  0  0  0  0  0  0
  -24.7166  -31.0192   22.7017 N   0  0  0  0  0  0  0  0  0  0  0  0
  -23.5496  -25.7817   18.4983 N   0  0  0  0  0  0  0  0  0  0  0  0
  -26.9611  -17.1961   18.0299 N   0  0  0  0  0  0  0  0  0  0  0  0
  -30.6079  -23.1053   23.6507 N   0  3  0  0  0  0  0  0  0  0  0  0
  -25.9957  -24.0415   16.4844 N   0  3  0  0  0  0  0  0  0  0  0  0
  -28.0251  -11.0704   22.3063 O   0  0  0  0  0  0  0  0  0  0  0  0
  -23.7666  -28.9056   22.9315 O   0  0  0  0  0  0  0  0  0  0  0  0
  -23.2468  -28.5383   19.2181 O   0  0  0  0  0  0  0  0  0  0  0  0
  -25.0783  -24.1611   19.1415 O   0  0  0  0  0  0  0  0  0  0  0  0
  -25.3430  -18.8182   17.9451 O   0  0  0  0  0  0  0  0  0  0  0  0
  -21.6189   -6.7716   21.2734 O   0  0  0  0  0  0  0  0  0  0  0  0
  -29.1789  -25.4433   24.4228 O   0  0  0  0  0  0  0  0  0  1  0  0
  -22.0859   -3.5791   25.7448 F   0  0  0  0  0  0  0  0  0  0  0  0
  -24.0695   -5.7394   22.0295 F   0  0  0  0  0  0  0  0  0  0  0  0
  1  2  1  0  0  0  0
  1  5  2  0  0  0  0
  2  6  2  0  0  0  0
  3  8  2  0  0  0  0
  3 17  1  0  0  0  0
  4  9  1  0  0  0  0
  4 17  2  0  0  0  0
  5 19  1  0  0  0  0
  6 21  1  0  0  0  0
  7 10  2  0  0  0  0
  7 20  1  0  0  0  0
  8 25  1  0  0  0  0
  9 25  2  0  0  0  0
 10 26  1  0  0  0  0
 11 12  2  0  0  0  0
 11 27  1  0  0  0  0
 12 28  1  0  0  0  0
 13 22  1  0  0  0  0
 13 26  2  0  0  0  0
 14 23  2  0  0  0  0
 14 24  1  0  0  0  0
 15 28  2  0  0  0  0
 15 29  1  0  0  0  0
 16 23  1  0  0  0  0
 16 67  2  0  0  0  0
 17 30  1  0  0  0  0
 18 30  1  0  0  0  0
 18 32  2  0  0  0  0
 18 33  1  0  0  0  0
 19 21  2  0  0  0  0
 19 38  1  0  0  0  0
 20 22  2  0  0  0  0
 20 39  1  0  0  0  0
 21 51  1  0  0  0  0
 22 40  1  0  0  0  0
 23 61  1  0  0  0  0
 24 31  2  0  0  0  0
 24 55  1  0  0  0  0
 25 84  1  0  0  0  0
 26 85  1  0  0  0  0
 27 29  2  0  0  0  0
 27 84  1  0  0  0  0
 28 86  1  0  0  0  0
 29 87  1  0  0  0  0
 30 68  2  0  0  0  0
 31 52  1  0  0  0  0
 31 67  1  0  0  0  0
 32 69  1  0  0  0  0
 32 72  1  0  0  0  0
 33 73  1  0  0  0  0
 33 79  2  0  0  0  0
 34 53  1  0  0  0  0
 34 74  1  0  0  0  0
 34 80  2  0  0  0  0
 35 64  1  0  0  0  0
 35 70  1  0  0  0  0
 35 81  2  0  0  0  0
 36 65  1  0  0  0  0
 36 75  1  0  0  0  0
 36 82  2  0  0  0  0
 37 71  1  0  0  0  0
 37 76  1  0  0  0  0
 37 83  2  0  0  0  0
 38 41  1  0  0  0  0
 39 53  1  0  0  0  0
 40 70  1  0  0  0  0
 41 43  1  0  0  0  0
 42 44  1  0  0  0  0
 42 47  1  0  0  0  0
 43 51  1  0  0  0  0
 44 54  1  0  0  0  0
 45 49  1  0  0  0  0
 45 52  1  0  0  0  0
 46 50  1  0  0  0  0
 46 52  1  0  0  0  0
 47 71  1  0  0  0  0
 48 54  1  0  0  0  0
 48 71  1  0  0  0  0
 49 77  1  0  0  0  0
 50 77  1  0  0  0  0
 51 74  1  0  0  0  0
 53 70  1  0  0  0  0
 54 69  1  0  0  0  0
 56 65  1  0  0  0  0
 57 66  1  0  0  0  0
 58 66  1  0  0  0  0
 59 66  1  0  0  0  0
 60 78  1  0  0  0  0
 61 76  1  0  0  0  0
 62 63  1  0  0  0  0
 62 77  1  0  0  0  0
 63 85  1  0  0  0  0
 64 66  1  0  0  0  0
 64 75  1  0  0  0  0
 65 78  1  0  0  0  0
 68 69  1  0  0  0  0
M  CHG  2  77   1  78   1
M  ISO  4  37 100  63 101  76 100  85 101
M  END
> <Batch ID>
0151

> <Smiles>
CNC(C)C(=O)NC(C(=O)N1Cc2cc([101O:1][101CH2:1]CN3CCC(c4ncc(C[100NH:0][100C:0](=O)N5CCCC(n6nc(-c7ccc(Oc8ccc(F)cc8F)cc7)c(C(N)=O)c6N)C5)cc4C)CC3)ccc2CC1C(=O)NC1CCCc2ccccc21)C(C)(C)C

> <Shape>
0.248

> <Color>
0.103

> <Negative vol penalty>
0.000

$$$$

  -OEChem-04052321433D

 87 96  0     1  0  0  0  0  0999 V2000
  -31.6838  -25.7607   18.2991 C   0  0  0  0  0  0  0  0  0  0  0  0
  -30.3034  -25.5877   18.2879 C   0  0  0  0  0  0  0  0  0  0  0  0
  -24.1339  -12.0013   21.2774 C   0  0  0  0  0  0  0  0  0  0  0  0
  -25.1438  -14.1947   21.1988 C   0  0  0  0  0  0  0  0  0  0  0  0
  -32.2962  -26.4013   19.3754 C   0  0  0  0  0  0  0  0  0  0  0  0
  -29.5348  -26.0543   19.3537 C   0  0  0  0  0  0  0  0  0  0  0  0
  -23.8724  -28.3703   19.0726 C   0  0  0  0  0  0  0  0  0  0  0  0
  -25.3850  -11.4180   21.0775 C   0  0  0  0  0  0  0  0  0  0  0  0
  -26.3950  -13.6114   20.9989 C   0  0  0  0  0  0  0  0  0  0  0  0
  -22.6175  -27.8115   19.3110 C   0  0  0  0  0  0  0  0  0  0  0  0
  -28.1207  -12.2325   18.4394 C   0  0  0  0  0  0  0  0  0  0  0  0
  -28.9409  -12.7801   17.4530 C   0  0  0  0  0  0  0  0  0  0  0  0
  -18.9939  -22.9445   22.4392 C   0  0  0  0  0  0  0  0  0  0  0  0
  -22.6651  -28.6798   21.5612 C   0  0  0  0  0  0  0  0  0  0  0  0
  -18.3468  -21.9393   19.9260 C   0  0  0  0  0  0  0  0  0  0  0  0
  -30.6235  -13.2606   19.1189 C   0  0  0  0  0  0  0  0  0  0  0  0
  -24.0132  -13.3897   21.3380 C   0  0  0  0  0  0  0  0  0  0  0  0
  -22.1193  -14.3142   22.7753 C   0  0  0  0  0  0  0  0  0  0  0  0
  -31.5336  -26.8845   20.4504 C   0  0  0  0  0  0  0  0  0  0  0  0
  -24.5389  -29.0799   20.0819 C   0  0  0  0  0  0  0  0  0  0  0  0
  -30.1377  -26.7007   20.4460 C   0  0  0  0  0  0  0  0  0  0  0  0
  -18.2415  -21.7630   22.3444 C   0  0  0  0  0  0  0  0  0  0  0  0
  -23.9272  -29.2488   21.3322 C   0  0  0  0  0  0  0  0  0  0  0  0
  -17.9045  -21.2587   21.0733 C   0  0  0  0  0  0  0  0  0  0  0  0
  -26.5156  -12.2231   20.9383 C   0  0  0  0  0  0  0  0  0  0  0  0
  -22.0149  -27.9638   20.5563 C   0  0  0  0  0  0  0  0  0  0  0  0
  -28.5518  -12.1990   19.7655 C   0  0  0  0  0  0  0  0  0  0  0  0
  -19.1012  -23.1068   20.0355 C   0  0  0  0  0  0  0  0  0  0  0  0
  -19.4243  -23.6095   21.2917 C   0  0  0  0  0  0  0  0  0  0  0  0
  -30.1923  -13.2942   17.7927 C   0  0  0  0  0  0  0  0  0  0  0  0
  -29.8032  -12.7130   20.1053 C   0  0  0  0  0  0  0  0  0  0  0  0
  -22.7209  -13.9928   21.5438 C   0  0  0  0  0  0  0  0  0  0  0  0
  -20.9068  -14.8611   22.4327 C   0  0  0  0  0  0  0  0  0  0  0  0
  -22.6123  -14.1345   24.1096 C   0  0  0  0  0  0  0  0  0  0  0  0
  -27.2793  -28.7094   21.6493 C   0  0  0  0  0  0  0  0  0  0  0  0
  -26.5041  -31.6000   22.9006 C   0  0  0  0  0  0  0  0  0  0  0  0
  -24.0712  -33.8680   23.6647 C   0  0  0  0  0  0  0  0  0  0  0  0
  -17.8256  -18.2660   19.2613 C   0  0  0  0  0  0  0  0  0  0  0  0
  -32.2453  -27.5284   21.6138 C   0  0  0  0  0  0  0  0  0  0  0  0
  -25.8803  -29.6994   19.8003 C   0  0  0  0  0  0  0  0  0  0  0  0
  -17.7586  -21.1093   23.6157 C   0  0  0  0  0  0  0  0  0  0  0  0
  -24.5920  -30.0190   22.4428 C   0  0  0  0  0  0  0  0  0  0  0  0
  -31.3194  -28.3265   22.5282 C   0  0  0  0  0  0  0  0  0  0  0  0
  -17.2479  -19.6820   23.4218 C   0  0  0  0  0  0  0  0  0  0  0  0
  -18.5019  -15.0116   17.9852 C   0  0  0  0  0  0  0  0  0  0  0  0
  -30.0619  -27.5239   22.8465 C   0  0  0  0  0  0  0  0  0  0  0  0
  -19.6139  -14.4859   18.8946 C   0  0  0  0  0  0  0  0  0  0  0  0
  -18.6488  -16.5086   17.7217 C   0  0  0  0  0  0  0  0  0  0  0  0
  -19.8655  -16.8177   19.8424 C   0  0  0  0  0  0  0  0  0  0  0  0
  -29.2672  -27.2150   21.5720 C   0  0  1  0  0  0  0  0  0  0  0  0
  -17.1126  -19.9765   20.9121 C   0  0  2  0  0  0  0  0  0  0  0  0
  -26.6937  -29.9631   21.0637 C   0  0  1  0  0  0  0  0  0  0  0  0
  -19.7282  -15.3238   20.1824 C   0  0  2  0  0  0  0  0  0  0  0  0
  -16.3449  -19.6158   22.1943 C   0  0  1  0  0  0  0  0  0  0  0  0
  -23.7396  -36.1221   24.7166 C   0  0  0  0  0  0  0  0  0  0  0  0
  -26.8658  -30.3603   25.6651 C   0  0  0  0  0  0  0  0  0  0  0  0
  -25.6288  -32.3134   26.6262 C   0  0  0  0  0  0  0  0  0  0  0  0
  -27.7882  -32.6730   25.4301 C   0  0  0  0  0  0  0  0  0  0  0  0
  -22.9663  -35.0012   21.1639 C   0  0  0  0  0  0  0  0  0  0  0  0
  -18.6446  -24.7385   18.3666 C   0  0  0  0  0  0  0  0  0  0  0  0
  -20.5052  -27.0167   22.1311 C   0  0  0  0  0  0  0  0  0  1  0  0
  -19.5466  -25.8421   22.1019 C   0  0  0  0  0  0  0  0  0  0  0  0
  -25.7222  -32.0692   24.1037 C   0  0  1  0  0  0  0  0  0  0  0  0
  -23.9751  -35.3631   23.4200 C   0  0  2  0  0  0  0  0  0  0  0  0
  -26.4893  -31.8378   25.4362 C   0  0  0  0  0  0  0  0  0  0  0  0
  -21.9539  -14.3090   20.4971 N   0  0  0  0  0  0  0  0  0  0  0  0
  -20.8577  -14.8347   21.0700 N   0  0  0  0  0  0  0  0  0  0  0  0
  -25.9056  -30.6004   22.1206 N   0  0  0  0  0  0  0  0  0  0  0  0
  -18.7504  -17.2459   18.9834 N   0  0  0  0  0  0  0  0  0  0  0  0
  -19.8885  -15.3571   23.1672 N   0  0  0  0  0  0  0  0  0  0  0  0
  -23.8777  -13.5573   24.2822 N   0  0  0  0  0  0  0  0  0  0  0  0
  -28.5233  -28.3807   21.1453 N   0  0  0  0  0  0  0  0  0  0  0  0
  -25.3765  -33.4632   23.8476 N   0  0  0  0  0  0  0  0  0  0  0  0
  -17.9893  -18.9102   20.4815 N   0  0  0  0  0  0  0  0  0  0  0  0
  -15.7767  -18.2454   22.0845 N   0  3  0  0  0  0  0  0  0  0  0  0
  -22.8517  -35.6644   22.4883 N   0  3  0  0  0  0  0  0  0  0  0  0
  -21.9434  -14.4608   25.1194 O   0  0  0  0  0  0  0  0  0  0  0  0
  -26.6498  -28.0871   22.4967 O   0  0  0  0  0  0  0  0  0  0  0  0
  -27.6021  -32.1069   22.6577 O   0  0  0  0  0  0  0  0  0  0  0  0
  -23.0863  -33.1333   23.6945 O   0  0  0  0  0  0  0  0  0  0  0  0
  -16.9179  -18.5758   18.4822 O   0  0  0  0  0  0  0  0  0  0  0  0
  -27.7367  -11.6543   20.7435 O   0  0  0  0  0  0  0  0  0  0  0  0
  -19.5149  -23.7453   18.9057 O   0  0  0  0  0  0  0  0  0  0  0  0
  -20.7904  -27.4188   20.7919 O   0  0  0  0  0  0  0  0  0  1  0  0
  -20.1605  -24.7583   21.4150 O   0  0  0  0  0  0  0  0  0  0  0  0
  -30.9805  -13.8186   16.8452 F   0  0  0  0  0  0  0  0  0  0  0  0
  -30.2233  -12.6825   21.3774 F   0  0  0  0  0  0  0  0  0  0  0  0
  1  2  1  0  0  0  0
  1  5  2  0  0  0  0
  2  6  2  0  0  0  0
  3  8  2  0  0  0  0
  3 17  1  0  0  0  0
  4  9  1  0  0  0  0
  4 17  2  0  0  0  0
  5 19  1  0  0  0  0
  6 21  1  0  0  0  0
  7 10  2  0  0  0  0
  7 20  1  0  0  0  0
  8 25  1  0  0  0  0
  9 25  2  0  0  0  0
 10 26  1  0  0  0  0
 11 12  2  0  0  0  0
 11 27  1  0  0  0  0
 12 30  1  0  0  0  0
 13 22  2  0  0  0  0
 13 29  1  0  0  0  0
 14 23  1  0  0  0  0
 14 26  2  0  0  0  0
 15 24  2  0  0  0  0
 15 28  1  0  0  0  0
 16 30  2  0  0  0  0
 16 31  1  0  0  0  0
 17 32  1  0  0  0  0
 18 32  1  0  0  0  0
 18 33  2  0  0  0  0
 18 34  1  0  0  0  0
 19 21  2  0  0  0  0
 19 39  1  0  0  0  0
 20 23  2  0  0  0  0
 20 40  1  0  0  0  0
 21 50  1  0  0  0  0
 22 24  1  0  0  0  0
 22 41  1  0  0  0  0
 23 42  1  0  0  0  0
 24 51  1  0  0  0  0
 25 82  1  0  0  0  0
 26 84  1  0  0  0  0
 27 31  2  0  0  0  0
 27 82  1  0  0  0  0
 28 29  2  0  0  0  0
 28 83  1  0  0  0  0
 29 85  1  0  0  0  0
 30 86  1  0  0  0  0
 31 87  1  0  0  0  0
 32 66  2  0  0  0  0
 33 67  1  0  0  0  0
 33 70  1  0  0  0  0
 34 71  1  0  0  0  0
 34 77  2  0  0  0  0
 35 52  1  0  0  0  0
 35 72  1  0  0  0  0
 35 78  2  0  0  0  0
 36 63  1  0  0  0  0
 36 68  1  0  0  0  0
 36 79  2  0  0  0  0
 37 64  1  0  0  0  0
 37 73  1  0  0  0  0
 37 80  2  0  0  0  0
 38 69  1  0  0  0  0
 38 74  1  0  0  0  0
 38 81  2  0  0  0  0
 39 43  1  0  0  0  0
 40 52  1  0  0  0  0
 41 44  1  0  0  0  0
 42 68  1  0  0  0  0
 43 46  1  0  0  0  0
 44 54  1  0  0  0  0
 45 47  1  0  0  0  0
 45 48  1  0  0  0  0
 46 50  1  0  0  0  0
 47 53  1  0  0  0  0
 48 69  1  0  0  0  0
 49 53  1  0  0  0  0
 49 69  1  0  0  0  0
 50 72  1  0  0  0  0
 51 54  1  0  0  0  0
 51 74  1  0  0  0  0
 52 68  1  0  0  0  0
 53 67  1  0  0  0  0
 54 75  1  0  0  0  0
 55 64  1  0  0  0  0
 56 65  1  0  0  0  0
 57 65  1  0  0  0  0
 58 65  1  0  0  0  0
 59 76  1  0  0  0  0
 60 83  1  0  0  0  0
 61 62  1  0  0  0  0
 61 84  1  0  0  0  0
 62 85  1  0  0  0  0
 63 65  1  0  0  0  0
 63 73  1  0  0  0  0
 64 76  1  0  0  0  0
 66 67  1  0  0  0  0
M  CHG  2  75   1  76   1
M  ISO  4  38 100  61 101  74 100  84 101
M  END
> <Batch ID>
0151

> <Smiles>
CNC(C)C(=O)NC(C(=O)N1Cc2cc([101O:1][101CH2:1]COc3cc4c(cc3OC)C([100NH:0][100C:0](=O)N3CCCC(n5nc(-c6ccc(Oc7ccc(F)cc7F)cc6)c(C(N)=O)c5N)C3)C(N)CC4)ccc2CC1C(=O)NC1CCCc2ccccc21)C(C)(C)C

> <Shape>
0.273

> <Color>
0.082

> <Negative vol penalty>
0.000

$$$$

  -OEChem-04052321433D

 88 97  0     1  0  0  0  0  0999 V2000
  -29.2652  -21.0708   40.3263 C   0  0  0  0  0  0  0  0  0  0  0  0
  -29.1022  -21.2211   38.9529 C   0  0  0  0  0  0  0  0  0  0  0  0
  -23.1020   -9.8617   19.9212 C   0  0  0  0  0  0  0  0  0  0  0  0
  -23.7958   -9.8778   22.2354 C   0  0  0  0  0  0  0  0  0  0  0  0
  -29.1274  -19.8121   40.9098 C   0  0  0  0  0  0  0  0  0  0  0  0
  -28.8024  -20.1125   38.1620 C   0  0  0  0  0  0  0  0  0  0  0  0
  -25.2578  -20.0024   33.1690 C   0  0  0  0  0  0  0  0  0  0  0  0
  -22.3445   -8.7144   20.1562 C   0  0  0  0  0  0  0  0  0  0  0  0
  -23.0382   -8.7304   22.4705 C   0  0  0  0  0  0  0  0  0  0  0  0
  -25.5548  -20.0295   31.8071 C   0  0  0  0  0  0  0  0  0  0  0  0
  -20.9995   -6.0127   23.7651 C   0  0  0  0  0  0  0  0  0  0  0  0
  -20.2097   -5.9804   24.9143 C   0  0  0  0  0  0  0  0  0  0  0  0
  -25.4177  -17.6222   31.7354 C   0  0  0  0  0  0  0  0  0  0  0  0
  -27.8804  -18.6392   25.9631 C   0  0  0  0  0  0  0  0  0  0  0  0
  -25.4828  -17.3959   26.6618 C   0  0  0  0  0  0  0  0  0  0  0  0
  -18.9982   -7.9205   24.1362 C   0  0  0  0  0  0  0  0  0  0  0  0
  -23.8278  -10.4434   20.9608 C   0  0  0  0  0  0  0  0  0  0  0  0
  -24.1879  -12.9658   20.8362 C   0  0  0  0  0  0  0  0  0  0  0  0
  -28.8162  -18.6891   40.1270 C   0  0  0  0  0  0  0  0  0  0  0  0
  -25.0489  -18.7822   33.8278 C   0  0  0  0  0  0  0  0  0  0  0  0
  -28.6616  -18.8373   38.7354 C   0  0  0  0  0  0  0  0  0  0  0  0
  -25.1157  -17.5824   33.1052 C   0  0  0  0  0  0  0  0  0  0  0  0
  -27.5605  -18.4465   27.3070 C   0  0  0  0  0  0  0  0  0  0  0  0
  -27.0015  -18.2102   24.9685 C   0  0  0  0  0  0  0  0  0  0  0  0
  -26.3618  -17.8249   27.6564 C   0  0  0  0  0  0  0  0  0  0  0  0
  -22.3125   -8.1487   21.4309 C   0  0  0  0  0  0  0  0  0  0  0  0
  -25.6376  -18.8391   31.0907 C   0  0  0  0  0  0  0  0  0  0  0  0
  -20.7887   -6.9990   22.8014 C   0  0  0  0  0  0  0  0  0  0  0  0
  -25.8027  -17.5886   25.3178 C   0  0  0  0  0  0  0  0  0  0  0  0
  -19.2090   -6.9342   25.0999 C   0  0  0  0  0  0  0  0  0  0  0  0
  -19.7880   -7.9528   22.9870 C   0  0  0  0  0  0  0  0  0  0  0  0
  -24.6110  -11.6283   20.7184 C   0  0  0  0  0  0  0  0  0  0  0  0
  -25.2945  -13.7068   20.5002 C   0  0  0  0  0  0  0  0  0  0  0  0
  -22.9090  -13.4914   21.2155 C   0  0  0  0  0  0  0  0  0  0  0  0
  -26.4864  -17.2438   36.2091 C   0  0  0  0  0  0  0  0  0  0  0  0
  -23.9903  -15.1991   35.8767 C   0  0  0  0  0  0  0  0  0  0  0  0
  -21.5448  -13.9140   33.8730 C   0  0  0  0  0  0  0  0  0  0  0  0
  -30.6611  -14.7751   20.6723 C   0  0  0  0  0  0  0  0  0  0  0  0
  -28.7238  -17.3407   40.7963 C   0  0  0  0  0  0  0  0  0  0  0  0
  -24.7031  -18.7716   35.2916 C   0  0  0  0  0  0  0  0  0  0  0  0
  -24.8798  -16.2473   33.7612 C   0  0  0  0  0  0  0  0  0  0  0  0
  -28.0357  -16.2812   39.9394 C   0  0  0  0  0  0  0  0  0  0  0  0
  -29.6915  -12.3283   18.4301 C   0  0  0  0  0  0  0  0  0  0  0  0
  -28.5817  -16.3093   38.5153 C   0  0  0  0  0  0  0  0  0  0  0  0
  -28.2452  -12.0282   18.8236 C   0  0  0  0  0  0  0  0  0  0  0  0
  -29.0134  -17.9416   21.6647 C   0  0  0  0  0  0  0  0  0  0  0  0
  -28.4879  -16.1736   23.3813 C   0  0  0  0  0  0  0  0  0  0  0  0
  -30.5657  -12.5146   19.6650 C   0  0  0  0  0  0  0  0  0  0  0  0
  -30.2404  -17.1390   21.2409 C   0  0  0  0  0  0  0  0  0  0  0  0
  -29.7269  -15.4077   22.9293 C   0  0  0  0  0  0  0  0  0  0  0  0
  -28.6322  -13.2906   20.9973 C   0  0  0  0  0  0  0  0  0  0  0  0
  -28.3115  -17.6630   37.8475 C   0  0  1  0  0  0  0  0  0  0  0  0
  -25.0163  -17.4414   35.9699 C   0  0  1  0  0  0  0  0  0  0  0  0
  -28.6423  -17.6796   23.1301 C   0  0  0  0  0  0  0  0  0  0  0  0
  -27.7000  -13.1002   19.7839 C   0  0  2  0  0  0  0  0  0  0  0  0
  -28.5160  -18.9154   28.3547 C   0  0  0  0  0  0  0  0  0  0  0  0
  -27.4849  -19.9185   23.1790 C   0  0  0  0  0  0  0  0  0  0  0  0
  -19.6839  -12.2304   33.8688 C   0  0  0  0  0  0  0  0  0  0  0  0
  -26.0320  -12.9465   35.6178 C   0  0  0  0  0  0  0  0  0  0  0  0
  -24.2138  -11.4995   34.6858 C   0  0  0  0  0  0  0  0  0  0  0  0
  -24.0316  -12.3863   37.0103 C   0  0  0  0  0  0  0  0  0  0  0  0
  -19.5064  -15.9961   33.3547 C   0  0  0  0  0  0  0  0  0  0  0  0
  -23.7309  -16.5395   24.8052 C   0  0  0  0  0  0  0  0  0  0  0  0
  -25.9974  -17.6075   29.0883 C   0  0  0  0  0  0  0  0  0  1  0  0
  -27.3666  -18.4274   23.5103 C   0  0  2  0  0  0  0  0  0  0  0  0
  -23.7251  -13.9603   35.0557 C   0  0  1  0  0  0  0  0  0  0  0  0
  -20.0639  -13.6825   34.1132 C   0  0  2  0  0  0  0  0  0  0  0  0
  -24.5070  -12.7230   35.5802 C   0  0  0  0  0  0  0  0  0  0  0  0
  -25.8868  -11.5227   20.3372 N   0  0  0  0  0  0  0  0  0  0  0  0
  -26.2748  -12.8033   20.2125 N   0  0  0  0  0  0  0  0  0  0  0  0
  -24.5510  -16.2889   35.1957 N   0  0  0  0  0  0  0  0  0  0  0  0
  -30.0123  -13.5368   20.5531 N   0  0  0  0  0  0  0  0  0  0  0  0
  -30.0777  -15.7163   21.5366 N   0  0  0  0  0  0  0  0  0  0  0  0
  -25.5148  -15.0366   20.4257 N   0  0  0  0  0  0  0  0  0  0  0  0
  -21.8825  -12.5901   21.5287 N   0  0  0  0  0  0  0  0  0  0  0  0
  -26.9327  -17.7475   37.4160 N   0  0  0  0  0  0  0  0  0  0  0  0
  -22.2767  -13.7869   35.0346 N   0  0  0  0  0  0  0  0  0  0  0  0
  -19.2515  -14.5402   33.2047 N   0  3  0  0  0  0  0  0  0  0  0  0
  -22.6786  -14.7237   21.2590 O   0  0  0  0  0  0  0  0  0  0  0  0
  -27.1653  -16.6752   35.3621 O   0  0  0  0  0  0  0  0  0  0  0  0
  -23.7037  -15.2021   37.0765 O   0  0  0  0  0  0  0  0  0  0  0  0
  -22.0067  -14.1772   32.7649 O   0  0  0  0  0  0  0  0  0  0  0  0
  -31.6957  -15.0287   20.0428 O   0  0  0  0  0  0  0  0  0  0  0  0
  -21.5732   -7.0293   21.6606 O   0  0  0  0  0  0  0  0  0  0  0  0
  -24.9324  -17.1648   24.3589 O   0  0  0  0  0  0  0  0  0  0  0  0
  -25.9301  -18.8629   29.7519 O   0  0  0  0  0  0  0  0  0  1  0  0
  -18.4496   -6.9021   26.2028 F   0  0  0  0  0  0  0  0  0  0  0  0
  -19.5800   -8.9021   22.0642 F   0  0  0  0  0  0  0  0  0  0  0  0
  1  2  1  0  0  0  0
  1  5  2  0  0  0  0
  2  6  2  0  0  0  0
  3  8  2  0  0  0  0
  3 17  1  0  0  0  0
  4  9  1  0  0  0  0
  4 17  2  0  0  0  0
  5 19  1  0  0  0  0
  6 21  1  0  0  0  0
  7 10  2  0  0  0  0
  7 20  1  0  0  0  0
  8 26  1  0  0  0  0
  9 26  2  0  0  0  0
 10 27  1  0  0  0  0
 11 12  2  0  0  0  0
 11 28  1  0  0  0  0
 12 30  1  0  0  0  0
 13 22  1  0  0  0  0
 13 27  2  0  0  0  0
 14 23  1  0  0  0  0
 14 24  2  0  0  0  0
 15 25  1  0  0  0  0
 15 29  2  0  0  0  0
 16 30  2  0  0  0  0
 16 31  1  0  0  0  0
 17 32  1  0  0  0  0
 18 32  1  0  0  0  0
 18 33  2  0  0  0  0
 18 34  1  0  0  0  0
 19 21  2  0  0  0  0
 19 39  1  0  0  0  0
 20 22  2  0  0  0  0
 20 40  1  0  0  0  0
 21 52  1  0  0  0  0
 22 41  1  0  0  0  0
 23 25  2  0  0  0  0
 23 56  1  0  0  0  0
 24 29  1  0  0  0  0
 24 65  1  0  0  0  0
 25 64  1  0  0  0  0
 26 84  1  0  0  0  0
 27 86  1  0  0  0  0
 28 31  2  0  0  0  0
 28 84  1  0  0  0  0
 29 85  1  0  0  0  0
 30 87  1  0  0  0  0
 31 88  1  0  0  0  0
 32 69  2  0  0  0  0
 33 70  1  0  0  0  0
 33 74  1  0  0  0  0
 34 75  1  0  0  0  0
 34 79  2  0  0  0  0
 35 53  1  0  0  0  0
 35 76  1  0  0  0  0
 35 80  2  0  0  0  0
 36 66  1  0  0  0  0
 36 71  1  0  0  0  0
 36 81  2  0  0  0  0
 37 67  1  0  0  0  0
 37 77  1  0  0  0  0
 37 82  2  0  0  0  0
 38 72  1  0  0  0  0
 38 73  1  0  0  0  0
 38 83  2  0  0  0  0
 39 42  1  0  0  0  0
 40 53  1  0  0  0  0
 41 71  1  0  0  0  0
 42 44  1  0  0  0  0
 43 45  1  0  0  0  0
 43 48  1  0  0  0  0
 44 52  1  0  0  0  0
 45 55  1  0  0  0  0
 46 49  1  0  0  0  0
 46 54  1  0  0  0  0
 47 50  1  0  0  0  0
 47 54  1  0  0  0  0
 48 72  1  0  0  0  0
 49 73  1  0  0  0  0
 50 73  1  0  0  0  0
 51 55  1  0  0  0  0
 51 72  1  0  0  0  0
 52 76  1  0  0  0  0
 53 71  1  0  0  0  0
 54 65  1  0  0  0  0
 55 70  1  0  0  0  0
 57 65  1  0  0  0  0
 58 67  1  0  0  0  0
 59 68  1  0  0  0  0
 60 68  1  0  0  0  0
 61 68  1  0  0  0  0
 62 78  1  0  0  0  0
 63 85  1  0  0  0  0
 64 86  1  0  0  0  0
 66 68  1  0  0  0  0
 66 77  1  0  0  0  0
 67 78  1  0  0  0  0
 69 70  1  0  0  0  0
M  CHG  1  78   1
M  ISO  4  38 100  64 101  73 100  86 101
M  END
> <Batch ID>
0151

> <Smiles>
CNC(C)C(=O)NC(C(=O)N1Cc2cc([101O:1][101CH2:1]c3cc(OC)c(C(C)C4CC[100N:0]([100C:0](=O)N5CCCC(n6nc(-c7ccc(Oc8ccc(F)cc8F)cc7)c(C(N)=O)c6N)C5)CC4)cc3C)ccc2CC1C(=O)NC1CCCc2ccccc21)C(C)(C)C

> <Shape>
0.159

> <Color>
0.190

> <Negative vol penalty>
0.000

$$$$

  -OEChem-04052321433D

 85 95  0     1  0  0  0  0  0999 V2000
  -21.4483  -23.5249   21.0180 C   0  0  0  0  0  0  0  0  0  0  0  0
  -22.7539  -23.9928   20.9094 C   0  0  0  0  0  0  0  0  0  0  0  0
  -24.0117  -12.5066   21.3270 C   0  0  0  0  0  0  0  0  0  0  0  0
  -25.0008  -12.3983   19.1254 C   0  0  0  0  0  0  0  0  0  0  0  0
  -20.3830  -24.4243   21.0010 C   0  0  0  0  0  0  0  0  0  0  0  0
  -22.9949  -25.3604   20.7825 C   0  0  0  0  0  0  0  0  0  0  0  0
  -26.7742  -26.9509   23.7544 C   0  0  0  0  0  0  0  0  0  0  0  0
  -23.0978  -11.5170   20.9651 C   0  0  0  0  0  0  0  0  0  0  0  0
  -24.0869  -11.4086   18.7635 C   0  0  0  0  0  0  0  0  0  0  0  0
  -28.0748  -26.6892   23.3256 C   0  0  0  0  0  0  0  0  0  0  0  0
  -23.0726   -8.1527   20.6277 C   0  0  0  0  0  0  0  0  0  0  0  0
  -22.8464   -7.1166   21.5337 C   0  0  0  0  0  0  0  0  0  0  0  0
  -30.5335  -25.9355   18.6414 C   0  0  0  0  0  0  0  0  0  0  0  0
  -28.2555  -28.9530   22.5120 C   0  0  0  0  0  0  0  0  0  0  0  0
  -31.1649  -24.8961   20.7290 C   0  0  0  0  0  0  0  0  0  0  0  0
  -20.5105   -7.7237   21.6448 C   0  0  0  0  0  0  0  0  0  0  0  0
  -24.9632  -12.9473   20.4071 C   0  0  0  0  0  0  0  0  0  0  0  0
  -27.1768  -13.7845   21.3594 C   0  0  0  0  0  0  0  0  0  0  0  0
  -20.6116  -25.8043   20.8836 C   0  0  0  0  0  0  0  0  0  0  0  0
  -26.1997  -28.2145   23.5551 C   0  0  0  0  0  0  0  0  0  0  0  0
  -21.9317  -26.2789   20.7625 C   0  0  0  0  0  0  0  0  0  0  0  0
  -30.0484  -24.7122   18.1790 C   0  0  0  0  0  0  0  0  0  0  0  0
  -26.9485  -29.2289   22.9415 C   0  0  0  0  0  0  0  0  0  0  0  0
  -30.1215  -23.5809   18.9916 C   0  0  0  0  0  0  0  0  0  0  0  0
  -31.0918  -26.0274   19.9164 C   0  0  0  0  0  0  0  0  0  0  0  0
  -30.6797  -23.6728   20.2666 C   0  0  0  0  0  0  0  0  0  0  0  0
  -23.1353  -10.9680   19.6834 C   0  0  0  0  0  0  0  0  0  0  0  0
  -28.8146  -27.6894   22.7016 C   0  0  0  0  0  0  0  0  0  0  0  0
  -22.0178   -8.9744   20.2302 C   0  0  0  0  0  0  0  0  0  0  0  0
  -21.5654   -6.9021   22.0423 C   0  0  0  0  0  0  0  0  0  0  0  0
  -20.7368   -8.7599   20.7388 C   0  0  0  0  0  0  0  0  0  0  0  0
  -25.9072  -13.9700   20.7802 C   0  0  0  0  0  0  0  0  0  0  0  0
  -27.6710  -15.0561   21.5180 C   0  0  0  0  0  0  0  0  0  0  0  0
  -27.8493  -12.5711   21.7217 C   0  0  0  0  0  0  0  0  0  0  0  0
  -28.6137  -20.0600   19.4095 C   0  0  0  0  0  0  0  0  0  0  0  0
  -23.6897  -29.3080   21.9403 C   0  0  0  0  0  0  0  0  0  0  0  0
  -24.4660  -32.1035   23.3910 C   0  0  0  0  0  0  0  0  0  0  0  0
  -26.8580  -34.0269   24.8829 C   0  0  0  0  0  0  0  0  0  0  0  0
  -19.4256  -26.7340   20.8223 C   0  0  0  0  0  0  0  0  0  0  0  0
  -24.8052  -28.4887   24.0476 C   0  0  0  0  0  0  0  0  0  0  0  0
  -26.3849  -30.6083   22.7222 C   0  0  0  0  0  0  0  0  0  0  0  0
  -19.7862  -28.1979   21.0615 C   0  0  0  0  0  0  0  0  0  0  0  0
  -25.4171  -19.5539   21.0892 C   0  0  0  0  0  0  0  0  0  0  0  0
  -30.0081  -23.6440   15.8271 C   0  0  0  0  0  0  0  0  0  0  0  0
  -30.2736  -25.1044   15.6347 C   0  0  0  0  0  0  0  0  0  0  0  0
  -21.0115  -28.5869   20.2405 C   0  0  0  0  0  0  0  0  0  0  0  0
  -25.3535  -18.0294   21.1701 C   0  0  0  0  0  0  0  0  0  0  0  0
  -28.1838  -22.1865   18.0037 C   0  0  0  0  0  0  0  0  0  0  0  0
  -26.1040  -20.0213   19.8089 C   0  0  0  0  0  0  0  0  0  0  0  0
  -27.4060  -17.9167   19.6930 C   0  0  0  0  0  0  0  0  0  0  0  0
  -29.4556  -24.6410   16.8102 C   0  0  0  0  0  0  0  0  0  0  0  0
  -29.6008  -22.2684   18.4976 C   0  0  2  0  0  0  0  0  0  0  0  0
  -22.2349  -27.7571   20.6482 C   0  0  1  0  0  0  0  0  0  0  0  0
  -28.5513  -21.5502   19.3125 C   0  0  2  0  0  0  0  0  0  0  0  0
  -24.1378  -29.6585   23.3310 C   0  0  1  0  0  0  0  0  0  0  0  0
  -26.7497  -17.4093   20.9876 C   0  0  2  0  0  0  0  0  0  0  0  0
  -30.7695  -22.4779   21.1589 C   0  0  0  0  0  0  0  0  0  0  0  0
  -27.2019  -36.2800   25.9330 C   0  0  0  0  0  0  0  0  0  0  0  0
  -24.5014  -33.3857   20.6225 C   0  0  0  0  0  0  0  0  0  0  0  0
  -25.7469  -35.3197   21.6106 C   0  0  0  0  0  0  0  0  0  0  0  0
  -23.4442  -34.7839   22.4063 C   0  0  0  0  0  0  0  0  0  0  0  0
  -27.5964  -32.8294   27.4867 C   0  0  0  0  0  0  0  0  0  0  0  0
  -31.6164  -27.3513   20.4170 C   0  0  0  0  0  0  0  0  0  0  0  0
  -30.5479  -28.1612   21.1431 C   0  0  0  0  0  0  0  0  0  1  0  0
  -25.3628  -33.2701   23.0537 C   0  0  1  0  0  0  0  0  0  0  0  0
  -26.8498  -34.8208   26.1768 C   0  0  2  0  0  0  0  0  0  0  0  0
  -24.7741  -34.1634   21.9255 C   0  0  0  0  0  0  0  0  0  0  0  0
  -25.6131  -15.2580   20.5841 N   0  0  0  0  0  0  0  0  0  0  0  0
  -26.7048  -15.8934   21.0429 N   0  0  0  0  0  0  0  0  0  0  0  0
  -27.4144  -19.3811   19.6485 N   0  0  0  0  0  0  0  0  0  0  0  0
  -25.0149  -30.8254   23.2156 N   0  0  0  0  0  0  0  0  0  0  0  0
  -28.8333  -15.5286   22.0161 N   0  0  0  0  0  0  0  0  0  0  0  0
  -27.1984  -11.3517   21.4902 N   0  0  0  0  0  0  0  0  0  0  0  0
  -22.7946  -28.2566   21.8859 N   0  0  0  0  0  0  0  0  0  0  0  0
  -25.6058  -33.9743   24.3080 N   0  0  0  0  0  0  0  0  0  0  0  0
  -27.8366  -34.2536   27.1388 N   0  3  0  0  0  0  0  0  0  0  0  0
  -28.9867  -12.5692   22.2507 O   0  0  0  0  0  0  0  0  0  0  0  0
  -29.7093  -19.5210   19.2756 O   0  0  0  0  0  0  0  0  0  0  0  0
  -24.1227  -29.9452   20.9874 O   0  0  0  0  0  0  0  0  0  0  0  0
  -23.3230  -32.3186   23.8021 O   0  0  0  0  0  0  0  0  0  0  0  0
  -27.8744  -33.5086   24.4258 O   0  0  0  0  0  0  0  0  0  0  0  0
  -22.2438  -10.0021   19.3300 O   0  0  0  0  0  0  0  0  0  0  0  0
  -30.0840  -27.4365   22.2815 O   0  0  0  0  0  0  0  0  0  1  0  0
  -21.3480   -5.9061   22.9111 F   0  0  0  0  0  0  0  0  0  0  0  0
  -19.7192   -9.5452   20.3597 F   0  0  0  0  0  0  0  0  0  0  0  0
  1  2  1  0  0  0  0
  1  5  2  0  0  0  0
  2  6  2  0  0  0  0
  3  8  2  0  0  0  0
  3 17  1  0  0  0  0
  4  9  1  0  0  0  0
  4 17  2  0  0  0  0
  5 19  1  0  0  0  0
  6 21  1  0  0  0  0
  7 10  2  0  0  0  0
  7 20  1  0  0  0  0
  8 27  1  0  0  0  0
  9 27  2  0  0  0  0
 10 28  1  0  0  0  0
 11 12  2  0  0  0  0
 11 29  1  0  0  0  0
 12 30  1  0  0  0  0
 13 22  1  0  0  0  0
 13 25  2  0  0  0  0
 14 23  1  0  0  0  0
 14 28  2  0  0  0  0
 15 25  1  0  0  0  0
 15 26  2  0  0  0  0
 16 30  2  0  0  0  0
 16 31  1  0  0  0  0
 17 32  1  0  0  0  0
 18 32  1  0  0  0  0
 18 33  2  0  0  0  0
 18 34  1  0  0  0  0
 19 21  2  0  0  0  0
 19 39  1  0  0  0  0
 20 23  2  0  0  0  0
 20 40  1  0  0  0  0
 21 53  1  0  0  0  0
 22 24  2  0  0  0  0
 22 51  1  0  0  0  0
 23 41  1  0  0  0  0
 24 26  1  0  0  0  0
 24 52  1  0  0  0  0
 25 63  1  0  0  0  0
 26 57  1  0  0  0  0
 27 82  1  0  0  0  0
 28 83  1  0  0  0  0
 29 31  2  0  0  0  0
 29 82  1  0  0  0  0
 30 84  1  0  0  0  0
 31 85  1  0  0  0  0
 32 68  2  0  0  0  0
 33 69  1  0  0  0  0
 33 72  1  0  0  0  0
 34 73  1  0  0  0  0
 34 77  2  0  0  0  0
 35 54  1  0  0  0  0
 35 70  1  0  0  0  0
 35 78  2  0  0  0  0
 36 55  1  0  0  0  0
 36 74  1  0  0  0  0
 36 79  2  0  0  0  0
 37 65  1  0  0  0  0
 37 71  1  0  0  0  0
 37 80  2  0  0  0  0
 38 66  1  0  0  0  0
 38 75  1  0  0  0  0
 38 81  2  0  0  0  0
 39 42  1  0  0  0  0
 40 55  1  0  0  0  0
 41 71  1  0  0  0  0
 42 46  1  0  0  0  0
 43 47  1  0  0  0  0
 43 49  1  0  0  0  0
 44 45  1  0  0  0  0
 44 51  1  0  0  0  0
 45 51  1  0  0  0  0
 46 53  1  0  0  0  0
 47 56  1  0  0  0  0
 48 52  1  0  0  0  0
 48 54  1  0  0  0  0
 49 70  1  0  0  0  0
 50 56  1  0  0  0  0
 50 70  1  0  0  0  0
 52 54  1  0  0  0  0
 53 74  1  0  0  0  0
 55 71  1  0  0  0  0
 56 69  1  0  0  0  0
 58 66  1  0  0  0  0
 59 67  1  0  0  0  0
 60 67  1  0  0  0  0
 61 67  1  0  0  0  0
 62 76  1  0  0  0  0
 63 64  1  0  0  0  0
 64 83  1  0  0  0  0
 65 67  1  0  0  0  0
 65 75  1  0  0  0  0
 66 76  1  0  0  0  0
 68 69  1  0  0  0  0
M  CHG  1  76   1
M  ISO  4  35 100  54 100  64 101  83 101
M  END
> <Batch ID>
0151

> <Smiles>
CNC(C)C(=O)NC(C(=O)N1Cc2cc([101O:1][101CH2:1]Cc3cc(C)c(C4C[100CH:0]4[100C:0](=O)N4CCCC(n5nc(-c6ccc(Oc7ccc(F)cc7F)cc6)c(C(N)=O)c5N)C4)c(C4CC4)c3)ccc2CC1C(=O)NC1CCCc2ccccc21)C(C)(C)C

> <Shape>
0.298

> <Color>
0.066

> <Negative vol penalty>
0.000

$$$$

  -OEChem-04052321433D

 91100  0     1  0  0  0  0  0999 V2000
  -20.5528   -6.5178   21.4202 C   0  0  0  0  0  0  0  0  0  0  0  0
  -20.9186   -7.5829   22.2370 C   0  0  0  0  0  0  0  0  0  0  0  0
  -19.6967  -28.4218   23.3372 C   0  0  0  0  0  0  0  0  0  0  0  0
  -19.6911  -26.4061   22.0053 C   0  0  0  0  0  0  0  0  0  0  0  0
  -21.3997   -6.1066   20.3918 C   0  0  0  0  0  0  0  0  0  0  0  0
  -22.1321   -8.2368   22.0265 C   0  0  0  0  0  0  0  0  0  0  0  0
  -23.2871  -14.1989   22.8169 C   0  0  0  0  0  0  0  0  0  0  0  0
  -18.3207  -28.5504   23.1484 C   0  0  0  0  0  0  0  0  0  0  0  0
  -18.3150  -26.5346   21.8166 C   0  0  0  0  0  0  0  0  0  0  0  0
  -23.8747  -14.9100   23.8623 C   0  0  0  0  0  0  0  0  0  0  0  0
  -16.2297  -29.6254   20.7202 C   0  0  0  0  0  0  0  0  0  0  0  0
  -15.7363  -30.8886   20.3939 C   0  0  0  0  0  0  0  0  0  0  0  0
  -28.5033  -22.8554   22.1735 C   0  0  0  0  0  0  0  0  0  0  0  0
  -28.6595  -20.6128   21.2884 C   0  0  0  0  0  0  0  0  0  0  0  0
  -25.9939  -14.8380   22.7120 C   0  0  0  0  0  0  0  0  0  0  0  0
  -14.3748  -30.8722   22.3897 C   0  0  0  0  0  0  0  0  0  0  0  0
  -20.3819  -27.3497   22.7656 C   0  0  0  0  0  0  0  0  0  0  0  0
  -22.4589  -26.5285   23.9982 C   0  0  0  0  0  0  0  0  0  0  0  0
  -22.6198   -6.7619   20.1625 C   0  0  0  0  0  0  0  0  0  0  0  0
  -24.0522  -13.7919   21.7144 C   0  0  0  0  0  0  0  0  0  0  0  0
  -22.9968   -7.8331   20.9949 C   0  0  0  0  0  0  0  0  0  0  0  0
  -28.2582  -21.4879   22.2978 C   0  0  0  0  0  0  0  0  0  0  0  0
  -25.4130  -14.1241   21.6528 C   0  0  0  0  0  0  0  0  0  0  0  0
  -29.1496  -23.3479   21.0397 C   0  0  0  0  0  0  0  0  0  0  0  0
  -17.6298  -27.6068   22.3882 C   0  0  0  0  0  0  0  0  0  0  0  0
  -25.2289  -15.2271   23.8113 C   0  0  0  0  0  0  0  0  0  0  0  0
  -15.7956  -28.9855   21.8811 C   0  0  0  0  0  0  0  0  0  0  0  0
  -29.3059  -21.1053   20.1546 C   0  0  0  0  0  0  0  0  0  0  0  0
  -29.5509  -22.4729   20.0303 C   0  0  0  0  0  0  0  0  0  0  0  0
  -14.8088  -31.5120   21.2287 C   0  0  0  0  0  0  0  0  0  0  0  0
  -14.8682  -29.6089   22.7159 C   0  0  0  0  0  0  0  0  0  0  0  0
  -21.8034  -27.2167   22.9597 C   0  0  0  0  0  0  0  0  0  0  0  0
  -23.7957  -26.6990   23.7330 C   0  0  0  0  0  0  0  0  0  0  0  0
  -21.9085  -25.8000   25.1037 C   0  0  0  0  0  0  0  0  0  0  0  0
  -24.8416  -10.9869   20.4447 C   0  0  0  0  0  0  0  0  0  0  0  0
  -26.1400  -12.8433   18.1230 C   0  0  0  0  0  0  0  0  0  0  0  0
  -27.4379  -15.8674   17.2189 C   0  0  0  0  0  0  0  0  0  0  0  0
  -28.0772  -26.7669   20.1539 C   0  0  0  0  0  0  0  0  0  0  0  0
  -23.5238   -6.2511   19.0686 C   0  0  0  0  0  0  0  0  0  0  0  0
  -23.3974  -13.0488   20.5825 C   0  0  0  0  0  0  0  0  0  0  0  0
  -26.2737  -13.7281   20.4819 C   0  0  0  0  0  0  0  0  0  0  0  0
  -24.6206   -7.2372   18.6748 C   0  0  0  0  0  0  0  0  0  0  0  0
  -26.1364  -29.7385   20.4361 C   0  0  0  0  0  0  0  0  0  0  0  0
  -25.2955   -7.8092   19.9174 C   0  0  0  0  0  0  0  0  0  0  0  0
  -24.8881  -29.2892   21.1976 C   0  0  0  0  0  0  0  0  0  0  0  0
  -26.2466  -20.2741   23.1147 C   0  0  0  0  0  0  0  0  0  0  0  0
  -28.4788  -19.9780   24.2622 C   0  0  0  0  0  0  0  0  0  0  0  0
  -26.6301  -28.6594   19.4750 C   0  0  0  0  0  0  0  0  0  0  0  0
  -25.6086  -26.8891   20.8521 C   0  0  0  0  0  0  0  0  0  0  0  0
  -25.5550  -19.6517   24.3209 C   0  0  0  0  0  0  0  0  0  0  0  0
  -27.7699  -19.3583   25.4597 C   0  0  0  0  0  0  0  0  0  0  0  0
  -27.5642  -20.9594   23.5116 C   0  0  0  0  0  0  0  0  0  0  0  0
  -24.2936   -8.5835   20.7824 C   0  0  1  0  0  0  0  0  0  0  0  0
  -24.3854  -12.2382   19.7492 C   0  0  1  0  0  0  0  0  0  0  0  0
  -25.1058  -27.9226   21.8746 C   0  0  2  0  0  0  0  0  0  0  0  0
  -30.2868  -25.3572   22.0552 C   0  0  0  0  0  0  0  0  0  0  0  0
  -28.4506  -17.0713   15.2639 C   0  0  0  0  0  0  0  0  0  0  0  0
  -28.7532  -11.3257   18.5452 C   0  0  0  0  0  0  0  0  0  0  0  0
  -29.9328  -13.1503   17.3011 C   0  0  0  0  0  0  0  0  0  0  0  0
  -28.1888  -11.7857   16.1526 C   0  0  0  0  0  0  0  0  0  0  0  0
  -25.2818  -17.8947   17.2021 C   0  0  0  0  0  0  0  0  0  0  0  0
  -29.4024  -18.8587   19.3806 C   0  0  0  0  0  0  0  0  0  0  0  0
  -29.3599  -23.3249   17.8182 C   0  0  0  0  0  0  0  0  0  0  0  0
  -25.8230  -17.9491   26.1219 C   0  0  0  0  0  0  0  0  0  0  0  0
  -24.9738  -16.8324   25.5474 C   0  0  0  0  0  0  0  0  0  1  0  0
  -29.4024  -24.8150   20.9239 C   0  0  2  0  0  0  0  0  0  0  0  0
  -27.4892  -13.4805   17.8933 C   0  0  1  0  0  0  0  0  0  0  0  0
  -27.1692  -16.7616   16.0220 C   0  0  2  0  0  0  0  0  0  0  0  0
  -28.5755  -12.4415   17.4962 C   0  0  0  0  0  0  0  0  0  0  0  0
  -22.6538  -27.7825   22.0990 N   0  0  0  0  0  0  0  0  0  0  0  0
  -23.8573  -27.4501   22.5962 N   0  0  0  0  0  0  0  0  0  0  0  0
  -25.5888  -12.9972   19.4029 N   0  0  0  0  0  0  0  0  0  0  0  0
  -26.8181  -27.3891   20.1799 N   0  0  0  0  0  0  0  0  0  0  0  0
  -24.9127  -26.2784   24.3636 N   0  0  0  0  0  0  0  0  0  0  0  0
  -20.5144  -25.7239   25.2261 N   0  0  0  0  0  0  0  0  0  0  0  0
  -24.0362   -9.8884   20.2121 N   0  0  0  0  0  0  0  0  0  0  0  0
  -27.2803  -14.5338   16.9057 N   0  0  0  0  0  0  0  0  0  0  0  0
  -28.1710  -25.5696   20.8527 N   0  0  0  0  0  0  0  0  0  0  0  0
  -26.4895  -18.6778   25.0133 N   0  3  0  0  0  0  0  0  0  0  0  0
  -26.5614  -18.0488   16.4632 N   0  3  0  0  0  0  0  0  0  0  0  0
  -22.6317  -25.2472   25.9669 O   0  0  0  0  0  0  0  0  0  0  0  0
  -25.8505  -11.0155   21.1396 O   0  0  0  0  0  0  0  0  0  0  0  0
  -25.5921  -12.2375   17.1986 O   0  0  0  0  0  0  0  0  0  0  0  0
  -27.7593  -16.3076   18.3205 O   0  0  0  0  0  0  0  0  0  0  0  0
  -29.0474  -27.2459   19.5570 O   0  0  0  0  0  0  0  0  0  0  0  0
  -16.2871  -27.7318   22.2040 O   0  0  0  0  0  0  0  0  0  0  0  0
  -29.6908  -20.2402   19.1751 O   0  0  0  0  0  0  0  0  0  0  0  0
  -30.1830  -22.9499   18.9200 O   0  0  0  0  0  0  0  0  0  0  0  0
  -25.8052  -15.9205   24.8307 O   0  0  0  0  0  0  0  0  0  1  0  0
  -14.3362  -32.7257   20.9162 F   0  0  0  0  0  0  0  0  0  0  0  0
  -14.4483  -28.9996   23.8332 F   0  0  0  0  0  0  0  0  0  0  0  0
  1  2  1  0  0  0  0
  1  5  2  0  0  0  0
  2  6  2  0  0  0  0
  3  8  2  0  0  0  0
  3 17  1  0  0  0  0
  4  9  1  0  0  0  0
  4 17  2  0  0  0  0
  5 19  1  0  0  0  0
  6 21  1  0  0  0  0
  7 10  2  0  0  0  0
  7 20  1  0  0  0  0
  8 25  1  0  0  0  0
  9 25  2  0  0  0  0
 10 26  1  0  0  0  0
 11 12  2  0  0  0  0
 11 27  1  0  0  0  0
 12 30  1  0  0  0  0
 13 22  2  0  0  0  0
 13 24  1  0  0  0  0
 14 22  1  0  0  0  0
 14 28  2  0  0  0  0
 15 23  1  0  0  0  0
 15 26  2  0  0  0  0
 16 30  2  0  0  0  0
 16 31  1  0  0  0  0
 17 32  1  0  0  0  0
 18 32  1  0  0  0  0
 18 33  2  0  0  0  0
 18 34  1  0  0  0  0
 19 21  2  0  0  0  0
 19 39  1  0  0  0  0
 20 23  2  0  0  0  0
 20 40  1  0  0  0  0
 21 53  1  0  0  0  0
 22 52  1  0  0  0  0
 23 41  1  0  0  0  0
 24 29  2  0  0  0  0
 24 66  1  0  0  0  0
 25 86  1  0  0  0  0
 26 89  1  0  0  0  0
 27 31  2  0  0  0  0
 27 86  1  0  0  0  0
 28 29  1  0  0  0  0
 28 87  1  0  0  0  0
 29 88  1  0  0  0  0
 30 90  1  0  0  0  0
 31 91  1  0  0  0  0
 32 70  2  0  0  0  0
 33 71  1  0  0  0  0
 33 74  1  0  0  0  0
 34 75  1  0  0  0  0
 34 81  2  0  0  0  0
 35 54  1  0  0  0  0
 35 76  1  0  0  0  0
 35 82  2  0  0  0  0
 36 67  1  0  0  0  0
 36 72  1  0  0  0  0
 36 83  2  0  0  0  0
 37 68  1  0  0  0  0
 37 77  1  0  0  0  0
 37 84  2  0  0  0  0
 38 73  1  0  0  0  0
 38 78  1  0  0  0  0
 38 85  2  0  0  0  0
 39 42  1  0  0  0  0
 40 54  1  0  0  0  0
 41 72  1  0  0  0  0
 42 44  1  0  0  0  0
 43 45  1  0  0  0  0
 43 48  1  0  0  0  0
 44 53  1  0  0  0  0
 45 55  1  0  0  0  0
 46 50  1  0  0  0  0
 46 52  1  0  0  0  0
 47 51  1  0  0  0  0
 47 52  1  0  0  0  0
 48 73  1  0  0  0  0
 49 55  1  0  0  0  0
 49 73  1  0  0  0  0
 50 79  1  0  0  0  0
 51 79  1  0  0  0  0
 53 76  1  0  0  0  0
 54 72  1  0  0  0  0
 55 71  1  0  0  0  0
 56 66  1  0  0  0  0
 57 68  1  0  0  0  0
 58 69  1  0  0  0  0
 59 69  1  0  0  0  0
 60 69  1  0  0  0  0
 61 80  1  0  0  0  0
 62 87  1  0  0  0  0
 63 88  1  0  0  0  0
 64 65  1  0  0  0  0
 64 79  1  0  0  0  0
 65 89  1  0  0  0  0
 66 78  1  0  0  0  0
 67 69  1  0  0  0  0
 67 77  1  0  0  0  0
 68 80  1  0  0  0  0
 70 71  1  0  0  0  0
M  CHG  2  79   1  80   1
M  ISO  4  38 100  65 101  78 100  89 101
M  END
> <Batch ID>
0151

> <Smiles>
CNC(C)C(=O)NC(C(=O)N1Cc2cc([101O:1][101CH2:1]CN3CCC(c4cc(OC)c(OC)c(C(C)[100NH:0][100C:0](=O)N5CCCC(n6nc(-c7ccc(Oc8ccc(F)cc8F)cc7)c(C(N)=O)c6N)C5)c4)CC3)ccc2CC1C(=O)NC1CCCc2ccccc21)C(C)(C)C

> <Shape>
0.242

> <Color>
0.068

> <Negative vol penalty>
0.000

$$$$
